# CIF file generated by openbabel 3.1.0, see https://openbabel.org
data_I
_chemical_name_common 'image0'
_cell_length_a 16.719
_cell_length_b 16.719
_cell_length_c 24.598
_cell_angle_alpha 90
_cell_angle_beta 90
_cell_angle_gamma 120
_space_group_name_H-M_alt 'P 1'
_space_group_name_Hall 'P 1'
loop_
    _symmetry_equiv_pos_as_xyz
    x,y,z
loop_
    _atom_site_label
    _atom_site_type_symbol
    _atom_site_fract_x
    _atom_site_fract_y
    _atom_site_fract_z
    _atom_site_occupancy
    Ni1      Ni       0.40810    0.68558    0.75050    1.000
    Ni2      Ni       0.49459    0.25632    0.46877    1.000
    C1       C        0.04620    0.82920    0.55990    1.000
    H1       H        0.10070    0.83310    0.54450    1.000
    H2       H        0.05170    0.83310    0.59880    1.000
    H3       H        0.03890    0.87910    0.54650    1.000
    C2       C        0.96210    0.73740    0.54400    1.000
    H4       H        0.97060    0.68840    0.55980    1.000
    C3       C        0.87260    0.72590    0.56710    1.000
    C4       C        0.78770    0.64160    0.55830    1.000
    C5       C        0.70520    0.62610    0.57930    1.000
    H5       H        0.65140    0.56990    0.57360    1.000
    C6       C        0.70310    0.69610    0.60950    1.000
    C7       C        0.78320    0.78170    0.61690    1.000
    C8       C        0.86510    0.79170    0.59600    1.000
    H6       H        0.91900    0.84750    0.60220    1.000
    C9       C        0.73060    0.53040    0.48740    1.000
    H7       H        0.76300    0.53480    0.45380    1.000
    H8       H        0.69600    0.56220    0.48200    1.000
    C10      C        0.66400    0.42990    0.49970    1.000
    C11      C        0.54450    0.59660    0.63260    1.000
    H9       H        0.56110    0.55180    0.64520    1.000
    H10      H        0.52160    0.58050    0.59570    1.000
    C12      C        0.46870    0.59270    0.66890    1.000
    C13      C        0.77870    0.86020    0.64550    1.000
    H11      H        0.73410    0.83210    0.67520    1.000
    C14      C        0.86900    0.93060    0.67140    1.000
    H12      H        0.86130    0.97780    0.68860    1.000
    H13      H        0.91580    0.95790    0.64390    1.000
    H14      H        0.88710    0.90070    0.69800    1.000
    C15      C        0.74160    0.90740    0.60830    1.000
    C16      C        0.69810    0.95030    0.62970    1.000
    C17      C        0.66740    0.99830    0.59770    1.000
    H15      H        0.63880    0.02770    0.61380    1.000
    C18      C        0.67940    0.00240    0.54190    1.000
    C19      C        0.72400    0.95690    0.51790    1.000
    C20      C        0.75300    0.91180    0.55190    1.000
    H16      H        0.78220    0.88230    0.53660    1.000
    C21      C        0.59840    0.88200    0.70230    1.000
    H17      H        0.58370    0.82440    0.68460    1.000
    H18      H        0.55260    0.89830    0.69150    1.000
    C22      C        0.59650    0.87010    0.76440    1.000
    C23      C        0.60900    0.09340    0.53040    1.000
    H19      H        0.64920    0.13450    0.55860    1.000
    H20      H        0.55110    0.04920    0.54740    1.000
    C24      C        0.59130    0.14830    0.48900    1.000
    O1       O        0.79600    0.57500    0.52940    1.000
    O2       O        0.67390    0.39960    0.54410    1.000
    O3       O        0.60410    0.38710    0.46300    1.000
    O4       O        0.62440    0.68640    0.63300    1.000
    O5       O        0.38940    0.52590    0.66210    1.000
    O6       O        0.49070    0.65440    0.70510    1.000
    O7       O        0.68600    0.95130    0.68646    1.000
    O8       O        0.65620    0.92860    0.79190    1.000
    O9       O        0.52430    0.80070    0.78392    1.000
    O10      O        0.65040    0.04580    0.50690    1.000
    O11      O        0.59590    0.13540    0.44030    1.000
    O12      O        0.56980    0.20460    0.50804    1.000
    Ni3      Ni       0.31442    0.72252    0.08383    1.000
    Ni4      Ni       0.74368    0.23827    0.80210    1.000
    C25      C        0.17080    0.21700    0.89323    1.000
    H21      H        0.16690    0.26760    0.87783    1.000
    H22      H        0.16690    0.21860    0.93213    1.000
    H23      H        0.12090    0.15980    0.87983    1.000
    C26      C        0.26260    0.22470    0.87733    1.000
    H24      H        0.31160    0.28220    0.89313    1.000
    C27      C        0.27410    0.14670    0.90043    1.000
    C28      C        0.35840    0.14610    0.89163    1.000
    C29      C        0.37390    0.07910    0.91263    1.000
    H25      H        0.43010    0.08150    0.90693    1.000
    C30      C        0.30390    0.00700    0.94283    1.000
    C31      C        0.21830    0.00150    0.95023    1.000
    C32      C        0.20830    0.07340    0.92933    1.000
    H26      H        0.15250    0.07150    0.93553    1.000
    C33      C        0.46960    0.20020    0.82073    1.000
    H27      H        0.46520    0.22820    0.78713    1.000
    H28      H        0.43780    0.13380    0.81533    1.000
    C34      C        0.57010    0.23410    0.83303    1.000
    C35      C        0.40340    0.94790    0.96593    1.000
    H29      H        0.44820    0.00930    0.97853    1.000
    H30      H        0.41950    0.94110    0.92903    1.000
    C36      C        0.40730    0.87600    0.00223    1.000
    C37      C        0.13980    0.91850    0.97883    1.000
    H31      H        0.16790    0.90200    0.00853    1.000
    C38      C        0.06940    0.93840    0.00473    1.000
    H32      H        0.02220    0.88350    0.02193    1.000
    H33      H        0.04210    0.95790    0.97723    1.000
    H34      H        0.09930    0.98640    0.03133    1.000
    C39      C        0.09260    0.83420    0.94163    1.000
    C40      C        0.04970    0.74780    0.96303    1.000
    C41      C        0.00170    0.66910    0.93103    1.000
    H35      H        0.97230    0.61110    0.94713    1.000
    C42      C        0.99760    0.67700    0.87523    1.000
    C43      C        0.04310    0.76710    0.85123    1.000
    C44      C        0.08820    0.84120    0.88523    1.000
    H36      H        0.11770    0.89990    0.86993    1.000
    C45      C        0.11800    0.71640    0.03563    1.000
    H37      H        0.17560    0.75930    0.01793    1.000
    H38      H        0.10170    0.65430    0.02483    1.000
    C46      C        0.12990    0.72640    0.09773    1.000
    C47      C        0.90660    0.51560    0.86373    1.000
    H39      H        0.86550    0.51470    0.89193    1.000
    H40      H        0.95080    0.50190    0.88073    1.000
    C48      C        0.85170    0.44300    0.82233    1.000
    O13      O        0.42500    0.22100    0.86273    1.000
    O14      O        0.60040    0.27430    0.87743    1.000
    O15      O        0.61290    0.21700    0.79633    1.000
    O16      O        0.31360    0.93800    0.96633    1.000
    O17      O        0.47410    0.86350    0.99543    1.000
    O18      O        0.34560    0.83630    0.03843    1.000
    O19      O        0.04870    0.73470    0.01979    1.000
    O20      O        0.07140    0.72760    0.12523    1.000
    O21      O        0.19930    0.72360    0.11725    1.000
    O22      O        0.95420    0.60460    0.84023    1.000
    O23      O        0.86460    0.46050    0.77363    1.000
    O24      O        0.79540    0.36520    0.84137    1.000
    Ni5      Ni       0.27748    0.59190    0.41717    1.000
    Ni6      Ni       0.76173    0.50541    0.13544    1.000
    C49      C        0.78300    0.95380    0.22657    1.000
    H41      H        0.73240    0.89930    0.21117    1.000
    H42      H        0.78140    0.94830    0.26547    1.000
    H43      H        0.84020    0.96110    0.21317    1.000
    C50      C        0.77530    0.03790    0.21067    1.000
    H44      H        0.71780    0.02940    0.22647    1.000
    C51      C        0.85330    0.12740    0.23377    1.000
    C52      C        0.85390    0.21230    0.22497    1.000
    C53      C        0.92090    0.29480    0.24597    1.000
    H45      H        0.91850    0.34860    0.24027    1.000
    C54      C        0.99300    0.29690    0.27617    1.000
    C55      C        0.99850    0.21680    0.28357    1.000
    C56      C        0.92660    0.13490    0.26267    1.000
    H46      H        0.92850    0.08100    0.26887    1.000
    C57      C        0.79980    0.26940    0.15407    1.000
    H47      H        0.77180    0.23700    0.12047    1.000
    H48      H        0.86620    0.30400    0.14867    1.000
    C58      C        0.76590    0.33600    0.16637    1.000
    C59      C        0.05210    0.45550    0.29927    1.000
    H49      H        0.99070    0.43890    0.31187    1.000
    H50      H        0.05890    0.47840    0.26237    1.000
    C60      C        0.12400    0.53130    0.33557    1.000
    C61      C        0.08150    0.22130    0.31217    1.000
    H51      H        0.09800    0.26590    0.34187    1.000
    C62      C        0.06160    0.13100    0.33807    1.000
    H52      H        0.11650    0.13870    0.35527    1.000
    H53      H        0.04210    0.08420    0.31057    1.000
    H54      H        0.01360    0.11290    0.36467    1.000
    C63      C        0.16580    0.25840    0.27497    1.000
    C64      C        0.25220    0.30190    0.29637    1.000
    C65      C        0.33090    0.33260    0.26437    1.000
    H55      H        0.38890    0.36120    0.28047    1.000
    C66      C        0.32300    0.32060    0.20857    1.000
    C67      C        0.23290    0.27600    0.18457    1.000
    C68      C        0.15880    0.24700    0.21857    1.000
    H56      H        0.10010    0.21780    0.20327    1.000
    C69      C        0.28360    0.40160    0.36897    1.000
    H57      H        0.24070    0.41630    0.35127    1.000
    H58      H        0.34570    0.44740    0.35817    1.000
    C70      C        0.27360    0.40350    0.43107    1.000
    C71      C        0.48440    0.39100    0.19707    1.000
    H59      H        0.48530    0.35080    0.22527    1.000
    H60      H        0.49810    0.44890    0.21407    1.000
    C72      C        0.55700    0.40870    0.15567    1.000
    O25      O        0.77900    0.20400    0.19607    1.000
    O26      O        0.72570    0.32610    0.21077    1.000
    O27      O        0.78300    0.39590    0.12967    1.000
    O28      O        0.06200    0.37560    0.29967    1.000
    O29      O        0.13650    0.61060    0.32877    1.000
    O30      O        0.16370    0.50930    0.37177    1.000
    O31      O        0.26530    0.31400    0.35313    1.000
    O32      O        0.27240    0.34380    0.45857    1.000
    O33      O        0.27640    0.47570    0.45059    1.000
    O34      O        0.39540    0.34960    0.17357    1.000
    O35      O        0.53950    0.40410    0.10697    1.000
    O36      O        0.63480    0.43020    0.17471    1.000
    Ni7      Ni       0.68558    0.40810    0.24950    1.000
    Ni8      Ni       0.25632    0.49459    0.53123    1.000
    C73      C        0.82920    0.04620    0.44010    1.000
    H61      H        0.83310    0.10070    0.45550    1.000
    H62      H        0.83310    0.05170    0.40120    1.000
    H63      H        0.87910    0.03890    0.45350    1.000
    C74      C        0.73740    0.96210    0.45600    1.000
    H64      H        0.68840    0.97060    0.44020    1.000
    C75      C        0.72590    0.87260    0.43290    1.000
    C76      C        0.64160    0.78770    0.44170    1.000
    C77      C        0.62610    0.70520    0.42070    1.000
    H65      H        0.56990    0.65140    0.42640    1.000
    C78      C        0.69610    0.70310    0.39050    1.000
    C79      C        0.78170    0.78320    0.38310    1.000
    C80      C        0.79170    0.86510    0.40400    1.000
    H66      H        0.84750    0.91900    0.39780    1.000
    C81      C        0.53040    0.73060    0.51260    1.000
    H67      H        0.53480    0.76300    0.54620    1.000
    H68      H        0.56220    0.69600    0.51800    1.000
    C82      C        0.42990    0.66400    0.50030    1.000
    C83      C        0.59660    0.54450    0.36740    1.000
    H69      H        0.55180    0.56110    0.35480    1.000
    H70      H        0.58050    0.52160    0.40430    1.000
    C84      C        0.59270    0.46870    0.33110    1.000
    C85      C        0.86020    0.77870    0.35450    1.000
    H71      H        0.83210    0.73410    0.32480    1.000
    C86      C        0.93060    0.86900    0.32860    1.000
    H72      H        0.97780    0.86130    0.31140    1.000
    H73      H        0.95790    0.91580    0.35610    1.000
    H74      H        0.90070    0.88710    0.30200    1.000
    C87      C        0.90740    0.74160    0.39170    1.000
    C88      C        0.95030    0.69810    0.37030    1.000
    C89      C        0.99830    0.66740    0.40230    1.000
    H75      H        0.02770    0.63880    0.38620    1.000
    C90      C        0.00240    0.67940    0.45810    1.000
    C91      C        0.95690    0.72400    0.48210    1.000
    C92      C        0.91180    0.75300    0.44810    1.000
    H76      H        0.88230    0.78220    0.46340    1.000
    C93      C        0.88200    0.59840    0.29770    1.000
    H77      H        0.82440    0.58370    0.31540    1.000
    H78      H        0.89830    0.55260    0.30850    1.000
    C94      C        0.87010    0.59650    0.23560    1.000
    C95      C        0.09340    0.60900    0.46960    1.000
    H79      H        0.13450    0.64920    0.44140    1.000
    H80      H        0.04920    0.55110    0.45260    1.000
    C96      C        0.14830    0.59130    0.51100    1.000
    O37      O        0.57500    0.79600    0.47060    1.000
    O38      O        0.39960    0.67390    0.45590    1.000
    O39      O        0.38710    0.60410    0.53700    1.000
    O40      O        0.68640    0.62440    0.36700    1.000
    O41      O        0.52590    0.38940    0.33790    1.000
    O42      O        0.65440    0.49070    0.29490    1.000
    O43      O        0.95130    0.68600    0.31354    1.000
    O44      O        0.92860    0.65620    0.20810    1.000
    O45      O        0.80070    0.52430    0.21608    1.000
    O46      O        0.04580    0.65040    0.49310    1.000
    O47      O        0.13540    0.59590    0.55970    1.000
    O48      O        0.20460    0.56980    0.49196    1.000
    Ni9      Ni       0.72252    0.31442    0.91617    1.000
    Ni10     Ni       0.23827    0.74368    0.19790    1.000
    C97      C        0.21700    0.17080    0.10677    1.000
    H81      H        0.26760    0.16690    0.12217    1.000
    H82      H        0.21860    0.16690    0.06787    1.000
    H83      H        0.15980    0.12090    0.12017    1.000
    C98      C        0.22470    0.26260    0.12267    1.000
    H84      H        0.28220    0.31160    0.10687    1.000
    C99      C        0.14670    0.27410    0.09957    1.000
    C100     C        0.14610    0.35840    0.10837    1.000
    C101     C        0.07910    0.37390    0.08737    1.000
    H85      H        0.08150    0.43010    0.09307    1.000
    C102     C        0.00700    0.30390    0.05717    1.000
    C103     C        0.00150    0.21830    0.04977    1.000
    C104     C        0.07340    0.20830    0.07067    1.000
    H86      H        0.07150    0.15250    0.06447    1.000
    C105     C        0.20020    0.46960    0.17927    1.000
    H87      H        0.22820    0.46520    0.21287    1.000
    H88      H        0.13380    0.43780    0.18467    1.000
    C106     C        0.23410    0.57010    0.16697    1.000
    C107     C        0.94790    0.40340    0.03407    1.000
    H89      H        0.00930    0.44820    0.02147    1.000
    H90      H        0.94110    0.41950    0.07097    1.000
    C108     C        0.87600    0.40730    0.99777    1.000
    C109     C        0.91850    0.13980    0.02117    1.000
    H91      H        0.90200    0.16790    0.99147    1.000
    C110     C        0.93840    0.06940    0.99527    1.000
    H92      H        0.88350    0.02220    0.97807    1.000
    H93      H        0.95790    0.04210    0.02277    1.000
    H94      H        0.98640    0.09930    0.96867    1.000
    C111     C        0.83420    0.09260    0.05837    1.000
    C112     C        0.74780    0.04970    0.03697    1.000
    C113     C        0.66910    0.00170    0.06897    1.000
    H95      H        0.61110    0.97230    0.05287    1.000
    C114     C        0.67700    0.99760    0.12477    1.000
    C115     C        0.76710    0.04310    0.14877    1.000
    C116     C        0.84120    0.08820    0.11477    1.000
    H96      H        0.89990    0.11770    0.13007    1.000
    C117     C        0.71640    0.11800    0.96437    1.000
    H97      H        0.75930    0.17560    0.98207    1.000
    H98      H        0.65430    0.10170    0.97517    1.000
    C118     C        0.72640    0.12990    0.90227    1.000
    C119     C        0.51560    0.90660    0.13627    1.000
    H99      H        0.51470    0.86550    0.10807    1.000
    H100     H        0.50190    0.95080    0.11927    1.000
    C120     C        0.44300    0.85170    0.17767    1.000
    O49      O        0.22100    0.42500    0.13727    1.000
    O50      O        0.27430    0.60040    0.12257    1.000
    O51      O        0.21700    0.61290    0.20367    1.000
    O52      O        0.93800    0.31360    0.03367    1.000
    O53      O        0.86350    0.47410    0.00457    1.000
    O54      O        0.83630    0.34560    0.96157    1.000
    O55      O        0.73470    0.04870    0.98021    1.000
    O56      O        0.72760    0.07140    0.87477    1.000
    O57      O        0.72360    0.19930    0.88275    1.000
    O58      O        0.60460    0.95420    0.15977    1.000
    O59      O        0.46050    0.86460    0.22637    1.000
    O60      O        0.36520    0.79540    0.15863    1.000
    Ni11     Ni       0.59190    0.27748    0.58283    1.000
    Ni12     Ni       0.50541    0.76173    0.86456    1.000
    C121     C        0.95380    0.78300    0.77343    1.000
    H101     H        0.89930    0.73240    0.78883    1.000
    H102     H        0.94830    0.78140    0.73453    1.000
    H103     H        0.96110    0.84020    0.78683    1.000
    C122     C        0.03790    0.77530    0.78933    1.000
    H104     H        0.02940    0.71780    0.77353    1.000
    C123     C        0.12740    0.85330    0.76623    1.000
    C124     C        0.21230    0.85390    0.77503    1.000
    C125     C        0.29480    0.92090    0.75403    1.000
    H105     H        0.34860    0.91850    0.75973    1.000
    C126     C        0.29690    0.99300    0.72383    1.000
    C127     C        0.21680    0.99850    0.71643    1.000
    C128     C        0.13490    0.92660    0.73733    1.000
    H106     H        0.08100    0.92850    0.73113    1.000
    C129     C        0.26940    0.79980    0.84593    1.000
    H107     H        0.23700    0.77180    0.87953    1.000
    H108     H        0.30400    0.86620    0.85133    1.000
    C130     C        0.33600    0.76590    0.83363    1.000
    C131     C        0.45550    0.05210    0.70073    1.000
    H109     H        0.43890    0.99070    0.68813    1.000
    H110     H        0.47840    0.05890    0.73763    1.000
    C132     C        0.53130    0.12400    0.66443    1.000
    C133     C        0.22130    0.08150    0.68783    1.000
    H111     H        0.26590    0.09800    0.65813    1.000
    C134     C        0.13100    0.06160    0.66193    1.000
    H112     H        0.13870    0.11650    0.64473    1.000
    H113     H        0.08420    0.04210    0.68943    1.000
    H114     H        0.11290    0.01360    0.63533    1.000
    C135     C        0.25840    0.16580    0.72503    1.000
    C136     C        0.30190    0.25220    0.70363    1.000
    C137     C        0.33260    0.33090    0.73563    1.000
    H115     H        0.36120    0.38890    0.71953    1.000
    C138     C        0.32060    0.32300    0.79143    1.000
    C139     C        0.27600    0.23290    0.81543    1.000
    C140     C        0.24700    0.15880    0.78143    1.000
    H116     H        0.21780    0.10010    0.79673    1.000
    C141     C        0.40160    0.28360    0.63103    1.000
    H117     H        0.41630    0.24070    0.64873    1.000
    H118     H        0.44740    0.34570    0.64183    1.000
    C142     C        0.40350    0.27360    0.56893    1.000
    C143     C        0.39100    0.48440    0.80293    1.000
    H119     H        0.35080    0.48530    0.77473    1.000
    H120     H        0.44890    0.49810    0.78593    1.000
    C144     C        0.40870    0.55700    0.84433    1.000
    O61      O        0.20400    0.77900    0.80393    1.000
    O62      O        0.32610    0.72570    0.78923    1.000
    O63      O        0.39590    0.78300    0.87033    1.000
    O64      O        0.37560    0.06200    0.70033    1.000
    O65      O        0.61060    0.13650    0.67123    1.000
    O66      O        0.50930    0.16370    0.62823    1.000
    O67      O        0.31400    0.26530    0.64687    1.000
    O68      O        0.34380    0.27240    0.54143    1.000
    O69      O        0.47570    0.27640    0.54941    1.000
    O70      O        0.34960    0.39540    0.82643    1.000
    O71      O        0.40410    0.53950    0.89303    1.000
    O72      O        0.43020    0.63480    0.82529    1.000
