data_functionalizedCrystal
_audit_creation_method	'EQeq! by Chris Wilmer'
_symmetry_space_group_name_H-M	'P1'
_symmetry_Int_Tables_number	1
_symmetry_cell_setting	triclinic
loop_
_symmetry_equiv_pos_as_xyz
  x,y,z
_cell_length_a	6.971
_cell_length_b	12.54
_cell_length_c	13.212
_cell_angle_alpha	112.62
_cell_angle_beta	96.1
_cell_angle_gamma	93.44
loop_
_atom_site_label
_atom_site_type_symbol
_atom_site_fract_x
_atom_site_fract_y
_atom_site_fract_z
_atom_site_charge
Mof_Na	Na	0.2486	0.5399	0.4795	2.282
Mof_O 	O 	0.2815	0.4859	0.2872	-0.601
Mof_O 	O 	0.5682	0.4782	0.3729	-0.825
Mof_N 	N 	0.7566	0.4907	0.1888	-0.102
Mof_C 	C 	0.4611	0.4851	0.2945	0.455
Mof_C 	C 	0.5406	0.4901	0.1924	-0.074
Mof_C 	C 	0.8606	0.5968	0.2809	-0.07
Mof_C 	C 	0.8259	0.3822	0.1951	-0.016
Mof_C 	C 	0.7871	0.4941	0.0778	0.035
Mof_C 	C 	0.9969	0.5034	0.0585	-0.01
Mof_O 	O 	0.0258	0.3695	0.4451	-0.893
Mof_O 	O 	0.908	0.184	0.3682	-0.391
Mof_N 	N 	0.2358	0.1276	0.2435	-0.093
Mof_C 	C 	0.0342	0.265	0.3875	0.493
Mof_C 	C 	0.2236	0.2433	0.3365	-0.207
Mof_C 	C 	0.4321	0.1361	0.2091	-0.004
Mof_C 	C 	0.2193	0.0298	0.2819	0.003
Mof_C 	C 	0.0797	0.1103	0.149	0.033
Mof_C 	C 	0.0812	0.0014	0.0438	-0.012
Mof_Na	Na	0.7514	0.4601	0.5205	2.281
Mof_O 	O 	0.7185	0.5141	0.7128	-0.602
Mof_O 	O 	0.4318	0.5218	0.6271	-0.826
Mof_N 	N 	0.2434	0.5093	0.8112	-0.103
Mof_C 	C 	0.5389	0.5149	0.7055	0.454
Mof_C 	C 	0.4594	0.5099	0.8076	-0.075
Mof_C 	C 	0.1394	0.4032	0.7191	-0.07
Mof_C 	C 	0.1741	0.6178	0.8049	-0.016
Mof_C 	C 	0.2129	0.5059	0.9222	0.035
Mof_C 	C 	0.0031	0.4966	0.9415	-0.01
Mof_O 	O 	0.9742	0.6305	0.5549	-0.893
Mof_O 	O 	0.092	0.816	0.6318	-0.391
Mof_N 	N 	0.7642	0.8724	0.7565	-0.093
Mof_C 	C 	0.9658	0.735	0.6125	0.493
Mof_C 	C 	0.7764	0.7567	0.6635	-0.207
Mof_C 	C 	0.5679	0.8639	0.7909	-0.004
Mof_C 	C 	0.7807	0.9702	0.7181	0.003
Mof_C 	C 	0.9203	0.8897	0.851	0.033
Mof_C 	C 	0.9188	0.9986	0.9562	-0.012
_end
