data_functionalizedCrystal
_audit_creation_method	'EQeq! by Chris Wilmer'
_symmetry_space_group_name_H-M	'P1'
_symmetry_Int_Tables_number	1
_symmetry_cell_setting	triclinic
loop_
_symmetry_equiv_pos_as_xyz
  x,y,z
_cell_length_a	38.1428
_cell_length_b	38.1428
_cell_length_c	39.2456
_cell_angle_alpha	66.4777
_cell_angle_beta	66.478
_cell_angle_gamma	100.295
loop_
_atom_site_label
_atom_site_type_symbol
_atom_site_fract_x
_atom_site_fract_y
_atom_site_fract_z
_atom_site_charge
Mof_Mn	Mn	0.25	0	0.25	0.828
Mof_Mn	Mn	-5.17318e-18	0.25	0.25	0.829
Mof_Mn	Mn	0.25	0.25	0.25	0.835
Mof_Mn	Mn	-5.17318e-18	0	0.25	0.788
Mof_Mn	Mn	0.3417	0.3417	0.14617	0.67
Mof_Mn	Mn	0.01213	0.01213	0.14617	0.637
Mof_Mn	Mn	0.1583	0.1583	0.35383	0.668
Mof_Mn	Mn	0.48787	0.48787	0.35383	0.646
Mof_Mn	Mn	0.01458	0.29276	-0	0.945
Mof_Mn	Mn	0.48542	0.20725	-0	0.964
Mof_Mn	Mn	0.20725	0.48542	-0	0.964
Mof_Mn	Mn	0.29276	0.01458	-0	0.944
Mof_H 	H 	0.35165	0.12985	0.2207	0.07
Mof_H 	H 	0.2732	0.1419	0.135	0.066
Mof_H 	H 	0.2841	0.1678	0.2055	0.058
Mof_H 	H 	0.38605	0.26695	0.1014	0.047
Mof_H 	H 	0.36965	0.15345	0.1178	0.068
Mof_H 	H 	0.42765	0.14945	0.2207	0.065
Mof_H 	H 	0.0918	0.2231	0.135	0.068
Mof_H 	H 	0.0104	0.1267	0.2055	0.056
Mof_H 	H 	0.01255	0.13165	0.1014	0.045
Mof_H 	H 	0.01255	0.22875	0.1178	0.067
Mof_H 	H 	0.37015	0.14835	0.2793	0.066
Mof_H 	H 	0.3581	0.2268	0.365	0.069
Mof_H 	H 	0.3322	0.2159	0.2945	0.058
Mof_H 	H 	0.23305	0.11395	0.3986	0.047
Mof_H 	H 	0.34655	0.13035	0.3822	0.067
Mof_H 	H 	0.35055	0.07235	0.2793	0.057
Mof_H 	H 	0.2769	0.4082	0.365	0.069
Mof_H 	H 	0.3733	0.4896	0.2945	0.058
Mof_H 	H 	0.36835	0.48745	0.3986	0.045
Mof_H 	H 	0.27125	0.48745	0.3822	0.067
Mof_H 	H 	0.14835	0.37015	0.2793	0.065
Mof_H 	H 	0.2268	0.3581	0.365	0.068
Mof_H 	H 	0.2159	0.3322	0.2945	0.058
Mof_H 	H 	0.11395	0.23305	0.3986	0.047
Mof_H 	H 	0.13035	0.34655	0.3822	0.066
Mof_H 	H 	0.07235	0.35055	0.2793	0.056
Mof_H 	H 	0.4082	0.2769	0.365	0.068
Mof_H 	H 	0.4896	0.3733	0.2945	0.057
Mof_H 	H 	0.48745	0.36835	0.3986	0.044
Mof_H 	H 	0.48745	0.27125	0.3822	0.067
Mof_H 	H 	0.12985	0.35165	0.2207	0.068
Mof_H 	H 	0.1419	0.2732	0.135	0.065
Mof_H 	H 	0.1678	0.2841	0.2055	0.057
Mof_H 	H 	0.26695	0.38605	0.1014	0.046
Mof_H 	H 	0.15345	0.36965	0.1178	0.067
Mof_H 	H 	0.14945	0.42765	0.2207	0.064
Mof_H 	H 	0.2231	0.0918	0.135	0.067
Mof_H 	H 	0.1267	0.0104	0.2055	0.055
Mof_H 	H 	0.13165	0.01255	0.1014	0.041
Mof_H 	H 	0.22875	0.01255	0.1178	0.066
Mof_C 	C 	0.33605	0.10155	0.234	-0.09
Mof_C 	C 	0.30804	0.08366	0.224	0.115
Mof_C 	C 	0.29953	0.10703	0.19294	-0.111
Mof_C 	C 	0.27158	0.08924	0.18438	0.111
Mof_C 	C 	0.26225	0.11295	0.1524	-0.078
Mof_C 	C 	0.32319	0.15308	0.16633	0.044
Mof_C 	C 	0.30945	0.17915	0.1798	-0.038
Mof_C 	C 	0.33272	0.22122	0.15587	-0.101
Mof_C 	C 	0.37015	0.23825	0.1177	0.03
Mof_C 	C 	0.38458	0.21298	0.10315	-0.084
Mof_C 	C 	0.36053	0.17053	0.12754	-0.047
Mof_C 	C 	0.3175	0.2492	0.1708	0.409
Mof_C 	C 	0.42635	0.23115	0.0625	0.382
Mof_C 	C 	0.42995	0.16445	0.234	-0.082
Mof_C 	C 	0.46796	0.19234	0.224	0.113
Mof_C 	C 	0.00753	0.20003	0.19294	-0.133
Mof_C 	C 	0.04404	0.22638	0.18438	0.118
Mof_C 	C 	0.08535	0.23465	0.1524	-0.084
Mof_C 	C 	0.01048	0.18059	0.16633	0.048
Mof_C 	C 	0.01075	0.14105	0.1798	-0.043
Mof_C 	C 	0.01141	0.12292	0.15587	-0.102
Mof_C 	C 	0.01215	0.14405	0.1177	0.028
Mof_C 	C 	0.01227	0.18388	0.10315	-0.086
Mof_C 	C 	0.01193	0.20193	0.12754	-0.051
Mof_C 	C 	0.0117	0.08	0.1708	0.405
Mof_C 	C 	0.01115	0.20635	0.0625	0.382
Mof_C 	C 	0.39845	0.16395	0.266	-0.083
Mof_C 	C 	0.41634	0.19196	0.276	0.113
Mof_C 	C 	0.39297	0.20047	0.30706	-0.111
Mof_C 	C 	0.41076	0.22842	0.31562	0.112
Mof_C 	C 	0.38705	0.23775	0.3476	-0.079
Mof_C 	C 	0.34692	0.17681	0.33367	0.044
Mof_C 	C 	0.32085	0.19055	0.3202	-0.037
Mof_C 	C 	0.27879	0.16729	0.34413	-0.101
Mof_C 	C 	0.26175	0.12985	0.3823	0.031
Mof_C 	C 	0.28703	0.11543	0.39685	-0.085
Mof_C 	C 	0.32947	0.13947	0.37246	-0.046
Mof_C 	C 	0.2508	0.1825	0.3292	0.409
Mof_C 	C 	0.26885	0.07365	0.4375	0.385
Mof_C 	C 	0.33555	0.07005	0.266	-0.07
Mof_C 	C 	0.30766	0.03204	0.276	0.088
Mof_C 	C 	0.29997	0.49247	0.30706	-0.11
Mof_C 	C 	0.27362	0.45596	0.31562	0.112
Mof_C 	C 	0.26535	0.41465	0.3476	-0.079
Mof_C 	C 	0.31942	0.48952	0.33367	0.044
Mof_C 	C 	0.35895	0.48925	0.3202	-0.037
Mof_C 	C 	0.37709	0.48859	0.34413	-0.102
Mof_C 	C 	0.35595	0.48785	0.3823	0.031
Mof_C 	C 	0.31612	0.48773	0.39685	-0.086
Mof_C 	C 	0.29807	0.48807	0.37246	-0.046
Mof_C 	C 	0.42	0.4883	0.3292	0.407
Mof_C 	C 	0.29365	0.48885	0.4375	0.385
Mof_C 	C 	0.16395	0.39845	0.266	-0.083
Mof_C 	C 	0.19196	0.41634	0.276	0.113
Mof_C 	C 	0.20047	0.39297	0.30706	-0.111
Mof_C 	C 	0.22842	0.41076	0.31562	0.112
Mof_C 	C 	0.23775	0.38705	0.3476	-0.079
Mof_C 	C 	0.17682	0.34692	0.33367	0.044
Mof_C 	C 	0.19055	0.32085	0.3202	-0.037
Mof_C 	C 	0.16729	0.27879	0.34413	-0.101
Mof_C 	C 	0.12985	0.26175	0.3823	0.031
Mof_C 	C 	0.11543	0.28703	0.39685	-0.085
Mof_C 	C 	0.13947	0.32947	0.37246	-0.046
Mof_C 	C 	0.1825	0.2508	0.3292	0.409
Mof_C 	C 	0.07365	0.26885	0.4375	0.385
Mof_C 	C 	0.07005	0.33555	0.266	-0.07
Mof_C 	C 	0.03204	0.30766	0.276	0.089
Mof_C 	C 	0.49247	0.29997	0.30706	-0.11
Mof_C 	C 	0.45596	0.27362	0.31562	0.112
Mof_C 	C 	0.41465	0.26535	0.3476	-0.079
Mof_C 	C 	0.48952	0.31942	0.33367	0.044
Mof_C 	C 	0.48925	0.35895	0.3202	-0.037
Mof_C 	C 	0.48859	0.37708	0.34413	-0.102
Mof_C 	C 	0.48785	0.35595	0.3823	0.031
Mof_C 	C 	0.48773	0.31613	0.39685	-0.086
Mof_C 	C 	0.48807	0.29807	0.37246	-0.046
Mof_C 	C 	0.4883	0.42	0.3292	0.407
Mof_C 	C 	0.48885	0.29365	0.4375	0.385
Mof_C 	C 	0.10155	0.33605	0.234	-0.09
Mof_C 	C 	0.08366	0.30804	0.224	0.115
Mof_C 	C 	0.10703	0.29953	0.19294	-0.111
Mof_C 	C 	0.08924	0.27158	0.18438	0.111
Mof_C 	C 	0.11295	0.26225	0.1524	-0.078
Mof_C 	C 	0.15309	0.32319	0.16633	0.044
Mof_C 	C 	0.17915	0.30945	0.1798	-0.038
Mof_C 	C 	0.22122	0.33271	0.15587	-0.101
Mof_C 	C 	0.23825	0.37015	0.1177	0.03
Mof_C 	C 	0.21298	0.38458	0.10315	-0.084
Mof_C 	C 	0.17053	0.36053	0.12754	-0.047
Mof_C 	C 	0.2492	0.3175	0.1708	0.409
Mof_C 	C 	0.23115	0.42635	0.0625	0.382
Mof_C 	C 	0.16445	0.42995	0.234	-0.082
Mof_C 	C 	0.19234	0.46796	0.224	0.113
Mof_C 	C 	0.20003	0.00753	0.19294	-0.134
Mof_C 	C 	0.22638	0.04404	0.18438	0.118
Mof_C 	C 	0.23465	0.08535	0.1524	-0.084
Mof_C 	C 	0.18059	0.01049	0.16633	0.048
Mof_C 	C 	0.14105	0.01075	0.1798	-0.043
Mof_C 	C 	0.12292	0.01141	0.15587	-0.104
Mof_C 	C 	0.14405	0.01215	0.1177	0.028
Mof_C 	C 	0.18388	0.01227	0.10315	-0.088
Mof_C 	C 	0.20193	0.01193	0.12754	-0.051
Mof_C 	C 	0.08	0.0117	0.1708	0.405
Mof_C 	C 	0.20635	0.01115	0.0625	0.382
Mof_N 	N 	0.24918	0.04738	0.20344	-0.224
Mof_N 	N 	0.04738	0.24918	0.20344	-0.224
Mof_N 	N 	0.45262	0.25082	0.29656	-0.223
Mof_N 	N 	0.25082	0.45262	0.29656	-0.223
Mof_N 	N 	0.2912	0.0412	0.25	-0.22
Mof_N 	N 	0.4588	0.2088	0.25	-0.224
Mof_N 	N 	0.2088	0.4588	0.25	-0.224
Mof_N 	N 	0.0412	0.2912	0.25	-0.221
Mof_Cl	Cl	0.0415	0.35295	-0	-0.416
Mof_Cl	Cl	0.4585	0.14705	-0	-0.413
Mof_Cl	Cl	0.14705	0.4585	-0	-0.413
Mof_Cl	Cl	0.35295	0.0415	-0	-0.417
Mof_Cl	Cl	0.19219	0.00158	0.30623	-0.397
Mof_Cl	Cl	0.00158	0.19219	0.30623	-0.397
Mof_Cl	Cl	0.49842	0.30782	0.19377	-0.387
Mof_Cl	Cl	0.30782	0.49842	0.19377	-0.386
Mof_O 	O 	0.28492	0.2325	0.20629	-0.405
Mof_O 	O 	0.33965	0.28705	0.147	-0.41
Mof_O 	O 	0.45033	0.26733	0.04715	-0.379
Mof_O 	O 	0.43381	0.2078	0.04809	-0.389
Mof_O 	O 	0.00879	0.06122	0.20629	-0.406
Mof_O 	O 	0.01335	0.06595	0.147	-0.41
Mof_O 	O 	0.00252	0.18553	0.04715	-0.389
Mof_O 	O 	0.0181	0.24411	0.04809	-0.391
Mof_O 	O 	0.26751	0.21509	0.29371	-0.405
Mof_O 	O 	0.21295	0.16035	0.353	-0.409
Mof_O 	O 	0.23268	0.04967	0.45285	-0.388
Mof_O 	O 	0.2922	0.06619	0.45191	-0.391
Mof_O 	O 	0.43879	0.49121	0.29371	-0.405
Mof_O 	O 	0.43405	0.48665	0.353	-0.411
Mof_O 	O 	0.31448	0.49748	0.45285	-0.382
Mof_O 	O 	0.25589	0.4819	0.45191	-0.389
Mof_O 	O 	0.21509	0.26751	0.29371	-0.405
Mof_O 	O 	0.16035	0.21295	0.353	-0.409
Mof_O 	O 	0.04968	0.23267	0.45285	-0.387
Mof_O 	O 	0.06619	0.2922	0.45191	-0.391
Mof_O 	O 	0.49121	0.43879	0.29371	-0.405
Mof_O 	O 	0.48665	0.43405	0.353	-0.411
Mof_O 	O 	0.49748	0.31448	0.45285	-0.382
Mof_O 	O 	0.4819	0.25589	0.45191	-0.389
Mof_O 	O 	0.2325	0.28492	0.20629	-0.405
Mof_O 	O 	0.28705	0.33965	0.147	-0.41
Mof_O 	O 	0.26733	0.45033	0.04715	-0.379
Mof_O 	O 	0.2078	0.43381	0.04809	-0.389
Mof_O 	O 	0.06122	0.0088	0.20629	-0.407
Mof_O 	O 	0.06595	0.01335	0.147	-0.413
Mof_O 	O 	0.18553	0.00252	0.04715	-0.392
Mof_O 	O 	0.24411	0.0181	0.04809	-0.391
Mof_Mn	Mn	0.75	0	0.25	0.938
Mof_Mn	Mn	0.5	0.25	0.25	0.846
Mof_Mn	Mn	0.75	0.25	0.25	0.829
Mof_Mn	Mn	0.5	0	0.25	0.806
Mof_Mn	Mn	0.8417	0.3417	0.14617	0.66
Mof_Mn	Mn	0.51213	0.01213	0.14617	0.646
Mof_Mn	Mn	0.6583	0.1583	0.35383	0.656
Mof_Mn	Mn	0.98787	0.48787	0.35383	0.674
Mof_Mn	Mn	0.51459	0.29276	-0	0.964
Mof_Mn	Mn	0.98542	0.20725	-0	0.984
Mof_Mn	Mn	0.70725	0.48542	-0	0.963
Mof_Mn	Mn	0.79276	0.01458	-0	0.942
Mof_H 	H 	0.85165	0.12985	0.2207	0.068
Mof_H 	H 	0.7732	0.1419	0.135	0.065
Mof_H 	H 	0.7841	0.1678	0.2055	0.056
Mof_H 	H 	0.88605	0.26695	0.1014	0.045
Mof_H 	H 	0.86965	0.15345	0.1178	0.076
Mof_H 	H 	0.92765	0.14945	0.2207	0.073
Mof_H 	H 	0.5918	0.2231	0.135	0.065
Mof_H 	H 	0.5104	0.1267	0.2055	0.048
Mof_H 	H 	0.51255	0.13165	0.1014	0.043
Mof_H 	H 	0.51255	0.22875	0.1178	0.076
Mof_H 	H 	0.87015	0.14835	0.2793	0.063
Mof_H 	H 	0.8581	0.2268	0.365	0.068
Mof_H 	H 	0.8322	0.2159	0.2945	0.051
Mof_H 	H 	0.73305	0.11395	0.3986	0.046
Mof_H 	H 	0.84655	0.13035	0.3822	0.077
Mof_H 	H 	0.85055	0.07235	0.2793	0.06
Mof_H 	H 	0.7769	0.4082	0.365	0.067
Mof_H 	H 	0.8733	0.4896	0.2945	0.059
Mof_H 	H 	0.86835	0.48745	0.3986	0.049
Mof_H 	H 	0.77125	0.48745	0.3822	0.067
Mof_H 	H 	0.64835	0.37015	0.2793	0.064
Mof_H 	H 	0.7268	0.3581	0.365	0.067
Mof_H 	H 	0.7159	0.3322	0.2945	0.057
Mof_H 	H 	0.61395	0.23305	0.3986	0.044
Mof_H 	H 	0.63035	0.34655	0.3822	0.067
Mof_H 	H 	0.57235	0.35055	0.2793	0.064
Mof_H 	H 	0.9082	0.2769	0.365	0.066
Mof_H 	H 	0.9896	0.3733	0.2945	0.052
Mof_H 	H 	0.98745	0.36835	0.3986	0.047
Mof_H 	H 	0.98745	0.27125	0.3822	0.078
Mof_H 	H 	0.62985	0.35165	0.2207	0.067
Mof_H 	H 	0.6419	0.2732	0.135	0.065
Mof_H 	H 	0.6678	0.2841	0.2055	0.05
Mof_H 	H 	0.76695	0.38605	0.1014	0.046
Mof_H 	H 	0.65345	0.36965	0.1178	0.076
Mof_H 	H 	0.64945	0.42765	0.2207	0.067
Mof_H 	H 	0.7231	0.0918	0.135	0.068
Mof_H 	H 	0.6267	0.0104	0.2055	0.056
Mof_H 	H 	0.63165	0.01255	0.1014	0.045
Mof_H 	H 	0.72875	0.01255	0.1178	0.075
Mof_C 	C 	0.83605	0.10155	0.234	-0.087
Mof_C 	C 	0.80804	0.08366	0.224	0.126
Mof_C 	C 	0.79953	0.10703	0.19294	-0.11
Mof_C 	C 	0.77158	0.08924	0.18438	0.121
Mof_C 	C 	0.76225	0.11295	0.1524	-0.077
Mof_C 	C 	0.82319	0.15308	0.16633	0.048
Mof_C 	C 	0.80945	0.17915	0.1798	-0.041
Mof_C 	C 	0.83272	0.22122	0.15587	-0.101
Mof_C 	C 	0.87015	0.23825	0.1177	0.028
Mof_C 	C 	0.88458	0.21298	0.10315	-0.081
Mof_C 	C 	0.86053	0.17053	0.12754	-0.05
Mof_C 	C 	0.8175	0.2492	0.1708	0.407
Mof_C 	C 	0.92635	0.23115	0.0625	0.38
Mof_C 	C 	0.92995	0.16445	0.234	-0.093
Mof_C 	C 	0.96796	0.19234	0.224	0.138
Mof_C 	C 	0.50753	0.20003	0.19294	-0.111
Mof_C 	C 	0.54404	0.22638	0.18438	0.111
Mof_C 	C 	0.58535	0.23465	0.1524	-0.08
Mof_C 	C 	0.51049	0.18058	0.16633	0.044
Mof_C 	C 	0.51075	0.14105	0.1798	-0.038
Mof_C 	C 	0.51142	0.12292	0.15587	-0.105
Mof_C 	C 	0.51215	0.14405	0.1177	0.03
Mof_C 	C 	0.51228	0.18388	0.10315	-0.085
Mof_C 	C 	0.51193	0.20193	0.12754	-0.047
Mof_C 	C 	0.5117	0.08	0.1708	0.407
Mof_C 	C 	0.51115	0.20635	0.0625	0.382
Mof_C 	C 	0.89845	0.16395	0.266	-0.075
Mof_C 	C 	0.91634	0.19196	0.276	0.113
Mof_C 	C 	0.89297	0.20047	0.30706	-0.109
Mof_C 	C 	0.91076	0.22842	0.31562	0.114
Mof_C 	C 	0.88705	0.23775	0.3476	-0.08
Mof_C 	C 	0.84692	0.17681	0.33367	0.045
Mof_C 	C 	0.82085	0.19055	0.3202	-0.038
Mof_C 	C 	0.77879	0.16729	0.34413	-0.101
Mof_C 	C 	0.76175	0.12985	0.3823	0.03
Mof_C 	C 	0.78703	0.11543	0.39685	-0.083
Mof_C 	C 	0.82947	0.13947	0.37246	-0.047
Mof_C 	C 	0.7508	0.1825	0.3292	0.408
Mof_C 	C 	0.76885	0.07365	0.4375	0.385
Mof_C 	C 	0.83555	0.07005	0.266	-0.07
Mof_C 	C 	0.80766	0.03204	0.276	0.1
Mof_C 	C 	0.79997	0.49247	0.30706	-0.111
Mof_C 	C 	0.77362	0.45596	0.31562	0.112
Mof_C 	C 	0.76535	0.41465	0.3476	-0.079
Mof_C 	C 	0.81942	0.48952	0.33367	0.046
Mof_C 	C 	0.85895	0.48925	0.3202	-0.04
Mof_C 	C 	0.87709	0.48859	0.34413	-0.097
Mof_C 	C 	0.85595	0.48785	0.3823	0.029
Mof_C 	C 	0.81613	0.48773	0.39685	-0.082
Mof_C 	C 	0.79807	0.48807	0.37246	-0.048
Mof_C 	C 	0.92	0.4883	0.3292	0.407
Mof_C 	C 	0.79365	0.48885	0.4375	0.384
Mof_C 	C 	0.66395	0.39845	0.266	-0.081
Mof_C 	C 	0.69196	0.41634	0.276	0.112
Mof_C 	C 	0.70047	0.39297	0.30706	-0.11
Mof_C 	C 	0.72842	0.41076	0.31562	0.112
Mof_C 	C 	0.73775	0.38705	0.3476	-0.079
Mof_C 	C 	0.67682	0.34692	0.33367	0.043
Mof_C 	C 	0.69055	0.32085	0.3202	-0.037
Mof_C 	C 	0.66729	0.27879	0.34413	-0.103
Mof_C 	C 	0.62985	0.26175	0.3823	0.031
Mof_C 	C 	0.61543	0.28703	0.39685	-0.086
Mof_C 	C 	0.63947	0.32947	0.37246	-0.046
Mof_C 	C 	0.6825	0.2508	0.3292	0.408
Mof_C 	C 	0.57365	0.26885	0.4375	0.385
Mof_C 	C 	0.57005	0.33555	0.266	-0.081
Mof_C 	C 	0.53204	0.30766	0.276	0.113
Mof_C 	C 	0.99247	0.29997	0.30706	-0.086
Mof_C 	C 	0.95596	0.27362	0.31562	0.107
Mof_C 	C 	0.91465	0.26535	0.3476	-0.074
Mof_C 	C 	0.98952	0.31942	0.33367	0.041
Mof_C 	C 	0.98925	0.35895	0.3202	-0.034
Mof_C 	C 	0.98859	0.37708	0.34413	-0.101
Mof_C 	C 	0.98785	0.35595	0.3823	0.031
Mof_C 	C 	0.98773	0.31613	0.39685	-0.082
Mof_C 	C 	0.98807	0.29807	0.37246	-0.042
Mof_C 	C 	0.9883	0.42	0.3292	0.407
Mof_C 	C 	0.98885	0.29365	0.4375	0.385
Mof_C 	C 	0.60155	0.33605	0.234	-0.083
Mof_C 	C 	0.58366	0.30804	0.224	0.115
Mof_C 	C 	0.60703	0.29953	0.19294	-0.111
Mof_C 	C 	0.58924	0.27158	0.18438	0.111
Mof_C 	C 	0.61295	0.26225	0.1524	-0.08
Mof_C 	C 	0.65309	0.32319	0.16633	0.046
Mof_C 	C 	0.67915	0.30945	0.1798	-0.039
Mof_C 	C 	0.72122	0.33271	0.15587	-0.101
Mof_C 	C 	0.73825	0.37015	0.1177	0.029
Mof_C 	C 	0.71298	0.38458	0.10315	-0.082
Mof_C 	C 	0.67053	0.36053	0.12754	-0.048
Mof_C 	C 	0.7492	0.3175	0.1708	0.409
Mof_C 	C 	0.73115	0.42635	0.0625	0.381
Mof_C 	C 	0.66445	0.42995	0.234	-0.083
Mof_C 	C 	0.69234	0.46796	0.224	0.115
Mof_C 	C 	0.70003	0.00753	0.19294	-0.133
Mof_C 	C 	0.72638	0.04404	0.18438	0.129
Mof_C 	C 	0.73465	0.08535	0.1524	-0.084
Mof_C 	C 	0.68059	0.01049	0.16633	0.053
Mof_C 	C 	0.64105	0.01075	0.1798	-0.047
Mof_C 	C 	0.62292	0.01141	0.15587	-0.099
Mof_C 	C 	0.64405	0.01215	0.1177	0.026
Mof_C 	C 	0.68388	0.01227	0.10315	-0.082
Mof_C 	C 	0.70193	0.01193	0.12754	-0.056
Mof_C 	C 	0.58	0.0117	0.1708	0.405
Mof_C 	C 	0.70635	0.01115	0.0625	0.38
Mof_N 	N 	0.74918	0.04738	0.20344	-0.219
Mof_N 	N 	0.54738	0.24918	0.20344	-0.223
Mof_N 	N 	0.95262	0.25082	0.29656	-0.215
Mof_N 	N 	0.75082	0.45262	0.29656	-0.223
Mof_N 	N 	0.7912	0.0412	0.25	-0.216
Mof_N 	N 	0.9588	0.2088	0.25	-0.22
Mof_N 	N 	0.7088	0.4588	0.25	-0.224
Mof_N 	N 	0.5412	0.2912	0.25	-0.224
Mof_Cl	Cl	0.5415	0.35295	-0	-0.41
Mof_Cl	Cl	0.9585	0.14705	-0	-0.409
Mof_Cl	Cl	0.64705	0.4585	-0	-0.41
Mof_Cl	Cl	0.85295	0.0415	-0	-0.416
Mof_Cl	Cl	0.69219	0.00158	0.30623	-0.412
Mof_Cl	Cl	0.80782	0.49842	0.19377	-0.386
Mof_O 	O 	0.78492	0.2325	0.20629	-0.406
Mof_O 	O 	0.83965	0.28705	0.147	-0.412
Mof_O 	O 	0.95033	0.26733	0.04715	-0.373
Mof_O 	O 	0.93381	0.2078	0.04809	-0.385
Mof_O 	O 	0.50879	0.06121	0.20629	-0.408
Mof_O 	O 	0.51335	0.06595	0.147	-0.413
Mof_O 	O 	0.50253	0.18553	0.04715	-0.383
Mof_O 	O 	0.5181	0.24411	0.04809	-0.387
Mof_O 	O 	0.76751	0.21509	0.29371	-0.406
Mof_O 	O 	0.71295	0.16035	0.353	-0.409
Mof_O 	O 	0.73268	0.04967	0.45285	-0.388
Mof_O 	O 	0.7922	0.06619	0.45191	-0.387
Mof_O 	O 	0.93879	0.49121	0.29371	-0.396
Mof_O 	O 	0.93405	0.48665	0.353	-0.406
Mof_O 	O 	0.81448	0.49748	0.45285	-0.378
Mof_O 	O 	0.75589	0.4819	0.45191	-0.389
Mof_O 	O 	0.71509	0.26751	0.29371	-0.406
Mof_O 	O 	0.66035	0.21295	0.353	-0.412
Mof_O 	O 	0.54968	0.23267	0.45285	-0.382
Mof_O 	O 	0.56619	0.2922	0.45191	-0.389
Mof_O 	O 	0.99121	0.43879	0.29371	-0.398
Mof_O 	O 	0.98665	0.43405	0.353	-0.409
Mof_O 	O 	0.99748	0.31447	0.45285	-0.372
Mof_O 	O 	0.9819	0.25589	0.45191	-0.384
Mof_O 	O 	0.7325	0.28492	0.20629	-0.407
Mof_O 	O 	0.78705	0.33965	0.147	-0.409
Mof_O 	O 	0.76733	0.45033	0.04715	-0.379
Mof_O 	O 	0.7078	0.43381	0.04809	-0.386
Mof_O 	O 	0.56122	0.0088	0.20629	-0.406
Mof_O 	O 	0.56595	0.01335	0.147	-0.41
Mof_O 	O 	0.68553	0.00252	0.04715	-0.389
Mof_O 	O 	0.74411	0.0181	0.04809	-0.388
Mof_Mn	Mn	0.25	0.5	0.25	0.846
Mof_Mn	Mn	-5.17318e-18	0.75	0.25	0.828
Mof_Mn	Mn	0.25	0.75	0.25	0.83
Mof_Mn	Mn	-5.17318e-18	0.5	0.25	0.807
Mof_Mn	Mn	0.3417	0.8417	0.14617	0.66
Mof_Mn	Mn	0.01213	0.51213	0.14617	0.647
Mof_Mn	Mn	0.1583	0.6583	0.35383	0.658
Mof_Mn	Mn	0.48787	0.98787	0.35383	0.673
Mof_Mn	Mn	0.01458	0.79276	-0	0.942
Mof_Mn	Mn	0.48542	0.70725	-0	0.965
Mof_Mn	Mn	0.20725	0.98542	-0	0.983
Mof_Mn	Mn	0.29276	0.51458	-0	0.966
Mof_H 	H 	0.35165	0.62985	0.2207	0.067
Mof_H 	H 	0.2732	0.6419	0.135	0.065
Mof_H 	H 	0.2841	0.6678	0.2055	0.05
Mof_H 	H 	0.38605	0.76695	0.1014	0.046
Mof_H 	H 	0.36965	0.65345	0.1178	0.077
Mof_H 	H 	0.42765	0.64945	0.2207	0.067
Mof_H 	H 	0.0918	0.7231	0.135	0.067
Mof_H 	H 	0.0104	0.6267	0.2055	0.056
Mof_H 	H 	0.01255	0.63165	0.1014	0.044
Mof_H 	H 	0.01255	0.72875	0.1178	0.066
Mof_H 	H 	0.37015	0.64835	0.2793	0.064
Mof_H 	H 	0.3581	0.7268	0.365	0.067
Mof_H 	H 	0.3322	0.7159	0.2945	0.057
Mof_H 	H 	0.23305	0.61395	0.3986	0.045
Mof_H 	H 	0.34655	0.63035	0.3822	0.067
Mof_H 	H 	0.35055	0.57235	0.2793	0.064
Mof_H 	H 	0.2769	0.9082	0.365	0.066
Mof_H 	H 	0.3733	0.9896	0.2945	0.052
Mof_H 	H 	0.36835	0.98745	0.3986	0.047
Mof_H 	H 	0.27125	0.98745	0.3822	0.078
Mof_H 	H 	0.14835	0.87015	0.2793	0.063
Mof_H 	H 	0.2268	0.8581	0.365	0.068
Mof_H 	H 	0.2159	0.8322	0.2945	0.051
Mof_H 	H 	0.11395	0.73305	0.3986	0.047
Mof_H 	H 	0.13035	0.84655	0.3822	0.077
Mof_H 	H 	0.07235	0.85055	0.2793	0.059
Mof_H 	H 	0.4082	0.7769	0.365	0.067
Mof_H 	H 	0.4896	0.8733	0.2945	0.059
Mof_H 	H 	0.48745	0.86835	0.3986	0.049
Mof_H 	H 	0.48745	0.77125	0.3822	0.067
Mof_H 	H 	0.12985	0.85165	0.2207	0.067
Mof_H 	H 	0.1419	0.7732	0.135	0.064
Mof_H 	H 	0.1678	0.7841	0.2055	0.056
Mof_H 	H 	0.26695	0.88605	0.1014	0.045
Mof_H 	H 	0.15345	0.86965	0.1178	0.067
Mof_H 	H 	0.14945	0.92765	0.2207	0.072
Mof_H 	H 	0.2231	0.5918	0.135	0.065
Mof_H 	H 	0.1267	0.5104	0.2055	0.049
Mof_H 	H 	0.13165	0.51255	0.1014	0.043
Mof_H 	H 	0.22875	0.51255	0.1178	0.076
Mof_C 	C 	0.33605	0.60155	0.234	-0.083
Mof_C 	C 	0.30804	0.58366	0.224	0.115
Mof_C 	C 	0.29953	0.60703	0.19294	-0.111
Mof_C 	C 	0.27158	0.58924	0.18438	0.112
Mof_C 	C 	0.26225	0.61295	0.1524	-0.08
Mof_C 	C 	0.32319	0.65309	0.16633	0.046
Mof_C 	C 	0.30945	0.67915	0.1798	-0.039
Mof_C 	C 	0.33272	0.72122	0.15587	-0.101
Mof_C 	C 	0.37015	0.73825	0.1177	0.029
Mof_C 	C 	0.38458	0.71298	0.10315	-0.082
Mof_C 	C 	0.36053	0.67053	0.12754	-0.048
Mof_C 	C 	0.3175	0.7492	0.1708	0.409
Mof_C 	C 	0.42635	0.73115	0.0625	0.381
Mof_C 	C 	0.42995	0.66445	0.234	-0.083
Mof_C 	C 	0.46796	0.69234	0.224	0.115
Mof_C 	C 	0.00753	0.70003	0.19294	-0.133
Mof_C 	C 	0.04404	0.72638	0.18438	0.118
Mof_C 	C 	0.08535	0.73465	0.1524	-0.084
Mof_C 	C 	0.01048	0.68059	0.16633	0.049
Mof_C 	C 	0.01075	0.64105	0.1798	-0.043
Mof_C 	C 	0.01141	0.62292	0.15587	-0.101
Mof_C 	C 	0.01215	0.64405	0.1177	0.028
Mof_C 	C 	0.01227	0.68388	0.10315	-0.085
Mof_C 	C 	0.01193	0.70193	0.12754	-0.052
Mof_C 	C 	0.0117	0.58	0.1708	0.406
Mof_C 	C 	0.01115	0.70635	0.0625	0.381
Mof_C 	C 	0.39845	0.66395	0.266	-0.081
Mof_C 	C 	0.41634	0.69196	0.276	0.112
Mof_C 	C 	0.39297	0.70047	0.30706	-0.11
Mof_C 	C 	0.41076	0.72842	0.31562	0.112
Mof_C 	C 	0.38705	0.73775	0.3476	-0.079
Mof_C 	C 	0.34692	0.67681	0.33367	0.043
Mof_C 	C 	0.32085	0.69055	0.3202	-0.037
Mof_C 	C 	0.27879	0.66729	0.34413	-0.103
Mof_C 	C 	0.26175	0.62985	0.3823	0.031
Mof_C 	C 	0.28703	0.61543	0.39685	-0.086
Mof_C 	C 	0.32947	0.63947	0.37246	-0.046
Mof_C 	C 	0.2508	0.6825	0.3292	0.408
Mof_C 	C 	0.26885	0.57365	0.4375	0.385
Mof_C 	C 	0.33555	0.57005	0.266	-0.081
Mof_C 	C 	0.30766	0.53204	0.276	0.113
Mof_C 	C 	0.29997	0.99247	0.30706	-0.085
Mof_C 	C 	0.27362	0.95596	0.31562	0.106
Mof_C 	C 	0.26535	0.91465	0.3476	-0.074
Mof_C 	C 	0.31942	0.98952	0.33367	0.041
Mof_C 	C 	0.35895	0.98925	0.3202	-0.033
Mof_C 	C 	0.37709	0.98859	0.34413	-0.101
Mof_C 	C 	0.35595	0.98785	0.3823	0.031
Mof_C 	C 	0.31612	0.98773	0.39685	-0.082
Mof_C 	C 	0.29807	0.98807	0.37246	-0.042
Mof_C 	C 	0.42	0.9883	0.3292	0.407
Mof_C 	C 	0.29365	0.98885	0.4375	0.385
Mof_C 	C 	0.16395	0.89845	0.266	-0.076
Mof_C 	C 	0.19196	0.91634	0.276	0.114
Mof_C 	C 	0.20047	0.89297	0.30706	-0.109
Mof_C 	C 	0.22842	0.91076	0.31562	0.114
Mof_C 	C 	0.23775	0.88705	0.3476	-0.081
Mof_C 	C 	0.17682	0.84692	0.33367	0.045
Mof_C 	C 	0.19055	0.82085	0.3202	-0.038
Mof_C 	C 	0.16729	0.77879	0.34413	-0.101
Mof_C 	C 	0.12985	0.76175	0.3823	0.03
Mof_C 	C 	0.11543	0.78703	0.39685	-0.083
Mof_C 	C 	0.13947	0.82947	0.37246	-0.047
Mof_C 	C 	0.1825	0.7508	0.3292	0.408
Mof_C 	C 	0.07365	0.76885	0.4375	0.384
Mof_C 	C 	0.07005	0.83555	0.266	-0.072
Mof_C 	C 	0.03204	0.80766	0.276	0.091
Mof_C 	C 	0.49247	0.79997	0.30706	-0.111
Mof_C 	C 	0.45596	0.77362	0.31562	0.112
Mof_C 	C 	0.41465	0.76535	0.3476	-0.079
Mof_C 	C 	0.48952	0.81942	0.33367	0.046
Mof_C 	C 	0.48925	0.85895	0.3202	-0.04
Mof_C 	C 	0.48859	0.87708	0.34413	-0.097
Mof_C 	C 	0.48785	0.85595	0.3823	0.029
Mof_C 	C 	0.48773	0.81613	0.39685	-0.082
Mof_C 	C 	0.48807	0.79807	0.37246	-0.048
Mof_C 	C 	0.4883	0.92	0.3292	0.406
Mof_C 	C 	0.48885	0.79365	0.4375	0.384
Mof_C 	C 	0.10155	0.83605	0.234	-0.087
Mof_C 	C 	0.08366	0.80804	0.224	0.115
Mof_C 	C 	0.10703	0.79953	0.19294	-0.111
Mof_C 	C 	0.08924	0.77158	0.18438	0.111
Mof_C 	C 	0.11295	0.76225	0.1524	-0.078
Mof_C 	C 	0.15309	0.82319	0.16633	0.044
Mof_C 	C 	0.17915	0.80945	0.1798	-0.038
Mof_C 	C 	0.22122	0.83272	0.15587	-0.103
Mof_C 	C 	0.23825	0.87015	0.1177	0.03
Mof_C 	C 	0.21298	0.88458	0.10315	-0.085
Mof_C 	C 	0.17053	0.86053	0.12754	-0.047
Mof_C 	C 	0.2492	0.8175	0.1708	0.408
Mof_C 	C 	0.23115	0.92635	0.0625	0.381
Mof_C 	C 	0.16445	0.92995	0.234	-0.093
Mof_C 	C 	0.19234	0.96796	0.224	0.139
Mof_C 	C 	0.20003	0.50753	0.19294	-0.111
Mof_C 	C 	0.22638	0.54404	0.18438	0.111
Mof_C 	C 	0.23465	0.58535	0.1524	-0.08
Mof_C 	C 	0.18059	0.51049	0.16633	0.044
Mof_C 	C 	0.14105	0.51075	0.1798	-0.038
Mof_C 	C 	0.12292	0.51141	0.15587	-0.105
Mof_C 	C 	0.14405	0.51215	0.1177	0.03
Mof_C 	C 	0.18388	0.51227	0.10315	-0.085
Mof_C 	C 	0.20193	0.51193	0.12754	-0.047
Mof_C 	C 	0.08	0.5117	0.1708	0.407
Mof_C 	C 	0.20635	0.51115	0.0625	0.382
Mof_N 	N 	0.24918	0.54738	0.20344	-0.223
Mof_N 	N 	0.04738	0.74918	0.20344	-0.224
Mof_N 	N 	0.45262	0.75082	0.29656	-0.223
Mof_N 	N 	0.25082	0.95262	0.29656	-0.214
Mof_N 	N 	0.2912	0.5412	0.25	-0.224
Mof_N 	N 	0.4588	0.7088	0.25	-0.224
Mof_N 	N 	0.2088	0.9588	0.25	-0.22
Mof_N 	N 	0.0412	0.7912	0.25	-0.221
Mof_Cl	Cl	0.0415	0.85295	-0	-0.426
Mof_Cl	Cl	0.4585	0.64705	-0	-0.399
Mof_Cl	Cl	0.14705	0.9585	-0	-0.419
Mof_Cl	Cl	0.35295	0.5415	-0	-0.399
Mof_Cl	Cl	0.00158	0.69219	0.30623	-0.397
Mof_Cl	Cl	0.49842	0.80782	0.19377	-0.386
Mof_O 	O 	0.28492	0.7325	0.20629	-0.407
Mof_O 	O 	0.33965	0.78705	0.147	-0.409
Mof_O 	O 	0.45033	0.76733	0.04715	-0.379
Mof_O 	O 	0.43381	0.7078	0.04809	-0.386
Mof_O 	O 	0.00879	0.56122	0.20629	-0.406
Mof_O 	O 	0.01335	0.56595	0.147	-0.41
Mof_O 	O 	0.00252	0.68553	0.04715	-0.389
Mof_O 	O 	0.0181	0.74411	0.04809	-0.391
Mof_O 	O 	0.26751	0.71509	0.29371	-0.406
Mof_O 	O 	0.21295	0.66035	0.353	-0.412
Mof_O 	O 	0.23268	0.54967	0.45285	-0.382
Mof_O 	O 	0.2922	0.56619	0.45191	-0.389
Mof_O 	O 	0.43879	0.99121	0.29371	-0.397
Mof_O 	O 	0.43405	0.98665	0.353	-0.409
Mof_O 	O 	0.31448	0.99748	0.45285	-0.371
Mof_O 	O 	0.25589	0.9819	0.45191	-0.384
Mof_O 	O 	0.21509	0.76751	0.29371	-0.406
Mof_O 	O 	0.16035	0.71295	0.353	-0.408
Mof_O 	O 	0.04968	0.73267	0.45285	-0.387
Mof_O 	O 	0.06619	0.7922	0.45191	-0.387
Mof_O 	O 	0.49121	0.93879	0.29371	-0.395
Mof_O 	O 	0.48665	0.93405	0.353	-0.406
Mof_O 	O 	0.49748	0.81448	0.45285	-0.378
Mof_O 	O 	0.4819	0.75589	0.45191	-0.389
Mof_O 	O 	0.2325	0.78492	0.20629	-0.406
Mof_O 	O 	0.28705	0.83965	0.147	-0.412
Mof_O 	O 	0.26733	0.95033	0.04715	-0.373
Mof_O 	O 	0.2078	0.93381	0.04809	-0.388
Mof_O 	O 	0.06122	0.5088	0.20629	-0.408
Mof_O 	O 	0.06595	0.51335	0.147	-0.413
Mof_O 	O 	0.18553	0.50253	0.04715	-0.383
Mof_O 	O 	0.24411	0.5181	0.04809	-0.386
Mof_Mn	Mn	0.75	0.5	0.25	0.846
Mof_Mn	Mn	0.5	0.75	0.25	0.846
Mof_Mn	Mn	0.75	0.75	0.25	0.827
Mof_Mn	Mn	0.5	0.5	0.25	0.829
Mof_Mn	Mn	0.8417	0.8417	0.14617	0.662
Mof_Mn	Mn	0.51213	0.51213	0.14617	0.669
Mof_Mn	Mn	0.6583	0.6583	0.35383	0.645
Mof_Mn	Mn	0.98787	0.98787	0.35383	0.7
Mof_Mn	Mn	0.51459	0.79276	-0	0.963
Mof_Mn	Mn	0.98542	0.70725	-0	0.984
Mof_Mn	Mn	0.70725	0.98542	-0	0.985
Mof_Mn	Mn	0.79276	0.51458	-0	0.963
Mof_H 	H 	0.85165	0.62985	0.2207	0.065
Mof_H 	H 	0.7732	0.6419	0.135	0.065
Mof_H 	H 	0.7841	0.6678	0.2055	0.049
Mof_H 	H 	0.88605	0.76695	0.1014	0.045
Mof_H 	H 	0.86965	0.65345	0.1178	0.077
Mof_H 	H 	0.92765	0.64945	0.2207	0.074
Mof_H 	H 	0.5918	0.7231	0.135	0.065
Mof_H 	H 	0.5104	0.6267	0.2055	0.05
Mof_H 	H 	0.51255	0.63165	0.1014	0.046
Mof_H 	H 	0.51255	0.72875	0.1178	0.076
Mof_H 	H 	0.87015	0.64835	0.2793	0.062
Mof_H 	H 	0.8581	0.7268	0.365	0.068
Mof_H 	H 	0.8322	0.7159	0.2945	0.051
Mof_H 	H 	0.73305	0.61395	0.3986	0.045
Mof_H 	H 	0.84655	0.63035	0.3822	0.078
Mof_H 	H 	0.85055	0.57235	0.2793	0.067
Mof_H 	H 	0.7769	0.9082	0.365	0.067
Mof_H 	H 	0.8733	0.9896	0.2945	0.061
Mof_H 	H 	0.86835	0.98745	0.3986	0.052
Mof_H 	H 	0.77125	0.98745	0.3822	0.078
Mof_H 	H 	0.64835	0.87015	0.2793	0.063
Mof_H 	H 	0.7268	0.8581	0.365	0.069
Mof_H 	H 	0.7159	0.8322	0.2945	0.057
Mof_H 	H 	0.61395	0.73305	0.3986	0.045
Mof_H 	H 	0.63035	0.84655	0.3822	0.077
Mof_H 	H 	0.57235	0.85055	0.2793	0.067
Mof_H 	H 	0.9082	0.7769	0.365	0.066
Mof_H 	H 	0.9896	0.8733	0.2945	0.055
Mof_H 	H 	0.98745	0.86835	0.3986	0.052
Mof_H 	H 	0.98745	0.77125	0.3822	0.079
Mof_H 	H 	0.62985	0.85165	0.2207	0.067
Mof_H 	H 	0.6419	0.7732	0.135	0.065
Mof_H 	H 	0.6678	0.7841	0.2055	0.05
Mof_H 	H 	0.76695	0.88605	0.1014	0.048
Mof_H 	H 	0.65345	0.86965	0.1178	0.078
Mof_H 	H 	0.64945	0.92765	0.2207	0.076
Mof_H 	H 	0.7231	0.5918	0.135	0.065
Mof_H 	H 	0.6267	0.5104	0.2055	0.05
Mof_H 	H 	0.63165	0.51255	0.1014	0.046
Mof_H 	H 	0.72875	0.51255	0.1178	0.076
Mof_C 	C 	0.83605	0.60155	0.234	-0.081
Mof_C 	C 	0.80804	0.58366	0.224	0.114
Mof_C 	C 	0.79953	0.60703	0.19294	-0.111
Mof_C 	C 	0.77158	0.58924	0.18438	0.111
Mof_C 	C 	0.76225	0.61295	0.1524	-0.08
Mof_C 	C 	0.82319	0.65308	0.16633	0.045
Mof_C 	C 	0.80945	0.67915	0.1798	-0.038
Mof_C 	C 	0.83272	0.72122	0.15587	-0.103
Mof_C 	C 	0.87015	0.73825	0.1177	0.029
Mof_C 	C 	0.88458	0.71298	0.10315	-0.082
Mof_C 	C 	0.86053	0.67053	0.12754	-0.048
Mof_C 	C 	0.8175	0.7492	0.1708	0.408
Mof_C 	C 	0.92635	0.73115	0.0625	0.381
Mof_C 	C 	0.92995	0.66445	0.234	-0.094
Mof_C 	C 	0.96796	0.69234	0.224	0.139
Mof_C 	C 	0.50753	0.70003	0.19294	-0.111
Mof_C 	C 	0.54404	0.72638	0.18438	0.111
Mof_C 	C 	0.58535	0.73465	0.1524	-0.08
Mof_C 	C 	0.51049	0.68059	0.16633	0.045
Mof_C 	C 	0.51075	0.64105	0.1798	-0.038
Mof_C 	C 	0.51142	0.62292	0.15587	-0.102
Mof_C 	C 	0.51215	0.64405	0.1177	0.03
Mof_C 	C 	0.51228	0.68388	0.10315	-0.082
Mof_C 	C 	0.51193	0.70193	0.12754	-0.048
Mof_C 	C 	0.5117	0.58	0.1708	0.409
Mof_C 	C 	0.51115	0.70635	0.0625	0.381
Mof_C 	C 	0.89845	0.66395	0.266	-0.074
Mof_C 	C 	0.91634	0.69196	0.276	0.113
Mof_C 	C 	0.89297	0.70047	0.30706	-0.108
Mof_C 	C 	0.91076	0.72842	0.31562	0.114
Mof_C 	C 	0.88705	0.73775	0.3476	-0.08
Mof_C 	C 	0.84692	0.67681	0.33367	0.045
Mof_C 	C 	0.82085	0.69055	0.3202	-0.038
Mof_C 	C 	0.77879	0.66729	0.34413	-0.102
Mof_C 	C 	0.76175	0.62985	0.3823	0.03
Mof_C 	C 	0.78703	0.61543	0.39685	-0.083
Mof_C 	C 	0.82947	0.63947	0.37246	-0.047
Mof_C 	C 	0.7508	0.6825	0.3292	0.407
Mof_C 	C 	0.76885	0.57365	0.4375	0.384
Mof_C 	C 	0.83555	0.57005	0.266	-0.082
Mof_C 	C 	0.80766	0.53204	0.276	0.114
Mof_C 	C 	0.79997	0.99247	0.30706	-0.084
Mof_C 	C 	0.77362	0.95596	0.31562	0.118
Mof_C 	C 	0.76535	0.91465	0.3476	-0.074
Mof_C 	C 	0.81942	0.98952	0.33367	0.046
Mof_C 	C 	0.85895	0.98925	0.3202	-0.038
Mof_C 	C 	0.87709	0.98859	0.34413	-0.093
Mof_C 	C 	0.85595	0.98785	0.3823	0.028
Mof_C 	C 	0.81613	0.98773	0.39685	-0.077
Mof_C 	C 	0.79807	0.98807	0.37246	-0.046
Mof_C 	C 	0.92	0.9883	0.3292	0.406
Mof_C 	C 	0.79365	0.98885	0.4375	0.383
Mof_C 	C 	0.66395	0.89845	0.266	-0.073
Mof_C 	C 	0.69196	0.91634	0.276	0.123
Mof_C 	C 	0.70047	0.89297	0.30706	-0.106
Mof_C 	C 	0.72842	0.91076	0.31562	0.124
Mof_C 	C 	0.73775	0.88705	0.3476	-0.08
Mof_C 	C 	0.67682	0.84692	0.33367	0.047
Mof_C 	C 	0.69055	0.82085	0.3202	-0.04
Mof_C 	C 	0.66729	0.77879	0.34413	-0.1
Mof_C 	C 	0.62985	0.76175	0.3823	0.028
Mof_C 	C 	0.61543	0.78703	0.39685	-0.082
Mof_C 	C 	0.63947	0.82947	0.37246	-0.049
Mof_C 	C 	0.6825	0.7508	0.3292	0.406
Mof_C 	C 	0.57365	0.76885	0.4375	0.384
Mof_C 	C 	0.57005	0.83555	0.266	-0.081
Mof_C 	C 	0.53204	0.80766	0.276	0.114
Mof_C 	C 	0.99247	0.79997	0.30706	-0.087
Mof_C 	C 	0.95596	0.77362	0.31562	0.107
Mof_C 	C 	0.91465	0.76535	0.3476	-0.074
Mof_C 	C 	0.98952	0.81942	0.33367	0.044
Mof_C 	C 	0.98925	0.85895	0.3202	-0.036
Mof_C 	C 	0.98859	0.87708	0.34413	-0.095
Mof_C 	C 	0.98785	0.85595	0.3823	0.029
Mof_C 	C 	0.98773	0.81613	0.39685	-0.078
Mof_C 	C 	0.98807	0.79807	0.37246	-0.044
Mof_C 	C 	0.9883	0.92	0.3292	0.407
Mof_C 	C 	0.98885	0.79365	0.4375	0.384
Mof_C 	C 	0.60155	0.83605	0.234	-0.082
Mof_C 	C 	0.58366	0.80804	0.224	0.115
Mof_C 	C 	0.60703	0.79953	0.19294	-0.111
Mof_C 	C 	0.58924	0.77158	0.18438	0.111
Mof_C 	C 	0.61295	0.76225	0.1524	-0.08
Mof_C 	C 	0.65309	0.82319	0.16633	0.046
Mof_C 	C 	0.67915	0.80945	0.1798	-0.039
Mof_C 	C 	0.72122	0.83272	0.15587	-0.101
Mof_C 	C 	0.73825	0.87015	0.1177	0.029
Mof_C 	C 	0.71298	0.88458	0.10315	-0.08
Mof_C 	C 	0.67053	0.86053	0.12754	-0.049
Mof_C 	C 	0.7492	0.8175	0.1708	0.408
Mof_C 	C 	0.73115	0.92635	0.0625	0.38
Mof_C 	C 	0.66445	0.92995	0.234	-0.094
Mof_C 	C 	0.69234	0.96796	0.224	0.152
Mof_C 	C 	0.70003	0.50753	0.19294	-0.111
Mof_C 	C 	0.72638	0.54404	0.18438	0.111
Mof_C 	C 	0.73465	0.58535	0.1524	-0.08
Mof_C 	C 	0.68059	0.51049	0.16633	0.045
Mof_C 	C 	0.64105	0.51075	0.1798	-0.038
Mof_C 	C 	0.62292	0.51141	0.15587	-0.102
Mof_C 	C 	0.64405	0.51215	0.1177	0.03
Mof_C 	C 	0.68388	0.51227	0.10315	-0.082
Mof_C 	C 	0.70193	0.51193	0.12754	-0.048
Mof_C 	C 	0.58	0.5117	0.1708	0.409
Mof_C 	C 	0.70635	0.51115	0.0625	0.381
Mof_N 	N 	0.74918	0.54738	0.20344	-0.223
Mof_N 	N 	0.54738	0.74918	0.20344	-0.223
Mof_N 	N 	0.95262	0.75082	0.29656	-0.215
Mof_N 	N 	0.75082	0.95262	0.29656	-0.21
Mof_N 	N 	0.7912	0.5412	0.25	-0.224
Mof_N 	N 	0.9588	0.7088	0.25	-0.22
Mof_N 	N 	0.7088	0.9588	0.25	-0.215
Mof_N 	N 	0.5412	0.7912	0.25	-0.224
Mof_Cl	Cl	0.5415	0.85295	-0	-0.408
Mof_Cl	Cl	0.9585	0.64705	-0	-0.405
Mof_Cl	Cl	0.64705	0.9585	-0	-0.405
Mof_Cl	Cl	0.85295	0.5415	-0	-0.408
Mof_Cl	Cl	0.80782	0.99842	0.19377	-0.384
Mof_O 	O 	0.78492	0.7325	0.20629	-0.408
Mof_O 	O 	0.83965	0.78705	0.147	-0.412
Mof_O 	O 	0.95033	0.76733	0.04715	-0.373
Mof_O 	O 	0.93381	0.7078	0.04809	-0.385
Mof_O 	O 	0.50879	0.56122	0.20629	-0.408
Mof_O 	O 	0.51335	0.56595	0.147	-0.41
Mof_O 	O 	0.50253	0.68553	0.04715	-0.379
Mof_O 	O 	0.5181	0.74411	0.04809	-0.386
Mof_O 	O 	0.76751	0.71509	0.29371	-0.407
Mof_O 	O 	0.71295	0.66035	0.353	-0.411
Mof_O 	O 	0.73268	0.54967	0.45285	-0.382
Mof_O 	O 	0.7922	0.56619	0.45191	-0.386
Mof_O 	O 	0.93879	0.99121	0.29371	-0.386
Mof_O 	O 	0.93405	0.98665	0.353	-0.404
Mof_O 	O 	0.81448	0.99748	0.45285	-0.367
Mof_O 	O 	0.75589	0.9819	0.45191	-0.384
Mof_O 	O 	0.71509	0.76751	0.29371	-0.405
Mof_O 	O 	0.66035	0.71295	0.353	-0.411
Mof_O 	O 	0.54968	0.73268	0.45285	-0.381
Mof_O 	O 	0.56619	0.7922	0.45191	-0.386
Mof_O 	O 	0.99121	0.93879	0.29371	-0.388
Mof_O 	O 	0.98665	0.93405	0.353	-0.404
Mof_O 	O 	0.99748	0.81448	0.45285	-0.368
Mof_O 	O 	0.9819	0.75589	0.45191	-0.383
Mof_O 	O 	0.7325	0.78492	0.20629	-0.407
Mof_O 	O 	0.78705	0.83965	0.147	-0.409
Mof_O 	O 	0.76733	0.95033	0.04715	-0.37
Mof_O 	O 	0.7078	0.93381	0.04809	-0.384
Mof_O 	O 	0.56122	0.5088	0.20629	-0.408
Mof_O 	O 	0.56595	0.51335	0.147	-0.41
Mof_O 	O 	0.68553	0.50253	0.04715	-0.379
Mof_O 	O 	0.74411	0.5181	0.04809	-0.386
Mof_Mn	Mn	0.25	0	0.75	0.819
Mof_Mn	Mn	-0	0.25	0.75	0.82
Mof_Mn	Mn	0.25	0.25	0.75	0.824
Mof_Mn	Mn	-0	0	0.75	0.784
Mof_Mn	Mn	0.3417	0.3417	0.64617	0.646
Mof_Mn	Mn	0.01213	0.01213	0.64617	0.655
Mof_Mn	Mn	0.1583	0.1583	0.85383	0.647
Mof_Mn	Mn	0.48787	0.48787	0.85383	0.67
Mof_Mn	Mn	0.01458	0.29276	0.5	0.974
Mof_Mn	Mn	0.48542	0.20725	0.5	0.995
Mof_Mn	Mn	0.20725	0.48542	0.5	0.995
Mof_Mn	Mn	0.29276	0.01458	0.5	0.973
Mof_H 	H 	0.35165	0.12985	0.7207	0.066
Mof_H 	H 	0.2732	0.1419	0.635	0.066
Mof_H 	H 	0.2841	0.1678	0.7055	0.049
Mof_H 	H 	0.38605	0.26695	0.6014	0.044
Mof_H 	H 	0.36965	0.15345	0.6178	0.075
Mof_H 	H 	0.42765	0.14945	0.7207	0.065
Mof_H 	H 	0.0918	0.2231	0.635	0.068
Mof_H 	H 	0.0104	0.1267	0.7055	0.048
Mof_H 	H 	0.01255	0.13165	0.6014	0.046
Mof_H 	H 	0.01255	0.22875	0.6178	0.076
Mof_H 	H 	0.37015	0.14835	0.7793	0.064
Mof_H 	H 	0.3581	0.2268	0.865	0.069
Mof_H 	H 	0.3322	0.2159	0.7945	0.05
Mof_H 	H 	0.23305	0.11395	0.8986	0.047
Mof_H 	H 	0.34655	0.13035	0.8822	0.079
Mof_H 	H 	0.35055	0.07235	0.7793	0.058
Mof_H 	H 	0.2769	0.4082	0.865	0.069
Mof_H 	H 	0.3733	0.4896	0.7945	0.051
Mof_H 	H 	0.36835	0.48745	0.8986	0.053
Mof_H 	H 	0.27125	0.48745	0.8822	0.081
Mof_H 	H 	0.14835	0.37015	0.7793	0.064
Mof_H 	H 	0.2268	0.3581	0.865	0.069
Mof_H 	H 	0.2159	0.3322	0.7945	0.05
Mof_H 	H 	0.11395	0.23305	0.8986	0.048
Mof_H 	H 	0.13035	0.34655	0.8822	0.079
Mof_H 	H 	0.07235	0.35055	0.7793	0.058
Mof_H 	H 	0.4082	0.2769	0.865	0.069
Mof_H 	H 	0.4896	0.3733	0.7945	0.051
Mof_H 	H 	0.48745	0.36835	0.8986	0.05
Mof_H 	H 	0.48745	0.27125	0.8822	0.08
Mof_H 	H 	0.12985	0.35165	0.7207	0.066
Mof_H 	H 	0.1419	0.2732	0.635	0.066
Mof_H 	H 	0.1678	0.2841	0.7055	0.049
Mof_H 	H 	0.26695	0.38605	0.6014	0.044
Mof_H 	H 	0.15345	0.36965	0.6178	0.076
Mof_H 	H 	0.14945	0.42765	0.7207	0.065
Mof_H 	H 	0.2231	0.0918	0.635	0.068
Mof_H 	H 	0.1267	0.0104	0.7055	0.048
Mof_H 	H 	0.13165	0.01255	0.6014	0.046
Mof_H 	H 	0.22875	0.01255	0.6178	0.076
Mof_C 	C 	0.33605	0.10155	0.734	-0.089
Mof_C 	C 	0.30804	0.08366	0.724	0.114
Mof_C 	C 	0.29953	0.10703	0.69294	-0.111
Mof_C 	C 	0.27158	0.08924	0.68438	0.11
Mof_C 	C 	0.26225	0.11295	0.6524	-0.078
Mof_C 	C 	0.32319	0.15308	0.66633	0.044
Mof_C 	C 	0.30945	0.17915	0.6798	-0.038
Mof_C 	C 	0.33272	0.22122	0.65587	-0.104
Mof_C 	C 	0.37015	0.23825	0.6177	0.031
Mof_C 	C 	0.38458	0.21298	0.60315	-0.084
Mof_C 	C 	0.36053	0.17053	0.62754	-0.046
Mof_C 	C 	0.3175	0.2492	0.6708	0.408
Mof_C 	C 	0.42635	0.23115	0.5625	0.385
Mof_C 	C 	0.42995	0.16445	0.734	-0.083
Mof_C 	C 	0.46796	0.19234	0.724	0.113
Mof_C 	C 	0.00753	0.20003	0.69294	-0.134
Mof_C 	C 	0.04404	0.22638	0.68438	0.117
Mof_C 	C 	0.08535	0.23465	0.6524	-0.084
Mof_C 	C 	0.01048	0.18059	0.66633	0.05
Mof_C 	C 	0.01075	0.14105	0.6798	-0.044
Mof_C 	C 	0.01141	0.12292	0.65587	-0.102
Mof_C 	C 	0.01215	0.14405	0.6177	0.028
Mof_C 	C 	0.01227	0.18388	0.60315	-0.083
Mof_C 	C 	0.01193	0.20193	0.62754	-0.052
Mof_C 	C 	0.0117	0.08	0.6708	0.406
Mof_C 	C 	0.01115	0.20635	0.5625	0.384
Mof_C 	C 	0.39845	0.16395	0.766	-0.082
Mof_C 	C 	0.41634	0.19196	0.776	0.114
Mof_C 	C 	0.39297	0.20047	0.80706	-0.112
Mof_C 	C 	0.41076	0.22842	0.81562	0.112
Mof_C 	C 	0.38705	0.23775	0.8476	-0.079
Mof_C 	C 	0.34692	0.17681	0.83367	0.047
Mof_C 	C 	0.32085	0.19055	0.8202	-0.04
Mof_C 	C 	0.27879	0.16729	0.84413	-0.1
Mof_C 	C 	0.26175	0.12985	0.8823	0.027
Mof_C 	C 	0.28703	0.11543	0.89685	-0.078
Mof_C 	C 	0.32947	0.13947	0.87246	-0.05
Mof_C 	C 	0.2508	0.1825	0.8292	0.407
Mof_C 	C 	0.26885	0.07365	0.9375	0.378
Mof_C 	C 	0.33555	0.07005	0.766	-0.071
Mof_C 	C 	0.30766	0.03204	0.776	0.087
Mof_C 	C 	0.29997	0.49247	0.80706	-0.112
Mof_C 	C 	0.27362	0.45596	0.81562	0.113
Mof_C 	C 	0.26535	0.41465	0.8476	-0.079
Mof_C 	C 	0.31942	0.48952	0.83367	0.05
Mof_C 	C 	0.35895	0.48925	0.8202	-0.042
Mof_C 	C 	0.37709	0.48859	0.84413	-0.096
Mof_C 	C 	0.35595	0.48785	0.8823	0.025
Mof_C 	C 	0.31612	0.48773	0.89685	-0.073
Mof_C 	C 	0.29807	0.48807	0.87246	-0.052
Mof_C 	C 	0.42	0.4883	0.8292	0.408
Mof_C 	C 	0.29365	0.48885	0.9375	0.377
Mof_C 	C 	0.16395	0.39845	0.766	-0.082
Mof_C 	C 	0.19196	0.41634	0.776	0.114
Mof_C 	C 	0.20047	0.39297	0.80706	-0.112
Mof_C 	C 	0.22842	0.41076	0.81562	0.112
Mof_C 	C 	0.23775	0.38705	0.8476	-0.079
Mof_C 	C 	0.17682	0.34692	0.83367	0.047
Mof_C 	C 	0.19055	0.32085	0.8202	-0.04
Mof_C 	C 	0.16729	0.27879	0.84413	-0.1
Mof_C 	C 	0.12985	0.26175	0.8823	0.027
Mof_C 	C 	0.11543	0.28703	0.89685	-0.078
Mof_C 	C 	0.13947	0.32947	0.87246	-0.05
Mof_C 	C 	0.1825	0.2508	0.8292	0.407
Mof_C 	C 	0.07365	0.26885	0.9375	0.378
Mof_C 	C 	0.07005	0.33555	0.766	-0.072
Mof_C 	C 	0.03204	0.30766	0.776	0.089
Mof_C 	C 	0.49247	0.29997	0.80706	-0.112
Mof_C 	C 	0.45596	0.27362	0.81562	0.113
Mof_C 	C 	0.41465	0.26535	0.8476	-0.079
Mof_C 	C 	0.48952	0.31942	0.83367	0.048
Mof_C 	C 	0.48925	0.35895	0.8202	-0.041
Mof_C 	C 	0.48859	0.37708	0.84413	-0.099
Mof_C 	C 	0.48785	0.35595	0.8823	0.026
Mof_C 	C 	0.48773	0.31613	0.89685	-0.075
Mof_C 	C 	0.48807	0.29807	0.87246	-0.051
Mof_C 	C 	0.4883	0.42	0.8292	0.407
Mof_C 	C 	0.48885	0.29365	0.9375	0.377
Mof_C 	C 	0.10155	0.33605	0.734	-0.088
Mof_C 	C 	0.08366	0.30804	0.724	0.114
Mof_C 	C 	0.10703	0.29953	0.69294	-0.111
Mof_C 	C 	0.08924	0.27158	0.68438	0.11
Mof_C 	C 	0.11295	0.26225	0.6524	-0.078
Mof_C 	C 	0.15309	0.32319	0.66633	0.044
Mof_C 	C 	0.17915	0.30945	0.6798	-0.038
Mof_C 	C 	0.22122	0.33271	0.65587	-0.104
Mof_C 	C 	0.23825	0.37015	0.6177	0.03
Mof_C 	C 	0.21298	0.38458	0.60315	-0.084
Mof_C 	C 	0.17053	0.36053	0.62754	-0.046
Mof_C 	C 	0.2492	0.3175	0.6708	0.408
Mof_C 	C 	0.23115	0.42635	0.5625	0.385
Mof_C 	C 	0.16445	0.42995	0.734	-0.083
Mof_C 	C 	0.19234	0.46796	0.724	0.113
Mof_C 	C 	0.20003	0.00753	0.69294	-0.136
Mof_C 	C 	0.22638	0.04404	0.68438	0.117
Mof_C 	C 	0.23465	0.08535	0.6524	-0.084
Mof_C 	C 	0.18059	0.01049	0.66633	0.05
Mof_C 	C 	0.14105	0.01075	0.6798	-0.044
Mof_C 	C 	0.12292	0.01141	0.65587	-0.101
Mof_C 	C 	0.14405	0.01215	0.6177	0.028
Mof_C 	C 	0.18388	0.01227	0.60315	-0.083
Mof_C 	C 	0.20193	0.01193	0.62754	-0.053
Mof_C 	C 	0.08	0.0117	0.6708	0.406
Mof_C 	C 	0.20635	0.01115	0.5625	0.384
Mof_N 	N 	0.24918	0.04738	0.70344	-0.224
Mof_N 	N 	0.04738	0.24918	0.70344	-0.224
Mof_N 	N 	0.45262	0.25082	0.79656	-0.223
Mof_N 	N 	0.25082	0.45262	0.79656	-0.223
Mof_N 	N 	0.2912	0.0412	0.75	-0.221
Mof_N 	N 	0.4588	0.2088	0.75	-0.224
Mof_N 	N 	0.2088	0.4588	0.75	-0.224
Mof_N 	N 	0.0412	0.2912	0.75	-0.221
Mof_Cl	Cl	0.0415	0.35295	0.5	-0.404
Mof_Cl	Cl	0.4585	0.14705	0.5	-0.401
Mof_Cl	Cl	0.14705	0.4585	0.5	-0.4
Mof_Cl	Cl	0.35295	0.0415	0.5	-0.405
Mof_O 	O 	0.28492	0.2325	0.70629	-0.408
Mof_O 	O 	0.33965	0.28705	0.647	-0.411
Mof_O 	O 	0.45033	0.26733	0.54715	-0.381
Mof_O 	O 	0.43381	0.2078	0.54809	-0.387
Mof_O 	O 	0.00879	0.06122	0.70629	-0.409
Mof_O 	O 	0.01335	0.06595	0.647	-0.41
Mof_O 	O 	0.00252	0.18553	0.54715	-0.388
Mof_O 	O 	0.0181	0.24411	0.54809	-0.388
Mof_O 	O 	0.26751	0.21509	0.79371	-0.407
Mof_O 	O 	0.21295	0.16035	0.853	-0.41
Mof_O 	O 	0.23268	0.04967	0.95285	-0.372
Mof_O 	O 	0.2922	0.06619	0.95191	-0.37
Mof_O 	O 	0.43879	0.49121	0.79371	-0.407
Mof_O 	O 	0.43405	0.48665	0.853	-0.406
Mof_O 	O 	0.31448	0.49748	0.95285	-0.359
Mof_O 	O 	0.25589	0.4819	0.95191	-0.367
Mof_O 	O 	0.21509	0.26751	0.79371	-0.407
Mof_O 	O 	0.16035	0.21295	0.853	-0.41
Mof_O 	O 	0.04968	0.23267	0.95285	-0.372
Mof_O 	O 	0.06619	0.2922	0.95191	-0.369
Mof_O 	O 	0.49121	0.43879	0.79371	-0.408
Mof_O 	O 	0.48665	0.43405	0.853	-0.41
Mof_O 	O 	0.49748	0.31448	0.95285	-0.362
Mof_O 	O 	0.4819	0.25589	0.95191	-0.367
Mof_O 	O 	0.2325	0.28492	0.70629	-0.408
Mof_O 	O 	0.28705	0.33965	0.647	-0.411
Mof_O 	O 	0.26733	0.45033	0.54715	-0.382
Mof_O 	O 	0.2078	0.43381	0.54809	-0.387
Mof_O 	O 	0.06122	0.0088	0.70629	-0.409
Mof_O 	O 	0.06595	0.01335	0.647	-0.41
Mof_O 	O 	0.18553	0.00252	0.54715	-0.388
Mof_O 	O 	0.24411	0.0181	0.54809	-0.388
Mof_Mn	Mn	0.75	0	0.75	0.82
Mof_Mn	Mn	0.5	0.25	0.75	0.846
Mof_Mn	Mn	0.75	0.25	0.75	0.832
Mof_Mn	Mn	0.5	0	0.75	0.806
Mof_Mn	Mn	0.8417	0.3417	0.64617	0.677
Mof_Mn	Mn	0.51213	0.01213	0.64617	0.65
Mof_Mn	Mn	0.6583	0.1583	0.85383	0.664
Mof_Mn	Mn	0.98787	0.48787	0.85383	0.681
Mof_Mn	Mn	0.51459	0.29276	0.5	0.993
Mof_Mn	Mn	0.98542	0.20725	0.5	1.018
Mof_Mn	Mn	0.70725	0.48542	0.5	0.992
Mof_Mn	Mn	0.79276	0.01458	0.5	0.976
Mof_H 	H 	0.85165	0.12985	0.7207	0.069
Mof_H 	H 	0.7732	0.1419	0.635	0.067
Mof_H 	H 	0.7841	0.1678	0.7055	0.051
Mof_H 	H 	0.88605	0.26695	0.6014	0.05
Mof_H 	H 	0.86965	0.15345	0.6178	0.078
Mof_H 	H 	0.92765	0.14945	0.7207	0.074
Mof_H 	H 	0.5918	0.2231	0.635	0.067
Mof_H 	H 	0.5104	0.1267	0.7055	0.055
Mof_H 	H 	0.51255	0.13165	0.6014	0.047
Mof_H 	H 	0.51255	0.22875	0.6178	0.067
Mof_H 	H 	0.87015	0.14835	0.7793	0.061
Mof_H 	H 	0.8581	0.2268	0.865	0.071
Mof_H 	H 	0.8322	0.2159	0.7945	0.059
Mof_H 	H 	0.73305	0.11395	0.8986	0.048
Mof_H 	H 	0.84655	0.13035	0.8822	0.071
Mof_H 	H 	0.85055	0.07235	0.7793	0.057
Mof_H 	H 	0.7769	0.4082	0.865	0.071
Mof_H 	H 	0.8733	0.4896	0.7945	0.061
Mof_H 	H 	0.86835	0.48745	0.8986	0.051
Mof_H 	H 	0.77125	0.48745	0.8822	0.072
Mof_H 	H 	0.64835	0.37015	0.7793	0.066
Mof_H 	H 	0.7268	0.3581	0.865	0.07
Mof_H 	H 	0.7159	0.3322	0.7945	0.059
Mof_H 	H 	0.61395	0.23305	0.8986	0.052
Mof_H 	H 	0.63035	0.34655	0.8822	0.072
Mof_H 	H 	0.57235	0.35055	0.7793	0.065
Mof_H 	H 	0.9082	0.2769	0.865	0.069
Mof_H 	H 	0.9896	0.3733	0.7945	0.061
Mof_H 	H 	0.98745	0.36835	0.8986	0.054
Mof_H 	H 	0.98745	0.27125	0.8822	0.073
Mof_H 	H 	0.62985	0.35165	0.7207	0.066
Mof_H 	H 	0.6419	0.2732	0.635	0.067
Mof_H 	H 	0.6678	0.2841	0.7055	0.057
Mof_H 	H 	0.76695	0.38605	0.6014	0.048
Mof_H 	H 	0.65345	0.36965	0.6178	0.067
Mof_H 	H 	0.64945	0.42765	0.7207	0.064
Mof_H 	H 	0.7231	0.0918	0.635	0.069
Mof_H 	H 	0.6267	0.0104	0.7055	0.05
Mof_H 	H 	0.63165	0.01255	0.6014	0.044
Mof_H 	H 	0.72875	0.01255	0.6178	0.076
Mof_C 	C 	0.83605	0.10155	0.734	-0.09
Mof_C 	C 	0.80804	0.08366	0.724	0.116
Mof_C 	C 	0.79953	0.10703	0.69294	-0.112
Mof_C 	C 	0.77158	0.08924	0.68438	0.111
Mof_C 	C 	0.76225	0.11295	0.6524	-0.077
Mof_C 	C 	0.82319	0.15308	0.66633	0.047
Mof_C 	C 	0.80945	0.17915	0.6798	-0.039
Mof_C 	C 	0.83272	0.22122	0.65587	-0.099
Mof_C 	C 	0.87015	0.23825	0.6177	0.029
Mof_C 	C 	0.88458	0.21298	0.60315	-0.079
Mof_C 	C 	0.86053	0.17053	0.62754	-0.048
Mof_C 	C 	0.8175	0.2492	0.6708	0.409
Mof_C 	C 	0.92635	0.23115	0.5625	0.383
Mof_C 	C 	0.92995	0.16445	0.734	-0.095
Mof_C 	C 	0.96796	0.19234	0.724	0.139
Mof_C 	C 	0.50753	0.20003	0.69294	-0.111
Mof_C 	C 	0.54404	0.22638	0.68438	0.111
Mof_C 	C 	0.58535	0.23465	0.6524	-0.079
Mof_C 	C 	0.51049	0.18058	0.66633	0.044
Mof_C 	C 	0.51075	0.14105	0.6798	-0.037
Mof_C 	C 	0.51142	0.12292	0.65587	-0.101
Mof_C 	C 	0.51215	0.14405	0.6177	0.031
Mof_C 	C 	0.51228	0.18388	0.60315	-0.084
Mof_C 	C 	0.51193	0.20193	0.62754	-0.046
Mof_C 	C 	0.5117	0.08	0.6708	0.407
Mof_C 	C 	0.51115	0.20635	0.5625	0.385
Mof_C 	C 	0.89845	0.16395	0.766	-0.074
Mof_C 	C 	0.91634	0.19196	0.776	0.111
Mof_C 	C 	0.89297	0.20047	0.80706	-0.109
Mof_C 	C 	0.91076	0.22842	0.81562	0.114
Mof_C 	C 	0.88705	0.23775	0.8476	-0.079
Mof_C 	C 	0.84692	0.17681	0.83367	0.046
Mof_C 	C 	0.82085	0.19055	0.8202	-0.039
Mof_C 	C 	0.77879	0.16729	0.84413	-0.099
Mof_C 	C 	0.76175	0.12985	0.8823	0.027
Mof_C 	C 	0.78703	0.11543	0.89685	-0.079
Mof_C 	C 	0.82947	0.13947	0.87246	-0.049
Mof_C 	C 	0.7508	0.1825	0.8292	0.407
Mof_C 	C 	0.76885	0.07365	0.9375	0.379
Mof_C 	C 	0.83555	0.07005	0.766	-0.069
Mof_C 	C 	0.80766	0.03204	0.776	0.088
Mof_C 	C 	0.79997	0.49247	0.80706	-0.111
Mof_C 	C 	0.77362	0.45596	0.81562	0.114
Mof_C 	C 	0.76535	0.41465	0.8476	-0.078
Mof_C 	C 	0.81942	0.48952	0.83367	0.049
Mof_C 	C 	0.85895	0.48925	0.8202	-0.042
Mof_C 	C 	0.87709	0.48859	0.84413	-0.095
Mof_C 	C 	0.85595	0.48785	0.8823	0.025
Mof_C 	C 	0.81613	0.48773	0.89685	-0.075
Mof_C 	C 	0.79807	0.48807	0.87246	-0.052
Mof_C 	C 	0.92	0.4883	0.8292	0.405
Mof_C 	C 	0.79365	0.48885	0.9375	0.377
Mof_C 	C 	0.66395	0.39845	0.766	-0.083
Mof_C 	C 	0.69196	0.41634	0.776	0.115
Mof_C 	C 	0.70047	0.39297	0.80706	-0.112
Mof_C 	C 	0.72842	0.41076	0.81562	0.114
Mof_C 	C 	0.73775	0.38705	0.8476	-0.078
Mof_C 	C 	0.67682	0.34692	0.83367	0.049
Mof_C 	C 	0.69055	0.32085	0.8202	-0.041
Mof_C 	C 	0.66729	0.27879	0.84413	-0.095
Mof_C 	C 	0.62985	0.26175	0.8823	0.026
Mof_C 	C 	0.61543	0.28703	0.89685	-0.075
Mof_C 	C 	0.63947	0.32947	0.87246	-0.051
Mof_C 	C 	0.6825	0.2508	0.8292	0.407
Mof_C 	C 	0.57365	0.26885	0.9375	0.378
Mof_C 	C 	0.57005	0.33555	0.766	-0.082
Mof_C 	C 	0.53204	0.30766	0.776	0.114
Mof_C 	C 	0.99247	0.29997	0.80706	-0.087
Mof_C 	C 	0.95596	0.27362	0.81562	0.107
Mof_C 	C 	0.91465	0.26535	0.8476	-0.073
Mof_C 	C 	0.98952	0.31942	0.83367	0.044
Mof_C 	C 	0.98925	0.35895	0.8202	-0.036
Mof_C 	C 	0.98859	0.37708	0.84413	-0.093
Mof_C 	C 	0.98785	0.35595	0.8823	0.027
Mof_C 	C 	0.98773	0.31613	0.89685	-0.074
Mof_C 	C 	0.98807	0.29807	0.87246	-0.046
Mof_C 	C 	0.9883	0.42	0.8292	0.407
Mof_C 	C 	0.98885	0.29365	0.9375	0.378
Mof_C 	C 	0.60155	0.33605	0.734	-0.082
Mof_C 	C 	0.58366	0.30804	0.724	0.113
Mof_C 	C 	0.60703	0.29953	0.69294	-0.111
Mof_C 	C 	0.58924	0.27158	0.68438	0.112
Mof_C 	C 	0.61295	0.26225	0.6524	-0.079
Mof_C 	C 	0.65309	0.32319	0.66633	0.044
Mof_C 	C 	0.67915	0.30945	0.6798	-0.038
Mof_C 	C 	0.72122	0.33271	0.65587	-0.1
Mof_C 	C 	0.73825	0.37015	0.6177	0.031
Mof_C 	C 	0.71298	0.38458	0.60315	-0.083
Mof_C 	C 	0.67053	0.36053	0.62754	-0.046
Mof_C 	C 	0.7492	0.3175	0.6708	0.409
Mof_C 	C 	0.73115	0.42635	0.5625	0.384
Mof_C 	C 	0.66445	0.42995	0.734	-0.081
Mof_C 	C 	0.69234	0.46796	0.724	0.114
Mof_C 	C 	0.70003	0.00753	0.69294	-0.135
Mof_C 	C 	0.72638	0.04404	0.68438	0.118
Mof_C 	C 	0.73465	0.08535	0.6524	-0.084
Mof_C 	C 	0.68059	0.01049	0.66633	0.05
Mof_C 	C 	0.64105	0.01075	0.6798	-0.044
Mof_C 	C 	0.62292	0.01141	0.65587	-0.102
Mof_C 	C 	0.64405	0.01215	0.6177	0.027
Mof_C 	C 	0.68388	0.01227	0.60315	-0.084
Mof_C 	C 	0.70193	0.01193	0.62754	-0.053
Mof_C 	C 	0.58	0.0117	0.6708	0.406
Mof_C 	C 	0.70635	0.01115	0.5625	0.384
Mof_N 	N 	0.74918	0.04738	0.70344	-0.224
Mof_N 	N 	0.54738	0.24918	0.70344	-0.223
Mof_N 	N 	0.95262	0.25082	0.79656	-0.215
Mof_N 	N 	0.75082	0.45262	0.79656	-0.223
Mof_N 	N 	0.7912	0.0412	0.75	-0.221
Mof_N 	N 	0.9588	0.2088	0.75	-0.22
Mof_N 	N 	0.7088	0.4588	0.75	-0.224
Mof_N 	N 	0.5412	0.2912	0.75	-0.224
Mof_Cl	Cl	0.5415	0.35295	0.5	-0.412
Mof_Cl	Cl	0.9585	0.14705	0.5	-0.382
Mof_Cl	Cl	0.64705	0.4585	0.5	-0.412
Mof_Cl	Cl	0.85295	0.0415	0.5	-0.389
Mof_Cl	Cl	0.50158	0.19219	0.80623	-0.386
Mof_Cl	Cl	0.99842	0.30782	0.69377	-0.368
Mof_Cl	Cl	0.80782	0.49842	0.69377	-0.383
Mof_O 	O 	0.78492	0.2325	0.70629	-0.407
Mof_O 	O 	0.83965	0.28705	0.647	-0.408
Mof_O 	O 	0.95033	0.26733	0.54715	-0.369
Mof_O 	O 	0.93381	0.2078	0.54809	-0.384
Mof_O 	O 	0.50879	0.06121	0.70629	-0.405
Mof_O 	O 	0.51335	0.06595	0.647	-0.408
Mof_O 	O 	0.50253	0.18553	0.54715	-0.379
Mof_O 	O 	0.5181	0.24411	0.54809	-0.389
Mof_O 	O 	0.76751	0.21509	0.79371	-0.405
Mof_O 	O 	0.71295	0.16035	0.853	-0.41
Mof_O 	O 	0.73268	0.04967	0.95285	-0.372
Mof_O 	O 	0.7922	0.06619	0.95191	-0.372
Mof_O 	O 	0.93879	0.49121	0.79371	-0.395
Mof_O 	O 	0.93405	0.48665	0.853	-0.408
Mof_O 	O 	0.81448	0.49748	0.95285	-0.362
Mof_O 	O 	0.75589	0.4819	0.95191	-0.37
Mof_O 	O 	0.71509	0.26751	0.79371	-0.403
Mof_O 	O 	0.66035	0.21295	0.853	-0.406
Mof_O 	O 	0.54968	0.23267	0.95285	-0.36
Mof_O 	O 	0.56619	0.2922	0.95191	-0.37
Mof_O 	O 	0.99121	0.43879	0.79371	-0.394
Mof_O 	O 	0.98665	0.43405	0.853	-0.403
Mof_O 	O 	0.99748	0.31447	0.95285	-0.35
Mof_O 	O 	0.9819	0.25589	0.95191	-0.368
Mof_O 	O 	0.7325	0.28492	0.70629	-0.405
Mof_O 	O 	0.78705	0.33965	0.647	-0.409
Mof_O 	O 	0.76733	0.45033	0.54715	-0.378
Mof_O 	O 	0.7078	0.43381	0.54809	-0.389
Mof_O 	O 	0.56122	0.0088	0.70629	-0.409
Mof_O 	O 	0.56595	0.01335	0.647	-0.412
Mof_O 	O 	0.68553	0.00252	0.54715	-0.391
Mof_O 	O 	0.74411	0.0181	0.54809	-0.388
Mof_Mn	Mn	0.25	0.5	0.75	0.846
Mof_Mn	Mn	-0	0.75	0.75	0.822
Mof_Mn	Mn	0.25	0.75	0.75	0.83
Mof_Mn	Mn	-0	0.5	0.75	0.809
Mof_Mn	Mn	0.3417	0.8417	0.64617	0.664
Mof_Mn	Mn	0.01213	0.51213	0.64617	0.663
Mof_Mn	Mn	0.1583	0.6583	0.85383	0.665
Mof_Mn	Mn	0.48787	0.98787	0.85383	0.682
Mof_Mn	Mn	0.01458	0.79276	0.5	0.977
Mof_Mn	Mn	0.48542	0.70725	0.5	0.992
Mof_Mn	Mn	0.20725	0.98542	0.5	1.019
Mof_Mn	Mn	0.29276	0.51458	0.5	0.993
Mof_H 	H 	0.35165	0.62985	0.7207	0.064
Mof_H 	H 	0.2732	0.6419	0.635	0.067
Mof_H 	H 	0.2841	0.6678	0.7055	0.056
Mof_H 	H 	0.38605	0.76695	0.6014	0.045
Mof_H 	H 	0.36965	0.65345	0.6178	0.067
Mof_H 	H 	0.42765	0.64945	0.7207	0.064
Mof_H 	H 	0.0918	0.7231	0.635	0.069
Mof_H 	H 	0.0104	0.6267	0.7055	0.05
Mof_H 	H 	0.01255	0.63165	0.6014	0.047
Mof_H 	H 	0.01255	0.72875	0.6178	0.076
Mof_H 	H 	0.37015	0.64835	0.7793	0.067
Mof_H 	H 	0.3581	0.7268	0.865	0.07
Mof_H 	H 	0.3322	0.7159	0.7945	0.052
Mof_H 	H 	0.23305	0.61395	0.8986	0.053
Mof_H 	H 	0.34655	0.63035	0.8822	0.081
Mof_H 	H 	0.35055	0.57235	0.7793	0.067
Mof_H 	H 	0.2769	0.9082	0.865	0.068
Mof_H 	H 	0.3733	0.9896	0.7945	0.06
Mof_H 	H 	0.36835	0.98745	0.8986	0.054
Mof_H 	H 	0.27125	0.98745	0.8822	0.072
Mof_H 	H 	0.14835	0.87015	0.7793	0.061
Mof_H 	H 	0.2268	0.8581	0.865	0.07
Mof_H 	H 	0.2159	0.8322	0.7945	0.058
Mof_H 	H 	0.11395	0.73305	0.8986	0.048
Mof_H 	H 	0.13035	0.84655	0.8822	0.07
Mof_H 	H 	0.07235	0.85055	0.7793	0.057
Mof_H 	H 	0.4082	0.7769	0.865	0.07
Mof_H 	H 	0.4896	0.8733	0.7945	0.054
Mof_H 	H 	0.48745	0.86835	0.8986	0.051
Mof_H 	H 	0.48745	0.77125	0.8822	0.081
Mof_H 	H 	0.12985	0.85165	0.7207	0.069
Mof_H 	H 	0.1419	0.7732	0.635	0.067
Mof_H 	H 	0.1678	0.7841	0.7055	0.051
Mof_H 	H 	0.26695	0.88605	0.6014	0.05
Mof_H 	H 	0.15345	0.86965	0.6178	0.078
Mof_H 	H 	0.14945	0.92765	0.7207	0.074
Mof_H 	H 	0.2231	0.5918	0.635	0.067
Mof_H 	H 	0.1267	0.5104	0.7055	0.055
Mof_H 	H 	0.13165	0.51255	0.6014	0.047
Mof_H 	H 	0.22875	0.51255	0.6178	0.067
Mof_C 	C 	0.33605	0.60155	0.734	-0.081
Mof_C 	C 	0.30804	0.58366	0.724	0.112
Mof_C 	C 	0.29953	0.60703	0.69294	-0.11
Mof_C 	C 	0.27158	0.58924	0.68438	0.111
Mof_C 	C 	0.26225	0.61295	0.6524	-0.079
Mof_C 	C 	0.32319	0.65309	0.66633	0.043
Mof_C 	C 	0.30945	0.67915	0.6798	-0.037
Mof_C 	C 	0.33272	0.72122	0.65587	-0.103
Mof_C 	C 	0.37015	0.73825	0.6177	0.031
Mof_C 	C 	0.38458	0.71298	0.60315	-0.086
Mof_C 	C 	0.36053	0.67053	0.62754	-0.046
Mof_C 	C 	0.3175	0.7492	0.6708	0.408
Mof_C 	C 	0.42635	0.73115	0.5625	0.385
Mof_C 	C 	0.42995	0.66445	0.734	-0.08
Mof_C 	C 	0.46796	0.69234	0.724	0.113
Mof_C 	C 	0.00753	0.70003	0.69294	-0.134
Mof_C 	C 	0.04404	0.72638	0.68438	0.118
Mof_C 	C 	0.08535	0.73465	0.6524	-0.083
Mof_C 	C 	0.01048	0.68059	0.66633	0.051
Mof_C 	C 	0.01075	0.64105	0.6798	-0.045
Mof_C 	C 	0.01141	0.62292	0.65587	-0.1
Mof_C 	C 	0.01215	0.64405	0.6177	0.027
Mof_C 	C 	0.01227	0.68388	0.60315	-0.082
Mof_C 	C 	0.01193	0.70193	0.62754	-0.053
Mof_C 	C 	0.0117	0.58	0.6708	0.407
Mof_C 	C 	0.01115	0.70635	0.5625	0.384
Mof_C 	C 	0.39845	0.66395	0.766	-0.084
Mof_C 	C 	0.41634	0.69196	0.776	0.116
Mof_C 	C 	0.39297	0.70047	0.80706	-0.112
Mof_C 	C 	0.41076	0.72842	0.81562	0.114
Mof_C 	C 	0.38705	0.73775	0.8476	-0.078
Mof_C 	C 	0.34692	0.67681	0.83367	0.05
Mof_C 	C 	0.32085	0.69055	0.8202	-0.042
Mof_C 	C 	0.27879	0.66729	0.84413	-0.096
Mof_C 	C 	0.26175	0.62985	0.8823	0.025
Mof_C 	C 	0.28703	0.61543	0.89685	-0.073
Mof_C 	C 	0.32947	0.63947	0.87246	-0.052
Mof_C 	C 	0.2508	0.6825	0.8292	0.407
Mof_C 	C 	0.26885	0.57365	0.9375	0.377
Mof_C 	C 	0.33555	0.57005	0.766	-0.084
Mof_C 	C 	0.30766	0.53204	0.776	0.115
Mof_C 	C 	0.29997	0.99247	0.80706	-0.086
Mof_C 	C 	0.27362	0.95596	0.81562	0.107
Mof_C 	C 	0.26535	0.91465	0.8476	-0.074
Mof_C 	C 	0.31942	0.98952	0.83367	0.043
Mof_C 	C 	0.35895	0.98925	0.8202	-0.036
Mof_C 	C 	0.37709	0.98859	0.84413	-0.094
Mof_C 	C 	0.35595	0.98785	0.8823	0.028
Mof_C 	C 	0.31612	0.98773	0.89685	-0.074
Mof_C 	C 	0.29807	0.98807	0.87246	-0.045
Mof_C 	C 	0.42	0.9883	0.8292	0.407
Mof_C 	C 	0.29365	0.98885	0.9375	0.378
Mof_C 	C 	0.16395	0.89845	0.766	-0.074
Mof_C 	C 	0.19196	0.91634	0.776	0.111
Mof_C 	C 	0.20047	0.89297	0.80706	-0.109
Mof_C 	C 	0.22842	0.91076	0.81562	0.114
Mof_C 	C 	0.23775	0.88705	0.8476	-0.08
Mof_C 	C 	0.17682	0.84692	0.83367	0.046
Mof_C 	C 	0.19055	0.82085	0.8202	-0.039
Mof_C 	C 	0.16729	0.77879	0.84413	-0.099
Mof_C 	C 	0.12985	0.76175	0.8823	0.027
Mof_C 	C 	0.11543	0.78703	0.89685	-0.08
Mof_C 	C 	0.13947	0.82947	0.87246	-0.049
Mof_C 	C 	0.1825	0.7508	0.8292	0.407
Mof_C 	C 	0.07365	0.76885	0.9375	0.378
Mof_C 	C 	0.07005	0.83555	0.766	-0.069
Mof_C 	C 	0.03204	0.80766	0.776	0.089
Mof_C 	C 	0.49247	0.79997	0.80706	-0.112
Mof_C 	C 	0.45596	0.77362	0.81562	0.114
Mof_C 	C 	0.41465	0.76535	0.8476	-0.078
Mof_C 	C 	0.48952	0.81942	0.83367	0.051
Mof_C 	C 	0.48925	0.85895	0.8202	-0.043
Mof_C 	C 	0.48859	0.87708	0.84413	-0.095
Mof_C 	C 	0.48785	0.85595	0.8823	0.024
Mof_C 	C 	0.48773	0.81613	0.89685	-0.073
Mof_C 	C 	0.48807	0.79807	0.87246	-0.053
Mof_C 	C 	0.4883	0.92	0.8292	0.405
Mof_C 	C 	0.48885	0.79365	0.9375	0.377
Mof_C 	C 	0.10155	0.83605	0.734	-0.09
Mof_C 	C 	0.08366	0.80804	0.724	0.116
Mof_C 	C 	0.10703	0.79953	0.69294	-0.112
Mof_C 	C 	0.08924	0.77158	0.68438	0.111
Mof_C 	C 	0.11295	0.76225	0.6524	-0.077
Mof_C 	C 	0.15309	0.82319	0.66633	0.047
Mof_C 	C 	0.17915	0.80945	0.6798	-0.04
Mof_C 	C 	0.22122	0.83272	0.65587	-0.099
Mof_C 	C 	0.23825	0.87015	0.6177	0.029
Mof_C 	C 	0.21298	0.88458	0.60315	-0.079
Mof_C 	C 	0.17053	0.86053	0.62754	-0.049
Mof_C 	C 	0.2492	0.8175	0.6708	0.408
Mof_C 	C 	0.23115	0.92635	0.5625	0.383
Mof_C 	C 	0.16445	0.92995	0.734	-0.095
Mof_C 	C 	0.19234	0.96796	0.724	0.14
Mof_C 	C 	0.20003	0.50753	0.69294	-0.111
Mof_C 	C 	0.22638	0.54404	0.68438	0.112
Mof_C 	C 	0.23465	0.58535	0.6524	-0.079
Mof_C 	C 	0.18059	0.51049	0.66633	0.044
Mof_C 	C 	0.14105	0.51075	0.6798	-0.037
Mof_C 	C 	0.12292	0.51141	0.65587	-0.101
Mof_C 	C 	0.14405	0.51215	0.6177	0.031
Mof_C 	C 	0.18388	0.51227	0.60315	-0.084
Mof_C 	C 	0.20193	0.51193	0.62754	-0.046
Mof_C 	C 	0.08	0.5117	0.6708	0.408
Mof_C 	C 	0.20635	0.51115	0.5625	0.385
Mof_N 	N 	0.24918	0.54738	0.70344	-0.223
Mof_N 	N 	0.04738	0.74918	0.70344	-0.224
Mof_N 	N 	0.45262	0.75082	0.79656	-0.223
Mof_N 	N 	0.25082	0.95262	0.79656	-0.215
Mof_N 	N 	0.2912	0.5412	0.75	-0.224
Mof_N 	N 	0.4588	0.7088	0.75	-0.224
Mof_N 	N 	0.2088	0.9588	0.75	-0.22
Mof_N 	N 	0.0412	0.7912	0.75	-0.221
Mof_Cl	Cl	0.0415	0.85295	0.5	-0.388
Mof_Cl	Cl	0.4585	0.64705	0.5	-0.412
Mof_Cl	Cl	0.14705	0.9585	0.5	-0.381
Mof_Cl	Cl	0.35295	0.5415	0.5	-0.412
Mof_Cl	Cl	0.19219	0.50158	0.80623	-0.386
Mof_Cl	Cl	0.30782	0.99842	0.69377	-0.369
Mof_O 	O 	0.28492	0.7325	0.70629	-0.406
Mof_O 	O 	0.33965	0.78705	0.647	-0.412
Mof_O 	O 	0.45033	0.76733	0.54715	-0.381
Mof_O 	O 	0.43381	0.7078	0.54809	-0.389
Mof_O 	O 	0.00879	0.56122	0.70629	-0.408
Mof_O 	O 	0.01335	0.56595	0.647	-0.41
Mof_O 	O 	0.00252	0.68553	0.54715	-0.387
Mof_O 	O 	0.0181	0.74411	0.54809	-0.388
Mof_O 	O 	0.26751	0.71509	0.79371	-0.406
Mof_O 	O 	0.21295	0.66035	0.853	-0.406
Mof_O 	O 	0.23268	0.54967	0.95285	-0.36
Mof_O 	O 	0.2922	0.56619	0.95191	-0.367
Mof_O 	O 	0.43879	0.99121	0.79371	-0.394
Mof_O 	O 	0.43405	0.98665	0.853	-0.403
Mof_O 	O 	0.31448	0.99748	0.95285	-0.35
Mof_O 	O 	0.25589	0.9819	0.95191	-0.368
Mof_O 	O 	0.21509	0.76751	0.79371	-0.405
Mof_O 	O 	0.16035	0.71295	0.853	-0.41
Mof_O 	O 	0.04968	0.73267	0.95285	-0.371
Mof_O 	O 	0.06619	0.7922	0.95191	-0.372
Mof_O 	O 	0.49121	0.93879	0.79371	-0.397
Mof_O 	O 	0.48665	0.93405	0.853	-0.408
Mof_O 	O 	0.49748	0.81448	0.95285	-0.361
Mof_O 	O 	0.4819	0.75589	0.95191	-0.367
Mof_O 	O 	0.2325	0.78492	0.70629	-0.407
Mof_O 	O 	0.28705	0.83965	0.647	-0.408
Mof_O 	O 	0.26733	0.95033	0.54715	-0.369
Mof_O 	O 	0.2078	0.93381	0.54809	-0.384
Mof_O 	O 	0.06122	0.5088	0.70629	-0.406
Mof_O 	O 	0.06595	0.51335	0.647	-0.409
Mof_O 	O 	0.18553	0.50253	0.54715	-0.379
Mof_O 	O 	0.24411	0.5181	0.54809	-0.389
Mof_Mn	Mn	0.75	0.5	0.75	0.849
Mof_Mn	Mn	0.5	0.75	0.75	0.848
Mof_Mn	Mn	0.75	0.75	0.75	0.832
Mof_Mn	Mn	0.5	0.5	0.75	0.827
Mof_Mn	Mn	0.8417	0.8417	0.64617	0.682
Mof_Mn	Mn	0.51213	0.51213	0.64617	0.646
Mof_Mn	Mn	0.6583	0.6583	0.85383	0.67
Mof_Mn	Mn	0.98787	0.98787	0.85383	0.68
Mof_Mn	Mn	0.51459	0.79276	0.5	0.995
Mof_Mn	Mn	0.98542	0.70725	0.5	1.018
Mof_Mn	Mn	0.70725	0.98542	0.5	1.017
Mof_Mn	Mn	0.79276	0.51458	0.5	0.998
Mof_H 	H 	0.85165	0.62985	0.7207	0.067
Mof_H 	H 	0.7732	0.6419	0.635	0.068
Mof_H 	H 	0.7841	0.6678	0.7055	0.052
Mof_H 	H 	0.88605	0.76695	0.6014	0.051
Mof_H 	H 	0.86965	0.65345	0.6178	0.079
Mof_H 	H 	0.92765	0.64945	0.7207	0.075
Mof_H 	H 	0.5918	0.7231	0.635	0.067
Mof_H 	H 	0.5104	0.6267	0.7055	0.057
Mof_H 	H 	0.51255	0.63165	0.6014	0.044
Mof_H 	H 	0.51255	0.72875	0.6178	0.067
Mof_H 	H 	0.87015	0.64835	0.7793	0.062
Mof_H 	H 	0.8581	0.7268	0.865	0.071
Mof_H 	H 	0.8322	0.7159	0.7945	0.059
Mof_H 	H 	0.73305	0.61395	0.8986	0.05
Mof_H 	H 	0.84655	0.63035	0.8822	0.072
Mof_H 	H 	0.85055	0.57235	0.7793	0.065
Mof_H 	H 	0.7769	0.9082	0.865	0.069
Mof_H 	H 	0.8733	0.9896	0.7945	0.063
Mof_H 	H 	0.86835	0.98745	0.8986	0.053
Mof_H 	H 	0.77125	0.98745	0.8822	0.073
Mof_H 	H 	0.64835	0.87015	0.7793	0.064
Mof_H 	H 	0.7268	0.8581	0.865	0.071
Mof_H 	H 	0.7159	0.8322	0.7945	0.06
Mof_H 	H 	0.61395	0.73305	0.8986	0.053
Mof_H 	H 	0.63035	0.84655	0.8822	0.073
Mof_H 	H 	0.57235	0.85055	0.7793	0.066
Mof_H 	H 	0.9082	0.7769	0.865	0.069
Mof_H 	H 	0.9896	0.8733	0.7945	0.063
Mof_H 	H 	0.98745	0.86835	0.8986	0.052
Mof_H 	H 	0.98745	0.77125	0.8822	0.073
Mof_H 	H 	0.62985	0.85165	0.7207	0.067
Mof_H 	H 	0.6419	0.7732	0.635	0.067
Mof_H 	H 	0.6678	0.7841	0.7055	0.058
Mof_H 	H 	0.76695	0.88605	0.6014	0.05
Mof_H 	H 	0.65345	0.86965	0.6178	0.069
Mof_H 	H 	0.64945	0.92765	0.7207	0.073
Mof_H 	H 	0.7231	0.5918	0.635	0.067
Mof_H 	H 	0.6267	0.5104	0.7055	0.051
Mof_H 	H 	0.63165	0.51255	0.6014	0.045
Mof_H 	H 	0.72875	0.51255	0.6178	0.077
Mof_C 	C 	0.83605	0.60155	0.734	-0.083
Mof_C 	C 	0.80804	0.58366	0.724	0.116
Mof_C 	C 	0.79953	0.60703	0.69294	-0.112
Mof_C 	C 	0.77158	0.58924	0.68438	0.113
Mof_C 	C 	0.76225	0.61295	0.6524	-0.079
Mof_C 	C 	0.82319	0.65308	0.66633	0.048
Mof_C 	C 	0.80945	0.67915	0.6798	-0.04
Mof_C 	C 	0.83272	0.72122	0.65587	-0.098
Mof_C 	C 	0.87015	0.73825	0.6177	0.028
Mof_C 	C 	0.88458	0.71298	0.60315	-0.078
Mof_C 	C 	0.86053	0.67053	0.62754	-0.049
Mof_C 	C 	0.8175	0.7492	0.6708	0.409
Mof_C 	C 	0.92635	0.73115	0.5625	0.383
Mof_C 	C 	0.92995	0.66445	0.734	-0.094
Mof_C 	C 	0.96796	0.69234	0.724	0.14
Mof_C 	C 	0.50753	0.70003	0.69294	-0.11
Mof_C 	C 	0.54404	0.72638	0.68438	0.112
Mof_C 	C 	0.58535	0.73465	0.6524	-0.079
Mof_C 	C 	0.51049	0.68059	0.66633	0.043
Mof_C 	C 	0.51075	0.64105	0.6798	-0.037
Mof_C 	C 	0.51142	0.62292	0.65587	-0.103
Mof_C 	C 	0.51215	0.64405	0.6177	0.031
Mof_C 	C 	0.51228	0.68388	0.60315	-0.086
Mof_C 	C 	0.51193	0.70193	0.62754	-0.046
Mof_C 	C 	0.5117	0.58	0.6708	0.407
Mof_C 	C 	0.51115	0.70635	0.5625	0.385
Mof_C 	C 	0.89845	0.66395	0.766	-0.074
Mof_C 	C 	0.91634	0.69196	0.776	0.112
Mof_C 	C 	0.89297	0.70047	0.80706	-0.109
Mof_C 	C 	0.91076	0.72842	0.81562	0.115
Mof_C 	C 	0.88705	0.73775	0.8476	-0.079
Mof_C 	C 	0.84692	0.67681	0.83367	0.048
Mof_C 	C 	0.82085	0.69055	0.8202	-0.04
Mof_C 	C 	0.77879	0.66729	0.84413	-0.097
Mof_C 	C 	0.76175	0.62985	0.8823	0.026
Mof_C 	C 	0.78703	0.61543	0.89685	-0.077
Mof_C 	C 	0.82947	0.63947	0.87246	-0.05
Mof_C 	C 	0.7508	0.6825	0.8292	0.407
Mof_C 	C 	0.76885	0.57365	0.9375	0.378
Mof_C 	C 	0.83555	0.57005	0.766	-0.081
Mof_C 	C 	0.80766	0.53204	0.776	0.114
Mof_C 	C 	0.79997	0.99247	0.80706	-0.086
Mof_C 	C 	0.77362	0.95596	0.81562	0.108
Mof_C 	C 	0.76535	0.91465	0.8476	-0.073
Mof_C 	C 	0.81942	0.98952	0.83367	0.044
Mof_C 	C 	0.85895	0.98925	0.8202	-0.037
Mof_C 	C 	0.87709	0.98859	0.84413	-0.093
Mof_C 	C 	0.85595	0.98785	0.8823	0.026
Mof_C 	C 	0.81613	0.98773	0.89685	-0.074
Mof_C 	C 	0.79807	0.98807	0.87246	-0.046
Mof_C 	C 	0.92	0.9883	0.8292	0.404
Mof_C 	C 	0.79365	0.98885	0.9375	0.378
Mof_C 	C 	0.66395	0.89845	0.766	-0.075
Mof_C 	C 	0.69196	0.91634	0.776	0.113
Mof_C 	C 	0.70047	0.89297	0.80706	-0.109
Mof_C 	C 	0.72842	0.91076	0.81562	0.115
Mof_C 	C 	0.73775	0.88705	0.8476	-0.079
Mof_C 	C 	0.67682	0.84692	0.83367	0.049
Mof_C 	C 	0.69055	0.82085	0.8202	-0.041
Mof_C 	C 	0.66729	0.77879	0.84413	-0.095
Mof_C 	C 	0.62985	0.76175	0.8823	0.026
Mof_C 	C 	0.61543	0.78703	0.89685	-0.074
Mof_C 	C 	0.63947	0.82947	0.87246	-0.051
Mof_C 	C 	0.6825	0.7508	0.8292	0.407
Mof_C 	C 	0.57365	0.76885	0.9375	0.378
Mof_C 	C 	0.57005	0.83555	0.766	-0.081
Mof_C 	C 	0.53204	0.80766	0.776	0.116
Mof_C 	C 	0.99247	0.79997	0.80706	-0.087
Mof_C 	C 	0.95596	0.77362	0.81562	0.108
Mof_C 	C 	0.91465	0.76535	0.8476	-0.073
Mof_C 	C 	0.98952	0.81942	0.83367	0.045
Mof_C 	C 	0.98925	0.85895	0.8202	-0.038
Mof_C 	C 	0.98859	0.87708	0.84413	-0.093
Mof_C 	C 	0.98785	0.85595	0.8823	0.026
Mof_C 	C 	0.98773	0.81613	0.89685	-0.075
Mof_C 	C 	0.98807	0.79807	0.87246	-0.047
Mof_C 	C 	0.9883	0.92	0.8292	0.404
Mof_C 	C 	0.98885	0.79365	0.9375	0.378
Mof_C 	C 	0.60155	0.83605	0.734	-0.082
Mof_C 	C 	0.58366	0.80804	0.724	0.114
Mof_C 	C 	0.60703	0.79953	0.69294	-0.111
Mof_C 	C 	0.58924	0.77158	0.68438	0.112
Mof_C 	C 	0.61295	0.76225	0.6524	-0.079
Mof_C 	C 	0.65309	0.82319	0.66633	0.046
Mof_C 	C 	0.67915	0.80945	0.6798	-0.039
Mof_C 	C 	0.72122	0.83272	0.65587	-0.098
Mof_C 	C 	0.73825	0.87015	0.6177	0.029
Mof_C 	C 	0.71298	0.88458	0.60315	-0.08
Mof_C 	C 	0.67053	0.86053	0.62754	-0.048
Mof_C 	C 	0.7492	0.8175	0.6708	0.409
Mof_C 	C 	0.73115	0.92635	0.5625	0.384
Mof_C 	C 	0.66445	0.92995	0.734	-0.093
Mof_C 	C 	0.69234	0.96796	0.724	0.14
Mof_C 	C 	0.70003	0.50753	0.69294	-0.111
Mof_C 	C 	0.72638	0.54404	0.68438	0.112
Mof_C 	C 	0.73465	0.58535	0.6524	-0.079
Mof_C 	C 	0.68059	0.51049	0.66633	0.045
Mof_C 	C 	0.64105	0.51075	0.6798	-0.039
Mof_C 	C 	0.62292	0.51141	0.65587	-0.102
Mof_C 	C 	0.64405	0.51215	0.6177	0.03
Mof_C 	C 	0.68388	0.51227	0.60315	-0.083
Mof_C 	C 	0.70193	0.51193	0.62754	-0.047
Mof_C 	C 	0.58	0.5117	0.6708	0.407
Mof_C 	C 	0.70635	0.51115	0.5625	0.385
Mof_N 	N 	0.74918	0.54738	0.70344	-0.223
Mof_N 	N 	0.54738	0.74918	0.70344	-0.223
Mof_N 	N 	0.95262	0.75082	0.79656	-0.215
Mof_N 	N 	0.75082	0.95262	0.79656	-0.215
Mof_N 	N 	0.7912	0.5412	0.75	-0.224
Mof_N 	N 	0.9588	0.7088	0.75	-0.22
Mof_N 	N 	0.7088	0.9588	0.75	-0.22
Mof_N 	N 	0.5412	0.7912	0.75	-0.224
Mof_Cl	Cl	0.5415	0.85295	0.5	-0.396
Mof_Cl	Cl	0.9585	0.64705	0.5	-0.38
Mof_Cl	Cl	0.64705	0.9585	0.5	-0.392
Mof_Cl	Cl	0.85295	0.5415	0.5	-0.384
Mof_Cl	Cl	0.50158	0.69219	0.80623	-0.383
Mof_Cl	Cl	0.99842	0.80782	0.69377	-0.366
Mof_Cl	Cl	0.80782	0.99842	0.69377	-0.365
Mof_O 	O 	0.78492	0.7325	0.70629	-0.407
Mof_O 	O 	0.83965	0.78705	0.647	-0.408
Mof_O 	O 	0.95033	0.76733	0.54715	-0.369
Mof_O 	O 	0.93381	0.7078	0.54809	-0.384
Mof_O 	O 	0.50879	0.56122	0.70629	-0.405
Mof_O 	O 	0.51335	0.56595	0.647	-0.411
Mof_O 	O 	0.50253	0.68553	0.54715	-0.382
Mof_O 	O 	0.5181	0.74411	0.54809	-0.389
Mof_O 	O 	0.76751	0.71509	0.79371	-0.404
Mof_O 	O 	0.71295	0.66035	0.853	-0.409
Mof_O 	O 	0.73268	0.54967	0.95285	-0.362
Mof_O 	O 	0.7922	0.56619	0.95191	-0.37
Mof_O 	O 	0.93879	0.99121	0.79371	-0.385
Mof_O 	O 	0.93405	0.98665	0.853	-0.404
Mof_O 	O 	0.81448	0.99748	0.95285	-0.352
Mof_O 	O 	0.75589	0.9819	0.95191	-0.368
Mof_O 	O 	0.71509	0.76751	0.79371	-0.403
Mof_O 	O 	0.66035	0.71295	0.853	-0.406
Mof_O 	O 	0.54968	0.73268	0.95285	-0.359
Mof_O 	O 	0.56619	0.7922	0.95191	-0.37
Mof_O 	O 	0.99121	0.93879	0.79371	-0.385
Mof_O 	O 	0.98665	0.93405	0.853	-0.404
Mof_O 	O 	0.99748	0.81448	0.95285	-0.353
Mof_O 	O 	0.9819	0.75589	0.95191	-0.368
Mof_O 	O 	0.7325	0.78492	0.70629	-0.405
Mof_O 	O 	0.78705	0.83965	0.647	-0.408
Mof_O 	O 	0.76733	0.95033	0.54715	-0.369
Mof_O 	O 	0.7078	0.93381	0.54809	-0.387
Mof_O 	O 	0.56122	0.5088	0.70629	-0.407
Mof_O 	O 	0.56595	0.51335	0.647	-0.411
Mof_O 	O 	0.68553	0.50253	0.54715	-0.382
Mof_O 	O 	0.74411	0.5181	0.54809	-0.386
_end
