data_functionalizedCrystal
_audit_creation_method	'EQeq! by Chris Wilmer'
_symmetry_space_group_name_H-M	'P1'
_symmetry_Int_Tables_number	1
_symmetry_cell_setting	triclinic
loop_
_symmetry_equiv_pos_as_xyz
  x,y,z
_cell_length_a	32.407
_cell_length_b	9.575
_cell_length_c	12.193
_cell_angle_alpha	90
_cell_angle_beta	90
_cell_angle_gamma	90
loop_
_atom_site_label
_atom_site_type_symbol
_atom_site_fract_x
_atom_site_fract_y
_atom_site_fract_z
_atom_site_charge
Mof_Zn	Zn	0.3318	0.45653	0.39104	1.245
Mof_Zn	Zn	0.41776	0.7562	0.43638	1.241
Mof_O 	O 	0.163	0.7779	0.8162	-0.433
Mof_O 	O 	0.1416	0.2764	0.8956	-0.471
Mof_O 	O 	0.1723	0.1149	0.7895	-0.45
Mof_O 	O 	0.3883	0.446	0.4483	-0.488
Mof_C 	C 	0.2013	0.5987	0.7328	-0.106
Mof_O 	O 	0.2909	0.4961	0.5012	-0.438
Mof_O 	O 	0.5185	0.4459	0.8373	-0.29
Mof_O 	O 	0.4225	0.6053	0.5441	-0.462
Mof_C 	C 	0.1867	0.3532	0.7561	-0.127
Mof_C 	C 	0.2372	0.427	0.6236	-0.097
Mof_O 	O 	0.4233	0.9449	0.4935	-0.424
Mof_C 	C 	0.5222	0.3332	0.7889	0.357
Mof_C 	C 	0.4668	0.3979	0.6545	0.069
Mof_H 	H 	0.4682	0.4887	0.6812	0.045
Mof_C 	C 	0.2297	0.5644	0.6529	0.051
Mof_H 	H 	0.2442	0.6354	0.6179	0.053
Mof_O 	O 	0.4848	0.894	0.5604	-0.28
Mof_C 	C 	0.4877	0.1607	0.6622	0.053
Mof_H 	H 	0.5036	0.0904	0.6937	0.048
Mof_C 	C 	0.4569	0.9771	0.5415	0.343
Mof_C 	C 	0.2149	0.3227	0.6754	0.059
Mof_H 	H 	0.2191	0.2301	0.655	0.052
Mof_C 	C 	0.1797	0.4908	0.7812	0.066
Mof_H 	H 	0.1596	0.5123	0.833	0.043
Mof_C 	C 	0.2706	0.3916	0.5395	0.347
Mof_C 	C 	0.4153	0.4803	0.5151	0.424
Mof_C 	C 	0.1644	0.2401	0.8172	0.393
Mof_C 	C 	0.4394	0.3675	0.5703	-0.133
Mof_C 	C 	0.4357	0.231	0.5333	0.067
Mof_H 	H 	0.4169	0.2091	0.4783	0.047
Mof_O 	O 	0.2761	0.2707	0.5153	-0.284
Mof_C 	C 	0.4918	0.2963	0.6994	-0.107
Mof_O 	O 	0.55	0.2437	0.8045	-0.455
Mof_C 	C 	0.4602	0.1275	0.5785	-0.099
Mof_O 	O 	0.2229	0.8329	0.7504	-0.305
Mof_C 	C 	0.1956	0.7487	0.7679	0.365
Mof_Zn	Zn	0.6682	0.54347	0.89104	1.24
Mof_Zn	Zn	0.58224	0.2438	0.93638	1.236
Mof_O 	O 	0.837	0.2221	0.3162	-0.426
Mof_O 	O 	0.8584	0.7236	0.3956	-0.463
Mof_O 	O 	0.8277	0.8851	0.2895	-0.444
Mof_O 	O 	0.6117	0.554	0.9483	-0.533
Mof_C 	C 	0.7987	0.4013	0.2328	-0.096
Mof_O 	O 	0.7091	0.5039	0.0012	-0.417
Mof_O 	O 	0.4815	0.5541	0.3373	-0.278
Mof_O 	O 	0.5775	0.3947	0.0441	-0.459
Mof_C 	C 	0.8133	0.6468	0.2561	-0.118
Mof_C 	C 	0.7628	0.573	0.1236	-0.085
Mof_O 	O 	0.5767	0.0551	0.9935	-0.466
Mof_C 	C 	0.4778	0.6668	0.2889	0.368
Mof_C 	C 	0.5332	0.6021	0.1545	0.116
Mof_H 	H 	0.5318	0.5113	0.1812	0.035
Mof_C 	C 	0.7703	0.4356	0.1529	0.046
Mof_H 	H 	0.7558	0.3646	0.1179	0.061
Mof_O 	O 	0.5152	0.106	0.0604	-0.283
Mof_C 	C 	0.5123	0.8393	0.1622	0.099
Mof_H 	H 	0.4964	0.9096	0.1937	0.037
Mof_C 	C 	0.5431	0.0229	0.0415	0.411
Mof_C 	C 	0.7851	0.6773	0.1754	0.055
Mof_H 	H 	0.7809	0.7699	0.155	0.058
Mof_C 	C 	0.8203	0.5092	0.2812	0.063
Mof_H 	H 	0.8404	0.4877	0.333	0.048
Mof_C 	C 	0.7294	0.6084	0.0395	0.344
Mof_C 	C 	0.5847	0.5197	0.0151	0.495
Mof_C 	C 	0.8356	0.7599	0.3172	0.392
Mof_C 	C 	0.5606	0.6325	0.0703	-0.193
Mof_C 	C 	0.5643	0.769	0.0333	0.193
Mof_H 	H 	0.5831	0.7909	0.9783	-0.02
Mof_O 	O 	0.7239	0.7293	0.0153	-0.265
Mof_C 	C 	0.5082	0.7037	0.1994	-0.134
Mof_O 	O 	0.45	0.7563	0.3045	-0.451
Mof_C 	C 	0.5398	0.8725	0.0785	-0.159
Mof_O 	O 	0.7771	0.1671	0.2504	-0.293
Mof_C 	C 	0.8044	0.2513	0.2679	0.365
Mof_Zn	Zn	0.8318	0.04347	0.39104	1.245
Mof_Zn	Zn	0.91776	0.7438	0.43638	1.242
Mof_O 	O 	0.663	0.7221	0.8162	-0.432
Mof_O 	O 	0.6416	0.2236	0.8956	-0.472
Mof_O 	O 	0.6723	0.3851	0.7895	-0.452
Mof_O 	O 	0.8883	0.054	0.4483	-0.489
Mof_C 	C 	0.7013	0.9013	0.7328	-0.102
Mof_O 	O 	0.7909	0.0039	0.5012	-0.44
Mof_O 	O 	0.0185	0.0541	0.8373	-0.289
Mof_O 	O 	0.9225	0.8947	0.5441	-0.461
Mof_C 	C 	0.6867	0.1468	0.7561	-0.125
Mof_C 	C 	0.7372	0.073	0.6236	-0.099
Mof_O 	O 	0.9233	0.5551	0.4935	-0.423
Mof_C 	C 	0.0222	0.1668	0.7889	0.357
Mof_C 	C 	0.9668	0.1021	0.6545	0.069
Mof_H 	H 	0.9682	0.0113	0.6812	0.046
Mof_C 	C 	0.7297	0.9356	0.6529	0.053
Mof_H 	H 	0.7442	0.8646	0.6179	0.053
Mof_O 	O 	0.9848	0.606	0.5604	-0.28
Mof_C 	C 	0.9877	0.3393	0.6622	0.054
Mof_H 	H 	0.0036	0.4096	0.6937	0.048
Mof_C 	C 	0.9569	0.5229	0.5415	0.345
Mof_C 	C 	0.7149	0.1773	0.6754	0.059
Mof_H 	H 	0.7191	0.2699	0.655	0.052
Mof_C 	C 	0.6797	0.0092	0.7812	0.059
Mof_H 	H 	0.6596	0.9877	0.833	0.047
Mof_C 	C 	0.7706	0.1084	0.5395	0.348
Mof_C 	C 	0.9153	0.0197	0.5151	0.424
Mof_C 	C 	0.6644	0.2599	0.8172	0.392
Mof_C 	C 	0.9394	0.1325	0.5703	-0.133
Mof_C 	C 	0.9357	0.269	0.5333	0.068
Mof_H 	H 	0.9169	0.2909	0.4783	0.047
Mof_O 	O 	0.7761	0.2293	0.5153	-0.285
Mof_C 	C 	0.9918	0.2037	0.6994	-0.107
Mof_O 	O 	0.05	0.2563	0.8045	-0.455
Mof_C 	C 	0.9602	0.3725	0.5785	-0.101
Mof_O 	O 	0.7229	0.6671	0.7504	-0.303
Mof_C 	C 	0.6956	0.7513	0.7679	0.363
Mof_Zn	Zn	0.1682	0.95653	0.89104	1.239
Mof_Zn	Zn	0.08224	0.2562	0.93638	1.236
Mof_O 	O 	0.337	0.2779	0.3162	-0.425
Mof_O 	O 	0.3584	0.7764	0.3956	-0.463
Mof_O 	O 	0.3277	0.6149	0.2895	-0.444
Mof_O 	O 	0.1117	0.946	0.9483	-0.532
Mof_C 	C 	0.2987	0.0987	0.2328	-0.088
Mof_O 	O 	0.2091	0.9961	0.0012	-0.419
Mof_O 	O 	0.9815	0.9459	0.3373	-0.278
Mof_O 	O 	0.0775	0.1053	0.0441	-0.456
Mof_C 	C 	0.3133	0.8532	0.2561	-0.113
Mof_C 	C 	0.2628	0.927	0.1236	-0.088
Mof_O 	O 	0.0767	0.4449	0.9935	-0.466
Mof_C 	C 	0.9778	0.8332	0.2889	0.369
Mof_C 	C 	0.0332	0.8979	0.1545	0.115
Mof_H 	H 	0.0318	0.9887	0.1812	0.035
Mof_C 	C 	0.2703	0.0644	0.1529	0.048
Mof_H 	H 	0.2558	0.1354	0.1179	0.061
Mof_O 	O 	0.0152	0.394	0.0604	-0.283
Mof_C 	C 	0.0123	0.6607	0.1622	0.099
Mof_H 	H 	0.9964	0.5904	0.1937	0.038
Mof_C 	C 	0.0431	0.4771	0.0415	0.412
Mof_C 	C 	0.2851	0.8227	0.1754	0.053
Mof_H 	H 	0.2809	0.7301	0.155	0.059
Mof_C 	C 	0.3203	0.9908	0.2812	0.049
Mof_H 	H 	0.3404	0.0123	0.333	0.055
Mof_C 	C 	0.2294	0.8916	0.0395	0.344
Mof_C 	C 	0.0847	0.9803	0.0151	0.491
Mof_C 	C 	0.3356	0.7401	0.3172	0.39
Mof_C 	C 	0.0606	0.8675	0.0703	-0.192
Mof_C 	C 	0.0643	0.731	0.0333	0.192
Mof_H 	H 	0.0831	0.7091	0.9783	-0.02
Mof_O 	O 	0.2239	0.7707	0.0153	-0.266
Mof_C 	C 	0.0082	0.7963	0.1994	-0.134
Mof_O 	O 	0.95	0.7437	0.3045	-0.451
Mof_C 	C 	0.0398	0.6275	0.0785	-0.159
Mof_O 	O 	0.2771	0.3329	0.2504	-0.291
Mof_C 	C 	0.3044	0.2487	0.2679	0.362
_end
