data_functionalizedCrystal
_audit_creation_method	'EQeq! by Chris Wilmer'
_symmetry_space_group_name_H-M	'P1'
_symmetry_Int_Tables_number	1
_symmetry_cell_setting	triclinic
loop_
_symmetry_equiv_pos_as_xyz
  x,y,z
_cell_length_a	7.2104
_cell_length_b	13.637
_cell_length_c	17.379
_cell_angle_alpha	90
_cell_angle_beta	100.657
_cell_angle_gamma	90
loop_
_atom_site_label
_atom_site_type_symbol
_atom_site_fract_x
_atom_site_fract_y
_atom_site_fract_z
_atom_site_charge
Mof_In	In	0.46697	0.09877	0.44673	2.276
Mof_O 	O 	0.5741	0.1584	0.5619	-0.629
Mof_O 	O 	0.6809	0.0197	0.6258	-0.754
Mof_O 	O 	0.9862	0.12	0.5738	-0.529
Mof_O 	O 	0.2545	0.1113	0.6624	-0.27
Mof_O 	O 	0.2322	0.3063	0.9131	-0.647
Mof_O 	O 	0.9762	0.4048	0.9003	-0.544
Mof_O 	O 	0.6639	0.2808	0.9219	-0.498
Mof_O 	O 	0.5323	0.376	0.8256	-0.518
Mof_O 	O 	0.6913	0.9877	0.4713	-0.871
Mof_C 	C 	0.7796	0.1702	0.6844	-0.203
Mof_C 	C 	0.9762	0.1776	0.6996	0.187
Mof_C 	C 	0.0691	0.2246	0.7659	-0.275
Mof_H 	H 	0.2031	0.2267	0.7771	0.13
Mof_C 	C 	0.9651	0.2687	0.816	0.126
Mof_C 	C 	0.7664	0.2631	0.7999	-0.112
Mof_C 	C 	0.6753	0.2141	0.7343	0.12
Mof_H 	H 	0.5415	0.2104	0.7234	0.014
Mof_C 	C 	0.6718	0.1118	0.6175	0.582
Mof_C 	C 	0.0856	0.1329	0.6415	0.212
Mof_C 	C 	0.064	0.3318	0.8826	0.369
Mof_C 	C 	0.6502	0.3105	0.8525	0.337
Mof_In	In	0.53303	0.59877	0.05327	2.344
Mof_O 	O 	0.4259	0.6584	0.9381	-0.531
Mof_O 	O 	0.3191	0.5197	0.8742	-0.651
Mof_O 	O 	0.0138	0.62	0.9262	-0.639
Mof_O 	O 	0.7455	0.6113	0.8376	-0.319
Mof_O 	O 	0.7678	0.8063	0.5869	-0.731
Mof_O 	O 	0.0238	0.9048	0.5997	-0.669
Mof_O 	O 	0.3361	0.7808	0.5781	-0.508
Mof_O 	O 	0.4677	0.876	0.6744	-0.445
Mof_O 	O 	0.3087	0.4877	0.0287	-1.037
Mof_C 	C 	0.2204	0.6702	0.8156	0.052
Mof_C 	C 	0.0238	0.6776	0.8004	-0.279
Mof_C 	C 	0.9309	0.7246	0.7341	0.334
Mof_H 	H 	0.7969	0.7267	0.7229	-0.048
Mof_C 	C 	0.0349	0.7687	0.684	-0.331
Mof_C 	C 	0.2336	0.7631	0.7001	0.127
Mof_C 	C 	0.3247	0.7141	0.7657	-0.108
Mof_H 	H 	0.4585	0.7104	0.7766	0.109
Mof_C 	C 	0.3282	0.6118	0.8825	0.482
Mof_C 	C 	0.9144	0.6329	0.8585	0.567
Mof_C 	C 	0.936	0.8318	0.6174	0.706
Mof_C 	C 	0.3498	0.8105	0.6475	0.258
Mof_In	In	0.53303	0.90123	0.55327	2.882
Mof_O 	O 	0.4259	0.8416	0.4381	-0.65
Mof_O 	O 	0.3191	0.9803	0.3742	-0.531
Mof_O 	O 	0.0138	0.88	0.4262	-0.657
Mof_O 	O 	0.7455	0.8887	0.3376	-0.303
Mof_O 	O 	0.7678	0.6937	0.0869	-0.689
Mof_O 	O 	0.0238	0.5952	0.0997	-0.75
Mof_O 	O 	0.3361	0.7192	0.0781	-0.488
Mof_O 	O 	0.4677	0.624	0.1744	-0.445
Mof_O 	O 	0.3087	0.0123	0.5287	-1.054
Mof_C 	C 	0.2204	0.8298	0.3156	0.048
Mof_C 	C 	0.0238	0.8224	0.3004	-0.28
Mof_C 	C 	0.9309	0.7754	0.2341	0.331
Mof_H 	H 	0.7969	0.7733	0.2229	-0.049
Mof_C 	C 	0.0349	0.7313	0.184	-0.341
Mof_C 	C 	0.2336	0.7369	0.2001	0.112
Mof_C 	C 	0.3247	0.7859	0.2657	-0.107
Mof_H 	H 	0.4585	0.7896	0.2766	0.103
Mof_C 	C 	0.3282	0.8882	0.3825	0.479
Mof_C 	C 	0.9144	0.8671	0.3585	0.563
Mof_C 	C 	0.936	0.6682	0.1174	0.701
Mof_C 	C 	0.3498	0.6895	0.1475	0.267
Mof_In	In	0.46697	0.40123	0.94673	2.824
Mof_O 	O 	0.5741	0.3416	0.0619	-0.749
Mof_O 	O 	0.6809	0.4803	0.1258	-0.642
Mof_O 	O 	0.9862	0.38	0.0738	-0.574
Mof_O 	O 	0.2545	0.3887	0.1624	-0.258
Mof_O 	O 	0.2322	0.1937	0.4131	-0.595
Mof_O 	O 	0.9762	0.0952	0.4003	-0.578
Mof_O 	O 	0.6639	0.2192	0.4219	-0.478
Mof_O 	O 	0.5323	0.124	0.3256	-0.518
Mof_O 	O 	0.6913	0.5123	0.9713	-0.899
Mof_C 	C 	0.7796	0.3298	0.1844	-0.213
Mof_C 	C 	0.9762	0.3224	0.1996	0.189
Mof_C 	C 	0.0691	0.2754	0.2659	-0.298
Mof_H 	H 	0.2031	0.2733	0.2771	0.135
Mof_C 	C 	0.9651	0.2313	0.316	0.145
Mof_C 	C 	0.7664	0.2369	0.2999	-0.139
Mof_C 	C 	0.6753	0.2859	0.2343	0.13
Mof_H 	H 	0.5415	0.2896	0.2234	0.005
Mof_C 	C 	0.6718	0.3882	0.1175	0.582
Mof_C 	C 	0.0856	0.3671	0.1415	0.223
Mof_C 	C 	0.064	0.1682	0.3826	0.321
Mof_C 	C 	0.6502	0.1895	0.3525	0.351
Mof_In	In	-3.3848e-17	0	0.5	2.322
Mof_In	In	7.51577e-33	0.5	-0	2.386
_end
