data_functionalizedCrystal
_audit_creation_method	'EQeq! by Chris Wilmer'
_symmetry_space_group_name_H-M	'P1'
_symmetry_Int_Tables_number	1
_symmetry_cell_setting	triclinic
loop_
_symmetry_equiv_pos_as_xyz
  x,y,z
_cell_length_a	18.5185
_cell_length_b	18.5185
_cell_length_c	19.1215
_cell_angle_alpha	90
_cell_angle_beta	90
_cell_angle_gamma	120
loop_
_atom_site_label
_atom_site_type_symbol
_atom_site_fract_x
_atom_site_fract_y
_atom_site_fract_z
_atom_site_charge
Mof_O 	O 	0.43949	0.02918	0.08988	-0.428
Mof_O 	O 	0.48069	0.10963	0.99466	-0.438
Mof_C 	C 	0.3644	0.1179	0.14211	0.292
Mof_H 	H 	0.3469	0.0646	0.1619	-0.084
Mof_H 	H 	0.1639	0.1655	0.2082	0.345
Mof_C 	C 	0.4179	0.14437	0.08494	-0.265
Mof_C 	C 	0.4485	0.09	0.05402	0.43
Mof_O 	O 	0.97082	0.41031	0.08988	-0.428
Mof_O 	O 	0.89037	0.37106	0.99466	-0.441
Mof_C 	C 	0.8821	0.2465	0.14211	0.29
Mof_H 	H 	0.9354	0.2823	0.1619	-0.084
Mof_H 	H 	0.8345	0.9984	0.2082	0.328
Mof_C 	C 	0.85563	0.27353	0.08494	-0.265
Mof_C 	C 	0.91	0.3585	0.05402	0.432
Mof_O 	O 	0.58969	0.56051	0.08988	-0.431
Mof_O 	O 	0.62894	0.51931	0.99466	-0.434
Mof_C 	C 	0.7535	0.6356	0.14211	0.291
Mof_H 	H 	0.7177	0.6531	0.1619	-0.086
Mof_H 	H 	0.0016	0.8361	0.2082	0.331
Mof_C 	C 	0.72647	0.5821	0.08494	-0.265
Mof_C 	C 	0.6415	0.5515	0.05402	0.425
Mof_O 	O 	0.56051	0.97082	0.58988	-0.43
Mof_O 	O 	0.51931	0.89037	0.49466	-0.432
Mof_C 	C 	0.6356	0.8821	0.64211	0.29
Mof_H 	H 	0.6531	0.9354	0.6619	-0.085
Mof_H 	H 	0.8361	0.8345	0.7082	0.344
Mof_C 	C 	0.5821	0.85563	0.58494	-0.263
Mof_C 	C 	0.5515	0.91	0.55402	0.422
Mof_O 	O 	0.02918	0.58969	0.58988	-0.429
Mof_O 	O 	0.10963	0.62894	0.49466	-0.431
Mof_C 	C 	0.1179	0.7535	0.64211	0.286
Mof_H 	H 	0.0646	0.7177	0.6619	-0.083
Mof_H 	H 	0.1655	0.0016	0.7082	0.329
Mof_C 	C 	0.14437	0.72647	0.58494	-0.261
Mof_C 	C 	0.09	0.6415	0.55402	0.421
Mof_O 	O 	0.41031	0.43949	0.58988	-0.431
Mof_O 	O 	0.37106	0.48069	0.49466	-0.431
Mof_C 	C 	0.2465	0.3644	0.64211	0.29
Mof_H 	H 	0.2823	0.3469	0.6619	-0.086
Mof_H 	H 	0.9984	0.1639	0.7082	0.332
Mof_C 	C 	0.27353	0.4179	0.58494	-0.264
Mof_C 	C 	0.3585	0.4485	0.55402	0.422
Mof_O 	O 	0.02918	0.43949	0.91012	-0.429
Mof_O 	O 	0.10963	0.48069	0.00534	-0.439
Mof_C 	C 	0.1179	0.3644	0.85789	0.291
Mof_H 	H 	0.0646	0.3469	0.8381	-0.085
Mof_H 	H 	0.1655	0.1639	0.7918	0.344
Mof_C 	C 	0.14437	0.4179	0.91506	-0.266
Mof_C 	C 	0.09	0.4485	0.94598	0.429
Mof_O 	O 	0.41031	0.97082	0.91012	-0.429
Mof_O 	O 	0.37106	0.89037	0.00534	-0.442
Mof_C 	C 	0.2465	0.8821	0.85789	0.289
Mof_H 	H 	0.2823	0.9354	0.8381	-0.084
Mof_H 	H 	0.9984	0.8345	0.7918	0.328
Mof_C 	C 	0.27353	0.85563	0.91506	-0.265
Mof_C 	C 	0.3585	0.91	0.94598	0.432
Mof_O 	O 	0.56051	0.58969	0.91012	-0.431
Mof_O 	O 	0.51931	0.62894	0.00534	-0.434
Mof_C 	C 	0.6356	0.7535	0.85789	0.291
Mof_H 	H 	0.6531	0.7177	0.8381	-0.086
Mof_H 	H 	0.8361	0.0016	0.7918	0.331
Mof_C 	C 	0.5821	0.72647	0.91506	-0.265
Mof_C 	C 	0.5515	0.6415	0.94598	0.425
Mof_O 	O 	0.97082	0.56051	0.41012	-0.43
Mof_O 	O 	0.89037	0.51931	0.50534	-0.432
Mof_C 	C 	0.8821	0.6356	0.35789	0.29
Mof_H 	H 	0.9354	0.6531	0.3381	-0.085
Mof_H 	H 	0.8345	0.8361	0.2918	0.344
Mof_C 	C 	0.85563	0.5821	0.41506	-0.263
Mof_C 	C 	0.91	0.5515	0.44598	0.422
Mof_O 	O 	0.58969	0.02918	0.41012	-0.429
Mof_O 	O 	0.62894	0.10963	0.50534	-0.431
Mof_C 	C 	0.7535	0.1179	0.35789	0.286
Mof_H 	H 	0.7177	0.0646	0.3381	-0.083
Mof_H 	H 	0.0016	0.1655	0.2918	0.329
Mof_C 	C 	0.72647	0.14437	0.41506	-0.261
Mof_C 	C 	0.6415	0.09	0.44598	0.421
Mof_O 	O 	0.43949	0.41031	0.41012	-0.431
Mof_O 	O 	0.48069	0.37106	0.50534	-0.431
Mof_C 	C 	0.3644	0.2465	0.35789	0.29
Mof_H 	H 	0.3469	0.2823	0.3381	-0.086
Mof_H 	H 	0.1639	0.9984	0.2918	0.332
Mof_C 	C 	0.4179	0.27353	0.41506	-0.264
Mof_C 	C 	0.4485	0.3585	0.44598	0.422
Mof_O 	O 	0.56051	0.97082	0.91012	-0.429
Mof_O 	O 	0.51931	0.89037	0.00534	-0.438
Mof_C 	C 	0.6356	0.8821	0.85789	0.291
Mof_H 	H 	0.6531	0.9354	0.8381	-0.085
Mof_H 	H 	0.8361	0.8345	0.7918	0.344
Mof_C 	C 	0.5821	0.85563	0.91506	-0.266
Mof_C 	C 	0.5515	0.91	0.94598	0.429
Mof_O 	O 	0.02918	0.58969	0.91012	-0.43
Mof_O 	O 	0.10963	0.62894	0.00534	-0.442
Mof_C 	C 	0.1179	0.7535	0.85789	0.289
Mof_H 	H 	0.0646	0.7177	0.8381	-0.084
Mof_H 	H 	0.1655	0.0016	0.7918	0.328
Mof_C 	C 	0.14437	0.72647	0.91506	-0.265
Mof_C 	C 	0.09	0.6415	0.94598	0.432
Mof_O 	O 	0.41031	0.43949	0.91012	-0.431
Mof_O 	O 	0.37106	0.48069	0.00534	-0.434
Mof_C 	C 	0.2465	0.3644	0.85789	0.291
Mof_H 	H 	0.2823	0.3469	0.8381	-0.086
Mof_H 	H 	0.9984	0.1639	0.7918	0.331
Mof_C 	C 	0.27353	0.4179	0.91506	-0.265
Mof_C 	C 	0.3585	0.4485	0.94598	0.425
Mof_O 	O 	0.43949	0.02918	0.41012	-0.43
Mof_O 	O 	0.48069	0.10963	0.50534	-0.432
Mof_C 	C 	0.3644	0.1179	0.35789	0.29
Mof_H 	H 	0.3469	0.0646	0.3381	-0.085
Mof_H 	H 	0.1639	0.1655	0.2918	0.344
Mof_C 	C 	0.4179	0.14437	0.41506	-0.263
Mof_C 	C 	0.4485	0.09	0.44598	0.422
Mof_O 	O 	0.97082	0.41031	0.41012	-0.429
Mof_O 	O 	0.89037	0.37106	0.50534	-0.431
Mof_C 	C 	0.8821	0.2465	0.35789	0.286
Mof_H 	H 	0.9354	0.2823	0.3381	-0.083
Mof_H 	H 	0.8345	0.9984	0.2918	0.329
Mof_C 	C 	0.85563	0.27353	0.41506	-0.261
Mof_C 	C 	0.91	0.3585	0.44598	0.421
Mof_O 	O 	0.58969	0.56051	0.41012	-0.431
Mof_O 	O 	0.62894	0.51931	0.50534	-0.431
Mof_C 	C 	0.7535	0.6356	0.35789	0.29
Mof_H 	H 	0.7177	0.6531	0.3381	-0.086
Mof_H 	H 	0.0016	0.8361	0.2918	0.332
Mof_C 	C 	0.72647	0.5821	0.41506	-0.264
Mof_C 	C 	0.6415	0.5515	0.44598	0.422
Mof_O 	O 	0.97082	0.56051	0.08988	-0.429
Mof_O 	O 	0.89037	0.51931	0.99466	-0.438
Mof_C 	C 	0.8821	0.6356	0.14211	0.291
Mof_H 	H 	0.9354	0.6531	0.1619	-0.085
Mof_H 	H 	0.8345	0.8361	0.2082	0.344
Mof_C 	C 	0.85563	0.5821	0.08494	-0.266
Mof_C 	C 	0.91	0.5515	0.05402	0.429
Mof_O 	O 	0.58969	0.02918	0.08988	-0.429
Mof_O 	O 	0.62894	0.10963	0.99466	-0.442
Mof_C 	C 	0.7535	0.1179	0.14211	0.289
Mof_H 	H 	0.7177	0.0646	0.1619	-0.084
Mof_H 	H 	0.0016	0.1655	0.2082	0.328
Mof_C 	C 	0.72647	0.14437	0.08494	-0.265
Mof_C 	C 	0.6415	0.09	0.05402	0.432
Mof_O 	O 	0.43949	0.41031	0.08988	-0.431
Mof_O 	O 	0.48069	0.37106	0.99466	-0.434
Mof_C 	C 	0.3644	0.2465	0.14211	0.291
Mof_H 	H 	0.3469	0.2823	0.1619	-0.086
Mof_H 	H 	0.1639	0.9984	0.2082	0.331
Mof_C 	C 	0.4179	0.27353	0.08494	-0.265
Mof_C 	C 	0.4485	0.3585	0.05402	0.425
Mof_O 	O 	0.02918	0.43949	0.58988	-0.43
Mof_O 	O 	0.10963	0.48069	0.49466	-0.432
Mof_C 	C 	0.1179	0.3644	0.64211	0.29
Mof_H 	H 	0.0646	0.3469	0.6619	-0.085
Mof_H 	H 	0.1655	0.1639	0.7082	0.344
Mof_C 	C 	0.14437	0.4179	0.58494	-0.263
Mof_C 	C 	0.09	0.4485	0.55402	0.422
Mof_O 	O 	0.41031	0.97082	0.58988	-0.429
Mof_O 	O 	0.37106	0.89037	0.49466	-0.431
Mof_C 	C 	0.2465	0.8821	0.64211	0.286
Mof_H 	H 	0.2823	0.9354	0.6619	-0.083
Mof_H 	H 	0.9984	0.8345	0.7082	0.329
Mof_C 	C 	0.27353	0.85563	0.58494	-0.261
Mof_C 	C 	0.3585	0.91	0.55402	0.421
Mof_O 	O 	0.56051	0.58969	0.58988	-0.431
Mof_O 	O 	0.51931	0.62894	0.49466	-0.431
Mof_C 	C 	0.6356	0.7535	0.64211	0.29
Mof_H 	H 	0.6531	0.7177	0.6619	-0.086
Mof_H 	H 	0.8361	0.0016	0.7082	0.332
Mof_C 	C 	0.5821	0.72647	0.58494	-0.264
Mof_C 	C 	0.5515	0.6415	0.55402	0.422
Mof_Cu	Cu	0.47642	0.95284	0.05626	0.901
Mof_Cu	Cu	0.04716	0.52358	0.05626	0.901
Mof_Cu	Cu	0.47642	0.52358	0.05626	0.904
Mof_Cu	Cu	0.52358	0.04716	0.55626	0.903
Mof_Cu	Cu	0.95284	0.47642	0.55626	0.903
Mof_Cu	Cu	0.52358	0.47642	0.55626	0.903
Mof_Cu	Cu	0.95284	0.47642	0.94374	0.901
Mof_Cu	Cu	0.52358	0.04716	0.94374	0.901
Mof_Cu	Cu	0.52358	0.47642	0.94374	0.904
Mof_Cu	Cu	0.04716	0.52358	0.44374	0.903
Mof_Cu	Cu	0.47642	0.95284	0.44374	0.903
Mof_Cu	Cu	0.47642	0.52358	0.44374	0.903
Mof_Si	Si	0.26565	0.13283	0.25	1.391
Mof_Si	Si	0.86718	0.13282	0.25	1.375
Mof_Si	Si	0.86718	0.73435	0.25	1.391
Mof_Si	Si	0.73435	0.86718	0.75	1.391
Mof_Si	Si	0.13283	0.86718	0.75	1.375
Mof_Si	Si	0.13283	0.26565	0.75	1.391
Mof_C 	C 	0.336	0.168	0.1709	-0.549
Mof_C 	C 	0.4429	0.22145	0.0561	0.191
Mof_H 	H 	0.4776	0.2388	0.0159	-0.004
Mof_C 	C 	0.832	0.168	0.1709	-0.543
Mof_C 	C 	0.77855	0.22145	0.0561	0.192
Mof_H 	H 	0.7612	0.2388	0.0159	-0.003
Mof_C 	C 	0.832	0.664	0.1709	-0.549
Mof_C 	C 	0.77855	0.5571	0.0561	0.191
Mof_H 	H 	0.7612	0.5224	0.0159	-0.004
Mof_C 	C 	0.664	0.832	0.6709	-0.549
Mof_C 	C 	0.5571	0.77855	0.5561	0.189
Mof_H 	H 	0.5224	0.7612	0.5159	-0.005
Mof_C 	C 	0.168	0.832	0.6709	-0.542
Mof_C 	C 	0.22145	0.77855	0.5561	0.187
Mof_H 	H 	0.2388	0.7612	0.5159	-0.004
Mof_C 	C 	0.168	0.336	0.6709	-0.549
Mof_C 	C 	0.22145	0.4429	0.5561	0.189
Mof_H 	H 	0.2388	0.4776	0.5159	-0.005
Mof_C 	C 	0.168	0.336	0.8291	-0.549
Mof_C 	C 	0.22145	0.4429	0.9439	0.191
Mof_H 	H 	0.2388	0.4776	0.9841	-0.004
Mof_C 	C 	0.168	0.832	0.8291	-0.543
Mof_C 	C 	0.22145	0.77855	0.9439	0.192
Mof_H 	H 	0.2388	0.7612	0.9841	-0.003
Mof_C 	C 	0.664	0.832	0.8291	-0.549
Mof_C 	C 	0.5571	0.77855	0.9439	0.191
Mof_H 	H 	0.5224	0.7612	0.9841	-0.004
Mof_C 	C 	0.832	0.664	0.3291	-0.549
Mof_C 	C 	0.77855	0.5571	0.4439	0.189
Mof_H 	H 	0.7612	0.5224	0.4841	-0.005
Mof_C 	C 	0.832	0.168	0.3291	-0.542
Mof_C 	C 	0.77855	0.22145	0.4439	0.187
Mof_H 	H 	0.7612	0.2388	0.4841	-0.004
Mof_C 	C 	0.336	0.168	0.3291	-0.549
Mof_C 	C 	0.4429	0.22145	0.4439	0.189
Mof_H 	H 	0.4776	0.2388	0.4841	-0.005
Mof_C 	C 	0.1992	0.1828	0.25	-1.294
Mof_H 	H 	0.2349	0.2436	0.25	0.37
Mof_C 	C 	0.8172	0.0164	0.25	-1.247
Mof_H 	H 	0.7564	0.9913	0.25	0.354
Mof_C 	C 	0.9836	0.8008	0.25	-1.261
Mof_H 	H 	0.0087	0.7651	0.25	0.357
Mof_C 	C 	0.8008	0.8172	0.75	-1.293
Mof_H 	H 	0.7651	0.7564	0.75	0.37
Mof_C 	C 	0.1828	0.9836	0.75	-1.247
Mof_H 	H 	0.2436	0.0087	0.75	0.354
Mof_C 	C 	0.0164	0.1992	0.75	-1.261
Mof_H 	H 	0.9913	0.2349	0.75	0.357
Mof_C 	C 	0.1828	0.1992	0.75	-1.294
Mof_H 	H 	0.2436	0.2349	0.75	0.37
Mof_C 	C 	0.0164	0.8172	0.75	-1.247
Mof_H 	H 	0.9913	0.7564	0.75	0.354
Mof_C 	C 	0.8008	0.9836	0.75	-1.261
Mof_H 	H 	0.7651	0.0087	0.75	0.358
Mof_C 	C 	0.8172	0.8008	0.25	-1.293
Mof_H 	H 	0.7564	0.7651	0.25	0.37
Mof_C 	C 	0.9836	0.1828	0.25	-1.247
Mof_H 	H 	0.0087	0.2436	0.25	0.354
Mof_C 	C 	0.1992	0.0164	0.25	-1.261
Mof_H 	H 	0.2349	0.9913	0.25	0.357
_end
