data_functionalizedCrystal
_audit_creation_method	'EQeq! by Chris Wilmer'
_symmetry_space_group_name_H-M	'P1'
_symmetry_Int_Tables_number	1
_symmetry_cell_setting	triclinic
loop_
_symmetry_equiv_pos_as_xyz
  x,y,z
_cell_length_a	8.694
_cell_length_b	16.908
_cell_length_c	21.157
_cell_angle_alpha	90
_cell_angle_beta	90
_cell_angle_gamma	90
loop_
_atom_site_label
_atom_site_type_symbol
_atom_site_fract_x
_atom_site_fract_y
_atom_site_fract_z
_atom_site_charge
Mof_Cd	Cd	0.51049	0.12496	0.41498	0.27
Mof_C 	C 	0.7202	0.118	0.3575	-0.01
Mof_N 	N 	0.8242	0.1128	0.3264	-0.141
Mof_C 	C 	0.3005	0.1322	0.3576	-0.011
Mof_N 	N 	0.1966	0.1344	0.3257	-0.141
Mof_C 	C 	0.5217	0.2248	0.4816	-0.068
Mof_C 	C 	0.5014	0.0248	0.4817	-0.011
Mof_N 	N 	0.4986	0.9752	0.5183	-0.146
Mof_Cd	Cd	0.48951	0.87504	0.91498	0.271
Mof_C 	C 	0.2798	0.882	0.8575	-0.01
Mof_N 	N 	0.1758	0.8872	0.8264	-0.141
Mof_C 	C 	0.6995	0.8678	0.8576	-0.011
Mof_N 	N 	0.8034	0.8656	0.8257	-0.141
Mof_C 	C 	0.4783	0.7752	0.9816	-0.068
Mof_C 	C 	0.4986	0.9752	0.9817	-0.011
Mof_N 	N 	0.5014	0.0248	0.0183	-0.146
Mof_Cd	Cd	0.48951	0.62496	0.08502	0.271
Mof_C 	C 	0.2798	0.618	0.1425	-0.01
Mof_N 	N 	0.1758	0.6128	0.1736	-0.141
Mof_C 	C 	0.6995	0.6322	0.1424	-0.011
Mof_N 	N 	0.8034	0.6344	0.1743	-0.141
Mof_C 	C 	0.4783	0.7248	0.0184	-0.069
Mof_C 	C 	0.4986	0.5248	0.0183	-0.011
Mof_N 	N 	0.5014	0.4752	0.9817	-0.146
Mof_Cd	Cd	0.51049	0.37504	0.58502	0.271
Mof_C 	C 	0.7202	0.382	0.6425	-0.01
Mof_N 	N 	0.8242	0.3872	0.6736	-0.141
Mof_C 	C 	0.3005	0.3678	0.6424	-0.011
Mof_N 	N 	0.1966	0.3656	0.6743	-0.141
Mof_C 	C 	0.5217	0.2752	0.5184	-0.068
Mof_C 	C 	0.5014	0.4752	0.5183	-0.011
Mof_N 	N 	0.4986	0.5248	0.4817	-0.146
Mof_Cd	Cd	0.48951	0.87504	0.58502	0.292
Mof_C 	C 	0.2798	0.882	0.6425	-0.009
Mof_N 	N 	0.1758	0.8872	0.6736	-0.141
Mof_C 	C 	0.6995	0.8678	0.6424	-0.01
Mof_N 	N 	0.8034	0.8656	0.6743	-0.141
Mof_C 	C 	0.4783	0.7752	0.5184	-0.066
Mof_Cd	Cd	0.51049	0.12496	0.08502	0.292
Mof_C 	C 	0.7202	0.118	0.1425	-0.009
Mof_N 	N 	0.8242	0.1128	0.1736	-0.141
Mof_C 	C 	0.3005	0.1322	0.1424	-0.01
Mof_N 	N 	0.1966	0.1344	0.1743	-0.141
Mof_C 	C 	0.5217	0.2248	0.0184	-0.066
Mof_Cd	Cd	0.51049	0.37504	0.91498	0.292
Mof_C 	C 	0.7202	0.382	0.8575	-0.009
Mof_N 	N 	0.8242	0.3872	0.8264	-0.141
Mof_C 	C 	0.3005	0.3678	0.8576	-0.01
Mof_N 	N 	0.1966	0.3656	0.8257	-0.141
Mof_C 	C 	0.5217	0.2752	0.9816	-0.066
Mof_Cd	Cd	0.48951	0.62496	0.41498	0.292
Mof_C 	C 	0.2798	0.618	0.3575	-0.009
Mof_N 	N 	0.1758	0.6128	0.3264	-0.141
Mof_C 	C 	0.6995	0.6322	0.3576	-0.01
Mof_N 	N 	0.8034	0.6344	0.3257	-0.141
Mof_C 	C 	0.4783	0.7248	0.4816	-0.066
Mof_Cd	Cd	0.01046	0.12374	0.25	0.332
Mof_Cd	Cd	0.98954	0.87626	0.75	0.332
Mof_Cd	Cd	0.98954	0.62374	0.25	0.333
Mof_Cd	Cd	0.01046	0.37626	0.75	0.333
_end
