data_functionalizedCrystal
_audit_creation_method	'EQeq! by Chris Wilmer'
_symmetry_space_group_name_H-M	'P1'
_symmetry_Int_Tables_number	1
_symmetry_cell_setting	triclinic
loop_
_symmetry_equiv_pos_as_xyz
  x,y,z
_cell_length_a	8.2335
_cell_length_b	17.8751
_cell_length_c	14.2061
_cell_angle_alpha	90
_cell_angle_beta	90
_cell_angle_gamma	90
loop_
_atom_site_label
_atom_site_type_symbol
_atom_site_fract_x
_atom_site_fract_y
_atom_site_fract_z
_atom_site_charge
Mof_H 	H 	0.0537	0.2057	0.8499	0.055
Mof_H 	H 	0.7693	0.2055	0.8286	0.06
Mof_C 	C 	0.9088	0.30961	0.6573	0.081
Mof_H 	H 	0.8978	0.3597	0.6765	0.007
Mof_N 	N 	0.9566	0.28915	0.57411	-0.095
Mof_C 	C 	0.0897	0.40023	0.3638	0.094
Mof_H 	H 	0.1987	0.4139	0.3732	0.006
Mof_N 	N 	0.0423	0.34082	0.31806	-0.117
Mof_N 	N 	0.8731	0.34122	0.3202	-0.115
Mof_C 	C 	0.8289	0.40098	0.3678	0.093
Mof_H 	H 	0.7209	0.4148	0.3804	0.007
Mof_N 	N 	0.9607	0.43927	0.39575	-0.131
Mof_C 	C 	0.9653	0.50842	0.45152	-0.054
Mof_H 	H 	0.8553	0.5288	0.4578	0.054
Mof_H 	H 	0.0329	0.5458	0.4197	0.056
Mof_H 	H 	0.4463	0.7943	0.3499	0.056
Mof_H 	H 	0.7307	0.7945	0.3286	0.058
Mof_C 	C 	0.5912	0.69039	0.1573	0.081
Mof_H 	H 	0.6022	0.6403	0.1765	0.007
Mof_N 	N 	0.5434	0.71085	0.07411	-0.095
Mof_C 	C 	0.4103	0.59977	0.8638	0.094
Mof_H 	H 	0.3013	0.5861	0.8732	0.006
Mof_N 	N 	0.4577	0.65918	0.81806	-0.117
Mof_N 	N 	0.6269	0.65878	0.8202	-0.115
Mof_C 	C 	0.6711	0.59902	0.8678	0.093
Mof_H 	H 	0.7791	0.5852	0.8804	0.007
Mof_N 	N 	0.5393	0.56073	0.89575	-0.131
Mof_C 	C 	0.5347	0.49158	0.95152	-0.054
Mof_H 	H 	0.6447	0.4712	0.9578	0.054
Mof_H 	H 	0.4671	0.4542	0.9197	0.056
Mof_H 	H 	0.9463	0.7057	0.1501	0.054
Mof_H 	H 	0.2307	0.7055	0.1714	0.059
Mof_C 	C 	0.0912	0.80961	0.3427	0.081
Mof_H 	H 	0.1022	0.8597	0.3235	0.007
Mof_N 	N 	0.0434	0.78915	0.42589	-0.095
Mof_C 	C 	0.9103	0.90023	0.6362	0.093
Mof_H 	H 	0.8013	0.9139	0.6268	0.006
Mof_N 	N 	0.9577	0.84082	0.68194	-0.117
Mof_N 	N 	0.1269	0.84122	0.6798	-0.115
Mof_C 	C 	0.1711	0.90098	0.6322	0.093
Mof_H 	H 	0.2791	0.9148	0.6196	0.007
Mof_N 	N 	0.0393	0.93927	0.60425	-0.13
Mof_C 	C 	0.0347	0.00842	0.54848	-0.056
Mof_H 	H 	0.1447	0.0288	0.5422	0.054
Mof_H 	H 	0.9671	0.0458	0.5803	0.057
Mof_H 	H 	0.5537	0.2943	0.6501	0.056
Mof_H 	H 	0.2693	0.2945	0.6714	0.058
Mof_C 	C 	0.4088	0.19039	0.8427	0.081
Mof_H 	H 	0.3978	0.1403	0.8235	0.007
Mof_N 	N 	0.4566	0.21085	0.92589	-0.095
Mof_C 	C 	0.5897	0.09977	0.1362	0.094
Mof_H 	H 	0.6987	0.0861	0.1268	0.006
Mof_N 	N 	0.5423	0.15918	0.18194	-0.117
Mof_N 	N 	0.3731	0.15878	0.1798	-0.115
Mof_C 	C 	0.3289	0.09902	0.1322	0.093
Mof_H 	H 	0.2209	0.0852	0.1196	0.006
Mof_N 	N 	0.4607	0.06073	0.10425	-0.131
Mof_C 	C 	0.4653	0.99158	0.04848	-0.054
Mof_H 	H 	0.3553	0.9712	0.0422	0.054
Mof_H 	H 	0.5329	0.9542	0.0803	0.056
Mof_H 	H 	0.9463	0.7943	0.1501	0.054
Mof_H 	H 	0.2307	0.7945	0.1714	0.059
Mof_C 	C 	0.0912	0.69039	0.3427	0.081
Mof_H 	H 	0.1022	0.6403	0.3235	0.007
Mof_N 	N 	0.0434	0.71085	0.42589	-0.095
Mof_C 	C 	0.9103	0.59977	0.6362	0.094
Mof_H 	H 	0.8013	0.5861	0.6268	0.006
Mof_N 	N 	0.9577	0.65918	0.68194	-0.117
Mof_N 	N 	0.1269	0.65878	0.6798	-0.115
Mof_C 	C 	0.1711	0.59902	0.6322	0.093
Mof_H 	H 	0.2791	0.5852	0.6196	0.007
Mof_N 	N 	0.0393	0.56073	0.60425	-0.131
Mof_C 	C 	0.0347	0.49158	0.54848	-0.054
Mof_H 	H 	0.1447	0.4712	0.5422	0.054
Mof_H 	H 	0.9671	0.4542	0.5803	0.056
Mof_H 	H 	0.5537	0.2057	0.6501	0.056
Mof_H 	H 	0.2693	0.2055	0.6714	0.058
Mof_C 	C 	0.4088	0.30961	0.8427	0.081
Mof_H 	H 	0.3978	0.3597	0.8235	0.007
Mof_N 	N 	0.4566	0.28915	0.92589	-0.095
Mof_C 	C 	0.5897	0.40023	0.1362	0.094
Mof_H 	H 	0.6987	0.4139	0.1268	0.006
Mof_N 	N 	0.5423	0.34082	0.18194	-0.117
Mof_N 	N 	0.3731	0.34122	0.1798	-0.115
Mof_C 	C 	0.3289	0.40098	0.1322	0.093
Mof_H 	H 	0.2209	0.4148	0.1196	0.007
Mof_N 	N 	0.4607	0.43927	0.10425	-0.131
Mof_C 	C 	0.4653	0.50842	0.04848	-0.054
Mof_H 	H 	0.3553	0.5288	0.0422	0.054
Mof_H 	H 	0.5329	0.5458	0.0803	0.056
Mof_H 	H 	0.0537	0.2943	0.8499	0.054
Mof_H 	H 	0.7693	0.2945	0.8286	0.059
Mof_C 	C 	0.9088	0.19039	0.6573	0.081
Mof_H 	H 	0.8978	0.1403	0.6765	0.007
Mof_N 	N 	0.9566	0.21085	0.57411	-0.095
Mof_C 	C 	0.0897	0.09977	0.3638	0.093
Mof_H 	H 	0.1987	0.0861	0.3732	0.006
Mof_N 	N 	0.0423	0.15918	0.31806	-0.117
Mof_N 	N 	0.8731	0.15878	0.3202	-0.115
Mof_C 	C 	0.8289	0.09902	0.3678	0.093
Mof_H 	H 	0.7209	0.0852	0.3804	0.007
Mof_N 	N 	0.9607	0.06073	0.39575	-0.13
Mof_C 	C 	0.9653	0.99158	0.45152	-0.056
Mof_H 	H 	0.8553	0.9712	0.4578	0.054
Mof_H 	H 	0.0329	0.9542	0.4197	0.057
Mof_H 	H 	0.4463	0.7057	0.3499	0.056
Mof_H 	H 	0.7307	0.7055	0.3286	0.058
Mof_C 	C 	0.5912	0.80961	0.1573	0.081
Mof_H 	H 	0.6022	0.8597	0.1765	0.007
Mof_N 	N 	0.5434	0.78915	0.07411	-0.095
Mof_C 	C 	0.4103	0.90023	0.8638	0.094
Mof_H 	H 	0.3013	0.9139	0.8732	0.006
Mof_N 	N 	0.4577	0.84082	0.81806	-0.117
Mof_N 	N 	0.6269	0.84122	0.8202	-0.115
Mof_C 	C 	0.6711	0.90098	0.8678	0.093
Mof_H 	H 	0.7791	0.9148	0.8804	0.006
Mof_N 	N 	0.5393	0.93927	0.89575	-0.131
Mof_C 	C 	0.5347	0.00842	0.95152	-0.054
Mof_H 	H 	0.6447	0.0288	0.9578	0.054
Mof_H 	H 	0.4671	0.0458	0.9197	0.056
Mof_Cd	Cd	0.20828	0.25	0.25092	0.388
Mof_C 	C 	0.0918	0.25	0.0316	0.085
Mof_H 	H 	0.2022	0.25	0.0146	0.022
Mof_N 	N 	0.0384	0.25	0.1185	-0.116
Mof_N 	N 	0.8716	0.25	0.1132	-0.114
Mof_C 	C 	0.833	0.25	0.0232	0.083
Mof_H 	H 	0.7264	0.25	0.9995	0.023
Mof_N 	N 	0.9686	0.25	0.97	-0.128
Mof_C 	C 	0.9906	0.25	0.8678	-0.047
Mof_C 	C 	0.8335	0.25	0.8132	-0.064
Mof_N 	N 	0.8766	0.25	0.7131	-0.129
Mof_Cd	Cd	0.29172	0.75	0.75092	0.388
Mof_C 	C 	0.4082	0.75	0.5316	0.085
Mof_H 	H 	0.2978	0.75	0.5146	0.022
Mof_N 	N 	0.4616	0.75	0.6185	-0.116
Mof_N 	N 	0.6284	0.75	0.6132	-0.114
Mof_C 	C 	0.667	0.75	0.5232	0.083
Mof_H 	H 	0.7736	0.75	0.4995	0.022
Mof_N 	N 	0.5314	0.75	0.47	-0.128
Mof_C 	C 	0.5094	0.75	0.3678	-0.051
Mof_C 	C 	0.6665	0.75	0.3132	-0.062
Mof_N 	N 	0.6234	0.75	0.2131	-0.129
Mof_Cd	Cd	0.79172	0.75	0.74908	0.388
Mof_C 	C 	0.9082	0.75	0.9684	0.085
Mof_H 	H 	0.7978	0.75	0.9854	0.022
Mof_N 	N 	0.9616	0.75	0.8815	-0.116
Mof_N 	N 	0.1284	0.75	0.8868	-0.114
Mof_C 	C 	0.167	0.75	0.9768	0.083
Mof_H 	H 	0.2736	0.75	0.0005	0.023
Mof_N 	N 	0.0314	0.75	0.03	-0.128
Mof_C 	C 	0.0094	0.75	0.1322	-0.047
Mof_C 	C 	0.1665	0.75	0.1868	-0.064
Mof_N 	N 	0.1234	0.75	0.2869	-0.129
Mof_Cd	Cd	0.70828	0.25	0.24908	0.388
Mof_C 	C 	0.5918	0.25	0.4684	0.085
Mof_H 	H 	0.7022	0.25	0.4854	0.022
Mof_N 	N 	0.5384	0.25	0.3815	-0.116
Mof_N 	N 	0.3716	0.25	0.3868	-0.114
Mof_C 	C 	0.333	0.25	0.4768	0.083
Mof_H 	H 	0.2264	0.25	0.5005	0.022
Mof_N 	N 	0.4686	0.25	0.53	-0.128
Mof_C 	C 	0.4906	0.25	0.6322	-0.051
Mof_C 	C 	0.3335	0.25	0.6868	-0.062
Mof_N 	N 	0.3766	0.25	0.7869	-0.129
_end
