data_functionalizedCrystal
_audit_creation_method	'EQeq! by Chris Wilmer'
_symmetry_space_group_name_H-M	'P1'
_symmetry_Int_Tables_number	1
_symmetry_cell_setting	triclinic
loop_
_symmetry_equiv_pos_as_xyz
  x,y,z
_cell_length_a	9.0944
_cell_length_b	9.3809
_cell_length_c	9.9459
_cell_angle_alpha	84.272
_cell_angle_beta	65.442
_cell_angle_gamma	63.368
loop_
_atom_site_label
_atom_site_type_symbol
_atom_site_fract_x
_atom_site_fract_y
_atom_site_fract_z
_atom_site_charge
Mof_Ce	Ce	0.26787	0.49045	0.46023	2.333
Mof_O 	O 	0.0389	0.5803	0.7386	-0.47
Mof_O 	O 	0.2933	0.3602	0.6997	-0.453
Mof_O 	O 	0.6313	0.3474	0.4406	-0.627
Mof_O 	O 	0.5202	0.2054	0.3882	-0.531
Mof_O 	O 	0.1026	0.7713	0.4007	-0.539
Mof_O 	O 	0.9275	0.6508	0.4684	-0.665
Mof_C 	C 	0.137	0.4656	0.7867	0.313
Mof_C 	C 	0.0759	0.4506	0.9503	-0.136
Mof_H 	H 	0.1528	0.3642	0.9816	0.068
Mof_C 	C 	0.6419	0.2122	0.4121	0.423
Mof_C 	C 	0.8015	0.0655	0.4091	-0.152
Mof_H 	H 	0.9055	0.0728	0.395	0.083
Mof_C 	C 	0.8009	0.9226	0.4259	-0.167
Mof_H 	H 	0.6976	0.9165	0.436	0.092
Mof_C 	C 	0.9539	0.7741	0.4294	0.427
Mof_Ce	Ce	0.73213	0.50955	0.53977	2.334
Mof_O 	O 	0.9611	0.4197	0.2614	-0.469
Mof_O 	O 	0.7067	0.6398	0.3003	-0.453
Mof_O 	O 	0.3687	0.6526	0.5594	-0.627
Mof_O 	O 	0.4798	0.7946	0.6118	-0.531
Mof_O 	O 	0.8974	0.2287	0.5993	-0.539
Mof_O 	O 	0.0725	0.3492	0.5316	-0.665
Mof_C 	C 	0.863	0.5344	0.2133	0.313
Mof_C 	C 	0.9241	0.5494	0.0497	-0.136
Mof_H 	H 	0.8472	0.6358	0.0184	0.068
Mof_C 	C 	0.3581	0.7878	0.5879	0.423
Mof_C 	C 	0.1985	0.9345	0.5909	-0.152
Mof_H 	H 	0.0945	0.9272	0.605	0.083
Mof_C 	C 	0.1991	0.0774	0.5741	-0.167
Mof_H 	H 	0.3024	0.0835	0.564	0.092
Mof_C 	C 	0.0461	0.2259	0.5706	0.427
_end
