# CIF file generated by openbabel 3.1.0, see https://openbabel.org
data_I
_chemical_name_common 'image0'
_cell_length_a 13.686
_cell_length_b 18.252
_cell_length_c 14.906
_cell_angle_alpha 90
_cell_angle_beta 101.07
_cell_angle_gamma 90
_space_group_name_H-M_alt 'P 1'
_space_group_name_Hall 'P 1'
loop_
    _symmetry_equiv_pos_as_xyz
    x,y,z
loop_
    _atom_site_label
    _atom_site_type_symbol
    _atom_site_fract_x
    _atom_site_fract_y
    _atom_site_fract_z
    _atom_site_occupancy
    Cd1      Cd       0.65877    0.79047    0.57456    1.000
    O1       O        0.80129    0.82130    0.49927    1.000
    O2       O        0.65773    0.87914    0.46233    1.000
    O3       O        0.50311    0.23507    0.98676    1.000
    O4       O        0.48083    0.15527    0.09250    1.000
    O5       O        0.61999    0.09049    0.26465    1.000
    O6       O        0.72661    0.11252    0.17079    1.000
    O7       O        0.09896    0.23726    0.70914    1.000
    O8       O        0.25681    0.23101    0.69809    1.000
    C1       C        0.74800    0.87126    0.45668    1.000
    C2       C        0.79200    0.92442    0.39850    1.000
    C3       C        0.89310    0.92445    0.39800    1.000
    H1       H        0.93600    0.89100    0.43550    1.000
    C4       C        0.73050    0.97477    0.34480    1.000
    H2       H        0.66140    0.97540    0.34610    1.000
    C5       C        0.93180    0.97341    0.34260    1.000
    H3       H        0.00110    0.97330    0.34210    1.000
    C6       C        0.86930    0.02260    0.28800    1.000
    H4       H        0.89600    0.05540    0.24950    1.000
    C7       C        0.76850    0.02419    0.28927    1.000
    C8       C        0.69990    0.08083    0.23579    1.000
    C9       C        0.44860    0.19303    0.02180    1.000
    C10      C        0.27570    0.14253    0.01550    1.000
    H5       H        0.29640    0.12320    0.07530    1.000
    C11      C        0.34220    0.18236    0.97496    1.000
    C12      C        0.17910    0.13091    0.96880    1.000
    H6       H        0.13360    0.10430    0.99720    1.000
    C13      C        0.31140    0.20885    0.88720    1.000
    H7       H        0.35650    0.23630    0.85940    1.000
    C14      C        0.14830    0.15783    0.88080    1.000
    H8       H        0.08190    0.15040    0.84920    1.000
    C15      C        0.21620    0.19608    0.83924    1.000
    C16      C        0.18900    0.22306    0.74344    1.000
    Cd2      Cd       0.15877    0.29047    0.57456    1.000
    O9       O        0.30129    0.32130    0.49927    1.000
    O10      O        0.15773    0.37914    0.46233    1.000
    O11      O        0.00311    0.73507    0.98676    1.000
    O12      O        0.98083    0.65527    0.09250    1.000
    O13      O        0.11999    0.59049    0.26465    1.000
    O14      O        0.22661    0.61252    0.17079    1.000
    O15      O        0.59896    0.73726    0.70914    1.000
    O16      O        0.75681    0.73101    0.69809    1.000
    C17      C        0.24800    0.37126    0.45668    1.000
    C18      C        0.29200    0.42442    0.39850    1.000
    C19      C        0.39310    0.42445    0.39800    1.000
    H9       H        0.43600    0.39100    0.43550    1.000
    C20      C        0.23050    0.47477    0.34480    1.000
    H10      H        0.16140    0.47540    0.34610    1.000
    C21      C        0.43180    0.47341    0.34260    1.000
    H11      H        0.50110    0.47330    0.34210    1.000
    C22      C        0.36930    0.52260    0.28800    1.000
    H12      H        0.39600    0.55540    0.24950    1.000
    C23      C        0.26850    0.52419    0.28927    1.000
    C24      C        0.19990    0.58083    0.23579    1.000
    C25      C        0.94860    0.69303    0.02180    1.000
    C26      C        0.77570    0.64253    0.01550    1.000
    H13      H        0.79640    0.62320    0.07530    1.000
    C27      C        0.84220    0.68236    0.97496    1.000
    C28      C        0.67910    0.63091    0.96880    1.000
    H14      H        0.63360    0.60430    0.99720    1.000
    C29      C        0.81140    0.70885    0.88720    1.000
    H15      H        0.85650    0.73630    0.85940    1.000
    C30      C        0.64830    0.65783    0.88080    1.000
    H16      H        0.58190    0.65040    0.84920    1.000
    C31      C        0.71620    0.69608    0.83924    1.000
    C32      C        0.68900    0.72306    0.74344    1.000
    Cd3      Cd       0.34123    0.79047    0.92544    1.000
    O17      O        0.19871    0.82130    0.00073    1.000
    O18      O        0.34227    0.87914    0.03767    1.000
    O19      O        0.49689    0.23507    0.51324    1.000
    O20      O        0.51917    0.15527    0.40750    1.000
    O21      O        0.38001    0.09049    0.23535    1.000
    O22      O        0.27339    0.11252    0.32921    1.000
    O23      O        0.90104    0.23726    0.79086    1.000
    O24      O        0.74319    0.23101    0.80191    1.000
    C33      C        0.25200    0.87126    0.04332    1.000
    C34      C        0.20800    0.92442    0.10150    1.000
    C35      C        0.10690    0.92445    0.10200    1.000
    H17      H        0.06400    0.89100    0.06450    1.000
    C36      C        0.26950    0.97477    0.15520    1.000
    H18      H        0.33860    0.97540    0.15390    1.000
    C37      C        0.06820    0.97341    0.15740    1.000
    H19      H        0.99890    0.97330    0.15790    1.000
    C38      C        0.13070    0.02260    0.21200    1.000
    H20      H        0.10400    0.05540    0.25050    1.000
    C39      C        0.23150    0.02419    0.21073    1.000
    C40      C        0.30010    0.08083    0.26421    1.000
    C41      C        0.55140    0.19303    0.47820    1.000
    C42      C        0.72430    0.14253    0.48450    1.000
    H21      H        0.70360    0.12320    0.42470    1.000
    C43      C        0.65780    0.18236    0.52504    1.000
    C44      C        0.82090    0.13091    0.53120    1.000
    H22      H        0.86640    0.10430    0.50280    1.000
    C45      C        0.68860    0.20885    0.61280    1.000
    H23      H        0.64350    0.23630    0.64060    1.000
    C46      C        0.85170    0.15783    0.61920    1.000
    H24      H        0.91810    0.15040    0.65080    1.000
    C47      C        0.78380    0.19608    0.66076    1.000
    C48      C        0.81100    0.22306    0.75656    1.000
    Cd4      Cd       0.84123    0.29047    0.92544    1.000
    O25      O        0.69871    0.32130    0.00073    1.000
    O26      O        0.84227    0.37914    0.03767    1.000
    O27      O        0.99689    0.73507    0.51324    1.000
    O28      O        0.01917    0.65527    0.40750    1.000
    O29      O        0.88001    0.59049    0.23535    1.000
    O30      O        0.77339    0.61252    0.32921    1.000
    O31      O        0.40104    0.73726    0.79086    1.000
    O32      O        0.24319    0.73101    0.80191    1.000
    C49      C        0.75200    0.37126    0.04332    1.000
    C50      C        0.70800    0.42442    0.10150    1.000
    C51      C        0.60690    0.42445    0.10200    1.000
    H25      H        0.56400    0.39100    0.06450    1.000
    C52      C        0.76950    0.47477    0.15520    1.000
    H26      H        0.83860    0.47540    0.15390    1.000
    C53      C        0.56820    0.47341    0.15740    1.000
    H27      H        0.49890    0.47330    0.15790    1.000
    C54      C        0.63070    0.52260    0.21200    1.000
    H28      H        0.60400    0.55540    0.25050    1.000
    C55      C        0.73150    0.52419    0.21073    1.000
    C56      C        0.80010    0.58083    0.26421    1.000
    C57      C        0.05140    0.69303    0.47820    1.000
    C58      C        0.22430    0.64253    0.48450    1.000
    H29      H        0.20360    0.62320    0.42470    1.000
    C59      C        0.15780    0.68236    0.52504    1.000
    C60      C        0.32090    0.63091    0.53120    1.000
    H30      H        0.36640    0.60430    0.50280    1.000
    C61      C        0.18860    0.70885    0.61280    1.000
    H31      H        0.14350    0.73630    0.64060    1.000
    C62      C        0.35170    0.65783    0.61920    1.000
    H32      H        0.41810    0.65040    0.65080    1.000
    C63      C        0.28380    0.69608    0.66076    1.000
    C64      C        0.31100    0.72306    0.75656    1.000
    Cd5      Cd       0.34123    0.20953    0.42544    1.000
    O33      O        0.19871    0.17870    0.50073    1.000
    O34      O        0.34227    0.12086    0.53767    1.000
    O35      O        0.49689    0.76493    0.01324    1.000
    O36      O        0.51917    0.84473    0.90750    1.000
    O37      O        0.38001    0.90951    0.73535    1.000
    O38      O        0.27339    0.88748    0.82921    1.000
    O39      O        0.90104    0.76274    0.29086    1.000
    O40      O        0.74319    0.76899    0.30191    1.000
    C65      C        0.25200    0.12874    0.54332    1.000
    C66      C        0.20800    0.07558    0.60150    1.000
    C67      C        0.10690    0.07555    0.60200    1.000
    H33      H        0.06400    0.10900    0.56450    1.000
    C68      C        0.26950    0.02523    0.65520    1.000
    H34      H        0.33860    0.02460    0.65390    1.000
    C69      C        0.06820    0.02659    0.65740    1.000
    H35      H        0.99890    0.02670    0.65790    1.000
    C70      C        0.13070    0.97740    0.71200    1.000
    H36      H        0.10400    0.94460    0.75050    1.000
    C71      C        0.23150    0.97581    0.71073    1.000
    C72      C        0.30010    0.91917    0.76421    1.000
    C73      C        0.55140    0.80697    0.97820    1.000
    C74      C        0.72430    0.85747    0.98450    1.000
    H37      H        0.70360    0.87680    0.92470    1.000
    C75      C        0.65780    0.81764    0.02504    1.000
    C76      C        0.82090    0.86909    0.03120    1.000
    H38      H        0.86640    0.89570    0.00280    1.000
    C77      C        0.68860    0.79115    0.11280    1.000
    H39      H        0.64350    0.76370    0.14060    1.000
    C78      C        0.85170    0.84217    0.11920    1.000
    H40      H        0.91810    0.84960    0.15080    1.000
    C79      C        0.78380    0.80392    0.16076    1.000
    C80      C        0.81100    0.77694    0.25656    1.000
    Cd6      Cd       0.84123    0.70953    0.42544    1.000
    O41      O        0.69871    0.67870    0.50073    1.000
    O42      O        0.84227    0.62086    0.53767    1.000
    O43      O        0.99689    0.26493    0.01324    1.000
    O44      O        0.01917    0.34473    0.90750    1.000
    O45      O        0.88001    0.40951    0.73535    1.000
    O46      O        0.77339    0.38748    0.82921    1.000
    O47      O        0.40104    0.26274    0.29086    1.000
    O48      O        0.24319    0.26899    0.30191    1.000
    C81      C        0.75200    0.62874    0.54332    1.000
    C82      C        0.70800    0.57558    0.60150    1.000
    C83      C        0.60690    0.57555    0.60200    1.000
    H41      H        0.56400    0.60900    0.56450    1.000
    C84      C        0.76950    0.52523    0.65520    1.000
    H42      H        0.83860    0.52460    0.65390    1.000
    C85      C        0.56820    0.52659    0.65740    1.000
    H43      H        0.49890    0.52670    0.65790    1.000
    C86      C        0.63070    0.47740    0.71200    1.000
    H44      H        0.60400    0.44460    0.75050    1.000
    C87      C        0.73150    0.47581    0.71073    1.000
    C88      C        0.80010    0.41917    0.76421    1.000
    C89      C        0.05140    0.30697    0.97820    1.000
    C90      C        0.22430    0.35747    0.98450    1.000
    H45      H        0.20360    0.37680    0.92470    1.000
    C91      C        0.15780    0.31764    0.02504    1.000
    C92      C        0.32090    0.36909    0.03120    1.000
    H46      H        0.36640    0.39570    0.00280    1.000
    C93      C        0.18860    0.29115    0.11280    1.000
    H47      H        0.14350    0.26370    0.14060    1.000
    C94      C        0.35170    0.34217    0.11920    1.000
    H48      H        0.41810    0.34960    0.15080    1.000
    C95      C        0.28380    0.30392    0.16076    1.000
    C96      C        0.31100    0.27694    0.25656    1.000
    Cd7      Cd       0.65877    0.20953    0.07456    1.000
    O49      O        0.80129    0.17870    0.99927    1.000
    O50      O        0.65773    0.12086    0.96233    1.000
    O51      O        0.50311    0.76493    0.48676    1.000
    O52      O        0.48083    0.84473    0.59250    1.000
    O53      O        0.61999    0.90951    0.76465    1.000
    O54      O        0.72661    0.88748    0.67079    1.000
    O55      O        0.09896    0.76274    0.20914    1.000
    O56      O        0.25681    0.76899    0.19809    1.000
    C97      C        0.74800    0.12874    0.95668    1.000
    C98      C        0.79200    0.07558    0.89850    1.000
    C99      C        0.89310    0.07555    0.89800    1.000
    H49      H        0.93600    0.10900    0.93550    1.000
    C100     C        0.73050    0.02523    0.84480    1.000
    H50      H        0.66140    0.02460    0.84610    1.000
    C101     C        0.93180    0.02659    0.84260    1.000
    H51      H        0.00110    0.02670    0.84210    1.000
    C102     C        0.86930    0.97740    0.78800    1.000
    H52      H        0.89600    0.94460    0.74950    1.000
    C103     C        0.76850    0.97581    0.78927    1.000
    C104     C        0.69990    0.91917    0.73579    1.000
    C105     C        0.44860    0.80697    0.52180    1.000
    C106     C        0.27570    0.85747    0.51550    1.000
    H53      H        0.29640    0.87680    0.57530    1.000
    C107     C        0.34220    0.81764    0.47496    1.000
    C108     C        0.17910    0.86909    0.46880    1.000
    H54      H        0.13360    0.89570    0.49720    1.000
    C109     C        0.31140    0.79115    0.38720    1.000
    H55      H        0.35650    0.76370    0.35940    1.000
    C110     C        0.14830    0.84217    0.38080    1.000
    H56      H        0.08190    0.84960    0.34920    1.000
    C111     C        0.21620    0.80392    0.33924    1.000
    C112     C        0.18900    0.77694    0.24344    1.000
    Cd8      Cd       0.15877    0.70953    0.07456    1.000
    O57      O        0.30129    0.67870    0.99927    1.000
    O58      O        0.15773    0.62086    0.96233    1.000
    O59      O        0.00311    0.26493    0.48676    1.000
    O60      O        0.98083    0.34473    0.59250    1.000
    O61      O        0.11999    0.40951    0.76465    1.000
    O62      O        0.22661    0.38748    0.67079    1.000
    O63      O        0.59896    0.26274    0.20914    1.000
    O64      O        0.75681    0.26899    0.19809    1.000
    C113     C        0.24800    0.62874    0.95668    1.000
    C114     C        0.29200    0.57558    0.89850    1.000
    C115     C        0.39310    0.57555    0.89800    1.000
    H57      H        0.43600    0.60900    0.93550    1.000
    C116     C        0.23050    0.52523    0.84480    1.000
    H58      H        0.16140    0.52460    0.84610    1.000
    C117     C        0.43180    0.52659    0.84260    1.000
    H59      H        0.50110    0.52670    0.84210    1.000
    C118     C        0.36930    0.47740    0.78800    1.000
    H60      H        0.39600    0.44460    0.74950    1.000
    C119     C        0.26850    0.47581    0.78927    1.000
    C120     C        0.19990    0.41917    0.73579    1.000
    C121     C        0.94860    0.30697    0.52180    1.000
    C122     C        0.77570    0.35747    0.51550    1.000
    H61      H        0.79640    0.37680    0.57530    1.000
    C123     C        0.84220    0.31764    0.47496    1.000
    C124     C        0.67910    0.36909    0.46880    1.000
    H62      H        0.63360    0.39570    0.49720    1.000
    C125     C        0.81140    0.29115    0.38720    1.000
    H63      H        0.85650    0.26370    0.35940    1.000
    C126     C        0.64830    0.34217    0.38080    1.000
    H64      H        0.58190    0.34960    0.34920    1.000
    C127     C        0.71620    0.30392    0.33924    1.000
    C128     C        0.68900    0.27694    0.24344    1.000
    Cd9      Cd       0.50000    0.17252    0.25000    1.000
    Cd10     Cd       0.00000    0.67252    0.25000    1.000
    Cd11     Cd       0.50000    0.82748    0.75000    1.000
    Cd12     Cd       0.00000    0.32748    0.75000    1.000
