# CIF file generated by openbabel 3.1.0, see https://openbabel.org
data_I
_chemical_name_common 'image0'
_cell_length_a 5.4241
_cell_length_b 13.8293
_cell_length_c 11.1181
_cell_angle_alpha 90
_cell_angle_beta 102.79
_cell_angle_gamma 90
_space_group_name_H-M_alt 'P 1'
_space_group_name_Hall 'P 1'
loop_
    _symmetry_equiv_pos_as_xyz
    x,y,z
loop_
    _atom_site_label
    _atom_site_type_symbol
    _atom_site_fract_x
    _atom_site_fract_y
    _atom_site_fract_z
    _atom_site_occupancy
    O1       O        0.82390    0.04677    0.40884    1.000
    N1       N        0.67700    0.31769    0.09896    1.000
    O2       O        0.41950    0.08635    0.38962    1.000
    C1       C        0.63060    0.09647    0.36576    1.000
    C2       C        0.65320    0.17512    0.27395    1.000
    C3       C        0.83920    0.17284    0.20564    1.000
    H1       H        0.96340    0.12320    0.21860    1.000
    C4       C        0.50180    0.32024    0.16740    1.000
    H2       H        0.38490    0.37240    0.15530    1.000
    C5       C        0.83970    0.24413    0.11856    1.000
    H3       H        0.96310    0.24050    0.06990    1.000
    C6       C        0.48270    0.25137    0.25404    1.000
    H4       H        0.35440    0.25590    0.29970    1.000
    Li1      Li       0.18290    0.06560    0.48500    1.000
    O3       O        0.67610    0.54677    0.09116    1.000
    N2       N        0.82300    0.81769    0.40104    1.000
    O4       O        0.08050    0.58635    0.11038    1.000
    C7       C        0.86940    0.59647    0.13424    1.000
    C8       C        0.84680    0.67512    0.22605    1.000
    C9       C        0.66080    0.67284    0.29436    1.000
    H5       H        0.53660    0.62320    0.28140    1.000
    C10      C        0.99820    0.82024    0.33260    1.000
    H6       H        0.11510    0.87240    0.34470    1.000
    C11      C        0.66030    0.74413    0.38144    1.000
    H7       H        0.53690    0.74050    0.43010    1.000
    C12      C        0.01730    0.75137    0.24596    1.000
    H8       H        0.14560    0.75590    0.20030    1.000
    Li2      Li       0.31710    0.56560    0.01500    1.000
    O5       O        0.17610    0.95323    0.59116    1.000
    N3       N        0.32300    0.68231    0.90104    1.000
    O6       O        0.58050    0.91365    0.61038    1.000
    C13      C        0.36940    0.90353    0.63424    1.000
    C14      C        0.34680    0.82488    0.72605    1.000
    C15      C        0.16080    0.82716    0.79436    1.000
    H9       H        0.03660    0.87680    0.78140    1.000
    C16      C        0.49820    0.67976    0.83260    1.000
    H10      H        0.61510    0.62760    0.84470    1.000
    C17      C        0.16030    0.75587    0.88144    1.000
    H11      H        0.03690    0.75950    0.93010    1.000
    C18      C        0.51730    0.74863    0.74596    1.000
    H12      H        0.64560    0.74410    0.70030    1.000
    Li3      Li       0.81710    0.93440    0.51500    1.000
    O7       O        0.32390    0.45323    0.90884    1.000
    N4       N        0.17700    0.18231    0.59896    1.000
    O8       O        0.91950    0.41365    0.88962    1.000
    C19      C        0.13060    0.40353    0.86576    1.000
    C20      C        0.15320    0.32488    0.77395    1.000
    C21      C        0.33920    0.32716    0.70564    1.000
    H13      H        0.46340    0.37680    0.71860    1.000
    C22      C        0.00180    0.17976    0.66740    1.000
    H14      H        0.88490    0.12760    0.65530    1.000
    C23      C        0.33970    0.25587    0.61856    1.000
    H15      H        0.46310    0.25950    0.56990    1.000
    C24      C        0.98270    0.24863    0.75404    1.000
    H16      H        0.85440    0.24410    0.79970    1.000
    Li4      Li       0.68290    0.43440    0.98500    1.000
