data_functionalizedCrystal
_audit_creation_method	'EQeq! by Chris Wilmer'
_symmetry_space_group_name_H-M	'P1'
_symmetry_Int_Tables_number	1
_symmetry_cell_setting	triclinic
loop_
_symmetry_equiv_pos_as_xyz
  x,y,z
_cell_length_a	23.3823
_cell_length_b	23.3823
_cell_length_c	28.1857
_cell_angle_alpha	90
_cell_angle_beta	90
_cell_angle_gamma	90
loop_
_atom_site_label
_atom_site_type_symbol
_atom_site_fract_x
_atom_site_fract_y
_atom_site_fract_z
_atom_site_charge
Mof_Ag	Ag	0.55702	0.50306	0.47347	0.452
Mof_C 	C 	0.4039	0.44611	0.33128	-0.712
Mof_H 	H 	0.4229	0.4098	0.3337	0.208
Mof_H 	H 	0.4098	0.4617	0.3002	0.217
Mof_H 	H 	0.3636	0.441	0.3367	0.208
Mof_C 	C 	0.42745	0.4859	0.3673	0.235
Mof_C 	C 	0.42589	0.54517	0.36997	-0.156
Mof_C 	C 	0.45473	0.55893	0.41181	0.225
Mof_C 	C 	0.4647	0.61678	0.43245	-0.676
Mof_H 	H 	0.4707	0.6134	0.466	0.193
Mof_H 	H 	0.4319	0.6405	0.4266	0.205
Mof_H 	H 	0.4978	0.6337	0.418	0.205
Mof_C 	C 	0.29302	0.5815	0.35899	-0.709
Mof_H 	H 	0.2975	0.5945	0.3911	0.219
Mof_H 	H 	0.2912	0.5405	0.3586	0.208
Mof_H 	H 	0.2584	0.5969	0.3459	0.212
Mof_C 	C 	0.34249	0.60089	0.3302	0.23
Mof_C 	C 	0.40043	0.58491	0.33532	-0.154
Mof_C 	C 	0.42886	0.6151	0.30064	0.231
Mof_C 	C 	0.4911	0.6188	0.28899	-0.699
Mof_H 	H 	0.5064	0.5809	0.2855	0.209
Mof_H 	H 	0.5108	0.6382	0.3141	0.21
Mof_H 	H 	0.496	0.6395	0.2599	0.206
Mof_C 	C 	0.7105	0.31884	0.4378	-0.701
Mof_H 	H 	0.7101	0.2874	0.4597	0.208
Mof_H 	H 	0.7486	0.3242	0.4259	0.212
Mof_H 	H 	0.6852	0.3108	0.4118	0.208
Mof_C 	C 	0.69137	0.37196	0.4626	0.235
Mof_C 	C 	0.71957	0.40977	0.49242	-0.163
Mof_C 	C 	0.67936	0.45201	0.50352	0.247
Mof_C 	C 	0.68626	0.50409	0.53334	-0.736
Mof_H 	H 	0.6907	0.5369	0.5132	0.226
Mof_H 	H 	0.7195	0.5	0.5531	0.222
Mof_H 	H 	0.653	0.5089	0.5529	0.225
Mof_N 	N 	0.47346	0.51141	0.43339	-0.206
Mof_N 	N 	0.45615	0.46767	0.40538	-0.216
Mof_H 	H 	0.4629	0.4322	0.4114	0.078
Mof_N 	N 	0.38919	0.64547	0.27674	-0.21
Mof_H 	H 	0.3968	0.6672	0.253	0.085
Mof_N 	N 	0.33622	0.63778	0.29442	-0.181
Mof_N 	N 	0.62945	0.44096	0.48263	-0.191
Mof_N 	N 	0.63796	0.39189	0.45779	-0.211
Mof_H 	H 	0.6121	0.3755	0.4409	0.085
Mof_Ag	Ag	0.05702	0.00306	0.97347	0.437
Mof_C 	C 	0.9039	0.94611	0.83128	-0.733
Mof_H 	H 	0.9229	0.9098	0.8337	0.215
Mof_H 	H 	0.9098	0.9617	0.8002	0.227
Mof_H 	H 	0.8636	0.941	0.8367	0.217
Mof_C 	C 	0.92745	0.9859	0.8673	0.255
Mof_C 	C 	0.92589	0.04517	0.86997	-0.171
Mof_C 	C 	0.95473	0.05893	0.91181	0.23
Mof_C 	C 	0.9647	0.11678	0.93245	-0.681
Mof_H 	H 	0.9707	0.1134	0.966	0.196
Mof_H 	H 	0.9319	0.1405	0.9266	0.208
Mof_H 	H 	0.9978	0.1337	0.918	0.208
Mof_C 	C 	0.79302	0.0815	0.85899	-0.698
Mof_H 	H 	0.7975	0.0945	0.8911	0.216
Mof_H 	H 	0.7912	0.0405	0.8586	0.204
Mof_H 	H 	0.7584	0.0969	0.8459	0.209
Mof_C 	C 	0.84249	0.10089	0.8302	0.225
Mof_C 	C 	0.90043	0.08491	0.83532	-0.148
Mof_C 	C 	0.92886	0.1151	0.80064	0.226
Mof_C 	C 	0.9911	0.1188	0.78899	-0.692
Mof_H 	H 	0.0064	0.0809	0.7855	0.206
Mof_H 	H 	0.0108	0.1382	0.8141	0.207
Mof_H 	H 	0.996	0.1395	0.7599	0.204
Mof_C 	C 	0.2105	0.81884	0.9378	-0.702
Mof_H 	H 	0.2101	0.7874	0.9597	0.208
Mof_H 	H 	0.2486	0.8242	0.9259	0.212
Mof_H 	H 	0.1852	0.8108	0.9118	0.209
Mof_C 	C 	0.19137	0.87196	0.9626	0.237
Mof_C 	C 	0.21957	0.90977	0.99242	-0.165
Mof_C 	C 	0.17936	0.95201	0.00352	0.262
Mof_C 	C 	0.18626	0.00409	0.03334	-0.762
Mof_H 	H 	0.1907	0.0369	0.0132	0.233
Mof_H 	H 	0.2195	0	0.0531	0.227
Mof_H 	H 	0.153	0.0089	0.0529	0.23
Mof_N 	N 	0.97346	0.01141	0.93339	-0.211
Mof_N 	N 	0.95615	0.96767	0.90538	-0.216
Mof_H 	H 	0.9629	0.9322	0.9114	0.08
Mof_N 	N 	0.88919	0.14547	0.77674	-0.209
Mof_H 	H 	0.8968	0.1672	0.753	0.085
Mof_N 	N 	0.83622	0.13778	0.79442	-0.18
Mof_N 	N 	0.12945	0.94096	0.98263	-0.189
Mof_N 	N 	0.13796	0.89189	0.95779	-0.211
Mof_H 	H 	0.1121	0.8755	0.9409	0.086
Mof_Ag	Ag	0.94298	0.49694	0.97347	0.454
Mof_C 	C 	0.0961	0.55389	0.83128	-0.711
Mof_H 	H 	0.0771	0.5902	0.8337	0.209
Mof_H 	H 	0.0902	0.5383	0.8002	0.218
Mof_H 	H 	0.1364	0.559	0.8367	0.209
Mof_C 	C 	0.07255	0.5141	0.8673	0.236
Mof_C 	C 	0.07411	0.45483	0.86997	-0.155
Mof_C 	C 	0.04527	0.44107	0.91181	0.226
Mof_C 	C 	0.0353	0.38322	0.93245	-0.676
Mof_H 	H 	0.0293	0.3866	0.966	0.195
Mof_H 	H 	0.0681	0.3595	0.9266	0.207
Mof_H 	H 	0.0022	0.3663	0.918	0.206
Mof_C 	C 	0.20698	0.4185	0.85899	-0.708
Mof_H 	H 	0.2025	0.4055	0.8911	0.22
Mof_H 	H 	0.2088	0.4595	0.8586	0.209
Mof_H 	H 	0.2416	0.4031	0.8459	0.213
Mof_C 	C 	0.15751	0.39911	0.8302	0.231
Mof_C 	C 	0.09957	0.41509	0.83532	-0.154
Mof_C 	C 	0.07114	0.3849	0.80064	0.231
Mof_C 	C 	0.0089	0.3812	0.78899	-0.699
Mof_H 	H 	0.9936	0.4191	0.7855	0.209
Mof_H 	H 	0.9892	0.3618	0.8141	0.21
Mof_H 	H 	0.004	0.3605	0.7599	0.206
Mof_C 	C 	0.7895	0.68116	0.9378	-0.701
Mof_H 	H 	0.7899	0.7126	0.9597	0.208
Mof_H 	H 	0.7514	0.6758	0.9259	0.212
Mof_H 	H 	0.8148	0.6892	0.9118	0.208
Mof_C 	C 	0.80863	0.62804	0.9626	0.235
Mof_C 	C 	0.78043	0.59023	0.99242	-0.163
Mof_C 	C 	0.82064	0.54799	0.00352	0.247
Mof_C 	C 	0.81374	0.49591	0.03334	-0.736
Mof_H 	H 	0.8093	0.4631	0.0132	0.226
Mof_H 	H 	0.7805	0.5	0.0531	0.222
Mof_H 	H 	0.847	0.4911	0.0529	0.225
Mof_N 	N 	0.02654	0.48859	0.93339	-0.206
Mof_N 	N 	0.04385	0.53233	0.90538	-0.216
Mof_H 	H 	0.0371	0.5678	0.9114	0.078
Mof_N 	N 	0.11081	0.35453	0.77674	-0.21
Mof_H 	H 	0.1032	0.3328	0.753	0.085
Mof_N 	N 	0.16378	0.36222	0.79442	-0.181
Mof_N 	N 	0.87055	0.55904	0.98263	-0.191
Mof_N 	N 	0.86204	0.60811	0.95779	-0.211
Mof_H 	H 	0.8879	0.6245	0.9409	0.085
Mof_Ag	Ag	0.44298	0.99694	0.47347	0.471
Mof_C 	C 	0.5961	0.05389	0.33128	-0.69
Mof_H 	H 	0.5771	0.0902	0.3337	0.202
Mof_H 	H 	0.5902	0.0383	0.3002	0.21
Mof_H 	H 	0.6364	0.059	0.3367	0.201
Mof_C 	C 	0.57255	0.0141	0.3673	0.218
Mof_C 	C 	0.57411	0.95483	0.36997	-0.138
Mof_C 	C 	0.54527	0.94107	0.41181	0.221
Mof_C 	C 	0.5353	0.88322	0.43245	-0.67
Mof_H 	H 	0.5293	0.8866	0.466	0.193
Mof_H 	H 	0.5681	0.8595	0.4266	0.205
Mof_H 	H 	0.5022	0.8663	0.418	0.204
Mof_C 	C 	0.70698	0.9185	0.35899	-0.72
Mof_H 	H 	0.7025	0.9055	0.3911	0.224
Mof_H 	H 	0.7088	0.9595	0.3586	0.217
Mof_H 	H 	0.7416	0.9031	0.3459	0.218
Mof_C 	C 	0.65751	0.89911	0.3302	0.237
Mof_C 	C 	0.59957	0.91509	0.33532	-0.16
Mof_C 	C 	0.57114	0.8849	0.30064	0.236
Mof_C 	C 	0.5089	0.8812	0.28899	-0.706
Mof_H 	H 	0.4936	0.9191	0.2855	0.213
Mof_H 	H 	0.4892	0.8618	0.3141	0.212
Mof_H 	H 	0.504	0.8605	0.2599	0.208
Mof_C 	C 	0.2895	0.18116	0.4378	-0.697
Mof_H 	H 	0.2899	0.2126	0.4597	0.207
Mof_H 	H 	0.2514	0.1758	0.4259	0.211
Mof_H 	H 	0.3148	0.1892	0.4118	0.207
Mof_C 	C 	0.30863	0.12804	0.4626	0.232
Mof_C 	C 	0.28043	0.09023	0.49242	-0.154
Mof_C 	C 	0.32064	0.04799	0.50352	0.218
Mof_C 	C 	0.31374	0.99591	0.53334	-0.651
Mof_H 	H 	0.3093	0.9631	0.5132	0.203
Mof_H 	H 	0.2805	6.5525e-33	0.5531	0.19
Mof_H 	H 	0.347	0.9911	0.5529	0.202
Mof_N 	N 	0.52654	0.98859	0.43339	-0.201
Mof_N 	N 	0.54385	0.03233	0.40538	-0.217
Mof_H 	H 	0.5371	0.0678	0.4114	0.077
Mof_N 	N 	0.61081	0.85453	0.27674	-0.211
Mof_H 	H 	0.6032	0.8328	0.253	0.085
Mof_N 	N 	0.66378	0.86222	0.29442	-0.182
Mof_N 	N 	0.37055	0.05904	0.48263	-0.19
Mof_N 	N 	0.36204	0.10811	0.45779	-0.211
Mof_H 	H 	0.3879	0.1245	0.4409	0.083
Mof_Ag	Ag	0.74694	0.30702	0.72347	0.453
Mof_C 	C 	0.80389	0.1539	0.58128	-0.711
Mof_H 	H 	0.8402	0.1729	0.5837	0.209
Mof_H 	H 	0.7883	0.1598	0.5502	0.218
Mof_H 	H 	0.809	0.1136	0.5867	0.208
Mof_C 	C 	0.7641	0.17745	0.6173	0.236
Mof_C 	C 	0.70483	0.17589	0.61997	-0.155
Mof_C 	C 	0.69107	0.20473	0.66181	0.226
Mof_C 	C 	0.63322	0.2147	0.68245	-0.676
Mof_H 	H 	0.6366	0.2207	0.716	0.194
Mof_H 	H 	0.6095	0.1819	0.6766	0.207
Mof_H 	H 	0.6163	0.2478	0.668	0.206
Mof_C 	C 	0.6685	0.04302	0.60899	-0.697
Mof_H 	H 	0.6555	0.0475	0.6411	0.215
Mof_H 	H 	0.7095	0.0412	0.6086	0.204
Mof_H 	H 	0.6531	0.0084	0.5959	0.207
Mof_C 	C 	0.64911	0.09249	0.5802	0.227
Mof_C 	C 	0.66509	0.15043	0.58532	-0.152
Mof_C 	C 	0.6349	0.17886	0.55064	0.23
Mof_C 	C 	0.6312	0.2411	0.53899	-0.698
Mof_H 	H 	0.6691	0.2564	0.5355	0.209
Mof_H 	H 	0.6118	0.2608	0.5641	0.209
Mof_H 	H 	0.6105	0.246	0.5099	0.206
Mof_C 	C 	0.93116	0.4605	0.6878	-0.701
Mof_H 	H 	0.9626	0.4601	0.7097	0.208
Mof_H 	H 	0.9258	0.4986	0.6759	0.212
Mof_H 	H 	0.9392	0.4352	0.6618	0.208
Mof_C 	C 	0.87804	0.44137	0.7126	0.235
Mof_C 	C 	0.84023	0.46957	0.74242	-0.163
Mof_C 	C 	0.79799	0.42936	0.75352	0.247
Mof_C 	C 	0.74591	0.43626	0.78334	-0.736
Mof_H 	H 	0.7131	0.4407	0.7632	0.226
Mof_H 	H 	0.75	0.4695	0.8031	0.222
Mof_H 	H 	0.7411	0.403	0.8029	0.225
Mof_N 	N 	0.73859	0.22346	0.68339	-0.207
Mof_N 	N 	0.78233	0.20615	0.65538	-0.216
Mof_H 	H 	0.8178	0.2129	0.6614	0.079
Mof_N 	N 	0.60453	0.13919	0.52674	-0.21
Mof_H 	H 	0.5828	0.1468	0.503	0.085
Mof_N 	N 	0.61222	0.08622	0.54442	-0.18
Mof_N 	N 	0.80904	0.37945	0.73263	-0.191
Mof_N 	N 	0.85811	0.38796	0.70779	-0.211
Mof_H 	H 	0.8745	0.3621	0.6909	0.085
Mof_Ag	Ag	0.24694	0.80702	0.22347	0.453
Mof_C 	C 	0.30389	0.6539	0.08128	-0.711
Mof_H 	H 	0.3402	0.6729	0.0837	0.209
Mof_H 	H 	0.2883	0.6598	0.0502	0.218
Mof_H 	H 	0.309	0.6136	0.0867	0.209
Mof_C 	C 	0.2641	0.67745	0.1173	0.236
Mof_C 	C 	0.20483	0.67589	0.11997	-0.155
Mof_C 	C 	0.19107	0.70473	0.16181	0.225
Mof_C 	C 	0.13322	0.7147	0.18245	-0.675
Mof_H 	H 	0.1366	0.7207	0.216	0.194
Mof_H 	H 	0.1095	0.6819	0.1766	0.206
Mof_H 	H 	0.1163	0.7478	0.168	0.206
Mof_C 	C 	0.1685	0.54302	0.10899	-0.708
Mof_H 	H 	0.1555	0.5475	0.1411	0.22
Mof_H 	H 	0.2095	0.5412	0.1086	0.209
Mof_H 	H 	0.1531	0.5084	0.0959	0.213
Mof_C 	C 	0.14911	0.59249	0.0802	0.231
Mof_C 	C 	0.16509	0.65043	0.08532	-0.154
Mof_C 	C 	0.1349	0.67886	0.05064	0.231
Mof_C 	C 	0.1312	0.7411	0.03899	-0.699
Mof_H 	H 	0.1691	0.7564	0.0355	0.209
Mof_H 	H 	0.1118	0.7608	0.0641	0.21
Mof_H 	H 	0.1105	0.746	0.0099	0.206
Mof_C 	C 	0.43116	0.9605	0.1878	-0.707
Mof_H 	H 	0.4626	0.9601	0.2097	0.212
Mof_H 	H 	0.4258	0.9986	0.1759	0.218
Mof_H 	H 	0.4392	0.9352	0.1618	0.211
Mof_C 	C 	0.37804	0.94137	0.2126	0.236
Mof_C 	C 	0.34023	0.96957	0.24242	-0.153
Mof_C 	C 	0.29799	0.92936	0.25352	0.247
Mof_C 	C 	0.24591	0.93626	0.28334	-0.738
Mof_H 	H 	0.2131	0.9407	0.2632	0.228
Mof_H 	H 	0.25	0.9695	0.3031	0.226
Mof_H 	H 	0.2411	0.903	0.3029	0.226
Mof_N 	N 	0.23859	0.72346	0.18339	-0.206
Mof_N 	N 	0.28233	0.70615	0.15538	-0.216
Mof_H 	H 	0.3178	0.7129	0.1614	0.078
Mof_N 	N 	0.10453	0.63919	0.02674	-0.21
Mof_H 	H 	0.0828	0.6468	0.003	0.085
Mof_N 	N 	0.11222	0.58622	0.04442	-0.181
Mof_N 	N 	0.30904	0.87945	0.23263	-0.19
Mof_N 	N 	0.35811	0.88796	0.20779	-0.211
Mof_H 	H 	0.3745	0.8621	0.1909	0.085
Mof_Ag	Ag	0.75306	0.69298	0.22347	0.453
Mof_C 	C 	0.69611	0.8461	0.08128	-0.713
Mof_H 	H 	0.6598	0.8271	0.0837	0.209
Mof_H 	H 	0.7117	0.8402	0.0502	0.22
Mof_H 	H 	0.691	0.8864	0.0867	0.21
Mof_C 	C 	0.7359	0.82255	0.1173	0.237
Mof_C 	C 	0.79517	0.82411	0.11997	-0.154
Mof_C 	C 	0.80893	0.79527	0.16181	0.225
Mof_C 	C 	0.86678	0.7853	0.18245	-0.675
Mof_H 	H 	0.8634	0.7793	0.216	0.194
Mof_H 	H 	0.8905	0.8181	0.1766	0.206
Mof_H 	H 	0.8837	0.7522	0.168	0.206
Mof_C 	C 	0.8315	0.95698	0.10899	-0.722
Mof_H 	H 	0.8445	0.9525	0.1411	0.226
Mof_H 	H 	0.7905	0.9588	0.1086	0.217
Mof_H 	H 	0.8469	0.9916	0.0959	0.221
Mof_C 	C 	0.85089	0.90751	0.0802	0.237
Mof_C 	C 	0.83491	0.84957	0.08532	-0.156
Mof_C 	C 	0.8651	0.82114	0.05064	0.232
Mof_C 	C 	0.8688	0.7589	0.03899	-0.7
Mof_H 	H 	0.8309	0.7436	0.0355	0.21
Mof_H 	H 	0.8882	0.7392	0.0641	0.21
Mof_H 	H 	0.8895	0.754	0.0099	0.207
Mof_C 	C 	0.56884	0.5395	0.1878	-0.701
Mof_H 	H 	0.5374	0.5399	0.2097	0.208
Mof_H 	H 	0.5742	0.5014	0.1759	0.212
Mof_H 	H 	0.5608	0.5648	0.1618	0.208
Mof_C 	C 	0.62196	0.55863	0.2126	0.235
Mof_C 	C 	0.65977	0.53043	0.24242	-0.163
Mof_C 	C 	0.70201	0.57064	0.25352	0.247
Mof_C 	C 	0.75409	0.56374	0.28334	-0.736
Mof_H 	H 	0.7869	0.5593	0.2632	0.226
Mof_H 	H 	0.75	0.5305	0.3031	0.222
Mof_H 	H 	0.7589	0.597	0.3029	0.225
Mof_N 	N 	0.76141	0.77654	0.18339	-0.206
Mof_N 	N 	0.71767	0.79385	0.15538	-0.216
Mof_H 	H 	0.6822	0.7871	0.1614	0.078
Mof_N 	N 	0.89547	0.86081	0.02674	-0.21
Mof_H 	H 	0.9172	0.8532	0.003	0.085
Mof_N 	N 	0.88778	0.91378	0.04442	-0.182
Mof_N 	N 	0.69096	0.62055	0.23263	-0.191
Mof_N 	N 	0.64189	0.61204	0.20779	-0.211
Mof_H 	H 	0.6255	0.6379	0.1909	0.085
Mof_Ag	Ag	0.25306	0.19298	0.72347	0.453
Mof_C 	C 	0.19611	0.3461	0.58128	-0.711
Mof_H 	H 	0.1598	0.3271	0.5837	0.209
Mof_H 	H 	0.2117	0.3402	0.5502	0.218
Mof_H 	H 	0.191	0.3864	0.5867	0.209
Mof_C 	C 	0.2359	0.32255	0.6173	0.236
Mof_C 	C 	0.29517	0.32411	0.61997	-0.155
Mof_C 	C 	0.30893	0.29527	0.66181	0.226
Mof_C 	C 	0.36678	0.2853	0.68245	-0.676
Mof_H 	H 	0.3634	0.2793	0.716	0.194
Mof_H 	H 	0.3905	0.3181	0.6766	0.207
Mof_H 	H 	0.3837	0.2522	0.668	0.206
Mof_C 	C 	0.3315	0.45698	0.60899	-0.708
Mof_H 	H 	0.3445	0.4525	0.6411	0.22
Mof_H 	H 	0.2905	0.4588	0.6086	0.209
Mof_H 	H 	0.3469	0.4916	0.5959	0.213
Mof_C 	C 	0.35089	0.40751	0.5802	0.231
Mof_C 	C 	0.33491	0.34957	0.58532	-0.154
Mof_C 	C 	0.3651	0.32114	0.55064	0.231
Mof_C 	C 	0.3688	0.2589	0.53899	-0.699
Mof_H 	H 	0.3309	0.2436	0.5355	0.209
Mof_H 	H 	0.3882	0.2392	0.5641	0.21
Mof_H 	H 	0.3895	0.254	0.5099	0.206
Mof_C 	C 	0.06884	0.0395	0.6878	-0.695
Mof_H 	H 	0.0374	0.0399	0.7097	0.205
Mof_H 	H 	0.0742	0.0014	0.6759	0.206
Mof_H 	H 	0.0608	0.0648	0.6618	0.205
Mof_C 	C 	0.12196	0.05863	0.7126	0.234
Mof_C 	C 	0.15977	0.03043	0.74242	-0.173
Mof_C 	C 	0.20201	0.07064	0.75352	0.248
Mof_C 	C 	0.25409	0.06374	0.78334	-0.734
Mof_H 	H 	0.2869	0.0593	0.7632	0.223
Mof_H 	H 	0.25	0.0305	0.8031	0.219
Mof_H 	H 	0.2589	0.097	0.8029	0.224
Mof_N 	N 	0.26141	0.27654	0.68339	-0.206
Mof_N 	N 	0.21767	0.29385	0.65538	-0.216
Mof_H 	H 	0.1822	0.2871	0.6614	0.078
Mof_N 	N 	0.39547	0.36081	0.52674	-0.21
Mof_H 	H 	0.4172	0.3532	0.503	0.085
Mof_N 	N 	0.38778	0.41378	0.54442	-0.181
Mof_N 	N 	0.19096	0.12055	0.73263	-0.191
Mof_N 	N 	0.14189	0.11204	0.70779	-0.211
Mof_H 	H 	0.1255	0.1379	0.6909	0.084
Mof_Ag	Ag	0.94298	0.50306	0.52653	0.454
Mof_C 	C 	0.0961	0.44611	0.66872	-0.711
Mof_H 	H 	0.0771	0.4098	0.6663	0.209
Mof_H 	H 	0.0902	0.4617	0.6998	0.218
Mof_H 	H 	0.1364	0.441	0.6633	0.209
Mof_C 	C 	0.07255	0.4859	0.6327	0.236
Mof_C 	C 	0.07411	0.54517	0.63003	-0.155
Mof_C 	C 	0.04527	0.55893	0.58819	0.226
Mof_C 	C 	0.0353	0.61678	0.56755	-0.676
Mof_H 	H 	0.0293	0.6134	0.534	0.194
Mof_H 	H 	0.0681	0.6405	0.5734	0.207
Mof_H 	H 	0.0022	0.6337	0.582	0.206
Mof_C 	C 	0.20698	0.5815	0.64101	-0.708
Mof_H 	H 	0.2025	0.5945	0.6089	0.22
Mof_H 	H 	0.2088	0.5405	0.6414	0.209
Mof_H 	H 	0.2416	0.5969	0.6541	0.213
Mof_C 	C 	0.15751	0.60089	0.6698	0.231
Mof_C 	C 	0.09957	0.58491	0.66468	-0.154
Mof_C 	C 	0.07114	0.6151	0.69936	0.231
Mof_C 	C 	0.0089	0.6188	0.71101	-0.699
Mof_H 	H 	0.9936	0.5809	0.7145	0.209
Mof_H 	H 	0.9892	0.6382	0.6859	0.21
Mof_H 	H 	0.004	0.6395	0.7401	0.206
Mof_C 	C 	0.7895	0.31884	0.5622	-0.701
Mof_H 	H 	0.7899	0.2874	0.5403	0.208
Mof_H 	H 	0.7514	0.3242	0.5741	0.212
Mof_H 	H 	0.8148	0.3108	0.5882	0.208
Mof_C 	C 	0.80863	0.37196	0.5374	0.235
Mof_C 	C 	0.78043	0.40977	0.50758	-0.163
Mof_C 	C 	0.82064	0.45201	0.49648	0.247
Mof_C 	C 	0.81374	0.50409	0.46666	-0.736
Mof_H 	H 	0.8093	0.5369	0.4868	0.226
Mof_H 	H 	0.7805	0.5	0.4469	0.222
Mof_H 	H 	0.847	0.5089	0.4471	0.225
Mof_N 	N 	0.02654	0.51141	0.56661	-0.206
Mof_N 	N 	0.04385	0.46767	0.59462	-0.216
Mof_H 	H 	0.0371	0.4322	0.5886	0.078
Mof_N 	N 	0.11081	0.64547	0.72326	-0.21
Mof_H 	H 	0.1032	0.6672	0.747	0.085
Mof_N 	N 	0.16378	0.63778	0.70558	-0.181
Mof_N 	N 	0.87055	0.44096	0.51737	-0.191
Mof_N 	N 	0.86204	0.39189	0.54221	-0.211
Mof_H 	H 	0.8879	0.3755	0.5591	0.085
Mof_Ag	Ag	0.44298	0.00306	0.02653	0.437
Mof_C 	C 	0.5961	0.94611	0.16872	-0.733
Mof_H 	H 	0.5771	0.9098	0.1663	0.215
Mof_H 	H 	0.5902	0.9617	0.1998	0.227
Mof_H 	H 	0.6364	0.941	0.1633	0.217
Mof_C 	C 	0.57255	0.9859	0.1327	0.255
Mof_C 	C 	0.57411	0.04517	0.13003	-0.171
Mof_C 	C 	0.54527	0.05893	0.08819	0.23
Mof_C 	C 	0.5353	0.11678	0.06755	-0.681
Mof_H 	H 	0.5293	0.1134	0.034	0.195
Mof_H 	H 	0.5681	0.1405	0.0734	0.208
Mof_H 	H 	0.5022	0.1337	0.082	0.207
Mof_C 	C 	0.70698	0.0815	0.14101	-0.697
Mof_H 	H 	0.7025	0.0945	0.1089	0.216
Mof_H 	H 	0.7088	0.0405	0.1414	0.203
Mof_H 	H 	0.7416	0.0969	0.1541	0.209
Mof_C 	C 	0.65751	0.10089	0.1698	0.225
Mof_C 	C 	0.59957	0.08491	0.16468	-0.148
Mof_C 	C 	0.57114	0.1151	0.19936	0.226
Mof_C 	C 	0.5089	0.1188	0.21101	-0.692
Mof_H 	H 	0.4936	0.0809	0.2145	0.205
Mof_H 	H 	0.4892	0.1382	0.1859	0.207
Mof_H 	H 	0.504	0.1395	0.2401	0.204
Mof_C 	C 	0.2895	0.81884	0.0622	-0.702
Mof_H 	H 	0.2899	0.7874	0.0403	0.208
Mof_H 	H 	0.2514	0.8242	0.0741	0.212
Mof_H 	H 	0.3148	0.8108	0.0882	0.209
Mof_C 	C 	0.30863	0.87196	0.0374	0.237
Mof_C 	C 	0.28043	0.90977	0.00758	-0.165
Mof_C 	C 	0.32064	0.95201	0.99648	0.262
Mof_C 	C 	0.31374	0.00409	0.96666	-0.762
Mof_H 	H 	0.3093	0.0369	0.9868	0.233
Mof_H 	H 	0.2805	0	0.9469	0.227
Mof_H 	H 	0.347	0.0089	0.9471	0.23
Mof_N 	N 	0.52654	0.01141	0.06661	-0.212
Mof_N 	N 	0.54385	0.96767	0.09462	-0.216
Mof_H 	H 	0.5371	0.9322	0.0886	0.08
Mof_N 	N 	0.61081	0.14547	0.22326	-0.209
Mof_H 	H 	0.6032	0.1672	0.247	0.085
Mof_N 	N 	0.66378	0.13778	0.20558	-0.18
Mof_N 	N 	0.37055	0.94096	0.01737	-0.189
Mof_N 	N 	0.36204	0.89189	0.04221	-0.211
Mof_H 	H 	0.3879	0.8755	0.0591	0.086
Mof_Ag	Ag	0.55702	0.49694	0.02653	0.454
Mof_C 	C 	0.4039	0.55389	0.16872	-0.711
Mof_H 	H 	0.4229	0.5902	0.1663	0.209
Mof_H 	H 	0.4098	0.5383	0.1998	0.218
Mof_H 	H 	0.3636	0.559	0.1633	0.209
Mof_C 	C 	0.42745	0.5141	0.1327	0.236
Mof_C 	C 	0.42589	0.45483	0.13003	-0.155
Mof_C 	C 	0.45473	0.44107	0.08819	0.226
Mof_C 	C 	0.4647	0.38322	0.06755	-0.676
Mof_H 	H 	0.4707	0.3866	0.034	0.194
Mof_H 	H 	0.4319	0.3595	0.0734	0.207
Mof_H 	H 	0.4978	0.3663	0.082	0.206
Mof_C 	C 	0.29302	0.4185	0.14101	-0.708
Mof_H 	H 	0.2975	0.4055	0.1089	0.22
Mof_H 	H 	0.2912	0.4595	0.1414	0.209
Mof_H 	H 	0.2584	0.4031	0.1541	0.213
Mof_C 	C 	0.34249	0.39911	0.1698	0.231
Mof_C 	C 	0.40043	0.41509	0.16468	-0.154
Mof_C 	C 	0.42886	0.3849	0.19936	0.231
Mof_C 	C 	0.4911	0.3812	0.21101	-0.699
Mof_H 	H 	0.5064	0.4191	0.2145	0.209
Mof_H 	H 	0.5108	0.3618	0.1859	0.21
Mof_H 	H 	0.496	0.3605	0.2401	0.206
Mof_C 	C 	0.7105	0.68116	0.0622	-0.701
Mof_H 	H 	0.7101	0.7126	0.0403	0.208
Mof_H 	H 	0.7486	0.6758	0.0741	0.212
Mof_H 	H 	0.6852	0.6892	0.0882	0.208
Mof_C 	C 	0.69137	0.62804	0.0374	0.235
Mof_C 	C 	0.71957	0.59023	0.00758	-0.163
Mof_C 	C 	0.67936	0.54799	0.99648	0.247
Mof_C 	C 	0.68626	0.49591	0.96666	-0.736
Mof_H 	H 	0.6907	0.4631	0.9868	0.226
Mof_H 	H 	0.7195	0.5	0.9469	0.222
Mof_H 	H 	0.653	0.4911	0.9471	0.225
Mof_N 	N 	0.47346	0.48859	0.06661	-0.206
Mof_N 	N 	0.45615	0.53233	0.09462	-0.216
Mof_H 	H 	0.4629	0.5678	0.0886	0.078
Mof_N 	N 	0.38919	0.35453	0.22326	-0.21
Mof_H 	H 	0.3968	0.3328	0.247	0.085
Mof_N 	N 	0.33622	0.36222	0.20558	-0.181
Mof_N 	N 	0.62945	0.55904	0.01737	-0.191
Mof_N 	N 	0.63796	0.60811	0.04221	-0.211
Mof_H 	H 	0.6121	0.6245	0.0591	0.085
Mof_Ag	Ag	0.05702	0.99694	0.52653	0.471
Mof_C 	C 	0.9039	0.05389	0.66872	-0.69
Mof_H 	H 	0.9229	0.0902	0.6663	0.202
Mof_H 	H 	0.9098	0.0383	0.6998	0.21
Mof_H 	H 	0.8636	0.059	0.6633	0.201
Mof_C 	C 	0.92745	0.0141	0.6327	0.218
Mof_C 	C 	0.92589	0.95483	0.63003	-0.138
Mof_C 	C 	0.95473	0.94107	0.58819	0.221
Mof_C 	C 	0.9647	0.88322	0.56755	-0.67
Mof_H 	H 	0.9707	0.8866	0.534	0.194
Mof_H 	H 	0.9319	0.8595	0.5734	0.205
Mof_H 	H 	0.9978	0.8663	0.582	0.204
Mof_C 	C 	0.79302	0.9185	0.64101	-0.72
Mof_H 	H 	0.7975	0.9055	0.6089	0.224
Mof_H 	H 	0.7912	0.9595	0.6414	0.217
Mof_H 	H 	0.7584	0.9031	0.6541	0.217
Mof_C 	C 	0.84249	0.89911	0.6698	0.237
Mof_C 	C 	0.90043	0.91509	0.66468	-0.16
Mof_C 	C 	0.92886	0.8849	0.69936	0.235
Mof_C 	C 	0.9911	0.8812	0.71101	-0.706
Mof_H 	H 	0.0064	0.9191	0.7145	0.213
Mof_H 	H 	0.0108	0.8618	0.6859	0.212
Mof_H 	H 	0.996	0.8605	0.7401	0.208
Mof_C 	C 	0.2105	0.18116	0.5622	-0.697
Mof_H 	H 	0.2101	0.2126	0.5403	0.207
Mof_H 	H 	0.2486	0.1758	0.5741	0.211
Mof_H 	H 	0.1852	0.1892	0.5882	0.207
Mof_C 	C 	0.19137	0.12804	0.5374	0.232
Mof_C 	C 	0.21957	0.09023	0.50758	-0.154
Mof_C 	C 	0.17936	0.04799	0.49648	0.218
Mof_C 	C 	0.18626	0.99591	0.46666	-0.651
Mof_H 	H 	0.1907	0.9631	0.4868	0.203
Mof_H 	H 	0.2195	0	0.4469	0.19
Mof_H 	H 	0.153	0.9911	0.4471	0.202
Mof_N 	N 	0.97346	0.98859	0.56661	-0.201
Mof_N 	N 	0.95615	0.03233	0.59462	-0.217
Mof_H 	H 	0.9629	0.0678	0.5886	0.077
Mof_N 	N 	0.88919	0.85453	0.72326	-0.211
Mof_H 	H 	0.8968	0.8328	0.747	0.085
Mof_N 	N 	0.83622	0.86222	0.70558	-0.182
Mof_N 	N 	0.12945	0.05904	0.51737	-0.19
Mof_N 	N 	0.13796	0.10811	0.54221	-0.211
Mof_H 	H 	0.1121	0.1245	0.5591	0.083
Mof_Ag	Ag	0.75306	0.30702	0.27653	0.453
Mof_C 	C 	0.69611	0.1539	0.41872	-0.711
Mof_H 	H 	0.6598	0.1729	0.4163	0.209
Mof_H 	H 	0.7117	0.1598	0.4498	0.218
Mof_H 	H 	0.691	0.1136	0.4133	0.208
Mof_C 	C 	0.7359	0.17745	0.3827	0.236
Mof_C 	C 	0.79517	0.17589	0.38003	-0.155
Mof_C 	C 	0.80893	0.20473	0.33819	0.226
Mof_C 	C 	0.86678	0.2147	0.31755	-0.676
Mof_H 	H 	0.8634	0.2207	0.284	0.195
Mof_H 	H 	0.8905	0.1819	0.3234	0.207
Mof_H 	H 	0.8837	0.2478	0.332	0.206
Mof_C 	C 	0.8315	0.04302	0.39101	-0.697
Mof_H 	H 	0.8445	0.0475	0.3589	0.215
Mof_H 	H 	0.7905	0.0412	0.3914	0.204
Mof_H 	H 	0.8469	0.0084	0.4041	0.207
Mof_C 	C 	0.85089	0.09249	0.4198	0.227
Mof_C 	C 	0.83491	0.15043	0.41468	-0.152
Mof_C 	C 	0.8651	0.17886	0.44936	0.23
Mof_C 	C 	0.8688	0.2411	0.46101	-0.698
Mof_H 	H 	0.8309	0.2564	0.4645	0.209
Mof_H 	H 	0.8882	0.2608	0.4359	0.209
Mof_H 	H 	0.8895	0.246	0.4901	0.206
Mof_C 	C 	0.56884	0.4605	0.3122	-0.701
Mof_H 	H 	0.5374	0.4601	0.2903	0.208
Mof_H 	H 	0.5742	0.4986	0.3241	0.212
Mof_H 	H 	0.5608	0.4352	0.3382	0.208
Mof_C 	C 	0.62196	0.44137	0.2874	0.235
Mof_C 	C 	0.65977	0.46957	0.25758	-0.163
Mof_C 	C 	0.70201	0.42936	0.24648	0.247
Mof_C 	C 	0.75409	0.43626	0.21666	-0.736
Mof_H 	H 	0.7869	0.4407	0.2368	0.226
Mof_H 	H 	0.75	0.4695	0.1969	0.222
Mof_H 	H 	0.7589	0.403	0.1971	0.225
Mof_N 	N 	0.76141	0.22346	0.31661	-0.207
Mof_N 	N 	0.71767	0.20615	0.34462	-0.216
Mof_H 	H 	0.6822	0.2129	0.3386	0.078
Mof_N 	N 	0.89547	0.13919	0.47326	-0.21
Mof_H 	H 	0.9172	0.1468	0.497	0.085
Mof_N 	N 	0.88778	0.08622	0.45558	-0.18
Mof_N 	N 	0.69096	0.37945	0.26737	-0.191
Mof_N 	N 	0.64189	0.38796	0.29221	-0.211
Mof_H 	H 	0.6255	0.3621	0.3091	0.085
Mof_Ag	Ag	0.25306	0.80702	0.77653	0.453
Mof_C 	C 	0.19611	0.6539	0.91872	-0.711
Mof_H 	H 	0.1598	0.6729	0.9163	0.209
Mof_H 	H 	0.2117	0.6598	0.9498	0.218
Mof_H 	H 	0.191	0.6136	0.9133	0.209
Mof_C 	C 	0.2359	0.67745	0.8827	0.236
Mof_C 	C 	0.29517	0.67589	0.88003	-0.155
Mof_C 	C 	0.30893	0.70473	0.83819	0.225
Mof_C 	C 	0.36678	0.7147	0.81755	-0.675
Mof_H 	H 	0.3634	0.7207	0.784	0.194
Mof_H 	H 	0.3905	0.6819	0.8234	0.206
Mof_H 	H 	0.3837	0.7478	0.832	0.206
Mof_C 	C 	0.3315	0.54302	0.89101	-0.708
Mof_H 	H 	0.3445	0.5475	0.8589	0.22
Mof_H 	H 	0.2905	0.5412	0.8914	0.209
Mof_H 	H 	0.3469	0.5084	0.9041	0.213
Mof_C 	C 	0.35089	0.59249	0.9198	0.231
Mof_C 	C 	0.33491	0.65043	0.91468	-0.154
Mof_C 	C 	0.3651	0.67886	0.94936	0.231
Mof_C 	C 	0.3688	0.7411	0.96101	-0.699
Mof_H 	H 	0.3309	0.7564	0.9645	0.209
Mof_H 	H 	0.3882	0.7608	0.9359	0.21
Mof_H 	H 	0.3895	0.746	0.9901	0.206
Mof_C 	C 	0.06884	0.9605	0.8122	-0.707
Mof_H 	H 	0.0374	0.9601	0.7903	0.212
Mof_H 	H 	0.0742	0.9986	0.8241	0.218
Mof_H 	H 	0.0608	0.9352	0.8382	0.211
Mof_C 	C 	0.12196	0.94137	0.7874	0.236
Mof_C 	C 	0.15977	0.96957	0.75758	-0.153
Mof_C 	C 	0.20201	0.92936	0.74648	0.247
Mof_C 	C 	0.25409	0.93626	0.71666	-0.738
Mof_H 	H 	0.2869	0.9407	0.7368	0.228
Mof_H 	H 	0.25	0.9695	0.6969	0.226
Mof_H 	H 	0.2589	0.903	0.6971	0.226
Mof_N 	N 	0.26141	0.72346	0.81661	-0.206
Mof_N 	N 	0.21767	0.70615	0.84462	-0.216
Mof_H 	H 	0.1822	0.7129	0.8386	0.078
Mof_N 	N 	0.39547	0.63919	0.97326	-0.21
Mof_H 	H 	0.4172	0.6468	0.997	0.085
Mof_N 	N 	0.38778	0.58622	0.95558	-0.181
Mof_N 	N 	0.19096	0.87945	0.76737	-0.19
Mof_N 	N 	0.14189	0.88796	0.79221	-0.211
Mof_H 	H 	0.1255	0.8621	0.8091	0.085
Mof_Ag	Ag	0.74694	0.69298	0.77653	0.453
Mof_C 	C 	0.80389	0.8461	0.91872	-0.713
Mof_H 	H 	0.8402	0.8271	0.9163	0.209
Mof_H 	H 	0.7883	0.8402	0.9498	0.22
Mof_H 	H 	0.809	0.8864	0.9133	0.21
Mof_C 	C 	0.7641	0.82255	0.8827	0.237
Mof_C 	C 	0.70483	0.82411	0.88003	-0.154
Mof_C 	C 	0.69107	0.79527	0.83819	0.225
Mof_C 	C 	0.63322	0.7853	0.81755	-0.675
Mof_H 	H 	0.6366	0.7793	0.784	0.194
Mof_H 	H 	0.6095	0.8181	0.8234	0.206
Mof_H 	H 	0.6163	0.7522	0.832	0.206
Mof_C 	C 	0.6685	0.95698	0.89101	-0.722
Mof_H 	H 	0.6555	0.9525	0.8589	0.226
Mof_H 	H 	0.7095	0.9588	0.8914	0.217
Mof_H 	H 	0.6531	0.9916	0.9041	0.221
Mof_C 	C 	0.64911	0.90751	0.9198	0.237
Mof_C 	C 	0.66509	0.84957	0.91468	-0.156
Mof_C 	C 	0.6349	0.82114	0.94936	0.232
Mof_C 	C 	0.6312	0.7589	0.96101	-0.7
Mof_H 	H 	0.6691	0.7436	0.9645	0.21
Mof_H 	H 	0.6118	0.7392	0.9359	0.21
Mof_H 	H 	0.6105	0.754	0.9901	0.206
Mof_C 	C 	0.93116	0.5395	0.8122	-0.701
Mof_H 	H 	0.9626	0.5399	0.7903	0.208
Mof_H 	H 	0.9258	0.5014	0.8241	0.212
Mof_H 	H 	0.9392	0.5648	0.8382	0.208
Mof_C 	C 	0.87804	0.55863	0.7874	0.235
Mof_C 	C 	0.84023	0.53043	0.75758	-0.163
Mof_C 	C 	0.79799	0.57064	0.74648	0.247
Mof_C 	C 	0.74591	0.56374	0.71666	-0.736
Mof_H 	H 	0.7131	0.5593	0.7368	0.226
Mof_H 	H 	0.75	0.5305	0.6969	0.222
Mof_H 	H 	0.7411	0.597	0.6971	0.225
Mof_N 	N 	0.73859	0.77654	0.81661	-0.206
Mof_N 	N 	0.78233	0.79385	0.84462	-0.216
Mof_H 	H 	0.8178	0.7871	0.8386	0.078
Mof_N 	N 	0.60453	0.86081	0.97326	-0.21
Mof_H 	H 	0.5828	0.8532	0.997	0.085
Mof_N 	N 	0.61222	0.91378	0.95558	-0.182
Mof_N 	N 	0.80904	0.62055	0.76737	-0.191
Mof_N 	N 	0.85811	0.61204	0.79221	-0.211
Mof_H 	H 	0.8745	0.6379	0.8091	0.085
Mof_Ag	Ag	0.24694	0.19298	0.27653	0.453
Mof_C 	C 	0.30389	0.3461	0.41872	-0.711
Mof_H 	H 	0.3402	0.3271	0.4163	0.209
Mof_H 	H 	0.2883	0.3402	0.4498	0.218
Mof_H 	H 	0.309	0.3864	0.4133	0.209
Mof_C 	C 	0.2641	0.32255	0.3827	0.236
Mof_C 	C 	0.20483	0.32411	0.38003	-0.155
Mof_C 	C 	0.19107	0.29527	0.33819	0.226
Mof_C 	C 	0.13322	0.2853	0.31755	-0.676
Mof_H 	H 	0.1366	0.2793	0.284	0.195
Mof_H 	H 	0.1095	0.3181	0.3234	0.207
Mof_H 	H 	0.1163	0.2522	0.332	0.206
Mof_C 	C 	0.1685	0.45698	0.39101	-0.708
Mof_H 	H 	0.1555	0.4525	0.3589	0.22
Mof_H 	H 	0.2095	0.4588	0.3914	0.209
Mof_H 	H 	0.1531	0.4916	0.4041	0.213
Mof_C 	C 	0.14911	0.40751	0.4198	0.231
Mof_C 	C 	0.16509	0.34957	0.41468	-0.154
Mof_C 	C 	0.1349	0.32114	0.44936	0.231
Mof_C 	C 	0.1312	0.2589	0.46101	-0.699
Mof_H 	H 	0.1691	0.2436	0.4645	0.209
Mof_H 	H 	0.1118	0.2392	0.4359	0.21
Mof_H 	H 	0.1105	0.254	0.4901	0.206
Mof_C 	C 	0.43116	0.0395	0.3122	-0.695
Mof_H 	H 	0.4626	0.0399	0.2903	0.205
Mof_H 	H 	0.4258	0.0014	0.3241	0.205
Mof_H 	H 	0.4392	0.0648	0.3382	0.205
Mof_C 	C 	0.37804	0.05863	0.2874	0.234
Mof_C 	C 	0.34023	0.03043	0.25758	-0.173
Mof_C 	C 	0.29799	0.07064	0.24648	0.248
Mof_C 	C 	0.24591	0.06374	0.21666	-0.734
Mof_H 	H 	0.2131	0.0593	0.2368	0.223
Mof_H 	H 	0.25	0.0305	0.1969	0.219
Mof_H 	H 	0.2411	0.097	0.1971	0.224
Mof_N 	N 	0.23859	0.27654	0.31661	-0.206
Mof_N 	N 	0.28233	0.29385	0.34462	-0.216
Mof_H 	H 	0.3178	0.2871	0.3386	0.078
Mof_N 	N 	0.10453	0.36081	0.47326	-0.21
Mof_H 	H 	0.0828	0.3532	0.497	0.085
Mof_N 	N 	0.11222	0.41378	0.45558	-0.181
Mof_N 	N 	0.30904	0.12055	0.26737	-0.191
Mof_N 	N 	0.35811	0.11204	0.29221	-0.211
Mof_H 	H 	0.3745	0.1379	0.3091	0.084
Mof_Ag	Ag	0.44298	0.49694	0.52653	0.453
Mof_C 	C 	0.5961	0.55389	0.66872	-0.711
Mof_H 	H 	0.5771	0.5902	0.6663	0.209
Mof_H 	H 	0.5902	0.5383	0.6998	0.218
Mof_H 	H 	0.6364	0.559	0.6633	0.209
Mof_C 	C 	0.57255	0.5141	0.6327	0.236
Mof_C 	C 	0.57411	0.45483	0.63003	-0.155
Mof_C 	C 	0.54527	0.44107	0.58819	0.226
Mof_C 	C 	0.5353	0.38322	0.56755	-0.675
Mof_H 	H 	0.5293	0.3866	0.534	0.194
Mof_H 	H 	0.5681	0.3595	0.5734	0.207
Mof_H 	H 	0.5022	0.3663	0.582	0.206
Mof_C 	C 	0.70698	0.4185	0.64101	-0.708
Mof_H 	H 	0.7025	0.4055	0.6089	0.22
Mof_H 	H 	0.7088	0.4595	0.6414	0.209
Mof_H 	H 	0.7416	0.4031	0.6541	0.213
Mof_C 	C 	0.65751	0.39911	0.6698	0.231
Mof_C 	C 	0.59957	0.41509	0.66468	-0.154
Mof_C 	C 	0.57114	0.3849	0.69936	0.231
Mof_C 	C 	0.5089	0.3812	0.71101	-0.699
Mof_H 	H 	0.4936	0.4191	0.7145	0.209
Mof_H 	H 	0.4892	0.3618	0.6859	0.21
Mof_H 	H 	0.504	0.3605	0.7401	0.206
Mof_C 	C 	0.2895	0.68116	0.5622	-0.701
Mof_H 	H 	0.2899	0.7126	0.5403	0.208
Mof_H 	H 	0.2514	0.6758	0.5741	0.212
Mof_H 	H 	0.3148	0.6892	0.5882	0.208
Mof_C 	C 	0.30863	0.62804	0.5374	0.235
Mof_C 	C 	0.28043	0.59023	0.50758	-0.163
Mof_C 	C 	0.32064	0.54799	0.49648	0.247
Mof_C 	C 	0.31374	0.49591	0.46666	-0.736
Mof_H 	H 	0.3093	0.4631	0.4868	0.226
Mof_H 	H 	0.2805	0.5	0.4469	0.222
Mof_H 	H 	0.347	0.4911	0.4471	0.225
Mof_N 	N 	0.52654	0.48859	0.56661	-0.206
Mof_N 	N 	0.54385	0.53233	0.59462	-0.216
Mof_H 	H 	0.5371	0.5678	0.5886	0.078
Mof_N 	N 	0.61081	0.35453	0.72326	-0.21
Mof_H 	H 	0.6032	0.3328	0.747	0.085
Mof_N 	N 	0.66378	0.36222	0.70558	-0.181
Mof_N 	N 	0.37055	0.55904	0.51737	-0.191
Mof_N 	N 	0.36204	0.60811	0.54221	-0.211
Mof_H 	H 	0.3879	0.6245	0.5591	0.085
Mof_Ag	Ag	0.94298	0.99694	0.02653	0.471
Mof_C 	C 	0.0961	0.05389	0.16872	-0.69
Mof_H 	H 	0.0771	0.0902	0.1663	0.202
Mof_H 	H 	0.0902	0.0383	0.1998	0.21
Mof_H 	H 	0.1364	0.059	0.1633	0.201
Mof_C 	C 	0.07255	0.0141	0.1327	0.218
Mof_C 	C 	0.07411	0.95483	0.13003	-0.139
Mof_C 	C 	0.04527	0.94107	0.08819	0.221
Mof_C 	C 	0.0353	0.88322	0.06755	-0.67
Mof_H 	H 	0.0293	0.8866	0.034	0.194
Mof_H 	H 	0.0681	0.8595	0.0734	0.205
Mof_H 	H 	0.0022	0.8663	0.082	0.204
Mof_C 	C 	0.20698	0.9185	0.14101	-0.72
Mof_H 	H 	0.2025	0.9055	0.1089	0.224
Mof_H 	H 	0.2088	0.9595	0.1414	0.216
Mof_H 	H 	0.2416	0.9031	0.1541	0.217
Mof_C 	C 	0.15751	0.89911	0.1698	0.237
Mof_C 	C 	0.09957	0.91509	0.16468	-0.16
Mof_C 	C 	0.07114	0.8849	0.19936	0.236
Mof_C 	C 	0.0089	0.8812	0.21101	-0.706
Mof_H 	H 	0.9936	0.9191	0.2145	0.213
Mof_H 	H 	0.9892	0.8618	0.1859	0.212
Mof_H 	H 	0.004	0.8605	0.2401	0.208
Mof_C 	C 	0.7895	0.18116	0.0622	-0.697
Mof_H 	H 	0.7899	0.2126	0.0403	0.207
Mof_H 	H 	0.7514	0.1758	0.0741	0.211
Mof_H 	H 	0.8148	0.1892	0.0882	0.207
Mof_C 	C 	0.80863	0.12804	0.0374	0.232
Mof_C 	C 	0.78043	0.09023	0.00758	-0.154
Mof_C 	C 	0.82064	0.04799	0.99648	0.218
Mof_C 	C 	0.81374	0.99591	0.96666	-0.652
Mof_H 	H 	0.8093	0.9631	0.9868	0.203
Mof_H 	H 	0.7805	0	0.9469	0.19
Mof_H 	H 	0.847	0.9911	0.9471	0.203
Mof_N 	N 	0.02654	0.98859	0.06661	-0.201
Mof_N 	N 	0.04385	0.03233	0.09462	-0.217
Mof_H 	H 	0.0371	0.0678	0.0886	0.077
Mof_N 	N 	0.11081	0.85453	0.22326	-0.211
Mof_H 	H 	0.1032	0.8328	0.247	0.085
Mof_N 	N 	0.16378	0.86222	0.20558	-0.182
Mof_N 	N 	0.87055	0.05904	0.01737	-0.19
Mof_N 	N 	0.86204	0.10811	0.04221	-0.211
Mof_H 	H 	0.8879	0.1245	0.0591	0.083
Mof_Ag	Ag	0.05702	0.50306	0.02653	0.454
Mof_C 	C 	0.9039	0.44611	0.16872	-0.711
Mof_H 	H 	0.9229	0.4098	0.1663	0.209
Mof_H 	H 	0.9098	0.4617	0.1998	0.218
Mof_H 	H 	0.8636	0.441	0.1633	0.209
Mof_C 	C 	0.92745	0.4859	0.1327	0.236
Mof_C 	C 	0.92589	0.54517	0.13003	-0.155
Mof_C 	C 	0.95473	0.55893	0.08819	0.226
Mof_C 	C 	0.9647	0.61678	0.06755	-0.676
Mof_H 	H 	0.9707	0.6134	0.034	0.195
Mof_H 	H 	0.9319	0.6405	0.0734	0.207
Mof_H 	H 	0.9978	0.6337	0.082	0.206
Mof_C 	C 	0.79302	0.5815	0.14101	-0.708
Mof_H 	H 	0.7975	0.5945	0.1089	0.22
Mof_H 	H 	0.7912	0.5405	0.1414	0.209
Mof_H 	H 	0.7584	0.5969	0.1541	0.213
Mof_C 	C 	0.84249	0.60089	0.1698	0.231
Mof_C 	C 	0.90043	0.58491	0.16468	-0.154
Mof_C 	C 	0.92886	0.6151	0.19936	0.231
Mof_C 	C 	0.9911	0.6188	0.21101	-0.699
Mof_H 	H 	0.0064	0.5809	0.2145	0.209
Mof_H 	H 	0.0108	0.6382	0.1859	0.21
Mof_H 	H 	0.996	0.6395	0.2401	0.206
Mof_C 	C 	0.2105	0.31884	0.0622	-0.701
Mof_H 	H 	0.2101	0.2874	0.0403	0.208
Mof_H 	H 	0.2486	0.3242	0.0741	0.212
Mof_H 	H 	0.1852	0.3108	0.0882	0.208
Mof_C 	C 	0.19137	0.37196	0.0374	0.235
Mof_C 	C 	0.21957	0.40977	0.00758	-0.163
Mof_C 	C 	0.17936	0.45201	0.99648	0.247
Mof_C 	C 	0.18626	0.50409	0.96666	-0.736
Mof_H 	H 	0.1907	0.5369	0.9868	0.226
Mof_H 	H 	0.2195	0.5	0.9469	0.222
Mof_H 	H 	0.153	0.5089	0.9471	0.225
Mof_N 	N 	0.97346	0.51141	0.06661	-0.206
Mof_N 	N 	0.95615	0.46767	0.09462	-0.216
Mof_H 	H 	0.9629	0.4322	0.0886	0.078
Mof_N 	N 	0.88919	0.64547	0.22326	-0.21
Mof_H 	H 	0.8968	0.6672	0.247	0.085
Mof_N 	N 	0.83622	0.63778	0.20558	-0.181
Mof_N 	N 	0.12945	0.44096	0.01737	-0.191
Mof_N 	N 	0.13796	0.39189	0.04221	-0.211
Mof_H 	H 	0.1121	0.3755	0.0591	0.085
Mof_Ag	Ag	0.55702	0.00306	0.52653	0.436
Mof_C 	C 	0.4039	0.94611	0.66872	-0.733
Mof_H 	H 	0.4229	0.9098	0.6663	0.215
Mof_H 	H 	0.4098	0.9617	0.6998	0.227
Mof_H 	H 	0.3636	0.941	0.6633	0.217
Mof_C 	C 	0.42745	0.9859	0.6327	0.255
Mof_C 	C 	0.42589	0.04517	0.63003	-0.171
Mof_C 	C 	0.45473	0.05893	0.58819	0.23
Mof_C 	C 	0.4647	0.11678	0.56755	-0.681
Mof_H 	H 	0.4707	0.1134	0.534	0.195
Mof_H 	H 	0.4319	0.1405	0.5734	0.208
Mof_H 	H 	0.4978	0.1337	0.582	0.207
Mof_C 	C 	0.29302	0.0815	0.64101	-0.697
Mof_H 	H 	0.2975	0.0945	0.6089	0.216
Mof_H 	H 	0.2912	0.0405	0.6414	0.203
Mof_H 	H 	0.2584	0.0969	0.6541	0.209
Mof_C 	C 	0.34249	0.10089	0.6698	0.225
Mof_C 	C 	0.40043	0.08491	0.66468	-0.148
Mof_C 	C 	0.42886	0.1151	0.69936	0.226
Mof_C 	C 	0.4911	0.1188	0.71101	-0.691
Mof_H 	H 	0.5064	0.0809	0.7145	0.205
Mof_H 	H 	0.5108	0.1382	0.6859	0.207
Mof_H 	H 	0.496	0.1395	0.7401	0.204
Mof_C 	C 	0.7105	0.81884	0.5622	-0.702
Mof_H 	H 	0.7101	0.7874	0.5403	0.208
Mof_H 	H 	0.7486	0.8242	0.5741	0.212
Mof_H 	H 	0.6852	0.8108	0.5882	0.209
Mof_C 	C 	0.69137	0.87196	0.5374	0.237
Mof_C 	C 	0.71957	0.90977	0.50758	-0.165
Mof_C 	C 	0.67936	0.95201	0.49648	0.262
Mof_C 	C 	0.68626	0.00409	0.46666	-0.763
Mof_H 	H 	0.6907	0.0369	0.4868	0.233
Mof_H 	H 	0.7195	0	0.4469	0.227
Mof_H 	H 	0.653	0.0089	0.4471	0.23
Mof_N 	N 	0.47346	0.01141	0.56661	-0.212
Mof_N 	N 	0.45615	0.96767	0.59462	-0.216
Mof_H 	H 	0.4629	0.9322	0.5886	0.08
Mof_N 	N 	0.38919	0.14547	0.72326	-0.209
Mof_H 	H 	0.3968	0.1672	0.747	0.085
Mof_N 	N 	0.33622	0.13778	0.70558	-0.18
Mof_N 	N 	0.62945	0.94096	0.51737	-0.189
Mof_N 	N 	0.63796	0.89189	0.54221	-0.211
Mof_H 	H 	0.6121	0.8755	0.5591	0.086
Mof_Ag	Ag	0.25306	0.69298	0.27653	0.453
Mof_C 	C 	0.19611	0.8461	0.41872	-0.713
Mof_H 	H 	0.1598	0.8271	0.4163	0.209
Mof_H 	H 	0.2117	0.8402	0.4498	0.22
Mof_H 	H 	0.191	0.8864	0.4133	0.21
Mof_C 	C 	0.2359	0.82255	0.3827	0.237
Mof_C 	C 	0.29517	0.82411	0.38003	-0.154
Mof_C 	C 	0.30893	0.79527	0.33819	0.225
Mof_C 	C 	0.36678	0.7853	0.31755	-0.675
Mof_H 	H 	0.3634	0.7793	0.284	0.194
Mof_H 	H 	0.3905	0.8181	0.3234	0.206
Mof_H 	H 	0.3837	0.7522	0.332	0.206
Mof_C 	C 	0.3315	0.95698	0.39101	-0.722
Mof_H 	H 	0.3445	0.9525	0.3589	0.226
Mof_H 	H 	0.2905	0.9588	0.3914	0.217
Mof_H 	H 	0.3469	0.9916	0.4041	0.221
Mof_C 	C 	0.35089	0.90751	0.4198	0.237
Mof_C 	C 	0.33491	0.84957	0.41468	-0.156
Mof_C 	C 	0.3651	0.82114	0.44936	0.232
Mof_C 	C 	0.3688	0.7589	0.46101	-0.7
Mof_H 	H 	0.3309	0.7436	0.4645	0.21
Mof_H 	H 	0.3882	0.7392	0.4359	0.21
Mof_H 	H 	0.3895	0.754	0.4901	0.206
Mof_C 	C 	0.06884	0.5395	0.3122	-0.701
Mof_H 	H 	0.0374	0.5399	0.2903	0.208
Mof_H 	H 	0.0742	0.5014	0.3241	0.212
Mof_H 	H 	0.0608	0.5648	0.3382	0.208
Mof_C 	C 	0.12196	0.55863	0.2874	0.235
Mof_C 	C 	0.15977	0.53043	0.25758	-0.163
Mof_C 	C 	0.20201	0.57064	0.24648	0.247
Mof_C 	C 	0.25409	0.56374	0.21666	-0.736
Mof_H 	H 	0.2869	0.5593	0.2368	0.226
Mof_H 	H 	0.25	0.5305	0.1969	0.222
Mof_H 	H 	0.2589	0.597	0.1971	0.225
Mof_N 	N 	0.26141	0.77654	0.31661	-0.206
Mof_N 	N 	0.21767	0.79385	0.34462	-0.216
Mof_H 	H 	0.1822	0.7871	0.3386	0.078
Mof_N 	N 	0.39547	0.86081	0.47326	-0.21
Mof_H 	H 	0.4172	0.8532	0.497	0.085
Mof_N 	N 	0.38778	0.91378	0.45558	-0.182
Mof_N 	N 	0.19096	0.62055	0.26737	-0.191
Mof_N 	N 	0.14189	0.61204	0.29221	-0.211
Mof_H 	H 	0.1255	0.6379	0.3091	0.085
Mof_Ag	Ag	0.75306	0.19298	0.77653	0.453
Mof_C 	C 	0.69611	0.3461	0.91872	-0.711
Mof_H 	H 	0.6598	0.3271	0.9163	0.209
Mof_H 	H 	0.7117	0.3402	0.9498	0.218
Mof_H 	H 	0.691	0.3864	0.9133	0.209
Mof_C 	C 	0.7359	0.32255	0.8827	0.236
Mof_C 	C 	0.79517	0.32411	0.88003	-0.155
Mof_C 	C 	0.80893	0.29527	0.83819	0.226
Mof_C 	C 	0.86678	0.2853	0.81755	-0.676
Mof_H 	H 	0.8634	0.2793	0.784	0.195
Mof_H 	H 	0.8905	0.3181	0.8234	0.207
Mof_H 	H 	0.8837	0.2522	0.832	0.206
Mof_C 	C 	0.8315	0.45698	0.89101	-0.708
Mof_H 	H 	0.8445	0.4525	0.8589	0.22
Mof_H 	H 	0.7905	0.4588	0.8914	0.209
Mof_H 	H 	0.8469	0.4916	0.9041	0.213
Mof_C 	C 	0.85089	0.40751	0.9198	0.231
Mof_C 	C 	0.83491	0.34957	0.91468	-0.154
Mof_C 	C 	0.8651	0.32114	0.94936	0.231
Mof_C 	C 	0.8688	0.2589	0.96101	-0.699
Mof_H 	H 	0.8309	0.2436	0.9645	0.209
Mof_H 	H 	0.8882	0.2392	0.9359	0.21
Mof_H 	H 	0.8895	0.254	0.9901	0.206
Mof_C 	C 	0.56884	0.0395	0.8122	-0.695
Mof_H 	H 	0.5374	0.0399	0.7903	0.205
Mof_H 	H 	0.5742	0.0014	0.8241	0.206
Mof_H 	H 	0.5608	0.0648	0.8382	0.205
Mof_C 	C 	0.62196	0.05863	0.7874	0.234
Mof_C 	C 	0.65977	0.03043	0.75758	-0.173
Mof_C 	C 	0.70201	0.07064	0.74648	0.248
Mof_C 	C 	0.75409	0.06374	0.71666	-0.734
Mof_H 	H 	0.7869	0.0593	0.7368	0.223
Mof_H 	H 	0.75	0.0305	0.6969	0.219
Mof_H 	H 	0.7589	0.097	0.6971	0.224
Mof_N 	N 	0.76141	0.27654	0.81661	-0.206
Mof_N 	N 	0.71767	0.29385	0.84462	-0.216
Mof_H 	H 	0.6822	0.2871	0.8386	0.078
Mof_N 	N 	0.89547	0.36081	0.97326	-0.21
Mof_H 	H 	0.9172	0.3532	0.997	0.085
Mof_N 	N 	0.88778	0.41378	0.95558	-0.181
Mof_N 	N 	0.69096	0.12055	0.76737	-0.191
Mof_N 	N 	0.64189	0.11204	0.79221	-0.211
Mof_H 	H 	0.6255	0.1379	0.8091	0.084
Mof_Ag	Ag	0.24694	0.30702	0.77653	0.453
Mof_C 	C 	0.30389	0.1539	0.91872	-0.711
Mof_H 	H 	0.3402	0.1729	0.9163	0.209
Mof_H 	H 	0.2883	0.1598	0.9498	0.218
Mof_H 	H 	0.309	0.1136	0.9133	0.208
Mof_C 	C 	0.2641	0.17745	0.8827	0.236
Mof_C 	C 	0.20483	0.17589	0.88003	-0.155
Mof_C 	C 	0.19107	0.20473	0.83819	0.226
Mof_C 	C 	0.13322	0.2147	0.81755	-0.676
Mof_H 	H 	0.1366	0.2207	0.784	0.195
Mof_H 	H 	0.1095	0.1819	0.8234	0.207
Mof_H 	H 	0.1163	0.2478	0.832	0.206
Mof_C 	C 	0.1685	0.04302	0.89101	-0.697
Mof_H 	H 	0.1555	0.0475	0.8589	0.215
Mof_H 	H 	0.2095	0.0412	0.8914	0.204
Mof_H 	H 	0.1531	0.0084	0.9041	0.207
Mof_C 	C 	0.14911	0.09249	0.9198	0.227
Mof_C 	C 	0.16509	0.15043	0.91468	-0.152
Mof_C 	C 	0.1349	0.17886	0.94936	0.23
Mof_C 	C 	0.1312	0.2411	0.96101	-0.698
Mof_H 	H 	0.1691	0.2564	0.9645	0.209
Mof_H 	H 	0.1118	0.2608	0.9359	0.209
Mof_H 	H 	0.1105	0.246	0.9901	0.206
Mof_C 	C 	0.43116	0.4605	0.8122	-0.701
Mof_H 	H 	0.4626	0.4601	0.7903	0.208
Mof_H 	H 	0.4258	0.4986	0.8241	0.212
Mof_H 	H 	0.4392	0.4352	0.8382	0.208
Mof_C 	C 	0.37804	0.44137	0.7874	0.235
Mof_C 	C 	0.34023	0.46957	0.75758	-0.163
Mof_C 	C 	0.29799	0.42936	0.74648	0.247
Mof_C 	C 	0.24591	0.43626	0.71666	-0.736
Mof_H 	H 	0.2131	0.4407	0.7368	0.226
Mof_H 	H 	0.25	0.4695	0.6969	0.222
Mof_H 	H 	0.2411	0.403	0.6971	0.225
Mof_N 	N 	0.23859	0.22346	0.81661	-0.207
Mof_N 	N 	0.28233	0.20615	0.84462	-0.216
Mof_H 	H 	0.3178	0.2129	0.8386	0.078
Mof_N 	N 	0.10453	0.13919	0.97326	-0.21
Mof_H 	H 	0.0828	0.1468	0.997	0.085
Mof_N 	N 	0.11222	0.08622	0.95558	-0.18
Mof_N 	N 	0.30904	0.37945	0.76737	-0.191
Mof_N 	N 	0.35811	0.38796	0.79221	-0.211
Mof_H 	H 	0.3745	0.3621	0.8091	0.085
Mof_Ag	Ag	0.74694	0.80702	0.27653	0.453
Mof_C 	C 	0.80389	0.6539	0.41872	-0.711
Mof_H 	H 	0.8402	0.6729	0.4163	0.209
Mof_H 	H 	0.7883	0.6598	0.4498	0.218
Mof_H 	H 	0.809	0.6136	0.4133	0.209
Mof_C 	C 	0.7641	0.67745	0.3827	0.236
Mof_C 	C 	0.70483	0.67589	0.38003	-0.155
Mof_C 	C 	0.69107	0.70473	0.33819	0.225
Mof_C 	C 	0.63322	0.7147	0.31755	-0.675
Mof_H 	H 	0.6366	0.7207	0.284	0.194
Mof_H 	H 	0.6095	0.6819	0.3234	0.206
Mof_H 	H 	0.6163	0.7478	0.332	0.206
Mof_C 	C 	0.6685	0.54302	0.39101	-0.708
Mof_H 	H 	0.6555	0.5475	0.3589	0.22
Mof_H 	H 	0.7095	0.5412	0.3914	0.209
Mof_H 	H 	0.6531	0.5084	0.4041	0.213
Mof_C 	C 	0.64911	0.59249	0.4198	0.231
Mof_C 	C 	0.66509	0.65043	0.41468	-0.154
Mof_C 	C 	0.6349	0.67886	0.44936	0.231
Mof_C 	C 	0.6312	0.7411	0.46101	-0.699
Mof_H 	H 	0.6691	0.7564	0.4645	0.209
Mof_H 	H 	0.6118	0.7608	0.4359	0.21
Mof_H 	H 	0.6105	0.746	0.4901	0.206
Mof_C 	C 	0.93116	0.9605	0.3122	-0.707
Mof_H 	H 	0.9626	0.9601	0.2903	0.212
Mof_H 	H 	0.9258	0.9986	0.3241	0.218
Mof_H 	H 	0.9392	0.9352	0.3382	0.211
Mof_C 	C 	0.87804	0.94137	0.2874	0.236
Mof_C 	C 	0.84023	0.96957	0.25758	-0.153
Mof_C 	C 	0.79799	0.92936	0.24648	0.247
Mof_C 	C 	0.74591	0.93626	0.21666	-0.738
Mof_H 	H 	0.7131	0.9407	0.2368	0.228
Mof_H 	H 	0.75	0.9695	0.1969	0.226
Mof_H 	H 	0.7411	0.903	0.1971	0.226
Mof_N 	N 	0.73859	0.72346	0.31661	-0.206
Mof_N 	N 	0.78233	0.70615	0.34462	-0.216
Mof_H 	H 	0.8178	0.7129	0.3386	0.078
Mof_N 	N 	0.60453	0.63919	0.47326	-0.21
Mof_H 	H 	0.5828	0.6468	0.497	0.085
Mof_N 	N 	0.61222	0.58622	0.45558	-0.181
Mof_N 	N 	0.80904	0.87945	0.26737	-0.19
Mof_N 	N 	0.85811	0.88796	0.29221	-0.211
Mof_H 	H 	0.8745	0.8621	0.3091	0.085
Mof_Ag	Ag	0.05702	0.49694	0.47347	0.454
Mof_C 	C 	0.9039	0.55389	0.33128	-0.711
Mof_H 	H 	0.9229	0.5902	0.3337	0.209
Mof_H 	H 	0.9098	0.5383	0.3002	0.218
Mof_H 	H 	0.8636	0.559	0.3367	0.209
Mof_C 	C 	0.92745	0.5141	0.3673	0.236
Mof_C 	C 	0.92589	0.45483	0.36997	-0.155
Mof_C 	C 	0.95473	0.44107	0.41181	0.226
Mof_C 	C 	0.9647	0.38322	0.43245	-0.676
Mof_H 	H 	0.9707	0.3866	0.466	0.195
Mof_H 	H 	0.9319	0.3595	0.4266	0.207
Mof_H 	H 	0.9978	0.3663	0.418	0.206
Mof_C 	C 	0.79302	0.4185	0.35899	-0.708
Mof_H 	H 	0.7975	0.4055	0.3911	0.22
Mof_H 	H 	0.7912	0.4595	0.3586	0.209
Mof_H 	H 	0.7584	0.4031	0.3459	0.213
Mof_C 	C 	0.84249	0.39911	0.3302	0.231
Mof_C 	C 	0.90043	0.41509	0.33532	-0.154
Mof_C 	C 	0.92886	0.3849	0.30064	0.231
Mof_C 	C 	0.9911	0.3812	0.28899	-0.699
Mof_H 	H 	0.0064	0.4191	0.2855	0.209
Mof_H 	H 	0.0108	0.3618	0.3141	0.21
Mof_H 	H 	0.996	0.3605	0.2599	0.206
Mof_C 	C 	0.2105	0.68116	0.4378	-0.701
Mof_H 	H 	0.2101	0.7126	0.4597	0.208
Mof_H 	H 	0.2486	0.6758	0.4259	0.212
Mof_H 	H 	0.1852	0.6892	0.4118	0.208
Mof_C 	C 	0.19137	0.62804	0.4626	0.235
Mof_C 	C 	0.21957	0.59023	0.49242	-0.163
Mof_C 	C 	0.17936	0.54799	0.50352	0.247
Mof_C 	C 	0.18626	0.49591	0.53334	-0.736
Mof_H 	H 	0.1907	0.4631	0.5132	0.226
Mof_H 	H 	0.2195	0.5	0.5531	0.222
Mof_H 	H 	0.153	0.4911	0.5529	0.225
Mof_N 	N 	0.97346	0.48859	0.43339	-0.206
Mof_N 	N 	0.95615	0.53233	0.40538	-0.216
Mof_H 	H 	0.9629	0.5678	0.4114	0.078
Mof_N 	N 	0.88919	0.35453	0.27674	-0.21
Mof_H 	H 	0.8968	0.3328	0.253	0.085
Mof_N 	N 	0.83622	0.36222	0.29442	-0.181
Mof_N 	N 	0.12945	0.55904	0.48263	-0.191
Mof_N 	N 	0.13796	0.60811	0.45779	-0.211
Mof_H 	H 	0.1121	0.6245	0.4409	0.085
Mof_Ag	Ag	0.55702	0.99694	0.97347	0.471
Mof_C 	C 	0.4039	0.05389	0.83128	-0.69
Mof_H 	H 	0.4229	0.0902	0.8337	0.202
Mof_H 	H 	0.4098	0.0383	0.8002	0.21
Mof_H 	H 	0.3636	0.059	0.8367	0.201
Mof_C 	C 	0.42745	0.0141	0.8673	0.218
Mof_C 	C 	0.42589	0.95483	0.86997	-0.138
Mof_C 	C 	0.45473	0.94107	0.91181	0.221
Mof_C 	C 	0.4647	0.88322	0.93245	-0.67
Mof_H 	H 	0.4707	0.8866	0.966	0.193
Mof_H 	H 	0.4319	0.8595	0.9266	0.205
Mof_H 	H 	0.4978	0.8663	0.918	0.204
Mof_C 	C 	0.29302	0.9185	0.85899	-0.72
Mof_H 	H 	0.2975	0.9055	0.8911	0.224
Mof_H 	H 	0.2912	0.9595	0.8586	0.217
Mof_H 	H 	0.2584	0.9031	0.8459	0.217
Mof_C 	C 	0.34249	0.89911	0.8302	0.237
Mof_C 	C 	0.40043	0.91509	0.83532	-0.16
Mof_C 	C 	0.42886	0.8849	0.80064	0.235
Mof_C 	C 	0.4911	0.8812	0.78899	-0.706
Mof_H 	H 	0.5064	0.9191	0.7855	0.213
Mof_H 	H 	0.5108	0.8618	0.8141	0.212
Mof_H 	H 	0.496	0.8605	0.7599	0.208
Mof_C 	C 	0.7105	0.18116	0.9378	-0.697
Mof_H 	H 	0.7101	0.2126	0.9597	0.207
Mof_H 	H 	0.7486	0.1758	0.9259	0.211
Mof_H 	H 	0.6852	0.1892	0.9118	0.207
Mof_C 	C 	0.69137	0.12804	0.9626	0.232
Mof_C 	C 	0.71957	0.09023	0.99242	-0.154
Mof_C 	C 	0.67936	0.04799	0.00352	0.218
Mof_C 	C 	0.68626	0.99591	0.03334	-0.652
Mof_H 	H 	0.6907	0.9631	0.0132	0.203
Mof_H 	H 	0.7195	0	0.0531	0.19
Mof_H 	H 	0.653	0.9911	0.0529	0.203
Mof_N 	N 	0.47346	0.98859	0.93339	-0.201
Mof_N 	N 	0.45615	0.03233	0.90538	-0.217
Mof_H 	H 	0.4629	0.0678	0.9114	0.077
Mof_N 	N 	0.38919	0.85453	0.77674	-0.211
Mof_H 	H 	0.3968	0.8328	0.753	0.085
Mof_N 	N 	0.33622	0.86222	0.79442	-0.182
Mof_N 	N 	0.62945	0.05904	0.98263	-0.19
Mof_N 	N 	0.63796	0.10811	0.95779	-0.211
Mof_H 	H 	0.6121	0.1245	0.9409	0.083
Mof_Ag	Ag	0.44298	0.50306	0.97347	0.454
Mof_C 	C 	0.5961	0.44611	0.83128	-0.711
Mof_H 	H 	0.5771	0.4098	0.8337	0.209
Mof_H 	H 	0.5902	0.4617	0.8002	0.218
Mof_H 	H 	0.6364	0.441	0.8367	0.209
Mof_C 	C 	0.57255	0.4859	0.8673	0.236
Mof_C 	C 	0.57411	0.54517	0.86997	-0.155
Mof_C 	C 	0.54527	0.55893	0.91181	0.226
Mof_C 	C 	0.5353	0.61678	0.93245	-0.675
Mof_H 	H 	0.5293	0.6134	0.966	0.194
Mof_H 	H 	0.5681	0.6405	0.9266	0.207
Mof_H 	H 	0.5022	0.6337	0.918	0.206
Mof_C 	C 	0.70698	0.5815	0.85899	-0.708
Mof_H 	H 	0.7025	0.5945	0.8911	0.22
Mof_H 	H 	0.7088	0.5405	0.8586	0.209
Mof_H 	H 	0.7416	0.5969	0.8459	0.213
Mof_C 	C 	0.65751	0.60089	0.8302	0.231
Mof_C 	C 	0.59957	0.58491	0.83532	-0.154
Mof_C 	C 	0.57114	0.6151	0.80064	0.231
Mof_C 	C 	0.5089	0.6188	0.78899	-0.699
Mof_H 	H 	0.4936	0.5809	0.7855	0.209
Mof_H 	H 	0.4892	0.6382	0.8141	0.21
Mof_H 	H 	0.504	0.6395	0.7599	0.206
Mof_C 	C 	0.2895	0.31884	0.9378	-0.701
Mof_H 	H 	0.2899	0.2874	0.9597	0.208
Mof_H 	H 	0.2514	0.3242	0.9259	0.212
Mof_H 	H 	0.3148	0.3108	0.9118	0.208
Mof_C 	C 	0.30863	0.37196	0.9626	0.235
Mof_C 	C 	0.28043	0.40977	0.99242	-0.163
Mof_C 	C 	0.32064	0.45201	0.00352	0.247
Mof_C 	C 	0.31374	0.50409	0.03334	-0.736
Mof_H 	H 	0.3093	0.5369	0.0132	0.226
Mof_H 	H 	0.2805	0.5	0.0531	0.222
Mof_H 	H 	0.347	0.5089	0.0529	0.225
Mof_N 	N 	0.52654	0.51141	0.93339	-0.206
Mof_N 	N 	0.54385	0.46767	0.90538	-0.216
Mof_H 	H 	0.5371	0.4322	0.9114	0.078
Mof_N 	N 	0.61081	0.64547	0.77674	-0.21
Mof_H 	H 	0.6032	0.6672	0.753	0.085
Mof_N 	N 	0.66378	0.63778	0.79442	-0.181
Mof_N 	N 	0.37055	0.44096	0.98263	-0.191
Mof_N 	N 	0.36204	0.39189	0.95779	-0.211
Mof_H 	H 	0.3879	0.3755	0.9409	0.085
Mof_Ag	Ag	0.94298	0.00306	0.47347	0.437
Mof_C 	C 	0.0961	0.94611	0.33128	-0.733
Mof_H 	H 	0.0771	0.9098	0.3337	0.215
Mof_H 	H 	0.0902	0.9617	0.3002	0.227
Mof_H 	H 	0.1364	0.941	0.3367	0.217
Mof_C 	C 	0.07255	0.9859	0.3673	0.255
Mof_C 	C 	0.07411	0.04517	0.36997	-0.171
Mof_C 	C 	0.04527	0.05893	0.41181	0.23
Mof_C 	C 	0.0353	0.11678	0.43245	-0.681
Mof_H 	H 	0.0293	0.1134	0.466	0.195
Mof_H 	H 	0.0681	0.1405	0.4266	0.208
Mof_H 	H 	0.0022	0.1337	0.418	0.208
Mof_C 	C 	0.20698	0.0815	0.35899	-0.697
Mof_H 	H 	0.2025	0.0945	0.3911	0.216
Mof_H 	H 	0.2088	0.0405	0.3586	0.203
Mof_H 	H 	0.2416	0.0969	0.3459	0.209
Mof_C 	C 	0.15751	0.10089	0.3302	0.225
Mof_C 	C 	0.09957	0.08491	0.33532	-0.148
Mof_C 	C 	0.07114	0.1151	0.30064	0.226
Mof_C 	C 	0.0089	0.1188	0.28899	-0.692
Mof_H 	H 	0.9936	0.0809	0.2855	0.206
Mof_H 	H 	0.9892	0.1382	0.3141	0.207
Mof_H 	H 	0.004	0.1395	0.2599	0.204
Mof_C 	C 	0.7895	0.81884	0.4378	-0.702
Mof_H 	H 	0.7899	0.7874	0.4597	0.208
Mof_H 	H 	0.7514	0.8242	0.4259	0.212
Mof_H 	H 	0.8148	0.8108	0.4118	0.209
Mof_C 	C 	0.80863	0.87196	0.4626	0.237
Mof_C 	C 	0.78043	0.90977	0.49242	-0.165
Mof_C 	C 	0.82064	0.95201	0.50352	0.262
Mof_C 	C 	0.81374	0.00409	0.53334	-0.763
Mof_H 	H 	0.8093	0.0369	0.5132	0.233
Mof_H 	H 	0.7805	6.5525e-33	0.5531	0.227
Mof_H 	H 	0.847	0.0089	0.5529	0.23
Mof_N 	N 	0.02654	0.01141	0.43339	-0.211
Mof_N 	N 	0.04385	0.96767	0.40538	-0.216
Mof_H 	H 	0.0371	0.9322	0.4114	0.08
Mof_N 	N 	0.11081	0.14547	0.27674	-0.209
Mof_H 	H 	0.1032	0.1672	0.253	0.085
Mof_N 	N 	0.16378	0.13778	0.29442	-0.18
Mof_N 	N 	0.87055	0.94096	0.48263	-0.189
Mof_N 	N 	0.86204	0.89189	0.45779	-0.211
Mof_H 	H 	0.8879	0.8755	0.4409	0.086
Mof_Ag	Ag	0.24694	0.69298	0.72347	0.453
Mof_C 	C 	0.30389	0.8461	0.58128	-0.713
Mof_H 	H 	0.3402	0.8271	0.5837	0.209
Mof_H 	H 	0.2883	0.8402	0.5502	0.22
Mof_H 	H 	0.309	0.8864	0.5867	0.21
Mof_C 	C 	0.2641	0.82255	0.6173	0.237
Mof_C 	C 	0.20483	0.82411	0.61997	-0.154
Mof_C 	C 	0.19107	0.79527	0.66181	0.225
Mof_C 	C 	0.13322	0.7853	0.68245	-0.675
Mof_H 	H 	0.1366	0.7793	0.716	0.194
Mof_H 	H 	0.1095	0.8181	0.6766	0.206
Mof_H 	H 	0.1163	0.7522	0.668	0.206
Mof_C 	C 	0.1685	0.95698	0.60899	-0.722
Mof_H 	H 	0.1555	0.9525	0.6411	0.226
Mof_H 	H 	0.2095	0.9588	0.6086	0.217
Mof_H 	H 	0.1531	0.9916	0.5959	0.221
Mof_C 	C 	0.14911	0.90751	0.5802	0.237
Mof_C 	C 	0.16509	0.84957	0.58532	-0.156
Mof_C 	C 	0.1349	0.82114	0.55064	0.232
Mof_C 	C 	0.1312	0.7589	0.53899	-0.7
Mof_H 	H 	0.1691	0.7436	0.5355	0.21
Mof_H 	H 	0.1118	0.7392	0.5641	0.21
Mof_H 	H 	0.1105	0.754	0.5099	0.206
Mof_C 	C 	0.43116	0.5395	0.6878	-0.701
Mof_H 	H 	0.4626	0.5399	0.7097	0.208
Mof_H 	H 	0.4258	0.5014	0.6759	0.212
Mof_H 	H 	0.4392	0.5648	0.6618	0.208
Mof_C 	C 	0.37804	0.55863	0.7126	0.235
Mof_C 	C 	0.34023	0.53043	0.74242	-0.163
Mof_C 	C 	0.29799	0.57064	0.75352	0.247
Mof_C 	C 	0.24591	0.56374	0.78334	-0.736
Mof_H 	H 	0.2131	0.5593	0.7632	0.226
Mof_H 	H 	0.25	0.5305	0.8031	0.222
Mof_H 	H 	0.2411	0.597	0.8029	0.225
Mof_N 	N 	0.23859	0.77654	0.68339	-0.206
Mof_N 	N 	0.28233	0.79385	0.65538	-0.216
Mof_H 	H 	0.3178	0.7871	0.6614	0.078
Mof_N 	N 	0.10453	0.86081	0.52674	-0.21
Mof_H 	H 	0.0828	0.8532	0.503	0.085
Mof_N 	N 	0.11222	0.91378	0.54442	-0.182
Mof_N 	N 	0.30904	0.62055	0.73263	-0.191
Mof_N 	N 	0.35811	0.61204	0.70779	-0.211
Mof_H 	H 	0.3745	0.6379	0.6909	0.085
Mof_Ag	Ag	0.74694	0.19298	0.22347	0.453
Mof_C 	C 	0.80389	0.3461	0.08128	-0.711
Mof_H 	H 	0.8402	0.3271	0.0837	0.209
Mof_H 	H 	0.7883	0.3402	0.0502	0.218
Mof_H 	H 	0.809	0.3864	0.0867	0.209
Mof_C 	C 	0.7641	0.32255	0.1173	0.236
Mof_C 	C 	0.70483	0.32411	0.11997	-0.155
Mof_C 	C 	0.69107	0.29527	0.16181	0.226
Mof_C 	C 	0.63322	0.2853	0.18245	-0.676
Mof_H 	H 	0.6366	0.2793	0.216	0.194
Mof_H 	H 	0.6095	0.3181	0.1766	0.207
Mof_H 	H 	0.6163	0.2522	0.168	0.206
Mof_C 	C 	0.6685	0.45698	0.10899	-0.708
Mof_H 	H 	0.6555	0.4525	0.1411	0.22
Mof_H 	H 	0.7095	0.4588	0.1086	0.209
Mof_H 	H 	0.6531	0.4916	0.0959	0.213
Mof_C 	C 	0.64911	0.40751	0.0802	0.231
Mof_C 	C 	0.66509	0.34957	0.08532	-0.154
Mof_C 	C 	0.6349	0.32114	0.05064	0.231
Mof_C 	C 	0.6312	0.2589	0.03899	-0.699
Mof_H 	H 	0.6691	0.2436	0.0355	0.209
Mof_H 	H 	0.6118	0.2392	0.0641	0.21
Mof_H 	H 	0.6105	0.254	0.0099	0.206
Mof_C 	C 	0.93116	0.0395	0.1878	-0.695
Mof_H 	H 	0.9626	0.0399	0.2097	0.205
Mof_H 	H 	0.9258	0.0014	0.1759	0.206
Mof_H 	H 	0.9392	0.0648	0.1618	0.205
Mof_C 	C 	0.87804	0.05863	0.2126	0.234
Mof_C 	C 	0.84023	0.03043	0.24242	-0.173
Mof_C 	C 	0.79799	0.07064	0.25352	0.248
Mof_C 	C 	0.74591	0.06374	0.28334	-0.734
Mof_H 	H 	0.7131	0.0593	0.2632	0.223
Mof_H 	H 	0.75	0.0305	0.3031	0.219
Mof_H 	H 	0.7411	0.097	0.3029	0.224
Mof_N 	N 	0.73859	0.27654	0.18339	-0.206
Mof_N 	N 	0.78233	0.29385	0.15538	-0.216
Mof_H 	H 	0.8178	0.2871	0.1614	0.078
Mof_N 	N 	0.60453	0.36081	0.02674	-0.21
Mof_H 	H 	0.5828	0.3532	0.003	0.085
Mof_N 	N 	0.61222	0.41378	0.04442	-0.181
Mof_N 	N 	0.80904	0.12055	0.23263	-0.191
Mof_N 	N 	0.85811	0.11204	0.20779	-0.211
Mof_H 	H 	0.8745	0.1379	0.1909	0.084
Mof_Ag	Ag	0.25306	0.30702	0.22347	0.453
Mof_C 	C 	0.19611	0.1539	0.08128	-0.711
Mof_H 	H 	0.1598	0.1729	0.0837	0.209
Mof_H 	H 	0.2117	0.1598	0.0502	0.218
Mof_H 	H 	0.191	0.1136	0.0867	0.208
Mof_C 	C 	0.2359	0.17745	0.1173	0.236
Mof_C 	C 	0.29517	0.17589	0.11997	-0.155
Mof_C 	C 	0.30893	0.20473	0.16181	0.226
Mof_C 	C 	0.36678	0.2147	0.18245	-0.676
Mof_H 	H 	0.3634	0.2207	0.216	0.194
Mof_H 	H 	0.3905	0.1819	0.1766	0.207
Mof_H 	H 	0.3837	0.2478	0.168	0.206
Mof_C 	C 	0.3315	0.04302	0.10899	-0.697
Mof_H 	H 	0.3445	0.0475	0.1411	0.215
Mof_H 	H 	0.2905	0.0412	0.1086	0.204
Mof_H 	H 	0.3469	0.0084	0.0959	0.207
Mof_C 	C 	0.35089	0.09249	0.0802	0.227
Mof_C 	C 	0.33491	0.15043	0.08532	-0.152
Mof_C 	C 	0.3651	0.17886	0.05064	0.23
Mof_C 	C 	0.3688	0.2411	0.03899	-0.698
Mof_H 	H 	0.3309	0.2564	0.0355	0.209
Mof_H 	H 	0.3882	0.2608	0.0641	0.209
Mof_H 	H 	0.3895	0.246	0.0099	0.206
Mof_C 	C 	0.06884	0.4605	0.1878	-0.701
Mof_H 	H 	0.0374	0.4601	0.2097	0.208
Mof_H 	H 	0.0742	0.4986	0.1759	0.212
Mof_H 	H 	0.0608	0.4352	0.1618	0.208
Mof_C 	C 	0.12196	0.44137	0.2126	0.235
Mof_C 	C 	0.15977	0.46957	0.24242	-0.163
Mof_C 	C 	0.20201	0.42936	0.25352	0.247
Mof_C 	C 	0.25409	0.43626	0.28334	-0.736
Mof_H 	H 	0.2869	0.4407	0.2632	0.226
Mof_H 	H 	0.25	0.4695	0.3031	0.222
Mof_H 	H 	0.2589	0.403	0.3029	0.225
Mof_N 	N 	0.26141	0.22346	0.18339	-0.207
Mof_N 	N 	0.21767	0.20615	0.15538	-0.216
Mof_H 	H 	0.1822	0.2129	0.1614	0.079
Mof_N 	N 	0.39547	0.13919	0.02674	-0.21
Mof_H 	H 	0.4172	0.1468	0.003	0.085
Mof_N 	N 	0.38778	0.08622	0.04442	-0.18
Mof_N 	N 	0.19096	0.37945	0.23263	-0.191
Mof_N 	N 	0.14189	0.38796	0.20779	-0.211
Mof_H 	H 	0.1255	0.3621	0.1909	0.085
Mof_Ag	Ag	0.75306	0.80702	0.72347	0.453
Mof_C 	C 	0.69611	0.6539	0.58128	-0.711
Mof_H 	H 	0.6598	0.6729	0.5837	0.209
Mof_H 	H 	0.7117	0.6598	0.5502	0.218
Mof_H 	H 	0.691	0.6136	0.5867	0.209
Mof_C 	C 	0.7359	0.67745	0.6173	0.236
Mof_C 	C 	0.79517	0.67589	0.61997	-0.155
Mof_C 	C 	0.80893	0.70473	0.66181	0.225
Mof_C 	C 	0.86678	0.7147	0.68245	-0.675
Mof_H 	H 	0.8634	0.7207	0.716	0.194
Mof_H 	H 	0.8905	0.6819	0.6766	0.206
Mof_H 	H 	0.8837	0.7478	0.668	0.206
Mof_C 	C 	0.8315	0.54302	0.60899	-0.708
Mof_H 	H 	0.8445	0.5475	0.6411	0.22
Mof_H 	H 	0.7905	0.5412	0.6086	0.209
Mof_H 	H 	0.8469	0.5084	0.5959	0.213
Mof_C 	C 	0.85089	0.59249	0.5802	0.231
Mof_C 	C 	0.83491	0.65043	0.58532	-0.154
Mof_C 	C 	0.8651	0.67886	0.55064	0.231
Mof_C 	C 	0.8688	0.7411	0.53899	-0.699
Mof_H 	H 	0.8309	0.7564	0.5355	0.209
Mof_H 	H 	0.8882	0.7608	0.5641	0.21
Mof_H 	H 	0.8895	0.746	0.5099	0.206
Mof_C 	C 	0.56884	0.9605	0.6878	-0.707
Mof_H 	H 	0.5374	0.9601	0.7097	0.212
Mof_H 	H 	0.5742	0.9986	0.6759	0.218
Mof_H 	H 	0.5608	0.9352	0.6618	0.211
Mof_C 	C 	0.62196	0.94137	0.7126	0.236
Mof_C 	C 	0.65977	0.96957	0.74242	-0.153
Mof_C 	C 	0.70201	0.92936	0.75352	0.247
Mof_C 	C 	0.75409	0.93626	0.78334	-0.738
Mof_H 	H 	0.7869	0.9407	0.7632	0.228
Mof_H 	H 	0.75	0.9695	0.8031	0.226
Mof_H 	H 	0.7589	0.903	0.8029	0.226
Mof_N 	N 	0.76141	0.72346	0.68339	-0.206
Mof_N 	N 	0.71767	0.70615	0.65538	-0.216
Mof_H 	H 	0.6822	0.7129	0.6614	0.078
Mof_N 	N 	0.89547	0.63919	0.52674	-0.21
Mof_H 	H 	0.9172	0.6468	0.503	0.085
Mof_N 	N 	0.88778	0.58622	0.54442	-0.181
Mof_N 	N 	0.69096	0.87945	0.73263	-0.19
Mof_N 	N 	0.64189	0.88796	0.70779	-0.211
Mof_H 	H 	0.6255	0.8621	0.6909	0.085
_end
