data_functionalizedCrystal
_audit_creation_method	'EQeq! by Chris Wilmer'
_symmetry_space_group_name_H-M	'P1'
_symmetry_Int_Tables_number	1
_symmetry_cell_setting	triclinic
loop_
_symmetry_equiv_pos_as_xyz
  x,y,z
_cell_length_a	9.5256
_cell_length_b	12.1272
_cell_length_c	15.8886
_cell_angle_alpha	88.508
_cell_angle_beta	74.677
_cell_angle_gamma	70.379
loop_
_atom_site_label
_atom_site_type_symbol
_atom_site_fract_x
_atom_site_fract_y
_atom_site_fract_z
_atom_site_charge
Mof_Nd	Nd	0.29541	0.9758	0.01839	2.675
Mof_O 	O 	0.1311	0.8829	0.11647	-0.584
Mof_O 	O 	0.0127	0.7588	0.09793	-0.523
Mof_H 	H 	0.9874	0.8048	0.0598	0.296
Mof_O 	O 	0.2368	0.0654	0.1648	-0.528
Mof_O 	O 	0.4471	0.0953	0.08481	-0.684
Mof_O 	O 	0.5357	0.1666	0.91133	-0.612
Mof_O 	O 	0.3181	0.1271	0.92602	-0.634
Mof_O 	O 	0.208	0.8922	0.91378	-0.583
Mof_O 	O 	0.969	0.8818	0.96142	-0.55
Mof_C 	C 	0.2242	0.5509	0.4403	-0.019
Mof_C 	C 	0.2731	0.4275	0.4413	-0.018
Mof_C 	C 	0.3025	0.3765	0.5169	-0.053
Mof_H 	H 	0.3369	0.2934	0.5167	0.047
Mof_C 	C 	0.2843	0.4409	0.5935	-0.022
Mof_C 	C 	0.2328	0.5641	0.593	-0.017
Mof_C 	C 	0.207	0.6152	0.5163	-0.054
Mof_H 	H 	0.1761	0.6983	0.5157	0.045
Mof_C 	C 	0.1864	0.615	0.3634	0.084
Mof_C 	C 	0.2195	0.7185	0.3433	-0.155
Mof_H 	H 	0.2646	0.7484	0.38	0.081
Mof_C 	C 	0.188	0.778	0.2713	0.101
Mof_H 	H 	0.212	0.8476	0.2588	0.004
Mof_C 	C 	0.1205	0.7356	0.2169	-0.206
Mof_C 	C 	0.0856	0.6335	0.2366	0.095
Mof_H 	H 	0.0411	0.6036	0.1996	0.017
Mof_C 	C 	0.1153	0.5755	0.3093	-0.153
Mof_H 	H 	0.0871	0.5077	0.323	0.086
Mof_C 	C 	0.09	0.7985	0.1394	0.515
Mof_C 	C 	0.2944	0.3458	0.3668	0.082
Mof_C 	C 	0.4044	0.3368	0.2872	-0.155
Mof_H 	H 	0.4659	0.3858	0.2787	0.083
Mof_C 	C 	0.4251	0.2566	0.2199	0.098
Mof_H 	H 	0.5045	0.2481	0.1671	-0.014
Mof_C 	C 	0.3295	0.1889	0.2299	-0.188
Mof_C 	C 	0.2194	0.1985	0.3087	0.088
Mof_H 	H 	0.1535	0.1531	0.3158	0.018
Mof_C 	C 	0.204	0.2735	0.3773	-0.151
Mof_H 	H 	0.1316	0.276	0.432	0.083
Mof_C 	C 	0.3388	0.1114	0.1558	0.462
Mof_C 	C 	0.3208	0.3745	0.6695	0.093
Mof_C 	C 	0.2765	0.2756	0.6894	-0.165
Mof_H 	H 	0.2257	0.2511	0.6533	0.087
Mof_C 	C 	0.3056	0.2133	0.7605	0.12
Mof_H 	H 	0.272	0.1478	0.7737	-0.004
Mof_C 	C 	0.3839	0.2455	0.8132	-0.213
Mof_C 	C 	0.4332	0.3414	0.792	0.11
Mof_H 	H 	0.4901	0.3627	0.8257	-0.001
Mof_C 	C 	0.3997	0.4053	0.7222	-0.16
Mof_H 	H 	0.4311	0.4719	0.7099	0.086
Mof_C 	C 	0.4152	0.1754	0.8896	0.554
Mof_C 	C 	0.1942	0.6433	0.6724	0.084
Mof_C 	C 	0.0962	0.6303	0.7511	-0.15
Mof_H 	H 	0.0537	0.5693	0.7545	0.082
Mof_C 	C 	0.0589	0.7045	0.8249	0.092
Mof_H 	H 	0.9882	0.6962	0.8774	0.003
Mof_C 	C 	0.1257	0.7907	0.8216	-0.201
Mof_C 	C 	0.2218	0.8063	0.7433	0.101
Mof_H 	H 	0.2661	0.8662	0.7406	-0.001
Mof_C 	C 	0.2541	0.7345	0.6684	-0.156
Mof_H 	H 	0.3168	0.7477	0.6145	0.082
Mof_C 	C 	0.0987	0.8617	0.9038	0.502
Mof_Nd	Nd	0.70459	0.0242	0.98161	2.674
Mof_O 	O 	0.8689	0.1171	0.88353	-0.585
Mof_O 	O 	0.9873	0.2412	0.90207	-0.524
Mof_H 	H 	0.0126	0.1952	0.9402	0.295
Mof_O 	O 	0.7632	0.9346	0.8352	-0.528
Mof_O 	O 	0.5529	0.9047	0.91519	-0.684
Mof_O 	O 	0.4643	0.8334	0.08867	-0.612
Mof_O 	O 	0.6819	0.8729	0.07398	-0.634
Mof_O 	O 	0.792	0.1078	0.08622	-0.583
Mof_O 	O 	0.031	0.1182	0.03858	-0.55
Mof_C 	C 	0.7758	0.4491	0.5597	-0.019
Mof_C 	C 	0.7269	0.5725	0.5587	-0.018
Mof_C 	C 	0.6975	0.6235	0.4831	-0.053
Mof_H 	H 	0.6631	0.7066	0.4833	0.047
Mof_C 	C 	0.7157	0.5591	0.4065	-0.022
Mof_C 	C 	0.7672	0.4359	0.407	-0.017
Mof_C 	C 	0.793	0.3848	0.4837	-0.054
Mof_H 	H 	0.8239	0.3017	0.4843	0.045
Mof_C 	C 	0.8136	0.385	0.6366	0.084
Mof_C 	C 	0.7805	0.2815	0.6567	-0.155
Mof_H 	H 	0.7354	0.2516	0.62	0.081
Mof_C 	C 	0.812	0.222	0.7287	0.101
Mof_H 	H 	0.788	0.1524	0.7412	0.004
Mof_C 	C 	0.8795	0.2644	0.7831	-0.206
Mof_C 	C 	0.9144	0.3665	0.7634	0.095
Mof_H 	H 	0.9589	0.3964	0.8004	0.017
Mof_C 	C 	0.8847	0.4245	0.6907	-0.153
Mof_H 	H 	0.9129	0.4923	0.677	0.086
Mof_C 	C 	0.91	0.2015	0.8606	0.515
Mof_C 	C 	0.7056	0.6542	0.6332	0.082
Mof_C 	C 	0.5956	0.6632	0.7128	-0.155
Mof_H 	H 	0.5341	0.6142	0.7213	0.083
Mof_C 	C 	0.5749	0.7434	0.7801	0.098
Mof_H 	H 	0.4955	0.7519	0.8329	-0.014
Mof_C 	C 	0.6705	0.8111	0.7701	-0.188
Mof_C 	C 	0.7806	0.8015	0.6913	0.088
Mof_H 	H 	0.8465	0.8469	0.6842	0.018
Mof_C 	C 	0.796	0.7265	0.6227	-0.151
Mof_H 	H 	0.8684	0.724	0.568	0.083
Mof_C 	C 	0.6612	0.8886	0.8442	0.462
Mof_C 	C 	0.6792	0.6255	0.3305	0.093
Mof_C 	C 	0.7235	0.7244	0.3106	-0.165
Mof_H 	H 	0.7743	0.7489	0.3467	0.087
Mof_C 	C 	0.6944	0.7867	0.2395	0.12
Mof_H 	H 	0.728	0.8522	0.2263	-0.004
Mof_C 	C 	0.6161	0.7545	0.1868	-0.213
Mof_C 	C 	0.5668	0.6586	0.208	0.11
Mof_H 	H 	0.5099	0.6373	0.1743	-0.001
Mof_C 	C 	0.6003	0.5947	0.2778	-0.16
Mof_H 	H 	0.5689	0.5281	0.2901	0.086
Mof_C 	C 	0.5848	0.8246	0.1104	0.554
Mof_C 	C 	0.8058	0.3567	0.3276	0.084
Mof_C 	C 	0.9038	0.3697	0.2489	-0.15
Mof_H 	H 	0.9463	0.4307	0.2455	0.082
Mof_C 	C 	0.9411	0.2955	0.1751	0.092
Mof_H 	H 	0.0118	0.3038	0.1226	0.003
Mof_C 	C 	0.8743	0.2093	0.1784	-0.201
Mof_C 	C 	0.7782	0.1937	0.2567	0.101
Mof_H 	H 	0.7339	0.1338	0.2594	-0.001
Mof_C 	C 	0.7459	0.2655	0.3316	-0.156
Mof_H 	H 	0.6832	0.2523	0.3855	0.082
Mof_C 	C 	0.9013	0.1383	0.0962	0.502
_end
