data_functionalizedCrystal
_audit_creation_method	'EQeq! by Chris Wilmer'
_symmetry_space_group_name_H-M	'P1'
_symmetry_Int_Tables_number	1
_symmetry_cell_setting	triclinic
loop_
_symmetry_equiv_pos_as_xyz
  x,y,z
_cell_length_a	18.7967
_cell_length_b	18.7967
_cell_length_c	49.394
_cell_angle_alpha	90
_cell_angle_beta	90
_cell_angle_gamma	120
loop_
_atom_site_label
_atom_site_type_symbol
_atom_site_fract_x
_atom_site_fract_y
_atom_site_fract_z
_atom_site_charge
Mof_O 	O 	0.2986	0.222	0.20051	-0.416
Mof_O 	O 	0.2235	0.1845	0.16273	-0.41
Mof_C 	C 	0.2398	0.2133	0.18658	0.39
Mof_C 	C 	0.1804	0.2314	0.19993	-0.148
Mof_C 	C 	0.1925	0.2555	0.22694	0.085
Mof_H 	H 	0.2387	0.2626	0.2362	0.013
Mof_C 	C 	0.0964	0.2998	0.28332	-0.378
Mof_H 	H 	0.0459	0.2903	0.2768	0.166
Mof_C 	C 	0.125	0.3219	0.30987	0.14
Mof_O 	O 	0.96527	0.55533	0.53384	-0.418
Mof_O 	O 	0.89017	0.51783	0.49606	-0.412
Mof_C 	C 	0.90647	0.54663	0.51991	0.39
Mof_C 	C 	0.84707	0.56473	0.53326	-0.151
Mof_C 	C 	0.85917	0.58883	0.56027	0.085
Mof_H 	H 	0.90537	0.59593	0.56953	0.011
Mof_C 	C 	0.76307	0.63313	0.61665	-0.378
Mof_H 	H 	0.71257	0.62363	0.61013	0.166
Mof_C 	C 	0.79167	0.65523	0.6432	0.139
Mof_O 	O 	0.63193	0.88867	0.86718	-0.417
Mof_O 	O 	0.55683	0.85117	0.8294	-0.412
Mof_C 	C 	0.57313	0.87997	0.85325	0.39
Mof_C 	C 	0.51373	0.89807	0.8666	-0.151
Mof_C 	C 	0.52583	0.92217	0.89361	0.084
Mof_H 	H 	0.57203	0.92927	0.90287	0.011
Mof_C 	C 	0.42973	0.96647	0.94999	-0.373
Mof_H 	H 	0.37923	0.95697	0.94347	0.163
Mof_C 	C 	0.45833	0.98857	0.97654	0.135
Mof_O 	O 	0.778	0.0766	0.20051	-0.417
Mof_O 	O 	0.8155	0.039	0.16273	-0.412
Mof_C 	C 	0.7867	0.0265	0.18658	0.392
Mof_C 	C 	0.7686	0.949	0.19993	-0.155
Mof_C 	C 	0.7445	0.937	0.22694	0.087
Mof_H 	H 	0.7374	0.9761	0.2362	0.01
Mof_C 	C 	0.7002	0.7966	0.28332	-0.379
Mof_H 	H 	0.7097	0.7556	0.2768	0.166
Mof_C 	C 	0.6781	0.8031	0.30987	0.139
Mof_O 	O 	0.44467	0.40993	0.53384	-0.417
Mof_O 	O 	0.48217	0.37233	0.49606	-0.412
Mof_C 	C 	0.45337	0.35983	0.51991	0.39
Mof_C 	C 	0.43527	0.28233	0.53326	-0.151
Mof_C 	C 	0.41117	0.27033	0.56027	0.085
Mof_H 	H 	0.40407	0.30943	0.56953	0.011
Mof_C 	C 	0.36687	0.12993	0.61665	-0.379
Mof_H 	H 	0.37637	0.08893	0.61013	0.166
Mof_C 	C 	0.34477	0.13643	0.6432	0.14
Mof_O 	O 	0.11133	0.74327	0.86718	-0.417
Mof_O 	O 	0.14883	0.70567	0.8294	-0.412
Mof_C 	C 	0.12003	0.69317	0.85325	0.39
Mof_C 	C 	0.10193	0.61567	0.8666	-0.15
Mof_C 	C 	0.07783	0.60367	0.89361	0.085
Mof_H 	H 	0.07073	0.64277	0.90287	0.012
Mof_C 	C 	0.03353	0.46327	0.94999	-0.376
Mof_H 	H 	0.04303	0.42227	0.94347	0.165
Mof_C 	C 	0.01143	0.46977	0.97654	0.138
Mof_O 	O 	0.9234	0.7014	0.20051	-0.417
Mof_O 	O 	0.961	0.7765	0.16273	-0.412
Mof_C 	C 	0.9735	0.7602	0.18658	0.386
Mof_C 	C 	0.051	0.8196	0.19993	-0.147
Mof_C 	C 	0.063	0.8075	0.22694	0.084
Mof_H 	H 	0.0239	0.7613	0.2362	0.012
Mof_C 	C 	0.2034	0.9036	0.28332	-0.378
Mof_H 	H 	0.2444	0.9541	0.2768	0.165
Mof_C 	C 	0.1969	0.875	0.30987	0.139
Mof_O 	O 	0.59007	0.03473	0.53384	-0.416
Mof_O 	O 	0.62767	0.10983	0.49606	-0.411
Mof_C 	C 	0.64017	0.09353	0.51991	0.39
Mof_C 	C 	0.71767	0.15293	0.53326	-0.151
Mof_C 	C 	0.72967	0.14083	0.56027	0.085
Mof_H 	H 	0.69057	0.09463	0.56953	0.011
Mof_C 	C 	0.87007	0.23693	0.61665	-0.378
Mof_H 	H 	0.91107	0.28743	0.61013	0.165
Mof_C 	C 	0.86357	0.20833	0.6432	0.139
Mof_O 	O 	0.25673	0.36807	0.86718	-0.417
Mof_O 	O 	0.29433	0.44317	0.8294	-0.412
Mof_C 	C 	0.30683	0.42687	0.85325	0.39
Mof_C 	C 	0.38433	0.48627	0.8666	-0.151
Mof_C 	C 	0.39633	0.47417	0.89361	0.085
Mof_H 	H 	0.35723	0.42797	0.90287	0.011
Mof_C 	C 	0.53673	0.57027	0.94999	-0.378
Mof_H 	H 	0.57773	0.62077	0.94347	0.165
Mof_C 	C 	0.53023	0.54167	0.97654	0.138
Mof_O 	O 	0.222	0.2986	0.79949	-0.417
Mof_O 	O 	0.1845	0.2235	0.83727	-0.411
Mof_C 	C 	0.2133	0.2398	0.81342	0.389
Mof_C 	C 	0.2314	0.1804	0.80007	-0.149
Mof_C 	C 	0.2555	0.1925	0.77306	0.084
Mof_H 	H 	0.2626	0.2387	0.7638	0.012
Mof_C 	C 	0.2998	0.0964	0.71668	-0.378
Mof_H 	H 	0.2903	0.0459	0.7232	0.166
Mof_C 	C 	0.3219	0.125	0.69013	0.14
Mof_O 	O 	0.88867	0.63193	0.13282	-0.417
Mof_O 	O 	0.85117	0.55683	0.1706	-0.412
Mof_C 	C 	0.87997	0.57313	0.14675	0.39
Mof_C 	C 	0.89807	0.51373	0.1334	-0.151
Mof_C 	C 	0.92217	0.52583	0.10639	0.084
Mof_H 	H 	0.92927	0.57203	0.09713	0.011
Mof_C 	C 	0.96647	0.42973	0.05001	-0.374
Mof_H 	H 	0.95697	0.37923	0.05653	0.164
Mof_C 	C 	0.98857	0.45833	0.02346	0.135
Mof_O 	O 	0.55533	0.96527	0.46616	-0.418
Mof_O 	O 	0.51783	0.89017	0.50394	-0.412
Mof_C 	C 	0.54663	0.90647	0.48009	0.39
Mof_C 	C 	0.56473	0.84707	0.46674	-0.151
Mof_C 	C 	0.58883	0.85917	0.43973	0.085
Mof_H 	H 	0.59593	0.90537	0.43047	0.011
Mof_C 	C 	0.63313	0.76307	0.38335	-0.378
Mof_H 	H 	0.62363	0.71257	0.38987	0.166
Mof_C 	C 	0.65523	0.79167	0.3568	0.139
Mof_O 	O 	0.0766	0.778	0.79949	-0.417
Mof_O 	O 	0.039	0.8155	0.83727	-0.412
Mof_C 	C 	0.0265	0.7867	0.81342	0.392
Mof_C 	C 	0.949	0.7686	0.80007	-0.155
Mof_C 	C 	0.937	0.7445	0.77306	0.087
Mof_H 	H 	0.9761	0.7374	0.7638	0.01
Mof_C 	C 	0.7966	0.7002	0.71668	-0.379
Mof_H 	H 	0.7556	0.7097	0.7232	0.166
Mof_C 	C 	0.8031	0.6781	0.69013	0.139
Mof_O 	O 	0.74327	0.11133	0.13282	-0.417
Mof_O 	O 	0.70567	0.14883	0.1706	-0.412
Mof_C 	C 	0.69317	0.12003	0.14675	0.39
Mof_C 	C 	0.61567	0.10193	0.1334	-0.15
Mof_C 	C 	0.60367	0.07783	0.10639	0.085
Mof_H 	H 	0.64277	0.07073	0.09713	0.012
Mof_C 	C 	0.46327	0.03353	0.05001	-0.376
Mof_H 	H 	0.42227	0.04303	0.05653	0.165
Mof_C 	C 	0.46977	0.01143	0.02346	0.138
Mof_O 	O 	0.40993	0.44467	0.46616	-0.417
Mof_O 	O 	0.37233	0.48217	0.50394	-0.412
Mof_C 	C 	0.35983	0.45337	0.48009	0.39
Mof_C 	C 	0.28233	0.43527	0.46674	-0.151
Mof_C 	C 	0.27033	0.41117	0.43973	0.085
Mof_H 	H 	0.30943	0.40407	0.43047	0.011
Mof_C 	C 	0.12993	0.36687	0.38335	-0.379
Mof_H 	H 	0.08893	0.37637	0.38987	0.166
Mof_C 	C 	0.13643	0.34477	0.3568	0.14
Mof_O 	O 	0.7014	0.9234	0.79949	-0.417
Mof_O 	O 	0.7765	0.961	0.83727	-0.412
Mof_C 	C 	0.7602	0.9735	0.81342	0.386
Mof_C 	C 	0.8196	0.051	0.80007	-0.147
Mof_C 	C 	0.8075	0.063	0.77306	0.084
Mof_H 	H 	0.7613	0.0239	0.7638	0.012
Mof_C 	C 	0.9036	0.2034	0.71668	-0.378
Mof_H 	H 	0.9541	0.2444	0.7232	0.165
Mof_C 	C 	0.875	0.1969	0.69013	0.139
Mof_O 	O 	0.36807	0.25673	0.13282	-0.417
Mof_O 	O 	0.44317	0.29433	0.1706	-0.412
Mof_C 	C 	0.42687	0.30683	0.14675	0.39
Mof_C 	C 	0.48627	0.38433	0.1334	-0.151
Mof_C 	C 	0.47417	0.39633	0.10639	0.085
Mof_H 	H 	0.42797	0.35723	0.09713	0.011
Mof_C 	C 	0.57027	0.53673	0.05001	-0.378
Mof_H 	H 	0.62077	0.57773	0.05653	0.165
Mof_C 	C 	0.54167	0.53023	0.02346	0.139
Mof_O 	O 	0.03473	0.59007	0.46616	-0.416
Mof_O 	O 	0.10983	0.62767	0.50394	-0.411
Mof_C 	C 	0.09353	0.64017	0.48009	0.39
Mof_C 	C 	0.15293	0.71767	0.46674	-0.151
Mof_C 	C 	0.14083	0.72967	0.43973	0.085
Mof_H 	H 	0.09463	0.69057	0.43047	0.011
Mof_C 	C 	0.23693	0.87007	0.38335	-0.378
Mof_H 	H 	0.28743	0.91107	0.38987	0.165
Mof_C 	C 	0.20833	0.86357	0.3568	0.139
Mof_O 	O 	0.7014	0.778	0.79949	-0.418
Mof_O 	O 	0.7765	0.8155	0.83727	-0.413
Mof_C 	C 	0.7602	0.7867	0.81342	0.39
Mof_C 	C 	0.8196	0.7686	0.80007	-0.153
Mof_C 	C 	0.8075	0.7445	0.77306	0.087
Mof_H 	H 	0.7613	0.7374	0.7638	0.01
Mof_C 	C 	0.9036	0.7002	0.71668	-0.379
Mof_H 	H 	0.9541	0.7097	0.7232	0.165
Mof_C 	C 	0.875	0.6781	0.69013	0.139
Mof_O 	O 	0.36807	0.11133	0.13282	-0.417
Mof_O 	O 	0.44317	0.14883	0.1706	-0.412
Mof_C 	C 	0.42687	0.12003	0.14675	0.39
Mof_C 	C 	0.48627	0.10193	0.1334	-0.15
Mof_C 	C 	0.47417	0.07783	0.10639	0.085
Mof_H 	H 	0.42797	0.07073	0.09713	0.012
Mof_C 	C 	0.57027	0.03353	0.05001	-0.376
Mof_H 	H 	0.62077	0.04303	0.05653	0.165
Mof_C 	C 	0.54167	0.01143	0.02346	0.138
Mof_O 	O 	0.03473	0.44467	0.46616	-0.416
Mof_O 	O 	0.10983	0.48217	0.50394	-0.411
Mof_C 	C 	0.09353	0.45337	0.48009	0.39
Mof_C 	C 	0.15293	0.43527	0.46674	-0.151
Mof_C 	C 	0.14083	0.41117	0.43973	0.085
Mof_H 	H 	0.09463	0.40407	0.43047	0.011
Mof_C 	C 	0.23693	0.36687	0.38335	-0.378
Mof_H 	H 	0.28743	0.37637	0.38987	0.166
Mof_C 	C 	0.20833	0.34477	0.3568	0.139
Mof_O 	O 	0.222	0.9234	0.79949	-0.417
Mof_O 	O 	0.1845	0.961	0.83727	-0.412
Mof_C 	C 	0.2133	0.9735	0.81342	0.386
Mof_C 	C 	0.2314	0.051	0.80007	-0.146
Mof_C 	C 	0.2555	0.063	0.77306	0.083
Mof_H 	H 	0.2626	0.0239	0.7638	0.013
Mof_C 	C 	0.2998	0.2034	0.71668	-0.377
Mof_H 	H 	0.2903	0.2444	0.7232	0.165
Mof_C 	C 	0.3219	0.1969	0.69013	0.139
Mof_O 	O 	0.88867	0.25673	0.13282	-0.417
Mof_O 	O 	0.85117	0.29433	0.1706	-0.412
Mof_C 	C 	0.87997	0.30683	0.14675	0.389
Mof_C 	C 	0.89807	0.38433	0.1334	-0.151
Mof_C 	C 	0.92217	0.39633	0.10639	0.084
Mof_H 	H 	0.92927	0.35723	0.09713	0.011
Mof_C 	C 	0.96647	0.53673	0.05001	-0.373
Mof_H 	H 	0.95697	0.57773	0.05653	0.163
Mof_C 	C 	0.98857	0.53023	0.02346	0.135
Mof_O 	O 	0.55533	0.59007	0.46616	-0.417
Mof_O 	O 	0.51783	0.62767	0.50394	-0.412
Mof_C 	C 	0.54663	0.64017	0.48009	0.39
Mof_C 	C 	0.56473	0.71767	0.46674	-0.151
Mof_C 	C 	0.58883	0.72967	0.43973	0.085
Mof_H 	H 	0.59593	0.69057	0.43047	0.011
Mof_C 	C 	0.63313	0.87007	0.38335	-0.378
Mof_H 	H 	0.62363	0.91107	0.38987	0.165
Mof_C 	C 	0.65523	0.86357	0.3568	0.139
Mof_O 	O 	0.0766	0.2986	0.79949	-0.417
Mof_O 	O 	0.039	0.2235	0.83727	-0.411
Mof_C 	C 	0.0265	0.2398	0.81342	0.392
Mof_C 	C 	0.949	0.1804	0.80007	-0.153
Mof_C 	C 	0.937	0.1925	0.77306	0.086
Mof_H 	H 	0.9761	0.2387	0.7638	0.011
Mof_C 	C 	0.7966	0.0964	0.71668	-0.378
Mof_H 	H 	0.7556	0.0459	0.7232	0.166
Mof_C 	C 	0.8031	0.125	0.69013	0.14
Mof_O 	O 	0.74327	0.63193	0.13282	-0.417
Mof_O 	O 	0.70567	0.55683	0.1706	-0.412
Mof_C 	C 	0.69317	0.57313	0.14675	0.39
Mof_C 	C 	0.61567	0.51373	0.1334	-0.151
Mof_C 	C 	0.60367	0.52583	0.10639	0.085
Mof_H 	H 	0.64277	0.57203	0.09713	0.011
Mof_C 	C 	0.46327	0.42973	0.05001	-0.378
Mof_H 	H 	0.42227	0.37923	0.05653	0.166
Mof_C 	C 	0.46977	0.45833	0.02346	0.14
Mof_O 	O 	0.40993	0.96527	0.46616	-0.418
Mof_O 	O 	0.37233	0.89017	0.50394	-0.412
Mof_C 	C 	0.35983	0.90647	0.48009	0.39
Mof_C 	C 	0.28233	0.84707	0.46674	-0.151
Mof_C 	C 	0.27033	0.85917	0.43973	0.085
Mof_H 	H 	0.30943	0.90537	0.43047	0.011
Mof_C 	C 	0.12993	0.76307	0.38335	-0.379
Mof_H 	H 	0.08893	0.71257	0.38987	0.166
Mof_C 	C 	0.13643	0.79167	0.3568	0.14
Mof_O 	O 	0.778	0.7014	0.20051	-0.418
Mof_O 	O 	0.8155	0.7765	0.16273	-0.413
Mof_C 	C 	0.7867	0.7602	0.18658	0.39
Mof_C 	C 	0.7686	0.8196	0.19993	-0.153
Mof_C 	C 	0.7445	0.8075	0.22694	0.087
Mof_H 	H 	0.7374	0.7613	0.2362	0.01
Mof_C 	C 	0.7002	0.9036	0.28332	-0.379
Mof_H 	H 	0.7097	0.9541	0.2768	0.165
Mof_C 	C 	0.6781	0.875	0.30987	0.139
Mof_O 	O 	0.44467	0.03473	0.53384	-0.416
Mof_O 	O 	0.48217	0.10983	0.49606	-0.411
Mof_C 	C 	0.45337	0.09353	0.51991	0.39
Mof_C 	C 	0.43527	0.15293	0.53326	-0.151
Mof_C 	C 	0.41117	0.14083	0.56027	0.085
Mof_H 	H 	0.40407	0.09463	0.56953	0.011
Mof_C 	C 	0.36687	0.23693	0.61665	-0.378
Mof_H 	H 	0.37637	0.28743	0.61013	0.166
Mof_C 	C 	0.34477	0.20833	0.6432	0.139
Mof_O 	O 	0.11133	0.36807	0.86718	-0.417
Mof_O 	O 	0.14883	0.44317	0.8294	-0.412
Mof_C 	C 	0.12003	0.42687	0.85325	0.39
Mof_C 	C 	0.10193	0.48627	0.8666	-0.15
Mof_C 	C 	0.07783	0.47417	0.89361	0.085
Mof_H 	H 	0.07073	0.42797	0.90287	0.012
Mof_C 	C 	0.03353	0.57027	0.94999	-0.375
Mof_H 	H 	0.04303	0.62077	0.94347	0.165
Mof_C 	C 	0.01143	0.54167	0.97654	0.137
Mof_O 	O 	0.9234	0.222	0.20051	-0.417
Mof_O 	O 	0.961	0.1845	0.16273	-0.412
Mof_C 	C 	0.9735	0.2133	0.18658	0.386
Mof_C 	C 	0.051	0.2314	0.19993	-0.146
Mof_C 	C 	0.063	0.2555	0.22694	0.083
Mof_H 	H 	0.0239	0.2626	0.2362	0.013
Mof_C 	C 	0.2034	0.2998	0.28332	-0.377
Mof_H 	H 	0.2444	0.2903	0.2768	0.165
Mof_C 	C 	0.1969	0.3219	0.30987	0.139
Mof_O 	O 	0.59007	0.55533	0.53384	-0.417
Mof_O 	O 	0.62767	0.51783	0.49606	-0.412
Mof_C 	C 	0.64017	0.54663	0.51991	0.39
Mof_C 	C 	0.71767	0.56473	0.53326	-0.151
Mof_C 	C 	0.72967	0.58883	0.56027	0.085
Mof_H 	H 	0.69057	0.59593	0.56953	0.011
Mof_C 	C 	0.87007	0.63313	0.61665	-0.378
Mof_H 	H 	0.91107	0.62363	0.61013	0.165
Mof_C 	C 	0.86357	0.65523	0.6432	0.139
Mof_O 	O 	0.25673	0.88867	0.86718	-0.417
Mof_O 	O 	0.29433	0.85117	0.8294	-0.412
Mof_C 	C 	0.30683	0.87997	0.85325	0.389
Mof_C 	C 	0.38433	0.89807	0.8666	-0.151
Mof_C 	C 	0.39633	0.92217	0.89361	0.084
Mof_H 	H 	0.35723	0.92927	0.90287	0.011
Mof_C 	C 	0.53673	0.96647	0.94999	-0.373
Mof_H 	H 	0.57773	0.95697	0.94347	0.163
Mof_C 	C 	0.53023	0.98857	0.97654	0.134
Mof_O 	O 	0.2986	0.0766	0.20051	-0.417
Mof_O 	O 	0.2235	0.039	0.16273	-0.411
Mof_C 	C 	0.2398	0.0265	0.18658	0.392
Mof_C 	C 	0.1804	0.949	0.19993	-0.153
Mof_C 	C 	0.1925	0.937	0.22694	0.086
Mof_H 	H 	0.2387	0.9761	0.2362	0.011
Mof_C 	C 	0.0964	0.7966	0.28332	-0.378
Mof_H 	H 	0.0459	0.7556	0.2768	0.166
Mof_C 	C 	0.125	0.8031	0.30987	0.14
Mof_O 	O 	0.96527	0.40993	0.53384	-0.418
Mof_O 	O 	0.89017	0.37233	0.49606	-0.412
Mof_C 	C 	0.90647	0.35983	0.51991	0.39
Mof_C 	C 	0.84707	0.28233	0.53326	-0.151
Mof_C 	C 	0.85917	0.27033	0.56027	0.085
Mof_H 	H 	0.90537	0.30943	0.56953	0.011
Mof_C 	C 	0.76307	0.12993	0.61665	-0.379
Mof_H 	H 	0.71257	0.08893	0.61013	0.166
Mof_C 	C 	0.79167	0.13643	0.6432	0.14
Mof_O 	O 	0.63193	0.74327	0.86718	-0.417
Mof_O 	O 	0.55683	0.70567	0.8294	-0.412
Mof_C 	C 	0.57313	0.69317	0.85325	0.39
Mof_C 	C 	0.51373	0.61567	0.8666	-0.151
Mof_C 	C 	0.52583	0.60367	0.89361	0.085
Mof_H 	H 	0.57203	0.64277	0.90287	0.011
Mof_C 	C 	0.42973	0.46327	0.94999	-0.378
Mof_H 	H 	0.37923	0.42227	0.94347	0.166
Mof_C 	C 	0.45833	0.46977	0.97654	0.139
Mof_Cu	Cu	0.28737	0.14368	0.14433	0.906
Mof_Cu	Cu	0.95404	0.47702	0.47766	0.905
Mof_Cu	Cu	0.6207	0.81035	0.81099	0.906
Mof_Cu	Cu	0.85632	0.14368	0.14433	0.906
Mof_Cu	Cu	0.52298	0.47702	0.47766	0.906
Mof_Cu	Cu	0.18965	0.81035	0.81099	0.906
Mof_Cu	Cu	0.85631	0.71263	0.14433	0.906
Mof_Cu	Cu	0.52298	0.04596	0.47766	0.907
Mof_Cu	Cu	0.18965	0.3793	0.81099	0.906
Mof_Cu	Cu	0.14368	0.28737	0.85567	0.906
Mof_Cu	Cu	0.81035	0.6207	0.18901	0.906
Mof_Cu	Cu	0.47702	0.95404	0.52234	0.905
Mof_Cu	Cu	0.14368	0.85632	0.85567	0.906
Mof_Cu	Cu	0.81035	0.18965	0.18901	0.906
Mof_Cu	Cu	0.47702	0.52298	0.52234	0.906
Mof_Cu	Cu	0.71263	0.85631	0.85567	0.906
Mof_Cu	Cu	0.3793	0.18965	0.18901	0.906
Mof_Cu	Cu	0.04596	0.52298	0.52234	0.907
Mof_C 	C 	0.11095	0.2219	0.1873	0.093
Mof_H 	H 	0.10405	0.2081	0.169	0.031
Mof_C 	C 	0.13435	0.2687	0.2398	-0.151
Mof_C 	C 	0.1477	0.2954	0.2705	0.366
Mof_C 	C 	0.77762	0.55523	0.52063	0.095
Mof_H 	H 	0.77072	0.54143	0.50233	0.029
Mof_C 	C 	0.80102	0.60203	0.57313	-0.154
Mof_C 	C 	0.81437	0.62873	0.60383	0.366
Mof_C 	C 	0.44428	0.88857	0.85397	0.095
Mof_H 	H 	0.43738	0.87477	0.83567	0.029
Mof_C 	C 	0.46768	0.93537	0.90647	-0.152
Mof_C 	C 	0.48103	0.96207	0.93717	0.361
Mof_C 	C 	0.7781	0.88905	0.1873	0.097
Mof_H 	H 	0.7919	0.89595	0.169	0.028
Mof_C 	C 	0.7313	0.86565	0.2398	-0.155
Mof_C 	C 	0.7046	0.8523	0.2705	0.367
Mof_C 	C 	0.44477	0.22238	0.52063	0.095
Mof_H 	H 	0.45857	0.22928	0.50233	0.029
Mof_C 	C 	0.39797	0.19898	0.57313	-0.153
Mof_C 	C 	0.37127	0.18563	0.60383	0.367
Mof_C 	C 	0.11143	0.55572	0.85397	0.095
Mof_H 	H 	0.12523	0.56262	0.83567	0.029
Mof_C 	C 	0.06463	0.53232	0.90647	-0.152
Mof_C 	C 	0.03793	0.51897	0.93717	0.364
Mof_C 	C 	0.11095	0.88905	0.1873	0.095
Mof_H 	H 	0.10405	0.89595	0.169	0.03
Mof_C 	C 	0.13435	0.86565	0.2398	-0.153
Mof_C 	C 	0.1477	0.8523	0.2705	0.366
Mof_C 	C 	0.77762	0.22238	0.52063	0.095
Mof_H 	H 	0.77072	0.22928	0.50233	0.029
Mof_C 	C 	0.80102	0.19898	0.57313	-0.153
Mof_C 	C 	0.81437	0.18563	0.60383	0.367
Mof_C 	C 	0.44428	0.55572	0.85397	0.095
Mof_H 	H 	0.43738	0.56262	0.83567	0.029
Mof_C 	C 	0.46768	0.53232	0.90647	-0.153
Mof_C 	C 	0.48103	0.51897	0.93717	0.366
Mof_C 	C 	0.2219	0.11095	0.8127	0.093
Mof_H 	H 	0.2081	0.10405	0.831	0.031
Mof_C 	C 	0.2687	0.13435	0.7602	-0.151
Mof_C 	C 	0.2954	0.1477	0.7295	0.366
Mof_C 	C 	0.88857	0.44428	0.14603	0.095
Mof_H 	H 	0.87477	0.43738	0.16433	0.029
Mof_C 	C 	0.93537	0.46768	0.09353	-0.152
Mof_C 	C 	0.96207	0.48103	0.06283	0.361
Mof_C 	C 	0.55523	0.77762	0.47937	0.095
Mof_H 	H 	0.54143	0.77072	0.49767	0.029
Mof_C 	C 	0.60203	0.80102	0.42687	-0.154
Mof_C 	C 	0.62873	0.81437	0.39617	0.366
Mof_C 	C 	0.88905	0.7781	0.8127	0.097
Mof_H 	H 	0.89595	0.7919	0.831	0.028
Mof_C 	C 	0.86565	0.7313	0.7602	-0.155
Mof_C 	C 	0.8523	0.7046	0.7295	0.367
Mof_C 	C 	0.55572	0.11143	0.14603	0.095
Mof_H 	H 	0.56262	0.12523	0.16433	0.029
Mof_C 	C 	0.53232	0.06463	0.09353	-0.152
Mof_C 	C 	0.51897	0.03793	0.06283	0.365
Mof_C 	C 	0.22238	0.44477	0.47937	0.095
Mof_H 	H 	0.22928	0.45857	0.49767	0.029
Mof_C 	C 	0.19898	0.39797	0.42687	-0.153
Mof_C 	C 	0.18563	0.37127	0.39617	0.367
Mof_C 	C 	0.88905	0.11095	0.8127	0.095
Mof_H 	H 	0.89595	0.10405	0.831	0.03
Mof_C 	C 	0.86565	0.13435	0.7602	-0.153
Mof_C 	C 	0.8523	0.1477	0.7295	0.366
Mof_C 	C 	0.55572	0.44428	0.14603	0.095
Mof_H 	H 	0.56262	0.43738	0.16433	0.029
Mof_C 	C 	0.53232	0.46768	0.09353	-0.153
Mof_C 	C 	0.51897	0.48103	0.06283	0.366
Mof_C 	C 	0.22238	0.77762	0.47937	0.095
Mof_H 	H 	0.22928	0.77072	0.49767	0.029
Mof_C 	C 	0.19898	0.80102	0.42687	-0.153
Mof_C 	C 	0.18563	0.81437	0.39617	0.367
Mof_C 	C 	0.09322	0.33333	0.33333	-0.225
Mof_H 	H 	0.04382	0.33333	0.33333	0.116
Mof_C 	C 	0.66667	0.75988	0.33333	-0.225
Mof_H 	H 	0.66667	0.71048	0.33333	0.115
Mof_C 	C 	0.24012	0.90678	0.33333	-0.224
Mof_H 	H 	0.28952	0.95618	0.33333	0.114
Mof_C 	C 	0.33333	0.09322	0.66667	-0.225
Mof_H 	H 	0.33333	0.04382	0.66667	0.116
Mof_C 	C 	-0	0.42655	-0	-0.219
Mof_H 	H 	-0	0.37715	-0	0.114
Mof_C 	C 	0.75988	0.66667	0.66667	-0.225
Mof_H 	H 	0.71048	0.66667	0.66667	0.115
Mof_C 	C 	0.42655	0	-0	-0.219
Mof_H 	H 	0.37715	0	-0	0.114
Mof_C 	C 	0.90678	0.24012	0.66667	-0.224
Mof_H 	H 	0.95618	0.28952	0.66667	0.114
Mof_C 	C 	0.57345	0.57345	-0	-0.224
Mof_H 	H 	0.62285	0.62285	-0	0.114
Mof_C 	C 	0.90678	0.66667	0.66667	-0.225
Mof_H 	H 	0.95618	0.66667	0.66667	0.114
Mof_C 	C 	0.57345	0	-0	-0.219
Mof_H 	H 	0.62285	0	-0	0.114
Mof_C 	C 	0.24012	0.33333	0.33333	-0.224
Mof_H 	H 	0.28952	0.33333	0.33333	0.115
Mof_C 	C 	0.33333	0.24012	0.66667	-0.224
Mof_H 	H 	0.33333	0.28952	0.66667	0.115
Mof_C 	C 	-6.01772e-17	0.57345	-0	-0.219
Mof_H 	H 	-0	0.62285	-0	0.114
Mof_C 	C 	0.75988	0.09322	0.66667	-0.225
Mof_H 	H 	0.71048	0.04382	0.66667	0.116
Mof_C 	C 	0.42655	0.42655	-0	-0.225
Mof_H 	H 	0.37715	0.37715	-0	0.115
Mof_C 	C 	0.66667	0.90678	0.33333	-0.225
Mof_H 	H 	0.66667	0.95618	0.33333	0.114
Mof_C 	C 	0.09322	0.75988	0.33333	-0.225
Mof_H 	H 	0.04382	0.71048	0.33333	0.116
_end
