data_functionalizedCrystal
_audit_creation_method	'EQeq! by Chris Wilmer'
_symmetry_space_group_name_H-M	'P1'
_symmetry_Int_Tables_number	1
_symmetry_cell_setting	triclinic
loop_
_symmetry_equiv_pos_as_xyz
  x,y,z
_cell_length_a	49.6144
_cell_length_b	49.7381
_cell_length_c	49.6149
_cell_angle_alpha	60.2232
_cell_angle_beta	60.0185
_cell_angle_gamma	60.1218
loop_
_atom_site_label
_atom_site_type_symbol
_atom_site_fract_x
_atom_site_fract_y
_atom_site_fract_z
_atom_site_charge
Mof_O 	O 	0.40693	0.76463	0.31064	-0.406
Mof_O 	O 	0.40684	0.71933	0.35627	-0.405
Mof_C 	C 	0.39215	0.74834	0.33983	0.344
Mof_O 	O 	0.44429	0.72683	0.2733	-0.406
Mof_O 	O 	0.44419	0.68158	0.31898	-0.405
Mof_C 	C 	0.4421	0.69783	0.28988	0.344
Mof_Cu	Cu	0.45213	0.75076	0.28681	0.928
Mof_Cu	Cu	0.45187	0.69604	0.34199	0.932
Mof_O 	O 	0.49729	0.72683	0.27315	-0.406
Mof_O 	O 	0.49696	0.68157	0.31883	-0.405
Mof_O 	O 	0.45985	0.76448	0.31065	-0.406
Mof_O 	O 	0.45956	0.71916	0.35627	-0.405
Mof_C 	C 	0.51188	0.69781	0.28971	0.344
Mof_C 	C 	0.46178	0.74814	0.33983	0.343
Mof_O 	O 	0.40643	0.76548	0.50828	-0.406
Mof_O 	O 	0.40656	0.71986	0.50826	-0.404
Mof_C 	C 	0.39173	0.74891	0.51039	0.345
Mof_O 	O 	0.45933	0.76549	0.45534	-0.405
Mof_O 	O 	0.45921	0.71987	0.45559	-0.404
Mof_C 	C 	0.46137	0.74888	0.44072	0.345
Mof_Cu	Cu	0.45167	0.75201	0.5005	0.929
Mof_Cu	Cu	0.45161	0.69692	0.50061	0.933
Mof_O 	O 	0.4969	0.72812	0.49282	-0.405
Mof_O 	O 	0.49667	0.68258	0.49302	-0.404
Mof_O 	O 	0.44402	0.72845	0.54567	-0.405
Mof_O 	O 	0.44403	0.68292	0.54561	-0.404
Mof_C 	C 	0.51154	0.69899	0.49083	0.345
Mof_C 	C 	0.44192	0.6994	0.56038	0.345
Mof_H 	H 	0.47895	0.16539	0.12846	0.048
Mof_C 	C 	0.47929	0.16152	0.17352	0.03
Mof_C 	C 	0.47958	0.17798	0.18946	-0.071
Mof_H 	H 	0.48082	0.16523	0.21416	0.048
Mof_C 	C 	0.47989	0.21219	0.17237	0.027
Mof_C 	C 	0.48005	0.22797	0.1398	-0.071
Mof_H 	H 	0.47927	0.2533	0.12746	0.048
Mof_C 	C 	0.47977	0.21195	0.12341	0.027
Mof_C 	C 	0.47927	0.17781	0.14101	-0.071
Mof_C 	C 	0.49914	0.24976	0.17328	-0.032
Mof_H 	H 	0.51498	0.25257	0.14784	0.036
Mof_C 	C 	0.49875	0.26612	0.18973	-0.047
Mof_H 	H 	0.51395	0.28156	0.17678	0.042
Mof_C 	C 	0.47893	0.26244	0.22276	0.023
Mof_C 	C 	0.45952	0.24231	0.23935	-0.047
Mof_H 	H 	0.44405	0.23942	0.2649	0.042
Mof_C 	C 	0.45989	0.22591	0.22295	-0.032
Mof_H 	H 	0.44432	0.21083	0.23606	0.036
Mof_C 	C 	0.47966	0.2295	0.18973	-0.003
Mof_C 	C 	0.49952	0.10377	0.17442	-0.032
Mof_H 	H 	0.5156	0.11052	0.14911	0.037
Mof_C 	C 	0.49961	0.07133	0.19079	-0.048
Mof_H 	H 	0.51541	0.05358	0.1779	0.043
Mof_C 	C 	0.4795	0.06187	0.22368	0.023
Mof_C 	C 	0.45924	0.08495	0.24017	-0.048
Mof_H 	H 	0.44349	0.07783	0.26559	0.042
Mof_C 	C 	0.45913	0.11739	0.22386	-0.032
Mof_H 	H 	0.44299	0.13501	0.23688	0.036
Mof_C 	C 	0.4793	0.12713	0.1908	-0.005
Mof_C 	C 	0.45932	0.22569	0.07948	-0.033
Mof_H 	H 	0.44342	0.21099	0.09717	0.037
Mof_C 	C 	0.45892	0.24196	0.04713	-0.047
Mof_H 	H 	0.44307	0.23936	0.04015	0.043
Mof_C 	C 	0.47872	0.26166	0.02403	0.023
Mof_C 	C 	0.499	0.265	0.03329	-0.047
Mof_H 	H 	0.51447	0.28014	0.01548	0.042
Mof_C 	C 	0.49942	0.24879	0.06562	-0.033
Mof_H 	H 	0.51557	0.25137	0.07223	0.036
Mof_C 	C 	0.47953	0.22901	0.08907	-0.003
Mof_C 	C 	0.47955	0.02852	0.24049	-0.02
Mof_C 	C 	0.47948	0.00061	0.25458	-0.016
Mof_C 	C 	0.47854	0.2793	0.23966	-0.02
Mof_C 	C 	0.47823	0.29337	0.25384	-0.016
Mof_C 	C 	0.47809	0.27865	0.99086	-0.02
Mof_C 	C 	0.47757	0.29304	0.96306	-0.016
Mof_C 	C 	0.4802	0.95089	0.30359	-0.04
Mof_H 	H 	0.48153	0.96295	0.31582	0.041
Mof_C 	C 	0.4793	0.91878	0.32018	-0.043
Mof_H 	H 	0.47991	0.90626	0.34512	0.043
Mof_C 	C 	0.47739	0.90304	0.30464	0.023
Mof_C 	C 	0.47653	0.91947	0.2724	-0.043
Mof_H 	H 	0.47499	0.9075	0.26023	0.043
Mof_C 	C 	0.47743	0.95159	0.25582	-0.04
Mof_H 	H 	0.4766	0.9642	0.23095	0.041
Mof_C 	C 	0.47917	0.96738	0.27142	0.017
Mof_C 	C 	0.47755	0.34258	0.91398	-0.04
Mof_H 	H 	0.4786	0.35455	0.92651	0.041
Mof_C 	C 	0.47674	0.35951	0.88178	-0.043
Mof_H 	H 	0.47711	0.38447	0.86965	0.043
Mof_C 	C 	0.4753	0.34426	0.86545	0.023
Mof_C 	C 	0.47468	0.31202	0.88137	-0.043
Mof_H 	H 	0.47346	0.30012	0.8689	0.043
Mof_C 	C 	0.4755	0.29508	0.91356	-0.04
Mof_H 	H 	0.47496	0.27018	0.92576	0.041
Mof_C 	C 	0.47691	0.31035	0.92992	0.018
Mof_C 	C 	0.47305	0.29565	0.30468	-0.04
Mof_H 	H 	0.46961	0.2719	0.31813	0.041
Mof_C 	C 	0.47257	0.31192	0.32129	-0.043
Mof_H 	H 	0.46871	0.30065	0.34747	0.043
Mof_C 	C 	0.4769	0.34268	0.30414	0.023
Mof_C 	C 	0.48177	0.35709	0.2703	-0.043
Mof_H 	H 	0.48507	0.3809	0.25687	0.043
Mof_C 	C 	0.48225	0.34081	0.25368	-0.04
Mof_H 	H 	0.48595	0.35214	0.22752	0.041
Mof_C 	C 	0.47786	0.31008	0.27086	0.018
Mof_C 	C 	0.47573	0.87028	0.32196	-0.023
Mof_C 	C 	0.47399	0.84298	0.33659	-0.003
Mof_C 	C 	0.47397	0.36179	0.83255	-0.023
Mof_C 	C 	0.4725	0.37646	0.80511	-0.003
Mof_C 	C 	0.47569	0.35968	0.3214	-0.023
Mof_C 	C 	0.47421	0.37407	0.33602	-0.003
Mof_O 	O 	0.26164	0.76568	0.45512	-0.405
Mof_O 	O 	0.30712	0.7201	0.45539	-0.404
Mof_C 	C 	0.29085	0.74912	0.44053	0.345
Mof_O 	O 	0.2616	0.76548	0.50814	-0.404
Mof_O 	O 	0.30708	0.71989	0.50814	-0.404
Mof_C 	C 	0.29073	0.74893	0.51028	0.345
Mof_Cu	Cu	0.23761	0.75203	0.50027	0.928
Mof_Cu	Cu	0.29264	0.69701	0.50037	0.933
Mof_O 	O 	0.22356	0.72847	0.54546	-0.405
Mof_O 	O 	0.26915	0.683	0.54535	-0.404
Mof_O 	O 	0.22413	0.72808	0.49237	-0.404
Mof_O 	O 	0.26972	0.68261	0.49258	-0.404
Mof_C 	C 	0.24002	0.69945	0.56015	0.345
Mof_C 	C 	0.24069	0.69899	0.49026	0.344
Mof_H 	H 	0.16782	0.16507	0.12846	0.048
Mof_C 	C 	0.12602	0.16061	0.17318	0.03
Mof_C 	C 	0.09346	0.17708	0.18932	-0.071
Mof_H 	H 	0.0806	0.16459	0.21434	0.048
Mof_C 	C 	0.07631	0.2116	0.17265	0.027
Mof_C 	C 	0.09304	0.2277	0.14029	-0.071
Mof_H 	H 	0.08032	0.25262	0.12763	0.048
Mof_C 	C 	0.12555	0.21164	0.12366	0.027
Mof_C 	C 	0.14228	0.17712	0.14077	-0.071
Mof_C 	C 	0.03227	0.26152	0.18764	-0.033
Mof_H 	H 	0.04997	0.27441	0.1733	0.036
Mof_C 	C 	0.99983	0.27764	0.20423	-0.047
Mof_H 	H 	0.99281	0.3028	0.20224	0.042
Mof_C 	C 	0.97665	0.26131	0.2234	0.023
Mof_C 	C 	0.986	0.22876	0.22599	-0.047
Mof_H 	H 	0.96816	0.21599	0.24072	0.043
Mof_C 	C 	0.01845	0.21255	0.20947	-0.033
Mof_H 	H 	0.02514	0.18751	0.2114	0.037
Mof_C 	C 	0.0419	0.2288	0.19009	-0.003
Mof_C 	C 	0.16309	0.10302	0.17378	-0.032
Mof_H 	H 	0.16556	0.10984	0.14846	0.036
Mof_C 	C 	0.17943	0.07068	0.18996	-0.048
Mof_H 	H 	0.19453	0.05305	0.17691	0.043
Mof_C 	C 	0.17619	0.06114	0.22284	0.023
Mof_C 	C 	0.15656	0.08405	0.23953	-0.047
Mof_H 	H 	0.15405	0.07689	0.26495	0.043
Mof_C 	C 	0.14018	0.1164	0.22341	-0.032
Mof_H 	H 	0.12551	0.13389	0.23659	0.037
Mof_C 	C 	0.14327	0.12623	0.19035	-0.005
Mof_C 	C 	0.16304	0.21262	0.06595	-0.032
Mof_H 	H 	0.16543	0.18746	0.07252	0.037
Mof_C 	C 	0.17947	0.22897	0.03359	-0.047
Mof_H 	H 	0.19455	0.21621	0.0157	0.042
Mof_C 	C 	0.17625	0.26169	0.02439	0.023
Mof_C 	C 	0.15663	0.27801	0.04763	-0.047
Mof_H 	H 	0.15415	0.3033	0.04071	0.042
Mof_C 	C 	0.14014	0.26175	0.07995	-0.032
Mof_H 	H 	0.12541	0.27467	0.09769	0.036
Mof_C 	C 	0.14312	0.2289	0.08942	-0.003
Mof_C 	C 	0.19305	0.02788	0.23946	-0.02
Mof_C 	C 	0.20715	5e-05	0.25348	-0.016
Mof_C 	C 	0.94332	0.27799	0.24044	-0.02
Mof_C 	C 	0.91545	0.29211	0.25467	-0.016
Mof_C 	C 	0.19289	0.27864	0.99107	-0.02
Mof_C 	C 	0.20668	0.29305	0.96319	-0.016
Mof_C 	C 	0.20707	0.95017	0.30229	-0.04
Mof_H 	H 	0.18127	0.96197	0.31426	0.041
Mof_C 	C 	0.22353	0.91816	0.31898	-0.043
Mof_H 	H 	0.21035	0.90546	0.34374	0.043
Mof_C 	C 	0.25695	0.90276	0.30381	0.023
Mof_C 	C 	0.2738	0.91942	0.2718	-0.043
Mof_H 	H 	0.29965	0.9077	0.25992	0.043
Mof_C 	C 	0.25732	0.95144	0.25511	-0.04
Mof_H 	H 	0.27056	0.96423	0.23043	0.041
Mof_C 	C 	0.22395	0.9669	0.27037	0.017
Mof_C 	C 	0.21011	0.34466	0.91724	-0.04
Mof_H 	H 	0.18773	0.35823	0.93234	0.041
Mof_C 	C 	0.22616	0.36157	0.88499	-0.043
Mof_H 	H 	0.21609	0.38809	0.8754	0.043
Mof_C 	C 	0.25517	0.34424	0.86532	0.023
Mof_C 	C 	0.26804	0.30995	0.87799	-0.043
Mof_H 	H 	0.29049	0.29638	0.86295	0.043
Mof_C 	C 	0.252	0.29305	0.91025	-0.04
Mof_H 	H 	0.26214	0.26654	0.91991	0.041
Mof_C 	C 	0.22304	0.31039	0.92994	0.018
Mof_C 	C 	0.86573	0.29301	0.30411	-0.04
Mof_H 	H 	0.87781	0.26766	0.31655	0.041
Mof_C 	C 	0.83356	0.30967	0.3207	-0.043
Mof_H 	H 	0.821	0.29709	0.34586	0.043
Mof_C 	C 	0.8178	0.3425	0.30486	0.023
Mof_C 	C 	0.83427	0.35858	0.27235	-0.043
Mof_H 	H 	0.82227	0.38398	0.25995	0.043
Mof_C 	C 	0.86644	0.34191	0.25575	-0.04
Mof_H 	H 	0.87907	0.35454	0.23064	0.041
Mof_C 	C 	0.88224	0.30912	0.27162	0.018
Mof_C 	C 	0.27405	0.87016	0.32132	-0.023
Mof_C 	C 	0.28844	0.84298	0.33614	-0.003
Mof_C 	C 	0.27207	0.36167	0.8324	-0.023
Mof_C 	C 	0.2865	0.37626	0.80498	-0.003
Mof_C 	C 	0.78495	0.35981	0.32213	-0.023
Mof_C 	C 	0.75756	0.3744	0.33673	-0.003
Mof_C 	C 	0.67848	0.44275	0.35597	-0.095
Mof_C 	C 	0.72506	0.39194	0.35432	-0.009
Mof_C 	C 	0.67827	0.39355	0.40523	-0.095
Mof_C 	C 	0.70966	0.42492	0.33871	0.005
Mof_H 	H 	0.72233	0.43669	0.31323	0.045
Mof_C 	C 	0.70949	0.37636	0.38738	0.005
Mof_H 	H 	0.72206	0.35095	0.3992	0.045
Mof_C 	C 	0.66288	0.42668	0.38916	0.044
Mof_H 	H 	0.63906	0.44028	0.4028	0.048
Mof_C 	C 	0.72716	0.55583	0.3544	-0.009
Mof_C 	C 	0.67977	0.55143	0.35559	-0.095
Mof_C 	C 	0.67974	0.55164	0.40496	-0.095
Mof_C 	C 	0.71144	0.55427	0.33862	0.005
Mof_H 	H 	0.72422	0.55475	0.31326	0.045
Mof_C 	C 	0.66407	0.5505	0.38864	0.044
Mof_H 	H 	0.63986	0.54792	0.40203	0.048
Mof_C 	C 	0.71142	0.55449	0.38739	0.005
Mof_H 	H 	0.72418	0.55516	0.39939	0.045
Mof_C 	C 	0.59653	0.52379	0.27517	-0.095
Mof_C 	C 	0.59848	0.51709	0.22879	-0.009
Mof_C 	C 	0.54721	0.52368	0.275	-0.095
Mof_C 	C 	0.614	0.51935	0.24421	0.005
Mof_H 	H 	0.63958	0.51814	0.23169	0.045
Mof_C 	C 	0.56534	0.51921	0.24405	0.005
Mof_H 	H 	0.55366	0.51789	0.23143	0.045
Mof_C 	C 	0.56316	0.52564	0.2905	0.044
Mof_H 	H 	0.54934	0.52952	0.31413	0.048
Mof_C 	C 	0.22438	0.68374	0.59577	-0.095
Mof_C 	C 	0.22443	0.6347	0.64516	-0.095
Mof_C 	C 	0.17746	0.68522	0.64658	-0.009
Mof_C 	C 	0.23999	0.65077	0.61198	0.045
Mof_H 	H 	0.26396	0.63726	0.59843	0.048
Mof_C 	C 	0.19307	0.65239	0.66232	0.005
Mof_H 	H 	0.1804	0.64057	0.68778	0.045
Mof_C 	C 	0.193	0.70084	0.61352	0.005
Mof_H 	H 	0.18027	0.72613	0.60161	0.045
Mof_C 	C 	0.59616	0.31237	0.59611	-0.095
Mof_C 	C 	0.59728	0.26585	0.64694	-0.009
Mof_C 	C 	0.54647	0.31248	0.64527	-0.095
Mof_C 	C 	0.61322	0.28127	0.61395	0.005
Mof_H 	H 	0.63876	0.26866	0.60214	0.045
Mof_C 	C 	0.56412	0.28137	0.66252	0.005
Mof_H 	H 	0.55206	0.26885	0.68794	0.045
Mof_C 	C 	0.56286	0.32784	0.61214	0.044
Mof_H 	H 	0.54935	0.35153	0.59848	0.048
Mof_C 	C 	0.47176	0.39149	0.35364	-0.009
Mof_C 	C 	0.46569	0.44233	0.35542	-0.095
Mof_C 	C 	0.46562	0.39315	0.40472	-0.095
Mof_C 	C 	0.46987	0.42445	0.33805	0.005
Mof_H 	H 	0.47109	0.4362	0.31252	0.045
Mof_C 	C 	0.4639	0.42631	0.38869	0.044
Mof_H 	H 	0.4602	0.43997	0.40244	0.048
Mof_C 	C 	0.46967	0.37591	0.38676	0.005
Mof_H 	H 	0.47068	0.35051	0.39855	0.045
Mof_C 	C 	0.59828	0.68322	0.22715	-0.009
Mof_C 	C 	0.59711	0.63294	0.27428	-0.095
Mof_C 	C 	0.54753	0.68194	0.27415	-0.095
Mof_C 	C 	0.61417	0.65048	0.24282	0.005
Mof_H 	H 	0.63965	0.63862	0.23011	0.045
Mof_C 	C 	0.56386	0.64905	0.28984	0.045
Mof_H 	H 	0.55036	0.63566	0.31387	0.048
Mof_C 	C 	0.5652	0.69887	0.2427	0.005
Mof_H 	H 	0.55318	0.72407	0.22989	0.045
Mof_C 	C 	0.35603	0.55119	0.35434	-0.095
Mof_C 	C 	0.30544	0.55607	0.35274	-0.009
Mof_C 	C 	0.3063	0.55173	0.40347	-0.094
Mof_C 	C 	0.33857	0.55425	0.33716	0.005
Mof_H 	H 	0.35076	0.55474	0.3118	0.045
Mof_C 	C 	0.28939	0.55478	0.38572	0.005
Mof_H 	H 	0.26391	0.55567	0.39757	0.045
Mof_C 	C 	0.3395	0.55031	0.38736	0.044
Mof_H 	H 	0.35284	0.54755	0.40091	0.048
Mof_C 	C 	0.43713	0.63483	0.6455	-0.095
Mof_C 	C 	0.43261	0.68534	0.64661	-0.009
Mof_C 	C 	0.43769	0.68374	0.59598	-0.095
Mof_C 	C 	0.43392	0.65253	0.66251	0.005
Mof_H 	H 	0.43302	0.64077	0.68794	0.045
Mof_C 	C 	0.4345	0.70084	0.61357	0.005
Mof_H 	H 	0.43404	0.72608	0.60153	0.045
Mof_C 	C 	0.43864	0.65083	0.61232	0.045
Mof_H 	H 	0.44152	0.63733	0.59887	0.048
Mof_C 	C 	0.42957	0.26655	0.64722	-0.009
Mof_C 	C 	0.43661	0.31268	0.64519	-0.095
Mof_C 	C 	0.43673	0.31229	0.59589	-0.095
Mof_C 	C 	0.43182	0.28202	0.66273	0.005
Mof_H 	H 	0.43029	0.26982	0.68836	0.045
Mof_C 	C 	0.43878	0.32767	0.61185	0.045
Mof_H 	H 	0.44302	0.35101	0.598	0.048
Mof_C 	C 	0.43201	0.28158	0.61399	0.005
Mof_H 	H 	0.4307	0.26902	0.60226	0.045
Mof_C 	C 	0.59664	0.63401	0.48654	-0.095
Mof_C 	C 	0.59815	0.68496	0.48045	-0.009
Mof_C 	C 	0.54718	0.68317	0.4866	-0.095
Mof_C 	C 	0.61387	0.65193	0.4825	0.005
Mof_H 	H 	0.6394	0.6402	0.48137	0.045
Mof_C 	C 	0.56503	0.70048	0.48254	0.005
Mof_H 	H 	0.55316	0.72593	0.48145	0.045
Mof_C 	C 	0.56336	0.65002	0.48823	0.045
Mof_H 	H 	0.54973	0.63635	0.49176	0.048
Mof_C 	C 	0.30668	0.76438	0.51456	-0.095
Mof_C 	C 	0.30537	0.81112	0.51991	-0.009
Mof_C 	C 	0.3561	0.76436	0.51462	-0.095
Mof_C 	C 	0.28959	0.79561	0.51815	0.005
Mof_H 	H 	0.26415	0.80827	0.51899	0.045
Mof_C 	C 	0.33839	0.7956	0.51822	0.005
Mof_H 	H 	0.35033	0.80824	0.51912	0.045
Mof_C 	C 	0.33986	0.74883	0.51317	0.045
Mof_H 	H 	0.35339	0.72499	0.50993	0.048
Mof_C 	C 	0.46456	0.39529	0.72587	-0.095
Mof_C 	C 	0.46433	0.44462	0.72612	-0.095
Mof_C 	C 	0.47016	0.39391	0.77259	-0.009
Mof_C 	C 	0.46287	0.42845	0.71049	0.044
Mof_H 	H 	0.45946	0.44197	0.68671	0.048
Mof_C 	C 	0.46819	0.42688	0.75727	0.005
Mof_H 	H 	0.46911	0.43873	0.76999	0.045
Mof_C 	C 	0.46838	0.37821	0.75702	0.005
Mof_H 	H 	0.46944	0.35279	0.76956	0.045
Mof_C 	C 	0.22544	0.63408	0.48509	-0.095
Mof_C 	C 	0.22534	0.6832	0.48566	-0.095
Mof_C 	C 	0.17915	0.68501	0.47876	-0.009
Mof_C 	C 	0.24078	0.65006	0.48718	0.044
Mof_H 	H 	0.26443	0.63639	0.49094	0.048
Mof_C 	C 	0.1944	0.7005	0.48128	0.005
Mof_H 	H 	0.18183	0.72593	0.48027	0.045
Mof_C 	C 	0.19451	0.652	0.48072	0.005
Mof_H 	H 	0.18203	0.64029	0.47927	0.045
Mof_C 	C 	0.30594	0.44437	0.72597	-0.095
Mof_C 	C 	0.35522	0.39505	0.72596	-0.095
Mof_C 	C 	0.3041	0.39368	0.77249	-0.009
Mof_C 	C 	0.33921	0.42818	0.71051	0.044
Mof_H 	H 	0.35297	0.44169	0.68678	0.048
Mof_C 	C 	0.33721	0.37797	0.75707	0.005
Mof_H 	H 	0.34897	0.35256	0.76966	0.045
Mof_C 	C 	0.28853	0.42665	0.75705	0.005
Mof_H 	H 	0.263	0.43853	0.76962	0.045
Mof_O 	O 	0.63344	0.39403	0.45567	-0.404
Mof_O 	O 	0.67914	0.34867	0.45544	-0.405
Mof_C 	C 	0.66262	0.37771	0.44082	0.345
Mof_O 	O 	0.63313	0.39443	0.50828	-0.404
Mof_O 	O 	0.67882	0.34907	0.50833	-0.404
Mof_C 	C 	0.66223	0.37817	0.5104	0.345
Mof_Cu	Cu	0.61013	0.37989	0.5007	0.933
Mof_Cu	Cu	0.66529	0.32502	0.50064	0.928
Mof_O 	O 	0.59586	0.3568	0.54572	-0.404
Mof_O 	O 	0.64145	0.31134	0.54586	-0.404
Mof_O 	O 	0.59571	0.35679	0.49312	-0.404
Mof_O 	O 	0.64131	0.31134	0.49297	-0.404
Mof_C 	C 	0.61222	0.32783	0.56053	0.345
Mof_C 	C 	0.61213	0.32776	0.49095	0.344
Mof_H 	H 	0.08583	0.56089	0.20975	0.049
Mof_C 	C 	0.13125	0.55983	0.16851	0.033
Mof_C 	C 	0.14767	0.55793	0.13648	-0.076
Mof_H 	H 	0.17272	0.55834	0.12349	0.049
Mof_C 	C 	0.13164	0.55663	0.12067	0.033
Mof_C 	C 	0.09874	0.55721	0.13738	-0.075
Mof_H 	H 	0.08623	0.55611	0.12545	0.049
Mof_C 	C 	0.08185	0.55914	0.16939	0.033
Mof_C 	C 	0.09835	0.56043	0.18472	-0.076
Mof_C 	C 	0.13312	0.57296	0.06325	-0.031
Mof_H 	H 	0.10794	0.58943	0.06931	0.037
Mof_C 	C 	0.14949	0.57048	0.03158	-0.048
Mof_H 	H 	0.13667	0.58463	0.01384	0.043
Mof_C 	C 	0.18227	0.54976	0.02286	0.024
Mof_C 	C 	0.1985	0.53148	0.04607	-0.048
Mof_H 	H 	0.22373	0.51515	0.03966	0.043
Mof_C 	C 	0.18218	0.5339	0.07776	-0.031
Mof_H 	H 	0.19505	0.51909	0.09548	0.036
Mof_C 	C 	0.14924	0.55458	0.08676	-0.006
Mof_C 	C 	0.13202	0.58212	0.20377	-0.031
Mof_H 	H 	0.10694	0.59845	0.20544	0.036
Mof_C 	C 	0.14798	0.58267	0.22002	-0.048
Mof_H 	H 	0.13496	0.59909	0.23426	0.043
Mof_C 	C 	0.18053	0.56209	0.21798	0.023
Mof_C 	C 	0.19716	0.54109	0.19939	-0.048
Mof_H 	H 	0.22232	0.52499	0.19777	0.043
Mof_C 	C 	0.18126	0.54052	0.18307	-0.031
Mof_H 	H 	0.19436	0.52367	0.16932	0.036
Mof_C 	C 	0.14844	0.56094	0.1852	-0.006
Mof_C 	C 	0.02381	0.58106	0.20519	-0.032
Mof_H 	H 	0.03084	0.59785	0.20622	0.036
Mof_C 	C 	0.99112	0.5814	0.22182	-0.048
Mof_H 	H 	0.97349	0.59813	0.23571	0.043
Mof_C 	C 	0.98125	0.5603	0.22049	0.023
Mof_C 	C 	0.00421	0.53888	0.20237	-0.048
Mof_H 	H 	0.99682	0.52237	0.20132	0.043
Mof_C 	C 	0.03691	0.53853	0.18567	-0.031
Mof_H 	H 	0.0544	0.52142	0.17221	0.037
Mof_C 	C 	0.04709	0.5596	0.18693	-0.006
Mof_C 	C 	0.1967	0.56219	0.2353	-0.02
Mof_C 	C 	0.21016	0.56212	0.24999	-0.016
Mof_C 	C 	0.19961	0.54596	0.98948	-0.021
Mof_C 	C 	0.2047	0.57784	0.9626	-0.02
Mof_C 	C 	0.94764	0.56051	0.23785	-0.02
Mof_C 	C 	0.91952	0.56061	0.25248	-0.016
Mof_C 	C 	0.25679	0.56679	0.25104	-0.04
Mof_H 	H 	0.26844	0.57105	0.22475	0.041
Mof_C 	C 	0.27252	0.56613	0.26833	-0.043
Mof_H 	H 	0.29622	0.56986	0.25527	0.043
Mof_C 	C 	0.25776	0.5605	0.30236	0.023
Mof_C 	C 	0.22714	0.55561	0.319	-0.043
Mof_H 	H 	0.21557	0.55117	0.34531	0.043
Mof_C 	C 	0.2114	0.55628	0.30171	-0.04
Mof_H 	H 	0.18779	0.55236	0.3148	0.041
Mof_C 	C 	0.2262	0.56182	0.2677	0.017
Mof_C 	C 	0.8686	0.5614	0.25426	-0.04
Mof_H 	H 	0.88018	0.56228	0.22879	0.041
Mof_C 	C 	0.83617	0.56095	0.27143	-0.043
Mof_H 	H 	0.82298	0.56145	0.25908	0.043
Mof_C 	C 	0.82097	0.55968	0.30442	0.023
Mof_C 	C 	0.83831	0.55896	0.32015	-0.043
Mof_H 	H 	0.82678	0.55792	0.34567	0.043
Mof_C 	C 	0.87075	0.55941	0.30299	-0.04
Mof_H 	H 	0.88401	0.55873	0.31537	0.041
Mof_C 	C 	0.88599	0.56057	0.27002	0.017
Mof_C 	C 	0.25381	0.57631	0.91094	-0.041
Mof_H 	H 	0.26585	0.5804	0.92107	0.042
Mof_C 	C 	0.27007	0.57347	0.87942	-0.042
Mof_H 	H 	0.29459	0.5753	0.86548	0.043
Mof_C 	C 	0.25467	0.56837	0.86598	0.023
Mof_C 	C 	0.22294	0.56609	0.88422	-0.043
Mof_H 	H 	0.21082	0.5622	0.87401	0.043
Mof_C 	C 	0.20667	0.56893	0.91576	-0.041
Mof_H 	H 	0.18207	0.56733	0.92963	0.042
Mof_C 	C 	0.22212	0.57393	0.92928	0.02
Mof_C 	C 	0.27423	0.5593	0.32021	-0.023
Mof_C 	C 	0.28828	0.55802	0.33509	-0.003
Mof_C 	C 	0.78778	0.55869	0.32218	-0.023
Mof_C 	C 	0.76008	0.55757	0.33694	-0.003
Mof_C 	C 	0.27151	0.56546	0.83353	-0.023
Mof_C 	C 	0.28593	0.56292	0.80639	-0.003
Mof_C 	C 	0.43772	0.63272	0.27422	-0.095
Mof_C 	C 	0.4378	0.68194	0.27438	-0.095
Mof_C 	C 	0.4322	0.68335	0.22763	-0.009
Mof_C 	C 	0.4392	0.64887	0.28984	0.045
Mof_H 	H 	0.44246	0.63538	0.31369	0.048
Mof_C 	C 	0.43409	0.69902	0.24317	0.005
Mof_H 	H 	0.43324	0.72438	0.23056	0.045
Mof_C 	C 	0.43404	0.65041	0.243	0.005
Mof_H 	H 	0.43314	0.63854	0.23028	0.045
Mof_O 	O 	0.59629	0.58372	0.49252	-0.405
Mof_O 	O 	0.64166	0.58384	0.49299	-0.404
Mof_C 	C 	0.61258	0.59849	0.49069	0.345
Mof_O 	O 	0.59575	0.53154	0.54514	-0.403
Mof_O 	O 	0.64117	0.5313	0.54588	-0.405
Mof_C 	C 	0.61193	0.52939	0.56026	0.344
Mof_Cu	Cu	0.61063	0.53886	0.50003	0.933
Mof_Cu	Cu	0.66553	0.53869	0.50075	0.928
Mof_O 	O 	0.63344	0.49392	0.50774	-0.404
Mof_O 	O 	0.67893	0.49359	0.50843	-0.404
Mof_O 	O 	0.63451	0.54609	0.45508	-0.404
Mof_O 	O 	0.68002	0.54601	0.45546	-0.404
Mof_C 	C 	0.66241	0.47904	0.51022	0.344
Mof_C 	C 	0.66376	0.54796	0.44053	0.344
Mof_H 	H 	0.82399	0.50835	0.87287	0.049
Mof_C 	C 	0.77847	0.50892	0.87676	0.034
Mof_C 	C 	0.76231	0.50872	0.86038	-0.076
Mof_H 	H 	0.73685	0.50953	0.87277	0.05
Mof_C 	C 	0.77833	0.50879	0.82769	0.034
Mof_C 	C 	0.81094	0.50898	0.8114	-0.076
Mof_H 	H 	0.82344	0.50908	0.78617	0.049
Mof_C 	C 	0.8275	0.50917	0.82739	0.034
Mof_C 	C 	0.81107	0.5091	0.86008	-0.076
Mof_C 	C 	0.76326	0.52966	0.77775	-0.031
Mof_H 	H 	0.77757	0.54593	0.76487	0.037
Mof_C 	C 	0.74667	0.52992	0.76161	-0.048
Mof_H 	H 	0.74864	0.54606	0.73643	0.043
Mof_C 	C 	0.72756	0.50954	0.77795	0.023
Mof_C 	C 	0.72499	0.48893	0.81051	-0.048
Mof_H 	H 	0.71029	0.47303	0.82328	0.043
Mof_C 	C 	0.74151	0.48866	0.82673	-0.031
Mof_H 	H 	0.73958	0.47225	0.8518	0.036
Mof_C 	C 	0.76085	0.50901	0.81049	-0.006
Mof_C 	C 	0.76404	0.52957	0.92089	-0.031
Mof_H 	H 	0.77838	0.5458	0.90316	0.036
Mof_C 	C 	0.74781	0.5297	0.95338	-0.048
Mof_H 	H 	0.75005	0.54572	0.96045	0.042
Mof_C 	C 	0.7287	0.50935	0.97657	0.023
Mof_C 	C 	0.72578	0.48889	0.9672	-0.048
Mof_H 	H 	0.71107	0.47302	0.98507	0.043
Mof_C 	C 	0.74194	0.48875	0.93471	-0.031
Mof_H 	H 	0.73975	0.47244	0.928	0.036
Mof_C 	C 	0.76127	0.50907	0.91123	-0.006
Mof_C 	C 	0.8715	0.53004	0.81274	-0.031
Mof_H 	H 	0.85375	0.54617	0.82724	0.036
Mof_C 	C 	0.90392	0.5304	0.79628	-0.048
Mof_H 	H 	0.9109	0.54649	0.7985	0.042
Mof_C 	C 	0.92713	0.51019	0.77695	0.023
Mof_C 	C 	0.91787	0.48961	0.7741	-0.048
Mof_H 	H 	0.93578	0.47382	0.75926	0.043
Mof_C 	C 	0.88545	0.48923	0.79051	-0.031
Mof_H 	H 	0.87884	0.47282	0.78837	0.037
Mof_C 	C 	0.86193	0.50946	0.81	-0.006
Mof_C 	C 	0.71207	0.50946	0.00999	-0.02
Mof_C 	C 	0.69807	0.50955	0.03799	-0.016
Mof_C 	C 	0.71063	0.50974	0.76127	-0.02
Mof_C 	C 	0.69649	0.50995	0.74722	-0.016
Mof_C 	C 	0.96044	0.51063	0.75998	-0.02
Mof_C 	C 	0.98835	0.511	0.74569	-0.016
Mof_C 	C 	0.64965	0.50715	0.08852	-0.04
Mof_H 	H 	0.63779	0.50485	0.07679	0.041
Mof_C 	C 	0.63313	0.50773	0.12087	-0.043
Mof_H 	H 	0.60858	0.50593	0.13392	0.043
Mof_C 	C 	0.64822	0.51088	0.13614	0.023
Mof_C 	C 	0.67991	0.51333	0.11905	-0.043
Mof_H 	H 	0.69167	0.51588	0.13069	0.043
Mof_C 	C 	0.69643	0.51274	0.0867	-0.04
Mof_H 	H 	0.72089	0.51478	0.07356	0.041
Mof_C 	C 	0.68129	0.50973	0.07137	0.018
Mof_C 	C 	0.03693	0.51374	0.6953	-0.04
Mof_H 	H 	0.02381	0.51502	0.68238	0.041
Mof_C 	C 	0.06922	0.51449	0.67855	-0.043
Mof_H 	H 	0.08085	0.51639	0.65278	0.043
Mof_C 	C 	0.0863	0.513	0.69504	0.023
Mof_C 	C 	0.07104	0.51067	0.72832	-0.043
Mof_H 	H 	0.08409	0.5096	0.74119	0.043
Mof_C 	C 	0.03875	0.50992	0.74507	-0.04
Mof_H 	H 	0.02706	0.50822	0.77079	0.041
Mof_C 	C 	0.02163	0.5115	0.72857	0.017
Mof_C 	C 	0.64667	0.51156	0.74614	-0.04
Mof_H 	H 	0.63374	0.51207	0.77118	0.041
Mof_C 	C 	0.63017	0.51238	0.72953	-0.043
Mof_H 	H 	0.60459	0.51357	0.74182	0.043
Mof_C 	C 	0.64662	0.51195	0.69708	0.023
Mof_C 	C 	0.67966	0.51053	0.68134	-0.043
Mof_H 	H 	0.69251	0.51028	0.65622	0.043
Mof_C 	C 	0.69616	0.5097	0.69795	-0.04
Mof_H 	H 	0.72166	0.50877	0.68557	0.041
Mof_C 	C 	0.67966	0.5103	0.73034	0.018
Mof_C 	C 	0.63089	0.51241	0.16904	-0.023
Mof_C 	C 	0.61621	0.51421	0.19642	-0.003
Mof_C 	C 	0.11918	0.51458	0.67765	-0.023
Mof_C 	C 	0.14657	0.51636	0.66301	-0.003
Mof_C 	C 	0.62938	0.51376	0.67969	-0.023
Mof_C 	C 	0.61479	0.51577	0.66496	-0.003
Mof_O 	O 	0.22331	0.58458	0.69003	-0.405
Mof_O 	O 	0.26924	0.58454	0.64464	-0.404
Mof_C 	C 	0.23999	0.59925	0.661	0.345
Mof_O 	O 	0.26044	0.54708	0.72802	-0.404
Mof_O 	O 	0.30624	0.54711	0.68252	-0.404
Mof_C 	C 	0.28963	0.54916	0.7117	0.344
Mof_Cu	Cu	0.23695	0.53951	0.71368	0.928
Mof_Cu	Cu	0.29239	0.53968	0.65878	0.933
Mof_O 	O 	0.26087	0.49447	0.7271	-0.405
Mof_O 	O 	0.30671	0.49476	0.68163	-0.404
Mof_O 	O 	0.22377	0.53199	0.68919	-0.404
Mof_O 	O 	0.26966	0.53224	0.64378	-0.403
Mof_C 	C 	0.29014	0.47991	0.71058	0.345
Mof_C 	C 	0.24054	0.53004	0.65995	0.344
Mof_O 	O 	0.40592	0.39509	0.6814	-0.403
Mof_O 	O 	0.40538	0.35003	0.72726	-0.404
Mof_C 	C 	0.39088	0.37901	0.71056	0.344
Mof_O 	O 	0.44342	0.35715	0.64432	-0.404
Mof_O 	O 	0.44291	0.31203	0.69011	-0.405
Mof_C 	C 	0.44102	0.32826	0.66091	0.345
Mof_Cu	Cu	0.45105	0.38047	0.65842	0.933
Mof_Cu	Cu	0.45058	0.32599	0.71381	0.929
Mof_O 	O 	0.49611	0.35706	0.64441	-0.404
Mof_O 	O 	0.49589	0.31193	0.69019	-0.404
Mof_O 	O 	0.45855	0.39528	0.68124	-0.404
Mof_O 	O 	0.45826	0.35021	0.7271	-0.405
Mof_C 	C 	0.51077	0.32815	0.66099	0.344
Mof_C 	C 	0.46045	0.37922	0.7104	0.345
Mof_O 	O 	0.40634	0.3942	0.50772	-0.404
Mof_O 	O 	0.40599	0.34883	0.50768	-0.404
Mof_C 	C 	0.39141	0.37795	0.50972	0.344
Mof_O 	O 	0.45918	0.39369	0.45528	-0.404
Mof_O 	O 	0.45917	0.3483	0.45495	-0.404
Mof_C 	C 	0.46132	0.37734	0.44036	0.344
Mof_Cu	Cu	0.45136	0.3796	0.50037	0.933
Mof_Cu	Cu	0.45123	0.32471	0.5002	0.928
Mof_O 	O 	0.49638	0.35654	0.49299	-0.404
Mof_O 	O 	0.49651	0.31103	0.49277	-0.404
Mof_O 	O 	0.44351	0.35651	0.5454	-0.404
Mof_O 	O 	0.44327	0.31102	0.54549	-0.404
Mof_C 	C 	0.5112	0.3275	0.49084	0.344
Mof_C 	C 	0.44121	0.32756	0.56021	0.344
Mof_O 	O 	0.22417	0.58392	0.49143	-0.404
Mof_O 	O 	0.27007	0.5838	0.4911	-0.404
Mof_C 	C 	0.24087	0.59857	0.48922	0.344
Mof_O 	O 	0.2242	0.53138	0.5443	-0.405
Mof_O 	O 	0.27005	0.53161	0.54372	-0.403
Mof_C 	C 	0.24091	0.52948	0.55876	0.344
Mof_Cu	Cu	0.23762	0.53877	0.49918	0.928
Mof_Cu	Cu	0.29301	0.53893	0.4986	0.933
Mof_O 	O 	0.26161	0.49365	0.50687	-0.404
Mof_O 	O 	0.3074	0.49398	0.5063	-0.404
Mof_O 	O 	0.26108	0.54612	0.45389	-0.404
Mof_O 	O 	0.30684	0.54619	0.45364	-0.404
Mof_C 	C 	0.29085	0.47908	0.50875	0.344
Mof_C 	C 	0.29032	0.54807	0.43903	0.344
Mof_O 	O 	0.40515	0.54741	0.6826	-0.404
Mof_O 	O 	0.40518	0.54734	0.72829	-0.404
Mof_C 	C 	0.3904	0.54942	0.71181	0.344
Mof_O 	O 	0.45779	0.49503	0.68181	-0.404
Mof_O 	O 	0.45809	0.49465	0.72752	-0.405
Mof_C 	C 	0.46005	0.48014	0.71083	0.345
Mof_Cu	Cu	0.45022	0.53992	0.65912	0.933
Mof_Cu	Cu	0.4505	0.53967	0.71428	0.928
Mof_O 	O 	0.49537	0.53233	0.64459	-0.403
Mof_O 	O 	0.49573	0.53202	0.69024	-0.405
Mof_O 	O 	0.4428	0.58472	0.64501	-0.405
Mof_O 	O 	0.44297	0.58476	0.69057	-0.404
Mof_C 	C 	0.51033	0.53005	0.66101	0.344
Mof_C 	C 	0.44092	0.59941	0.66143	0.345
Mof_H 	H 	0.73689	0.91126	0.47113	0.049
Mof_C 	C 	0.77802	0.86612	0.47081	0.034
Mof_C 	C 	0.81083	0.85005	0.47026	-0.076
Mof_H 	H 	0.82312	0.82484	0.47059	0.05
Mof_C 	C 	0.8275	0.86582	0.47056	0.034
Mof_C 	C 	0.811	0.89812	0.47132	-0.076
Mof_H 	H 	0.82374	0.91042	0.47154	0.049
Mof_C 	C 	0.77819	0.91464	0.47183	0.033
Mof_C 	C 	0.76189	0.89841	0.47161	-0.076
Mof_C 	C 	0.87205	0.85016	0.49119	-0.031
Mof_H 	H 	0.85446	0.86378	0.50816	0.037
Mof_C 	C 	0.90467	0.83373	0.49086	-0.048
Mof_H 	H 	0.91197	0.83512	0.50727	0.043
Mof_C 	C 	0.92768	0.81549	0.46956	0.023
Mof_C 	C 	0.91798	0.81363	0.44862	-0.048
Mof_H 	H 	0.93569	0.79962	0.43201	0.043
Mof_C 	C 	0.88536	0.82997	0.44898	-0.031
Mof_H 	H 	0.87836	0.82856	0.43236	0.036
Mof_C 	C 	0.86208	0.84845	0.47023	-0.006
Mof_C 	C 	0.72786	0.85147	0.49139	-0.031
Mof_H 	H 	0.71508	0.86532	0.50811	0.036
Mof_C 	C 	0.71156	0.83533	0.49125	-0.048
Mof_H 	H 	0.68638	0.83714	0.50757	0.042
Mof_C 	C 	0.72779	0.81675	0.47031	0.023
Mof_C 	C 	0.76041	0.81428	0.44953	-0.048
Mof_H 	H 	0.77311	0.79995	0.43324	0.042
Mof_C 	C 	0.77678	0.83034	0.44967	-0.031
Mof_H 	H 	0.80191	0.82842	0.43319	0.036
Mof_C 	C 	0.76065	0.84914	0.47059	-0.006
Mof_C 	C 	0.72807	0.95836	0.49316	-0.031
Mof_H 	H 	0.7151	0.94074	0.5091	0.036
Mof_C 	C 	0.71183	0.99058	0.4938	-0.048
Mof_H 	H 	0.68653	0.99752	0.50993	0.042
Mof_C 	C 	0.72822	0.01367	0.47376	0.023
Mof_C 	C 	0.76095	0.00445	0.45315	-0.048
Mof_H 	H 	0.77374	0.02225	0.43748	0.043
Mof_C 	C 	0.77726	0.97222	0.45252	-0.031
Mof_H 	H 	0.80243	0.96567	0.43605	0.037
Mof_C 	C 	0.76097	0.94884	0.4725	-0.006
Mof_C 	C 	0.71103	0.80005	0.47034	-0.02
Mof_C 	C 	0.69693	0.78596	0.47058	-0.016
Mof_C 	C 	0.96121	0.79867	0.46926	-0.02
Mof_C 	C 	0.98924	0.78461	0.46921	-0.016
Mof_C 	C 	0.7114	0.04688	0.4742	-0.02
Mof_C 	C 	0.69726	0.07473	0.47449	-0.016
Mof_C 	C 	0.69808	0.74065	0.46212	-0.04
Mof_H 	H 	0.72477	0.73155	0.45434	0.041
Mof_C 	C 	0.68162	0.7238	0.46331	-0.043
Mof_H 	H 	0.6957	0.70178	0.45645	0.043
Mof_C 	C 	0.6471	0.73526	0.47356	0.023
Mof_C 	C 	0.62908	0.76367	0.48252	-0.043
Mof_H 	H 	0.60237	0.77261	0.49059	0.043
Mof_C 	C 	0.64554	0.78052	0.48133	-0.04
Mof_H 	H 	0.63145	0.80239	0.48846	0.041
Mof_C 	C 	0.68006	0.769	0.47118	0.017
Mof_C 	C 	0.69669	0.12474	0.47396	-0.04
Mof_H 	H 	0.72222	0.11285	0.47283	0.041
Mof_C 	C 	0.68007	0.15696	0.47464	-0.043
Mof_H 	H 	0.69286	0.16972	0.4741	0.043
Mof_C 	C 	0.64702	0.17252	0.47618	0.023
Mof_C 	C 	0.63065	0.15575	0.47702	-0.043
Mof_H 	H 	0.60508	0.16758	0.4783	0.043
Mof_C 	C 	0.64727	0.12353	0.47635	-0.04
Mof_H 	H 	0.63443	0.11069	0.47707	0.041
Mof_C 	C 	0.6803	0.10796	0.47486	0.018
Mof_C 	C 	0.03993	0.73651	0.46639	-0.04
Mof_H 	H 	0.02846	0.72487	0.46348	0.041
Mof_C 	C 	0.07212	0.71996	0.46736	-0.043
Mof_H 	H 	0.08531	0.69563	0.46522	0.043
Mof_C 	C 	0.08703	0.73472	0.4714	0.023
Mof_C 	C 	0.06975	0.76612	0.47431	-0.043
Mof_H 	H 	0.08109	0.77763	0.47757	0.043
Mof_C 	C 	0.03757	0.78266	0.47334	-0.04
Mof_H 	H 	0.02427	0.80686	0.47581	0.041
Mof_C 	C 	0.02258	0.76785	0.46947	0.018
Mof_C 	C 	0.63011	0.71757	0.4755	-0.023
Mof_C 	C 	0.61568	0.70271	0.47752	-0.003
Mof_C 	C 	0.62976	0.20543	0.47749	-0.023
Mof_C 	C 	0.6152	0.23286	0.47897	-0.003
Mof_C 	C 	0.11973	0.71734	0.47341	-0.023
Mof_C 	C 	0.14693	0.70267	0.47557	-0.003
Mof_H 	H 	0.08056	0.25257	0.52751	0.05
Mof_C 	C 	0.07643	0.21124	0.52792	0.034
Mof_C 	C 	0.09305	0.17882	0.52752	-0.076
Mof_H 	H 	0.08047	0.16627	0.52746	0.049
Mof_C 	C 	0.12578	0.16248	0.52725	0.034
Mof_C 	C 	0.14188	0.17893	0.52741	-0.076
Mof_H 	H 	0.16678	0.16614	0.52819	0.05
Mof_C 	C 	0.12567	0.21135	0.52779	0.034
Mof_C 	C 	0.09294	0.22728	0.52808	-0.076
Mof_C 	C 	0.176	0.11873	0.50618	-0.031
Mof_H 	H 	0.18882	0.13646	0.48994	0.036
Mof_C 	C 	0.19233	0.08643	0.50578	-0.048
Mof_H 	H 	0.21759	0.07953	0.48955	0.043
Mof_C 	C 	0.17606	0.06325	0.52612	0.023
Mof_C 	C 	0.1434	0.07242	0.54691	-0.048
Mof_H 	H 	0.1307	0.05456	0.56282	0.043
Mof_C 	C 	0.127	0.10472	0.54731	-0.031
Mof_H 	H 	0.10186	0.11129	0.56384	0.037
Mof_C 	C 	0.14314	0.1282	0.52692	-0.006
Mof_C 	C 	0.01852	0.24734	0.54885	-0.031
Mof_H 	H 	0.02537	0.24917	0.5653	0.036
Mof_C 	C 	0.98597	0.2636	0.54897	-0.048
Mof_H 	H 	0.9682	0.278	0.56521	0.043
Mof_C 	C 	0.97644	0.26121	0.52825	0.023
Mof_C 	C 	0.99952	0.24245	0.50746	-0.048
Mof_H 	H 	0.99232	0.24062	0.49125	0.043
Mof_C 	C 	0.03207	0.22608	0.50737	-0.031
Mof_H 	H 	0.04971	0.21204	0.49078	0.037
Mof_C 	C 	0.0419	0.2284	0.52806	-0.006
Mof_C 	C 	0.12649	0.24768	0.54856	-0.031
Mof_H 	H 	0.10129	0.24968	0.56486	0.036
Mof_C 	C 	0.14269	0.26391	0.54871	-0.048
Mof_H 	H 	0.12977	0.27847	0.56481	0.043
Mof_C 	C 	0.17541	0.26126	0.52823	0.023
Mof_C 	C 	0.19196	0.24224	0.50767	-0.048
Mof_H 	H 	0.21728	0.24016	0.49168	0.042
Mof_C 	C 	0.17584	0.22592	0.50753	-0.031
Mof_H 	H 	0.1889	0.21167	0.49113	0.036
Mof_C 	C 	0.14289	0.22853	0.52795	-0.006
Mof_C 	C 	0.94303	0.27817	0.52823	-0.02
Mof_C 	C 	0.91505	0.29244	0.52814	-0.016
Mof_C 	C 	0.19287	0.03007	0.52559	-0.02
Mof_C 	C 	0.20698	0.00229	0.52511	-0.016
Mof_C 	C 	0.19199	0.27818	0.52817	-0.02
Mof_C 	C 	0.20598	0.29239	0.52793	-0.016
Mof_C 	C 	0.86632	0.29487	0.5243	-0.04
Mof_H 	H 	0.87936	0.27064	0.5219	0.041
Mof_C 	C 	0.83403	0.31161	0.52361	-0.043
Mof_H 	H 	0.82237	0.3002	0.52066	0.043
Mof_C 	C 	0.81703	0.34302	0.52653	0.023
Mof_C 	C 	0.83237	0.35759	0.53025	-0.043
Mof_H 	H 	0.81941	0.3819	0.53245	0.043
Mof_C 	C 	0.86467	0.34085	0.53093	-0.04
Mof_H 	H 	0.87644	0.35232	0.53368	0.041
Mof_C 	C 	0.88171	0.3095	0.52789	0.018
Mof_C 	C 	0.25734	0.29835	0.51648	-0.04
Mof_H 	H 	0.27149	0.27693	0.50862	0.041
Mof_C 	C 	0.27376	0.31509	0.51553	-0.043
Mof_H 	H 	0.30048	0.30651	0.50691	0.043
Mof_C 	C 	0.2557	0.34289	0.52552	0.023
Mof_C 	C 	0.22115	0.35383	0.53657	-0.043
Mof_H 	H 	0.20701	0.37532	0.54431	0.043
Mof_C 	C 	0.20473	0.33708	0.53751	-0.04
Mof_H 	H 	0.17801	0.34573	0.54599	0.041
Mof_C 	C 	0.22281	0.30937	0.52739	0.018
Mof_C 	C 	0.20946	0.95444	0.51977	-0.04
Mof_H 	H 	0.18561	0.96799	0.51638	0.041
Mof_C 	C 	0.22587	0.92215	0.51931	-0.043
Mof_H 	H 	0.21461	0.91096	0.51555	0.043
Mof_C 	C 	0.25673	0.90445	0.52363	0.023
Mof_C 	C 	0.27115	0.91915	0.52837	-0.043
Mof_H 	H 	0.29504	0.90563	0.53166	0.043
Mof_C 	C 	0.25474	0.95144	0.52883	-0.04
Mof_H 	H 	0.26604	0.96266	0.5325	0.041
Mof_C 	C 	0.22387	0.96912	0.52455	0.017
Mof_C 	C 	0.78411	0.36048	0.52505	-0.023
Mof_C 	C 	0.75671	0.37512	0.52337	-0.003
Mof_C 	C 	0.27267	0.36037	0.52397	-0.023
Mof_C 	C 	0.28714	0.37503	0.52226	-0.003
Mof_C 	C 	0.27374	0.87139	0.5228	-0.023
Mof_C 	C 	0.28809	0.84381	0.52177	-0.003
Mof_C 	C 	0.67771	0.39413	0.51464	-0.095
Mof_C 	C 	0.6778	0.44347	0.51455	-0.095
Mof_C 	C 	0.72424	0.39263	0.52072	-0.009
Mof_C 	C 	0.66231	0.42733	0.51288	0.044
Mof_H 	H 	0.63859	0.44092	0.50929	0.048
Mof_C 	C 	0.70887	0.42567	0.51866	0.005
Mof_H 	H 	0.72148	0.43752	0.51973	0.045
Mof_C 	C 	0.70878	0.37695	0.51874	0.005
Mof_H 	H 	0.72132	0.35148	0.5199	0.045
Mof_C 	C 	0.46589	0.7638	0.35573	-0.095
Mof_C 	C 	0.47142	0.81057	0.35418	-0.009
Mof_C 	C 	0.46562	0.7642	0.4051	-0.095
Mof_C 	C 	0.46967	0.79492	0.3385	0.005
Mof_H 	H 	0.47075	0.80735	0.31301	0.045
Mof_C 	C 	0.46936	0.79534	0.38729	0.005
Mof_H 	H 	0.47021	0.80808	0.39916	0.045
Mof_C 	C 	0.46424	0.74853	0.38894	0.044
Mof_H 	H 	0.46094	0.72475	0.40254	0.048
Mof_C 	C 	0.5977	0.26539	0.48128	-0.009
Mof_C 	C 	0.59623	0.31218	0.48673	-0.094
Mof_C 	C 	0.54684	0.31203	0.48671	-0.094
Mof_C 	C 	0.6134	0.28095	0.48311	0.005
Mof_H 	H 	0.63884	0.26837	0.48225	0.045
Mof_C 	C 	0.56306	0.32766	0.48806	0.044
Mof_H 	H 	0.54955	0.35159	0.49109	0.048
Mof_C 	C 	0.56463	0.28079	0.48312	0.005
Mof_H 	H 	0.55274	0.26808	0.48227	0.045
Mof_C 	C 	0.35473	0.55353	0.72747	-0.094
Mof_C 	C 	0.30536	0.55336	0.72748	-0.094
Mof_C 	C 	0.30362	0.55962	0.77408	-0.009
Mof_C 	C 	0.33863	0.55173	0.71205	0.044
Mof_H 	H 	0.35233	0.54817	0.68828	0.048
Mof_C 	C 	0.28799	0.55745	0.75863	0.005
Mof_H 	H 	0.26243	0.5586	0.77115	0.045
Mof_C 	C 	0.3368	0.55763	0.7586	0.005
Mof_H 	H 	0.34862	0.55891	0.77111	0.045
Mof_C 	C 	0.5972	0.51882	0.64716	-0.009
Mof_C 	C 	0.59573	0.52526	0.59591	-0.095
Mof_C 	C 	0.54606	0.52564	0.64514	-0.094
Mof_C 	C 	0.613	0.52081	0.61404	0.005
Mof_H 	H 	0.63865	0.51936	0.60239	0.045
Mof_C 	C 	0.5623	0.52737	0.61182	0.044
Mof_H 	H 	0.54864	0.53125	0.59798	0.048
Mof_C 	C 	0.56396	0.52122	0.66263	0.005
Mof_H 	H 	0.55205	0.5201	0.68818	0.045
Mof_C 	C 	0.22527	0.52573	0.64381	-0.094
Mof_C 	C 	0.22548	0.52538	0.5944	-0.094
Mof_C 	C 	0.17898	0.51915	0.64544	-0.009
Mof_C 	C 	0.2408	0.52741	0.61049	0.044
Mof_H 	H 	0.26446	0.5312	0.5968	0.048
Mof_C 	C 	0.19447	0.52106	0.61235	0.005
Mof_H 	H 	0.18199	0.51968	0.60058	0.045
Mof_C 	C 	0.19425	0.52145	0.66109	0.005
Mof_H 	H 	0.18159	0.52038	0.68662	0.045
Mof_C 	C 	0.30475	0.39256	0.5196	-0.009
Mof_C 	C 	0.30663	0.44347	0.51321	-0.094
Mof_C 	C 	0.35579	0.39399	0.51377	-0.094
Mof_C 	C 	0.28926	0.42568	0.51725	0.005
Mof_H 	H 	0.26382	0.43758	0.51809	0.045
Mof_C 	C 	0.33982	0.42725	0.51183	0.044
Mof_H 	H 	0.35355	0.44081	0.50831	0.048
Mof_C 	C 	0.33778	0.3768	0.51788	0.005
Mof_H 	H 	0.34946	0.35126	0.51928	0.045
Mof_C 	C 	0.30581	0.81071	0.35392	-0.009
Mof_C 	C 	0.35655	0.76404	0.35569	-0.095
Mof_C 	C 	0.30698	0.76448	0.40495	-0.095
Mof_C 	C 	0.33891	0.79509	0.33836	0.005
Mof_H 	H 	0.35092	0.80746	0.31285	0.045
Mof_C 	C 	0.34021	0.74885	0.3889	0.045
Mof_H 	H 	0.35369	0.72514	0.40257	0.048
Mof_C 	C 	0.28994	0.79554	0.38703	0.005
Mof_H 	H 	0.26443	0.80825	0.39881	0.045
Mof_O 	O 	0.59679	0.58293	0.31917	-0.404
Mof_O 	O 	0.64227	0.58285	0.27334	-0.405
Mof_C 	C 	0.61313	0.59756	0.28994	0.345
Mof_O 	O 	0.63466	0.54563	0.35627	-0.404
Mof_O 	O 	0.68026	0.54542	0.31056	-0.404
Mof_C 	C 	0.66389	0.54753	0.33975	0.344
Mof_Cu	Cu	0.61106	0.53811	0.34233	0.933
Mof_Cu	Cu	0.66608	0.53779	0.28701	0.928
Mof_O 	O 	0.63405	0.4932	0.35663	-0.404
Mof_O 	O 	0.67963	0.49276	0.31089	-0.404
Mof_O 	O 	0.59622	0.5305	0.31958	-0.404
Mof_O 	O 	0.64176	0.53012	0.2738	-0.405
Mof_C 	C 	0.66307	0.47828	0.34013	0.344
Mof_C 	C 	0.61252	0.52819	0.29051	0.345
Mof_H 	H 	0.8171	0.82073	0.8681	0.049
Mof_C 	C 	0.7719	0.8619	0.87178	0.033
Mof_C 	C 	0.75623	0.89468	0.85545	-0.076
Mof_H 	H 	0.7308	0.9071	0.8677	0.049
Mof_C 	C 	0.77284	0.91128	0.82313	0.033
Mof_C 	C 	0.80552	0.89463	0.80713	-0.076
Mof_H 	H 	0.81856	0.90728	0.78228	0.049
Mof_C 	C 	0.8216	0.86184	0.82306	0.033
Mof_C 	C 	0.80453	0.84566	0.85532	-0.076
Mof_C 	C 	0.75948	0.95685	0.77297	-0.031
Mof_H 	H 	0.77383	0.93977	0.75934	0.037
Mof_C 	C 	0.74373	0.98967	0.75718	-0.048
Mof_H 	H 	0.74632	0.99757	0.7316	0.043
Mof_C 	C 	0.72461	0.01212	0.7744	0.023
Mof_C 	C 	0.72123	0.00166	0.80749	-0.048
Mof_H 	H 	0.70655	0.01891	0.82097	0.043
Mof_C 	C 	0.73688	0.96885	0.82335	-0.031
Mof_H 	H 	0.73432	0.96132	0.84884	0.036
Mof_C 	C 	0.75617	0.94608	0.80626	-0.006
Mof_C 	C 	0.75722	0.81195	0.91608	-0.031
Mof_H 	H 	0.77143	0.79897	0.89842	0.036
Mof_C 	C 	0.74133	0.7957	0.94875	-0.048
Mof_H 	H 	0.74369	0.77039	0.95598	0.042
Mof_C 	C 	0.72262	0.81205	0.97195	0.023
Mof_C 	C 	0.71967	0.84474	0.96239	-0.048
Mof_H 	H 	0.70537	0.85747	0.98028	0.043
Mof_C 	C 	0.73548	0.86105	0.92974	-0.031
Mof_H 	H 	0.73346	0.88613	0.92298	0.036
Mof_C 	C 	0.75449	0.8448	0.90625	-0.006
Mof_C 	C 	0.8665	0.81196	0.80851	-0.031
Mof_H 	H 	0.84882	0.79912	0.82191	0.036
Mof_C 	C 	0.89938	0.79574	0.79293	-0.048
Mof_H 	H 	0.90675	0.77059	0.79468	0.042
Mof_C 	C 	0.92258	0.81197	0.7751	0.023
Mof_C 	C 	0.91281	0.8445	0.77284	-0.048
Mof_H 	H 	0.93066	0.85719	0.75917	0.043
Mof_C 	C 	0.87993	0.86078	0.78834	-0.031
Mof_H 	H 	0.87294	0.88578	0.78675	0.037
Mof_C 	C 	0.85642	0.84468	0.80634	-0.006
Mof_C 	C 	0.70669	0.79524	0.00567	-0.02
Mof_C 	C 	0.6934	0.78122	0.03397	-0.016
Mof_C 	C 	0.70832	0.04582	0.75814	-0.02
Mof_C 	C 	0.6946	0.074	0.74445	-0.016
Mof_C 	C 	0.95638	0.79533	0.75901	-0.02
Mof_C 	C 	0.98469	0.78147	0.74541	-0.016
Mof_C 	C 	0.64987	0.78234	0.08775	-0.04
Mof_H 	H 	0.64034	0.8089	0.07798	0.041
Mof_C 	C 	0.63421	0.76595	0.12045	-0.043
Mof_H 	H 	0.61265	0.77992	0.13572	0.043
Mof_C 	C 	0.64625	0.73161	0.13324	0.023
Mof_C 	C 	0.67408	0.71373	0.1133	-0.043
Mof_H 	H 	0.68348	0.68716	0.12301	0.043
Mof_C 	C 	0.68974	0.73012	0.08061	-0.04
Mof_H 	H 	0.71118	0.71612	0.06529	0.041
Mof_C 	C 	0.67758	0.76444	0.06774	0.017
Mof_C 	C 	0.039	0.78325	0.7034	-0.04
Mof_H 	H 	0.02975	0.80981	0.69614	0.041
Mof_C 	C 	0.0716	0.76726	0.68694	-0.043
Mof_H 	H 	0.08732	0.78156	0.66706	0.043
Mof_C 	C 	0.08373	0.73295	0.69603	0.023
Mof_C 	C 	0.06322	0.71467	0.72177	-0.043
Mof_H 	H 	0.07242	0.68812	0.72894	0.043
Mof_C 	C 	0.03063	0.73065	0.73824	-0.04
Mof_H 	H 	0.01488	0.71635	0.75804	0.041
Mof_C 	C 	0.01842	0.76498	0.72898	0.017
Mof_C 	C 	0.64475	0.123	0.74332	-0.04
Mof_H 	H 	0.63127	0.10982	0.76757	0.041
Mof_C 	C 	0.62859	0.15547	0.72719	-0.043
Mof_H 	H 	0.60273	0.16716	0.7391	0.043
Mof_C 	C 	0.64572	0.17262	0.69569	0.023
Mof_C 	C 	0.67913	0.15723	0.68046	-0.043
Mof_H 	H 	0.69253	0.17028	0.65607	0.043
Mof_C 	C 	0.6953	0.12475	0.69661	-0.04
Mof_H 	H 	0.72108	0.11296	0.68459	0.041
Mof_C 	C 	0.67812	0.10756	0.72804	0.018
Mof_C 	C 	0.62964	0.71468	0.16656	-0.023
Mof_C 	C 	0.6155	0.70039	0.1943	-0.003
Mof_C 	C 	0.11697	0.71649	0.67864	-0.023
Mof_C 	C 	0.14466	0.70242	0.66403	-0.003
Mof_C 	C 	0.62885	0.20571	0.67873	-0.023
Mof_C 	C 	0.61455	0.23325	0.66436	-0.003
Mof_O 	O 	0.40678	0.54494	0.30959	-0.404
Mof_O 	O 	0.40612	0.54519	0.35546	-0.404
Mof_C 	C 	0.39168	0.54711	0.33875	0.344
Mof_O 	O 	0.45974	0.49233	0.3103	-0.404
Mof_O 	O 	0.45879	0.49284	0.35618	-0.404
Mof_C 	C 	0.46138	0.47787	0.3396	0.344
Mof_Cu	Cu	0.45214	0.53738	0.28635	0.928
Mof_Cu	Cu	0.45108	0.53776	0.34187	0.933
Mof_O 	O 	0.49724	0.52986	0.27331	-0.405
Mof_O 	O 	0.49626	0.53028	0.31926	-0.403
Mof_O 	O 	0.44435	0.58249	0.27287	-0.404
Mof_O 	O 	0.44359	0.58258	0.31887	-0.404
Mof_C 	C 	0.51152	0.52798	0.29017	0.344
Mof_C 	C 	0.44189	0.59723	0.28963	0.345
Mof_H 	H 	0.43277	0.82201	0.86822	0.049
Mof_C 	C 	0.43132	0.86314	0.87362	0.033
Mof_C 	C 	0.43084	0.89583	0.85783	-0.076
Mof_H 	H 	0.4306	0.90808	0.87093	0.049
Mof_C 	C 	0.43042	0.91289	0.82536	0.033
Mof_C 	C 	0.4306	0.89678	0.80866	-0.076
Mof_H 	H 	0.42925	0.91006	0.784	0.049
Mof_C 	C 	0.43105	0.8641	0.82405	0.033
Mof_C 	C 	0.43152	0.84748	0.85649	-0.076
Mof_C 	C 	0.4484	0.95881	0.7759	-0.031
Mof_H 	H 	0.46492	0.94194	0.76205	0.036
Mof_C 	C 	0.44686	0.99169	0.76047	-0.048
Mof_H 	H 	0.4619	0.99986	0.73492	0.043
Mof_C 	C 	0.42603	0.01389	0.77796	0.023
Mof_C 	C 	0.40683	0.00309	0.81099	-0.048
Mof_H 	H 	0.39058	0.02016	0.82466	0.043
Mof_C 	C 	0.40837	0.97019	0.8265	-0.031
Mof_H 	H 	0.39293	0.96242	0.85192	0.037
Mof_C 	C 	0.42914	0.94771	0.80908	-0.006
Mof_C 	C 	0.41089	0.82592	0.9309	-0.031
Mof_H 	H 	0.39502	0.82379	0.92354	0.036
Mof_C 	C 	0.41041	0.80953	0.96352	-0.048
Mof_H 	H 	0.3945	0.79476	0.98082	0.043
Mof_C 	C 	0.43022	0.81238	0.9738	0.023
Mof_C 	C 	0.45064	0.83156	0.9513	-0.048
Mof_H 	H 	0.46619	0.83372	0.95905	0.043
Mof_C 	C 	0.45113	0.84803	0.91865	-0.031
Mof_H 	H 	0.46737	0.86246	0.90149	0.037
Mof_C 	C 	0.43118	0.84544	0.90813	-0.006
Mof_C 	C 	0.41073	0.82756	0.82296	-0.031
Mof_H 	H 	0.39521	0.82456	0.8485	0.036
Mof_C 	C 	0.41032	0.81181	0.80645	-0.048
Mof_H 	H 	0.39486	0.79661	0.81947	0.042
Mof_C 	C 	0.42971	0.81572	0.77329	0.023
Mof_C 	C 	0.44953	0.83546	0.75665	-0.048
Mof_H 	H 	0.46472	0.83847	0.731	0.042
Mof_C 	C 	0.44998	0.85125	0.77311	-0.031
Mof_H 	H 	0.46585	0.86603	0.75996	0.036
Mof_C 	C 	0.43059	0.84744	0.80647	-0.006
Mof_C 	C 	0.4295	0.79568	0.00743	-0.02
Mof_C 	C 	0.42889	0.78171	0.03562	-0.016
Mof_C 	C 	0.4244	0.04773	0.7619	-0.02
Mof_C 	C 	0.42332	0.076	0.74817	-0.016
Mof_C 	C 	0.42944	0.79925	0.75647	-0.02
Mof_C 	C 	0.42927	0.78528	0.74251	-0.016
Mof_C 	C 	0.42745	0.78126	0.08612	-0.04
Mof_H 	H 	0.42714	0.80645	0.07403	0.041
Mof_C 	C 	0.42729	0.76489	0.11866	-0.043
Mof_H 	H 	0.42691	0.77752	0.13149	0.043
Mof_C 	C 	0.42791	0.73225	0.13441	0.023
Mof_C 	C 	0.42857	0.71605	0.11759	-0.043
Mof_H 	H 	0.42919	0.69076	0.12958	0.043
Mof_C 	C 	0.42873	0.73242	0.08504	-0.04
Mof_H 	H 	0.42942	0.71968	0.07212	0.041
Mof_C 	C 	0.42824	0.76502	0.06924	0.018
Mof_C 	C 	0.45365	0.76596	0.69563	-0.04
Mof_H 	H 	0.47259	0.77689	0.68444	0.041
Mof_C 	C 	0.45384	0.7492	0.67971	-0.043
Mof_H 	H 	0.47292	0.74729	0.65633	0.043
Mof_C 	C 	0.42955	0.73486	0.69406	0.023
Mof_C 	C 	0.40503	0.73737	0.72435	-0.043
Mof_H 	H 	0.3862	0.72631	0.7356	0.043
Mof_C 	C 	0.40485	0.75414	0.74027	-0.04
Mof_H 	H 	0.38587	0.75591	0.76374	0.041
Mof_C 	C 	0.42919	0.76841	0.72595	0.017
Mof_C 	C 	0.42637	0.12511	0.7457	-0.04
Mof_H 	H 	0.42958	0.11205	0.7696	0.041
Mof_C 	C 	0.42657	0.15746	0.72893	-0.043
Mof_H 	H 	0.42995	0.16916	0.73997	0.043
Mof_C 	C 	0.42288	0.1744	0.69782	0.023
Mof_C 	C 	0.41864	0.15901	0.68368	-0.043
Mof_H 	H 	0.41587	0.17191	0.6596	0.043
Mof_C 	C 	0.41842	0.12667	0.70048	-0.04
Mof_H 	H 	0.41542	0.11483	0.68927	0.041
Mof_C 	C 	0.42245	0.10961	0.73144	0.017
Mof_C 	C 	0.42875	0.71514	0.1675	-0.023
Mof_C 	C 	0.43	0.70071	0.19504	-0.003
Mof_C 	C 	0.43003	0.7174	0.67773	-0.023
Mof_C 	C 	0.4309	0.70277	0.66375	-0.003
Mof_C 	C 	0.42446	0.20717	0.68003	-0.023
Mof_C 	C 	0.42641	0.23439	0.66508	-0.003
_end
