data_functionalizedCrystal
_audit_creation_method	'EQeq! by Chris Wilmer'
_symmetry_space_group_name_H-M	'P1'
_symmetry_Int_Tables_number	1
_symmetry_cell_setting	triclinic
loop_
_symmetry_equiv_pos_as_xyz
  x,y,z
_cell_length_a	27.1301
_cell_length_b	27.1298
_cell_length_c	27.1298
_cell_angle_alpha	109.471
_cell_angle_beta	109.471
_cell_angle_gamma	109.471
loop_
_atom_site_label
_atom_site_type_symbol
_atom_site_fract_x
_atom_site_fract_y
_atom_site_fract_z
_atom_site_charge
Mof_Zn	Zn	0.25	0.375	0.125	1.181
Mof_Zn	Zn	0.625	0.375	0.25	1.181
Mof_Zn	Zn	0.875	0.125	0.75	1.181
Mof_Zn	Zn	0.375	0.625	0.75	1.181
Mof_Zn	Zn	0.625	0.25	0.875	1.181
Mof_Zn	Zn	0.125	0.875	0.25	1.181
Mof_Zn	Zn	0.875	0.75	0.625	1.181
Mof_Zn	Zn	0.75	0.625	0.875	1.181
Mof_Zn	Zn	0.375	0.75	0.125	1.181
Mof_Zn	Zn	0.125	0.25	0.375	1.181
Mof_Zn	Zn	0.25	0.875	0.625	1.181
Mof_Zn	Zn	0.75	0.125	0.375	1.181
Mof_H 	H 	0.2056	0.2066	0.1086	0.082
Mof_H 	H 	0.7984	0.7675	0.3371	0.062
Mof_H 	H 	0.001	0.098	0.2066	0.082
Mof_H 	H 	0.5828	0.2317	0.3547	0.037
Mof_H 	H 	0.4632	0.1621	0.2155	0.089
Mof_H 	H 	0.6298	0.9034	0.519	0.01
Mof_H 	H 	0.0309	0.4613	0.2984	0.062
Mof_H 	H 	0.5368	0.8379	0.7845	0.089
Mof_H 	H 	0.598	0.097	0.3914	0.082
Mof_H 	H 	0.7281	0.8511	0.5828	0.037
Mof_H 	H 	0.2689	0.6327	0.5638	0.034
Mof_H 	H 	0.5507	0.7821	0.415	0.005
Mof_H 	H 	0.0828	0.7281	0.3511	0.037
Mof_H 	H 	0.7845	0.3379	0.5368	0.089
Mof_H 	H 	0.8779	0.1447	0.4574	0.018
Mof_H 	H 	0.6447	0.2668	0.1873	0.018
Mof_H 	H 	0.085	0.6357	0.8671	0.005
Mof_H 	H 	0.1489	0.9172	0.7719	0.037
Mof_H 	H 	0.7281	0.877	0.6453	0.037
Mof_H 	H 	0.597	0.499	0.2056	0.082
Mof_H 	H 	0.2281	0.5828	0.8511	0.037
Mof_H 	H 	0.5507	0.7686	0.6357	0.005
Mof_H 	H 	0.3702	0.0966	0.481	0.01
Mof_H 	H 	0.8638	0.6327	0.0689	0.034
Mof_H 	H 	0.2155	0.5534	0.2523	0.089
Mof_H 	H 	0.8127	0.5795	0.9574	0.018
Mof_H 	H 	0.1453	0.7281	0.377	0.037
Mof_H 	H 	0.415	0.1329	0.3643	0.005
Mof_H 	H 	0.4691	0.7016	0.5387	0.062
Mof_H 	H 	0.6621	0.9632	0.7155	0.089
Mof_H 	H 	0.0507	0.6357	0.7686	0.005
Mof_H 	H 	0.4362	0.8673	0.7311	0.034
Mof_H 	H 	0.7719	0.3547	0.123	0.037
Mof_H 	H 	0.3914	0.597	0.598	0.082
Mof_H 	H 	0.7155	0.2523	0.5534	0.089
Mof_H 	H 	0.8673	0.6362	0.4311	0.034
Mof_H 	H 	0.9034	0.8844	0.2736	0.011
Mof_H 	H 	0.3553	0.6221	0.0426	0.019
Mof_H 	H 	0.9034	0.019	0.1298	0.011
Mof_H 	H 	0.2686	0.0507	0.1357	0.006
Mof_H 	H 	0.2984	0.3371	0.7675	0.063
Mof_H 	H 	0.8371	0.0387	0.0696	0.063
Mof_H 	H 	0.4493	0.2314	0.3643	0.006
Mof_H 	H 	0.6327	0.5689	0.3638	0.035
Mof_H 	H 	0.585	0.7179	0.4493	0.006
Mof_H 	H 	0.7051	0.4362	0.0689	0.035
Mof_H 	H 	0.5387	0.3371	0.5696	0.063
Mof_H 	H 	0.2845	0.7477	0.4466	0.09
Mof_H 	H 	0.1989	0.0368	0.7523	0.09
Mof_H 	H 	0.1221	0.8553	0.5426	0.019
Mof_H 	H 	0.2311	0.7949	0.3638	0.035
Mof_H 	H 	0.1086	0.402	0.403	0.083
Mof_H 	H 	0.2325	0.0696	0.0309	0.063
Mof_H 	H 	0.6989	0.7523	0.0368	0.09
Mof_H 	H 	0.6447	0.3779	0.9574	0.019
Mof_H 	H 	0.7477	0.8011	0.4632	0.09
Mof_H 	H 	0.8892	0.519	0.6156	0.011
Mof_H 	H 	0.2179	0.085	0.9493	0.006
Mof_H 	H 	0.2821	0.2314	0.8671	0.006
Mof_H 	H 	0.9304	0.4613	0.1629	0.063
Mof_H 	H 	0.7683	0.623	0.3511	0.038
Mof_H 	H 	0.7689	0.2051	0.6362	0.035
Mof_H 	H 	0.6221	0.0795	0.2668	0.019
Mof_H 	H 	0.019	0.3892	0.1156	0.011
Mof_H 	H 	0.4466	0.1989	0.6621	0.09
Mof_H 	H 	0.123	0.8547	0.7719	0.038
Mof_H 	H 	0.9691	0.5387	0.7016	0.063
Mof_H 	H 	0.6362	0.9311	0.3673	0.035
Mof_H 	H 	0.1447	0.1873	0.2668	0.019
Mof_H 	H 	0.2683	0.9172	0.1453	0.038
Mof_H 	H 	0.3511	0.2281	0.0828	0.038
Mof_H 	H 	0.2051	0.1362	0.2689	0.035
Mof_H 	H 	0.7264	0.1108	0.1298	0.011
Mof_H 	H 	0.7736	0.8702	0.8892	0.011
Mof_H 	H 	0.1362	0.7689	0.7051	0.035
Mof_H 	H 	0.0696	0.5387	0.8371	0.063
Mof_H 	H 	0.8702	0.3892	0.2736	0.011
Mof_H 	H 	0.1327	0.7689	0.0638	0.035
Mof_H 	H 	0.2934	0.999	0.402	0.083
Mof_H 	H 	0.6156	0.5966	0.2264	0.011
Mof_H 	H 	0.8673	0.2311	0.9362	0.035
Mof_H 	H 	0.7984	0.0309	0.9613	0.063
Mof_H 	H 	0.2264	0.1298	0.1108	0.011
Mof_H 	H 	0.501	0.2066	0.098	0.083
Mof_H 	H 	0.4304	0.1629	0.4613	0.063
Mof_H 	H 	0.2264	0.0966	0.6156	0.011
Mof_H 	H 	0.7477	0.9466	0.7845	0.09
Mof_H 	H 	0.877	0.7317	0.1489	0.038
Mof_H 	H 	0.9493	0.585	0.2179	0.006
Mof_H 	H 	0.8702	0.481	0.0966	0.011
Mof_H 	H 	0.0795	0.7668	0.1221	0.019
Mof_H 	H 	0.001	0.903	0.2944	0.083
Mof_H 	H 	0.1329	0.8643	0.915	0.006
Mof_H 	H 	0.6298	0.7264	0.6108	0.011
Mof_H 	H 	0.5795	0.1221	0.7668	0.019
Mof_H 	H 	0.0507	0.415	0.7821	0.006
Mof_H 	H 	0.4574	0.8127	0.0795	0.019
Mof_H 	H 	0.0368	0.7845	0.8379	0.09
Mof_H 	H 	0.5309	0.2984	0.4613	0.063
Mof_H 	H 	0.6453	0.377	0.7281	0.038
Mof_H 	H 	0.623	0.8511	0.2683	0.038
Mof_H 	H 	0.2675	0.2984	0.8371	0.063
Mof_H 	H 	0.8553	0.8127	0.7332	0.019
Mof_H 	H 	0.2668	0.5795	0.6221	0.019
Mof_H 	H 	0.2477	0.7845	0.9466	0.09
Mof_H 	H 	0.2949	0.7311	0.8638	0.035
Mof_H 	H 	0.499	0.7934	0.902	0.083
Mof_H 	H 	0.7944	0.7934	0.8914	0.083
Mof_H 	H 	0.2675	0.9691	0.9304	0.063
Mof_H 	H 	0.2683	0.3511	0.623	0.038
Mof_H 	H 	0.2689	0.6362	0.2051	0.035
Mof_H 	H 	0.7949	0.9311	0.5638	0.035
Mof_H 	H 	0.8511	0.0828	0.2281	0.038
Mof_H 	H 	0.2314	0.3671	0.7821	0.006
Mof_H 	H 	0.915	0.3643	0.1329	0.006
Mof_H 	H 	0.8914	0.2934	0.7944	0.083
Mof_H 	H 	0.2311	0.4362	0.3673	0.035
Mof_H 	H 	0.9632	0.7477	0.3011	0.09
Mof_H 	H 	0.3011	0.0534	0.8379	0.09
Mof_H 	H 	0.0309	0.5696	0.2325	0.063
Mof_H 	H 	0.0828	0.3547	0.2317	0.038
Mof_H 	H 	0.0689	0.1327	0.8638	0.035
Mof_H 	H 	0.2736	0.3844	0.9034	0.011
Mof_H 	H 	0.8844	0.7736	0.4034	0.011
Mof_H 	H 	0.0534	0.7155	0.7523	0.09
Mof_H 	H 	0.3011	0.2477	0.9632	0.09
Mof_H 	H 	0.981	0.6108	0.8844	0.011
Mof_H 	H 	0.2325	0.1629	0.7016	0.063
Mof_H 	H 	0.6086	0.403	0.402	0.083
Mof_H 	H 	0.2332	0.8553	0.3127	0.019
Mof_H 	H 	0.3844	0.981	0.1108	0.011
Mof_H 	H 	0.5534	0.8011	0.3379	0.09
Mof_H 	H 	0.7325	0.0309	0.0696	0.063
Mof_H 	H 	0.7523	0.2155	0.0534	0.09
Mof_H 	H 	0.915	0.5507	0.2821	0.006
Mof_H 	H 	0.7934	0.402	0.999	0.083
Mof_H 	H 	0.5966	0.7264	0.1156	0.011
Mof_H 	H 	0.1621	0.7155	0.9632	0.09
Mof_H 	H 	0.3673	0.9362	0.2311	0.035
Mof_H 	H 	0.4172	0.7683	0.6453	0.038
Mof_H 	H 	0.585	0.8671	0.6357	0.006
Mof_H 	H 	0.3547	0.7317	0.5828	0.038
Mof_H 	H 	0.3779	0.4574	0.1447	0.019
Mof_H 	H 	0.7845	0.4466	0.7477	0.09
Mof_H 	H 	0.6357	0.3671	0.585	0.006
Mof_H 	H 	0.2523	0.0534	0.2155	0.09
Mof_H 	H 	0.8379	0.5534	0.3011	0.09
Mof_H 	H 	0.9362	0.7311	0.8673	0.035
Mof_H 	H 	0.7179	0.7686	0.1329	0.006
Mof_H 	H 	0.499	0.7056	0.097	0.083
Mof_H 	H 	0.4691	0.7675	0.4304	0.063
Mof_H 	H 	0.3127	0.9574	0.5795	0.019
Mof_H 	H 	0.902	0.6086	0.903	0.083
Mof_H 	H 	0.6357	0.2686	0.5507	0.006
Mof_H 	H 	0.6989	0.9466	0.1621	0.09
Mof_H 	H 	0.3779	0.9205	0.7332	0.019
Mof_H 	H 	0.7314	0.9493	0.8643	0.006
Mof_H 	H 	0.4613	0.7984	0.5309	0.063
Mof_H 	H 	0.403	0.501	0.7944	0.083
Mof_H 	H 	0.7051	0.2689	0.1362	0.035
Mof_H 	H 	0.4034	0.1298	0.019	0.011
Mof_H 	H 	0.7683	0.1453	0.9172	0.038
Mof_H 	H 	0.7821	0.915	0.0507	0.006
Mof_H 	H 	0.123	0.2683	0.8511	0.038
Mof_H 	H 	0.9362	0.2051	0.5689	0.035
Mof_H 	H 	0.7066	0.001	0.598	0.083
Mof_H 	H 	0.3643	0.6329	0.415	0.006
Mof_H 	H 	0.7155	0.4632	0.6621	0.09
Mof_H 	H 	0.1327	0.3638	0.5689	0.035
Mof_H 	H 	0.6873	0.6447	0.7668	0.019
Mof_H 	H 	0.1086	0.7066	0.2056	0.083
Mof_H 	H 	0.2016	0.2325	0.6629	0.063
Mof_H 	H 	0.0689	0.9362	0.7051	0.035
Mof_H 	H 	0.7332	0.4205	0.3779	0.019
Mof_H 	H 	0.999	0.902	0.7934	0.083
Mof_H 	H 	0.4466	0.2477	0.2845	0.09
Mof_H 	H 	0.8779	0.7332	0.9205	0.019
Mof_H 	H 	0.4362	0.5689	0.2051	0.035
Mof_H 	H 	0.9466	0.2845	0.2477	0.09
Mof_H 	H 	0.4205	0.5426	0.6873	0.019
Mof_H 	H 	0.8671	0.7314	0.2821	0.006
Mof_H 	H 	0.6873	0.0426	0.4205	0.019
Mof_H 	H 	0.0387	0.5696	0.3371	0.063
Mof_H 	H 	0.3127	0.3553	0.2332	0.019
Mof_H 	H 	0.1108	0.481	0.3844	0.011
Mof_H 	H 	0.1357	0.5507	0.2686	0.006
Mof_H 	H 	0.7675	0.8371	0.2984	0.063
Mof_H 	H 	0.8127	0.2332	0.3553	0.019
Mof_H 	H 	0.3892	0.6156	0.519	0.011
Mof_H 	H 	0.5966	0.8702	0.981	0.011
Mof_H 	H 	0.1873	0.4205	0.0426	0.019
Mof_H 	H 	0.3379	0.0368	0.2845	0.09
Mof_H 	H 	0.403	0.902	0.1086	0.083
Mof_H 	H 	0.0966	0.1156	0.7264	0.011
Mof_H 	H 	0.2944	0.403	0.001	0.083
Mof_H 	H 	0.7332	0.3127	0.8553	0.019
Mof_H 	H 	0.8547	0.5828	0.7317	0.038
Mof_H 	H 	0.8511	0.7683	0.123	0.038
Mof_H 	H 	0.9205	0.6873	0.5426	0.019
Mof_H 	H 	0.2686	0.2179	0.6329	0.006
Mof_H 	H 	0.8892	0.3702	0.7736	0.011
Mof_H 	H 	0.7317	0.6489	0.377	0.038
Mof_H 	H 	0.2016	0.9691	0.0387	0.063
Mof_H 	H 	0.4632	0.3011	0.7477	0.09
Mof_H 	H 	0.481	0.8844	0.6108	0.011
Mof_H 	H 	0.4205	0.8779	0.2332	0.019
Mof_H 	H 	0.519	0.4034	0.6298	0.011
Mof_H 	H 	0.481	0.5966	0.3702	0.011
Mof_H 	H 	0.0426	0.1221	0.3553	0.019
Mof_H 	H 	0.6327	0.0638	0.7689	0.035
Mof_H 	H 	0.8638	0.2311	0.2949	0.035
Mof_H 	H 	0.2179	0.1329	0.7686	0.006
Mof_H 	H 	0.2477	0.4632	0.8011	0.09
Mof_H 	H 	0.9311	0.8673	0.1362	0.035
Mof_H 	H 	0.598	0.501	0.7066	0.083
Mof_H 	H 	0.999	0.097	0.7056	0.083
Mof_H 	H 	0.7016	0.0387	0.9691	0.063
Mof_H 	H 	0.2736	0.8892	0.8702	0.011
Mof_H 	H 	0.8643	0.415	0.6329	0.006
Mof_H 	H 	0.9574	0.0795	0.8127	0.019
Mof_H 	H 	0.0696	0.5309	0.7325	0.063
Mof_H 	H 	0.623	0.7719	0.8547	0.038
Mof_H 	H 	0.9466	0.6621	0.1989	0.09
Mof_H 	H 	0.1156	0.2264	0.5966	0.011
Mof_H 	H 	0.7311	0.3673	0.4362	0.035
Mof_H 	H 	0.402	0.903	0.6086	0.083
Mof_H 	H 	0.2949	0.5638	0.9311	0.035
Mof_H 	H 	0.3553	0.7332	0.8127	0.019
Mof_H 	H 	0.2719	0.1489	0.4172	0.038
Mof_H 	H 	0.519	0.1156	0.3892	0.011
Mof_H 	H 	0.6489	0.877	0.2317	0.038
Mof_H 	H 	0.3371	0.2675	0.7984	0.063
Mof_H 	H 	0.2821	0.0507	0.915	0.006
Mof_H 	H 	0.5309	0.2325	0.5696	0.063
Mof_H 	H 	0.3702	0.2736	0.3892	0.011
Mof_H 	H 	0.5426	0.1873	0.9205	0.019
Mof_H 	H 	0.2066	0.6086	0.7056	0.083
Mof_H 	H 	0.8643	0.4493	0.7314	0.006
Mof_H 	H 	0.9613	0.5309	0.7984	0.063
Mof_H 	H 	0.4034	0.2736	0.8844	0.011
Mof_H 	H 	0.5387	0.2016	0.4691	0.063
Mof_H 	H 	0.7689	0.5638	0.6327	0.035
Mof_H 	H 	0.7668	0.1447	0.6873	0.019
Mof_H 	H 	0.0368	0.2523	0.6989	0.09
Mof_H 	H 	0.9205	0.2332	0.8779	0.019
Mof_H 	H 	0.1989	0.1621	0.9466	0.09
Mof_H 	H 	0.2523	0.1989	0.5368	0.09
Mof_H 	H 	0.2314	0.8643	0.9493	0.006
Mof_H 	H 	0.4304	0.2675	0.4691	0.063
Mof_H 	H 	0.4493	0.2179	0.585	0.006
Mof_H 	H 	0.2056	0.999	0.597	0.083
Mof_H 	H 	0.4172	0.6489	0.2719	0.038
Mof_H 	H 	0.9493	0.3643	0.2314	0.006
Mof_H 	H 	0.4311	0.1362	0.8673	0.035
Mof_H 	H 	0.8011	0.9632	0.2477	0.09
Mof_H 	H 	0.8671	0.1357	0.085	0.006
Mof_H 	H 	0.2845	0.5368	0.3379	0.09
Mof_H 	H 	0.5696	0.7325	0.5309	0.063
Mof_H 	H 	0.9574	0.8779	0.6447	0.019
Mof_H 	H 	0.903	0.7944	0.501	0.083
Mof_H 	H 	0.6453	0.2683	0.4172	0.038
Mof_H 	H 	0.1629	0.2016	0.7325	0.063
Mof_H 	H 	0.097	0.2056	0.499	0.083
Mof_H 	H 	0.7314	0.7821	0.3671	0.006
Mof_H 	H 	0.1108	0.6298	0.2264	0.011
Mof_H 	H 	0.6156	0.019	0.8892	0.011
Mof_H 	H 	0.7264	0.6156	0.0966	0.011
Mof_H 	H 	0.8379	0.2845	0.0368	0.09
Mof_H 	H 	0.0795	0.3127	0.4574	0.019
Mof_H 	H 	0.3671	0.085	0.1357	0.006
Mof_H 	H 	0.6489	0.7719	0.9172	0.038
Mof_H 	H 	0.903	0.1086	0.902	0.083
Mof_H 	H 	0.2944	0.8914	0.7934	0.083
Mof_H 	H 	0.2668	0.6873	0.1447	0.019
Mof_H 	H 	0.8844	0.1108	0.981	0.011
Mof_H 	H 	0.6621	0.6989	0.4466	0.09
Mof_H 	H 	0.7668	0.6221	0.5795	0.019
Mof_H 	H 	0.7719	0.4172	0.1489	0.038
Mof_H 	H 	0.501	0.2944	0.903	0.083
Mof_H 	H 	0.5696	0.8371	0.5387	0.063
Mof_H 	H 	0.9691	0.4304	0.7675	0.063
Mof_H 	H 	0.6108	0.2264	0.6298	0.011
Mof_H 	H 	0.4613	0.6629	0.4304	0.063
Mof_H 	H 	0.097	0.8914	0.098	0.083
Mof_H 	H 	0.2332	0.3779	0.4205	0.019
Mof_H 	H 	0.981	0.3702	0.5966	0.011
Mof_H 	H 	0.9172	0.2719	0.6489	0.038
Mof_H 	H 	0.0966	0.981	0.8702	0.011
Mof_H 	H 	0.6086	0.2056	0.7066	0.083
Mof_H 	H 	0.9172	0.6453	0.7683	0.038
Mof_H 	H 	0.1447	0.9574	0.3779	0.019
Mof_H 	H 	0.098	0.3914	0.097	0.083
Mof_H 	H 	0.7311	0.3638	0.7949	0.035
Mof_H 	H 	0.7821	0.8671	0.2314	0.006
Mof_H 	H 	0.3892	0.7736	0.3702	0.011
Mof_H 	H 	0.1329	0.2686	0.7179	0.006
Mof_H 	H 	0.7736	0.9034	0.3844	0.011
Mof_H 	H 	0.8371	0.7984	0.2675	0.063
Mof_H 	H 	0.3638	0.0689	0.6327	0.035
Mof_H 	H 	0.377	0.1489	0.7317	0.038
Mof_H 	H 	0.2317	0.377	0.6489	0.038
Mof_H 	H 	0.902	0.2934	0.499	0.083
Mof_H 	H 	0.8553	0.0426	0.6221	0.019
Mof_H 	H 	0.1221	0.2668	0.0795	0.019
Mof_H 	H 	0.7686	0.1357	0.0507	0.006
Mof_H 	H 	0.2934	0.2944	0.3914	0.083
Mof_H 	H 	0.1489	0.2317	0.877	0.038
Mof_H 	H 	0.7686	0.6329	0.2179	0.006
Mof_H 	H 	0.1629	0.9613	0.9304	0.063
Mof_H 	H 	0.019	0.6298	0.4034	0.011
Mof_H 	H 	0.3638	0.2949	0.2311	0.035
Mof_H 	H 	0.2719	0.123	0.3547	0.038
Mof_H 	H 	0.2984	0.9613	0.0309	0.063
Mof_H 	H 	0.7325	0.7016	0.1629	0.063
Mof_H 	H 	0.9632	0.2155	0.1621	0.09
Mof_H 	H 	0.5638	0.1327	0.2689	0.035
Mof_H 	H 	0.3673	0.4311	0.6362	0.035
Mof_H 	H 	0.5638	0.4311	0.7949	0.035
Mof_H 	H 	0.7066	0.7056	0.6086	0.083
Mof_H 	H 	0.7675	0.9304	0.9691	0.063
Mof_H 	H 	0.877	0.1453	0.2281	0.038
Mof_H 	H 	0.402	0.499	0.2934	0.083
Mof_H 	H 	0.7523	0.5368	0.1989	0.09
Mof_H 	H 	0.2051	0.0689	0.4362	0.035
Mof_H 	H 	0.2155	0.6621	0.4632	0.09
Mof_H 	H 	0.1873	0.7668	0.6447	0.019
Mof_H 	H 	0.2281	0.6453	0.877	0.038
Mof_H 	H 	0.5689	0.7051	0.9362	0.035
Mof_H 	H 	0.7016	0.6629	0.2325	0.063
Mof_H 	H 	0.3643	0.7314	0.4493	0.006
Mof_H 	H 	0.0638	0.7949	0.4311	0.035
Mof_H 	H 	0.1362	0.3673	0.9311	0.035
Mof_H 	H 	0.1621	0.4466	0.6989	0.09
Mof_H 	H 	0.5426	0.3553	0.1221	0.019
Mof_H 	H 	0.6329	0.915	0.8643	0.006
Mof_H 	H 	0.3671	0.2821	0.7314	0.006
Mof_H 	H 	0.7934	0.3914	0.2944	0.083
Mof_H 	H 	0.415	0.2821	0.5507	0.006
Mof_H 	H 	0.5828	0.3511	0.7281	0.038
Mof_H 	H 	0.4574	0.6447	0.8779	0.019
Mof_H 	H 	0.8011	0.8379	0.0534	0.09
Mof_H 	H 	0.597	0.098	0.8914	0.083
Mof_H 	H 	0.7056	0.1086	0.2066	0.083
Mof_H 	H 	0.3547	0.623	0.2719	0.038
Mof_H 	H 	0.1453	0.4172	0.2683	0.038
Mof_H 	H 	0.3914	0.7944	0.2934	0.083
Mof_H 	H 	0.8547	0.2719	0.623	0.038
Mof_H 	H 	0.5368	0.6989	0.2523	0.09
Mof_H 	H 	0.7317	0.0828	0.8547	0.038
Mof_H 	H 	0.9311	0.0638	0.2949	0.035
Mof_H 	H 	0.7944	0.001	0.403	0.083
Mof_H 	H 	0.7179	0.9493	0.085	0.006
Mof_H 	H 	0.0534	0.3379	0.8011	0.09
Mof_H 	H 	0.7056	0.597	0.999	0.083
Mof_H 	H 	0.085	0.4493	0.7179	0.006
Mof_H 	H 	0.3511	0.123	0.7683	0.038
Mof_H 	H 	0.3844	0.4034	0.7736	0.011
Mof_H 	H 	0.6221	0.5426	0.8553	0.019
Mof_H 	H 	0.0426	0.9205	0.1873	0.019
Mof_H 	H 	0.6629	0.9304	0.9613	0.063
Mof_H 	H 	0.1357	0.585	0.3671	0.006
Mof_H 	H 	0.3379	0.3011	0.5534	0.09
Mof_H 	H 	0.6629	0.7325	0.2016	0.063
Mof_H 	H 	0.5534	0.7523	0.7155	0.09
Mof_H 	H 	0.6329	0.7179	0.2686	0.006
Mof_H 	H 	0.1156	0.8892	0.019	0.011
Mof_H 	H 	0.2066	0.598	0.001	0.083
Mof_H 	H 	0.1298	0.6108	0.7264	0.011
Mof_H 	H 	0.098	0.7066	0.501	0.083
Mof_H 	H 	0.9304	0.4691	0.2675	0.063
Mof_H 	H 	0.2317	0.8547	0.0828	0.038
Mof_H 	H 	0.1298	0.519	0.9034	0.011
Mof_H 	H 	0.3371	0.0696	0.0387	0.063
Mof_H 	H 	0.5689	0.8638	0.1327	0.035
Mof_H 	H 	0.8914	0.598	0.597	0.083
Mof_H 	H 	0.6108	0.3844	0.481	0.011
Mof_H 	H 	0.7949	0.8638	0.7311	0.035
Mof_H 	H 	0.4311	0.2949	0.0638	0.035
Mof_H 	H 	0.9613	0.4304	0.6629	0.063
Mof_H 	H 	0.5795	0.4574	0.3127	0.019
Mof_H 	H 	0.0638	0.2689	0.1327	0.035
Mof_H 	H 	0.377	0.2281	0.1453	0.038
Mof_H 	H 	0.0387	0.4691	0.2016	0.063
Mof_H 	H 	0.6362	0.7051	0.7689	0.035
Mof_C 	C 	0.79365	0.12217	0.80474	0.162
Mof_C 	C 	0.72048	0.0775	0.1364	0.054
Mof_C 	C 	0.79993	0.99108	0.32743	0.144
Mof_C 	C 	0.80586	0.9563	0.60412	0.003
Mof_C 	C 	0.3766	0.10073	0.07065	-0.122
Mof_C 	C 	0.35702	0.41592	0.77952	0.054
Mof_C 	C 	0.71569	0.73399	0.10566	0.053
Mof_C 	C 	0.47373	0.18198	0.10565	-0.154
Mof_C 	C 	0.33921	0.6366	0.01751	-0.003
Mof_C 	C 	0.11003	0.4817	0.71569	0.053
Mof_C 	C 	0.20825	0.02627	0.63192	-0.154
Mof_C 	C 	0.15044	0.35218	0.9563	0.003
Mof_C 	C 	0.70825	0.63192	0.02627	-0.154
Mof_C 	C 	0.67148	0.98891	0.29365	0.162
Mof_C 	C 	0.82443	0.47976	0.77567	-0.152
Mof_C 	C 	0.29739	0.6783	0.16079	-0.003
Mof_C 	C 	0.5437	0.84956	0.14782	0.003
Mof_C 	C 	0.77567	0.79591	0.45124	-0.152
Mof_C 	C 	0.29826	0.64782	0.60412	0.003
Mof_C 	C 	0.77952	0.8636	0.9225	0.054
Mof_C 	C 	0.30474	0.51109	0.18257	0.162
Mof_C 	C 	0.42367	0.79175	0.31802	-0.154
Mof_C 	C 	0.79175	0.81802	0.92367	-0.154
Mof_C 	C 	0.89588	0.19414	0.5437	0.003
Mof_C 	C 	0.46992	0.69405	0.57065	-0.122
Mof_C 	C 	0.47976	0.20409	0.65533	-0.152
Mof_C 	C 	0.88997	0.5183	0.28431	0.053
Mof_C 	C 	0.19115	0.5275	0.70007	0.144
Mof_C 	C 	0.60073	0.8766	0.57065	-0.122
Mof_C 	C 	0.41592	0.1364	0.0589	0.054
Mof_C 	C 	0.32743	0.49108	0.79993	0.144
Mof_C 	C 	0.29365	0.48891	0.67148	0.162
Mof_C 	C 	0.0589	0.6364	0.41592	0.054
Mof_C 	C 	0.10566	0.87167	0.88997	0.053
Mof_C 	C 	0.38997	0.10566	0.37167	0.053
Mof_C 	C 	0.33635	0.50892	0.30885	0.144
Mof_C 	C 	0.34956	0.30586	0.20174	0.003
Mof_C 	C 	0.41592	0.27952	0.85702	0.054
Mof_C 	C 	0.27587	0.96992	0.89927	-0.122
Mof_C 	C 	0.84467	0.52024	0.29591	-0.152
Mof_C 	C 	0.3634	0.88091	0.70261	-0.003
Mof_C 	C 	0.21569	0.11003	0.9817	0.053
Mof_C 	C 	0.92367	0.31802	0.79175	-0.154
Mof_C 	C 	0.22048	0.1364	0.0775	0.054
Mof_C 	C 	0.60565	0.47373	0.68198	-0.154
Mof_C 	C 	0.81802	0.42367	0.29175	-0.154
Mof_C 	C 	0.54876	0.84467	0.82443	-0.152
Mof_C 	C 	0.67257	0.16365	0.9725	0.144
Mof_C 	C 	0.88091	0.20261	0.8634	-0.003
Mof_C 	C 	0.72433	0.54876	0.20409	-0.152
Mof_C 	C 	0.4563	0.30586	0.10412	0.003
Mof_C 	C 	0.69526	0.48891	0.81743	0.162
Mof_C 	C 	0.15044	0.79826	0.69414	0.003
Mof_C 	C 	0.25	0.8728	0.1272	0.021
Mof_C 	C 	0.10073	0.53008	0.72413	-0.122
Mof_C 	C 	0.79591	0.84467	0.02024	-0.152
Mof_C 	C 	0.98249	0.8634	0.66079	-0.003
Mof_C 	C 	0.88997	0.37167	0.10566	0.053
Mof_C 	C 	0.50892	0.80885	0.83635	0.144
Mof_C 	C 	0.79826	0.19414	0.65044	0.003
Mof_C 	C 	0.47976	0.27567	0.32443	-0.152
Mof_C 	C 	0.61003	0.71569	0.4817	0.053
Mof_C 	C 	0.8634	0.70261	0.88091	-0.003
Mof_C 	C 	0.76601	0.78431	0.39434	0.053
Mof_C 	C 	0.16079	0.98249	0.3634	-0.003
Mof_C 	C 	0.8772	0.1272	0.2544	0.021
Mof_C 	C 	0.9725	0.66365	0.67257	0.144
Mof_C 	C 	0.32443	0.54876	0.34467	-0.152
Mof_C 	C 	0.68257	0.37783	0.17148	0.162
Mof_C 	C 	0.04876	0.82443	0.84467	-0.152
Mof_C 	C 	0.42935	0.6234	0.39927	-0.122
Mof_C 	C 	0.58408	0.72048	0.14298	0.054
Mof_C 	C 	0.13192	0.20825	0.52627	-0.154
Mof_C 	C 	0.17557	0.52024	0.22433	-0.152
Mof_C 	C 	0.5275	0.32743	0.33635	0.144
Mof_C 	C 	0.20825	0.18198	0.07633	-0.154
Mof_C 	C 	0.89434	0.12833	0.11003	0.053
Mof_C 	C 	0.89927	0.46992	0.27587	-0.122
Mof_C 	C 	0.49108	0.19115	0.16365	0.144
Mof_C 	C 	0.02627	0.13192	0.70825	-0.154
Mof_C 	C 	0.02024	0.67557	0.72433	-0.152
Mof_C 	C 	0.29993	0.9725	0.80885	0.144
Mof_C 	C 	0.48249	0.8217	0.11909	-0.003
Mof_C 	C 	0.2544	0.6272	0.8772	0.021
Mof_C 	C 	0.29591	0.27567	0.95124	-0.152
Mof_C 	C 	0.39435	0.86808	0.57633	-0.154
Mof_C 	C 	0.0275	0.69115	0.20007	0.144
Mof_C 	C 	0.70174	0.34956	0.80586	0.003
Mof_C 	C 	0.80885	0.33635	0.00892	0.144
Mof_C 	C 	0.4817	0.26601	0.37167	0.053
Mof_C 	C 	0.35702	0.9411	0.0775	0.054
Mof_C 	C 	0.53008	0.30595	0.42935	-0.122
Mof_C 	C 	0.6228	0.8772	0.25	0.021
Mof_C 	C 	0.20635	0.87783	0.19526	0.162
Mof_C 	C 	0.61909	0.1366	0.79739	-0.003
Mof_C 	C 	0.07633	0.39435	0.36808	-0.154
Mof_C 	C 	0.79993	0.80885	0.9725	0.144
Mof_C 	C 	0.01751	0.88091	0.1783	-0.003
Mof_C 	C 	0.92935	0.39927	0.6234	-0.122
Mof_C 	C 	0.9225	0.5589	0.64298	0.054
Mof_C 	C 	0.13192	0.92367	0.10565	-0.154
Mof_C 	C 	0.2456	0.1228	0.3728	0.021
Mof_C 	C 	0.97976	0.32443	0.27567	-0.152
Mof_C 	C 	0.75	0.6228	0.3772	0.021
Mof_C 	C 	0.5775	0.35702	0.4411	0.054
Mof_C 	C 	0.25	0.3772	0.6228	0.021
Mof_C 	C 	0.0437	0.89588	0.69414	0.003
Mof_C 	C 	0.85218	0.65044	0.4563	0.003
Mof_C 	C 	0.83921	0.8217	0.70261	-0.003
Mof_C 	C 	0.64782	0.5437	0.34956	0.003
Mof_C 	C 	0.35218	0.4563	0.65044	0.003
Mof_C 	C 	0.23399	0.0183	0.12833	0.053
Mof_C 	C 	0.69405	0.6234	0.22413	-0.122
Mof_C 	C 	0.62833	0.39434	0.61003	0.053
Mof_C 	C 	0.70261	0.38091	0.3634	-0.003
Mof_C 	C 	0.92367	0.60565	0.63192	-0.154
Mof_C 	C 	0.89927	0.42935	0.1234	-0.122
Mof_C 	C 	0.39588	0.5437	0.19414	0.003
Mof_C 	C 	0.81743	0.98891	0.69526	0.162
Mof_C 	C 	0.69115	0.99108	0.66365	0.144
Mof_C 	C 	0.20261	0.83921	0.3217	-0.003
Mof_C 	C 	0.6234	0.72413	0.19405	-0.122
Mof_C 	C 	0.1366	0.29739	0.11909	-0.003
Mof_C 	C 	0.07065	0.46992	0.19405	-0.122
Mof_C 	C 	0.0589	0.4225	0.14298	0.054
Mof_C 	C 	0.76601	0.9817	0.87167	0.053
Mof_C 	C 	0.29739	0.61909	0.6366	-0.003
Mof_C 	C 	0.37167	0.60566	0.38997	0.053
Mof_C 	C 	0.46992	0.77587	0.39927	-0.122
Mof_C 	C 	0.97373	0.10565	0.18198	-0.154
Mof_C 	C 	0.70409	0.97976	0.15533	-0.152
Mof_C 	C 	0.19405	0.22413	0.6234	-0.122
Mof_C 	C 	0.0775	0.4411	0.35702	0.054
Mof_C 	C 	0.80595	0.03008	0.92935	-0.122
Mof_C 	C 	0.68257	0.30474	0.01109	0.162
Mof_C 	C 	0.1272	0.3728	0.25	0.021
Mof_C 	C 	0.77587	0.8766	0.30595	-0.122
Mof_C 	C 	0.15533	0.67557	0.95124	-0.152
Mof_C 	C 	0.10566	0.23399	0.71569	0.053
Mof_C 	C 	0.84467	0.32443	0.04876	-0.152
Mof_C 	C 	0.66365	0.17257	0.4725	0.144
Mof_C 	C 	0.8728	0.6272	0.75	0.021
Mof_C 	C 	0.3634	0.48249	0.16079	-0.003
Mof_C 	C 	0.83635	0.5275	0.82743	0.144
Mof_C 	C 	0.14782	0.79826	0.10412	0.003
Mof_C 	C 	0.92935	0.53008	0.80595	-0.122
Mof_C 	C 	0.18257	0.01109	0.30474	0.162
Mof_C 	C 	0.57065	0.19405	0.46992	-0.122
Mof_C 	C 	0.89435	0.31802	0.52627	-0.154
Mof_C 	C 	0.85218	0.20174	0.89588	0.003
Mof_C 	C 	0.48891	0.31743	0.19526	0.162
Mof_C 	C 	0.5775	0.22048	0.6364	0.054
Mof_C 	C 	0.33921	0.70261	0.8217	-0.003
Mof_C 	C 	0.17257	0.9725	0.16365	0.144
Mof_C 	C 	0.45124	0.29591	0.77567	-0.152
Mof_C 	C 	0.4725	0.67257	0.66365	0.144
Mof_C 	C 	0.5183	0.78431	0.38997	0.053
Mof_C 	C 	0.17257	0.20007	0.50892	0.144
Mof_C 	C 	0.62217	0.29365	0.30474	0.162
Mof_C 	C 	0.98891	0.19526	0.31743	0.162
Mof_C 	C 	0.70007	0.0275	0.19115	0.144
Mof_C 	C 	0.81743	0.82852	0.62217	0.162
Mof_C 	C 	0.10412	0.80586	0.4563	0.003
Mof_C 	C 	0.11003	0.62833	0.89434	0.053
Mof_C 	C 	0.52627	0.81802	0.89435	-0.154
Mof_C 	C 	0.63192	0.52627	0.20825	-0.154
Mof_C 	C 	0.57633	0.36808	0.39435	-0.154
Mof_C 	C 	0.34467	0.29591	0.52024	-0.152
Mof_C 	C 	0.63192	0.10565	0.92367	-0.154
Mof_C 	C 	0.87167	0.38997	0.60566	0.053
Mof_C 	C 	0.17148	0.29365	0.98891	0.162
Mof_C 	C 	0.51751	0.1783	0.88091	-0.003
Mof_C 	C 	0.64298	0.58408	0.22048	0.054
Mof_C 	C 	0.70635	0.19526	0.87783	0.162
Mof_C 	C 	0.52627	0.70825	0.13192	-0.154
Mof_C 	C 	0.1234	0.92935	0.89927	-0.122
Mof_C 	C 	0.69414	0.29826	0.15044	0.003
Mof_C 	C 	0.9563	0.10412	0.30586	0.003
Mof_C 	C 	0.39435	0.52627	0.31802	-0.154
Mof_C 	C 	0.08408	0.9411	0.8636	0.054
Mof_C 	C 	0.6364	0.91592	0.5589	0.054
Mof_C 	C 	0.69115	0.70007	0.5275	0.144
Mof_C 	C 	0.8636	0.4411	0.08408	0.054
Mof_C 	C 	0.65533	0.95124	0.67557	-0.152
Mof_C 	C 	0.01751	0.1366	0.33921	-0.003
Mof_C 	C 	0.84956	0.20174	0.30586	0.003
Mof_C 	C 	0.07065	0.60073	0.3766	-0.122
Mof_C 	C 	0.11909	0.79739	0.1366	-0.003
Mof_C 	C 	0.20007	0.00892	0.67257	0.144
Mof_C 	C 	0.07633	0.68198	0.20825	-0.154
Mof_C 	C 	0.19414	0.15044	0.29826	0.003
Mof_C 	C 	0.95124	0.17557	0.15533	-0.152
Mof_C 	C 	0.99108	0.82743	0.29993	0.144
Mof_C 	C 	0.9225	0.3636	0.77952	0.054
Mof_C 	C 	0.6272	0.3772	0.7544	0.021
Mof_C 	C 	0.80474	0.62217	0.79365	0.162
Mof_C 	C 	0.28431	0.26601	0.89434	0.053
Mof_C 	C 	0.82852	0.70635	0.01109	0.162
Mof_C 	C 	0.6366	0.51751	0.83921	-0.003
Mof_C 	C 	0.75	0.1272	0.8728	0.021
Mof_C 	C 	0.14782	0.34956	0.5437	0.003
Mof_C 	C 	0.8766	0.80595	0.27587	-0.122
Mof_C 	C 	0.51751	0.33921	0.1366	-0.003
Mof_C 	C 	0.3766	0.27587	0.80595	-0.122
Mof_C 	C 	0.38091	0.51751	0.6783	-0.003
Mof_C 	C 	0.37783	0.67148	0.18257	0.162
Mof_C 	C 	0.9411	0.5775	0.85702	0.054
Mof_C 	C 	0.89435	0.57633	0.86808	-0.154
Mof_C 	C 	0.72433	0.17557	0.02024	-0.152
Mof_C 	C 	0.36808	0.47373	0.79175	-0.154
Mof_C 	C 	0.68198	0.97373	0.60565	-0.154
Mof_C 	C 	0.5589	0.14298	0.4225	0.054
Mof_C 	C 	0.1783	0.38091	0.01751	-0.003
Mof_C 	C 	0.30885	0.29993	0.4725	0.144
Mof_C 	C 	0.20409	0.15533	0.97976	-0.152
Mof_C 	C 	0.86808	0.79175	0.47373	-0.154
Mof_C 	C 	0.45124	0.15533	0.17557	-0.152
Mof_C 	C 	0.3636	0.08408	0.4411	0.054
Mof_C 	C 	0.20261	0.3634	0.38091	-0.003
Mof_C 	C 	0.5275	0.20007	0.69115	0.144
Mof_C 	C 	0.31743	0.62217	0.82852	0.162
Mof_C 	C 	0.4225	0.77952	0.3636	0.054
Mof_C 	C 	0.72048	0.64298	0.08408	0.054
Mof_C 	C 	0.57633	0.20825	0.68198	-0.154
Mof_C 	C 	0.29591	0.02024	0.84467	-0.152
Mof_C 	C 	0.79365	0.67148	0.48891	0.162
Mof_C 	C 	0.04876	0.22433	0.70409	-0.152
Mof_C 	C 	0.3217	0.33921	0.20261	-0.003
Mof_C 	C 	0.7456	0.3728	0.1228	0.021
Mof_C 	C 	0.87167	0.4817	0.76601	0.053
Mof_C 	C 	0.4225	0.64298	0.5589	0.054
Mof_C 	C 	0.79739	0.6366	0.61909	-0.003
Mof_C 	C 	0.39927	0.1234	0.42935	-0.122
Mof_C 	C 	0.9411	0.3636	0.58408	0.054
Mof_C 	C 	0.79591	0.95124	0.27567	-0.152
Mof_C 	C 	0.30586	0.60412	0.9563	0.003
Mof_C 	C 	0.02627	0.89435	0.81802	-0.154
Mof_C 	C 	0.30595	0.92935	0.03008	-0.122
Mof_C 	C 	0.38091	0.8634	0.20261	-0.003
Mof_C 	C 	0.8772	0.75	0.1228	0.021
Mof_C 	C 	0.08408	0.14298	0.72048	0.054
Mof_C 	C 	0.48891	0.17148	0.79365	0.162
Mof_C 	C 	0.32852	0.31743	0.12217	0.162
Mof_C 	C 	0.60073	0.72413	0.53008	-0.122
Mof_C 	C 	0.83635	0.30885	0.50892	0.144
Mof_C 	C 	0.82743	0.79993	0.49108	0.144
Mof_C 	C 	0.01109	0.80474	0.68257	0.162
Mof_C 	C 	0.57065	0.3766	0.60073	-0.122
Mof_C 	C 	0.61909	0.48249	0.3217	-0.003
Mof_C 	C 	0.79739	0.16079	0.6783	-0.003
Mof_C 	C 	0.19526	0.81743	0.48891	0.162
Mof_C 	C 	0.88091	0.6783	0.51751	-0.003
Mof_C 	C 	0.86808	0.07633	0.89435	-0.154
Mof_C 	C 	0.5589	0.41592	0.6364	0.054
Mof_C 	C 	0.70261	0.3217	0.83921	-0.003
Mof_C 	C 	0.79826	0.60412	0.64782	0.003
Mof_C 	C 	0.97976	0.65533	0.20409	-0.152
Mof_C 	C 	0.35218	0.89588	0.20174	0.003
Mof_C 	C 	0.16365	0.69115	0.49108	0.144
Mof_C 	C 	0.84956	0.64782	0.0437	0.003
Mof_C 	C 	0.89434	0.76601	0.28431	0.053
Mof_C 	C 	0.80474	0.18257	0.51109	0.162
Mof_C 	C 	0.64782	0.10412	0.79826	0.003
Mof_C 	C 	0.9563	0.85218	0.15044	0.003
Mof_C 	C 	0.01109	0.20635	0.82852	0.162
Mof_C 	C 	0.27567	0.82443	0.97976	-0.152
Mof_C 	C 	0.65533	0.70409	0.47976	-0.152
Mof_C 	C 	0.20007	0.19115	0.0275	0.144
Mof_C 	C 	0.69526	0.20635	0.37783	0.162
Mof_C 	C 	0.30595	0.3766	0.77587	-0.122
Mof_C 	C 	0.32852	0.01109	0.70635	0.162
Mof_C 	C 	0.36808	0.89435	0.07633	-0.154
Mof_C 	C 	0.85702	0.77952	0.41592	0.054
Mof_C 	C 	0.5437	0.69414	0.89588	0.003
Mof_C 	C 	0.1366	0.83921	0.51751	-0.003
Mof_C 	C 	0.60412	0.4563	0.80586	0.003
Mof_C 	C 	0.82443	0.34467	0.54876	-0.152
Mof_C 	C 	0.95124	0.77567	0.29591	-0.152
Mof_C 	C 	0.0183	0.62833	0.73399	0.053
Mof_C 	C 	0.73399	0.60566	0.21569	0.053
Mof_C 	C 	0.31802	0.02627	0.39435	-0.154
Mof_C 	C 	0.4411	0.58408	0.3636	0.054
Mof_C 	C 	0.67557	0.22433	0.52024	-0.152
Mof_C 	C 	0.1364	0.5775	0.72048	0.054
Mof_C 	C 	0.29993	0.32743	0.99108	0.144
Mof_C 	C 	0.89588	0.70174	0.85218	0.003
Mof_C 	C 	0.30885	0.00892	0.33635	0.144
Mof_C 	C 	0.17148	0.87783	0.68257	0.162
Mof_C 	C 	0.27587	0.30595	0.8766	-0.122
Mof_C 	C 	0.66079	0.29739	0.1783	-0.003
Mof_C 	C 	0.82743	0.0275	0.83635	0.144
Mof_C 	C 	0.22048	0.08408	0.64298	0.054
Mof_C 	C 	0.10565	0.42367	0.13192	-0.154
Mof_C 	C 	0.42367	0.63192	0.60565	-0.154
Mof_C 	C 	0.3728	0.75	0.6272	0.021
Mof_C 	C 	0.20174	0.39588	0.35218	0.003
Mof_C 	C 	0.96992	0.57065	0.69405	-0.122
Mof_C 	C 	0.67148	0.68257	0.87783	0.162
Mof_C 	C 	0.22413	0.10073	0.03008	-0.122
Mof_C 	C 	0.6364	0.72048	0.5775	0.054
Mof_C 	C 	0.03008	0.42935	0.30595	-0.122
Mof_C 	C 	0.39434	0.11003	0.12833	0.053
Mof_C 	C 	0.0775	0.6364	0.22048	0.054
Mof_C 	C 	0.10412	0.29826	0.14782	0.003
Mof_C 	C 	0.14298	0.22048	0.58408	0.054
Mof_C 	C 	0.12833	0.5183	0.23399	0.053
Mof_C 	C 	0.1228	0.8728	0.7456	0.021
Mof_C 	C 	0.8634	0.16079	0.48249	-0.003
Mof_C 	C 	0.8728	0.2456	0.6228	0.021
Mof_C 	C 	0.78431	0.89434	0.26601	0.053
Mof_C 	C 	0.71569	0.9817	0.11003	0.053
Mof_C 	C 	0.12217	0.30474	0.29365	0.162
Mof_C 	C 	0.82852	0.12217	0.31743	0.162
Mof_C 	C 	0.8217	0.61909	0.98249	-0.003
Mof_C 	C 	0.5183	0.73399	0.62833	0.053
Mof_C 	C 	0.98249	0.11909	0.8217	-0.003
Mof_C 	C 	0.67257	0.50892	0.20007	0.144
Mof_C 	C 	0.65044	0.69414	0.79826	0.003
Mof_C 	C 	0.30474	0.79365	0.62217	0.162
Mof_C 	C 	0.87783	0.18257	0.67148	0.162
Mof_C 	C 	0.19414	0.0437	0.39588	0.003
Mof_C 	C 	0.39434	0.28431	0.76601	0.053
Mof_C 	C 	0.8217	0.20261	0.33921	-0.003
Mof_C 	C 	0.48249	0.66079	0.8634	-0.003
Mof_C 	C 	0.97373	0.86808	0.29175	-0.154
Mof_C 	C 	0.66079	0.3634	0.98249	-0.003
Mof_C 	C 	0.78431	0.88997	0.0183	0.053
Mof_C 	C 	0.1234	0.19405	0.72413	-0.122
Mof_C 	C 	0.60412	0.14782	0.29826	0.003
Mof_C 	C 	0.77952	0.91592	0.35702	0.054
Mof_C 	C 	0.6228	0.7456	0.8728	0.021
Mof_C 	C 	0.1272	0.7544	0.3772	0.021
Mof_C 	C 	0.51109	0.68257	0.80474	0.162
Mof_C 	C 	0.6783	0.66079	0.79739	-0.003
Mof_C 	C 	0.31743	0.69526	0.98891	0.162
Mof_C 	C 	0.3636	0.27952	0.4225	0.054
Mof_C 	C 	0.91592	0.85702	0.27952	0.054
Mof_C 	C 	0.0437	0.14782	0.84956	0.003
Mof_C 	C 	0.29365	0.80474	0.12217	0.162
Mof_C 	C 	0.58408	0.8636	0.9411	0.054
Mof_C 	C 	0.22413	0.1234	0.69405	-0.122
Mof_C 	C 	0.20409	0.04876	0.72433	-0.152
Mof_C 	C 	0.18257	0.17148	0.37783	0.162
Mof_C 	C 	0.6234	0.89927	0.92935	-0.122
Mof_C 	C 	0.65044	0.9563	0.35218	0.003
Mof_C 	C 	0.72413	0.03008	0.10073	-0.122
Mof_C 	C 	0.19526	0.37783	0.20635	0.162
Mof_C 	C 	0.60565	0.13192	0.42367	-0.154
Mof_C 	C 	0.34956	0.0437	0.64782	0.003
Mof_C 	C 	0.7544	0.8772	0.6272	0.021
Mof_C 	C 	0.39588	0.85218	0.70174	0.003
Mof_C 	C 	0.0183	0.38997	0.78431	0.053
Mof_C 	C 	0.3772	0.1228	0.75	0.021
Mof_C 	C 	0.28431	0.0183	0.88997	0.053
Mof_C 	C 	0.00892	0.83635	0.80885	0.144
Mof_C 	C 	0.34467	0.04876	0.32443	-0.152
Mof_C 	C 	0.70409	0.72433	0.04876	-0.152
Mof_C 	C 	0.11909	0.3217	0.48249	-0.003
Mof_C 	C 	0.85702	0.0775	0.9411	0.054
Mof_C 	C 	0.20635	0.32852	0.51109	0.162
Mof_C 	C 	0.20174	0.80586	0.34956	0.003
Mof_C 	C 	0.1783	0.79739	0.66079	-0.003
Mof_C 	C 	0.81802	0.39435	0.02627	-0.154
Mof_C 	C 	0.21569	0.10566	0.73399	0.053
Mof_C 	C 	0.27567	0.45124	0.79591	-0.152
Mof_C 	C 	0.10073	0.57065	0.8766	-0.122
Mof_C 	C 	0.70007	0.67257	0.00892	0.144
Mof_C 	C 	0.68198	0.70825	0.57633	-0.154
Mof_C 	C 	0.26601	0.87167	0.9817	0.053
Mof_C 	C 	0.17557	0.65533	0.45124	-0.152
Mof_C 	C 	0.30586	0.70174	0.84956	0.003
Mof_C 	C 	0.42935	0.80595	0.53008	-0.122
Mof_C 	C 	0.19405	0.96992	0.07065	-0.122
Mof_C 	C 	0.02024	0.34467	0.79591	-0.152
Mof_C 	C 	0.80586	0.84956	0.70174	0.003
Mof_C 	C 	0.0275	0.33635	0.32743	0.144
Mof_C 	C 	0.12833	0.61003	0.39434	0.053
Mof_C 	C 	0.62833	0.23399	0.5183	0.053
Mof_C 	C 	0.18198	0.57633	0.70825	-0.154
Mof_C 	C 	0.50892	0.70007	0.17257	0.144
Mof_C 	C 	0.32443	0.77567	0.47976	-0.152
Mof_C 	C 	0.38997	0.28431	0.5183	0.053
Mof_C 	C 	0.12217	0.81743	0.32852	0.162
Mof_C 	C 	0.72413	0.69405	0.1234	-0.122
Mof_C 	C 	0.51109	0.82852	0.20635	0.162
Mof_C 	C 	0.26601	0.39434	0.78431	0.053
Mof_C 	C 	0.4563	0.15044	0.85218	0.003
Mof_C 	C 	0.9725	0.30885	0.79993	0.144
Mof_C 	C 	0.49108	0.29993	0.82743	0.144
Mof_C 	C 	0.1364	0.5589	0.91592	0.054
Mof_C 	C 	0.87783	0.69526	0.70635	0.162
Mof_C 	C 	0.39927	0.27587	0.46992	-0.122
Mof_C 	C 	0.14298	0.9225	0.0589	0.054
Mof_C 	C 	0.83921	0.01751	0.6366	-0.003
Mof_C 	C 	0.52024	0.72433	0.67557	-0.152
Mof_C 	C 	0.8636	0.4225	0.27952	0.054
Mof_C 	C 	0.19115	0.66365	0.99108	0.144
Mof_C 	C 	0.37167	0.76601	0.4817	0.053
Mof_C 	C 	0.70635	0.51109	0.32852	0.162
Mof_C 	C 	0.60566	0.71569	0.23399	0.053
Mof_C 	C 	0.16365	0.4725	0.17257	0.144
Mof_C 	C 	0.64298	0.0589	0.9225	0.054
Mof_C 	C 	0.96992	0.39927	0.77587	-0.122
Mof_C 	C 	0.31802	0.29175	0.42367	-0.154
Mof_C 	C 	0.60566	0.88997	0.87167	0.053
Mof_C 	C 	0.9817	0.61003	0.21569	0.053
Mof_C 	C 	0.22433	0.02024	0.17557	-0.152
Mof_C 	C 	0.4411	0.85702	0.5775	0.054
Mof_C 	C 	0.98891	0.79365	0.17148	0.162
Mof_C 	C 	0.22433	0.20409	0.54876	-0.152
Mof_C 	C 	0.62217	0.32852	0.81743	0.162
Mof_C 	C 	0.4817	0.21569	0.61003	0.053
Mof_C 	C 	0.69414	0.39588	0.0437	0.003
Mof_C 	C 	0.29175	0.36808	0.97373	-0.154
Mof_C 	C 	0.23399	0.21569	0.60566	0.053
Mof_C 	C 	0.1228	0.25	0.8772	0.021
Mof_C 	C 	0.53008	0.22413	0.60073	-0.122
Mof_C 	C 	0.4725	0.79993	0.30885	0.144
Mof_C 	C 	0.10565	0.68198	0.47373	-0.154
Mof_C 	C 	0.00892	0.17257	0.70007	0.144
Mof_C 	C 	0.70825	0.07633	0.18198	-0.154
Mof_C 	C 	0.61003	0.89434	0.62833	0.053
Mof_C 	C 	0.69405	0.07065	0.96992	-0.122
Mof_C 	C 	0.6272	0.25	0.3728	0.021
Mof_C 	C 	0.16079	0.1783	0.29739	-0.003
Mof_C 	C 	0.79175	0.97373	0.36808	-0.154
Mof_C 	C 	0.47373	0.29175	0.86808	-0.154
Mof_C 	C 	0.77567	0.97976	0.82443	-0.152
Mof_C 	C 	0.8766	0.07065	0.10073	-0.122
Mof_C 	C 	0.9817	0.37167	0.26601	0.053
Mof_C 	C 	0.70174	0.35218	0.39588	0.003
Mof_C 	C 	0.99108	0.16365	0.19115	0.144
Mof_C 	C 	0.3772	0.2544	0.1272	0.021
Mof_C 	C 	0.27952	0.9225	0.8636	0.054
Mof_C 	C 	0.3728	0.6228	0.2456	0.021
Mof_C 	C 	0.6783	0.01751	0.38091	-0.003
Mof_C 	C 	0.18198	0.60565	0.97373	-0.154
Mof_C 	C 	0.80595	0.77587	0.3766	-0.122
Mof_C 	C 	0.33635	0.82743	0.5275	0.144
Mof_C 	C 	0.66365	0.49108	0.69115	0.144
Mof_C 	C 	0.6366	0.11909	0.29739	-0.003
Mof_C 	C 	0.73399	0.12833	0.0183	0.053
Mof_C 	C 	0.52024	0.79591	0.34467	-0.152
Mof_C 	C 	0.29175	0.92367	0.81802	-0.154
Mof_C 	C 	0.67557	0.45124	0.65533	-0.152
Mof_C 	C 	0.15533	0.47976	0.70409	-0.152
Mof_C 	C 	0.80885	0.4725	0.29993	0.144
Mof_C 	C 	0.91592	0.0589	0.1364	0.054
Mof_C 	C 	0.37783	0.70635	0.69526	0.162
Mof_C 	C 	0.77587	0.89927	0.96992	-0.122
Mof_C 	C 	0.3217	0.98249	0.61909	-0.003
Mof_C 	C 	0.32743	0.83635	0.0275	0.144
Mof_C 	C 	0.54876	0.70409	0.22433	-0.152
Mof_C 	C 	0.29826	0.65044	0.19414	0.003
Mof_C 	C 	0.27952	0.35702	0.91592	0.054
Mof_C 	C 	0.03008	0.60073	0.22413	-0.122
Mof_N 	N 	0.8085	0.6555	0.96214	-0.274
Mof_N 	N 	0.84636	0.03786	0.69336	-0.274
Mof_N 	N 	0.25802	0.32544	0.51736	-0.104
Mof_N 	N 	0.79666	0.64699	0.43823	-0.128
Mof_N 	N 	0.3445	0.80664	0.153	-0.274
Mof_N 	N 	0.847	0.69336	0.6555	-0.274
Mof_N 	N 	0.46214	0.8085	0.1555	-0.274
Mof_N 	N 	0.79051	0.25913	0.45034	-0.129
Mof_N 	N 	0.43258	0.67456	0.19192	-0.104
Mof_N 	N 	0.64699	0.93823	0.29666	-0.128
Mof_N 	N 	0.25913	0.30879	0.46862	-0.129
Mof_N 	N 	0.56177	0.70876	0.85843	-0.128
Mof_N 	N 	0.14967	0.79124	0.35301	-0.128
Mof_N 	N 	0.51736	0.82544	0.25802	-0.104
Mof_N 	N 	0.19336	0.84636	0.53786	-0.274
Mof_N 	N 	0.70334	0.56177	0.35301	-0.128
Mof_N 	N 	0.85843	0.64967	0.79666	-0.128
Mof_N 	N 	0.25934	0.74198	0.56742	-0.104
Mof_N 	N 	0.8445	0.6915	0.53786	-0.274
Mof_N 	N 	0.19121	0.95034	0.65983	-0.129
Mof_N 	N 	0.65364	0.30664	0.96214	-0.274
Mof_N 	N 	0.74066	0.48264	0.80808	-0.104
Mof_N 	N 	0.29666	0.43823	0.64699	-0.128
Mof_N 	N 	0.06177	0.20334	0.85301	-0.128
Mof_N 	N 	0.70949	0.54966	0.74087	-0.129
Mof_N 	N 	0.20876	0.14699	0.35033	-0.128
Mof_N 	N 	0.01736	0.25802	0.82544	-0.104
Mof_N 	N 	0.20876	0.06177	0.35843	-0.128
Mof_N 	N 	0.30808	0.74066	0.98264	-0.104
Mof_N 	N 	0.67456	0.69192	0.93258	-0.104
Mof_N 	N 	0.64157	0.20334	0.35033	-0.128
Mof_N 	N 	0.84017	0.80879	0.54966	-0.129
Mof_N 	N 	0.29124	0.64967	0.85301	-0.128
Mof_N 	N 	0.19192	0.17456	0.43258	-0.104
Mof_N 	N 	0.75913	0.29051	0.95034	-0.129
Mof_N 	N 	0.75934	0.19192	0.51736	-0.104
Mof_N 	N 	0.14157	0.79124	0.43823	-0.128
Mof_N 	N 	0.54966	0.24087	0.20949	-0.129
Mof_N 	N 	0.74198	0.67456	0.48264	-0.104
Mof_N 	N 	0.80879	0.75913	0.96862	-0.129
Mof_N 	N 	0.3085	0.34636	0.153	-0.274
Mof_N 	N 	0.30664	0.8445	0.653	-0.274
Mof_N 	N 	0.17456	0.24198	0.98264	-0.104
Mof_N 	N 	0.74066	0.25802	0.43258	-0.104
Mof_N 	N 	0.15364	0.96214	0.30664	-0.274
Mof_N 	N 	0.24198	0.75934	0.06742	-0.104
Mof_N 	N 	0.34017	0.79051	0.03138	-0.129
Mof_N 	N 	0.70949	0.15983	0.46862	-0.129
Mof_N 	N 	0.3085	0.96214	0.6555	-0.274
Mof_N 	N 	0.65983	0.20949	0.96862	-0.129
Mof_N 	N 	0.98264	0.74198	0.17456	-0.104
Mof_N 	N 	0.04966	0.84017	0.30879	-0.129
Mof_N 	N 	0.14967	0.35843	0.29666	-0.128
Mof_N 	N 	0.93258	0.74066	0.75802	-0.104
Mof_N 	N 	0.85033	0.64157	0.70334	-0.128
Mof_N 	N 	0.30808	0.56742	0.82544	-0.104
Mof_N 	N 	0.79124	0.85301	0.64967	-0.128
Mof_N 	N 	0.80664	0.653	0.8445	-0.274
Mof_N 	N 	0.35843	0.79666	0.64967	-0.128
Mof_N 	N 	0.6555	0.19336	0.847	-0.274
Mof_N 	N 	0.3445	0.53786	0.6915	-0.274
Mof_N 	N 	0.70876	0.35033	0.14699	-0.128
Mof_N 	N 	0.80879	0.04966	0.34017	-0.129
Mof_N 	N 	0.32544	0.30808	0.06742	-0.104
Mof_N 	N 	0.69121	0.03138	0.24087	-0.129
Mof_N 	N 	0.64157	0.43823	0.79124	-0.128
Mof_N 	N 	0.19336	0.347	0.1555	-0.274
Mof_N 	N 	0.69192	0.43258	0.17456	-0.104
Mof_N 	N 	0.69192	0.25934	0.01736	-0.104
Mof_N 	N 	0.19121	0.24087	0.03138	-0.129
Mof_N 	N 	0.46214	0.65364	0.80664	-0.274
Mof_N 	N 	0.46862	0.80879	0.25913	-0.129
Mof_N 	N 	0.79666	0.14967	0.85843	-0.128
Mof_N 	N 	0.15983	0.19121	0.45034	-0.129
Mof_N 	N 	0.79051	0.53138	0.84017	-0.129
Mof_N 	N 	0.14699	0.29666	0.93823	-0.128
Mof_N 	N 	0.85033	0.20876	0.64699	-0.128
Mof_N 	N 	0.51736	0.69192	0.75934	-0.104
Mof_N 	N 	0.48264	0.17456	0.74198	-0.104
Mof_N 	N 	0.347	0.6555	0.69336	-0.274
Mof_N 	N 	0.35033	0.70334	0.64157	-0.128
Mof_N 	N 	0.74087	0.04966	0.70949	-0.129
Mof_N 	N 	0.29051	0.84017	0.53138	-0.129
Mof_N 	N 	0.69336	0.1555	0.347	-0.274
Mof_N 	N 	0.32544	0.01736	0.75802	-0.104
Mof_N 	N 	0.79124	0.93823	0.64157	-0.128
Mof_N 	N 	0.14699	0.85033	0.70876	-0.128
Mof_N 	N 	0.24066	0.80808	0.48264	-0.104
Mof_N 	N 	0.80808	0.82544	0.56742	-0.104
Mof_N 	N 	0.35843	0.56177	0.20876	-0.128
Mof_N 	N 	0.6915	0.65364	0.847	-0.274
Mof_N 	N 	0.93823	0.79666	0.14699	-0.128
Mof_N 	N 	0.1555	0.847	0.19336	-0.274
Mof_N 	N 	0.153	0.30664	0.3445	-0.274
Mof_N 	N 	0.74087	0.69121	0.53138	-0.129
Mof_N 	N 	0.29666	0.85843	0.14967	-0.128
Mof_N 	N 	0.70876	0.35843	0.06177	-0.128
Mof_N 	N 	0.65364	0.347	0.1915	-0.274
Mof_N 	N 	0.347	0.6915	0.15364	-0.274
Mof_N 	N 	0.95034	0.15983	0.69121	-0.129
Mof_N 	N 	0.20949	0.46862	0.15983	-0.129
Mof_N 	N 	0.20334	0.35301	0.56177	-0.128
Mof_N 	N 	0.847	0.15364	0.6915	-0.274
Mof_N 	N 	0.03138	0.29051	0.34017	-0.129
Mof_N 	N 	0.34636	0.69336	0.03786	-0.274
Mof_N 	N 	0.75934	0.56742	0.74198	-0.104
Mof_N 	N 	0.53786	0.1915	0.8445	-0.274
Mof_N 	N 	0.53138	0.34017	0.29051	-0.129
Mof_N 	N 	0.6915	0.03786	0.3445	-0.274
Mof_N 	N 	0.8445	0.153	0.80664	-0.274
Mof_N 	N 	0.54966	0.30879	0.84017	-0.129
Mof_N 	N 	0.43823	0.29124	0.14157	-0.128
Mof_N 	N 	0.48264	0.30808	0.24066	-0.104
Mof_N 	N 	0.24198	0.48264	0.67456	-0.104
Mof_N 	N 	0.24066	0.43258	0.25802	-0.104
Mof_N 	N 	0.96214	0.80664	0.65364	-0.274
Mof_N 	N 	0.96862	0.25913	0.80879	-0.129
Mof_N 	N 	0.45034	0.75913	0.79051	-0.129
Mof_N 	N 	0.69121	0.65983	0.95034	-0.129
Mof_N 	N 	0.80808	0.98264	0.74066	-0.104
Mof_N 	N 	0.29051	0.45034	0.25913	-0.129
Mof_N 	N 	0.43823	0.14699	0.79666	-0.128
Mof_N 	N 	0.64967	0.35301	0.79124	-0.128
Mof_N 	N 	0.46862	0.65983	0.70949	-0.129
Mof_N 	N 	0.84636	0.8085	0.653	-0.274
Mof_N 	N 	0.15364	0.1915	0.347	-0.274
Mof_N 	N 	0.06742	0.25934	0.24198	-0.104
Mof_N 	N 	0.03786	0.8445	0.1915	-0.274
Mof_N 	N 	0.64967	0.29666	0.35843	-0.128
Mof_N 	N 	0.85301	0.70334	0.06177	-0.128
Mof_N 	N 	0.96862	0.70949	0.65983	-0.129
Mof_N 	N 	0.03138	0.74087	0.19121	-0.129
Mof_N 	N 	0.01736	0.75934	0.69192	-0.104
Mof_N 	N 	0.35301	0.29124	0.14967	-0.128
Mof_N 	N 	0.25802	0.93258	0.24066	-0.104
Mof_N 	N 	0.1555	0.3085	0.46214	-0.274
Mof_N 	N 	0.84017	0.03138	0.79051	-0.129
Mof_N 	N 	0.20949	0.74087	0.54966	-0.129
Mof_N 	N 	0.15983	0.96862	0.20949	-0.129
Mof_N 	N 	0.53786	0.34636	0.19336	-0.274
Mof_N 	N 	0.34017	0.54966	0.80879	-0.129
Mof_N 	N 	0.1915	0.3445	0.03786	-0.274
Mof_N 	N 	0.96214	0.1555	0.8085	-0.274
Mof_N 	N 	0.80664	0.15364	0.46214	-0.274
Mof_N 	N 	0.93823	0.14157	0.29124	-0.128
Mof_N 	N 	0.17456	0.93258	0.69192	-0.104
Mof_N 	N 	0.56177	0.85301	0.20334	-0.128
Mof_N 	N 	0.153	0.84636	0.3085	-0.274
Mof_N 	N 	0.30879	0.34017	0.04966	-0.129
Mof_N 	N 	0.65983	0.45034	0.19121	-0.129
Mof_N 	N 	0.95034	0.79051	0.75913	-0.129
Mof_N 	N 	0.75802	0.24066	0.93258	-0.104
Mof_N 	N 	0.14157	0.35033	0.20334	-0.128
Mof_N 	N 	0.03786	0.19336	0.34636	-0.274
Mof_N 	N 	0.70334	0.14157	0.85033	-0.128
Mof_N 	N 	0.93258	0.19192	0.67456	-0.104
Mof_N 	N 	0.8085	0.153	0.34636	-0.274
Mof_N 	N 	0.19192	0.01736	0.25934	-0.104
Mof_N 	N 	0.06177	0.85843	0.70876	-0.128
Mof_N 	N 	0.29124	0.64157	0.93823	-0.128
Mof_N 	N 	0.35301	0.06177	0.70334	-0.128
Mof_N 	N 	0.06742	0.80808	0.32544	-0.104
Mof_N 	N 	0.56742	0.32544	0.80808	-0.104
Mof_N 	N 	0.98264	0.24066	0.30808	-0.104
Mof_N 	N 	0.53138	0.19121	0.74087	-0.129
Mof_N 	N 	0.1915	0.847	0.65364	-0.274
Mof_N 	N 	0.24087	0.53138	0.69121	-0.129
Mof_N 	N 	0.25934	0.51736	0.19192	-0.104
Mof_N 	N 	0.653	0.3085	0.84636	-0.274
Mof_N 	N 	0.43258	0.75802	0.74066	-0.104
Mof_N 	N 	0.82544	0.75802	0.01736	-0.104
Mof_N 	N 	0.74198	0.06742	0.75934	-0.104
Mof_N 	N 	0.82544	0.06742	0.30808	-0.104
Mof_N 	N 	0.34636	0.653	0.8085	-0.274
Mof_N 	N 	0.56742	0.24198	0.25934	-0.104
Mof_N 	N 	0.69336	0.53786	0.84636	-0.274
Mof_N 	N 	0.25913	0.95034	0.29051	-0.129
Mof_N 	N 	0.6555	0.46214	0.3085	-0.274
Mof_N 	N 	0.64699	0.70876	0.85033	-0.128
Mof_N 	N 	0.30879	0.96862	0.75913	-0.129
Mof_N 	N 	0.75802	0.51736	0.32544	-0.104
Mof_N 	N 	0.20334	0.85033	0.14157	-0.128
Mof_N 	N 	0.85843	0.20876	0.56177	-0.128
Mof_N 	N 	0.67456	0.98264	0.24198	-0.104
Mof_N 	N 	0.85301	0.14967	0.29124	-0.128
Mof_N 	N 	0.45034	0.69121	0.15983	-0.129
Mof_N 	N 	0.653	0.3445	0.30664	-0.274
Mof_N 	N 	0.75913	0.46862	0.30879	-0.129
Mof_N 	N 	0.04966	0.20949	0.24087	-0.129
Mof_N 	N 	0.35033	0.64699	0.20876	-0.128
Mof_N 	N 	0.24087	0.70949	0.04966	-0.129
Mof_N 	N 	0.30664	0.46214	0.15364	-0.274
_end
