# CIF file generated by openbabel 3.1.0, see https://openbabel.org
data_I
_chemical_name_common 'image0'
_cell_length_a 29.1115
_cell_length_b 14.3108
_cell_length_c 26.1788
_cell_angle_alpha 90
_cell_angle_beta 101.959
_cell_angle_gamma 90
_space_group_name_H-M_alt 'P 1'
_space_group_name_Hall 'P 1'
loop_
    _symmetry_equiv_pos_as_xyz
    x,y,z
loop_
    _atom_site_label
    _atom_site_type_symbol
    _atom_site_fract_x
    _atom_site_fract_y
    _atom_site_fract_z
    _atom_site_occupancy
    Cd1      Cd       0.62660    0.66132    0.44134    1.000
    Cd2      Cd       0.62927    0.43766    0.36983    1.000
    Cd3      Cd       0.75389    0.37601    0.34833    1.000
    N1       N        0.74326    0.61560    0.45350    1.000
    N2       N        0.69925    0.58380    0.43900    1.000
    N3       N        0.69961    0.50810    0.41130    1.000
    N4       N        0.74403    0.48990    0.40670    1.000
    N5       N        0.79260    0.23060    0.21810    1.000
    O1       O        0.68254    0.79070    0.44057    1.000
    O2       O        0.60721    0.81930    0.42110    1.000
    O3       O        0.64940    0.29420    0.39550    1.000
    O4       O        0.72060    0.25910    0.38210    1.000
    O5       O        0.62869    0.68430    0.52541    1.000
    O6       O        0.70678    0.68020    0.55271    1.000
    O7       O        0.68290    0.56580    0.80350    1.000
    O8       O        0.60810    0.60210    0.78380    1.000
    O9       O        0.60775    0.59850    0.35236    1.000
    O10      O        0.55022    0.65180    0.38800    1.000
    O11      O        0.61009    0.50010    0.45209    1.000
    O12      O        0.55774    0.42140    0.39500    1.000
    O13      O        0.76160    0.27000    0.28480    1.000
    C1       C        0.77060    0.55710    0.43320    1.000
    C2       C        0.82220    0.56770    0.43870    1.000
    H1       H        0.83720    0.50830    0.44750    1.000
    H2       H        0.83390    0.61190    0.46590    1.000
    H3       H        0.82900    0.58960    0.40640    1.000
    C3       C        0.64870    0.84740    0.42840    1.000
    C4       C        0.68170    0.23940    0.39370    1.000
    C5       C        0.65810    0.94870    0.42010    1.000
    C6       C        0.70330    0.98110    0.42240    1.000
    H4       H        0.72850    0.93990    0.42980    1.000
    C7       C        0.71100    0.07440    0.41390    1.000
    H5       H        0.74130    0.09510    0.41420    1.000
    C8       C        0.67450    0.13720    0.40490    1.000
    C9       C        0.62970    0.10520    0.40400    1.000
    H6       H        0.60490    0.14740    0.39860    1.000
    C10      C        0.62090    0.01110    0.41090    1.000
    H7       H        0.59040    0.99020    0.40930    1.000
    C11      C        0.66580    0.67450    0.55980    1.000
    C12      C        0.64740    0.59300    0.77180    1.000
    C13      C        0.66020    0.65240    0.61450    1.000
    C14      C        0.69630    0.60900    0.64870    1.000
    H8       H        0.72370    0.59290    0.63780    1.000
    C15      C        0.69200    0.58930    0.69950    1.000
    H9       H        0.71680    0.56170    0.72270    1.000
    C16      C        0.65090    0.61050    0.71560    1.000
    C17      C        0.61410    0.65070    0.68060    1.000
    H10      H        0.58620    0.66460    0.69110    1.000
    C18      C        0.61850    0.67030    0.63010    1.000
    H11      H        0.59320    0.69570    0.60650    1.000
    C19      C        0.56470    0.62030    0.34950    1.000
    C20      C        0.53090    0.61130    0.29790    1.000
    C21      C        0.54760    0.60790    0.25210    1.000
    H12      H        0.57980    0.60410    0.25360    1.000
    C22      C        0.48330    0.61020    0.29570    1.000
    H13      H        0.47190    0.61100    0.32640    1.000
    C23      C        0.56880    0.46740    0.43650    1.000
    C24      C        0.53290    0.48410    0.46960    1.000
    C25      C        0.54550    0.52770    0.51730    1.000
    H14      H        0.57640    0.54670    0.52930    1.000
    C26      C        0.51240    0.54330    0.54750    1.000
    H15      H        0.52120    0.57290    0.57970    1.000
    C27      C        0.79090    0.28400    0.25800    1.000
    C28      C        0.82440    0.24500    0.18240    1.000
    H16      H        0.80880    0.28040    0.15280    1.000
    H17      H        0.83360    0.18530    0.17090    1.000
    H18      H        0.85180    0.27810    0.20010    1.000
    C29      C        0.75900    0.15300    0.20230    1.000
    H19      H        0.75140    0.12520    0.23280    1.000
    H20      H        0.77280    0.10730    0.18340    1.000
    H21      H        0.73090    0.17730    0.18030    1.000
    O14      O        0.78800    0.29000    0.29200    1.000
    C30      C        0.76800    0.24200    0.25500    1.000
    C31      C        0.78200    0.16300    0.17500    1.000
    H22      H        0.74870    0.15450    0.16490    1.000
    H23      H        0.79670    0.10440    0.18600    1.000
    H24      H        0.79380    0.18630    0.14570    1.000
    C32      C        0.83400    0.28900    0.21500    1.000
    H25      H        0.84410    0.27490    0.18300    1.000
    H26      H        0.85890    0.27590    0.24410    1.000
    H27      H        0.82550    0.35370    0.21510    1.000
    Cd4      Cd       0.12660    0.16132    0.44134    1.000
    Cd5      Cd       0.12927    0.93766    0.36983    1.000
    Cd6      Cd       0.25389    0.87601    0.34833    1.000
    N6       N        0.24326    0.11560    0.45350    1.000
    N7       N        0.19925    0.08380    0.43900    1.000
    N8       N        0.19961    0.00810    0.41130    1.000
    N9       N        0.24403    0.98990    0.40670    1.000
    N10      N        0.29260    0.73060    0.21810    1.000
    O15      O        0.18254    0.29070    0.44057    1.000
    O16      O        0.10721    0.31930    0.42110    1.000
    O17      O        0.14940    0.79420    0.39550    1.000
    O18      O        0.22060    0.75910    0.38210    1.000
    O19      O        0.12869    0.18430    0.52541    1.000
    O20      O        0.20678    0.18020    0.55271    1.000
    O21      O        0.18290    0.06580    0.80350    1.000
    O22      O        0.10810    0.10210    0.78380    1.000
    O23      O        0.10775    0.09850    0.35236    1.000
    O24      O        0.05022    0.15180    0.38800    1.000
    O25      O        0.11009    0.00010    0.45209    1.000
    O26      O        0.05774    0.92140    0.39500    1.000
    O27      O        0.26160    0.77000    0.28480    1.000
    C33      C        0.27060    0.05710    0.43320    1.000
    C34      C        0.32220    0.06770    0.43870    1.000
    H28      H        0.33720    0.00830    0.44750    1.000
    H29      H        0.33390    0.11190    0.46590    1.000
    H30      H        0.32900    0.08960    0.40640    1.000
    C35      C        0.14870    0.34740    0.42840    1.000
    C36      C        0.18170    0.73940    0.39370    1.000
    C37      C        0.15810    0.44870    0.42010    1.000
    C38      C        0.20330    0.48110    0.42240    1.000
    H31      H        0.22850    0.43990    0.42980    1.000
    C39      C        0.21100    0.57440    0.41390    1.000
    H32      H        0.24130    0.59510    0.41420    1.000
    C40      C        0.17450    0.63720    0.40490    1.000
    C41      C        0.12970    0.60520    0.40400    1.000
    H33      H        0.10490    0.64740    0.39860    1.000
    C42      C        0.12090    0.51110    0.41090    1.000
    H34      H        0.09040    0.49020    0.40930    1.000
    C43      C        0.16580    0.17450    0.55980    1.000
    C44      C        0.14740    0.09300    0.77180    1.000
    C45      C        0.16020    0.15240    0.61450    1.000
    C46      C        0.19630    0.10900    0.64870    1.000
    H35      H        0.22370    0.09290    0.63780    1.000
    C47      C        0.19200    0.08930    0.69950    1.000
    H36      H        0.21680    0.06170    0.72270    1.000
    C48      C        0.15090    0.11050    0.71560    1.000
    C49      C        0.11410    0.15070    0.68060    1.000
    H37      H        0.08620    0.16460    0.69110    1.000
    C50      C        0.11850    0.17030    0.63010    1.000
    H38      H        0.09320    0.19570    0.60650    1.000
    C51      C        0.06470    0.12030    0.34950    1.000
    C52      C        0.03090    0.11130    0.29790    1.000
    C53      C        0.04760    0.10790    0.25210    1.000
    H39      H        0.07980    0.10410    0.25360    1.000
    C54      C        0.98330    0.11020    0.29570    1.000
    H40      H        0.97190    0.11100    0.32640    1.000
    C55      C        0.06880    0.96740    0.43650    1.000
    C56      C        0.03290    0.98410    0.46960    1.000
    C57      C        0.04550    0.02770    0.51730    1.000
    H41      H        0.07640    0.04670    0.52930    1.000
    C58      C        0.01240    0.04330    0.54750    1.000
    H42      H        0.02120    0.07290    0.57970    1.000
    C59      C        0.29090    0.78400    0.25800    1.000
    C60      C        0.32440    0.74500    0.18240    1.000
    H43      H        0.30880    0.78040    0.15280    1.000
    H44      H        0.33360    0.68530    0.17090    1.000
    H45      H        0.35180    0.77810    0.20010    1.000
    C61      C        0.25900    0.65300    0.20230    1.000
    H46      H        0.25140    0.62520    0.23280    1.000
    H47      H        0.27280    0.60730    0.18340    1.000
    H48      H        0.23090    0.67730    0.18030    1.000
    O28      O        0.28800    0.79000    0.29200    1.000
    C62      C        0.26800    0.74200    0.25500    1.000
    C63      C        0.28200    0.66300    0.17500    1.000
    H49      H        0.24870    0.65450    0.16490    1.000
    H50      H        0.29670    0.60440    0.18600    1.000
    H51      H        0.29380    0.68630    0.14570    1.000
    C64      C        0.33400    0.78900    0.21500    1.000
    H52      H        0.34410    0.77490    0.18300    1.000
    H53      H        0.35890    0.77590    0.24410    1.000
    H54      H        0.32550    0.85370    0.21510    1.000
    Cd7      Cd       0.37340    0.66132    0.05866    1.000
    Cd8      Cd       0.37073    0.43766    0.13017    1.000
    Cd9      Cd       0.24611    0.37601    0.15167    1.000
    N11      N        0.25674    0.61560    0.04650    1.000
    N12      N        0.30075    0.58380    0.06100    1.000
    N13      N        0.30039    0.50810    0.08870    1.000
    N14      N        0.25597    0.48990    0.09330    1.000
    N15      N        0.20740    0.23060    0.28190    1.000
    O29      O        0.31746    0.79070    0.05943    1.000
    O30      O        0.39279    0.81930    0.07890    1.000
    O31      O        0.35060    0.29420    0.10450    1.000
    O32      O        0.27940    0.25910    0.11790    1.000
    O33      O        0.37131    0.68430    0.97459    1.000
    O34      O        0.29322    0.68020    0.94729    1.000
    O35      O        0.31710    0.56580    0.69650    1.000
    O36      O        0.39190    0.60210    0.71620    1.000
    O37      O        0.39225    0.59850    0.14764    1.000
    O38      O        0.44978    0.65180    0.11200    1.000
    O39      O        0.38991    0.50010    0.04791    1.000
    O40      O        0.44226    0.42140    0.10500    1.000
    O41      O        0.23840    0.27000    0.21520    1.000
    C65      C        0.22940    0.55710    0.06680    1.000
    C66      C        0.17780    0.56770    0.06130    1.000
    H55      H        0.16280    0.50830    0.05250    1.000
    H56      H        0.16610    0.61190    0.03410    1.000
    H57      H        0.17100    0.58960    0.09360    1.000
    C67      C        0.35130    0.84740    0.07160    1.000
    C68      C        0.31830    0.23940    0.10630    1.000
    C69      C        0.34190    0.94870    0.07990    1.000
    C70      C        0.29670    0.98110    0.07760    1.000
    H58      H        0.27150    0.93990    0.07020    1.000
    C71      C        0.28900    0.07440    0.08610    1.000
    H59      H        0.25870    0.09510    0.08580    1.000
    C72      C        0.32550    0.13720    0.09510    1.000
    C73      C        0.37030    0.10520    0.09600    1.000
    H60      H        0.39510    0.14740    0.10140    1.000
    C74      C        0.37910    0.01110    0.08910    1.000
    H61      H        0.40960    0.99020    0.09070    1.000
    C75      C        0.33420    0.67450    0.94020    1.000
    C76      C        0.35260    0.59300    0.72820    1.000
    C77      C        0.33980    0.65240    0.88550    1.000
    C78      C        0.30370    0.60900    0.85130    1.000
    H62      H        0.27630    0.59290    0.86220    1.000
    C79      C        0.30800    0.58930    0.80050    1.000
    H63      H        0.28320    0.56170    0.77730    1.000
    C80      C        0.34910    0.61050    0.78440    1.000
    C81      C        0.38590    0.65070    0.81940    1.000
    H64      H        0.41380    0.66460    0.80890    1.000
    C82      C        0.38150    0.67030    0.86990    1.000
    H65      H        0.40680    0.69570    0.89350    1.000
    C83      C        0.43530    0.62030    0.15050    1.000
    C84      C        0.46910    0.61130    0.20210    1.000
    C85      C        0.45240    0.60790    0.24790    1.000
    H66      H        0.42020    0.60410    0.24640    1.000
    C86      C        0.51670    0.61020    0.20430    1.000
    H67      H        0.52810    0.61100    0.17360    1.000
    C87      C        0.43120    0.46740    0.06350    1.000
    C88      C        0.46710    0.48410    0.03040    1.000
    C89      C        0.45450    0.52770    0.98270    1.000
    H68      H        0.42360    0.54670    0.97070    1.000
    C90      C        0.48760    0.54330    0.95250    1.000
    H69      H        0.47880    0.57290    0.92030    1.000
    C91      C        0.20910    0.28400    0.24200    1.000
    C92      C        0.17560    0.24500    0.31760    1.000
    H70      H        0.19120    0.28040    0.34720    1.000
    H71      H        0.16640    0.18530    0.32910    1.000
    H72      H        0.14820    0.27810    0.29990    1.000
    C93      C        0.24100    0.15300    0.29770    1.000
    H73      H        0.24860    0.12520    0.26720    1.000
    H74      H        0.22720    0.10730    0.31660    1.000
    H75      H        0.26910    0.17730    0.31970    1.000
    O42      O        0.21200    0.29000    0.20800    1.000
    C94      C        0.23200    0.24200    0.24500    1.000
    C95      C        0.21800    0.16300    0.32500    1.000
    H76      H        0.25130    0.15450    0.33510    1.000
    H77      H        0.20330    0.10440    0.31400    1.000
    H78      H        0.20620    0.18630    0.35430    1.000
    C96      C        0.16600    0.28900    0.28500    1.000
    H79      H        0.15590    0.27490    0.31700    1.000
    H80      H        0.14110    0.27590    0.25590    1.000
    H81      H        0.17450    0.35370    0.28490    1.000
    Cd10     Cd       0.87340    0.16132    0.05866    1.000
    Cd11     Cd       0.87073    0.93766    0.13017    1.000
    Cd12     Cd       0.74611    0.87601    0.15167    1.000
    N16      N        0.75674    0.11560    0.04650    1.000
    N17      N        0.80075    0.08380    0.06100    1.000
    N18      N        0.80039    0.00810    0.08870    1.000
    N19      N        0.75597    0.98990    0.09330    1.000
    N20      N        0.70740    0.73060    0.28190    1.000
    O43      O        0.81746    0.29070    0.05943    1.000
    O44      O        0.89279    0.31930    0.07890    1.000
    O45      O        0.85060    0.79420    0.10450    1.000
    O46      O        0.77940    0.75910    0.11790    1.000
    O47      O        0.87131    0.18430    0.97459    1.000
    O48      O        0.79322    0.18020    0.94729    1.000
    O49      O        0.81710    0.06580    0.69650    1.000
    O50      O        0.89190    0.10210    0.71620    1.000
    O51      O        0.89225    0.09850    0.14764    1.000
    O52      O        0.94978    0.15180    0.11200    1.000
    O53      O        0.88991    0.00010    0.04791    1.000
    O54      O        0.94226    0.92140    0.10500    1.000
    O55      O        0.73840    0.77000    0.21520    1.000
    C97      C        0.72940    0.05710    0.06680    1.000
    C98      C        0.67780    0.06770    0.06130    1.000
    H82      H        0.66280    0.00830    0.05250    1.000
    H83      H        0.66610    0.11190    0.03410    1.000
    H84      H        0.67100    0.08960    0.09360    1.000
    C99      C        0.85130    0.34740    0.07160    1.000
    C100     C        0.81830    0.73940    0.10630    1.000
    C101     C        0.84190    0.44870    0.07990    1.000
    C102     C        0.79670    0.48110    0.07760    1.000
    H85      H        0.77150    0.43990    0.07020    1.000
    C103     C        0.78900    0.57440    0.08610    1.000
    H86      H        0.75870    0.59510    0.08580    1.000
    C104     C        0.82550    0.63720    0.09510    1.000
    C105     C        0.87030    0.60520    0.09600    1.000
    H87      H        0.89510    0.64740    0.10140    1.000
    C106     C        0.87910    0.51110    0.08910    1.000
    H88      H        0.90960    0.49020    0.09070    1.000
    C107     C        0.83420    0.17450    0.94020    1.000
    C108     C        0.85260    0.09300    0.72820    1.000
    C109     C        0.83980    0.15240    0.88550    1.000
    C110     C        0.80370    0.10900    0.85130    1.000
    H89      H        0.77630    0.09290    0.86220    1.000
    C111     C        0.80800    0.08930    0.80050    1.000
    H90      H        0.78320    0.06170    0.77730    1.000
    C112     C        0.84910    0.11050    0.78440    1.000
    C113     C        0.88590    0.15070    0.81940    1.000
    H91      H        0.91380    0.16460    0.80890    1.000
    C114     C        0.88150    0.17030    0.86990    1.000
    H92      H        0.90680    0.19570    0.89350    1.000
    C115     C        0.93530    0.12030    0.15050    1.000
    C116     C        0.96910    0.11130    0.20210    1.000
    C117     C        0.95240    0.10790    0.24790    1.000
    H93      H        0.92020    0.10410    0.24640    1.000
    C118     C        0.01670    0.11020    0.20430    1.000
    H94      H        0.02810    0.11100    0.17360    1.000
    C119     C        0.93120    0.96740    0.06350    1.000
    C120     C        0.96710    0.98410    0.03040    1.000
    C121     C        0.95450    0.02770    0.98270    1.000
    H95      H        0.92360    0.04670    0.97070    1.000
    C122     C        0.98760    0.04330    0.95250    1.000
    H96      H        0.97880    0.07290    0.92030    1.000
    C123     C        0.70910    0.78400    0.24200    1.000
    C124     C        0.67560    0.74500    0.31760    1.000
    H97      H        0.69120    0.78040    0.34720    1.000
    H98      H        0.66640    0.68530    0.32910    1.000
    H99      H        0.64820    0.77810    0.29990    1.000
    C125     C        0.74100    0.65300    0.29770    1.000
    H100     H        0.74860    0.62520    0.26720    1.000
    H101     H        0.72720    0.60730    0.31660    1.000
    H102     H        0.76910    0.67730    0.31970    1.000
    O56      O        0.71200    0.79000    0.20800    1.000
    C126     C        0.73200    0.74200    0.24500    1.000
    C127     C        0.71800    0.66300    0.32500    1.000
    H103     H        0.75130    0.65450    0.33510    1.000
    H104     H        0.70330    0.60440    0.31400    1.000
    H105     H        0.70620    0.68630    0.35430    1.000
    C128     C        0.66600    0.78900    0.28500    1.000
    H106     H        0.65590    0.77490    0.31700    1.000
    H107     H        0.64110    0.77590    0.25590    1.000
    H108     H        0.67450    0.85370    0.28490    1.000
    Cd13     Cd       0.37340    0.33868    0.55866    1.000
    Cd14     Cd       0.37073    0.56234    0.63017    1.000
    Cd15     Cd       0.24611    0.62399    0.65167    1.000
    N21      N        0.25674    0.38440    0.54650    1.000
    N22      N        0.30075    0.41620    0.56100    1.000
    N23      N        0.30039    0.49190    0.58870    1.000
    N24      N        0.25597    0.51010    0.59330    1.000
    N25      N        0.20740    0.76940    0.78190    1.000
    O57      O        0.31746    0.20930    0.55943    1.000
    O58      O        0.39279    0.18070    0.57890    1.000
    O59      O        0.35060    0.70580    0.60450    1.000
    O60      O        0.27940    0.74090    0.61790    1.000
    O61      O        0.37131    0.31570    0.47459    1.000
    O62      O        0.29322    0.31980    0.44729    1.000
    O63      O        0.31710    0.43420    0.19650    1.000
    O64      O        0.39190    0.39790    0.21620    1.000
    O65      O        0.39225    0.40150    0.64764    1.000
    O66      O        0.44978    0.34820    0.61200    1.000
    O67      O        0.38991    0.49990    0.54791    1.000
    O68      O        0.44226    0.57860    0.60500    1.000
    O69      O        0.23840    0.73000    0.71520    1.000
    C129     C        0.22940    0.44290    0.56680    1.000
    C130     C        0.17780    0.43230    0.56130    1.000
    H109     H        0.16280    0.49170    0.55250    1.000
    H110     H        0.16610    0.38810    0.53410    1.000
    H111     H        0.17100    0.41040    0.59360    1.000
    C131     C        0.35130    0.15260    0.57160    1.000
    C132     C        0.31830    0.76060    0.60630    1.000
    C133     C        0.34190    0.05130    0.57990    1.000
    C134     C        0.29670    0.01890    0.57760    1.000
    H112     H        0.27150    0.06010    0.57020    1.000
    C135     C        0.28900    0.92560    0.58610    1.000
    H113     H        0.25870    0.90490    0.58580    1.000
    C136     C        0.32550    0.86280    0.59510    1.000
    C137     C        0.37030    0.89480    0.59600    1.000
    H114     H        0.39510    0.85260    0.60140    1.000
    C138     C        0.37910    0.98890    0.58910    1.000
    H115     H        0.40960    0.00980    0.59070    1.000
    C139     C        0.33420    0.32550    0.44020    1.000
    C140     C        0.35260    0.40700    0.22820    1.000
    C141     C        0.33980    0.34760    0.38550    1.000
    C142     C        0.30370    0.39100    0.35130    1.000
    H116     H        0.27630    0.40710    0.36220    1.000
    C143     C        0.30800    0.41070    0.30050    1.000
    H117     H        0.28320    0.43830    0.27730    1.000
    C144     C        0.34910    0.38950    0.28440    1.000
    C145     C        0.38590    0.34930    0.31940    1.000
    H118     H        0.41380    0.33540    0.30890    1.000
    C146     C        0.38150    0.32970    0.36990    1.000
    H119     H        0.40680    0.30430    0.39350    1.000
    C147     C        0.43530    0.37970    0.65050    1.000
    C148     C        0.46910    0.38870    0.70210    1.000
    C149     C        0.45240    0.39210    0.74790    1.000
    H120     H        0.42020    0.39590    0.74640    1.000
    C150     C        0.51670    0.38980    0.70430    1.000
    H121     H        0.52810    0.38900    0.67360    1.000
    C151     C        0.43120    0.53260    0.56350    1.000
    C152     C        0.46710    0.51590    0.53040    1.000
    C153     C        0.45450    0.47230    0.48270    1.000
    H122     H        0.42360    0.45330    0.47070    1.000
    C154     C        0.48760    0.45670    0.45250    1.000
    H123     H        0.47880    0.42710    0.42030    1.000
    C155     C        0.20910    0.71600    0.74200    1.000
    C156     C        0.17560    0.75500    0.81760    1.000
    H124     H        0.19120    0.71960    0.84720    1.000
    H125     H        0.16640    0.81470    0.82910    1.000
    H126     H        0.14820    0.72190    0.79990    1.000
    C157     C        0.24100    0.84700    0.79770    1.000
    H127     H        0.24860    0.87480    0.76720    1.000
    H128     H        0.22720    0.89270    0.81660    1.000
    H129     H        0.26910    0.82270    0.81970    1.000
    O70      O        0.21200    0.71000    0.70800    1.000
    C158     C        0.23200    0.75800    0.74500    1.000
    C159     C        0.21800    0.83700    0.82500    1.000
    H130     H        0.25130    0.84550    0.83510    1.000
    H131     H        0.20330    0.89560    0.81400    1.000
    H132     H        0.20620    0.81370    0.85430    1.000
    C160     C        0.16600    0.71100    0.78500    1.000
    H133     H        0.15590    0.72510    0.81700    1.000
    H134     H        0.14110    0.72410    0.75590    1.000
    H135     H        0.17450    0.64630    0.78490    1.000
    Cd16     Cd       0.87340    0.83868    0.55866    1.000
    Cd17     Cd       0.87073    0.06234    0.63017    1.000
    Cd18     Cd       0.74611    0.12399    0.65167    1.000
    N26      N        0.75674    0.88440    0.54650    1.000
    N27      N        0.80075    0.91620    0.56100    1.000
    N28      N        0.80039    0.99190    0.58870    1.000
    N29      N        0.75597    0.01010    0.59330    1.000
    N30      N        0.70740    0.26940    0.78190    1.000
    O71      O        0.81746    0.70930    0.55943    1.000
    O72      O        0.89279    0.68070    0.57890    1.000
    O73      O        0.85060    0.20580    0.60450    1.000
    O74      O        0.77940    0.24090    0.61790    1.000
    O75      O        0.87131    0.81570    0.47459    1.000
    O76      O        0.79322    0.81980    0.44729    1.000
    O77      O        0.81710    0.93420    0.19650    1.000
    O78      O        0.89190    0.89790    0.21620    1.000
    O79      O        0.89225    0.90150    0.64764    1.000
    O80      O        0.94978    0.84820    0.61200    1.000
    O81      O        0.88991    0.99990    0.54791    1.000
    O82      O        0.94226    0.07860    0.60500    1.000
    O83      O        0.73840    0.23000    0.71520    1.000
    C161     C        0.72940    0.94290    0.56680    1.000
    C162     C        0.67780    0.93230    0.56130    1.000
    H136     H        0.66280    0.99170    0.55250    1.000
    H137     H        0.66610    0.88810    0.53410    1.000
    H138     H        0.67100    0.91040    0.59360    1.000
    C163     C        0.85130    0.65260    0.57160    1.000
    C164     C        0.81830    0.26060    0.60630    1.000
    C165     C        0.84190    0.55130    0.57990    1.000
    C166     C        0.79670    0.51890    0.57760    1.000
    H139     H        0.77150    0.56010    0.57020    1.000
    C167     C        0.78900    0.42560    0.58610    1.000
    H140     H        0.75870    0.40490    0.58580    1.000
    C168     C        0.82550    0.36280    0.59510    1.000
    C169     C        0.87030    0.39480    0.59600    1.000
    H141     H        0.89510    0.35260    0.60140    1.000
    C170     C        0.87910    0.48890    0.58910    1.000
    H142     H        0.90960    0.50980    0.59070    1.000
    C171     C        0.83420    0.82550    0.44020    1.000
    C172     C        0.85260    0.90700    0.22820    1.000
    C173     C        0.83980    0.84760    0.38550    1.000
    C174     C        0.80370    0.89100    0.35130    1.000
    H143     H        0.77630    0.90710    0.36220    1.000
    C175     C        0.80800    0.91070    0.30050    1.000
    H144     H        0.78320    0.93830    0.27730    1.000
    C176     C        0.84910    0.88950    0.28440    1.000
    C177     C        0.88590    0.84930    0.31940    1.000
    H145     H        0.91380    0.83540    0.30890    1.000
    C178     C        0.88150    0.82970    0.36990    1.000
    H146     H        0.90680    0.80430    0.39350    1.000
    C179     C        0.93530    0.87970    0.65050    1.000
    C180     C        0.96910    0.88870    0.70210    1.000
    C181     C        0.95240    0.89210    0.74790    1.000
    H147     H        0.92020    0.89590    0.74640    1.000
    C182     C        0.01670    0.88980    0.70430    1.000
    H148     H        0.02810    0.88900    0.67360    1.000
    C183     C        0.93120    0.03260    0.56350    1.000
    C184     C        0.96710    0.01590    0.53040    1.000
    C185     C        0.95450    0.97230    0.48270    1.000
    H149     H        0.92360    0.95330    0.47070    1.000
    C186     C        0.98760    0.95670    0.45250    1.000
    H150     H        0.97880    0.92710    0.42030    1.000
    C187     C        0.70910    0.21600    0.74200    1.000
    C188     C        0.67560    0.25500    0.81760    1.000
    H151     H        0.69120    0.21960    0.84720    1.000
    H152     H        0.66640    0.31470    0.82910    1.000
    H153     H        0.64820    0.22190    0.79990    1.000
    C189     C        0.74100    0.34700    0.79770    1.000
    H154     H        0.74860    0.37480    0.76720    1.000
    H155     H        0.72720    0.39270    0.81660    1.000
    H156     H        0.76910    0.32270    0.81970    1.000
    O84      O        0.71200    0.21000    0.70800    1.000
    C190     C        0.73200    0.25800    0.74500    1.000
    C191     C        0.71800    0.33700    0.82500    1.000
    H157     H        0.75130    0.34550    0.83510    1.000
    H158     H        0.70330    0.39560    0.81400    1.000
    H159     H        0.70620    0.31370    0.85430    1.000
    C192     C        0.66600    0.21100    0.78500    1.000
    H160     H        0.65590    0.22510    0.81700    1.000
    H161     H        0.64110    0.22410    0.75590    1.000
    H162     H        0.67450    0.14630    0.78490    1.000
    Cd19     Cd       0.62660    0.33868    0.94134    1.000
    Cd20     Cd       0.62927    0.56234    0.86983    1.000
    Cd21     Cd       0.75389    0.62399    0.84833    1.000
    N31      N        0.74326    0.38440    0.95350    1.000
    N32      N        0.69925    0.41620    0.93900    1.000
    N33      N        0.69961    0.49190    0.91130    1.000
    N34      N        0.74403    0.51010    0.90670    1.000
    N35      N        0.79260    0.76940    0.71810    1.000
    O85      O        0.68254    0.20930    0.94057    1.000
    O86      O        0.60721    0.18070    0.92110    1.000
    O87      O        0.64940    0.70580    0.89550    1.000
    O88      O        0.72060    0.74090    0.88210    1.000
    O89      O        0.62869    0.31570    0.02541    1.000
    O90      O        0.70678    0.31980    0.05271    1.000
    O91      O        0.68290    0.43420    0.30350    1.000
    O92      O        0.60810    0.39790    0.28380    1.000
    O93      O        0.60775    0.40150    0.85236    1.000
    O94      O        0.55022    0.34820    0.88800    1.000
    O95      O        0.61009    0.49990    0.95209    1.000
    O96      O        0.55774    0.57860    0.89500    1.000
    O97      O        0.76160    0.73000    0.78480    1.000
    C193     C        0.77060    0.44290    0.93320    1.000
    C194     C        0.82220    0.43230    0.93870    1.000
    H163     H        0.83720    0.49170    0.94750    1.000
    H164     H        0.83390    0.38810    0.96590    1.000
    H165     H        0.82900    0.41040    0.90640    1.000
    C195     C        0.64870    0.15260    0.92840    1.000
    C196     C        0.68170    0.76060    0.89370    1.000
    C197     C        0.65810    0.05130    0.92010    1.000
    C198     C        0.70330    0.01890    0.92240    1.000
    H166     H        0.72850    0.06010    0.92980    1.000
    C199     C        0.71100    0.92560    0.91390    1.000
    H167     H        0.74130    0.90490    0.91420    1.000
    C200     C        0.67450    0.86280    0.90490    1.000
    C201     C        0.62970    0.89480    0.90400    1.000
    H168     H        0.60490    0.85260    0.89860    1.000
    C202     C        0.62090    0.98890    0.91090    1.000
    H169     H        0.59040    0.00980    0.90930    1.000
    C203     C        0.66580    0.32550    0.05980    1.000
    C204     C        0.64740    0.40700    0.27180    1.000
    C205     C        0.66020    0.34760    0.11450    1.000
    C206     C        0.69630    0.39100    0.14870    1.000
    H170     H        0.72370    0.40710    0.13780    1.000
    C207     C        0.69200    0.41070    0.19950    1.000
    H171     H        0.71680    0.43830    0.22270    1.000
    C208     C        0.65090    0.38950    0.21560    1.000
    C209     C        0.61410    0.34930    0.18060    1.000
    H172     H        0.58620    0.33540    0.19110    1.000
    C210     C        0.61850    0.32970    0.13010    1.000
    H173     H        0.59320    0.30430    0.10650    1.000
    C211     C        0.56470    0.37970    0.84950    1.000
    C212     C        0.53090    0.38870    0.79790    1.000
    C213     C        0.54760    0.39210    0.75210    1.000
    H174     H        0.57980    0.39590    0.75360    1.000
    C214     C        0.48330    0.38980    0.79570    1.000
    H175     H        0.47190    0.38900    0.82640    1.000
    C215     C        0.56880    0.53260    0.93650    1.000
    C216     C        0.53290    0.51590    0.96960    1.000
    C217     C        0.54550    0.47230    0.01730    1.000
    H176     H        0.57640    0.45330    0.02930    1.000
    C218     C        0.51240    0.45670    0.04750    1.000
    H177     H        0.52120    0.42710    0.07970    1.000
    C219     C        0.79090    0.71600    0.75800    1.000
    C220     C        0.82440    0.75500    0.68240    1.000
    H178     H        0.80880    0.71960    0.65280    1.000
    H179     H        0.83360    0.81470    0.67090    1.000
    H180     H        0.85180    0.72190    0.70010    1.000
    C221     C        0.75900    0.84700    0.70230    1.000
    H181     H        0.75140    0.87480    0.73280    1.000
    H182     H        0.77280    0.89270    0.68340    1.000
    H183     H        0.73090    0.82270    0.68030    1.000
    O98      O        0.78800    0.71000    0.79200    1.000
    C222     C        0.76800    0.75800    0.75500    1.000
    C223     C        0.78200    0.83700    0.67500    1.000
    H184     H        0.74870    0.84550    0.66490    1.000
    H185     H        0.79670    0.89560    0.68600    1.000
    H186     H        0.79380    0.81370    0.64570    1.000
    C224     C        0.83400    0.71100    0.71500    1.000
    H187     H        0.84410    0.72510    0.68300    1.000
    H188     H        0.85890    0.72410    0.74410    1.000
    H189     H        0.82550    0.64630    0.71510    1.000
    Cd22     Cd       0.12660    0.83868    0.94134    1.000
    Cd23     Cd       0.12927    0.06234    0.86983    1.000
    Cd24     Cd       0.25389    0.12399    0.84833    1.000
    N36      N        0.24326    0.88440    0.95350    1.000
    N37      N        0.19925    0.91620    0.93900    1.000
    N38      N        0.19961    0.99190    0.91130    1.000
    N39      N        0.24403    0.01010    0.90670    1.000
    N40      N        0.29260    0.26940    0.71810    1.000
    O99      O        0.18254    0.70930    0.94057    1.000
    O100     O        0.10721    0.68070    0.92110    1.000
    O101     O        0.14940    0.20580    0.89550    1.000
    O102     O        0.22060    0.24090    0.88210    1.000
    O103     O        0.12869    0.81570    0.02541    1.000
    O104     O        0.20678    0.81980    0.05271    1.000
    O105     O        0.18290    0.93420    0.30350    1.000
    O106     O        0.10810    0.89790    0.28380    1.000
    O107     O        0.10775    0.90150    0.85236    1.000
    O108     O        0.05022    0.84820    0.88800    1.000
    O109     O        0.11009    0.99990    0.95209    1.000
    O110     O        0.05774    0.07860    0.89500    1.000
    O111     O        0.26160    0.23000    0.78480    1.000
    C225     C        0.27060    0.94290    0.93320    1.000
    C226     C        0.32220    0.93230    0.93870    1.000
    H190     H        0.33720    0.99170    0.94750    1.000
    H191     H        0.33390    0.88810    0.96590    1.000
    H192     H        0.32900    0.91040    0.90640    1.000
    C227     C        0.14870    0.65260    0.92840    1.000
    C228     C        0.18170    0.26060    0.89370    1.000
    C229     C        0.15810    0.55130    0.92010    1.000
    C230     C        0.20330    0.51890    0.92240    1.000
    H193     H        0.22850    0.56010    0.92980    1.000
    C231     C        0.21100    0.42560    0.91390    1.000
    H194     H        0.24130    0.40490    0.91420    1.000
    C232     C        0.17450    0.36280    0.90490    1.000
    C233     C        0.12970    0.39480    0.90400    1.000
    H195     H        0.10490    0.35260    0.89860    1.000
    C234     C        0.12090    0.48890    0.91090    1.000
    H196     H        0.09040    0.50980    0.90930    1.000
    C235     C        0.16580    0.82550    0.05980    1.000
    C236     C        0.14740    0.90700    0.27180    1.000
    C237     C        0.16020    0.84760    0.11450    1.000
    C238     C        0.19630    0.89100    0.14870    1.000
    H197     H        0.22370    0.90710    0.13780    1.000
    C239     C        0.19200    0.91070    0.19950    1.000
    H198     H        0.21680    0.93830    0.22270    1.000
    C240     C        0.15090    0.88950    0.21560    1.000
    C241     C        0.11410    0.84930    0.18060    1.000
    H199     H        0.08620    0.83540    0.19110    1.000
    C242     C        0.11850    0.82970    0.13010    1.000
    H200     H        0.09320    0.80430    0.10650    1.000
    C243     C        0.06470    0.87970    0.84950    1.000
    C244     C        0.03090    0.88870    0.79790    1.000
    C245     C        0.04760    0.89210    0.75210    1.000
    H201     H        0.07980    0.89590    0.75360    1.000
    C246     C        0.98330    0.88980    0.79570    1.000
    H202     H        0.97190    0.88900    0.82640    1.000
    C247     C        0.06880    0.03260    0.93650    1.000
    C248     C        0.03290    0.01590    0.96960    1.000
    C249     C        0.04550    0.97230    0.01730    1.000
    H203     H        0.07640    0.95330    0.02930    1.000
    C250     C        0.01240    0.95670    0.04750    1.000
    H204     H        0.02120    0.92710    0.07970    1.000
    C251     C        0.29090    0.21600    0.75800    1.000
    C252     C        0.32440    0.25500    0.68240    1.000
    H205     H        0.30880    0.21960    0.65280    1.000
    H206     H        0.33360    0.31470    0.67090    1.000
    H207     H        0.35180    0.22190    0.70010    1.000
    C253     C        0.25900    0.34700    0.70230    1.000
    H208     H        0.25140    0.37480    0.73280    1.000
    H209     H        0.27280    0.39270    0.68340    1.000
    H210     H        0.23090    0.32270    0.68030    1.000
    O112     O        0.28800    0.21000    0.79200    1.000
    C254     C        0.26800    0.25800    0.75500    1.000
    C255     C        0.28200    0.33700    0.67500    1.000
    H211     H        0.24870    0.34550    0.66490    1.000
    H212     H        0.29670    0.39560    0.68600    1.000
    H213     H        0.29380    0.31370    0.64570    1.000
    C256     C        0.33400    0.21100    0.71500    1.000
    H214     H        0.34410    0.22510    0.68300    1.000
    H215     H        0.35890    0.22410    0.74410    1.000
    H216     H        0.32550    0.14630    0.71510    1.000
    Cd25     Cd       0.75000    0.75000    0.50000    1.000
    Cd26     Cd       0.25000    0.75000    0.00000    1.000
    Cd27     Cd       0.25000    0.25000    0.50000    1.000
    Cd28     Cd       0.75000    0.25000    0.00000    1.000
