# CIF file generated by openbabel 3.1.0, see https://openbabel.org
data_I
_chemical_name_common 'OFIWIK_charged'
_cell_length_a 9.0655
_cell_length_b 16.7679
_cell_length_c 16.7679
_cell_angle_alpha 90
_cell_angle_beta 90
_cell_angle_gamma 90
_space_group_name_H-M_alt 'P 1'
_space_group_name_Hall 'P 1'
loop_
    _symmetry_equiv_pos_as_xyz
    x,y,z
loop_
    _atom_site_label
    _atom_site_type_symbol
    _atom_site_fract_x
    _atom_site_fract_y
    _atom_site_fract_z
    _atom_site_occupancy
    Zn1      Zn       0.83266    0.08325    0.21380    1.000
    Zn2      Zn       0.83266    0.91675    0.78620    1.000
    Zn3      Zn       0.83266    0.78620    0.08325    1.000
    Zn4      Zn       0.83266    0.21380    0.91675    1.000
    Zn5      Zn       0.33266    0.08325    0.78620    1.000
    Zn6      Zn       0.33266    0.91675    0.21380    1.000
    Zn7      Zn       0.33266    0.78620    0.91675    1.000
    Zn8      Zn       0.33266    0.21380    0.08325    1.000
    Zn9      Zn       0.10106    0.00000    0.50000    1.000
    Zn10     Zn       0.10106    0.50000    0.00000    1.000
    Zn11     Zn       0.60106    0.00000    0.50000    1.000
    Zn12     Zn       0.60106    0.50000    0.00000    1.000
    P1       P        0.84630    0.09681    0.40512    1.000
    P2       P        0.00374    0.92832    0.16038    1.000
    P3       P        0.84630    0.90319    0.59488    1.000
    P4       P        0.00374    0.07168    0.83962    1.000
    P5       P        0.84630    0.59488    0.09681    1.000
    P6       P        0.00374    0.83962    0.92832    1.000
    P7       P        0.84630    0.40512    0.90319    1.000
    P8       P        0.00374    0.16038    0.07168    1.000
    P9       P        0.34630    0.09681    0.59488    1.000
    P10      P        0.50374    0.92832    0.83962    1.000
    P11      P        0.34630    0.90319    0.40512    1.000
    P12      P        0.50374    0.07168    0.16038    1.000
    P13      P        0.34630    0.59488    0.90319    1.000
    P14      P        0.50374    0.83962    0.07168    1.000
    P15      P        0.34630    0.40512    0.09681    1.000
    P16      P        0.50374    0.16038    0.92832    1.000
    H1       H        0.02900    0.96100    0.08900    1.000
    H2       H        0.80000    0.16300    0.43600    1.000
    H3       H        0.02900    0.03900    0.91100    1.000
    H4       H        0.80000    0.83700    0.56400    1.000
    H5       H        0.02900    0.91100    0.96100    1.000
    H6       H        0.80000    0.56400    0.16300    1.000
    H7       H        0.02900    0.08900    0.03900    1.000
    H8       H        0.80000    0.43600    0.83700    1.000
    H9       H        0.52900    0.96100    0.91100    1.000
    H10      H        0.30000    0.16300    0.56400    1.000
    H11      H        0.52900    0.03900    0.08900    1.000
    H12      H        0.30000    0.83700    0.43600    1.000
    H13      H        0.52900    0.91100    0.03900    1.000
    H14      H        0.30000    0.56400    0.83700    1.000
    H15      H        0.52900    0.08900    0.96100    1.000
    H16      H        0.30000    0.43600    0.16300    1.000
    O1       O        0.97350    0.99310    0.21530    1.000
    O2       O        0.87300    0.86670    0.15600    1.000
    O3       O        0.13020    0.95680    0.21240    1.000
    O4       O        0.98400    0.08280    0.45480    1.000
    O5       O        0.88340    0.11700    0.32020    1.000
    O6       O        0.73150    0.03170    0.41260    1.000
    O7       O        0.97350    0.00690    0.78470    1.000
    O8       O        0.87300    0.13330    0.84400    1.000
    O9       O        0.13020    0.04320    0.78760    1.000
    O10      O        0.98400    0.91720    0.54520    1.000
    O11      O        0.88340    0.88300    0.67980    1.000
    O12      O        0.73150    0.96830    0.58740    1.000
    O13      O        0.97350    0.78470    0.99310    1.000
    O14      O        0.87300    0.84400    0.86670    1.000
    O15      O        0.13020    0.78760    0.95680    1.000
    O16      O        0.98400    0.54520    0.08280    1.000
    O17      O        0.88340    0.67980    0.11700    1.000
    O18      O        0.73150    0.58740    0.03170    1.000
    O19      O        0.97350    0.21530    0.00690    1.000
    O20      O        0.87300    0.15600    0.13330    1.000
    O21      O        0.13020    0.21240    0.04320    1.000
    O22      O        0.98400    0.45480    0.91720    1.000
    O23      O        0.88340    0.32020    0.88300    1.000
    O24      O        0.73150    0.41260    0.96830    1.000
    O25      O        0.47350    0.99310    0.78470    1.000
    O26      O        0.37300    0.86670    0.84400    1.000
    O27      O        0.63020    0.95680    0.78760    1.000
    O28      O        0.48400    0.08280    0.54520    1.000
    O29      O        0.38340    0.11700    0.67980    1.000
    O30      O        0.23150    0.03170    0.58740    1.000
    O31      O        0.47350    0.00690    0.21530    1.000
    O32      O        0.37300    0.13330    0.15600    1.000
    O33      O        0.63020    0.04320    0.21240    1.000
    O34      O        0.48400    0.91720    0.45480    1.000
    O35      O        0.38340    0.88300    0.32020    1.000
    O36      O        0.23150    0.96830    0.41260    1.000
    O37      O        0.47350    0.78470    0.00690    1.000
    O38      O        0.37300    0.84400    0.13330    1.000
    O39      O        0.63020    0.78760    0.04320    1.000
    O40      O        0.48400    0.54520    0.91720    1.000
    O41      O        0.38340    0.67980    0.88300    1.000
    O42      O        0.23150    0.58740    0.96830    1.000
    O43      O        0.47350    0.21530    0.99310    1.000
    O44      O        0.37300    0.15600    0.86670    1.000
    O45      O        0.63020    0.21240    0.95680    1.000
    O46      O        0.48400    0.45480    0.08280    1.000
    O47      O        0.38340    0.32020    0.11700    1.000
    O48      O        0.23150    0.41260    0.03170    1.000
    H17      H        0.97770    0.32150    0.17610    1.000
    H18      H        0.93030    0.39830    0.13050    1.000
    H19      H        0.72860    0.39340    0.16150    1.000
    H20      H        0.60880    0.28940    0.12320    1.000
    H21      H        0.70900    0.33110    0.07000    1.000
    H22      H        0.75230    0.25530    0.10490    1.000
    H23      H        0.66940    0.29170    0.27410    1.000
    H24      H        0.58060    0.36380    0.23980    1.000
    H25      H        0.07000    0.40020    0.25530    1.000
    H26      H        0.97340    0.47140    0.22590    1.000
    H27      H        0.89650    0.46760    0.34440    1.000
    H28      H        0.93530    0.37750    0.35530    1.000
    H29      H        0.71050    0.37090    0.36620    1.000
    H30      H        0.68240    0.44580    0.31340    1.000
    C1       C        0.91540    0.36840    0.17940    1.000
    C2       C        0.76550    0.34170    0.18000    1.000
    C3       C        0.67890    0.34540    0.25320    1.000
    C4       C        0.96940    0.41660    0.24420    1.000
    C5       C        0.88770    0.41540    0.32000    1.000
    C6       C        0.73640    0.39590    0.31590    1.000
    N1       N        0.70300    0.30050    0.11320    1.000
    H31      H        0.97770    0.67850    0.82390    1.000
    H32      H        0.93030    0.60170    0.86950    1.000
    H33      H        0.72860    0.60660    0.83850    1.000
    H34      H        0.60880    0.71060    0.87680    1.000
    H35      H        0.70900    0.66890    0.93000    1.000
    H36      H        0.75230    0.74470    0.89510    1.000
    H37      H        0.66940    0.70830    0.72590    1.000
    H38      H        0.58060    0.63620    0.76020    1.000
    H39      H        0.07000    0.59980    0.74470    1.000
    H40      H        0.97340    0.52860    0.77410    1.000
    H41      H        0.89650    0.53240    0.65560    1.000
    H42      H        0.93530    0.62250    0.64470    1.000
    H43      H        0.71050    0.62910    0.63380    1.000
    H44      H        0.68240    0.55420    0.68660    1.000
    C7       C        0.91540    0.63160    0.82060    1.000
    C8       C        0.76550    0.65830    0.82000    1.000
    C9       C        0.67890    0.65460    0.74680    1.000
    C10      C        0.96940    0.58340    0.75580    1.000
    C11      C        0.88770    0.58460    0.68000    1.000
    C12      C        0.73640    0.60410    0.68410    1.000
    N2       N        0.70300    0.69950    0.88680    1.000
    H45      H        0.97770    0.82390    0.32150    1.000
    H46      H        0.93030    0.86950    0.39830    1.000
    H47      H        0.72860    0.83850    0.39340    1.000
    H48      H        0.60880    0.87680    0.28940    1.000
    H49      H        0.70900    0.93000    0.33110    1.000
    H50      H        0.75230    0.89510    0.25530    1.000
    H51      H        0.66940    0.72590    0.29170    1.000
    H52      H        0.58060    0.76020    0.36380    1.000
    H53      H        0.07000    0.74470    0.40020    1.000
    H54      H        0.97340    0.77410    0.47140    1.000
    H55      H        0.89650    0.65560    0.46760    1.000
    H56      H        0.93530    0.64470    0.37750    1.000
    H57      H        0.71050    0.63380    0.37090    1.000
    H58      H        0.68240    0.68660    0.44580    1.000
    C13      C        0.91540    0.82060    0.36840    1.000
    C14      C        0.76550    0.82000    0.34170    1.000
    C15      C        0.67890    0.74680    0.34540    1.000
    C16      C        0.96940    0.75580    0.41660    1.000
    C17      C        0.88770    0.68000    0.41540    1.000
    C18      C        0.73640    0.68410    0.39590    1.000
    N3       N        0.70300    0.88680    0.30050    1.000
    H59      H        0.97770    0.17610    0.67850    1.000
    H60      H        0.93030    0.13050    0.60170    1.000
    H61      H        0.72860    0.16150    0.60660    1.000
    H62      H        0.60880    0.12320    0.71060    1.000
    H63      H        0.70900    0.07000    0.66890    1.000
    H64      H        0.75230    0.10490    0.74470    1.000
    H65      H        0.66940    0.27410    0.70830    1.000
    H66      H        0.58060    0.23980    0.63620    1.000
    H67      H        0.07000    0.25530    0.59980    1.000
    H68      H        0.97340    0.22590    0.52860    1.000
    H69      H        0.89650    0.34440    0.53240    1.000
    H70      H        0.93530    0.35530    0.62250    1.000
    H71      H        0.71050    0.36620    0.62910    1.000
    H72      H        0.68240    0.31340    0.55420    1.000
    C19      C        0.91540    0.17940    0.63160    1.000
    C20      C        0.76550    0.18000    0.65830    1.000
    C21      C        0.67890    0.25320    0.65460    1.000
    C22      C        0.96940    0.24420    0.58340    1.000
    C23      C        0.88770    0.32000    0.58460    1.000
    C24      C        0.73640    0.31590    0.60410    1.000
    N4       N        0.70300    0.11320    0.69950    1.000
    H73      H        0.47770    0.32150    0.82390    1.000
    H74      H        0.43030    0.39830    0.86950    1.000
    H75      H        0.22860    0.39340    0.83850    1.000
    H76      H        0.10880    0.28940    0.87680    1.000
    H77      H        0.20900    0.33110    0.93000    1.000
    H78      H        0.25230    0.25530    0.89510    1.000
    H79      H        0.16940    0.29170    0.72590    1.000
    H80      H        0.08060    0.36380    0.76020    1.000
    H81      H        0.57000    0.40020    0.74470    1.000
    H82      H        0.47340    0.47140    0.77410    1.000
    H83      H        0.39650    0.46760    0.65560    1.000
    H84      H        0.43530    0.37750    0.64470    1.000
    H85      H        0.21050    0.37090    0.63380    1.000
    H86      H        0.18240    0.44580    0.68660    1.000
    C25      C        0.41540    0.36840    0.82060    1.000
    C26      C        0.26550    0.34170    0.82000    1.000
    C27      C        0.17890    0.34540    0.74680    1.000
    C28      C        0.46940    0.41660    0.75580    1.000
    C29      C        0.38770    0.41540    0.68000    1.000
    C30      C        0.23640    0.39590    0.68410    1.000
    N5       N        0.20300    0.30050    0.88680    1.000
    H87      H        0.47770    0.67850    0.17610    1.000
    H88      H        0.43030    0.60170    0.13050    1.000
    H89      H        0.22860    0.60660    0.16150    1.000
    H90      H        0.10880    0.71060    0.12320    1.000
    H91      H        0.20900    0.66890    0.07000    1.000
    H92      H        0.25230    0.74470    0.10490    1.000
    H93      H        0.16940    0.70830    0.27410    1.000
    H94      H        0.08060    0.63620    0.23980    1.000
    H95      H        0.57000    0.59980    0.25530    1.000
    H96      H        0.47340    0.52860    0.22590    1.000
    H97      H        0.39650    0.53240    0.34440    1.000
    H98      H        0.43530    0.62250    0.35530    1.000
    H99      H        0.21050    0.62910    0.36620    1.000
    H100     H        0.18240    0.55420    0.31340    1.000
    C31      C        0.41540    0.63160    0.17940    1.000
    C32      C        0.26550    0.65830    0.18000    1.000
    C33      C        0.17890    0.65460    0.25320    1.000
    C34      C        0.46940    0.58340    0.24420    1.000
    C35      C        0.38770    0.58460    0.32000    1.000
    C36      C        0.23640    0.60410    0.31590    1.000
    N6       N        0.20300    0.69950    0.11320    1.000
    H101     H        0.47770    0.82390    0.67850    1.000
    H102     H        0.43030    0.86950    0.60170    1.000
    H103     H        0.22860    0.83850    0.60660    1.000
    H104     H        0.10880    0.87680    0.71060    1.000
    H105     H        0.20900    0.93000    0.66890    1.000
    H106     H        0.25230    0.89510    0.74470    1.000
    H107     H        0.16940    0.72590    0.70830    1.000
    H108     H        0.08060    0.76020    0.63620    1.000
    H109     H        0.57000    0.74470    0.59980    1.000
    H110     H        0.47340    0.77410    0.52860    1.000
    H111     H        0.39650    0.65560    0.53240    1.000
    H112     H        0.43530    0.64470    0.62250    1.000
    H113     H        0.21050    0.63380    0.62910    1.000
    H114     H        0.18240    0.68660    0.55420    1.000
    C37      C        0.41540    0.82060    0.63160    1.000
    C38      C        0.26550    0.82000    0.65830    1.000
    C39      C        0.17890    0.74680    0.65460    1.000
    C40      C        0.46940    0.75580    0.58340    1.000
    C41      C        0.38770    0.68000    0.58460    1.000
    C42      C        0.23640    0.68410    0.60410    1.000
    N7       N        0.20300    0.88680    0.69950    1.000
    H115     H        0.47770    0.17610    0.32150    1.000
    H116     H        0.43030    0.13050    0.39830    1.000
    H117     H        0.22860    0.16150    0.39340    1.000
    H118     H        0.10880    0.12320    0.28940    1.000
    H119     H        0.20900    0.07000    0.33110    1.000
    H120     H        0.25230    0.10490    0.25530    1.000
    H121     H        0.16940    0.27410    0.29170    1.000
    H122     H        0.08060    0.23980    0.36380    1.000
    H123     H        0.57000    0.25530    0.40020    1.000
    H124     H        0.47340    0.22590    0.47140    1.000
    H125     H        0.39650    0.34440    0.46760    1.000
    H126     H        0.43530    0.35530    0.37750    1.000
    H127     H        0.21050    0.36620    0.37090    1.000
    H128     H        0.18240    0.31340    0.44580    1.000
    C43      C        0.41540    0.17940    0.36840    1.000
    C44      C        0.26550    0.18000    0.34170    1.000
    C45      C        0.17890    0.25320    0.34540    1.000
    C46      C        0.46940    0.24420    0.41660    1.000
    C47      C        0.38770    0.32000    0.41540    1.000
    C48      C        0.23640    0.31590    0.39590    1.000
    N8       N        0.20300    0.11320    0.30050    1.000
