data_functionalizedCrystal
_audit_creation_method	'EQeq! by Chris Wilmer'
_symmetry_space_group_name_H-M	'P1'
_symmetry_Int_Tables_number	1
_symmetry_cell_setting	triclinic
loop_
_symmetry_equiv_pos_as_xyz
  x,y,z
_cell_length_a	8.462
_cell_length_b	9.721
_cell_length_c	17.266
_cell_angle_alpha	90
_cell_angle_beta	90
_cell_angle_gamma	112.17
loop_
_atom_site_label
_atom_site_type_symbol
_atom_site_fract_x
_atom_site_fract_y
_atom_site_fract_z
_atom_site_charge
Mof_Dy	Dy	0.84353	0.5247	0.74222	1.954
Mof_Dy	Dy	0.15647	0.9753	0.24222	1.926
Mof_Dy	Dy	0.15647	0.4753	0.25778	1.957
Mof_Dy	Dy	0.84353	0.0247	0.75778	1.924
Mof_C 	C 	0.905	0.524	0.9021	0.323
Mof_C 	C 	0.944	0.529	0.9863	-0.102
Mof_C 	C 	0.13	0.867	0.7875	0.497
Mof_C 	C 	0.314	0.962	0.7844	-0.14
Mof_C 	C 	0.375	0.105	0.802	-0.136
Mof_C 	C 	0.56	0.201	0.7905	0.483
Mof_C 	C 	0.095	0.976	0.4021	0.318
Mof_C 	C 	0.056	0.971	0.4863	-0.117
Mof_C 	C 	0.87	0.633	0.2875	0.499
Mof_C 	C 	0.686	0.538	0.2844	-0.144
Mof_C 	C 	0.625	0.395	0.302	-0.133
Mof_C 	C 	0.44	0.299	0.2905	0.483
Mof_C 	C 	0.095	0.476	0.0979	0.323
Mof_C 	C 	0.056	0.471	0.0137	-0.102
Mof_C 	C 	0.87	0.133	0.2125	0.498
Mof_C 	C 	0.686	0.038	0.2156	-0.14
Mof_C 	C 	0.625	0.895	0.198	-0.136
Mof_C 	C 	0.44	0.799	0.2095	0.484
Mof_C 	C 	0.905	0.024	0.5979	0.291
Mof_C 	C 	0.944	0.029	0.5137	-0.043
Mof_C 	C 	0.13	0.367	0.7125	0.499
Mof_C 	C 	0.314	0.462	0.7156	-0.144
Mof_C 	C 	0.375	0.605	0.698	-0.133
Mof_C 	C 	0.56	0.701	0.7095	0.483
Mof_O 	O 	0.963	0.4537	0.8556	-0.437
Mof_O 	O 	0.813	0.5914	0.8781	-0.403
Mof_O 	O 	0.09	0.733	0.7692	-0.523
Mof_O 	O 	0.0251	0.9241	0.8061	-0.574
Mof_O 	O 	0.661	0.143	0.771	-0.601
Mof_O 	O 	0.601	0.3383	0.7979	-0.515
Mof_O 	O 	0.037	0.0463	0.3556	-0.417
Mof_O 	O 	0.187	0.9086	0.3781	-0.401
Mof_O 	O 	0.91	0.767	0.2692	-0.518
Mof_O 	O 	0.9749	0.5759	0.3061	-0.576
Mof_O 	O 	0.339	0.357	0.271	-0.6
Mof_O 	O 	0.399	0.1617	0.2979	-0.508
Mof_O 	O 	0.037	0.5463	0.1444	-0.437
Mof_O 	O 	0.187	0.4086	0.1219	-0.403
Mof_O 	O 	0.91	0.267	0.2308	-0.523
Mof_O 	O 	0.9749	0.0759	0.1939	-0.574
Mof_O 	O 	0.339	0.857	0.229	-0.601
Mof_O 	O 	0.399	0.6617	0.2021	-0.515
Mof_O 	O 	0.963	0.9537	0.6444	-0.415
Mof_O 	O 	0.813	0.0914	0.6219	-0.392
Mof_O 	O 	0.09	0.233	0.7308	-0.518
Mof_O 	O 	0.0251	0.4241	0.6939	-0.575
Mof_O 	O 	0.661	0.643	0.729	-0.6
Mof_O 	O 	0.601	0.8383	0.7021	-0.508
Mof_H 	H 	0.87965	0.58184	0.02839	0.062
Mof_H 	H 	0.41075	0.91243	0.76614	0.062
Mof_H 	H 	0.2866	0.15826	0.82654	0.058
Mof_H 	H 	0.12035	0.91816	0.52839	0.061
Mof_H 	H 	0.58925	0.58757	0.26614	0.061
Mof_H 	H 	0.7134	0.34174	0.32654	0.058
Mof_H 	H 	0.12035	0.41816	0.97161	0.062
Mof_H 	H 	0.58925	0.08757	0.23386	0.062
Mof_H 	H 	0.7134	0.84174	0.17346	0.058
Mof_H 	H 	0.41075	0.41243	0.73386	0.061
Mof_H 	H 	0.2866	0.65826	0.67346	0.057
_end
