data_functionalizedCrystal
_audit_creation_method	'EQeq! by Chris Wilmer'
_symmetry_space_group_name_H-M	'P1'
_symmetry_Int_Tables_number	1
_symmetry_cell_setting	triclinic
loop_
_symmetry_equiv_pos_as_xyz
  x,y,z
_cell_length_a	8.363
_cell_length_b	12.827
_cell_length_c	12.987
_cell_angle_alpha	78.01
_cell_angle_beta	77.5
_cell_angle_gamma	71.85
loop_
_atom_site_label
_atom_site_type_symbol
_atom_site_fract_x
_atom_site_fract_y
_atom_site_fract_z
_atom_site_charge
Mof_Mn	Mn	0.36189	0.09808	0.30991	0.643
Mof_C 	C 	0.4773	0.0197	0.4595	-0.111
Mof_N 	N 	0.4972	0.948	0.2223	-0.193
Mof_N 	N 	0.8182	0.4118	0.0697	-0.187
Mof_C 	C 	0.4379	0.9222	0.1458	0.071
Mof_H 	H 	0.348	0.9746	0.1165	-0.005
Mof_C 	C 	0.5037	0.8216	0.1084	-0.13
Mof_H 	H 	0.4569	0.8072	0.0559	0.065
Mof_C 	C 	0.6387	0.7427	0.1486	0.044
Mof_C 	C 	0.7061	0.7713	0.2246	-0.142
Mof_H 	H 	0.7993	0.7217	0.2529	0.075
Mof_C 	C 	0.6333	0.8739	0.2573	0.076
Mof_H 	H 	0.6819	0.8924	0.3065	-0.012
Mof_C 	C 	0.7361	0.4983	0.0055	0.082
Mof_H 	H 	0.7163	0.4846	0.9425	-0.001
Mof_C 	C 	0.6787	0.6059	0.0258	-0.147
Mof_H 	H 	0.6233	0.6624	0.9773	0.076
Mof_C 	C 	0.7045	0.6286	0.1192	0.064
Mof_C 	C 	0.7904	0.5411	0.1848	-0.153
Mof_H 	H 	0.8125	0.5524	0.2482	0.082
Mof_C 	C 	0.8442	0.4363	0.157	0.093
Mof_H 	H 	0.9031	0.3788	0.2032	-0.011
Mof_C 	C 	0.6759	0.1985	0.1582	-0.085
Mof_Mn	Mn	0.89563	0.22012	0.04146	0.616
Mof_C 	C 	0.1095	0.1945	0.1231	-0.076
Mof_C 	C 	0.8551	0.2863	0.8791	-0.089
Mof_N 	N 	0.8353	0.3184	0.7939	-0.098
Mof_C 	C 	0.9792	0.0439	0.0105	-0.112
Mof_N 	N 	0.2062	0.1723	0.1791	-0.16
Mof_C 	C 	0.2076	0.3547	0.329	0.087
Mof_H 	H 	0.2616	0.3595	0.2584	-0.005
Mof_C 	C 	0.1244	0.4521	0.3701	-0.148
Mof_H 	H 	0.1218	0.5202	0.3271	0.085
Mof_C 	C 	0.0443	0.4479	0.4763	0.059
Mof_C 	C 	0.0505	0.3431	0.5344	-0.15
Mof_H 	H 	0.9976	0.3358	0.6052	0.082
Mof_C 	C 	0.135	0.2504	0.487	0.084
Mof_H 	H 	0.137	0.1814	0.5277	-0.018
Mof_N 	N 	0.2149	0.2536	0.3852	-0.196
Mof_N 	N 	0.5658	0.1771	0.2191	-0.155
Mof_Mn	Mn	0.63811	0.90192	0.69009	0.643
Mof_C 	C 	0.5227	0.9803	0.5405	-0.111
Mof_N 	N 	0.5028	0.052	0.7777	-0.193
Mof_N 	N 	0.1818	0.5882	0.9303	-0.187
Mof_C 	C 	0.5621	0.0778	0.8542	0.071
Mof_H 	H 	0.652	0.0254	0.8835	-0.005
Mof_C 	C 	0.4963	0.1784	0.8916	-0.13
Mof_H 	H 	0.5431	0.1928	0.9441	0.065
Mof_C 	C 	0.3613	0.2573	0.8514	0.044
Mof_C 	C 	0.2939	0.2287	0.7754	-0.142
Mof_H 	H 	0.2007	0.2783	0.7471	0.075
Mof_C 	C 	0.3667	0.1261	0.7427	0.076
Mof_H 	H 	0.3181	0.1076	0.6935	-0.012
Mof_C 	C 	0.2639	0.5017	0.9945	0.082
Mof_H 	H 	0.2837	0.5154	0.0575	-0.001
Mof_C 	C 	0.3213	0.3941	0.9742	-0.147
Mof_H 	H 	0.3767	0.3376	0.0227	0.076
Mof_C 	C 	0.2955	0.3714	0.8808	0.064
Mof_C 	C 	0.2096	0.4589	0.8152	-0.153
Mof_H 	H 	0.1875	0.4476	0.7518	0.082
Mof_C 	C 	0.1558	0.5637	0.843	0.093
Mof_H 	H 	0.0969	0.6212	0.7968	-0.011
Mof_C 	C 	0.3241	0.8015	0.8418	-0.085
Mof_Mn	Mn	0.10437	0.77988	0.95854	0.616
Mof_C 	C 	0.8905	0.8055	0.8769	-0.076
Mof_C 	C 	0.1449	0.7137	0.1209	-0.089
Mof_N 	N 	0.1647	0.6816	0.2061	-0.098
Mof_C 	C 	0.0208	0.9561	0.9895	-0.112
Mof_N 	N 	0.7938	0.8277	0.8209	-0.16
Mof_C 	C 	0.7924	0.6453	0.671	0.087
Mof_H 	H 	0.7384	0.6405	0.7416	-0.005
Mof_C 	C 	0.8756	0.5479	0.6299	-0.148
Mof_H 	H 	0.8782	0.4798	0.6729	0.085
Mof_C 	C 	0.9557	0.5521	0.5237	0.059
Mof_C 	C 	0.9495	0.6569	0.4656	-0.15
Mof_H 	H 	0.0024	0.6642	0.3948	0.082
Mof_C 	C 	0.865	0.7496	0.513	0.084
Mof_H 	H 	0.863	0.8186	0.4723	-0.018
Mof_N 	N 	0.7851	0.7464	0.6148	-0.196
Mof_N 	N 	0.4342	0.8229	0.7809	-0.155
_end
