# CIF file generated by openbabel 3.1.0, see https://openbabel.org
data_I
_chemical_name_common 'LIBZIG_clean'
_cell_length_a 9.631
_cell_length_b 12.212
_cell_length_c 12.212
_cell_angle_alpha 95.4993
_cell_angle_beta 94.5059
_cell_angle_gamma 94.5059
_space_group_name_H-M_alt 'P 1'
_space_group_name_Hall 'P 1'
loop_
    _symmetry_equiv_pos_as_xyz
    x,y,z
loop_
    _atom_site_label
    _atom_site_type_symbol
    _atom_site_fract_x
    _atom_site_fract_y
    _atom_site_fract_z
    _atom_site_occupancy
    Tb1      Tb       0.46764    0.26374    0.23695    1.000
    Tb2      Tb       0.03236    0.76305    0.73626    1.000
    Tb3      Tb       0.53236    0.73626    0.76305    1.000
    Tb4      Tb       0.96764    0.23695    0.26374    1.000
    H1       H        0.38700    0.04670    0.53910    1.000
    H2       H        0.61420    0.43320    0.49480    1.000
    H3       H        0.60790    0.01080    0.95060    1.000
    H4       H        0.11300    0.46090    0.95330    1.000
    H5       H        0.88580    0.50520    0.56680    1.000
    H6       H        0.89210    0.04940    0.98920    1.000
    H7       H        0.61300    0.95330    0.46090    1.000
    H8       H        0.38580    0.56680    0.50520    1.000
    H9       H        0.39210    0.98920    0.04940    1.000
    H10      H        0.88700    0.53910    0.04670    1.000
    H11      H        0.11420    0.49480    0.43320    1.000
    H12      H        0.10790    0.95060    0.01080    1.000
    C1       C        0.46670    0.11250    0.40250    1.000
    C2       C        0.45750    0.03830    0.49190    1.000
    C3       C        0.76970    0.35650    0.41250    1.000
    C4       C        0.71090    0.43470    0.49410    1.000
    C5       C        0.68390    0.13470    0.07790    1.000
    C6       C        0.69100    0.04520    0.98640    1.000
    C7       C        0.03330    0.59750    0.88750    1.000
    C8       C        0.04250    0.50810    0.96170    1.000
    C9       C        0.73030    0.58750    0.64350    1.000
    C10      C        0.78910    0.50590    0.56530    1.000
    C11      C        0.81610    0.92210    0.86530    1.000
    C12      C        0.80900    0.01360    0.95480    1.000
    C13      C        0.53330    0.88750    0.59750    1.000
    C14      C        0.54250    0.96170    0.50810    1.000
    C15      C        0.23030    0.64350    0.58750    1.000
    C16      C        0.28910    0.56530    0.50590    1.000
    C17      C        0.31610    0.86530    0.92210    1.000
    C18      C        0.30900    0.95480    0.01360    1.000
    C19      C        0.96670    0.40250    0.11250    1.000
    C20      C        0.95750    0.49190    0.03830    1.000
    C21      C        0.26970    0.41250    0.35650    1.000
    C22      C        0.21090    0.49410    0.43470    1.000
    C23      C        0.18390    0.07790    0.13470    1.000
    C24      C        0.19100    0.98640    0.04520    1.000
    O1       O        0.39770    0.19570    0.40850    1.000
    O2       O        0.54140    0.09242    0.32458    1.000
    O3       O        0.68610    0.30279    0.33857    1.000
    O4       O        0.89840    0.34557    0.41977    1.000
    O5       O        0.56430    0.16332    0.09432    1.000
    O6       O        0.79160    0.17630    0.13090    1.000
    O7       O        0.10230    0.59150    0.80430    1.000
    O8       O        0.95860    0.67542    0.90758    1.000
    O9       O        0.81390    0.66143    0.69721    1.000
    O10      O        0.60160    0.58023    0.65443    1.000
    O11      O        0.93570    0.90568    0.83668    1.000
    O12      O        0.70840    0.86910    0.82370    1.000
    O13      O        0.60230    0.80430    0.59150    1.000
    O14      O        0.45860    0.90758    0.67542    1.000
    O15      O        0.31390    0.69721    0.66143    1.000
    O16      O        0.10160    0.65443    0.58023    1.000
    O17      O        0.43570    0.83668    0.90568    1.000
    O18      O        0.20840    0.82370    0.86910    1.000
    O19      O        0.89770    0.40850    0.19570    1.000
    O20      O        0.04140    0.32458    0.09242    1.000
    O21      O        0.18610    0.33857    0.30279    1.000
    O22      O        0.39840    0.41977    0.34557    1.000
    O23      O        0.06430    0.09432    0.16332    1.000
    O24      O        0.29160    0.13090    0.17630    1.000
