data_functionalizedCrystal
_audit_creation_method	'EQeq! by Chris Wilmer'
_symmetry_space_group_name_H-M	'P1'
_symmetry_Int_Tables_number	1
_symmetry_cell_setting	triclinic
loop_
_symmetry_equiv_pos_as_xyz
  x,y,z
_cell_length_a	25.2139
_cell_length_b	26.2486
_cell_length_c	26.2486
_cell_angle_alpha	120
_cell_angle_beta	90
_cell_angle_gamma	90
loop_
_atom_site_label
_atom_site_type_symbol
_atom_site_fract_x
_atom_site_fract_y
_atom_site_fract_z
_atom_site_charge
Mof_Cu	Cu	0.6034	0.92226	0.94264	0.888
Mof_Cu	Cu	0.68509	0.41945	0.71049	0.945
Mof_Cu	Cu	0.6034	0.02038	0.07774	0.89
Mof_Cu	Cu	0.68509	0.29104	0.58055	0.945
Mof_Cu	Cu	0.6034	0.05736	0.97962	0.889
Mof_Cu	Cu	0.68509	0.28951	0.70896	0.945
Mof_Cu	Cu	0.1034	0.07774	0.05736	0.89
Mof_Cu	Cu	0.18509	0.58055	0.28951	0.945
Mof_Cu	Cu	0.1034	0.97962	0.92226	0.888
Mof_Cu	Cu	0.18509	0.70896	0.41945	0.945
Mof_Cu	Cu	0.1034	0.94264	0.02038	0.889
Mof_Cu	Cu	0.18509	0.71049	0.29104	0.945
Mof_Cu	Cu	0.3966	0.97962	0.05736	0.889
Mof_Cu	Cu	0.31491	0.70896	0.28951	0.945
Mof_Cu	Cu	0.3966	0.94264	0.92226	0.889
Mof_Cu	Cu	0.31491	0.71049	0.41945	0.945
Mof_Cu	Cu	0.3966	0.07774	0.02038	0.89
Mof_Cu	Cu	0.31491	0.58055	0.29104	0.945
Mof_Cu	Cu	0.8966	0.02038	0.94264	0.889
Mof_Cu	Cu	0.81491	0.29104	0.71049	0.945
Mof_Cu	Cu	0.8966	0.05736	0.07774	0.89
Mof_Cu	Cu	0.81491	0.28951	0.58055	0.945
Mof_Cu	Cu	0.8966	0.92226	0.97962	0.889
Mof_Cu	Cu	0.81491	0.41945	0.70896	0.946
Mof_Cu	Cu	0.5	0	-0	0.895
Mof_Cu	Cu	-0	0	-0	0.893
Mof_H 	H 	0.5454	0.8104	0.7552	0.083
Mof_H 	H 	0.447	0.9275	0.7167	0.18
Mof_H 	H 	0.4671	0.9916	0.7591	0.171
Mof_H 	H 	0.4184	0.9667	0.777	0.187
Mof_H 	H 	0.5053	0.7995	0.6726	0.21
Mof_H 	H 	0.5065	0.856	0.6666	0.201
Mof_H 	H 	0.4534	0.8363	0.6828	0.215
Mof_H 	H 	0.5864	0.7821	0.8039	-0.008
Mof_H 	H 	0.7139	0.7058	0.9257	-0.068
Mof_H 	H 	0.6262	0.7026	0.7963	-0.014
Mof_H 	H 	0.69	0.8694	0.0931	0.437
Mof_H 	H 	0.6489	0.8197	0.0556	0.47
Mof_H 	H 	0.6515	0.8764	0.0501	0.477
Mof_H 	H 	0.7679	0.8862	0.0439	0.427
Mof_H 	H 	0.7307	0.892	0.9992	0.451
Mof_H 	H 	0.7767	0.8455	0.976	0.46
Mof_H 	H 	0.7627	0.8005	0.0583	0.426
Mof_H 	H 	0.7736	0.7594	0.9909	0.452
Mof_H 	H 	0.7241	0.7483	0.0202	0.45
Mof_H 	H 	0.6716	0.6208	0.7398	0.082
Mof_H 	H 	0.6731	0.5188	0.686	0.023
Mof_H 	H 	0.6794	0.5132	0.8361	0.028
Mof_H 	H 	0.6779	0.6152	0.8899	0.081
Mof_H 	H 	0.5454	0.9448	0.1896	0.082
Mof_H 	H 	0.447	0.7892	0.0725	0.181
Mof_H 	H 	0.4671	0.7675	0.0084	0.174
Mof_H 	H 	0.4184	0.8103	0.0333	0.189
Mof_H 	H 	0.5053	0.8731	0.2005	0.21
Mof_H 	H 	0.5065	0.8106	0.144	0.202
Mof_H 	H 	0.4534	0.8465	0.1637	0.215
Mof_H 	H 	0.5864	0.0218	0.2179	-0.007
Mof_H 	H 	0.7139	0.2199	0.2942	-0.069
Mof_H 	H 	0.6262	0.0937	0.2974	-0.015
Mof_H 	H 	0.69	0.2237	0.1306	0.447
Mof_H 	H 	0.6489	0.2359	0.1803	0.478
Mof_H 	H 	0.6515	0.1737	0.1236	0.486
Mof_H 	H 	0.7679	0.1577	0.1138	0.444
Mof_H 	H 	0.7307	0.1072	0.108	0.471
Mof_H 	H 	0.7767	0.1305	0.1545	0.478
Mof_H 	H 	0.7627	0.2578	0.1995	0.437
Mof_H 	H 	0.7736	0.2315	0.2406	0.465
Mof_H 	H 	0.7241	0.2719	0.2517	0.46
Mof_H 	H 	0.6716	0.119	0.3792	0.082
Mof_H 	H 	0.6731	0.1672	0.4812	0.023
Mof_H 	H 	0.6794	0.3229	0.4868	0.028
Mof_H 	H 	0.6779	0.2747	0.3848	0.081
Mof_H 	H 	0.5454	0.2448	0.0552	0.084
Mof_H 	H 	0.447	0.2833	0.2108	0.18
Mof_H 	H 	0.4671	0.2409	0.2325	0.172
Mof_H 	H 	0.4184	0.223	0.1897	0.187
Mof_H 	H 	0.5053	0.3274	0.1269	0.212
Mof_H 	H 	0.5065	0.3334	0.1894	0.203
Mof_H 	H 	0.4534	0.3172	0.1535	0.216
Mof_H 	H 	0.5864	0.1961	0.9782	-0.009
Mof_H 	H 	0.7139	0.0743	0.7801	-0.07
Mof_H 	H 	0.6262	0.2037	0.9063	-0.016
Mof_H 	H 	0.69	0.9069	0.7763	0.448
Mof_H 	H 	0.6489	0.9444	0.7641	0.479
Mof_H 	H 	0.6515	0.9499	0.8263	0.487
Mof_H 	H 	0.7679	0.9561	0.8423	0.449
Mof_H 	H 	0.7307	0.0008	0.8928	0.478
Mof_H 	H 	0.7767	0.024	0.8695	0.486
Mof_H 	H 	0.7627	0.9417	0.7422	0.441
Mof_H 	H 	0.7736	0.0091	0.7685	0.471
Mof_H 	H 	0.7241	0.9798	0.7281	0.463
Mof_H 	H 	0.6716	0.2602	0.881	0.082
Mof_H 	H 	0.6731	0.314	0.8328	0.023
Mof_H 	H 	0.6794	0.1639	0.6771	0.028
Mof_H 	H 	0.6779	0.1101	0.7253	0.082
Mof_H 	H 	0.0454	0.1896	0.2448	0.077
Mof_H 	H 	0.947	0.0725	0.2833	0.191
Mof_H 	H 	0.9671	0.0084	0.2409	0.184
Mof_H 	H 	0.9184	0.0333	0.223	0.197
Mof_H 	H 	0.0053	0.2005	0.3274	0.196
Mof_H 	H 	0.0065	0.144	0.3334	0.187
Mof_H 	H 	0.9534	0.1637	0.3172	0.201
Mof_H 	H 	0.0864	0.2179	0.1961	-0.008
Mof_H 	H 	0.2139	0.2942	0.0743	-0.07
Mof_H 	H 	0.1262	0.2974	0.2037	-0.016
Mof_H 	H 	0.19	0.1306	0.9069	0.45
Mof_H 	H 	0.1489	0.1803	0.9444	0.481
Mof_H 	H 	0.1515	0.1236	0.9499	0.489
Mof_H 	H 	0.2679	0.1138	0.9561	0.449
Mof_H 	H 	0.2307	0.108	0.0008	0.477
Mof_H 	H 	0.2767	0.1545	0.024	0.485
Mof_H 	H 	0.2627	0.1995	0.9417	0.441
Mof_H 	H 	0.2736	0.2406	0.0091	0.47
Mof_H 	H 	0.2241	0.2517	0.9798	0.463
Mof_H 	H 	0.1716	0.3792	0.2602	0.082
Mof_H 	H 	0.1731	0.4812	0.314	0.023
Mof_H 	H 	0.1794	0.4868	0.1639	0.028
Mof_H 	H 	0.1779	0.3848	0.1101	0.081
Mof_H 	H 	0.0454	0.0552	0.8104	0.084
Mof_H 	H 	0.947	0.2108	0.9275	0.181
Mof_H 	H 	0.9671	0.2325	0.9916	0.173
Mof_H 	H 	0.9184	0.1897	0.9667	0.187
Mof_H 	H 	0.0053	0.1269	0.7995	0.211
Mof_H 	H 	0.0065	0.1894	0.856	0.202
Mof_H 	H 	0.9534	0.1535	0.8363	0.215
Mof_H 	H 	0.0864	0.9782	0.7821	-0.009
Mof_H 	H 	0.2139	0.7801	0.7058	-0.069
Mof_H 	H 	0.1262	0.9063	0.7026	-0.016
Mof_H 	H 	0.19	0.7763	0.8694	0.444
Mof_H 	H 	0.1489	0.7641	0.8197	0.476
Mof_H 	H 	0.1515	0.8263	0.8764	0.483
Mof_H 	H 	0.2679	0.8423	0.8862	0.44
Mof_H 	H 	0.2307	0.8928	0.892	0.468
Mof_H 	H 	0.2767	0.8695	0.8455	0.476
Mof_H 	H 	0.2627	0.7422	0.8005	0.435
Mof_H 	H 	0.2736	0.7685	0.7594	0.464
Mof_H 	H 	0.2241	0.7281	0.7483	0.458
Mof_H 	H 	0.1716	0.881	0.6208	0.082
Mof_H 	H 	0.1731	0.8328	0.5188	0.023
Mof_H 	H 	0.1794	0.6771	0.5132	0.028
Mof_H 	H 	0.1779	0.7253	0.6152	0.081
Mof_H 	H 	0.0454	0.7552	0.9448	0.078
Mof_H 	H 	0.947	0.7167	0.7892	0.187
Mof_H 	H 	0.9671	0.7591	0.7675	0.179
Mof_H 	H 	0.9184	0.777	0.8103	0.193
Mof_H 	H 	0.0053	0.6726	0.8731	0.201
Mof_H 	H 	0.0065	0.6666	0.8106	0.192
Mof_H 	H 	0.9534	0.6828	0.8465	0.206
Mof_H 	H 	0.0864	0.8039	0.0218	-0.008
Mof_H 	H 	0.2139	0.9257	0.2199	-0.068
Mof_H 	H 	0.1262	0.7963	0.0937	-0.015
Mof_H 	H 	0.19	0.0931	0.2237	0.44
Mof_H 	H 	0.1489	0.0556	0.2359	0.472
Mof_H 	H 	0.1515	0.0501	0.1737	0.48
Mof_H 	H 	0.2679	0.0439	0.1577	0.43
Mof_H 	H 	0.2307	0.9992	0.1072	0.455
Mof_H 	H 	0.2767	0.976	0.1305	0.463
Mof_H 	H 	0.2627	0.0583	0.2578	0.428
Mof_H 	H 	0.2736	0.9909	0.2315	0.454
Mof_H 	H 	0.2241	0.0202	0.2719	0.452
Mof_H 	H 	0.1716	0.7398	0.119	0.081
Mof_H 	H 	0.1731	0.686	0.1672	0.023
Mof_H 	H 	0.1794	0.8361	0.3229	0.028
Mof_H 	H 	0.1779	0.8899	0.2747	0.081
Mof_H 	H 	0.4546	0.0552	0.2448	0.084
Mof_H 	H 	0.553	0.2108	0.2833	0.18
Mof_H 	H 	0.5329	0.2325	0.2409	0.172
Mof_H 	H 	0.5816	0.1897	0.223	0.187
Mof_H 	H 	0.4947	0.1269	0.3274	0.212
Mof_H 	H 	0.4935	0.1894	0.3334	0.203
Mof_H 	H 	0.5466	0.1535	0.3172	0.216
Mof_H 	H 	0.4136	0.9782	0.1961	-0.009
Mof_H 	H 	0.2861	0.7801	0.0743	-0.07
Mof_H 	H 	0.3738	0.9063	0.2037	-0.016
Mof_H 	H 	0.31	0.7763	0.9069	0.447
Mof_H 	H 	0.3511	0.7641	0.9444	0.478
Mof_H 	H 	0.3485	0.8263	0.9499	0.486
Mof_H 	H 	0.2321	0.8423	0.9561	0.447
Mof_H 	H 	0.2693	0.8928	0.0008	0.476
Mof_H 	H 	0.2233	0.8695	0.024	0.483
Mof_H 	H 	0.2373	0.7422	0.9417	0.439
Mof_H 	H 	0.2264	0.7685	0.0091	0.469
Mof_H 	H 	0.2759	0.7281	0.9798	0.462
Mof_H 	H 	0.3284	0.881	0.2602	0.082
Mof_H 	H 	0.3269	0.8328	0.314	0.023
Mof_H 	H 	0.3206	0.6771	0.1639	0.028
Mof_H 	H 	0.3221	0.7253	0.1101	0.081
Mof_H 	H 	0.4546	0.7552	0.8104	0.083
Mof_H 	H 	0.553	0.7167	0.9275	0.18
Mof_H 	H 	0.5329	0.7591	0.9916	0.171
Mof_H 	H 	0.5816	0.777	0.9667	0.187
Mof_H 	H 	0.4947	0.6726	0.7995	0.21
Mof_H 	H 	0.4935	0.6666	0.856	0.202
Mof_H 	H 	0.5466	0.6828	0.8363	0.215
Mof_H 	H 	0.4136	0.8039	0.7821	-0.008
Mof_H 	H 	0.2861	0.9257	0.7058	-0.068
Mof_H 	H 	0.3738	0.7963	0.7026	-0.014
Mof_H 	H 	0.31	0.0931	0.8694	0.437
Mof_H 	H 	0.3511	0.0556	0.8197	0.47
Mof_H 	H 	0.3485	0.0501	0.8764	0.477
Mof_H 	H 	0.2321	0.0439	0.8862	0.428
Mof_H 	H 	0.2693	0.9992	0.892	0.452
Mof_H 	H 	0.2233	0.976	0.8455	0.461
Mof_H 	H 	0.2373	0.0583	0.8005	0.427
Mof_H 	H 	0.2264	0.9909	0.7594	0.453
Mof_H 	H 	0.2759	0.0202	0.7483	0.45
Mof_H 	H 	0.3284	0.7398	0.6208	0.082
Mof_H 	H 	0.3269	0.686	0.5188	0.023
Mof_H 	H 	0.3206	0.8361	0.5132	0.028
Mof_H 	H 	0.3221	0.8899	0.6152	0.081
Mof_H 	H 	0.4546	0.1896	0.9448	0.082
Mof_H 	H 	0.553	0.0725	0.7892	0.181
Mof_H 	H 	0.5329	0.0084	0.7675	0.174
Mof_H 	H 	0.5816	0.0333	0.8103	0.189
Mof_H 	H 	0.4947	0.2005	0.8731	0.211
Mof_H 	H 	0.4935	0.144	0.8106	0.202
Mof_H 	H 	0.5466	0.1637	0.8465	0.215
Mof_H 	H 	0.4136	0.2179	0.0218	-0.007
Mof_H 	H 	0.2861	0.2942	0.2199	-0.069
Mof_H 	H 	0.3738	0.2974	0.0937	-0.015
Mof_H 	H 	0.31	0.1306	0.2237	0.447
Mof_H 	H 	0.3511	0.1803	0.2359	0.478
Mof_H 	H 	0.3485	0.1236	0.1737	0.485
Mof_H 	H 	0.2321	0.1138	0.1577	0.444
Mof_H 	H 	0.2693	0.108	0.1072	0.47
Mof_H 	H 	0.2233	0.1545	0.1305	0.478
Mof_H 	H 	0.2373	0.1995	0.2578	0.437
Mof_H 	H 	0.2264	0.2406	0.2315	0.465
Mof_H 	H 	0.2759	0.2517	0.2719	0.46
Mof_H 	H 	0.3284	0.3792	0.119	0.082
Mof_H 	H 	0.3269	0.4812	0.1672	0.023
Mof_H 	H 	0.3206	0.4868	0.3229	0.028
Mof_H 	H 	0.3221	0.3848	0.2747	0.081
Mof_H 	H 	0.9546	0.9448	0.7552	0.087
Mof_H 	H 	0.053	0.7892	0.7167	0.173
Mof_H 	H 	0.0329	0.7675	0.7591	0.164
Mof_H 	H 	0.0816	0.8103	0.777	0.181
Mof_H 	H 	0.9947	0.8731	0.6726	0.225
Mof_H 	H 	0.9935	0.8106	0.6666	0.217
Mof_H 	H 	0.0466	0.8465	0.6828	0.228
Mof_H 	H 	0.9136	0.0218	0.8039	-0.008
Mof_H 	H 	0.7861	0.2199	0.9257	-0.068
Mof_H 	H 	0.8738	0.0937	0.7963	-0.014
Mof_H 	H 	0.81	0.2237	0.0931	0.439
Mof_H 	H 	0.8511	0.2359	0.0556	0.472
Mof_H 	H 	0.8485	0.1737	0.0501	0.479
Mof_H 	H 	0.7321	0.1577	0.0439	0.429
Mof_H 	H 	0.7693	0.1072	0.9992	0.454
Mof_H 	H 	0.7233	0.1305	0.976	0.462
Mof_H 	H 	0.7373	0.2578	0.0583	0.428
Mof_H 	H 	0.7264	0.2315	0.9909	0.454
Mof_H 	H 	0.7759	0.2719	0.0202	0.451
Mof_H 	H 	0.8284	0.119	0.7398	0.082
Mof_H 	H 	0.8269	0.1672	0.686	0.023
Mof_H 	H 	0.8206	0.3229	0.8361	0.028
Mof_H 	H 	0.8221	0.2747	0.8899	0.081
Mof_H 	H 	0.9546	0.2448	0.1896	0.09
Mof_H 	H 	0.053	0.2833	0.0725	0.171
Mof_H 	H 	0.0329	0.2409	0.0084	0.164
Mof_H 	H 	0.0816	0.223	0.0333	0.179
Mof_H 	H 	0.9947	0.3274	0.2005	0.231
Mof_H 	H 	0.9935	0.3334	0.144	0.223
Mof_H 	H 	0.0466	0.3172	0.1637	0.233
Mof_H 	H 	0.9136	0.1961	0.2179	-0.008
Mof_H 	H 	0.7861	0.0743	0.2942	-0.07
Mof_H 	H 	0.8738	0.2037	0.2974	-0.015
Mof_H 	H 	0.81	0.9069	0.1306	0.451
Mof_H 	H 	0.8511	0.9444	0.1803	0.481
Mof_H 	H 	0.8485	0.9499	0.1236	0.489
Mof_H 	H 	0.7321	0.9561	0.1138	0.451
Mof_H 	H 	0.7693	0.0008	0.108	0.48
Mof_H 	H 	0.7233	0.024	0.1545	0.487
Mof_H 	H 	0.7373	0.9417	0.1995	0.442
Mof_H 	H 	0.7264	0.0091	0.2406	0.472
Mof_H 	H 	0.7759	0.9798	0.2517	0.465
Mof_H 	H 	0.8284	0.2602	0.3792	0.082
Mof_H 	H 	0.8269	0.314	0.4812	0.023
Mof_H 	H 	0.8206	0.1639	0.4868	0.028
Mof_H 	H 	0.8221	0.1101	0.3848	0.082
Mof_H 	H 	0.9546	0.8104	0.0552	0.095
Mof_H 	H 	0.053	0.9275	0.2108	0.163
Mof_H 	H 	0.0329	0.9916	0.2325	0.154
Mof_H 	H 	0.0816	0.9667	0.1897	0.172
Mof_H 	H 	0.9947	0.7995	0.1269	0.24
Mof_H 	H 	0.9935	0.856	0.1894	0.232
Mof_H 	H 	0.0466	0.8363	0.1535	0.242
Mof_H 	H 	0.9136	0.7821	0.9782	-0.01
Mof_H 	H 	0.7861	0.7058	0.7801	-0.069
Mof_H 	H 	0.8738	0.7026	0.9063	-0.015
Mof_H 	H 	0.81	0.8694	0.7763	0.443
Mof_H 	H 	0.8511	0.8197	0.7641	0.475
Mof_H 	H 	0.8485	0.8764	0.8263	0.482
Mof_H 	H 	0.7321	0.8862	0.8423	0.44
Mof_H 	H 	0.7693	0.892	0.8928	0.467
Mof_H 	H 	0.7233	0.8455	0.8695	0.476
Mof_H 	H 	0.7373	0.8005	0.7422	0.435
Mof_H 	H 	0.7264	0.7594	0.7685	0.464
Mof_H 	H 	0.7759	0.7483	0.7281	0.458
Mof_H 	H 	0.8284	0.6208	0.881	0.082
Mof_H 	H 	0.8269	0.5188	0.8328	0.023
Mof_H 	H 	0.8206	0.5132	0.6771	0.028
Mof_H 	H 	0.8221	0.6152	0.7253	0.081
Mof_C 	C 	0.53468	0.94066	0.87008	0.091
Mof_C 	C 	0.55011	0.88218	0.83645	0.023
Mof_C 	C 	0.53507	0.84957	0.77774	-0.179
Mof_C 	C 	0.50459	0.87545	0.75266	0.139
Mof_C 	C 	0.48916	0.93393	0.7863	0.062
Mof_C 	C 	0.5042	0.96654	0.84501	-0.075
Mof_C 	C 	0.452	0.9571	0.7571	-0.546
Mof_C 	C 	0.4912	0.8384	0.6877	-0.633
Mof_C 	C 	0.5985	0.8078	0.8417	0.084
Mof_C 	C 	0.63248	0.78362	0.86805	-0.227
Mof_C 	C 	0.65454	0.81468	0.92398	0.326
Mof_C 	C 	0.68505	0.7855	0.94554	-0.476
Mof_C 	C 	0.69349	0.72528	0.9112	0.207
Mof_C 	C 	0.67143	0.69422	0.85527	-0.165
Mof_C 	C 	0.64092	0.7234	0.8337	0.078
Mof_C 	C 	0.7127	0.8191	0.0065	1.057
Mof_C 	C 	0.672	0.8489	0.0559	-1.537
Mof_C 	C 	0.7506	0.865	0.0064	-1.499
Mof_C 	C 	0.7465	0.7779	0.0203	-1.46
Mof_C 	C 	0.6746	0.62813	0.82023	0.13
Mof_C 	C 	0.6732	0.59924	0.75913	-0.164
Mof_C 	C 	0.6741	0.53814	0.72684	0.085
Mof_C 	C 	0.6778	0.53479	0.8168	0.083
Mof_C 	C 	0.6769	0.5959	0.84907	-0.164
Mof_C 	C 	0.53468	0.92942	0.05934	0.091
Mof_C 	C 	0.55011	0.95427	0.11782	0.022
Mof_C 	C 	0.53507	0.92817	0.15043	-0.179
Mof_C 	C 	0.50459	0.87721	0.12455	0.139
Mof_C 	C 	0.48916	0.85237	0.06607	0.063
Mof_C 	C 	0.5042	0.87847	0.03346	-0.071
Mof_C 	C 	0.452	0.8	0.0429	-0.548
Mof_C 	C 	0.4912	0.8493	0.1616	-0.633
Mof_C 	C 	0.5985	0.0339	0.1922	0.085
Mof_C 	C 	0.63248	0.08443	0.21638	-0.229
Mof_C 	C 	0.65454	0.1093	0.18532	0.33
Mof_C 	C 	0.68505	0.16004	0.2145	-0.483
Mof_C 	C 	0.69349	0.18592	0.27472	0.212
Mof_C 	C 	0.67143	0.16105	0.30578	-0.167
Mof_C 	C 	0.64092	0.1103	0.2766	0.08
Mof_C 	C 	0.7127	0.1874	0.1809	1.083
Mof_C 	C 	0.672	0.207	0.1511	-1.566
Mof_C 	C 	0.7506	0.1414	0.135	-1.552
Mof_C 	C 	0.7465	0.2424	0.2221	-1.498
Mof_C 	C 	0.6746	0.1921	0.37187	0.131
Mof_C 	C 	0.6732	0.15989	0.40076	-0.165
Mof_C 	C 	0.6741	0.1887	0.46186	0.086
Mof_C 	C 	0.6778	0.28201	0.46521	0.083
Mof_C 	C 	0.6769	0.25317	0.4041	-0.164
Mof_C 	C 	0.53468	0.12992	0.07058	0.089
Mof_C 	C 	0.55011	0.16355	0.04573	0.027
Mof_C 	C 	0.53507	0.22226	0.07183	-0.182
Mof_C 	C 	0.50459	0.24734	0.12279	0.141
Mof_C 	C 	0.48916	0.2137	0.14763	0.061
Mof_C 	C 	0.5042	0.15499	0.12153	-0.072
Mof_C 	C 	0.452	0.2429	0.2	-0.545
Mof_C 	C 	0.4912	0.3123	0.1507	-0.636
Mof_C 	C 	0.5985	0.1583	0.9661	0.086
Mof_C 	C 	0.63248	0.13195	0.91557	-0.23
Mof_C 	C 	0.65454	0.07602	0.8907	0.332
Mof_C 	C 	0.68505	0.05446	0.83996	-0.485
Mof_C 	C 	0.69349	0.0888	0.81408	0.214
Mof_C 	C 	0.67143	0.14473	0.83895	-0.168
Mof_C 	C 	0.64092	0.1663	0.8897	0.081
Mof_C 	C 	0.7127	0.9935	0.8126	1.091
Mof_C 	C 	0.672	0.9441	0.793	-1.573
Mof_C 	C 	0.7506	0.9936	0.8586	-1.575
Mof_C 	C 	0.7465	0.9797	0.7576	-1.513
Mof_C 	C 	0.6746	0.17977	0.8079	0.131
Mof_C 	C 	0.6732	0.24087	0.84011	-0.165
Mof_C 	C 	0.6741	0.27316	0.8113	0.086
Mof_C 	C 	0.6778	0.1832	0.71799	0.083
Mof_C 	C 	0.6769	0.15093	0.74683	-0.165
Mof_C 	C 	0.03468	0.05934	0.12992	0.101
Mof_C 	C 	0.05011	0.11782	0.16355	0.014
Mof_C 	C 	0.03507	0.15043	0.22226	-0.163
Mof_C 	C 	0.00459	0.12455	0.24734	0.112
Mof_C 	C 	0.98916	0.06607	0.2137	0.09
Mof_C 	C 	0.0042	0.03346	0.15499	-0.094
Mof_C 	C 	0.952	0.0429	0.2429	-0.578
Mof_C 	C 	0.9912	0.1616	0.3123	-0.587
Mof_C 	C 	0.0985	0.1922	0.1583	0.084
Mof_C 	C 	0.13248	0.21638	0.13195	-0.229
Mof_C 	C 	0.15454	0.18532	0.07602	0.331
Mof_C 	C 	0.18505	0.2145	0.05446	-0.486
Mof_C 	C 	0.19349	0.27472	0.0888	0.214
Mof_C 	C 	0.17143	0.30578	0.14473	-0.168
Mof_C 	C 	0.14092	0.2766	0.1663	0.08
Mof_C 	C 	0.2127	0.1809	0.9935	1.092
Mof_C 	C 	0.172	0.1511	0.9441	-1.576
Mof_C 	C 	0.2506	0.135	0.9936	-1.572
Mof_C 	C 	0.2465	0.2221	0.9797	-1.513
Mof_C 	C 	0.1746	0.37187	0.17977	0.131
Mof_C 	C 	0.1732	0.40076	0.24087	-0.165
Mof_C 	C 	0.1741	0.46186	0.27316	0.085
Mof_C 	C 	0.1778	0.46521	0.1832	0.083
Mof_C 	C 	0.1769	0.4041	0.15093	-0.165
Mof_C 	C 	0.03468	0.07058	0.94066	0.092
Mof_C 	C 	0.05011	0.04573	0.88218	0.026
Mof_C 	C 	0.03507	0.07183	0.84957	-0.18
Mof_C 	C 	0.00459	0.12279	0.87545	0.139
Mof_C 	C 	0.98916	0.14763	0.93393	0.064
Mof_C 	C 	0.0042	0.12153	0.96654	-0.08
Mof_C 	C 	0.952	0.2	0.9571	-0.548
Mof_C 	C 	0.9912	0.1507	0.8384	-0.633
Mof_C 	C 	0.0985	0.9661	0.8078	0.085
Mof_C 	C 	0.13248	0.91557	0.78362	-0.229
Mof_C 	C 	0.15454	0.8907	0.81468	0.33
Mof_C 	C 	0.18505	0.83996	0.7855	-0.482
Mof_C 	C 	0.19349	0.81408	0.72528	0.212
Mof_C 	C 	0.17143	0.83895	0.69422	-0.167
Mof_C 	C 	0.14092	0.8897	0.7234	0.08
Mof_C 	C 	0.2127	0.8126	0.8191	1.079
Mof_C 	C 	0.172	0.793	0.8489	-1.56
Mof_C 	C 	0.2506	0.8586	0.865	-1.547
Mof_C 	C 	0.2465	0.7576	0.7779	-1.493
Mof_C 	C 	0.1746	0.8079	0.62813	0.13
Mof_C 	C 	0.1732	0.84011	0.59924	-0.165
Mof_C 	C 	0.1741	0.8113	0.53814	0.085
Mof_C 	C 	0.1778	0.71799	0.53479	0.083
Mof_C 	C 	0.1769	0.74683	0.5959	-0.164
Mof_C 	C 	0.03468	0.87008	0.92942	0.097
Mof_C 	C 	0.05011	0.83645	0.95427	0.016
Mof_C 	C 	0.03507	0.77774	0.92817	-0.168
Mof_C 	C 	0.00459	0.75266	0.87721	0.121
Mof_C 	C 	0.98916	0.7863	0.85237	0.079
Mof_C 	C 	0.0042	0.84501	0.87847	-0.086
Mof_C 	C 	0.952	0.7571	0.8	-0.565
Mof_C 	C 	0.9912	0.6877	0.8493	-0.603
Mof_C 	C 	0.0985	0.8417	0.0339	0.083
Mof_C 	C 	0.13248	0.86805	0.08443	-0.227
Mof_C 	C 	0.15454	0.92398	0.1093	0.327
Mof_C 	C 	0.18505	0.94554	0.16004	-0.478
Mof_C 	C 	0.19349	0.9112	0.18592	0.209
Mof_C 	C 	0.17143	0.85527	0.16105	-0.165
Mof_C 	C 	0.14092	0.8337	0.1103	0.077
Mof_C 	C 	0.2127	0.0065	0.1874	1.063
Mof_C 	C 	0.172	0.0559	0.207	-1.544
Mof_C 	C 	0.2506	0.0064	0.1414	-1.508
Mof_C 	C 	0.2465	0.0203	0.2424	-1.468
Mof_C 	C 	0.1746	0.82023	0.1921	0.129
Mof_C 	C 	0.1732	0.75913	0.15989	-0.164
Mof_C 	C 	0.1741	0.72684	0.1887	0.085
Mof_C 	C 	0.1778	0.8168	0.28201	0.083
Mof_C 	C 	0.1769	0.84907	0.25317	-0.164
Mof_C 	C 	0.46532	0.07058	0.12992	0.089
Mof_C 	C 	0.44989	0.04573	0.16355	0.027
Mof_C 	C 	0.46493	0.07183	0.22226	-0.182
Mof_C 	C 	0.49541	0.12279	0.24734	0.141
Mof_C 	C 	0.51084	0.14763	0.2137	0.061
Mof_C 	C 	0.4958	0.12153	0.15499	-0.072
Mof_C 	C 	0.548	0.2	0.2429	-0.545
Mof_C 	C 	0.5088	0.1507	0.3123	-0.636
Mof_C 	C 	0.4015	0.9661	0.1583	0.086
Mof_C 	C 	0.36752	0.91557	0.13195	-0.229
Mof_C 	C 	0.34546	0.8907	0.07602	0.331
Mof_C 	C 	0.31495	0.83996	0.05446	-0.484
Mof_C 	C 	0.30651	0.81408	0.0888	0.213
Mof_C 	C 	0.32857	0.83895	0.14473	-0.168
Mof_C 	C 	0.35908	0.8897	0.1663	0.081
Mof_C 	C 	0.2873	0.8126	0.9935	1.088
Mof_C 	C 	0.328	0.793	0.9441	-1.569
Mof_C 	C 	0.2494	0.8586	0.9936	-1.568
Mof_C 	C 	0.2535	0.7576	0.9797	-1.508
Mof_C 	C 	0.3254	0.8079	0.17977	0.131
Mof_C 	C 	0.3268	0.84011	0.24087	-0.165
Mof_C 	C 	0.3259	0.8113	0.27316	0.086
Mof_C 	C 	0.3222	0.71799	0.1832	0.083
Mof_C 	C 	0.3231	0.74683	0.15093	-0.165
Mof_C 	C 	0.46532	0.87008	0.94066	0.091
Mof_C 	C 	0.44989	0.83645	0.88218	0.023
Mof_C 	C 	0.46493	0.77774	0.84957	-0.179
Mof_C 	C 	0.49541	0.75266	0.87545	0.139
Mof_C 	C 	0.51084	0.7863	0.93393	0.062
Mof_C 	C 	0.4958	0.84501	0.96654	-0.075
Mof_C 	C 	0.548	0.7571	0.9571	-0.546
Mof_C 	C 	0.5088	0.6877	0.8384	-0.633
Mof_C 	C 	0.4015	0.8417	0.8078	0.084
Mof_C 	C 	0.36752	0.86805	0.78362	-0.227
Mof_C 	C 	0.34546	0.92398	0.81468	0.327
Mof_C 	C 	0.31495	0.94554	0.7855	-0.476
Mof_C 	C 	0.30651	0.9112	0.72528	0.208
Mof_C 	C 	0.32857	0.85527	0.69422	-0.165
Mof_C 	C 	0.35908	0.8337	0.7234	0.078
Mof_C 	C 	0.2873	0.0065	0.8191	1.059
Mof_C 	C 	0.328	0.0559	0.8489	-1.539
Mof_C 	C 	0.2494	0.0064	0.865	-1.502
Mof_C 	C 	0.2535	0.0203	0.7779	-1.463
Mof_C 	C 	0.3254	0.82023	0.62813	0.13
Mof_C 	C 	0.3268	0.75913	0.59924	-0.164
Mof_C 	C 	0.3259	0.72684	0.53814	0.085
Mof_C 	C 	0.3222	0.8168	0.53479	0.083
Mof_C 	C 	0.3231	0.84907	0.5959	-0.164
Mof_C 	C 	0.46532	0.05934	0.92942	0.09
Mof_C 	C 	0.44989	0.11782	0.95427	0.022
Mof_C 	C 	0.46493	0.15043	0.92817	-0.179
Mof_C 	C 	0.49541	0.12455	0.87721	0.139
Mof_C 	C 	0.51084	0.06607	0.85237	0.063
Mof_C 	C 	0.4958	0.03346	0.87847	-0.07
Mof_C 	C 	0.548	0.0429	0.8	-0.548
Mof_C 	C 	0.5088	0.1616	0.8493	-0.634
Mof_C 	C 	0.4015	0.1922	0.0339	0.085
Mof_C 	C 	0.36752	0.21638	0.08443	-0.229
Mof_C 	C 	0.34546	0.18532	0.1093	0.33
Mof_C 	C 	0.31495	0.2145	0.16004	-0.483
Mof_C 	C 	0.30651	0.27472	0.18592	0.212
Mof_C 	C 	0.32857	0.30578	0.16105	-0.167
Mof_C 	C 	0.35908	0.2766	0.1103	0.08
Mof_C 	C 	0.2873	0.1809	0.1874	1.083
Mof_C 	C 	0.328	0.1511	0.207	-1.565
Mof_C 	C 	0.2494	0.135	0.1414	-1.552
Mof_C 	C 	0.2535	0.2221	0.2424	-1.498
Mof_C 	C 	0.3254	0.37187	0.1921	0.131
Mof_C 	C 	0.3268	0.40076	0.15989	-0.165
Mof_C 	C 	0.3259	0.46186	0.1887	0.086
Mof_C 	C 	0.3222	0.46521	0.28201	0.083
Mof_C 	C 	0.3231	0.4041	0.25317	-0.164
Mof_C 	C 	0.96532	0.92942	0.87008	0.083
Mof_C 	C 	0.94989	0.95427	0.83645	0.03
Mof_C 	C 	0.96493	0.92817	0.77774	-0.194
Mof_C 	C 	0.99541	0.87721	0.75266	0.163
Mof_C 	C 	0.01084	0.85237	0.7863	0.041
Mof_C 	C 	0.9958	0.87847	0.84501	-0.058
Mof_C 	C 	0.048	0.8	0.7571	-0.523
Mof_C 	C 	0.0088	0.8493	0.6877	-0.68
Mof_C 	C 	0.9015	0.0339	0.8417	0.085
Mof_C 	C 	0.86752	0.08443	0.86805	-0.227
Mof_C 	C 	0.84546	0.1093	0.92398	0.327
Mof_C 	C 	0.81495	0.16004	0.94554	-0.478
Mof_C 	C 	0.80651	0.18592	0.9112	0.209
Mof_C 	C 	0.82857	0.16105	0.85527	-0.165
Mof_C 	C 	0.85908	0.1103	0.8337	0.078
Mof_C 	C 	0.7873	0.1874	0.0065	1.062
Mof_C 	C 	0.828	0.207	0.0559	-1.542
Mof_C 	C 	0.7494	0.1414	0.0064	-1.505
Mof_C 	C 	0.7535	0.2424	0.0203	-1.466
Mof_C 	C 	0.8254	0.1921	0.82023	0.13
Mof_C 	C 	0.8268	0.15989	0.75913	-0.164
Mof_C 	C 	0.8259	0.1887	0.72684	0.085
Mof_C 	C 	0.8222	0.28201	0.8168	0.083
Mof_C 	C 	0.8231	0.25317	0.84907	-0.164
Mof_C 	C 	0.96532	0.12992	0.05934	0.081
Mof_C 	C 	0.94989	0.16355	0.11782	0.034
Mof_C 	C 	0.96493	0.22226	0.15043	-0.2
Mof_C 	C 	0.99541	0.24734	0.12455	0.173
Mof_C 	C 	0.01084	0.2137	0.06607	0.035
Mof_C 	C 	0.9958	0.15499	0.03346	-0.054
Mof_C 	C 	0.048	0.2429	0.0429	-0.518
Mof_C 	C 	0.0088	0.3123	0.1616	-0.696
Mof_C 	C 	0.9015	0.1583	0.1922	0.087
Mof_C 	C 	0.86752	0.13195	0.21638	-0.23
Mof_C 	C 	0.84546	0.07602	0.18532	0.332
Mof_C 	C 	0.81495	0.05446	0.2145	-0.487
Mof_C 	C 	0.80651	0.0888	0.27472	0.215
Mof_C 	C 	0.82857	0.14473	0.30578	-0.169
Mof_C 	C 	0.85908	0.1663	0.2766	0.082
Mof_C 	C 	0.7873	0.9935	0.1809	1.095
Mof_C 	C 	0.828	0.9441	0.1511	-1.578
Mof_C 	C 	0.7494	0.9936	0.135	-1.579
Mof_C 	C 	0.7535	0.9797	0.2221	-1.517
Mof_C 	C 	0.8254	0.17977	0.37187	0.132
Mof_C 	C 	0.8268	0.24087	0.40076	-0.165
Mof_C 	C 	0.8259	0.27316	0.46186	0.086
Mof_C 	C 	0.8222	0.1832	0.46521	0.084
Mof_C 	C 	0.8231	0.15093	0.4041	-0.165
Mof_C 	C 	0.96532	0.94066	0.07058	0.074
Mof_C 	C 	0.94989	0.88218	0.04573	0.044
Mof_C 	C 	0.96493	0.84957	0.07183	-0.212
Mof_C 	C 	0.99541	0.87545	0.12279	0.19
Mof_C 	C 	0.01084	0.93393	0.14763	0.017
Mof_C 	C 	0.9958	0.96654	0.12153	-0.044
Mof_C 	C 	0.048	0.9571	0.2	-0.496
Mof_C 	C 	0.0088	0.8384	0.1507	-0.726
Mof_C 	C 	0.9015	0.8078	0.9661	0.087
Mof_C 	C 	0.86752	0.78362	0.91557	-0.229
Mof_C 	C 	0.84546	0.81468	0.8907	0.33
Mof_C 	C 	0.81495	0.7855	0.83996	-0.482
Mof_C 	C 	0.80651	0.72528	0.81408	0.212
Mof_C 	C 	0.82857	0.69422	0.83895	-0.167
Mof_C 	C 	0.85908	0.7234	0.8897	0.081
Mof_C 	C 	0.7873	0.8191	0.8126	1.078
Mof_C 	C 	0.828	0.8489	0.793	-1.558
Mof_C 	C 	0.7494	0.865	0.8586	-1.546
Mof_C 	C 	0.7535	0.7779	0.7576	-1.493
Mof_C 	C 	0.8254	0.62813	0.8079	0.131
Mof_C 	C 	0.8268	0.59924	0.84011	-0.165
Mof_C 	C 	0.8259	0.53814	0.8113	0.085
Mof_C 	C 	0.8222	0.53479	0.71799	0.083
Mof_C 	C 	0.8231	0.5959	0.74683	-0.164
Mof_S 	S 	0.5886	0.3654	0.7327	0.701
Mof_S 	S 	0.5886	0.3673	0.6346	0.701
Mof_S 	S 	0.5886	0.2673	0.6327	0.701
Mof_S 	S 	0.0886	0.6346	0.2673	0.701
Mof_S 	S 	0.0886	0.6327	0.3654	0.701
Mof_S 	S 	0.0886	0.7327	0.3673	0.701
Mof_S 	S 	0.4114	0.6327	0.2673	0.701
Mof_S 	S 	0.4114	0.7327	0.3654	0.701
Mof_S 	S 	0.4114	0.6346	0.3673	0.701
Mof_S 	S 	0.9114	0.3673	0.7327	0.701
Mof_S 	S 	0.9114	0.2673	0.6346	0.701
Mof_S 	S 	0.9114	0.3654	0.6327	0.701
Mof_S 	S 	0.75	0.40436	0.80872	0.662
Mof_S 	S 	0.75	0.40436	0.59564	0.662
Mof_S 	S 	0.75	0.19128	0.59564	0.662
Mof_S 	S 	0.25	0.59564	0.19128	0.662
Mof_S 	S 	0.25	0.59564	0.40436	0.662
Mof_S 	S 	0.25	0.80872	0.40436	0.662
Mof_N 	N 	0.6764	0.50591	0.75571	-0.191
Mof_N 	N 	0.58316	0.8615	0.8652	-0.245
Mof_N 	N 	0.6764	0.2498	0.49409	-0.191
Mof_N 	N 	0.58316	0.0037	0.1385	-0.244
Mof_N 	N 	0.6764	0.24429	0.7502	-0.191
Mof_N 	N 	0.58316	0.1348	0.9963	-0.247
Mof_N 	N 	0.1764	0.49409	0.24429	-0.191
Mof_N 	N 	0.08316	0.1385	0.1348	-0.244
Mof_N 	N 	0.1764	0.7502	0.50591	-0.191
Mof_N 	N 	0.08316	0.9963	0.8615	-0.248
Mof_N 	N 	0.1764	0.75571	0.2498	-0.191
Mof_N 	N 	0.08316	0.8652	0.0037	-0.244
Mof_N 	N 	0.3236	0.7502	0.24429	-0.191
Mof_N 	N 	0.41684	0.9963	0.1348	-0.247
Mof_N 	N 	0.3236	0.75571	0.50591	-0.191
Mof_N 	N 	0.41684	0.8652	0.8615	-0.245
Mof_N 	N 	0.3236	0.49409	0.2498	-0.191
Mof_N 	N 	0.41684	0.1385	0.0037	-0.244
Mof_N 	N 	0.8236	0.2498	0.75571	-0.191
Mof_N 	N 	0.91684	0.0037	0.8652	-0.246
Mof_N 	N 	0.8236	0.24429	0.49409	-0.191
Mof_N 	N 	0.91684	0.1348	0.1385	-0.247
Mof_N 	N 	0.8236	0.50591	0.7502	-0.191
Mof_N 	N 	0.91684	0.8615	0.9963	-0.251
Mof_O 	O 	0.55128	0.97087	0.92758	-0.488
Mof_O 	O 	0.64611	0.87285	0.95868	-0.467
Mof_O 	O 	0.7517	0.4303	0.7695	-0.459
Mof_O 	O 	0.7016	0.4225	0.8443	-0.28
Mof_O 	O 	0.6259	0.4153	0.7557	-0.39
Mof_O 	O 	0.5365	0.3827	0.7644	-0.246
Mof_O 	O 	0.6189	0.3239	0.7456	-0.386
Mof_O 	O 	0.55128	0.95671	0.02913	-0.486
Mof_O 	O 	0.64611	0.08583	0.12715	-0.468
Mof_O 	O 	0.7517	0.3392	0.5697	-0.459
Mof_O 	O 	0.7016	0.4218	0.5775	-0.28
Mof_O 	O 	0.6259	0.3404	0.5847	-0.39
Mof_O 	O 	0.5365	0.3817	0.6173	-0.246
Mof_O 	O 	0.6189	0.4217	0.6761	-0.386
Mof_O 	O 	0.55128	0.07242	0.04329	-0.484
Mof_O 	O 	0.64611	0.04132	0.91417	-0.468
Mof_O 	O 	0.7517	0.2305	0.6608	-0.459
Mof_O 	O 	0.7016	0.1557	0.5782	-0.279
Mof_O 	O 	0.6259	0.2443	0.6596	-0.39
Mof_O 	O 	0.5365	0.2356	0.6183	-0.246
Mof_O 	O 	0.6189	0.2544	0.5783	-0.386
Mof_O 	O 	0.05128	0.02913	0.07242	-0.488
Mof_O 	O 	0.14611	0.12715	0.04132	-0.468
Mof_O 	O 	0.2517	0.5697	0.2305	-0.459
Mof_O 	O 	0.2016	0.5775	0.1557	-0.28
Mof_O 	O 	0.1259	0.5847	0.2443	-0.39
Mof_O 	O 	0.0365	0.6173	0.2356	-0.247
Mof_O 	O 	0.1189	0.6761	0.2544	-0.387
Mof_O 	O 	0.05128	0.04329	0.97087	-0.486
Mof_O 	O 	0.14611	0.91417	0.87285	-0.468
Mof_O 	O 	0.2517	0.6608	0.4303	-0.459
Mof_O 	O 	0.2016	0.5782	0.4225	-0.28
Mof_O 	O 	0.1259	0.6596	0.4153	-0.391
Mof_O 	O 	0.0365	0.6183	0.3827	-0.247
Mof_O 	O 	0.1189	0.5783	0.3239	-0.387
Mof_O 	O 	0.05128	0.92758	0.95671	-0.489
Mof_O 	O 	0.14611	0.95868	0.08583	-0.468
Mof_O 	O 	0.2517	0.7695	0.3392	-0.459
Mof_O 	O 	0.2016	0.8443	0.4218	-0.28
Mof_O 	O 	0.1259	0.7557	0.3404	-0.391
Mof_O 	O 	0.0365	0.7644	0.3817	-0.248
Mof_O 	O 	0.1189	0.7456	0.4217	-0.387
Mof_O 	O 	0.44872	0.04329	0.07242	-0.484
Mof_O 	O 	0.35389	0.91417	0.04132	-0.468
Mof_O 	O 	0.2483	0.6608	0.2305	-0.459
Mof_O 	O 	0.2984	0.5782	0.1557	-0.279
Mof_O 	O 	0.3741	0.6596	0.2443	-0.39
Mof_O 	O 	0.4635	0.6183	0.2356	-0.246
Mof_O 	O 	0.3811	0.5783	0.2544	-0.386
Mof_O 	O 	0.44872	0.92758	0.97087	-0.488
Mof_O 	O 	0.35389	0.95868	0.87285	-0.467
Mof_O 	O 	0.2483	0.7695	0.4303	-0.459
Mof_O 	O 	0.2984	0.8443	0.4225	-0.28
Mof_O 	O 	0.3741	0.7557	0.4153	-0.39
Mof_O 	O 	0.4635	0.7644	0.3827	-0.246
Mof_O 	O 	0.3811	0.7456	0.3239	-0.386
Mof_O 	O 	0.44872	0.02913	0.95671	-0.486
Mof_O 	O 	0.35389	0.12715	0.08583	-0.468
Mof_O 	O 	0.2483	0.5697	0.3392	-0.459
Mof_O 	O 	0.2984	0.5775	0.4218	-0.28
Mof_O 	O 	0.3741	0.5847	0.3404	-0.39
Mof_O 	O 	0.4635	0.6173	0.3817	-0.246
Mof_O 	O 	0.3811	0.6761	0.4217	-0.386
Mof_O 	O 	0.94872	0.95671	0.92758	-0.486
Mof_O 	O 	0.85389	0.08583	0.95868	-0.468
Mof_O 	O 	0.7483	0.3392	0.7695	-0.459
Mof_O 	O 	0.7984	0.4218	0.8443	-0.28
Mof_O 	O 	0.8741	0.3404	0.7557	-0.39
Mof_O 	O 	0.9635	0.3817	0.7644	-0.246
Mof_O 	O 	0.8811	0.4217	0.7456	-0.386
Mof_O 	O 	0.94872	0.07242	0.02913	-0.482
Mof_O 	O 	0.85389	0.04132	0.12715	-0.468
Mof_O 	O 	0.7483	0.2305	0.5697	-0.459
Mof_O 	O 	0.7984	0.1557	0.5775	-0.279
Mof_O 	O 	0.8741	0.2443	0.5847	-0.39
Mof_O 	O 	0.9635	0.2356	0.6173	-0.246
Mof_O 	O 	0.8811	0.2544	0.6761	-0.386
Mof_O 	O 	0.94872	0.97087	0.04329	-0.481
Mof_O 	O 	0.85389	0.87285	0.91417	-0.468
Mof_O 	O 	0.7483	0.4303	0.6608	-0.459
Mof_O 	O 	0.7984	0.4225	0.5782	-0.279
Mof_O 	O 	0.8741	0.4153	0.6596	-0.39
Mof_O 	O 	0.9635	0.3827	0.6183	-0.246
Mof_O 	O 	0.8811	0.3239	0.5783	-0.386
Mof_O 	O 	0.6359	0	-0	-0.559
Mof_O 	O 	0.1359	0	-0	-0.56
Mof_O 	O 	0.3641	0	-0	-0.56
Mof_O 	O 	0.8641	0	-0	-0.559
Mof_O 	O 	0.6988	0.33333	0.66666	-0.506
Mof_O 	O 	0.578	0.33333	0.66666	-0.567
Mof_O 	O 	0.1988	0.66667	0.33334	-0.506
Mof_O 	O 	0.078	0.66667	0.33334	-0.567
Mof_O 	O 	0.3012	0.66667	0.33334	-0.506
Mof_O 	O 	0.422	0.66667	0.33334	-0.567
Mof_O 	O 	0.8012	0.33333	0.66666	-0.506
Mof_O 	O 	0.922	0.33333	0.66666	-0.567
_end
