# CIF file generated by openbabel 3.1.0, see https://openbabel.org
data_I
_chemical_name_common 'image0'
_cell_length_a 10.143
_cell_length_b 10.257
_cell_length_c 15.5
_cell_angle_alpha 86.982
_cell_angle_beta 73.52
_cell_angle_gamma 81.229
_space_group_name_H-M_alt 'P 1'
_space_group_name_Hall 'P 1'
loop_
    _symmetry_equiv_pos_as_xyz
    x,y,z
loop_
    _atom_site_label
    _atom_site_type_symbol
    _atom_site_fract_x
    _atom_site_fract_y
    _atom_site_fract_z
    _atom_site_occupancy
    Zn1      Zn       0.48645    0.24757    0.15729    1.000
    Zn2      Zn       0.45532    0.23912    0.93405    1.000
    Zn3      Zn       0.45758    0.77761    0.30037    1.000
    Zn4      Zn       0.45864    0.07837    0.39344    1.000
    P1       P        0.58510    0.50795    0.19815    1.000
    P2       P        0.64020    0.95420    0.20262    1.000
    P3       P        0.64800    0.16340    0.48638    1.000
    O1       O        0.54720    0.30000    0.02870    1.000
    O2       O        0.53030    0.57390    0.12220    1.000
    O3       O        0.53060    0.37830    0.22660    1.000
    O4       O        0.54780    0.59700    0.27950    1.000
    O5       O        0.26730    0.29050    0.01660    1.000
    O6       O        0.28880    0.48800    0.06420    1.000
    O7       O        0.61370    0.83710    0.15930    1.000
    O8       O        0.61360    0.08390    0.15670    1.000
    O9       O        0.54990    0.94620    0.30110    1.000
    O10      O        0.33700    0.84510    0.12570    1.000
    O11      O        0.27680    0.82610    0.27620    1.000
    O12      O        0.33350    0.20210    0.34100    1.000
    O13      O        0.29170    0.21660    0.20810    1.000
    O14      O        0.65170    0.01730    0.51020    1.000
    O15      O        0.55860    0.20600    0.42340    1.000
    O16      O        0.60660    0.25190    0.56780    1.000
    C1       C        0.77300    0.47530    0.15930    1.000
    C2       C        0.83900    0.36230    0.10990    1.000
    H1       H        0.78650    0.30160    0.09890    1.000
    C3       C        0.98250    0.34000    0.07730    1.000
    H2       H        0.02510    0.26430    0.04440    1.000
    C4       C        0.06360    0.42800    0.09290    1.000
    C5       C        0.99940    0.53830    0.14270    1.000
    H3       H        0.05280    0.59760    0.15450    1.000
    C6       C        0.85560    0.56240    0.17560    1.000
    H4       H        0.81390    0.63780    0.20910    1.000
    C7       C        0.21970    0.40140    0.05510    1.000
    C8       C        0.81890    0.92850    0.20600    1.000
    C9       C        0.92360    0.94510    0.12770    1.000
    H5       H        0.90040    0.97280    0.07510    1.000
    C10      C        0.06310    0.92090    0.12700    1.000
    H6       H        0.13180    0.93320    0.07410    1.000
    C11      C        0.09910    0.87990    0.20220    1.000
    C12      C        0.99540    0.86370    0.28200    1.000
    H7       H        0.01890    0.83710    0.33470    1.000
    C13      C        0.85710    0.88780    0.28160    1.000
    H8       H        0.78850    0.87580    0.33460    1.000
    C14      C        0.25100    0.84610    0.20120    1.000
    C15      C        0.25330    0.20340    0.29190    1.000
    C16      C        0.10170    0.19590    0.33860    1.000
    C17      C        0.00480    0.21920    0.29120    1.000
    H9       H        0.03220    0.23820    0.22990    1.000
    C18      C        0.86410    0.21430    0.33560    1.000
    H10      H        0.79750    0.23210    0.30420    1.000
    C19      C        0.82540    0.18260    0.42660    1.000
    C20      C        0.92500    0.15860    0.47310    1.000
    H11      H        0.89890    0.13740    0.53410    1.000
    C21      C        0.06320    0.16610    0.42940    1.000
    H12      H        0.12960    0.15120    0.46100    1.000
    Zn5      Zn       0.51355    0.75243    0.84271    1.000
    Zn6      Zn       0.54468    0.76088    0.06595    1.000
    Zn7      Zn       0.54242    0.22239    0.69963    1.000
    Zn8      Zn       0.54136    0.92163    0.60656    1.000
    P4       P        0.41490    0.49205    0.80185    1.000
    P5       P        0.35980    0.04580    0.79738    1.000
    P6       P        0.35200    0.83660    0.51362    1.000
    O17      O        0.45280    0.70000    0.97130    1.000
    O18      O        0.46970    0.42610    0.87780    1.000
    O19      O        0.46940    0.62170    0.77340    1.000
    O20      O        0.45220    0.40300    0.72050    1.000
    O21      O        0.73270    0.70950    0.98340    1.000
    O22      O        0.71120    0.51200    0.93580    1.000
    O23      O        0.38630    0.16290    0.84070    1.000
    O24      O        0.38640    0.91610    0.84330    1.000
    O25      O        0.45010    0.05380    0.69890    1.000
    O26      O        0.66300    0.15490    0.87430    1.000
    O27      O        0.72320    0.17390    0.72380    1.000
    O28      O        0.66650    0.79790    0.65900    1.000
    O29      O        0.70830    0.78340    0.79190    1.000
    O30      O        0.34830    0.98270    0.48980    1.000
    O31      O        0.44140    0.79400    0.57660    1.000
    O32      O        0.39340    0.74810    0.43220    1.000
    C22      C        0.22700    0.52470    0.84070    1.000
    C23      C        0.16100    0.63770    0.89010    1.000
    H13      H        0.21350    0.69840    0.90110    1.000
    C24      C        0.01750    0.66000    0.92270    1.000
    H14      H        0.97490    0.73570    0.95560    1.000
    C25      C        0.93640    0.57200    0.90710    1.000
    C26      C        0.00060    0.46170    0.85730    1.000
    H15      H        0.94720    0.40240    0.84550    1.000
    C27      C        0.14440    0.43760    0.82440    1.000
    H16      H        0.18610    0.36220    0.79090    1.000
    C28      C        0.78030    0.59860    0.94490    1.000
    C29      C        0.18110    0.07150    0.79400    1.000
    C30      C        0.07640    0.05490    0.87230    1.000
    H17      H        0.09960    0.02720    0.92490    1.000
    C31      C        0.93690    0.07910    0.87300    1.000
    H18      H        0.86820    0.06680    0.92590    1.000
    C32      C        0.90090    0.12010    0.79780    1.000
    C33      C        0.00460    0.13630    0.71800    1.000
    H19      H        0.98110    0.16290    0.66530    1.000
    C34      C        0.14290    0.11220    0.71840    1.000
    H20      H        0.21150    0.12420    0.66540    1.000
    C35      C        0.74900    0.15390    0.79880    1.000
    C36      C        0.74670    0.79660    0.70810    1.000
    C37      C        0.89830    0.80410    0.66140    1.000
    C38      C        0.99520    0.78080    0.70880    1.000
    H21      H        0.96780    0.76180    0.77010    1.000
    C39      C        0.13590    0.78570    0.66440    1.000
    H22      H        0.20250    0.76790    0.69580    1.000
    C40      C        0.17460    0.81740    0.57340    1.000
    C41      C        0.07500    0.84140    0.52690    1.000
    H23      H        0.10110    0.86260    0.46590    1.000
    C42      C        0.93680    0.83390    0.57060    1.000
    H24      H        0.87040    0.84880    0.53900    1.000
    Zn9      Zn       0.50000    0.50000    0.00000    1.000
