data_functionalizedCrystal
_audit_creation_method	'EQeq! by Chris Wilmer'
_symmetry_space_group_name_H-M	'P1'
_symmetry_Int_Tables_number	1
_symmetry_cell_setting	triclinic
loop_
_symmetry_equiv_pos_as_xyz
  x,y,z
_cell_length_a	13.8039
_cell_length_b	16.8679
_cell_length_c	20.7639
_cell_angle_alpha	90
_cell_angle_beta	90
_cell_angle_gamma	90
loop_
_atom_site_label
_atom_site_type_symbol
_atom_site_fract_x
_atom_site_fract_y
_atom_site_fract_z
_atom_site_charge
Mof_Ni	Ni	0.88	0.20366	0.07707	1.078
Mof_Ni	Ni	0.03669	0.20287	0.41362	1.078
Mof_N 	N 	0.82975	0.20902	0.17056	-0.266
Mof_C 	C 	0.8101	0.21249	0.22406	0.173
Mof_N 	N 	0.9013	0.21513	0.37065	-0.264
Mof_C 	C 	0.8472	0.21475	0.32899	0.169
Mof_N 	N 	0.7798	0.2149	0.28413	-0.176
Mof_N 	N 	0.01937	0.19252	0.1178	-0.26
Mof_C 	C 	0.0705	0.18631	0.16083	0.165
Mof_N 	N 	0.09432	0.19501	0.32062	-0.263
Mof_C 	C 	0.1102	0.1891	0.26666	0.17
Mof_N 	N 	0.1369	0.18	0.20623	-0.175
Mof_N 	N 	0.93595	0.20419	0.98276	-0.254
Mof_C 	C 	0.9975	0.23723	0.957	0.166
Mof_N 	N 	0.23384	0.2846	0.94791	-0.259
Mof_C 	C 	0.1519	0.27914	0.93853	0.174
Mof_N 	N 	0.06011	0.2773	0.92273	-0.176
Mof_N 	N 	0.90103	0.32539	0.07437	-0.266
Mof_C 	C 	0.9407	0.38342	0.06327	0.175
Mof_N 	N 	0.97955	0.58229	0.08092	-0.27
Mof_C 	C 	0.9807	0.51636	0.06723	0.18
Mof_N 	N 	0.9938	0.44429	0.04606	-0.181
Mof_N 	N 	0.1738	0.19125	0.45429	-0.262
Mof_C 	C 	0.257	0.19064	0.45697	0.172
Mof_N 	N 	0.46693	0.28415	0.49491	-0.246
Mof_C 	C 	0.4088	0.23985	0.4789	0.159
Mof_N 	N 	0.3521	0.18295	0.45775	-0.174
Mof_N 	N 	0.9412	0.82375	0.08913	-0.267
Mof_C 	C 	0.8982	0.88191	0.09151	0.176
Mof_N 	N 	0.86916	0.08224	0.07311	-0.268
Mof_C 	C 	0.8623	0.01541	0.083	0.178
Mof_N 	N 	0.83901	0.94188	0.09644	-0.182
Mof_Ni	Ni	0.62	0.79634	0.57707	1.077
Mof_Ni	Ni	0.46331	0.79713	0.91362	1.077
Mof_N 	N 	0.67025	0.79098	0.67056	-0.267
Mof_C 	C 	0.6899	0.78751	0.72406	0.172
Mof_N 	N 	0.5987	0.78487	0.87065	-0.264
Mof_C 	C 	0.6528	0.78525	0.82899	0.169
Mof_N 	N 	0.7202	0.7851	0.78413	-0.176
Mof_N 	N 	0.48063	0.80748	0.6178	-0.26
Mof_C 	C 	0.4295	0.81369	0.66083	0.165
Mof_N 	N 	0.40568	0.80499	0.82062	-0.263
Mof_C 	C 	0.3898	0.8109	0.76666	0.169
Mof_N 	N 	0.3631	0.82	0.70623	-0.175
Mof_N 	N 	0.56405	0.79581	0.48276	-0.254
Mof_C 	C 	0.5025	0.76277	0.457	0.164
Mof_N 	N 	0.26616	0.7154	0.44791	-0.259
Mof_C 	C 	0.3481	0.72086	0.43853	0.174
Mof_N 	N 	0.43989	0.7227	0.42273	-0.175
Mof_N 	N 	0.59897	0.67461	0.57437	-0.266
Mof_C 	C 	0.5593	0.61658	0.56327	0.175
Mof_N 	N 	0.52045	0.41771	0.58092	-0.27
Mof_C 	C 	0.5193	0.48364	0.56723	0.18
Mof_N 	N 	0.5062	0.55571	0.54606	-0.181
Mof_N 	N 	0.3262	0.80875	0.95429	-0.262
Mof_C 	C 	0.243	0.80936	0.95697	0.172
Mof_N 	N 	0.03307	0.71585	0.99491	-0.247
Mof_C 	C 	0.0912	0.76015	0.9789	0.158
Mof_N 	N 	0.1479	0.81705	0.95775	-0.175
Mof_N 	N 	0.5588	0.17625	0.58913	-0.267
Mof_C 	C 	0.6018	0.11809	0.59151	0.176
Mof_N 	N 	0.63084	0.91776	0.57311	-0.268
Mof_C 	C 	0.6377	0.98459	0.583	0.178
Mof_N 	N 	0.66099	0.05812	0.59644	-0.181
Mof_Ni	Ni	0.12	0.70366	0.42293	1.077
Mof_Ni	Ni	0.96331	0.70287	0.08638	1.077
Mof_N 	N 	0.17025	0.70902	0.32944	-0.267
Mof_C 	C 	0.1899	0.71249	0.27594	0.172
Mof_N 	N 	0.0987	0.71513	0.12935	-0.264
Mof_C 	C 	0.1528	0.71475	0.17101	0.169
Mof_N 	N 	0.2202	0.7149	0.21587	-0.175
Mof_N 	N 	0.98063	0.69252	0.3822	-0.26
Mof_C 	C 	0.9295	0.68631	0.33917	0.165
Mof_N 	N 	0.90568	0.69501	0.17938	-0.263
Mof_C 	C 	0.8898	0.6891	0.23334	0.17
Mof_N 	N 	0.8631	0.68	0.29377	-0.175
Mof_N 	N 	0.06405	0.70419	0.51724	-0.254
Mof_C 	C 	0.0025	0.73723	0.543	0.164
Mof_N 	N 	0.76616	0.7846	0.55209	-0.259
Mof_C 	C 	0.8481	0.77914	0.56147	0.174
Mof_N 	N 	0.93989	0.7773	0.57727	-0.175
Mof_N 	N 	0.09897	0.82539	0.42563	-0.266
Mof_C 	C 	0.0593	0.88342	0.43673	0.175
Mof_N 	N 	0.02045	0.08229	0.41908	-0.27
Mof_C 	C 	0.0193	0.01636	0.43277	0.18
Mof_N 	N 	0.0062	0.94429	0.45394	-0.181
Mof_N 	N 	0.8262	0.69125	0.04571	-0.262
Mof_C 	C 	0.743	0.69064	0.04303	0.173
Mof_N 	N 	0.53307	0.78415	0.00509	-0.246
Mof_C 	C 	0.5912	0.73985	0.0211	0.159
Mof_N 	N 	0.6479	0.68295	0.04225	-0.174
Mof_N 	N 	0.0588	0.32375	0.41087	-0.267
Mof_C 	C 	0.1018	0.38191	0.40849	0.176
Mof_N 	N 	0.13084	0.58224	0.42689	-0.268
Mof_C 	C 	0.1377	0.51541	0.417	0.178
Mof_N 	N 	0.16099	0.44188	0.40356	-0.182
Mof_Ni	Ni	0.38	0.29634	0.92293	1.077
Mof_Ni	Ni	0.53669	0.29713	0.58638	1.077
Mof_N 	N 	0.32975	0.29098	0.82944	-0.267
Mof_C 	C 	0.3101	0.28751	0.77594	0.172
Mof_N 	N 	0.4013	0.28487	0.62935	-0.264
Mof_C 	C 	0.3472	0.28525	0.67101	0.169
Mof_N 	N 	0.2798	0.2851	0.71587	-0.176
Mof_N 	N 	0.51937	0.30748	0.8822	-0.26
Mof_C 	C 	0.5705	0.31369	0.83917	0.165
Mof_N 	N 	0.59432	0.30499	0.67938	-0.263
Mof_C 	C 	0.6102	0.3109	0.73334	0.17
Mof_N 	N 	0.6369	0.32	0.79377	-0.175
Mof_N 	N 	0.43595	0.29581	0.01724	-0.254
Mof_C 	C 	0.4975	0.26277	0.043	0.164
Mof_N 	N 	0.73384	0.2154	0.05209	-0.259
Mof_C 	C 	0.6519	0.22086	0.06147	0.174
Mof_N 	N 	0.56011	0.2227	0.07727	-0.175
Mof_N 	N 	0.40103	0.17461	0.92563	-0.266
Mof_C 	C 	0.4407	0.11658	0.93673	0.175
Mof_N 	N 	0.47955	0.91771	0.91908	-0.27
Mof_C 	C 	0.4807	0.98364	0.93277	0.179
Mof_N 	N 	0.4938	0.05571	0.95394	-0.181
Mof_N 	N 	0.6738	0.30875	0.54571	-0.262
Mof_C 	C 	0.757	0.30936	0.54303	0.173
Mof_N 	N 	0.96693	0.21585	0.50509	-0.246
Mof_C 	C 	0.9088	0.26015	0.5211	0.159
Mof_N 	N 	0.8521	0.31705	0.54225	-0.174
Mof_N 	N 	0.4412	0.67625	0.91087	-0.267
Mof_C 	C 	0.3982	0.61809	0.90849	0.176
Mof_N 	N 	0.36916	0.41776	0.92689	-0.268
Mof_C 	C 	0.3623	0.48459	0.917	0.178
Mof_N 	N 	0.33901	0.55812	0.90356	-0.182
_end
