data_functionalizedCrystal
_audit_creation_method	'EQeq! by Chris Wilmer'
_symmetry_space_group_name_H-M	'P1'
_symmetry_Int_Tables_number	1
_symmetry_cell_setting	triclinic
loop_
_symmetry_equiv_pos_as_xyz
  x,y,z
_cell_length_a	29.535
_cell_length_b	29.535
_cell_length_c	28.0993
_cell_angle_alpha	90
_cell_angle_beta	90
_cell_angle_gamma	90
loop_
_atom_site_label
_atom_site_type_symbol
_atom_site_fract_x
_atom_site_fract_y
_atom_site_fract_z
_atom_site_charge
Mof_Cu	Cu	0.18787	0.17381	0.23479	0.92
Mof_Cu	Cu	0.14191	0.13118	0.302	0.908
Mof_O 	O 	0.05526	0.27762	0.45106	-0.403
Mof_O 	O 	0.05786	0.35295	0.45023	-0.397
Mof_O 	O 	0.1671	0.3876	0.31531	-0.222
Mof_O 	O 	0.14765	0.59743	0.33124	-0.215
Mof_O 	O 	0.16025	0.75945	0.27475	-0.391
Mof_O 	O 	0.12392	0.79853	0.33049	-0.4
Mof_O 	O 	0.03704	0.71846	0.45182	-0.392
Mof_O 	O 	0.03425	0.64225	0.45114	-0.393
Mof_O 	O 	0.13764	0.19155	0.33072	-0.396
Mof_O 	O 	0.17642	0.22765	0.27359	-0.388
Mof_O 	O 	0.19194	0.11285	0.20822	-0.398
Mof_O 	O 	0.15257	0.07714	0.26454	-0.397
Mof_O 	O 	0.14536	0.91134	0.26446	-0.4
Mof_O 	O 	0.18166	0.87289	0.2078	-0.4
Mof_O 	O 	0.2522	0.99211	0.1045	-0.207
Mof_C 	C 	0.11346	0.27225	0.37334	-0.023
Mof_H 	H 	0.1013	0.2449	0.3857	0.066
Mof_C 	C 	0.168	0.9087	0.2263	0.342
Mof_C 	C 	0.14312	0.27056	0.33453	-0.036
Mof_C 	C 	0.16045	0.31065	0.3171	-0.118
Mof_H 	H 	0.1812	0.3099	0.2913	0.099
Mof_C 	C 	0.1481	0.35225	0.3366	0.185
Mof_C 	C 	0.11926	0.35314	0.3756	-0.126
Mof_H 	H 	0.1113	0.3811	0.39	0.088
Mof_C 	C 	0.10186	0.31237	0.39359	-0.033
Mof_C 	C 	0.1544	0.4287	0.3304	-0.034
Mof_H 	H 	0.1667	0.4341	0.3627	0.051
Mof_H 	H 	0.121	0.4302	0.3322	0.045
Mof_C 	C 	0.1722	0.46568	0.2958	0.141
Mof_C 	C 	0.1949	0.4552	0.2575	-0.182
Mof_H 	H 	0.1987	0.4242	0.2493	0.118
Mof_C 	C 	0.2138	0.4883	0.2283	0.11
Mof_H 	H 	0.2329	0.48	0.2025	0.003
Mof_C 	C 	0.2047	0.5327	0.2374	-0.185
Mof_H 	H 	0.2157	0.5556	0.2167	0.101
Mof_C 	C 	0.1795	0.5444	0.2764	0.145
Mof_C 	C 	0.1643	0.5108	0.3051	-0.192
Mof_H 	H 	0.1475	0.5186	0.3327	0.108
Mof_C 	C 	0.1719	0.5945	0.2881	-0.069
Mof_H 	H 	0.2014	0.6102	0.2913	0.062
Mof_H 	H 	0.1546	0.6093	0.2622	0.063
Mof_C 	C 	0.1326	0.63895	0.3439	0.177
Mof_C 	C 	0.14518	0.67879	0.3222	-0.122
Mof_H 	H 	0.1663	0.6786	0.2967	0.088
Mof_C 	C 	0.12663	0.71928	0.338	-0.043
Mof_C 	C 	0.09641	0.71961	0.3749	-0.019
Mof_H 	H 	0.0839	0.7475	0.3853	0.064
Mof_C 	C 	0.08389	0.67998	0.3971	-0.034
Mof_C 	C 	0.1015	0.6383	0.381	-0.113
Mof_H 	H 	0.0923	0.6105	0.3952	0.09
Mof_C 	C 	0.15355	0.22712	0.3122	0.325
Mof_C 	C 	0.06989	0.31423	0.4344	0.333
Mof_C 	C 	0.13825	0.76136	0.3132	0.328
Mof_C 	C 	0.04977	0.6797	0.43568	0.319
Mof_C 	C 	0.1861	0.0331	0.2032	-0.031
Mof_C 	C 	0.2131	0.0313	0.1633	-0.114
Mof_H 	H 	0.2234	0.0586	0.149	0.095
Mof_C 	C 	0.2251	0.9904	0.1443	0.172
Mof_C 	C 	0.2086	0.9504	0.1637	-0.116
Mof_H 	H 	0.2163	0.9221	0.1499	0.088
Mof_C 	C 	0.181	0.9519	0.2032	-0.035
Mof_C 	C 	0.1701	0.99279	0.2232	-0.02
Mof_H 	H 	0.1515	0.9938	0.2508	0.066
Mof_C 	C 	0.2708	0.9535	0.0876	-0.066
Mof_H 	H 	0.2469	0.9307	0.0812	0.053
Mof_H 	H 	0.2923	0.9407	0.1111	0.063
Mof_C 	C 	0.2961	0.9662	0.0405	0.185
Mof_C 	C 	0.3408	0.9682	0.0426	-0.217
Mof_H 	H 	0.3568	0.9676	0.072	0.103
Mof_C 	C 	0.1764	0.07764	0.2267	0.334
Mof_C 	C 	0.2319	0.173	0.1409	0.036
Mof_H 	H 	0.2259	0.1418	0.1461	0.034
Mof_C 	C 	0.2513	0.187	0.0983	-0.085
Mof_H 	H 	0.2585	0.1654	0.0744	0.058
Mof_C 	C 	0.2601	0.2327	0.0907	0.019
Mof_H 	H 	0.2734	0.2423	0.0615	0.02
Mof_C 	C 	0.2496	0.2643	0.1256	-0.091
Mof_H 	H 	0.2556	0.2955	0.1204	0.069
Mof_C 	C 	0.2302	0.2502	0.1682	0.051
Mof_H 	H 	0.223	0.2718	0.192	0.03
Mof_N 	N 	0.22134	0.2046	0.1758	-0.176
Mof_Cu	Cu	0.81213	0.82619	0.23479	0.919
Mof_Cu	Cu	0.85809	0.86882	0.302	0.907
Mof_O 	O 	0.94474	0.72238	0.45106	-0.404
Mof_O 	O 	0.94214	0.64705	0.45023	-0.398
Mof_O 	O 	0.8329	0.6124	0.31531	-0.223
Mof_O 	O 	0.85235	0.40257	0.33124	-0.216
Mof_O 	O 	0.83975	0.24055	0.27475	-0.392
Mof_O 	O 	0.87608	0.20147	0.33049	-0.401
Mof_O 	O 	0.96296	0.28154	0.45182	-0.393
Mof_O 	O 	0.96575	0.35775	0.45114	-0.394
Mof_O 	O 	0.86236	0.80845	0.33072	-0.397
Mof_O 	O 	0.82358	0.77235	0.27359	-0.389
Mof_O 	O 	0.80806	0.88715	0.20822	-0.399
Mof_O 	O 	0.84743	0.92286	0.26454	-0.398
Mof_O 	O 	0.85464	0.08866	0.26446	-0.401
Mof_O 	O 	0.81834	0.12711	0.2078	-0.401
Mof_O 	O 	0.7478	0.00789	0.1045	-0.208
Mof_C 	C 	0.88654	0.72775	0.37334	-0.024
Mof_H 	H 	0.8987	0.7551	0.3857	0.065
Mof_C 	C 	0.832	0.0913	0.2263	0.341
Mof_C 	C 	0.85688	0.72944	0.33453	-0.037
Mof_C 	C 	0.83955	0.68935	0.3171	-0.119
Mof_H 	H 	0.8188	0.6901	0.2913	0.098
Mof_C 	C 	0.8519	0.64775	0.3366	0.184
Mof_C 	C 	0.88074	0.64686	0.3756	-0.126
Mof_H 	H 	0.8887	0.6189	0.39	0.088
Mof_C 	C 	0.89814	0.68763	0.39359	-0.033
Mof_C 	C 	0.8456	0.5713	0.3304	-0.034
Mof_H 	H 	0.8333	0.5659	0.3627	0.051
Mof_H 	H 	0.879	0.5698	0.3322	0.045
Mof_C 	C 	0.8278	0.53432	0.2958	0.141
Mof_C 	C 	0.8051	0.5448	0.2575	-0.182
Mof_H 	H 	0.8013	0.5758	0.2493	0.118
Mof_C 	C 	0.7862	0.5117	0.2283	0.11
Mof_H 	H 	0.7671	0.52	0.2025	0.003
Mof_C 	C 	0.7953	0.4673	0.2374	-0.185
Mof_H 	H 	0.7843	0.4444	0.2167	0.101
Mof_C 	C 	0.8205	0.4556	0.2764	0.145
Mof_C 	C 	0.8357	0.4892	0.3051	-0.192
Mof_H 	H 	0.8525	0.4814	0.3327	0.108
Mof_C 	C 	0.8281	0.4055	0.2881	-0.069
Mof_H 	H 	0.7986	0.3898	0.2913	0.062
Mof_H 	H 	0.8454	0.3907	0.2622	0.063
Mof_C 	C 	0.8674	0.36105	0.3439	0.177
Mof_C 	C 	0.85482	0.32121	0.3222	-0.122
Mof_H 	H 	0.8337	0.3214	0.2967	0.088
Mof_C 	C 	0.87337	0.28072	0.338	-0.043
Mof_C 	C 	0.90359	0.28039	0.3749	-0.019
Mof_H 	H 	0.9161	0.2525	0.3853	0.064
Mof_C 	C 	0.91611	0.32002	0.3971	-0.034
Mof_C 	C 	0.8985	0.3617	0.381	-0.113
Mof_H 	H 	0.9077	0.3895	0.3952	0.09
Mof_C 	C 	0.84645	0.77288	0.3122	0.325
Mof_C 	C 	0.93011	0.68577	0.4344	0.333
Mof_C 	C 	0.86175	0.23864	0.3132	0.328
Mof_C 	C 	0.95023	0.3203	0.43568	0.319
Mof_C 	C 	0.8139	0.9669	0.2032	-0.031
Mof_C 	C 	0.7869	0.9687	0.1633	-0.114
Mof_H 	H 	0.7766	0.9414	0.149	0.095
Mof_C 	C 	0.7749	0.0096	0.1443	0.172
Mof_C 	C 	0.7914	0.0496	0.1637	-0.116
Mof_H 	H 	0.7837	0.0779	0.1499	0.088
Mof_C 	C 	0.819	0.0481	0.2032	-0.035
Mof_C 	C 	0.8299	0.00721	0.2232	-0.02
Mof_H 	H 	0.8485	0.0062	0.2508	0.066
Mof_C 	C 	0.7292	0.0465	0.0876	-0.066
Mof_H 	H 	0.7531	0.0693	0.0812	0.053
Mof_H 	H 	0.7077	0.0593	0.1111	0.063
Mof_C 	C 	0.7039	0.0338	0.0405	0.185
Mof_C 	C 	0.6592	0.0318	0.0426	-0.217
Mof_H 	H 	0.6432	0.0324	0.072	0.103
Mof_C 	C 	0.8236	0.92236	0.2267	0.334
Mof_C 	C 	0.7681	0.827	0.1409	0.036
Mof_H 	H 	0.7741	0.8582	0.1461	0.034
Mof_C 	C 	0.7487	0.813	0.0983	-0.085
Mof_H 	H 	0.7415	0.8346	0.0744	0.058
Mof_C 	C 	0.7399	0.7673	0.0907	0.019
Mof_H 	H 	0.7266	0.7577	0.0615	0.02
Mof_C 	C 	0.7504	0.7357	0.1256	-0.091
Mof_H 	H 	0.7444	0.7045	0.1204	0.069
Mof_C 	C 	0.7698	0.7498	0.1682	0.051
Mof_H 	H 	0.777	0.7282	0.192	0.03
Mof_N 	N 	0.77866	0.7954	0.1758	-0.176
Mof_Cu	Cu	0.82619	0.18787	0.23479	0.919
Mof_Cu	Cu	0.86882	0.14191	0.302	0.907
Mof_O 	O 	0.72238	0.05526	0.45106	-0.404
Mof_O 	O 	0.64705	0.05786	0.45023	-0.398
Mof_O 	O 	0.6124	0.1671	0.31531	-0.223
Mof_O 	O 	0.40257	0.14765	0.33124	-0.216
Mof_O 	O 	0.24055	0.16025	0.27475	-0.392
Mof_O 	O 	0.20147	0.12392	0.33049	-0.401
Mof_O 	O 	0.28154	0.03704	0.45182	-0.393
Mof_O 	O 	0.35775	0.03425	0.45114	-0.394
Mof_O 	O 	0.80845	0.13764	0.33072	-0.397
Mof_O 	O 	0.77235	0.17642	0.27359	-0.389
Mof_O 	O 	0.88715	0.19194	0.20822	-0.399
Mof_O 	O 	0.92286	0.15257	0.26454	-0.398
Mof_O 	O 	0.08866	0.14536	0.26446	-0.401
Mof_O 	O 	0.12711	0.18166	0.2078	-0.401
Mof_O 	O 	0.00789	0.2522	0.1045	-0.208
Mof_C 	C 	0.72775	0.11346	0.37334	-0.024
Mof_H 	H 	0.7551	0.1013	0.3857	0.065
Mof_C 	C 	0.0913	0.168	0.2263	0.341
Mof_C 	C 	0.72944	0.14312	0.33453	-0.037
Mof_C 	C 	0.68935	0.16045	0.3171	-0.119
Mof_H 	H 	0.6901	0.1812	0.2913	0.098
Mof_C 	C 	0.64775	0.1481	0.3366	0.184
Mof_C 	C 	0.64686	0.11926	0.3756	-0.126
Mof_H 	H 	0.6189	0.1113	0.39	0.088
Mof_C 	C 	0.68763	0.10186	0.39359	-0.033
Mof_C 	C 	0.5713	0.1544	0.3304	-0.034
Mof_H 	H 	0.5659	0.1667	0.3627	0.051
Mof_H 	H 	0.5698	0.121	0.3322	0.045
Mof_C 	C 	0.53432	0.1722	0.2958	0.141
Mof_C 	C 	0.5448	0.1949	0.2575	-0.182
Mof_H 	H 	0.5758	0.1987	0.2493	0.118
Mof_C 	C 	0.5117	0.2138	0.2283	0.11
Mof_H 	H 	0.52	0.2329	0.2025	0.003
Mof_C 	C 	0.4673	0.2047	0.2374	-0.185
Mof_H 	H 	0.4444	0.2157	0.2167	0.101
Mof_C 	C 	0.4556	0.1795	0.2764	0.145
Mof_C 	C 	0.4892	0.1643	0.3051	-0.192
Mof_H 	H 	0.4814	0.1475	0.3327	0.108
Mof_C 	C 	0.4055	0.1719	0.2881	-0.069
Mof_H 	H 	0.3898	0.2014	0.2913	0.062
Mof_H 	H 	0.3907	0.1546	0.2622	0.063
Mof_C 	C 	0.36105	0.1326	0.3439	0.177
Mof_C 	C 	0.32121	0.14518	0.3222	-0.122
Mof_H 	H 	0.3214	0.1663	0.2967	0.088
Mof_C 	C 	0.28072	0.12663	0.338	-0.043
Mof_C 	C 	0.28039	0.09641	0.3749	-0.019
Mof_H 	H 	0.2525	0.0839	0.3853	0.064
Mof_C 	C 	0.32002	0.08389	0.3971	-0.034
Mof_C 	C 	0.3617	0.1015	0.381	-0.113
Mof_H 	H 	0.3895	0.0923	0.3952	0.09
Mof_C 	C 	0.77288	0.15355	0.3122	0.325
Mof_C 	C 	0.68577	0.06989	0.4344	0.333
Mof_C 	C 	0.23864	0.13825	0.3132	0.328
Mof_C 	C 	0.3203	0.04977	0.43568	0.319
Mof_C 	C 	0.9669	0.1861	0.2032	-0.031
Mof_C 	C 	0.9687	0.2131	0.1633	-0.114
Mof_H 	H 	0.9414	0.2234	0.149	0.095
Mof_C 	C 	0.0096	0.2251	0.1443	0.172
Mof_C 	C 	0.0496	0.2086	0.1637	-0.116
Mof_H 	H 	0.0779	0.2163	0.1499	0.088
Mof_C 	C 	0.0481	0.181	0.2032	-0.035
Mof_C 	C 	0.00721	0.1701	0.2232	-0.02
Mof_H 	H 	0.0062	0.1515	0.2508	0.066
Mof_C 	C 	0.0465	0.2708	0.0876	-0.066
Mof_H 	H 	0.0693	0.2469	0.0812	0.053
Mof_H 	H 	0.0593	0.2923	0.1111	0.063
Mof_C 	C 	0.0338	0.2961	0.0405	0.185
Mof_C 	C 	0.0318	0.3408	0.0426	-0.217
Mof_H 	H 	0.0324	0.3568	0.072	0.103
Mof_C 	C 	0.92236	0.1764	0.2267	0.334
Mof_C 	C 	0.827	0.2319	0.1409	0.036
Mof_H 	H 	0.8582	0.2259	0.1461	0.034
Mof_C 	C 	0.813	0.2513	0.0983	-0.085
Mof_H 	H 	0.8346	0.2585	0.0744	0.058
Mof_C 	C 	0.7673	0.2601	0.0907	0.019
Mof_H 	H 	0.7577	0.2734	0.0615	0.02
Mof_C 	C 	0.7357	0.2496	0.1256	-0.091
Mof_H 	H 	0.7045	0.2556	0.1204	0.069
Mof_C 	C 	0.7498	0.2302	0.1682	0.051
Mof_H 	H 	0.7282	0.223	0.192	0.03
Mof_N 	N 	0.7954	0.22134	0.1758	-0.176
Mof_Cu	Cu	0.17381	0.81213	0.23479	0.919
Mof_Cu	Cu	0.13118	0.85809	0.302	0.907
Mof_O 	O 	0.27762	0.94474	0.45106	-0.404
Mof_O 	O 	0.35295	0.94214	0.45023	-0.398
Mof_O 	O 	0.3876	0.8329	0.31531	-0.223
Mof_O 	O 	0.59743	0.85235	0.33124	-0.216
Mof_O 	O 	0.75945	0.83975	0.27475	-0.392
Mof_O 	O 	0.79853	0.87608	0.33049	-0.401
Mof_O 	O 	0.71846	0.96296	0.45182	-0.393
Mof_O 	O 	0.64225	0.96575	0.45114	-0.394
Mof_O 	O 	0.19155	0.86236	0.33072	-0.397
Mof_O 	O 	0.22765	0.82358	0.27359	-0.389
Mof_O 	O 	0.11285	0.80806	0.20822	-0.399
Mof_O 	O 	0.07714	0.84743	0.26454	-0.398
Mof_O 	O 	0.91134	0.85464	0.26446	-0.401
Mof_O 	O 	0.87289	0.81834	0.2078	-0.401
Mof_O 	O 	0.99211	0.7478	0.1045	-0.208
Mof_C 	C 	0.27225	0.88654	0.37334	-0.024
Mof_H 	H 	0.2449	0.8987	0.3857	0.065
Mof_C 	C 	0.9087	0.832	0.2263	0.341
Mof_C 	C 	0.27056	0.85688	0.33453	-0.037
Mof_C 	C 	0.31065	0.83955	0.3171	-0.119
Mof_H 	H 	0.3099	0.8188	0.2913	0.098
Mof_C 	C 	0.35225	0.8519	0.3366	0.184
Mof_C 	C 	0.35314	0.88074	0.3756	-0.126
Mof_H 	H 	0.3811	0.8887	0.39	0.088
Mof_C 	C 	0.31237	0.89814	0.39359	-0.033
Mof_C 	C 	0.4287	0.8456	0.3304	-0.034
Mof_H 	H 	0.4341	0.8333	0.3627	0.051
Mof_H 	H 	0.4302	0.879	0.3322	0.045
Mof_C 	C 	0.46568	0.8278	0.2958	0.141
Mof_C 	C 	0.4552	0.8051	0.2575	-0.182
Mof_H 	H 	0.4242	0.8013	0.2493	0.118
Mof_C 	C 	0.4883	0.7862	0.2283	0.11
Mof_H 	H 	0.48	0.7671	0.2025	0.003
Mof_C 	C 	0.5327	0.7953	0.2374	-0.185
Mof_H 	H 	0.5556	0.7843	0.2167	0.101
Mof_C 	C 	0.5444	0.8205	0.2764	0.145
Mof_C 	C 	0.5108	0.8357	0.3051	-0.192
Mof_H 	H 	0.5186	0.8525	0.3327	0.108
Mof_C 	C 	0.5945	0.8281	0.2881	-0.069
Mof_H 	H 	0.6102	0.7986	0.2913	0.062
Mof_H 	H 	0.6093	0.8454	0.2622	0.063
Mof_C 	C 	0.63895	0.8674	0.3439	0.177
Mof_C 	C 	0.67879	0.85482	0.3222	-0.122
Mof_H 	H 	0.6786	0.8337	0.2967	0.088
Mof_C 	C 	0.71928	0.87337	0.338	-0.043
Mof_C 	C 	0.71961	0.90359	0.3749	-0.019
Mof_H 	H 	0.7475	0.9161	0.3853	0.064
Mof_C 	C 	0.67998	0.91611	0.3971	-0.034
Mof_C 	C 	0.6383	0.8985	0.381	-0.113
Mof_H 	H 	0.6105	0.9077	0.3952	0.09
Mof_C 	C 	0.22712	0.84645	0.3122	0.325
Mof_C 	C 	0.31423	0.93011	0.4344	0.333
Mof_C 	C 	0.76136	0.86175	0.3132	0.328
Mof_C 	C 	0.6797	0.95023	0.43568	0.319
Mof_C 	C 	0.0331	0.8139	0.2032	-0.031
Mof_C 	C 	0.0313	0.7869	0.1633	-0.114
Mof_H 	H 	0.0586	0.7766	0.149	0.095
Mof_C 	C 	0.9904	0.7749	0.1443	0.172
Mof_C 	C 	0.9504	0.7914	0.1637	-0.116
Mof_H 	H 	0.9221	0.7837	0.1499	0.088
Mof_C 	C 	0.9519	0.819	0.2032	-0.035
Mof_C 	C 	0.99279	0.8299	0.2232	-0.02
Mof_H 	H 	0.9938	0.8485	0.2508	0.066
Mof_C 	C 	0.9535	0.7292	0.0876	-0.066
Mof_H 	H 	0.9307	0.7531	0.0812	0.053
Mof_H 	H 	0.9407	0.7077	0.1111	0.063
Mof_C 	C 	0.9662	0.7039	0.0405	0.185
Mof_C 	C 	0.9682	0.6592	0.0426	-0.217
Mof_H 	H 	0.9676	0.6432	0.072	0.103
Mof_C 	C 	0.07764	0.8236	0.2267	0.334
Mof_C 	C 	0.173	0.7681	0.1409	0.036
Mof_H 	H 	0.1418	0.7741	0.1461	0.034
Mof_C 	C 	0.187	0.7487	0.0983	-0.085
Mof_H 	H 	0.1654	0.7415	0.0744	0.058
Mof_C 	C 	0.2327	0.7399	0.0907	0.019
Mof_H 	H 	0.2423	0.7266	0.0615	0.02
Mof_C 	C 	0.2643	0.7504	0.1256	-0.091
Mof_H 	H 	0.2955	0.7444	0.1204	0.069
Mof_C 	C 	0.2502	0.7698	0.1682	0.051
Mof_H 	H 	0.2718	0.777	0.192	0.03
Mof_N 	N 	0.2046	0.77866	0.1758	-0.176
Mof_Cu	Cu	0.81213	0.82619	0.76521	0.92
Mof_Cu	Cu	0.85809	0.86882	0.698	0.907
Mof_O 	O 	0.94474	0.72238	0.54894	-0.404
Mof_O 	O 	0.94214	0.64705	0.54977	-0.398
Mof_O 	O 	0.8329	0.6124	0.68469	-0.223
Mof_O 	O 	0.85235	0.40257	0.66876	-0.216
Mof_O 	O 	0.83975	0.24055	0.72525	-0.393
Mof_O 	O 	0.87608	0.20147	0.66951	-0.401
Mof_O 	O 	0.96296	0.28154	0.54818	-0.393
Mof_O 	O 	0.96575	0.35775	0.54886	-0.394
Mof_O 	O 	0.86236	0.80845	0.66928	-0.397
Mof_O 	O 	0.82358	0.77235	0.72641	-0.389
Mof_O 	O 	0.80806	0.88715	0.79178	-0.398
Mof_O 	O 	0.84743	0.92286	0.73546	-0.397
Mof_O 	O 	0.85464	0.08866	0.73554	-0.401
Mof_O 	O 	0.81834	0.12711	0.7922	-0.398
Mof_O 	O 	0.7478	0.00789	0.8955	-0.196
Mof_C 	C 	0.88654	0.72775	0.62666	-0.024
Mof_H 	H 	0.8987	0.7551	0.6143	0.065
Mof_C 	C 	0.832	0.0913	0.7737	0.341
Mof_C 	C 	0.85688	0.72944	0.66547	-0.037
Mof_C 	C 	0.83955	0.68935	0.6829	-0.119
Mof_H 	H 	0.8188	0.6901	0.7087	0.098
Mof_C 	C 	0.8519	0.64775	0.6634	0.184
Mof_C 	C 	0.88074	0.64686	0.6244	-0.126
Mof_H 	H 	0.8887	0.6189	0.61	0.088
Mof_C 	C 	0.89814	0.68763	0.60641	-0.033
Mof_C 	C 	0.8456	0.5713	0.6696	-0.034
Mof_H 	H 	0.8333	0.5659	0.6373	0.051
Mof_H 	H 	0.879	0.5698	0.6678	0.045
Mof_C 	C 	0.8278	0.53432	0.7042	0.141
Mof_C 	C 	0.8051	0.5448	0.7425	-0.181
Mof_H 	H 	0.8013	0.5758	0.7507	0.117
Mof_C 	C 	0.7862	0.5117	0.7717	0.109
Mof_H 	H 	0.7671	0.52	0.7975	0.004
Mof_C 	C 	0.7953	0.4673	0.7626	-0.184
Mof_H 	H 	0.7843	0.4444	0.7833	0.101
Mof_C 	C 	0.8205	0.4556	0.7236	0.145
Mof_C 	C 	0.8357	0.4892	0.6949	-0.192
Mof_H 	H 	0.8525	0.4814	0.6673	0.108
Mof_C 	C 	0.8281	0.4055	0.7119	-0.068
Mof_H 	H 	0.7986	0.3898	0.7087	0.062
Mof_H 	H 	0.8454	0.3907	0.7378	0.063
Mof_C 	C 	0.8674	0.36105	0.6561	0.177
Mof_C 	C 	0.85482	0.32121	0.6778	-0.122
Mof_H 	H 	0.8337	0.3214	0.7033	0.087
Mof_C 	C 	0.87337	0.28072	0.662	-0.044
Mof_C 	C 	0.90359	0.28039	0.6251	-0.019
Mof_H 	H 	0.9161	0.2525	0.6147	0.064
Mof_C 	C 	0.91611	0.32002	0.6029	-0.034
Mof_C 	C 	0.8985	0.3617	0.619	-0.113
Mof_H 	H 	0.9077	0.3895	0.6048	0.09
Mof_C 	C 	0.84645	0.77288	0.6878	0.324
Mof_C 	C 	0.93011	0.68577	0.5656	0.333
Mof_C 	C 	0.86175	0.23864	0.6868	0.328
Mof_C 	C 	0.95023	0.3203	0.56432	0.319
Mof_C 	C 	0.8139	0.9669	0.7968	-0.029
Mof_C 	C 	0.7869	0.9687	0.8367	-0.111
Mof_H 	H 	0.7766	0.9414	0.851	0.098
Mof_C 	C 	0.7749	0.0096	0.8557	0.173
Mof_C 	C 	0.7914	0.0496	0.8363	-0.114
Mof_H 	H 	0.7837	0.0779	0.8501	0.091
Mof_C 	C 	0.819	0.0481	0.7968	-0.033
Mof_C 	C 	0.8299	0.00721	0.7768	-0.019
Mof_H 	H 	0.8485	0.0062	0.7492	0.067
Mof_C 	C 	0.7292	0.0465	0.9124	-0.081
Mof_H 	H 	0.7531	0.0693	0.9188	0.07
Mof_H 	H 	0.7077	0.0593	0.8889	0.069
Mof_C 	C 	0.7039	0.0338	0.9595	0.224
Mof_C 	C 	0.6592	0.0318	0.9574	-0.18
Mof_H 	H 	0.6432	0.0324	0.928	0.1
Mof_C 	C 	0.8236	0.92236	0.7733	0.335
Mof_C 	C 	0.7681	0.827	0.8591	0.04
Mof_H 	H 	0.7741	0.8582	0.8539	0.036
Mof_C 	C 	0.7487	0.813	0.9017	-0.081
Mof_H 	H 	0.7415	0.8346	0.9256	0.072
Mof_C 	C 	0.7399	0.7673	0.9093	0.022
Mof_H 	H 	0.7266	0.7577	0.9385	0.038
Mof_C 	C 	0.7504	0.7357	0.8744	-0.087
Mof_H 	H 	0.7444	0.7045	0.8796	0.074
Mof_C 	C 	0.7698	0.7498	0.8318	0.052
Mof_H 	H 	0.777	0.7282	0.808	0.03
Mof_N 	N 	0.77866	0.7954	0.8242	-0.175
Mof_Cu	Cu	0.18787	0.17381	0.76521	0.92
Mof_Cu	Cu	0.14191	0.13118	0.698	0.907
Mof_O 	O 	0.05526	0.27762	0.54894	-0.404
Mof_O 	O 	0.05786	0.35295	0.54977	-0.398
Mof_O 	O 	0.1671	0.3876	0.68469	-0.223
Mof_O 	O 	0.14765	0.59743	0.66876	-0.216
Mof_O 	O 	0.16025	0.75945	0.72525	-0.393
Mof_O 	O 	0.12392	0.79853	0.66951	-0.401
Mof_O 	O 	0.03704	0.71846	0.54818	-0.393
Mof_O 	O 	0.03425	0.64225	0.54886	-0.394
Mof_O 	O 	0.13764	0.19155	0.66928	-0.397
Mof_O 	O 	0.17642	0.22765	0.72641	-0.389
Mof_O 	O 	0.19194	0.11285	0.79178	-0.398
Mof_O 	O 	0.15257	0.07714	0.73546	-0.397
Mof_O 	O 	0.14536	0.91134	0.73554	-0.401
Mof_O 	O 	0.18166	0.87289	0.7922	-0.398
Mof_O 	O 	0.2522	0.99211	0.8955	-0.196
Mof_C 	C 	0.11346	0.27225	0.62666	-0.024
Mof_H 	H 	0.1013	0.2449	0.6143	0.065
Mof_C 	C 	0.168	0.9087	0.7737	0.341
Mof_C 	C 	0.14312	0.27056	0.66547	-0.037
Mof_C 	C 	0.16045	0.31065	0.6829	-0.119
Mof_H 	H 	0.1812	0.3099	0.7087	0.098
Mof_C 	C 	0.1481	0.35225	0.6634	0.184
Mof_C 	C 	0.11926	0.35314	0.6244	-0.126
Mof_H 	H 	0.1113	0.3811	0.61	0.088
Mof_C 	C 	0.10186	0.31237	0.60641	-0.033
Mof_C 	C 	0.1544	0.4287	0.6696	-0.034
Mof_H 	H 	0.1667	0.4341	0.6373	0.051
Mof_H 	H 	0.121	0.4302	0.6678	0.045
Mof_C 	C 	0.1722	0.46568	0.7042	0.141
Mof_C 	C 	0.1949	0.4552	0.7425	-0.181
Mof_H 	H 	0.1987	0.4242	0.7507	0.117
Mof_C 	C 	0.2138	0.4883	0.7717	0.109
Mof_H 	H 	0.2329	0.48	0.7975	0.004
Mof_C 	C 	0.2047	0.5327	0.7626	-0.184
Mof_H 	H 	0.2157	0.5556	0.7833	0.101
Mof_C 	C 	0.1795	0.5444	0.7236	0.145
Mof_C 	C 	0.1643	0.5108	0.6949	-0.192
Mof_H 	H 	0.1475	0.5186	0.6673	0.108
Mof_C 	C 	0.1719	0.5945	0.7119	-0.068
Mof_H 	H 	0.2014	0.6102	0.7087	0.062
Mof_H 	H 	0.1546	0.6093	0.7378	0.063
Mof_C 	C 	0.1326	0.63895	0.6561	0.177
Mof_C 	C 	0.14518	0.67879	0.6778	-0.122
Mof_H 	H 	0.1663	0.6786	0.7033	0.087
Mof_C 	C 	0.12663	0.71928	0.662	-0.044
Mof_C 	C 	0.09641	0.71961	0.6251	-0.019
Mof_H 	H 	0.0839	0.7475	0.6147	0.064
Mof_C 	C 	0.08389	0.67998	0.6029	-0.034
Mof_C 	C 	0.1015	0.6383	0.619	-0.113
Mof_H 	H 	0.0923	0.6105	0.6048	0.09
Mof_C 	C 	0.15355	0.22712	0.6878	0.324
Mof_C 	C 	0.06989	0.31423	0.5656	0.333
Mof_C 	C 	0.13825	0.76136	0.6868	0.328
Mof_C 	C 	0.04977	0.6797	0.56432	0.319
Mof_C 	C 	0.1861	0.0331	0.7968	-0.029
Mof_C 	C 	0.2131	0.0313	0.8367	-0.111
Mof_H 	H 	0.2234	0.0586	0.851	0.098
Mof_C 	C 	0.2251	0.9904	0.8557	0.173
Mof_C 	C 	0.2086	0.9504	0.8363	-0.114
Mof_H 	H 	0.2163	0.9221	0.8501	0.091
Mof_C 	C 	0.181	0.9519	0.7968	-0.033
Mof_C 	C 	0.1701	0.99279	0.7768	-0.019
Mof_H 	H 	0.1515	0.9938	0.7492	0.067
Mof_C 	C 	0.2708	0.9535	0.9124	-0.081
Mof_H 	H 	0.2469	0.9307	0.9188	0.07
Mof_H 	H 	0.2923	0.9407	0.8889	0.069
Mof_C 	C 	0.2961	0.9662	0.9595	0.224
Mof_C 	C 	0.3408	0.9682	0.9574	-0.18
Mof_H 	H 	0.3568	0.9676	0.928	0.1
Mof_C 	C 	0.1764	0.07764	0.7733	0.335
Mof_C 	C 	0.2319	0.173	0.8591	0.04
Mof_H 	H 	0.2259	0.1418	0.8539	0.036
Mof_C 	C 	0.2513	0.187	0.9017	-0.081
Mof_H 	H 	0.2585	0.1654	0.9256	0.072
Mof_C 	C 	0.2601	0.2327	0.9093	0.022
Mof_H 	H 	0.2734	0.2423	0.9385	0.038
Mof_C 	C 	0.2496	0.2643	0.8744	-0.087
Mof_H 	H 	0.2556	0.2955	0.8796	0.074
Mof_C 	C 	0.2302	0.2502	0.8318	0.052
Mof_H 	H 	0.223	0.2718	0.808	0.03
Mof_N 	N 	0.22134	0.2046	0.8242	-0.175
Mof_Cu	Cu	0.17381	0.81213	0.76521	0.92
Mof_Cu	Cu	0.13118	0.85809	0.698	0.907
Mof_O 	O 	0.27762	0.94474	0.54894	-0.404
Mof_O 	O 	0.35295	0.94214	0.54977	-0.398
Mof_O 	O 	0.3876	0.8329	0.68469	-0.223
Mof_O 	O 	0.59743	0.85235	0.66876	-0.216
Mof_O 	O 	0.75945	0.83975	0.72525	-0.393
Mof_O 	O 	0.79853	0.87608	0.66951	-0.401
Mof_O 	O 	0.71846	0.96296	0.54818	-0.393
Mof_O 	O 	0.64225	0.96575	0.54886	-0.394
Mof_O 	O 	0.19155	0.86236	0.66928	-0.397
Mof_O 	O 	0.22765	0.82358	0.72641	-0.389
Mof_O 	O 	0.11285	0.80806	0.79178	-0.398
Mof_O 	O 	0.07714	0.84743	0.73546	-0.397
Mof_O 	O 	0.91134	0.85464	0.73554	-0.401
Mof_O 	O 	0.87289	0.81834	0.7922	-0.398
Mof_O 	O 	0.99211	0.7478	0.8955	-0.196
Mof_C 	C 	0.27225	0.88654	0.62666	-0.024
Mof_H 	H 	0.2449	0.8987	0.6143	0.065
Mof_C 	C 	0.9087	0.832	0.7737	0.341
Mof_C 	C 	0.27056	0.85688	0.66547	-0.037
Mof_C 	C 	0.31065	0.83955	0.6829	-0.119
Mof_H 	H 	0.3099	0.8188	0.7087	0.098
Mof_C 	C 	0.35225	0.8519	0.6634	0.184
Mof_C 	C 	0.35314	0.88074	0.6244	-0.126
Mof_H 	H 	0.3811	0.8887	0.61	0.088
Mof_C 	C 	0.31237	0.89814	0.60641	-0.033
Mof_C 	C 	0.4287	0.8456	0.6696	-0.034
Mof_H 	H 	0.4341	0.8333	0.6373	0.051
Mof_H 	H 	0.4302	0.879	0.6678	0.045
Mof_C 	C 	0.46568	0.8278	0.7042	0.141
Mof_C 	C 	0.4552	0.8051	0.7425	-0.181
Mof_H 	H 	0.4242	0.8013	0.7507	0.117
Mof_C 	C 	0.4883	0.7862	0.7717	0.109
Mof_H 	H 	0.48	0.7671	0.7975	0.004
Mof_C 	C 	0.5327	0.7953	0.7626	-0.184
Mof_H 	H 	0.5556	0.7843	0.7833	0.101
Mof_C 	C 	0.5444	0.8205	0.7236	0.145
Mof_C 	C 	0.5108	0.8357	0.6949	-0.192
Mof_H 	H 	0.5186	0.8525	0.6673	0.108
Mof_C 	C 	0.5945	0.8281	0.7119	-0.068
Mof_H 	H 	0.6102	0.7986	0.7087	0.062
Mof_H 	H 	0.6093	0.8454	0.7378	0.063
Mof_C 	C 	0.63895	0.8674	0.6561	0.177
Mof_C 	C 	0.67879	0.85482	0.6778	-0.122
Mof_H 	H 	0.6786	0.8337	0.7033	0.087
Mof_C 	C 	0.71928	0.87337	0.662	-0.044
Mof_C 	C 	0.71961	0.90359	0.6251	-0.019
Mof_H 	H 	0.7475	0.9161	0.6147	0.064
Mof_C 	C 	0.67998	0.91611	0.6029	-0.034
Mof_C 	C 	0.6383	0.8985	0.619	-0.113
Mof_H 	H 	0.6105	0.9077	0.6048	0.09
Mof_C 	C 	0.22712	0.84645	0.6878	0.324
Mof_C 	C 	0.31423	0.93011	0.5656	0.333
Mof_C 	C 	0.76136	0.86175	0.6868	0.328
Mof_C 	C 	0.6797	0.95023	0.56432	0.319
Mof_C 	C 	0.0331	0.8139	0.7968	-0.029
Mof_C 	C 	0.0313	0.7869	0.8367	-0.111
Mof_H 	H 	0.0586	0.7766	0.851	0.098
Mof_C 	C 	0.9904	0.7749	0.8557	0.173
Mof_C 	C 	0.9504	0.7914	0.8363	-0.114
Mof_H 	H 	0.9221	0.7837	0.8501	0.091
Mof_C 	C 	0.9519	0.819	0.7968	-0.033
Mof_C 	C 	0.99279	0.8299	0.7768	-0.019
Mof_H 	H 	0.9938	0.8485	0.7492	0.067
Mof_C 	C 	0.9535	0.7292	0.9124	-0.081
Mof_H 	H 	0.9307	0.7531	0.9188	0.07
Mof_H 	H 	0.9407	0.7077	0.8889	0.069
Mof_C 	C 	0.9662	0.7039	0.9595	0.224
Mof_C 	C 	0.9682	0.6592	0.9574	-0.18
Mof_H 	H 	0.9676	0.6432	0.928	0.1
Mof_C 	C 	0.07764	0.8236	0.7733	0.335
Mof_C 	C 	0.173	0.7681	0.8591	0.04
Mof_H 	H 	0.1418	0.7741	0.8539	0.036
Mof_C 	C 	0.187	0.7487	0.9017	-0.081
Mof_H 	H 	0.1654	0.7415	0.9256	0.072
Mof_C 	C 	0.2327	0.7399	0.9093	0.022
Mof_H 	H 	0.2423	0.7266	0.9385	0.038
Mof_C 	C 	0.2643	0.7504	0.8744	-0.087
Mof_H 	H 	0.2955	0.7444	0.8796	0.074
Mof_C 	C 	0.2502	0.7698	0.8318	0.052
Mof_H 	H 	0.2718	0.777	0.808	0.03
Mof_N 	N 	0.2046	0.77866	0.8242	-0.175
Mof_Cu	Cu	0.82619	0.18787	0.76521	0.92
Mof_Cu	Cu	0.86882	0.14191	0.698	0.907
Mof_O 	O 	0.72238	0.05526	0.54894	-0.404
Mof_O 	O 	0.64705	0.05786	0.54977	-0.398
Mof_O 	O 	0.6124	0.1671	0.68469	-0.223
Mof_O 	O 	0.40257	0.14765	0.66876	-0.216
Mof_O 	O 	0.24055	0.16025	0.72525	-0.393
Mof_O 	O 	0.20147	0.12392	0.66951	-0.401
Mof_O 	O 	0.28154	0.03704	0.54818	-0.393
Mof_O 	O 	0.35775	0.03425	0.54886	-0.394
Mof_O 	O 	0.80845	0.13764	0.66928	-0.397
Mof_O 	O 	0.77235	0.17642	0.72641	-0.389
Mof_O 	O 	0.88715	0.19194	0.79178	-0.398
Mof_O 	O 	0.92286	0.15257	0.73546	-0.397
Mof_O 	O 	0.08866	0.14536	0.73554	-0.401
Mof_O 	O 	0.12711	0.18166	0.7922	-0.398
Mof_O 	O 	0.00789	0.2522	0.8955	-0.196
Mof_C 	C 	0.72775	0.11346	0.62666	-0.024
Mof_H 	H 	0.7551	0.1013	0.6143	0.065
Mof_C 	C 	0.0913	0.168	0.7737	0.341
Mof_C 	C 	0.72944	0.14312	0.66547	-0.037
Mof_C 	C 	0.68935	0.16045	0.6829	-0.119
Mof_H 	H 	0.6901	0.1812	0.7087	0.098
Mof_C 	C 	0.64775	0.1481	0.6634	0.184
Mof_C 	C 	0.64686	0.11926	0.6244	-0.126
Mof_H 	H 	0.6189	0.1113	0.61	0.088
Mof_C 	C 	0.68763	0.10186	0.60641	-0.033
Mof_C 	C 	0.5713	0.1544	0.6696	-0.034
Mof_H 	H 	0.5659	0.1667	0.6373	0.051
Mof_H 	H 	0.5698	0.121	0.6678	0.045
Mof_C 	C 	0.53432	0.1722	0.7042	0.141
Mof_C 	C 	0.5448	0.1949	0.7425	-0.181
Mof_H 	H 	0.5758	0.1987	0.7507	0.117
Mof_C 	C 	0.5117	0.2138	0.7717	0.109
Mof_H 	H 	0.52	0.2329	0.7975	0.004
Mof_C 	C 	0.4673	0.2047	0.7626	-0.184
Mof_H 	H 	0.4444	0.2157	0.7833	0.101
Mof_C 	C 	0.4556	0.1795	0.7236	0.145
Mof_C 	C 	0.4892	0.1643	0.6949	-0.192
Mof_H 	H 	0.4814	0.1475	0.6673	0.108
Mof_C 	C 	0.4055	0.1719	0.7119	-0.068
Mof_H 	H 	0.3898	0.2014	0.7087	0.062
Mof_H 	H 	0.3907	0.1546	0.7378	0.063
Mof_C 	C 	0.36105	0.1326	0.6561	0.177
Mof_C 	C 	0.32121	0.14518	0.6778	-0.122
Mof_H 	H 	0.3214	0.1663	0.7033	0.087
Mof_C 	C 	0.28072	0.12663	0.662	-0.044
Mof_C 	C 	0.28039	0.09641	0.6251	-0.019
Mof_H 	H 	0.2525	0.0839	0.6147	0.064
Mof_C 	C 	0.32002	0.08389	0.6029	-0.034
Mof_C 	C 	0.3617	0.1015	0.619	-0.113
Mof_H 	H 	0.3895	0.0923	0.6048	0.09
Mof_C 	C 	0.77288	0.15355	0.6878	0.324
Mof_C 	C 	0.68577	0.06989	0.5656	0.333
Mof_C 	C 	0.23864	0.13825	0.6868	0.328
Mof_C 	C 	0.3203	0.04977	0.56432	0.319
Mof_C 	C 	0.9669	0.1861	0.7968	-0.029
Mof_C 	C 	0.9687	0.2131	0.8367	-0.111
Mof_H 	H 	0.9414	0.2234	0.851	0.098
Mof_C 	C 	0.0096	0.2251	0.8557	0.173
Mof_C 	C 	0.0496	0.2086	0.8363	-0.114
Mof_H 	H 	0.0779	0.2163	0.8501	0.091
Mof_C 	C 	0.0481	0.181	0.7968	-0.033
Mof_C 	C 	0.00721	0.1701	0.7768	-0.019
Mof_H 	H 	0.0062	0.1515	0.7492	0.067
Mof_C 	C 	0.0465	0.2708	0.9124	-0.081
Mof_H 	H 	0.0693	0.2469	0.9188	0.07
Mof_H 	H 	0.0593	0.2923	0.8889	0.069
Mof_C 	C 	0.0338	0.2961	0.9595	0.224
Mof_C 	C 	0.0318	0.3408	0.9574	-0.18
Mof_H 	H 	0.0324	0.3568	0.928	0.1
Mof_C 	C 	0.92236	0.1764	0.7733	0.335
Mof_C 	C 	0.827	0.2319	0.8591	0.04
Mof_H 	H 	0.8582	0.2259	0.8539	0.036
Mof_C 	C 	0.813	0.2513	0.9017	-0.081
Mof_H 	H 	0.8346	0.2585	0.9256	0.072
Mof_C 	C 	0.7673	0.2601	0.9093	0.022
Mof_H 	H 	0.7577	0.2734	0.9385	0.038
Mof_C 	C 	0.7357	0.2496	0.8744	-0.087
Mof_H 	H 	0.7045	0.2556	0.8796	0.074
Mof_C 	C 	0.7498	0.2302	0.8318	0.052
Mof_H 	H 	0.7282	0.223	0.808	0.03
Mof_N 	N 	0.7954	0.22134	0.8242	-0.175
Mof_Cu	Cu	0.01231	0.36176	0.5	0.903
Mof_Cu	Cu	0.00925	0.27316	0.5	0.907
Mof_Cu	Cu	0.98769	0.63824	0.5	0.903
Mof_Cu	Cu	0.99075	0.72684	0.5	0.907
Mof_Cu	Cu	0.63824	0.01231	0.5	0.903
Mof_Cu	Cu	0.72684	0.00925	0.5	0.907
Mof_Cu	Cu	0.36176	0.98769	0.5	0.903
Mof_Cu	Cu	0.27316	0.99075	0.5	0.907
Mof_C 	C 	0.3626	0.9714	-0	0.082
Mof_H 	H 	0.3944	0.976	-0	-0.012
Mof_C 	C 	0.2714	0.9684	-0	-0.301
Mof_H 	H 	0.2393	0.9713	-0	0.133
Mof_C 	C 	0.6374	0.0286	-0	0.082
Mof_H 	H 	0.6056	0.024	-0	-0.012
Mof_C 	C 	0.7286	0.0316	-0	-0.301
Mof_H 	H 	0.7607	0.0287	-0	0.133
Mof_C 	C 	0.0286	0.3626	-0	0.082
Mof_H 	H 	0.024	0.3944	-0	-0.012
Mof_C 	C 	0.0316	0.2714	-0	-0.301
Mof_H 	H 	0.0287	0.2393	-0	0.133
Mof_C 	C 	0.9714	0.6374	-0	0.082
Mof_H 	H 	0.976	0.6056	-0	-0.012
Mof_C 	C 	0.9684	0.7286	-0	-0.301
Mof_H 	H 	0.9713	0.7607	-0	0.133
Mof_Cu	Cu	0.68787	0.67381	0.73479	0.919
Mof_Cu	Cu	0.64191	0.63118	0.802	0.908
Mof_O 	O 	0.55526	0.77762	0.95106	-0.384
Mof_O 	O 	0.55786	0.85295	0.95023	-0.378
Mof_O 	O 	0.6671	0.8876	0.81531	-0.223
Mof_O 	O 	0.64765	0.09743	0.83124	-0.216
Mof_O 	O 	0.66025	0.25945	0.77475	-0.392
Mof_O 	O 	0.62392	0.29853	0.83049	-0.398
Mof_O 	O 	0.53704	0.21846	0.95182	-0.372
Mof_O 	O 	0.53425	0.14225	0.95114	-0.374
Mof_O 	O 	0.63764	0.69155	0.83072	-0.394
Mof_O 	O 	0.67642	0.72765	0.77359	-0.388
Mof_O 	O 	0.69194	0.61285	0.70822	-0.399
Mof_O 	O 	0.65257	0.57714	0.76454	-0.396
Mof_O 	O 	0.64536	0.41134	0.76446	-0.4
Mof_O 	O 	0.68166	0.37289	0.7078	-0.399
Mof_O 	O 	0.7522	0.49211	0.6045	-0.205
Mof_C 	C 	0.61346	0.77225	0.87334	-0.028
Mof_H 	H 	0.6013	0.7449	0.8857	0.07
Mof_C 	C 	0.668	0.4087	0.7263	0.34
Mof_C 	C 	0.64312	0.77056	0.83453	-0.033
Mof_C 	C 	0.66045	0.81065	0.8171	-0.122
Mof_H 	H 	0.6812	0.8099	0.7913	0.099
Mof_C 	C 	0.6481	0.85225	0.8366	0.187
Mof_C 	C 	0.61926	0.85314	0.8756	-0.129
Mof_H 	H 	0.6113	0.8811	0.89	0.093
Mof_C 	C 	0.60186	0.81237	0.89359	-0.025
Mof_C 	C 	0.6544	0.9287	0.8304	-0.037
Mof_H 	H 	0.6667	0.9341	0.8627	0.054
Mof_H 	H 	0.621	0.9302	0.8322	0.047
Mof_C 	C 	0.6722	0.96568	0.7958	0.144
Mof_C 	C 	0.6949	0.9552	0.7575	-0.184
Mof_H 	H 	0.6987	0.9242	0.7493	0.118
Mof_C 	C 	0.7138	0.9883	0.7283	0.111
Mof_H 	H 	0.7329	0.98	0.7025	0.003
Mof_C 	C 	0.7047	0.0327	0.7374	-0.186
Mof_H 	H 	0.7157	0.0556	0.7167	0.101
Mof_C 	C 	0.6795	0.0444	0.7764	0.147
Mof_C 	C 	0.6643	0.0108	0.8051	-0.194
Mof_H 	H 	0.6475	0.0186	0.8327	0.111
Mof_C 	C 	0.6719	0.0945	0.7881	-0.07
Mof_H 	H 	0.7014	0.1102	0.7913	0.062
Mof_H 	H 	0.6546	0.1093	0.7622	0.063
Mof_C 	C 	0.6326	0.13895	0.8439	0.18
Mof_C 	C 	0.64518	0.17879	0.8222	-0.124
Mof_H 	H 	0.6663	0.1786	0.7967	0.088
Mof_C 	C 	0.62663	0.21928	0.838	-0.039
Mof_C 	C 	0.59641	0.21961	0.8749	-0.023
Mof_H 	H 	0.5839	0.2475	0.8853	0.068
Mof_C 	C 	0.58389	0.17998	0.8971	-0.026
Mof_C 	C 	0.6015	0.1383	0.881	-0.116
Mof_H 	H 	0.5923	0.1105	0.8952	0.096
Mof_C 	C 	0.65355	0.72712	0.8122	0.323
Mof_C 	C 	0.56989	0.81423	0.9344	0.329
Mof_C 	C 	0.63825	0.26136	0.8132	0.327
Mof_C 	C 	0.54977	0.1797	0.93568	0.315
Mof_C 	C 	0.6861	0.5331	0.7032	-0.029
Mof_C 	C 	0.7131	0.5313	0.6633	-0.114
Mof_H 	H 	0.7234	0.5586	0.649	0.096
Mof_C 	C 	0.7251	0.4904	0.6443	0.174
Mof_C 	C 	0.7086	0.4504	0.6637	-0.116
Mof_H 	H 	0.7163	0.4221	0.6499	0.09
Mof_C 	C 	0.681	0.4519	0.7032	-0.033
Mof_C 	C 	0.6701	0.49279	0.7232	-0.021
Mof_H 	H 	0.6515	0.4938	0.7508	0.068
Mof_C 	C 	0.7708	0.4535	0.5876	-0.067
Mof_H 	H 	0.7469	0.4307	0.5812	0.057
Mof_H 	H 	0.7923	0.4407	0.6111	0.065
Mof_C 	C 	0.7961	0.4662	0.5405	0.189
Mof_C 	C 	0.8408	0.4682	0.5426	-0.244
Mof_H 	H 	0.8568	0.4676	0.572	0.115
Mof_C 	C 	0.6764	0.57764	0.7267	0.334
Mof_C 	C 	0.7319	0.673	0.6409	0.038
Mof_H 	H 	0.7259	0.6418	0.6461	0.035
Mof_C 	C 	0.7513	0.687	0.5983	-0.083
Mof_H 	H 	0.7585	0.6654	0.5744	0.065
Mof_C 	C 	0.7601	0.7327	0.5907	0.02
Mof_H 	H 	0.7734	0.7423	0.5615	0.029
Mof_C 	C 	0.7496	0.7643	0.6256	-0.089
Mof_H 	H 	0.7556	0.7955	0.6204	0.071
Mof_C 	C 	0.7302	0.7502	0.6682	0.052
Mof_H 	H 	0.723	0.7718	0.692	0.03
Mof_N 	N 	0.72134	0.7046	0.6758	-0.176
Mof_Cu	Cu	0.31213	0.32619	0.73479	0.919
Mof_Cu	Cu	0.35809	0.36882	0.802	0.908
Mof_O 	O 	0.44474	0.22238	0.95106	-0.384
Mof_O 	O 	0.44214	0.14705	0.95023	-0.378
Mof_O 	O 	0.3329	0.1124	0.81531	-0.223
Mof_O 	O 	0.35235	0.90257	0.83124	-0.216
Mof_O 	O 	0.33975	0.74055	0.77475	-0.392
Mof_O 	O 	0.37608	0.70147	0.83049	-0.398
Mof_O 	O 	0.46296	0.78154	0.95182	-0.372
Mof_O 	O 	0.46575	0.85775	0.95114	-0.374
Mof_O 	O 	0.36236	0.30845	0.83072	-0.394
Mof_O 	O 	0.32358	0.27235	0.77359	-0.388
Mof_O 	O 	0.30806	0.38715	0.70822	-0.399
Mof_O 	O 	0.34743	0.42286	0.76454	-0.396
Mof_O 	O 	0.35464	0.58866	0.76446	-0.4
Mof_O 	O 	0.31834	0.62711	0.7078	-0.399
Mof_O 	O 	0.2478	0.50789	0.6045	-0.205
Mof_C 	C 	0.38654	0.22775	0.87334	-0.028
Mof_H 	H 	0.3987	0.2551	0.8857	0.07
Mof_C 	C 	0.332	0.5913	0.7263	0.34
Mof_C 	C 	0.35688	0.22944	0.83453	-0.033
Mof_C 	C 	0.33955	0.18935	0.8171	-0.122
Mof_H 	H 	0.3188	0.1901	0.7913	0.099
Mof_C 	C 	0.3519	0.14775	0.8366	0.187
Mof_C 	C 	0.38074	0.14686	0.8756	-0.129
Mof_H 	H 	0.3887	0.1189	0.89	0.093
Mof_C 	C 	0.39814	0.18763	0.89359	-0.025
Mof_C 	C 	0.3456	0.0713	0.8304	-0.037
Mof_H 	H 	0.3333	0.0659	0.8627	0.054
Mof_H 	H 	0.379	0.0698	0.8322	0.047
Mof_C 	C 	0.3278	0.03432	0.7958	0.144
Mof_C 	C 	0.3051	0.0448	0.7575	-0.184
Mof_H 	H 	0.3013	0.0758	0.7493	0.118
Mof_C 	C 	0.2862	0.0117	0.7283	0.111
Mof_H 	H 	0.2671	0.02	0.7025	0.003
Mof_C 	C 	0.2953	0.9673	0.7374	-0.186
Mof_H 	H 	0.2843	0.9444	0.7167	0.101
Mof_C 	C 	0.3205	0.9556	0.7764	0.147
Mof_C 	C 	0.3357	0.9892	0.8051	-0.194
Mof_H 	H 	0.3525	0.9814	0.8327	0.111
Mof_C 	C 	0.3281	0.9055	0.7881	-0.07
Mof_H 	H 	0.2986	0.8898	0.7913	0.062
Mof_H 	H 	0.3454	0.8907	0.7622	0.063
Mof_C 	C 	0.3674	0.86105	0.8439	0.18
Mof_C 	C 	0.35482	0.82121	0.8222	-0.124
Mof_H 	H 	0.3337	0.8214	0.7967	0.088
Mof_C 	C 	0.37337	0.78072	0.838	-0.039
Mof_C 	C 	0.40359	0.78039	0.8749	-0.023
Mof_H 	H 	0.4161	0.7525	0.8853	0.068
Mof_C 	C 	0.41611	0.82002	0.8971	-0.026
Mof_C 	C 	0.3985	0.8617	0.881	-0.116
Mof_H 	H 	0.4077	0.8895	0.8952	0.096
Mof_C 	C 	0.34645	0.27288	0.8122	0.323
Mof_C 	C 	0.43011	0.18577	0.9344	0.329
Mof_C 	C 	0.36175	0.73864	0.8132	0.327
Mof_C 	C 	0.45023	0.8203	0.93568	0.315
Mof_C 	C 	0.3139	0.4669	0.7032	-0.029
Mof_C 	C 	0.2869	0.4687	0.6633	-0.114
Mof_H 	H 	0.2766	0.4414	0.649	0.096
Mof_C 	C 	0.2749	0.5096	0.6443	0.174
Mof_C 	C 	0.2914	0.5496	0.6637	-0.116
Mof_H 	H 	0.2837	0.5779	0.6499	0.09
Mof_C 	C 	0.319	0.5481	0.7032	-0.033
Mof_C 	C 	0.3299	0.50721	0.7232	-0.021
Mof_H 	H 	0.3485	0.5062	0.7508	0.068
Mof_C 	C 	0.2292	0.5465	0.5876	-0.067
Mof_H 	H 	0.2531	0.5693	0.5812	0.057
Mof_H 	H 	0.2077	0.5593	0.6111	0.065
Mof_C 	C 	0.2039	0.5338	0.5405	0.189
Mof_C 	C 	0.1592	0.5318	0.5426	-0.244
Mof_H 	H 	0.1432	0.5324	0.572	0.115
Mof_C 	C 	0.3236	0.42236	0.7267	0.334
Mof_C 	C 	0.2681	0.327	0.6409	0.038
Mof_H 	H 	0.2741	0.3582	0.6461	0.035
Mof_C 	C 	0.2487	0.313	0.5983	-0.083
Mof_H 	H 	0.2415	0.3346	0.5744	0.065
Mof_C 	C 	0.2399	0.2673	0.5907	0.02
Mof_H 	H 	0.2266	0.2577	0.5615	0.029
Mof_C 	C 	0.2504	0.2357	0.6256	-0.089
Mof_H 	H 	0.2444	0.2045	0.6204	0.071
Mof_C 	C 	0.2698	0.2498	0.6682	0.052
Mof_H 	H 	0.277	0.2282	0.692	0.03
Mof_N 	N 	0.27866	0.2954	0.6758	-0.176
Mof_Cu	Cu	0.32619	0.68787	0.73479	0.919
Mof_Cu	Cu	0.36882	0.64191	0.802	0.908
Mof_O 	O 	0.22238	0.55526	0.95106	-0.384
Mof_O 	O 	0.14705	0.55786	0.95023	-0.378
Mof_O 	O 	0.1124	0.6671	0.81531	-0.223
Mof_O 	O 	0.90257	0.64765	0.83124	-0.216
Mof_O 	O 	0.74055	0.66025	0.77475	-0.392
Mof_O 	O 	0.70147	0.62392	0.83049	-0.398
Mof_O 	O 	0.78154	0.53704	0.95182	-0.372
Mof_O 	O 	0.85775	0.53425	0.95114	-0.374
Mof_O 	O 	0.30845	0.63764	0.83072	-0.394
Mof_O 	O 	0.27235	0.67642	0.77359	-0.388
Mof_O 	O 	0.38715	0.69194	0.70822	-0.399
Mof_O 	O 	0.42286	0.65257	0.76454	-0.396
Mof_O 	O 	0.58866	0.64536	0.76446	-0.4
Mof_O 	O 	0.62711	0.68166	0.7078	-0.399
Mof_O 	O 	0.50789	0.7522	0.6045	-0.205
Mof_C 	C 	0.22775	0.61346	0.87334	-0.028
Mof_H 	H 	0.2551	0.6013	0.8857	0.07
Mof_C 	C 	0.5913	0.668	0.7263	0.34
Mof_C 	C 	0.22944	0.64312	0.83453	-0.033
Mof_C 	C 	0.18935	0.66045	0.8171	-0.122
Mof_H 	H 	0.1901	0.6812	0.7913	0.099
Mof_C 	C 	0.14775	0.6481	0.8366	0.187
Mof_C 	C 	0.14686	0.61926	0.8756	-0.129
Mof_H 	H 	0.1189	0.6113	0.89	0.093
Mof_C 	C 	0.18763	0.60186	0.89359	-0.025
Mof_C 	C 	0.0713	0.6544	0.8304	-0.037
Mof_H 	H 	0.0659	0.6667	0.8627	0.054
Mof_H 	H 	0.0698	0.621	0.8322	0.047
Mof_C 	C 	0.03432	0.6722	0.7958	0.144
Mof_C 	C 	0.0448	0.6949	0.7575	-0.184
Mof_H 	H 	0.0758	0.6987	0.7493	0.118
Mof_C 	C 	0.0117	0.7138	0.7283	0.111
Mof_H 	H 	0.02	0.7329	0.7025	0.003
Mof_C 	C 	0.9673	0.7047	0.7374	-0.186
Mof_H 	H 	0.9444	0.7157	0.7167	0.101
Mof_C 	C 	0.9556	0.6795	0.7764	0.147
Mof_C 	C 	0.9892	0.6643	0.8051	-0.194
Mof_H 	H 	0.9814	0.6475	0.8327	0.111
Mof_C 	C 	0.9055	0.6719	0.7881	-0.07
Mof_H 	H 	0.8898	0.7014	0.7913	0.062
Mof_H 	H 	0.8907	0.6546	0.7622	0.063
Mof_C 	C 	0.86105	0.6326	0.8439	0.18
Mof_C 	C 	0.82121	0.64518	0.8222	-0.124
Mof_H 	H 	0.8214	0.6663	0.7967	0.088
Mof_C 	C 	0.78072	0.62663	0.838	-0.039
Mof_C 	C 	0.78039	0.59641	0.8749	-0.023
Mof_H 	H 	0.7525	0.5839	0.8853	0.068
Mof_C 	C 	0.82002	0.58389	0.8971	-0.026
Mof_C 	C 	0.8617	0.6015	0.881	-0.116
Mof_H 	H 	0.8895	0.5923	0.8952	0.096
Mof_C 	C 	0.27288	0.65355	0.8122	0.323
Mof_C 	C 	0.18577	0.56989	0.9344	0.329
Mof_C 	C 	0.73864	0.63825	0.8132	0.327
Mof_C 	C 	0.8203	0.54977	0.93568	0.315
Mof_C 	C 	0.4669	0.6861	0.7032	-0.029
Mof_C 	C 	0.4687	0.7131	0.6633	-0.114
Mof_H 	H 	0.4414	0.7234	0.649	0.096
Mof_C 	C 	0.5096	0.7251	0.6443	0.174
Mof_C 	C 	0.5496	0.7086	0.6637	-0.116
Mof_H 	H 	0.5779	0.7163	0.6499	0.09
Mof_C 	C 	0.5481	0.681	0.7032	-0.033
Mof_C 	C 	0.50721	0.6701	0.7232	-0.021
Mof_H 	H 	0.5062	0.6515	0.7508	0.068
Mof_C 	C 	0.5465	0.7708	0.5876	-0.067
Mof_H 	H 	0.5693	0.7469	0.5812	0.057
Mof_H 	H 	0.5593	0.7923	0.6111	0.065
Mof_C 	C 	0.5338	0.7961	0.5405	0.189
Mof_C 	C 	0.5318	0.8408	0.5426	-0.244
Mof_H 	H 	0.5324	0.8568	0.572	0.115
Mof_C 	C 	0.42236	0.6764	0.7267	0.334
Mof_C 	C 	0.327	0.7319	0.6409	0.038
Mof_H 	H 	0.3582	0.7259	0.6461	0.035
Mof_C 	C 	0.313	0.7513	0.5983	-0.083
Mof_H 	H 	0.3346	0.7585	0.5744	0.065
Mof_C 	C 	0.2673	0.7601	0.5907	0.02
Mof_H 	H 	0.2577	0.7734	0.5615	0.029
Mof_C 	C 	0.2357	0.7496	0.6256	-0.089
Mof_H 	H 	0.2045	0.7556	0.6204	0.071
Mof_C 	C 	0.2498	0.7302	0.6682	0.052
Mof_H 	H 	0.2282	0.723	0.692	0.03
Mof_N 	N 	0.2954	0.72134	0.6758	-0.176
Mof_Cu	Cu	0.67381	0.31213	0.73479	0.919
Mof_Cu	Cu	0.63118	0.35809	0.802	0.908
Mof_O 	O 	0.77762	0.44474	0.95106	-0.384
Mof_O 	O 	0.85295	0.44214	0.95023	-0.378
Mof_O 	O 	0.8876	0.3329	0.81531	-0.223
Mof_O 	O 	0.09743	0.35235	0.83124	-0.216
Mof_O 	O 	0.25945	0.33975	0.77475	-0.392
Mof_O 	O 	0.29853	0.37608	0.83049	-0.398
Mof_O 	O 	0.21846	0.46296	0.95182	-0.372
Mof_O 	O 	0.14225	0.46575	0.95114	-0.374
Mof_O 	O 	0.69155	0.36236	0.83072	-0.394
Mof_O 	O 	0.72765	0.32358	0.77359	-0.388
Mof_O 	O 	0.61285	0.30806	0.70822	-0.399
Mof_O 	O 	0.57714	0.34743	0.76454	-0.396
Mof_O 	O 	0.41134	0.35464	0.76446	-0.4
Mof_O 	O 	0.37289	0.31834	0.7078	-0.399
Mof_O 	O 	0.49211	0.2478	0.6045	-0.205
Mof_C 	C 	0.77225	0.38654	0.87334	-0.028
Mof_H 	H 	0.7449	0.3987	0.8857	0.07
Mof_C 	C 	0.4087	0.332	0.7263	0.34
Mof_C 	C 	0.77056	0.35688	0.83453	-0.033
Mof_C 	C 	0.81065	0.33955	0.8171	-0.122
Mof_H 	H 	0.8099	0.3188	0.7913	0.099
Mof_C 	C 	0.85225	0.3519	0.8366	0.187
Mof_C 	C 	0.85314	0.38074	0.8756	-0.129
Mof_H 	H 	0.8811	0.3887	0.89	0.093
Mof_C 	C 	0.81237	0.39814	0.89359	-0.025
Mof_C 	C 	0.9287	0.3456	0.8304	-0.037
Mof_H 	H 	0.9341	0.3333	0.8627	0.054
Mof_H 	H 	0.9302	0.379	0.8322	0.047
Mof_C 	C 	0.96568	0.3278	0.7958	0.144
Mof_C 	C 	0.9552	0.3051	0.7575	-0.184
Mof_H 	H 	0.9242	0.3013	0.7493	0.118
Mof_C 	C 	0.9883	0.2862	0.7283	0.111
Mof_H 	H 	0.98	0.2671	0.7025	0.003
Mof_C 	C 	0.0327	0.2953	0.7374	-0.186
Mof_H 	H 	0.0556	0.2843	0.7167	0.101
Mof_C 	C 	0.0444	0.3205	0.7764	0.147
Mof_C 	C 	0.0108	0.3357	0.8051	-0.194
Mof_H 	H 	0.0186	0.3525	0.8327	0.111
Mof_C 	C 	0.0945	0.3281	0.7881	-0.07
Mof_H 	H 	0.1102	0.2986	0.7913	0.062
Mof_H 	H 	0.1093	0.3454	0.7622	0.063
Mof_C 	C 	0.13895	0.3674	0.8439	0.18
Mof_C 	C 	0.17879	0.35482	0.8222	-0.124
Mof_H 	H 	0.1786	0.3337	0.7967	0.088
Mof_C 	C 	0.21928	0.37337	0.838	-0.039
Mof_C 	C 	0.21961	0.40359	0.8749	-0.023
Mof_H 	H 	0.2475	0.4161	0.8853	0.068
Mof_C 	C 	0.17998	0.41611	0.8971	-0.026
Mof_C 	C 	0.1383	0.3985	0.881	-0.116
Mof_H 	H 	0.1105	0.4077	0.8952	0.096
Mof_C 	C 	0.72712	0.34645	0.8122	0.323
Mof_C 	C 	0.81423	0.43011	0.9344	0.329
Mof_C 	C 	0.26136	0.36175	0.8132	0.327
Mof_C 	C 	0.1797	0.45023	0.93568	0.315
Mof_C 	C 	0.5331	0.3139	0.7032	-0.029
Mof_C 	C 	0.5313	0.2869	0.6633	-0.114
Mof_H 	H 	0.5586	0.2766	0.649	0.096
Mof_C 	C 	0.4904	0.2749	0.6443	0.174
Mof_C 	C 	0.4504	0.2914	0.6637	-0.116
Mof_H 	H 	0.4221	0.2837	0.6499	0.09
Mof_C 	C 	0.4519	0.319	0.7032	-0.033
Mof_C 	C 	0.49279	0.3299	0.7232	-0.021
Mof_H 	H 	0.4938	0.3485	0.7508	0.068
Mof_C 	C 	0.4535	0.2292	0.5876	-0.067
Mof_H 	H 	0.4307	0.2531	0.5812	0.057
Mof_H 	H 	0.4407	0.2077	0.6111	0.065
Mof_C 	C 	0.4662	0.2039	0.5405	0.189
Mof_C 	C 	0.4682	0.1592	0.5426	-0.244
Mof_H 	H 	0.4676	0.1432	0.572	0.115
Mof_C 	C 	0.57764	0.3236	0.7267	0.334
Mof_C 	C 	0.673	0.2681	0.6409	0.038
Mof_H 	H 	0.6418	0.2741	0.6461	0.035
Mof_C 	C 	0.687	0.2487	0.5983	-0.083
Mof_H 	H 	0.6654	0.2415	0.5744	0.065
Mof_C 	C 	0.7327	0.2399	0.5907	0.02
Mof_H 	H 	0.7423	0.2266	0.5615	0.029
Mof_C 	C 	0.7643	0.2504	0.6256	-0.089
Mof_H 	H 	0.7955	0.2444	0.6204	0.071
Mof_C 	C 	0.7502	0.2698	0.6682	0.052
Mof_H 	H 	0.7718	0.277	0.692	0.03
Mof_N 	N 	0.7046	0.27866	0.6758	-0.176
Mof_Cu	Cu	0.31213	0.32619	0.26521	0.92
Mof_Cu	Cu	0.35809	0.36882	0.198	0.906
Mof_O 	O 	0.44474	0.22238	0.04894	-0.414
Mof_O 	O 	0.44214	0.14705	0.04977	-0.407
Mof_O 	O 	0.3329	0.1124	0.18469	-0.223
Mof_O 	O 	0.35235	0.90257	0.16876	-0.216
Mof_O 	O 	0.33975	0.74055	0.22525	-0.393
Mof_O 	O 	0.37608	0.70147	0.16951	-0.404
Mof_O 	O 	0.46296	0.78154	0.04818	-0.403
Mof_O 	O 	0.46575	0.85775	0.04886	-0.403
Mof_O 	O 	0.36236	0.30845	0.16928	-0.4
Mof_O 	O 	0.32358	0.27235	0.22641	-0.389
Mof_O 	O 	0.30806	0.38715	0.29178	-0.399
Mof_O 	O 	0.34743	0.42286	0.23546	-0.399
Mof_O 	O 	0.35464	0.58866	0.23554	-0.402
Mof_O 	O 	0.31834	0.62711	0.2922	-0.4
Mof_O 	O 	0.2478	0.50789	0.3955	-0.205
Mof_C 	C 	0.38654	0.22775	0.12666	-0.022
Mof_H 	H 	0.3987	0.2551	0.1143	0.061
Mof_C 	C 	0.332	0.5913	0.2737	0.341
Mof_C 	C 	0.35688	0.22944	0.16547	-0.04
Mof_C 	C 	0.33955	0.18935	0.1829	-0.118
Mof_H 	H 	0.3188	0.1901	0.2087	0.098
Mof_C 	C 	0.3519	0.14775	0.1634	0.182
Mof_C 	C 	0.38074	0.14686	0.1244	-0.125
Mof_H 	H 	0.3887	0.1189	0.11	0.085
Mof_C 	C 	0.39814	0.18763	0.10641	-0.039
Mof_C 	C 	0.3456	0.0713	0.1696	-0.032
Mof_H 	H 	0.3333	0.0659	0.1373	0.048
Mof_H 	H 	0.379	0.0698	0.1678	0.044
Mof_C 	C 	0.3278	0.03432	0.2042	0.14
Mof_C 	C 	0.3051	0.0448	0.2425	-0.18
Mof_H 	H 	0.3013	0.0758	0.2507	0.117
Mof_C 	C 	0.2862	0.0117	0.2717	0.109
Mof_H 	H 	0.2671	0.02	0.2975	0.004
Mof_C 	C 	0.2953	0.9673	0.2626	-0.183
Mof_H 	H 	0.2843	0.9444	0.2833	0.1
Mof_C 	C 	0.3205	0.9556	0.2236	0.144
Mof_C 	C 	0.3357	0.9892	0.1949	-0.191
Mof_H 	H 	0.3525	0.9814	0.1673	0.108
Mof_C 	C 	0.3281	0.9055	0.2119	-0.068
Mof_H 	H 	0.2986	0.8898	0.2087	0.061
Mof_H 	H 	0.3454	0.8907	0.2378	0.063
Mof_C 	C 	0.3674	0.86105	0.1561	0.174
Mof_C 	C 	0.35482	0.82121	0.1778	-0.121
Mof_H 	H 	0.3337	0.8214	0.2033	0.087
Mof_C 	C 	0.37337	0.78072	0.162	-0.046
Mof_C 	C 	0.40359	0.78039	0.1251	-0.018
Mof_H 	H 	0.4161	0.7525	0.1147	0.06
Mof_C 	C 	0.41611	0.82002	0.1029	-0.04
Mof_C 	C 	0.3985	0.8617	0.119	-0.112
Mof_H 	H 	0.4077	0.8895	0.1048	0.088
Mof_C 	C 	0.34645	0.27288	0.1878	0.326
Mof_C 	C 	0.43011	0.18577	0.0656	0.334
Mof_C 	C 	0.36175	0.73864	0.1868	0.329
Mof_C 	C 	0.45023	0.8203	0.06432	0.319
Mof_C 	C 	0.3139	0.4669	0.2968	-0.031
Mof_C 	C 	0.2869	0.4687	0.3367	-0.113
Mof_H 	H 	0.2766	0.4414	0.351	0.096
Mof_C 	C 	0.2749	0.5096	0.3557	0.173
Mof_C 	C 	0.2914	0.5496	0.3363	-0.115
Mof_H 	H 	0.2837	0.5779	0.3501	0.089
Mof_C 	C 	0.319	0.5481	0.2968	-0.034
Mof_C 	C 	0.3299	0.50721	0.2768	-0.019
Mof_H 	H 	0.3485	0.5062	0.2492	0.065
Mof_C 	C 	0.2292	0.5465	0.4124	-0.067
Mof_H 	H 	0.2531	0.5693	0.4188	0.058
Mof_H 	H 	0.2077	0.5593	0.3889	0.065
Mof_C 	C 	0.2039	0.5338	0.4595	0.189
Mof_C 	C 	0.1592	0.5318	0.4574	-0.244
Mof_H 	H 	0.1432	0.5324	0.428	0.115
Mof_C 	C 	0.3236	0.42236	0.2733	0.335
Mof_C 	C 	0.2681	0.327	0.3591	0.038
Mof_H 	H 	0.2741	0.3582	0.3539	0.035
Mof_C 	C 	0.2487	0.313	0.4017	-0.083
Mof_H 	H 	0.2415	0.3346	0.4256	0.065
Mof_C 	C 	0.2399	0.2673	0.4093	0.02
Mof_H 	H 	0.2266	0.2577	0.4385	0.029
Mof_C 	C 	0.2504	0.2357	0.3744	-0.089
Mof_H 	H 	0.2444	0.2045	0.3796	0.071
Mof_C 	C 	0.2698	0.2498	0.3318	0.052
Mof_H 	H 	0.277	0.2282	0.308	0.03
Mof_N 	N 	0.27866	0.2954	0.3242	-0.176
Mof_Cu	Cu	0.68787	0.67381	0.26521	0.92
Mof_Cu	Cu	0.64191	0.63118	0.198	0.906
Mof_O 	O 	0.55526	0.77762	0.04894	-0.414
Mof_O 	O 	0.55786	0.85295	0.04977	-0.407
Mof_O 	O 	0.6671	0.8876	0.18469	-0.223
Mof_O 	O 	0.64765	0.09743	0.16876	-0.216
Mof_O 	O 	0.66025	0.25945	0.22525	-0.393
Mof_O 	O 	0.62392	0.29853	0.16951	-0.404
Mof_O 	O 	0.53704	0.21846	0.04818	-0.403
Mof_O 	O 	0.53425	0.14225	0.04886	-0.403
Mof_O 	O 	0.63764	0.69155	0.16928	-0.4
Mof_O 	O 	0.67642	0.72765	0.22641	-0.389
Mof_O 	O 	0.69194	0.61285	0.29178	-0.399
Mof_O 	O 	0.65257	0.57714	0.23546	-0.399
Mof_O 	O 	0.64536	0.41134	0.23554	-0.402
Mof_O 	O 	0.68166	0.37289	0.2922	-0.4
Mof_O 	O 	0.7522	0.49211	0.3955	-0.205
Mof_C 	C 	0.61346	0.77225	0.12666	-0.022
Mof_H 	H 	0.6013	0.7449	0.1143	0.061
Mof_C 	C 	0.668	0.4087	0.2737	0.341
Mof_C 	C 	0.64312	0.77056	0.16547	-0.04
Mof_C 	C 	0.66045	0.81065	0.1829	-0.118
Mof_H 	H 	0.6812	0.8099	0.2087	0.098
Mof_C 	C 	0.6481	0.85225	0.1634	0.182
Mof_C 	C 	0.61926	0.85314	0.1244	-0.125
Mof_H 	H 	0.6113	0.8811	0.11	0.085
Mof_C 	C 	0.60186	0.81237	0.10641	-0.039
Mof_C 	C 	0.6544	0.9287	0.1696	-0.032
Mof_H 	H 	0.6667	0.9341	0.1373	0.048
Mof_H 	H 	0.621	0.9302	0.1678	0.044
Mof_C 	C 	0.6722	0.96568	0.2042	0.14
Mof_C 	C 	0.6949	0.9552	0.2425	-0.18
Mof_H 	H 	0.6987	0.9242	0.2507	0.117
Mof_C 	C 	0.7138	0.9883	0.2717	0.109
Mof_H 	H 	0.7329	0.98	0.2975	0.004
Mof_C 	C 	0.7047	0.0327	0.2626	-0.183
Mof_H 	H 	0.7157	0.0556	0.2833	0.1
Mof_C 	C 	0.6795	0.0444	0.2236	0.144
Mof_C 	C 	0.6643	0.0108	0.1949	-0.191
Mof_H 	H 	0.6475	0.0186	0.1673	0.108
Mof_C 	C 	0.6719	0.0945	0.2119	-0.068
Mof_H 	H 	0.7014	0.1102	0.2087	0.061
Mof_H 	H 	0.6546	0.1093	0.2378	0.063
Mof_C 	C 	0.6326	0.13895	0.1561	0.174
Mof_C 	C 	0.64518	0.17879	0.1778	-0.121
Mof_H 	H 	0.6663	0.1786	0.2033	0.087
Mof_C 	C 	0.62663	0.21928	0.162	-0.046
Mof_C 	C 	0.59641	0.21961	0.1251	-0.018
Mof_H 	H 	0.5839	0.2475	0.1147	0.06
Mof_C 	C 	0.58389	0.17998	0.1029	-0.04
Mof_C 	C 	0.6015	0.1383	0.119	-0.112
Mof_H 	H 	0.5923	0.1105	0.1048	0.088
Mof_C 	C 	0.65355	0.72712	0.1878	0.326
Mof_C 	C 	0.56989	0.81423	0.0656	0.334
Mof_C 	C 	0.63825	0.26136	0.1868	0.329
Mof_C 	C 	0.54977	0.1797	0.06432	0.319
Mof_C 	C 	0.6861	0.5331	0.2968	-0.031
Mof_C 	C 	0.7131	0.5313	0.3367	-0.113
Mof_H 	H 	0.7234	0.5586	0.351	0.096
Mof_C 	C 	0.7251	0.4904	0.3557	0.173
Mof_C 	C 	0.7086	0.4504	0.3363	-0.115
Mof_H 	H 	0.7163	0.4221	0.3501	0.089
Mof_C 	C 	0.681	0.4519	0.2968	-0.034
Mof_C 	C 	0.6701	0.49279	0.2768	-0.019
Mof_H 	H 	0.6515	0.4938	0.2492	0.065
Mof_C 	C 	0.7708	0.4535	0.4124	-0.067
Mof_H 	H 	0.7469	0.4307	0.4188	0.058
Mof_H 	H 	0.7923	0.4407	0.3889	0.065
Mof_C 	C 	0.7961	0.4662	0.4595	0.189
Mof_C 	C 	0.8408	0.4682	0.4574	-0.244
Mof_H 	H 	0.8568	0.4676	0.428	0.115
Mof_C 	C 	0.6764	0.57764	0.2733	0.335
Mof_C 	C 	0.7319	0.673	0.3591	0.038
Mof_H 	H 	0.7259	0.6418	0.3539	0.035
Mof_C 	C 	0.7513	0.687	0.4017	-0.083
Mof_H 	H 	0.7585	0.6654	0.4256	0.065
Mof_C 	C 	0.7601	0.7327	0.4093	0.02
Mof_H 	H 	0.7734	0.7423	0.4385	0.029
Mof_C 	C 	0.7496	0.7643	0.3744	-0.089
Mof_H 	H 	0.7556	0.7955	0.3796	0.071
Mof_C 	C 	0.7302	0.7502	0.3318	0.052
Mof_H 	H 	0.723	0.7718	0.308	0.03
Mof_N 	N 	0.72134	0.7046	0.3242	-0.176
Mof_Cu	Cu	0.67381	0.31213	0.26521	0.92
Mof_Cu	Cu	0.63118	0.35809	0.198	0.906
Mof_O 	O 	0.77762	0.44474	0.04894	-0.414
Mof_O 	O 	0.85295	0.44214	0.04977	-0.407
Mof_O 	O 	0.8876	0.3329	0.18469	-0.223
Mof_O 	O 	0.09743	0.35235	0.16876	-0.216
Mof_O 	O 	0.25945	0.33975	0.22525	-0.393
Mof_O 	O 	0.29853	0.37608	0.16951	-0.404
Mof_O 	O 	0.21846	0.46296	0.04818	-0.403
Mof_O 	O 	0.14225	0.46575	0.04886	-0.403
Mof_O 	O 	0.69155	0.36236	0.16928	-0.4
Mof_O 	O 	0.72765	0.32358	0.22641	-0.389
Mof_O 	O 	0.61285	0.30806	0.29178	-0.399
Mof_O 	O 	0.57714	0.34743	0.23546	-0.399
Mof_O 	O 	0.41134	0.35464	0.23554	-0.402
Mof_O 	O 	0.37289	0.31834	0.2922	-0.4
Mof_O 	O 	0.49211	0.2478	0.3955	-0.205
Mof_C 	C 	0.77225	0.38654	0.12666	-0.022
Mof_H 	H 	0.7449	0.3987	0.1143	0.061
Mof_C 	C 	0.4087	0.332	0.2737	0.341
Mof_C 	C 	0.77056	0.35688	0.16547	-0.04
Mof_C 	C 	0.81065	0.33955	0.1829	-0.118
Mof_H 	H 	0.8099	0.3188	0.2087	0.098
Mof_C 	C 	0.85225	0.3519	0.1634	0.182
Mof_C 	C 	0.85314	0.38074	0.1244	-0.125
Mof_H 	H 	0.8811	0.3887	0.11	0.085
Mof_C 	C 	0.81237	0.39814	0.10641	-0.039
Mof_C 	C 	0.9287	0.3456	0.1696	-0.032
Mof_H 	H 	0.9341	0.3333	0.1373	0.048
Mof_H 	H 	0.9302	0.379	0.1678	0.044
Mof_C 	C 	0.96568	0.3278	0.2042	0.14
Mof_C 	C 	0.9552	0.3051	0.2425	-0.18
Mof_H 	H 	0.9242	0.3013	0.2507	0.117
Mof_C 	C 	0.9883	0.2862	0.2717	0.109
Mof_H 	H 	0.98	0.2671	0.2975	0.004
Mof_C 	C 	0.0327	0.2953	0.2626	-0.183
Mof_H 	H 	0.0556	0.2843	0.2833	0.1
Mof_C 	C 	0.0444	0.3205	0.2236	0.144
Mof_C 	C 	0.0108	0.3357	0.1949	-0.191
Mof_H 	H 	0.0186	0.3525	0.1673	0.108
Mof_C 	C 	0.0945	0.3281	0.2119	-0.068
Mof_H 	H 	0.1102	0.2986	0.2087	0.061
Mof_H 	H 	0.1093	0.3454	0.2378	0.063
Mof_C 	C 	0.13895	0.3674	0.1561	0.174
Mof_C 	C 	0.17879	0.35482	0.1778	-0.121
Mof_H 	H 	0.1786	0.3337	0.2033	0.087
Mof_C 	C 	0.21928	0.37337	0.162	-0.046
Mof_C 	C 	0.21961	0.40359	0.1251	-0.018
Mof_H 	H 	0.2475	0.4161	0.1147	0.06
Mof_C 	C 	0.17998	0.41611	0.1029	-0.04
Mof_C 	C 	0.1383	0.3985	0.119	-0.112
Mof_H 	H 	0.1105	0.4077	0.1048	0.088
Mof_C 	C 	0.72712	0.34645	0.1878	0.326
Mof_C 	C 	0.81423	0.43011	0.0656	0.334
Mof_C 	C 	0.26136	0.36175	0.1868	0.329
Mof_C 	C 	0.1797	0.45023	0.06432	0.319
Mof_C 	C 	0.5331	0.3139	0.2968	-0.031
Mof_C 	C 	0.5313	0.2869	0.3367	-0.113
Mof_H 	H 	0.5586	0.2766	0.351	0.096
Mof_C 	C 	0.4904	0.2749	0.3557	0.173
Mof_C 	C 	0.4504	0.2914	0.3363	-0.115
Mof_H 	H 	0.4221	0.2837	0.3501	0.089
Mof_C 	C 	0.4519	0.319	0.2968	-0.034
Mof_C 	C 	0.49279	0.3299	0.2768	-0.019
Mof_H 	H 	0.4938	0.3485	0.2492	0.065
Mof_C 	C 	0.4535	0.2292	0.4124	-0.067
Mof_H 	H 	0.4307	0.2531	0.4188	0.058
Mof_H 	H 	0.4407	0.2077	0.3889	0.065
Mof_C 	C 	0.4662	0.2039	0.4595	0.189
Mof_C 	C 	0.4682	0.1592	0.4574	-0.244
Mof_H 	H 	0.4676	0.1432	0.428	0.115
Mof_C 	C 	0.57764	0.3236	0.2733	0.335
Mof_C 	C 	0.673	0.2681	0.3591	0.038
Mof_H 	H 	0.6418	0.2741	0.3539	0.035
Mof_C 	C 	0.687	0.2487	0.4017	-0.083
Mof_H 	H 	0.6654	0.2415	0.4256	0.065
Mof_C 	C 	0.7327	0.2399	0.4093	0.02
Mof_H 	H 	0.7423	0.2266	0.4385	0.029
Mof_C 	C 	0.7643	0.2504	0.3744	-0.089
Mof_H 	H 	0.7955	0.2444	0.3796	0.071
Mof_C 	C 	0.7502	0.2698	0.3318	0.052
Mof_H 	H 	0.7718	0.277	0.308	0.03
Mof_N 	N 	0.7046	0.27866	0.3242	-0.176
Mof_Cu	Cu	0.32619	0.68787	0.26521	0.92
Mof_Cu	Cu	0.36882	0.64191	0.198	0.906
Mof_O 	O 	0.22238	0.55526	0.04894	-0.414
Mof_O 	O 	0.14705	0.55786	0.04977	-0.407
Mof_O 	O 	0.1124	0.6671	0.18469	-0.223
Mof_O 	O 	0.90257	0.64765	0.16876	-0.216
Mof_O 	O 	0.74055	0.66025	0.22525	-0.393
Mof_O 	O 	0.70147	0.62392	0.16951	-0.404
Mof_O 	O 	0.78154	0.53704	0.04818	-0.403
Mof_O 	O 	0.85775	0.53425	0.04886	-0.403
Mof_O 	O 	0.30845	0.63764	0.16928	-0.4
Mof_O 	O 	0.27235	0.67642	0.22641	-0.389
Mof_O 	O 	0.38715	0.69194	0.29178	-0.399
Mof_O 	O 	0.42286	0.65257	0.23546	-0.399
Mof_O 	O 	0.58866	0.64536	0.23554	-0.402
Mof_O 	O 	0.62711	0.68166	0.2922	-0.4
Mof_O 	O 	0.50789	0.7522	0.3955	-0.205
Mof_C 	C 	0.22775	0.61346	0.12666	-0.022
Mof_H 	H 	0.2551	0.6013	0.1143	0.061
Mof_C 	C 	0.5913	0.668	0.2737	0.341
Mof_C 	C 	0.22944	0.64312	0.16547	-0.04
Mof_C 	C 	0.18935	0.66045	0.1829	-0.118
Mof_H 	H 	0.1901	0.6812	0.2087	0.098
Mof_C 	C 	0.14775	0.6481	0.1634	0.182
Mof_C 	C 	0.14686	0.61926	0.1244	-0.125
Mof_H 	H 	0.1189	0.6113	0.11	0.085
Mof_C 	C 	0.18763	0.60186	0.10641	-0.039
Mof_C 	C 	0.0713	0.6544	0.1696	-0.032
Mof_H 	H 	0.0659	0.6667	0.1373	0.048
Mof_H 	H 	0.0698	0.621	0.1678	0.044
Mof_C 	C 	0.03432	0.6722	0.2042	0.14
Mof_C 	C 	0.0448	0.6949	0.2425	-0.18
Mof_H 	H 	0.0758	0.6987	0.2507	0.117
Mof_C 	C 	0.0117	0.7138	0.2717	0.109
Mof_H 	H 	0.02	0.7329	0.2975	0.004
Mof_C 	C 	0.9673	0.7047	0.2626	-0.183
Mof_H 	H 	0.9444	0.7157	0.2833	0.1
Mof_C 	C 	0.9556	0.6795	0.2236	0.144
Mof_C 	C 	0.9892	0.6643	0.1949	-0.191
Mof_H 	H 	0.9814	0.6475	0.1673	0.108
Mof_C 	C 	0.9055	0.6719	0.2119	-0.068
Mof_H 	H 	0.8898	0.7014	0.2087	0.061
Mof_H 	H 	0.8907	0.6546	0.2378	0.063
Mof_C 	C 	0.86105	0.6326	0.1561	0.174
Mof_C 	C 	0.82121	0.64518	0.1778	-0.121
Mof_H 	H 	0.8214	0.6663	0.2033	0.087
Mof_C 	C 	0.78072	0.62663	0.162	-0.046
Mof_C 	C 	0.78039	0.59641	0.1251	-0.018
Mof_H 	H 	0.7525	0.5839	0.1147	0.06
Mof_C 	C 	0.82002	0.58389	0.1029	-0.04
Mof_C 	C 	0.8617	0.6015	0.119	-0.112
Mof_H 	H 	0.8895	0.5923	0.1048	0.088
Mof_C 	C 	0.27288	0.65355	0.1878	0.326
Mof_C 	C 	0.18577	0.56989	0.0656	0.334
Mof_C 	C 	0.73864	0.63825	0.1868	0.329
Mof_C 	C 	0.8203	0.54977	0.06432	0.319
Mof_C 	C 	0.4669	0.6861	0.2968	-0.031
Mof_C 	C 	0.4687	0.7131	0.3367	-0.113
Mof_H 	H 	0.4414	0.7234	0.351	0.096
Mof_C 	C 	0.5096	0.7251	0.3557	0.173
Mof_C 	C 	0.5496	0.7086	0.3363	-0.115
Mof_H 	H 	0.5779	0.7163	0.3501	0.089
Mof_C 	C 	0.5481	0.681	0.2968	-0.034
Mof_C 	C 	0.50721	0.6701	0.2768	-0.019
Mof_H 	H 	0.5062	0.6515	0.2492	0.065
Mof_C 	C 	0.5465	0.7708	0.4124	-0.067
Mof_H 	H 	0.5693	0.7469	0.4188	0.058
Mof_H 	H 	0.5593	0.7923	0.3889	0.065
Mof_C 	C 	0.5338	0.7961	0.4595	0.189
Mof_C 	C 	0.5318	0.8408	0.4574	-0.244
Mof_H 	H 	0.5324	0.8568	0.428	0.115
Mof_C 	C 	0.42236	0.6764	0.2733	0.335
Mof_C 	C 	0.327	0.7319	0.3591	0.038
Mof_H 	H 	0.3582	0.7259	0.3539	0.035
Mof_C 	C 	0.313	0.7513	0.4017	-0.083
Mof_H 	H 	0.3346	0.7585	0.4256	0.065
Mof_C 	C 	0.2673	0.7601	0.4093	0.02
Mof_H 	H 	0.2577	0.7734	0.4385	0.029
Mof_C 	C 	0.2357	0.7496	0.3744	-0.089
Mof_H 	H 	0.2045	0.7556	0.3796	0.071
Mof_C 	C 	0.2498	0.7302	0.3318	0.052
Mof_H 	H 	0.2282	0.723	0.308	0.03
Mof_N 	N 	0.2954	0.72134	0.3242	-0.176
Mof_Cu	Cu	0.51231	0.86176	-0	0.885
Mof_Cu	Cu	0.50925	0.77316	-0	0.889
Mof_Cu	Cu	0.48769	0.13824	-0	0.885
Mof_Cu	Cu	0.49075	0.22684	-0	0.889
Mof_Cu	Cu	0.13824	0.51231	-0	0.885
Mof_Cu	Cu	0.22684	0.50925	-0	0.889
Mof_Cu	Cu	0.86176	0.48769	-0	0.885
Mof_Cu	Cu	0.77316	0.49075	-0	0.889
Mof_C 	C 	0.8626	0.4714	0.5	0.163
Mof_H 	H 	0.8944	0.476	0.5	-0.026
Mof_C 	C 	0.7714	0.4684	0.5	-0.249
Mof_H 	H 	0.7393	0.4713	0.5	0.129
Mof_C 	C 	0.1374	0.5286	0.5	0.163
Mof_H 	H 	0.1056	0.524	0.5	-0.026
Mof_C 	C 	0.2286	0.5316	0.5	-0.249
Mof_H 	H 	0.2607	0.5287	0.5	0.129
Mof_C 	C 	0.5286	0.8626	0.5	0.163
Mof_H 	H 	0.524	0.8944	0.5	-0.026
Mof_C 	C 	0.5316	0.7714	0.5	-0.249
Mof_H 	H 	0.5287	0.7393	0.5	0.129
Mof_C 	C 	0.4714	0.1374	0.5	0.163
Mof_H 	H 	0.476	0.1056	0.5	-0.026
Mof_C 	C 	0.4684	0.2286	0.5	-0.249
Mof_H 	H 	0.4713	0.2607	0.5	0.129
_end
