# CIF file generated by openbabel 3.1.0, see https://openbabel.org
data_I
_chemical_name_common 'image0'
_cell_length_a 42.606
_cell_length_b 42.606
_cell_length_c 42.606
_cell_angle_alpha 90
_cell_angle_beta 90
_cell_angle_gamma 90
_space_group_name_H-M_alt 'P 1'
_space_group_name_Hall 'P 1'
loop_
    _symmetry_equiv_pos_as_xyz
    x,y,z
loop_
    _atom_site_label
    _atom_site_type_symbol
    _atom_site_fract_x
    _atom_site_fract_y
    _atom_site_fract_z
    _atom_site_occupancy
    N1       N        0.30716    0.17067    0.10606    1.000
    C1       C        0.28695    0.17787    0.08351    1.000
    H1       H        0.26930    0.16600    0.07860    1.000
    O1       O        0.25449    0.20877    0.03293    1.000
    N2       N        0.30716    0.67067    0.60606    1.000
    C2       C        0.28695    0.67787    0.58351    1.000
    H2       H        0.26930    0.66600    0.57860    1.000
    O2       O        0.25449    0.70877    0.53293    1.000
    N3       N        0.80716    0.17067    0.60606    1.000
    C3       C        0.78695    0.17787    0.58351    1.000
    H3       H        0.76930    0.16600    0.57860    1.000
    O3       O        0.75449    0.20877    0.53293    1.000
    N4       N        0.80716    0.67067    0.10606    1.000
    C4       C        0.78695    0.67787    0.08351    1.000
    H4       H        0.76930    0.66600    0.07860    1.000
    O4       O        0.75449    0.70877    0.03293    1.000
    N5       N        0.69284    0.82933    0.10606    1.000
    C5       C        0.71305    0.82213    0.08351    1.000
    H5       H        0.73070    0.83400    0.07860    1.000
    O5       O        0.74551    0.79123    0.03293    1.000
    N6       N        0.69284    0.32933    0.60606    1.000
    C6       C        0.71305    0.32213    0.58351    1.000
    H6       H        0.73070    0.33400    0.57860    1.000
    O6       O        0.74551    0.29123    0.53293    1.000
    N7       N        0.19284    0.82933    0.60606    1.000
    C7       C        0.21305    0.82213    0.58351    1.000
    H7       H        0.23070    0.83400    0.57860    1.000
    O7       O        0.24551    0.79123    0.53293    1.000
    N8       N        0.19284    0.32933    0.10606    1.000
    C8       C        0.21305    0.32213    0.08351    1.000
    H8       H        0.23070    0.33400    0.07860    1.000
    O8       O        0.24551    0.29123    0.03293    1.000
    N9       N        0.69284    0.17067    0.89394    1.000
    C9       C        0.71305    0.17787    0.91649    1.000
    H9       H        0.73070    0.16600    0.92140    1.000
    O9       O        0.74551    0.20877    0.96707    1.000
    N10      N        0.69284    0.67067    0.39394    1.000
    C10      C        0.71305    0.67787    0.41649    1.000
    H10      H        0.73070    0.66600    0.42140    1.000
    O10      O        0.74551    0.70877    0.46707    1.000
    N11      N        0.19284    0.17067    0.39394    1.000
    C11      C        0.21305    0.17787    0.41649    1.000
    H11      H        0.23070    0.16600    0.42140    1.000
    O11      O        0.24551    0.20877    0.46707    1.000
    N12      N        0.19284    0.67067    0.89394    1.000
    C12      C        0.21305    0.67787    0.91649    1.000
    H12      H        0.23070    0.66600    0.92140    1.000
    O12      O        0.24551    0.70877    0.96707    1.000
    N13      N        0.30716    0.82933    0.89394    1.000
    C13      C        0.28695    0.82213    0.91649    1.000
    H13      H        0.26930    0.83400    0.92140    1.000
    O13      O        0.25449    0.79123    0.96707    1.000
    N14      N        0.30716    0.32933    0.39394    1.000
    C14      C        0.28695    0.32213    0.41649    1.000
    H14      H        0.26930    0.33400    0.42140    1.000
    O14      O        0.25449    0.29123    0.46707    1.000
    N15      N        0.80716    0.82933    0.39394    1.000
    C15      C        0.78695    0.82213    0.41649    1.000
    H15      H        0.76930    0.83400    0.42140    1.000
    O15      O        0.75449    0.79123    0.46707    1.000
    N16      N        0.80716    0.32933    0.89394    1.000
    C16      C        0.78695    0.32213    0.91649    1.000
    H16      H        0.76930    0.33400    0.92140    1.000
    O16      O        0.75449    0.29123    0.96707    1.000
    N17      N        0.10606    0.30716    0.17067    1.000
    C17      C        0.08351    0.28695    0.17787    1.000
    H17      H        0.07860    0.26930    0.16600    1.000
    O17      O        0.03293    0.25449    0.20877    1.000
    N18      N        0.10606    0.80716    0.67067    1.000
    C18      C        0.08351    0.78695    0.67787    1.000
    H18      H        0.07860    0.76930    0.66600    1.000
    O18      O        0.03293    0.75449    0.70877    1.000
    N19      N        0.60606    0.30716    0.67067    1.000
    C19      C        0.58351    0.28695    0.67787    1.000
    H19      H        0.57860    0.26930    0.66600    1.000
    O19      O        0.53293    0.25449    0.70877    1.000
    N20      N        0.60606    0.80716    0.17067    1.000
    C20      C        0.58351    0.78695    0.17787    1.000
    H20      H        0.57860    0.76930    0.16600    1.000
    O20      O        0.53293    0.75449    0.20877    1.000
    N21      N        0.10606    0.69284    0.82933    1.000
    C21      C        0.08351    0.71305    0.82213    1.000
    H21      H        0.07860    0.73070    0.83400    1.000
    O21      O        0.03293    0.74551    0.79123    1.000
    N22      N        0.10606    0.19284    0.32933    1.000
    C22      C        0.08351    0.21305    0.32213    1.000
    H22      H        0.07860    0.23070    0.33400    1.000
    O22      O        0.03293    0.24551    0.29123    1.000
    N23      N        0.60606    0.69284    0.32933    1.000
    C23      C        0.58351    0.71305    0.32213    1.000
    H23      H        0.57860    0.73070    0.33400    1.000
    O23      O        0.53293    0.74551    0.29123    1.000
    N24      N        0.60606    0.19284    0.82933    1.000
    C24      C        0.58351    0.21305    0.82213    1.000
    H24      H        0.57860    0.23070    0.83400    1.000
    O24      O        0.53293    0.24551    0.79123    1.000
    N25      N        0.89394    0.69284    0.17067    1.000
    C25      C        0.91649    0.71305    0.17787    1.000
    H25      H        0.92140    0.73070    0.16600    1.000
    O25      O        0.96707    0.74551    0.20877    1.000
    N26      N        0.89394    0.19284    0.67067    1.000
    C26      C        0.91649    0.21305    0.67787    1.000
    H26      H        0.92140    0.23070    0.66600    1.000
    O26      O        0.96707    0.24551    0.70877    1.000
    N27      N        0.39394    0.69284    0.67067    1.000
    C27      C        0.41649    0.71305    0.67787    1.000
    H27      H        0.42140    0.73070    0.66600    1.000
    O27      O        0.46707    0.74551    0.70877    1.000
    N28      N        0.39394    0.19284    0.17067    1.000
    C28      C        0.41649    0.21305    0.17787    1.000
    H28      H        0.42140    0.23070    0.16600    1.000
    O28      O        0.46707    0.24551    0.20877    1.000
    N29      N        0.89394    0.30716    0.82933    1.000
    C29      C        0.91649    0.28695    0.82213    1.000
    H29      H        0.92140    0.26930    0.83400    1.000
    O29      O        0.96707    0.25449    0.79123    1.000
    N30      N        0.89394    0.80716    0.32933    1.000
    C30      C        0.91649    0.78695    0.32213    1.000
    H30      H        0.92140    0.76930    0.33400    1.000
    O30      O        0.96707    0.75449    0.29123    1.000
    N31      N        0.39394    0.30716    0.32933    1.000
    C31      C        0.41649    0.28695    0.32213    1.000
    H31      H        0.42140    0.26930    0.33400    1.000
    O31      O        0.46707    0.25449    0.29123    1.000
    N32      N        0.39394    0.80716    0.82933    1.000
    C32      C        0.41649    0.78695    0.82213    1.000
    H32      H        0.42140    0.76930    0.83400    1.000
    O32      O        0.46707    0.75449    0.79123    1.000
    N33      N        0.17067    0.10606    0.30716    1.000
    C33      C        0.17787    0.08351    0.28695    1.000
    H33      H        0.16600    0.07860    0.26930    1.000
    O33      O        0.20877    0.03293    0.25449    1.000
    N34      N        0.17067    0.60606    0.80716    1.000
    C34      C        0.17787    0.58351    0.78695    1.000
    H34      H        0.16600    0.57860    0.76930    1.000
    O34      O        0.20877    0.53293    0.75449    1.000
    N35      N        0.67067    0.10606    0.80716    1.000
    C35      C        0.67787    0.08351    0.78695    1.000
    H35      H        0.66600    0.07860    0.76930    1.000
    O35      O        0.70877    0.03293    0.75449    1.000
    N36      N        0.67067    0.60606    0.30716    1.000
    C36      C        0.67787    0.58351    0.28695    1.000
    H36      H        0.66600    0.57860    0.26930    1.000
    O36      O        0.70877    0.53293    0.25449    1.000
    N37      N        0.82933    0.10606    0.69284    1.000
    C37      C        0.82213    0.08351    0.71305    1.000
    H37      H        0.83400    0.07860    0.73070    1.000
    O37      O        0.79123    0.03293    0.74551    1.000
    N38      N        0.82933    0.60606    0.19284    1.000
    C38      C        0.82213    0.58351    0.21305    1.000
    H38      H        0.83400    0.57860    0.23070    1.000
    O38      O        0.79123    0.53293    0.24551    1.000
    N39      N        0.32933    0.10606    0.19284    1.000
    C39      C        0.32213    0.08351    0.21305    1.000
    H39      H        0.33400    0.07860    0.23070    1.000
    O39      O        0.29123    0.03293    0.24551    1.000
    N40      N        0.32933    0.60606    0.69284    1.000
    C40      C        0.32213    0.58351    0.71305    1.000
    H40      H        0.33400    0.57860    0.73070    1.000
    O40      O        0.29123    0.53293    0.74551    1.000
    N41      N        0.17067    0.89394    0.69284    1.000
    C41      C        0.17787    0.91649    0.71305    1.000
    H41      H        0.16600    0.92140    0.73070    1.000
    O41      O        0.20877    0.96707    0.74551    1.000
    N42      N        0.17067    0.39394    0.19284    1.000
    C42      C        0.17787    0.41649    0.21305    1.000
    H42      H        0.16600    0.42140    0.23070    1.000
    O42      O        0.20877    0.46707    0.24551    1.000
    N43      N        0.67067    0.89394    0.19284    1.000
    C43      C        0.67787    0.91649    0.21305    1.000
    H43      H        0.66600    0.92140    0.23070    1.000
    O43      O        0.70877    0.96707    0.24551    1.000
    N44      N        0.67067    0.39394    0.69284    1.000
    C44      C        0.67787    0.41649    0.71305    1.000
    H44      H        0.66600    0.42140    0.73070    1.000
    O44      O        0.70877    0.46707    0.74551    1.000
    N45      N        0.82933    0.89394    0.30716    1.000
    C45      C        0.82213    0.91649    0.28695    1.000
    H45      H        0.83400    0.92140    0.26930    1.000
    O45      O        0.79123    0.96707    0.25449    1.000
    N46      N        0.82933    0.39394    0.80716    1.000
    C46      C        0.82213    0.41649    0.78695    1.000
    H46      H        0.83400    0.42140    0.76930    1.000
    O46      O        0.79123    0.46707    0.75449    1.000
    N47      N        0.32933    0.89394    0.80716    1.000
    C47      C        0.32213    0.91649    0.78695    1.000
    H47      H        0.33400    0.92140    0.76930    1.000
    O47      O        0.29123    0.96707    0.75449    1.000
    N48      N        0.32933    0.39394    0.30716    1.000
    C48      C        0.32213    0.41649    0.28695    1.000
    H48      H        0.33400    0.42140    0.26930    1.000
    O48      O        0.29123    0.46707    0.25449    1.000
    N49      N        0.17067    0.30716    0.89394    1.000
    C49      C        0.17787    0.28695    0.91649    1.000
    H49      H        0.16600    0.26930    0.92140    1.000
    O49      O        0.20877    0.25449    0.96707    1.000
    N50      N        0.17067    0.80716    0.39394    1.000
    C50      C        0.17787    0.78695    0.41649    1.000
    H50      H        0.16600    0.76930    0.42140    1.000
    O50      O        0.20877    0.75449    0.46707    1.000
    N51      N        0.67067    0.30716    0.39394    1.000
    C51      C        0.67787    0.28695    0.41649    1.000
    H51      H        0.66600    0.26930    0.42140    1.000
    O51      O        0.70877    0.25449    0.46707    1.000
    N52      N        0.67067    0.80716    0.89394    1.000
    C52      C        0.67787    0.78695    0.91649    1.000
    H52      H        0.66600    0.76930    0.92140    1.000
    O52      O        0.70877    0.75449    0.96707    1.000
    N53      N        0.82933    0.69284    0.89394    1.000
    C53      C        0.82213    0.71305    0.91649    1.000
    H53      H        0.83400    0.73070    0.92140    1.000
    O53      O        0.79123    0.74551    0.96707    1.000
    N54      N        0.82933    0.19284    0.39394    1.000
    C54      C        0.82213    0.21305    0.41649    1.000
    H54      H        0.83400    0.23070    0.42140    1.000
    O54      O        0.79123    0.24551    0.46707    1.000
    N55      N        0.32933    0.69284    0.39394    1.000
    C55      C        0.32213    0.71305    0.41649    1.000
    H55      H        0.33400    0.73070    0.42140    1.000
    O55      O        0.29123    0.74551    0.46707    1.000
    N56      N        0.32933    0.19284    0.89394    1.000
    C56      C        0.32213    0.21305    0.91649    1.000
    H56      H        0.33400    0.23070    0.92140    1.000
    O56      O        0.29123    0.24551    0.96707    1.000
    N57      N        0.17067    0.69284    0.10606    1.000
    C57      C        0.17787    0.71305    0.08351    1.000
    H57      H        0.16600    0.73070    0.07860    1.000
    O57      O        0.20877    0.74551    0.03293    1.000
    N58      N        0.17067    0.19284    0.60606    1.000
    C58      C        0.17787    0.21305    0.58351    1.000
    H58      H        0.16600    0.23070    0.57860    1.000
    O58      O        0.20877    0.24551    0.53293    1.000
    N59      N        0.67067    0.69284    0.60606    1.000
    C59      C        0.67787    0.71305    0.58351    1.000
    H59      H        0.66600    0.73070    0.57860    1.000
    O59      O        0.70877    0.74551    0.53293    1.000
    N60      N        0.67067    0.19284    0.10606    1.000
    C60      C        0.67787    0.21305    0.08351    1.000
    H60      H        0.66600    0.23070    0.07860    1.000
    O60      O        0.70877    0.24551    0.03293    1.000
    N61      N        0.82933    0.30716    0.10606    1.000
    C61      C        0.82213    0.28695    0.08351    1.000
    H61      H        0.83400    0.26930    0.07860    1.000
    O61      O        0.79123    0.25449    0.03293    1.000
    N62      N        0.82933    0.80716    0.60606    1.000
    C62      C        0.82213    0.78695    0.58351    1.000
    H62      H        0.83400    0.76930    0.57860    1.000
    O62      O        0.79123    0.75449    0.53293    1.000
    N63      N        0.32933    0.30716    0.60606    1.000
    C63      C        0.32213    0.28695    0.58351    1.000
    H63      H        0.33400    0.26930    0.57860    1.000
    O63      O        0.29123    0.25449    0.53293    1.000
    N64      N        0.32933    0.80716    0.10606    1.000
    C64      C        0.32213    0.78695    0.08351    1.000
    H64      H        0.33400    0.76930    0.07860    1.000
    O64      O        0.29123    0.75449    0.03293    1.000
    N65      N        0.30716    0.10606    0.82933    1.000
    C65      C        0.28695    0.08351    0.82213    1.000
    H65      H        0.26930    0.07860    0.83400    1.000
    O65      O        0.25449    0.03293    0.79123    1.000
    N66      N        0.30716    0.60606    0.32933    1.000
    C66      C        0.28695    0.58351    0.32213    1.000
    H66      H        0.26930    0.57860    0.33400    1.000
    O66      O        0.25449    0.53293    0.29123    1.000
    N67      N        0.80716    0.10606    0.32933    1.000
    C67      C        0.78695    0.08351    0.32213    1.000
    H67      H        0.76930    0.07860    0.33400    1.000
    O67      O        0.75449    0.03293    0.29123    1.000
    N68      N        0.80716    0.60606    0.82933    1.000
    C68      C        0.78695    0.58351    0.82213    1.000
    H68      H        0.76930    0.57860    0.83400    1.000
    O68      O        0.75449    0.53293    0.79123    1.000
    N69      N        0.69284    0.10606    0.17067    1.000
    C69      C        0.71305    0.08351    0.17787    1.000
    H69      H        0.73070    0.07860    0.16600    1.000
    O69      O        0.74551    0.03293    0.20877    1.000
    N70      N        0.69284    0.60606    0.67067    1.000
    C70      C        0.71305    0.58351    0.67787    1.000
    H70      H        0.73070    0.57860    0.66600    1.000
    O70      O        0.74551    0.53293    0.70877    1.000
    N71      N        0.19284    0.10606    0.67067    1.000
    C71      C        0.21305    0.08351    0.67787    1.000
    H71      H        0.23070    0.07860    0.66600    1.000
    O71      O        0.24551    0.03293    0.70877    1.000
    N72      N        0.19284    0.60606    0.17067    1.000
    C72      C        0.21305    0.58351    0.17787    1.000
    H72      H        0.23070    0.57860    0.16600    1.000
    O72      O        0.24551    0.53293    0.20877    1.000
    N73      N        0.69284    0.89394    0.82933    1.000
    C73      C        0.71305    0.91649    0.82213    1.000
    H73      H        0.73070    0.92140    0.83400    1.000
    O73      O        0.74551    0.96707    0.79123    1.000
    N74      N        0.69284    0.39394    0.32933    1.000
    C74      C        0.71305    0.41649    0.32213    1.000
    H74      H        0.73070    0.42140    0.33400    1.000
    O74      O        0.74551    0.46707    0.29123    1.000
    N75      N        0.19284    0.89394    0.32933    1.000
    C75      C        0.21305    0.91649    0.32213    1.000
    H75      H        0.23070    0.92140    0.33400    1.000
    O75      O        0.24551    0.96707    0.29123    1.000
    N76      N        0.19284    0.39394    0.82933    1.000
    C76      C        0.21305    0.41649    0.82213    1.000
    H76      H        0.23070    0.42140    0.83400    1.000
    O76      O        0.24551    0.46707    0.79123    1.000
    N77      N        0.30716    0.89394    0.17067    1.000
    C77      C        0.28695    0.91649    0.17787    1.000
    H77      H        0.26930    0.92140    0.16600    1.000
    O77      O        0.25449    0.96707    0.20877    1.000
    N78      N        0.30716    0.39394    0.67067    1.000
    C78      C        0.28695    0.41649    0.67787    1.000
    H78      H        0.26930    0.42140    0.66600    1.000
    O78      O        0.25449    0.46707    0.70877    1.000
    N79      N        0.80716    0.89394    0.67067    1.000
    C79      C        0.78695    0.91649    0.67787    1.000
    H79      H        0.76930    0.92140    0.66600    1.000
    O79      O        0.75449    0.96707    0.70877    1.000
    N80      N        0.80716    0.39394    0.17067    1.000
    C80      C        0.78695    0.41649    0.17787    1.000
    H80      H        0.76930    0.42140    0.16600    1.000
    O80      O        0.75449    0.46707    0.20877    1.000
    N81      N        0.10606    0.17067    0.69284    1.000
    C81      C        0.08351    0.17787    0.71305    1.000
    H81      H        0.07860    0.16600    0.73070    1.000
    O81      O        0.03293    0.20877    0.74551    1.000
    N82      N        0.10606    0.67067    0.19284    1.000
    C82      C        0.08351    0.67787    0.21305    1.000
    H82      H        0.07860    0.66600    0.23070    1.000
    O82      O        0.03293    0.70877    0.24551    1.000
    N83      N        0.60606    0.17067    0.19284    1.000
    C83      C        0.58351    0.17787    0.21305    1.000
    H83      H        0.57860    0.16600    0.23070    1.000
    O83      O        0.53293    0.20877    0.24551    1.000
    N84      N        0.60606    0.67067    0.69284    1.000
    C84      C        0.58351    0.67787    0.71305    1.000
    H84      H        0.57860    0.66600    0.73070    1.000
    O84      O        0.53293    0.70877    0.74551    1.000
    N85      N        0.10606    0.82933    0.30716    1.000
    C85      C        0.08351    0.82213    0.28695    1.000
    H85      H        0.07860    0.83400    0.26930    1.000
    O85      O        0.03293    0.79123    0.25449    1.000
    N86      N        0.10606    0.32933    0.80716    1.000
    C86      C        0.08351    0.32213    0.78695    1.000
    H86      H        0.07860    0.33400    0.76930    1.000
    O86      O        0.03293    0.29123    0.75449    1.000
    N87      N        0.60606    0.82933    0.80716    1.000
    C87      C        0.58351    0.82213    0.78695    1.000
    H87      H        0.57860    0.83400    0.76930    1.000
    O87      O        0.53293    0.79123    0.75449    1.000
    N88      N        0.60606    0.32933    0.30716    1.000
    C88      C        0.58351    0.32213    0.28695    1.000
    H88      H        0.57860    0.33400    0.26930    1.000
    O88      O        0.53293    0.29123    0.25449    1.000
    N89      N        0.89394    0.17067    0.30716    1.000
    C89      C        0.91649    0.17787    0.28695    1.000
    H89      H        0.92140    0.16600    0.26930    1.000
    O89      O        0.96707    0.20877    0.25449    1.000
    N90      N        0.89394    0.67067    0.80716    1.000
    C90      C        0.91649    0.67787    0.78695    1.000
    H90      H        0.92140    0.66600    0.76930    1.000
    O90      O        0.96707    0.70877    0.75449    1.000
    N91      N        0.39394    0.17067    0.80716    1.000
    C91      C        0.41649    0.17787    0.78695    1.000
    H91      H        0.42140    0.16600    0.76930    1.000
    O91      O        0.46707    0.20877    0.75449    1.000
    N92      N        0.39394    0.67067    0.30716    1.000
    C92      C        0.41649    0.67787    0.28695    1.000
    H92      H        0.42140    0.66600    0.26930    1.000
    O92      O        0.46707    0.70877    0.25449    1.000
    N93      N        0.89394    0.82933    0.69284    1.000
    C93      C        0.91649    0.82213    0.71305    1.000
    H93      H        0.92140    0.83400    0.73070    1.000
    O93      O        0.96707    0.79123    0.74551    1.000
    N94      N        0.89394    0.32933    0.19284    1.000
    C94      C        0.91649    0.32213    0.21305    1.000
    H94      H        0.92140    0.33400    0.23070    1.000
    O94      O        0.96707    0.29123    0.24551    1.000
    N95      N        0.39394    0.82933    0.19284    1.000
    C95      C        0.41649    0.82213    0.21305    1.000
    H95      H        0.42140    0.83400    0.23070    1.000
    O95      O        0.46707    0.79123    0.24551    1.000
    N96      N        0.39394    0.32933    0.69284    1.000
    C96      C        0.41649    0.32213    0.71305    1.000
    H96      H        0.42140    0.33400    0.73070    1.000
    O96      O        0.46707    0.29123    0.74551    1.000
    N97      N        0.69284    0.82933    0.89394    1.000
    C97      C        0.71305    0.82213    0.91649    1.000
    H97      H        0.73070    0.83400    0.92140    1.000
    O97      O        0.74551    0.79123    0.96707    1.000
    N98      N        0.69284    0.32933    0.39394    1.000
    C98      C        0.71305    0.32213    0.41649    1.000
    H98      H        0.73070    0.33400    0.42140    1.000
    O98      O        0.74551    0.29123    0.46707    1.000
    N99      N        0.19284    0.82933    0.39394    1.000
    C99      C        0.21305    0.82213    0.41649    1.000
    H99      H        0.23070    0.83400    0.42140    1.000
    O99      O        0.24551    0.79123    0.46707    1.000
    N100     N        0.19284    0.32933    0.89394    1.000
    C100     C        0.21305    0.32213    0.91649    1.000
    H100     H        0.23070    0.33400    0.92140    1.000
    O100     O        0.24551    0.29123    0.96707    1.000
    N101     N        0.30716    0.17067    0.89394    1.000
    C101     C        0.28695    0.17787    0.91649    1.000
    H101     H        0.26930    0.16600    0.92140    1.000
    O101     O        0.25449    0.20877    0.96707    1.000
    N102     N        0.30716    0.67067    0.39394    1.000
    C102     C        0.28695    0.67787    0.41649    1.000
    H102     H        0.26930    0.66600    0.42140    1.000
    O102     O        0.25449    0.70877    0.46707    1.000
    N103     N        0.80716    0.17067    0.39394    1.000
    C103     C        0.78695    0.17787    0.41649    1.000
    H103     H        0.76930    0.16600    0.42140    1.000
    O103     O        0.75449    0.20877    0.46707    1.000
    N104     N        0.80716    0.67067    0.89394    1.000
    C104     C        0.78695    0.67787    0.91649    1.000
    H104     H        0.76930    0.66600    0.92140    1.000
    O104     O        0.75449    0.70877    0.96707    1.000
    N105     N        0.30716    0.82933    0.10606    1.000
    C105     C        0.28695    0.82213    0.08351    1.000
    H105     H        0.26930    0.83400    0.07860    1.000
    O105     O        0.25449    0.79123    0.03293    1.000
    N106     N        0.30716    0.32933    0.60606    1.000
    C106     C        0.28695    0.32213    0.58351    1.000
    H106     H        0.26930    0.33400    0.57860    1.000
    O106     O        0.25449    0.29123    0.53293    1.000
    N107     N        0.80716    0.82933    0.60606    1.000
    C107     C        0.78695    0.82213    0.58351    1.000
    H107     H        0.76930    0.83400    0.57860    1.000
    O107     O        0.75449    0.79123    0.53293    1.000
    N108     N        0.80716    0.32933    0.10606    1.000
    C108     C        0.78695    0.32213    0.08351    1.000
    H108     H        0.76930    0.33400    0.07860    1.000
    O108     O        0.75449    0.29123    0.03293    1.000
    N109     N        0.69284    0.17067    0.10606    1.000
    C109     C        0.71305    0.17787    0.08351    1.000
    H109     H        0.73070    0.16600    0.07860    1.000
    O109     O        0.74551    0.20877    0.03293    1.000
    N110     N        0.69284    0.67067    0.60606    1.000
    C110     C        0.71305    0.67787    0.58351    1.000
    H110     H        0.73070    0.66600    0.57860    1.000
    O110     O        0.74551    0.70877    0.53293    1.000
    N111     N        0.19284    0.17067    0.60606    1.000
    C111     C        0.21305    0.17787    0.58351    1.000
    H111     H        0.23070    0.16600    0.57860    1.000
    O111     O        0.24551    0.20877    0.53293    1.000
    N112     N        0.19284    0.67067    0.10606    1.000
    C112     C        0.21305    0.67787    0.08351    1.000
    H112     H        0.23070    0.66600    0.07860    1.000
    O112     O        0.24551    0.70877    0.03293    1.000
    N113     N        0.89394    0.69284    0.82933    1.000
    C113     C        0.91649    0.71305    0.82213    1.000
    H113     H        0.92140    0.73070    0.83400    1.000
    O113     O        0.96707    0.74551    0.79123    1.000
    N114     N        0.89394    0.19284    0.32933    1.000
    C114     C        0.91649    0.21305    0.32213    1.000
    H114     H        0.92140    0.23070    0.33400    1.000
    O114     O        0.96707    0.24551    0.29123    1.000
    N115     N        0.39394    0.69284    0.32933    1.000
    C115     C        0.41649    0.71305    0.32213    1.000
    H115     H        0.42140    0.73070    0.33400    1.000
    O115     O        0.46707    0.74551    0.29123    1.000
    N116     N        0.39394    0.19284    0.82933    1.000
    C116     C        0.41649    0.21305    0.82213    1.000
    H116     H        0.42140    0.23070    0.83400    1.000
    O116     O        0.46707    0.24551    0.79123    1.000
    N117     N        0.89394    0.30716    0.17067    1.000
    C117     C        0.91649    0.28695    0.17787    1.000
    H117     H        0.92140    0.26930    0.16600    1.000
    O117     O        0.96707    0.25449    0.20877    1.000
    N118     N        0.89394    0.80716    0.67067    1.000
    C118     C        0.91649    0.78695    0.67787    1.000
    H118     H        0.92140    0.76930    0.66600    1.000
    O118     O        0.96707    0.75449    0.70877    1.000
    N119     N        0.39394    0.30716    0.67067    1.000
    C119     C        0.41649    0.28695    0.67787    1.000
    H119     H        0.42140    0.26930    0.66600    1.000
    O119     O        0.46707    0.25449    0.70877    1.000
    N120     N        0.39394    0.80716    0.17067    1.000
    C120     C        0.41649    0.78695    0.17787    1.000
    H120     H        0.42140    0.76930    0.16600    1.000
    O120     O        0.46707    0.75449    0.20877    1.000
    N121     N        0.10606    0.30716    0.82933    1.000
    C121     C        0.08351    0.28695    0.82213    1.000
    H121     H        0.07860    0.26930    0.83400    1.000
    O121     O        0.03293    0.25449    0.79123    1.000
    N122     N        0.10606    0.80716    0.32933    1.000
    C122     C        0.08351    0.78695    0.32213    1.000
    H122     H        0.07860    0.76930    0.33400    1.000
    O122     O        0.03293    0.75449    0.29123    1.000
    N123     N        0.60606    0.30716    0.32933    1.000
    C123     C        0.58351    0.28695    0.32213    1.000
    H123     H        0.57860    0.26930    0.33400    1.000
    O123     O        0.53293    0.25449    0.29123    1.000
    N124     N        0.60606    0.80716    0.82933    1.000
    C124     C        0.58351    0.78695    0.82213    1.000
    H124     H        0.57860    0.76930    0.83400    1.000
    O124     O        0.53293    0.75449    0.79123    1.000
    N125     N        0.10606    0.69284    0.17067    1.000
    C125     C        0.08351    0.71305    0.17787    1.000
    H125     H        0.07860    0.73070    0.16600    1.000
    O125     O        0.03293    0.74551    0.20877    1.000
    N126     N        0.10606    0.19284    0.67067    1.000
    C126     C        0.08351    0.21305    0.67787    1.000
    H126     H        0.07860    0.23070    0.66600    1.000
    O126     O        0.03293    0.24551    0.70877    1.000
    N127     N        0.60606    0.69284    0.67067    1.000
    C127     C        0.58351    0.71305    0.67787    1.000
    H127     H        0.57860    0.73070    0.66600    1.000
    O127     O        0.53293    0.74551    0.70877    1.000
    N128     N        0.60606    0.19284    0.17067    1.000
    C128     C        0.58351    0.21305    0.17787    1.000
    H128     H        0.57860    0.23070    0.16600    1.000
    O128     O        0.53293    0.24551    0.20877    1.000
    N129     N        0.82933    0.89394    0.69284    1.000
    C129     C        0.82213    0.91649    0.71305    1.000
    H129     H        0.83400    0.92140    0.73070    1.000
    O129     O        0.79123    0.96707    0.74551    1.000
    N130     N        0.82933    0.39394    0.19284    1.000
    C130     C        0.82213    0.41649    0.21305    1.000
    H130     H        0.83400    0.42140    0.23070    1.000
    O130     O        0.79123    0.46707    0.24551    1.000
    N131     N        0.32933    0.89394    0.19284    1.000
    C131     C        0.32213    0.91649    0.21305    1.000
    H131     H        0.33400    0.92140    0.23070    1.000
    O131     O        0.29123    0.96707    0.24551    1.000
    N132     N        0.32933    0.39394    0.69284    1.000
    C132     C        0.32213    0.41649    0.71305    1.000
    H132     H        0.33400    0.42140    0.73070    1.000
    O132     O        0.29123    0.46707    0.74551    1.000
    N133     N        0.17067    0.89394    0.30716    1.000
    C133     C        0.17787    0.91649    0.28695    1.000
    H133     H        0.16600    0.92140    0.26930    1.000
    O133     O        0.20877    0.96707    0.25449    1.000
    N134     N        0.17067    0.39394    0.80716    1.000
    C134     C        0.17787    0.41649    0.78695    1.000
    H134     H        0.16600    0.42140    0.76930    1.000
    O134     O        0.20877    0.46707    0.75449    1.000
    N135     N        0.67067    0.89394    0.80716    1.000
    C135     C        0.67787    0.91649    0.78695    1.000
    H135     H        0.66600    0.92140    0.76930    1.000
    O135     O        0.70877    0.96707    0.75449    1.000
    N136     N        0.67067    0.39394    0.30716    1.000
    C136     C        0.67787    0.41649    0.28695    1.000
    H136     H        0.66600    0.42140    0.26930    1.000
    O136     O        0.70877    0.46707    0.25449    1.000
    N137     N        0.82933    0.10606    0.30716    1.000
    C137     C        0.82213    0.08351    0.28695    1.000
    H137     H        0.83400    0.07860    0.26930    1.000
    O137     O        0.79123    0.03293    0.25449    1.000
    N138     N        0.82933    0.60606    0.80716    1.000
    C138     C        0.82213    0.58351    0.78695    1.000
    H138     H        0.83400    0.57860    0.76930    1.000
    O138     O        0.79123    0.53293    0.75449    1.000
    N139     N        0.32933    0.10606    0.80716    1.000
    C139     C        0.32213    0.08351    0.78695    1.000
    H139     H        0.33400    0.07860    0.76930    1.000
    O139     O        0.29123    0.03293    0.75449    1.000
    N140     N        0.32933    0.60606    0.30716    1.000
    C140     C        0.32213    0.58351    0.28695    1.000
    H140     H        0.33400    0.57860    0.26930    1.000
    O140     O        0.29123    0.53293    0.25449    1.000
    N141     N        0.17067    0.10606    0.69284    1.000
    C141     C        0.17787    0.08351    0.71305    1.000
    H141     H        0.16600    0.07860    0.73070    1.000
    O141     O        0.20877    0.03293    0.74551    1.000
    N142     N        0.17067    0.60606    0.19284    1.000
    C142     C        0.17787    0.58351    0.21305    1.000
    H142     H        0.16600    0.57860    0.23070    1.000
    O142     O        0.20877    0.53293    0.24551    1.000
    N143     N        0.67067    0.10606    0.19284    1.000
    C143     C        0.67787    0.08351    0.21305    1.000
    H143     H        0.66600    0.07860    0.23070    1.000
    O143     O        0.70877    0.03293    0.24551    1.000
    N144     N        0.67067    0.60606    0.69284    1.000
    C144     C        0.67787    0.58351    0.71305    1.000
    H144     H        0.66600    0.57860    0.73070    1.000
    O144     O        0.70877    0.53293    0.74551    1.000
    N145     N        0.82933    0.69284    0.10606    1.000
    C145     C        0.82213    0.71305    0.08351    1.000
    H145     H        0.83400    0.73070    0.07860    1.000
    O145     O        0.79123    0.74551    0.03293    1.000
    N146     N        0.82933    0.19284    0.60606    1.000
    C146     C        0.82213    0.21305    0.58351    1.000
    H146     H        0.83400    0.23070    0.57860    1.000
    O146     O        0.79123    0.24551    0.53293    1.000
    N147     N        0.32933    0.69284    0.60606    1.000
    C147     C        0.32213    0.71305    0.58351    1.000
    H147     H        0.33400    0.73070    0.57860    1.000
    O147     O        0.29123    0.74551    0.53293    1.000
    N148     N        0.32933    0.19284    0.10606    1.000
    C148     C        0.32213    0.21305    0.08351    1.000
    H148     H        0.33400    0.23070    0.07860    1.000
    O148     O        0.29123    0.24551    0.03293    1.000
    N149     N        0.17067    0.30716    0.10606    1.000
    C149     C        0.17787    0.28695    0.08351    1.000
    H149     H        0.16600    0.26930    0.07860    1.000
    O149     O        0.20877    0.25449    0.03293    1.000
    N150     N        0.17067    0.80716    0.60606    1.000
    C150     C        0.17787    0.78695    0.58351    1.000
    H150     H        0.16600    0.76930    0.57860    1.000
    O150     O        0.20877    0.75449    0.53293    1.000
    N151     N        0.67067    0.30716    0.60606    1.000
    C151     C        0.67787    0.28695    0.58351    1.000
    H151     H        0.66600    0.26930    0.57860    1.000
    O151     O        0.70877    0.25449    0.53293    1.000
    N152     N        0.67067    0.80716    0.10606    1.000
    C152     C        0.67787    0.78695    0.08351    1.000
    H152     H        0.66600    0.76930    0.07860    1.000
    O152     O        0.70877    0.75449    0.03293    1.000
    N153     N        0.82933    0.30716    0.89394    1.000
    C153     C        0.82213    0.28695    0.91649    1.000
    H153     H        0.83400    0.26930    0.92140    1.000
    O153     O        0.79123    0.25449    0.96707    1.000
    N154     N        0.82933    0.80716    0.39394    1.000
    C154     C        0.82213    0.78695    0.41649    1.000
    H154     H        0.83400    0.76930    0.42140    1.000
    O154     O        0.79123    0.75449    0.46707    1.000
    N155     N        0.32933    0.30716    0.39394    1.000
    C155     C        0.32213    0.28695    0.41649    1.000
    H155     H        0.33400    0.26930    0.42140    1.000
    O155     O        0.29123    0.25449    0.46707    1.000
    N156     N        0.32933    0.80716    0.89394    1.000
    C156     C        0.32213    0.78695    0.91649    1.000
    H156     H        0.33400    0.76930    0.92140    1.000
    O156     O        0.29123    0.75449    0.96707    1.000
    N157     N        0.17067    0.69284    0.89394    1.000
    C157     C        0.17787    0.71305    0.91649    1.000
    H157     H        0.16600    0.73070    0.92140    1.000
    O157     O        0.20877    0.74551    0.96707    1.000
    N158     N        0.17067    0.19284    0.39394    1.000
    C158     C        0.17787    0.21305    0.41649    1.000
    H158     H        0.16600    0.23070    0.42140    1.000
    O158     O        0.20877    0.24551    0.46707    1.000
    N159     N        0.67067    0.69284    0.39394    1.000
    C159     C        0.67787    0.71305    0.41649    1.000
    H159     H        0.66600    0.73070    0.42140    1.000
    O159     O        0.70877    0.74551    0.46707    1.000
    N160     N        0.67067    0.19284    0.89394    1.000
    C160     C        0.67787    0.21305    0.91649    1.000
    H160     H        0.66600    0.23070    0.92140    1.000
    O160     O        0.70877    0.24551    0.96707    1.000
    N161     N        0.69284    0.89394    0.17067    1.000
    C161     C        0.71305    0.91649    0.17787    1.000
    H161     H        0.73070    0.92140    0.16600    1.000
    O161     O        0.74551    0.96707    0.20877    1.000
    N162     N        0.69284    0.39394    0.67067    1.000
    C162     C        0.71305    0.41649    0.67787    1.000
    H162     H        0.73070    0.42140    0.66600    1.000
    O162     O        0.74551    0.46707    0.70877    1.000
    N163     N        0.19284    0.89394    0.67067    1.000
    C163     C        0.21305    0.91649    0.67787    1.000
    H163     H        0.23070    0.92140    0.66600    1.000
    O163     O        0.24551    0.96707    0.70877    1.000
    N164     N        0.19284    0.39394    0.17067    1.000
    C164     C        0.21305    0.41649    0.17787    1.000
    H164     H        0.23070    0.42140    0.16600    1.000
    O164     O        0.24551    0.46707    0.20877    1.000
    N165     N        0.30716    0.89394    0.82933    1.000
    C165     C        0.28695    0.91649    0.82213    1.000
    H165     H        0.26930    0.92140    0.83400    1.000
    O165     O        0.25449    0.96707    0.79123    1.000
    N166     N        0.30716    0.39394    0.32933    1.000
    C166     C        0.28695    0.41649    0.32213    1.000
    H166     H        0.26930    0.42140    0.33400    1.000
    O166     O        0.25449    0.46707    0.29123    1.000
    N167     N        0.80716    0.89394    0.32933    1.000
    C167     C        0.78695    0.91649    0.32213    1.000
    H167     H        0.76930    0.92140    0.33400    1.000
    O167     O        0.75449    0.96707    0.29123    1.000
    N168     N        0.80716    0.39394    0.82933    1.000
    C168     C        0.78695    0.41649    0.82213    1.000
    H168     H        0.76930    0.42140    0.83400    1.000
    O168     O        0.75449    0.46707    0.79123    1.000
    N169     N        0.30716    0.10606    0.17067    1.000
    C169     C        0.28695    0.08351    0.17787    1.000
    H169     H        0.26930    0.07860    0.16600    1.000
    O169     O        0.25449    0.03293    0.20877    1.000
    N170     N        0.30716    0.60606    0.67067    1.000
    C170     C        0.28695    0.58351    0.67787    1.000
    H170     H        0.26930    0.57860    0.66600    1.000
    O170     O        0.25449    0.53293    0.70877    1.000
    N171     N        0.80716    0.10606    0.67067    1.000
    C171     C        0.78695    0.08351    0.67787    1.000
    H171     H        0.76930    0.07860    0.66600    1.000
    O171     O        0.75449    0.03293    0.70877    1.000
    N172     N        0.80716    0.60606    0.17067    1.000
    C172     C        0.78695    0.58351    0.17787    1.000
    H172     H        0.76930    0.57860    0.16600    1.000
    O172     O        0.75449    0.53293    0.20877    1.000
    N173     N        0.69284    0.10606    0.82933    1.000
    C173     C        0.71305    0.08351    0.82213    1.000
    H173     H        0.73070    0.07860    0.83400    1.000
    O173     O        0.74551    0.03293    0.79123    1.000
    N174     N        0.69284    0.60606    0.32933    1.000
    C174     C        0.71305    0.58351    0.32213    1.000
    H174     H        0.73070    0.57860    0.33400    1.000
    O174     O        0.74551    0.53293    0.29123    1.000
    N175     N        0.19284    0.10606    0.32933    1.000
    C175     C        0.21305    0.08351    0.32213    1.000
    H175     H        0.23070    0.07860    0.33400    1.000
    O175     O        0.24551    0.03293    0.29123    1.000
    N176     N        0.19284    0.60606    0.82933    1.000
    C176     C        0.21305    0.58351    0.82213    1.000
    H176     H        0.23070    0.57860    0.83400    1.000
    O176     O        0.24551    0.53293    0.79123    1.000
    N177     N        0.89394    0.82933    0.30716    1.000
    C177     C        0.91649    0.82213    0.28695    1.000
    H177     H        0.92140    0.83400    0.26930    1.000
    O177     O        0.96707    0.79123    0.25449    1.000
    N178     N        0.89394    0.32933    0.80716    1.000
    C178     C        0.91649    0.32213    0.78695    1.000
    H178     H        0.92140    0.33400    0.76930    1.000
    O178     O        0.96707    0.29123    0.75449    1.000
    N179     N        0.39394    0.82933    0.80716    1.000
    C179     C        0.41649    0.82213    0.78695    1.000
    H179     H        0.42140    0.83400    0.76930    1.000
    O179     O        0.46707    0.79123    0.75449    1.000
    N180     N        0.39394    0.32933    0.30716    1.000
    C180     C        0.41649    0.32213    0.28695    1.000
    H180     H        0.42140    0.33400    0.26930    1.000
    O180     O        0.46707    0.29123    0.25449    1.000
    N181     N        0.89394    0.17067    0.69284    1.000
    C181     C        0.91649    0.17787    0.71305    1.000
    H181     H        0.92140    0.16600    0.73070    1.000
    O181     O        0.96707    0.20877    0.74551    1.000
    N182     N        0.89394    0.67067    0.19284    1.000
    C182     C        0.91649    0.67787    0.21305    1.000
    H182     H        0.92140    0.66600    0.23070    1.000
    O182     O        0.96707    0.70877    0.24551    1.000
    N183     N        0.39394    0.17067    0.19284    1.000
    C183     C        0.41649    0.17787    0.21305    1.000
    H183     H        0.42140    0.16600    0.23070    1.000
    O183     O        0.46707    0.20877    0.24551    1.000
    N184     N        0.39394    0.67067    0.69284    1.000
    C184     C        0.41649    0.67787    0.71305    1.000
    H184     H        0.42140    0.66600    0.73070    1.000
    O184     O        0.46707    0.70877    0.74551    1.000
    N185     N        0.10606    0.82933    0.69284    1.000
    C185     C        0.08351    0.82213    0.71305    1.000
    H185     H        0.07860    0.83400    0.73070    1.000
    O185     O        0.03293    0.79123    0.74551    1.000
    N186     N        0.10606    0.32933    0.19284    1.000
    C186     C        0.08351    0.32213    0.21305    1.000
    H186     H        0.07860    0.33400    0.23070    1.000
    O186     O        0.03293    0.29123    0.24551    1.000
    N187     N        0.60606    0.82933    0.19284    1.000
    C187     C        0.58351    0.82213    0.21305    1.000
    H187     H        0.57860    0.83400    0.23070    1.000
    O187     O        0.53293    0.79123    0.24551    1.000
    N188     N        0.60606    0.32933    0.69284    1.000
    C188     C        0.58351    0.32213    0.71305    1.000
    H188     H        0.57860    0.33400    0.73070    1.000
    O188     O        0.53293    0.29123    0.74551    1.000
    N189     N        0.10606    0.17067    0.30716    1.000
    C189     C        0.08351    0.17787    0.28695    1.000
    H189     H        0.07860    0.16600    0.26930    1.000
    O189     O        0.03293    0.20877    0.25449    1.000
    N190     N        0.10606    0.67067    0.80716    1.000
    C190     C        0.08351    0.67787    0.78695    1.000
    H190     H        0.07860    0.66600    0.76930    1.000
    O190     O        0.03293    0.70877    0.75449    1.000
    N191     N        0.60606    0.17067    0.80716    1.000
    C191     C        0.58351    0.17787    0.78695    1.000
    H191     H        0.57860    0.16600    0.76930    1.000
    O191     O        0.53293    0.20877    0.75449    1.000
    N192     N        0.60606    0.67067    0.30716    1.000
    C192     C        0.58351    0.67787    0.28695    1.000
    H192     H        0.57860    0.66600    0.26930    1.000
    O192     O        0.53293    0.70877    0.25449    1.000
    Cu1      Cu       0.30697    0.13784    0.13784    1.000
    O193     O        0.28500    0.10530    0.10530    1.000
    O194     O        0.26710    0.11970    0.11970    1.000
    Cu2      Cu       0.30697    0.63784    0.63784    1.000
    O195     O        0.28500    0.60530    0.60530    1.000
    O196     O        0.26710    0.61970    0.61970    1.000
    Cu3      Cu       0.80697    0.13784    0.63784    1.000
    O197     O        0.78500    0.10530    0.60530    1.000
    O198     O        0.76710    0.11970    0.61970    1.000
    Cu4      Cu       0.80697    0.63784    0.13784    1.000
    O199     O        0.78500    0.60530    0.10530    1.000
    O200     O        0.76710    0.61970    0.11970    1.000
    Cu5      Cu       0.69303    0.86216    0.13784    1.000
    O201     O        0.71500    0.89470    0.10530    1.000
    O202     O        0.73290    0.88030    0.11970    1.000
    Cu6      Cu       0.69303    0.36216    0.63784    1.000
    O203     O        0.71500    0.39470    0.60530    1.000
    O204     O        0.73290    0.38030    0.61970    1.000
    Cu7      Cu       0.19303    0.86216    0.63784    1.000
    O205     O        0.21500    0.89470    0.60530    1.000
    O206     O        0.23290    0.88030    0.61970    1.000
    Cu8      Cu       0.19303    0.36216    0.13784    1.000
    O207     O        0.21500    0.39470    0.10530    1.000
    O208     O        0.23290    0.38030    0.11970    1.000
    Cu9      Cu       0.69303    0.13784    0.86216    1.000
    O209     O        0.71500    0.10530    0.89470    1.000
    O210     O        0.73290    0.11970    0.88030    1.000
    Cu10     Cu       0.69303    0.63784    0.36216    1.000
    O211     O        0.71500    0.60530    0.39470    1.000
    O212     O        0.73290    0.61970    0.38030    1.000
    Cu11     Cu       0.19303    0.13784    0.36216    1.000
    O213     O        0.21500    0.10530    0.39470    1.000
    O214     O        0.23290    0.11970    0.38030    1.000
    Cu12     Cu       0.19303    0.63784    0.86216    1.000
    O215     O        0.21500    0.60530    0.89470    1.000
    O216     O        0.23290    0.61970    0.88030    1.000
    Cu13     Cu       0.30697    0.86216    0.86216    1.000
    O217     O        0.28500    0.89470    0.89470    1.000
    O218     O        0.26710    0.88030    0.88030    1.000
    Cu14     Cu       0.30697    0.36216    0.36216    1.000
    O219     O        0.28500    0.39470    0.39470    1.000
    O220     O        0.26710    0.38030    0.38030    1.000
    Cu15     Cu       0.80697    0.86216    0.36216    1.000
    O221     O        0.78500    0.89470    0.39470    1.000
    O222     O        0.76710    0.88030    0.38030    1.000
    Cu16     Cu       0.80697    0.36216    0.86216    1.000
    O223     O        0.78500    0.39470    0.89470    1.000
    O224     O        0.76710    0.38030    0.88030    1.000
    Cu17     Cu       0.13784    0.30697    0.13784    1.000
    O225     O        0.10530    0.28500    0.10530    1.000
    O226     O        0.11970    0.26710    0.11970    1.000
    Cu18     Cu       0.13784    0.80697    0.63784    1.000
    O227     O        0.10530    0.78500    0.60530    1.000
    O228     O        0.11970    0.76710    0.61970    1.000
    Cu19     Cu       0.63784    0.30697    0.63784    1.000
    O229     O        0.60530    0.28500    0.60530    1.000
    O230     O        0.61970    0.26710    0.61970    1.000
    Cu20     Cu       0.63784    0.80697    0.13784    1.000
    O231     O        0.60530    0.78500    0.10530    1.000
    O232     O        0.61970    0.76710    0.11970    1.000
    Cu21     Cu       0.13784    0.69303    0.86216    1.000
    O233     O        0.10530    0.71500    0.89470    1.000
    O234     O        0.11970    0.73290    0.88030    1.000
    Cu22     Cu       0.13784    0.19303    0.36216    1.000
    O235     O        0.10530    0.21500    0.39470    1.000
    O236     O        0.11970    0.23290    0.38030    1.000
    Cu23     Cu       0.63784    0.69303    0.36216    1.000
    O237     O        0.60530    0.71500    0.39470    1.000
    O238     O        0.61970    0.73290    0.38030    1.000
    Cu24     Cu       0.63784    0.19303    0.86216    1.000
    O239     O        0.60530    0.21500    0.89470    1.000
    O240     O        0.61970    0.23290    0.88030    1.000
    Cu25     Cu       0.86216    0.69303    0.13784    1.000
    O241     O        0.89470    0.71500    0.10530    1.000
    O242     O        0.88030    0.73290    0.11970    1.000
    Cu26     Cu       0.86216    0.19303    0.63784    1.000
    O243     O        0.89470    0.21500    0.60530    1.000
    O244     O        0.88030    0.23290    0.61970    1.000
    Cu27     Cu       0.36216    0.69303    0.63784    1.000
    O245     O        0.39470    0.71500    0.60530    1.000
    O246     O        0.38030    0.73290    0.61970    1.000
    Cu28     Cu       0.36216    0.19303    0.13784    1.000
    O247     O        0.39470    0.21500    0.10530    1.000
    O248     O        0.38030    0.23290    0.11970    1.000
    Cu29     Cu       0.86216    0.30697    0.86216    1.000
    O249     O        0.89470    0.28500    0.89470    1.000
    O250     O        0.88030    0.26710    0.88030    1.000
    Cu30     Cu       0.86216    0.80697    0.36216    1.000
    O251     O        0.89470    0.78500    0.39470    1.000
    O252     O        0.88030    0.76710    0.38030    1.000
    Cu31     Cu       0.36216    0.30697    0.36216    1.000
    O253     O        0.39470    0.28500    0.39470    1.000
    O254     O        0.38030    0.26710    0.38030    1.000
    Cu32     Cu       0.36216    0.80697    0.86216    1.000
    O255     O        0.39470    0.78500    0.89470    1.000
    O256     O        0.38030    0.76710    0.88030    1.000
    Cu33     Cu       0.13784    0.13784    0.30697    1.000
    O257     O        0.10530    0.10530    0.28500    1.000
    O258     O        0.11970    0.11970    0.26710    1.000
    Cu34     Cu       0.13784    0.63784    0.80697    1.000
    O259     O        0.10530    0.60530    0.78500    1.000
    O260     O        0.11970    0.61970    0.76710    1.000
    Cu35     Cu       0.63784    0.13784    0.80697    1.000
    O261     O        0.60530    0.10530    0.78500    1.000
    O262     O        0.61970    0.11970    0.76710    1.000
    Cu36     Cu       0.63784    0.63784    0.30697    1.000
    O263     O        0.60530    0.60530    0.28500    1.000
    O264     O        0.61970    0.61970    0.26710    1.000
    Cu37     Cu       0.86216    0.13784    0.69303    1.000
    O265     O        0.89470    0.10530    0.71500    1.000
    O266     O        0.88030    0.11970    0.73290    1.000
    Cu38     Cu       0.86216    0.63784    0.19303    1.000
    O267     O        0.89470    0.60530    0.21500    1.000
    O268     O        0.88030    0.61970    0.23290    1.000
    Cu39     Cu       0.36216    0.13784    0.19303    1.000
    O269     O        0.39470    0.10530    0.21500    1.000
    O270     O        0.38030    0.11970    0.23290    1.000
    Cu40     Cu       0.36216    0.63784    0.69303    1.000
    O271     O        0.39470    0.60530    0.71500    1.000
    O272     O        0.38030    0.61970    0.73290    1.000
    Cu41     Cu       0.13784    0.86216    0.69303    1.000
    O273     O        0.10530    0.89470    0.71500    1.000
    O274     O        0.11970    0.88030    0.73290    1.000
    Cu42     Cu       0.13784    0.36216    0.19303    1.000
    O275     O        0.10530    0.39470    0.21500    1.000
    O276     O        0.11970    0.38030    0.23290    1.000
    Cu43     Cu       0.63784    0.86216    0.19303    1.000
    O277     O        0.60530    0.89470    0.21500    1.000
    O278     O        0.61970    0.88030    0.23290    1.000
    Cu44     Cu       0.63784    0.36216    0.69303    1.000
    O279     O        0.60530    0.39470    0.71500    1.000
    O280     O        0.61970    0.38030    0.73290    1.000
    Cu45     Cu       0.86216    0.86216    0.30697    1.000
    O281     O        0.89470    0.89470    0.28500    1.000
    O282     O        0.88030    0.88030    0.26710    1.000
    Cu46     Cu       0.86216    0.36216    0.80697    1.000
    O283     O        0.89470    0.39470    0.78500    1.000
    O284     O        0.88030    0.38030    0.76710    1.000
    Cu47     Cu       0.36216    0.86216    0.80697    1.000
    O285     O        0.39470    0.89470    0.78500    1.000
    O286     O        0.38030    0.88030    0.76710    1.000
    Cu48     Cu       0.36216    0.36216    0.30697    1.000
    O287     O        0.39470    0.39470    0.28500    1.000
    O288     O        0.38030    0.38030    0.26710    1.000
    Cu49     Cu       0.13784    0.30697    0.86216    1.000
    O289     O        0.10530    0.28500    0.89470    1.000
    O290     O        0.11970    0.26710    0.88030    1.000
    Cu50     Cu       0.13784    0.80697    0.36216    1.000
    O291     O        0.10530    0.78500    0.39470    1.000
    O292     O        0.11970    0.76710    0.38030    1.000
    Cu51     Cu       0.63784    0.30697    0.36216    1.000
    O293     O        0.60530    0.28500    0.39470    1.000
    O294     O        0.61970    0.26710    0.38030    1.000
    Cu52     Cu       0.63784    0.80697    0.86216    1.000
    O295     O        0.60530    0.78500    0.89470    1.000
    O296     O        0.61970    0.76710    0.88030    1.000
    Cu53     Cu       0.86216    0.69303    0.86216    1.000
    O297     O        0.89470    0.71500    0.89470    1.000
    O298     O        0.88030    0.73290    0.88030    1.000
    Cu54     Cu       0.86216    0.19303    0.36216    1.000
    O299     O        0.89470    0.21500    0.39470    1.000
    O300     O        0.88030    0.23290    0.38030    1.000
    Cu55     Cu       0.36216    0.69303    0.36216    1.000
    O301     O        0.39470    0.71500    0.39470    1.000
    O302     O        0.38030    0.73290    0.38030    1.000
    Cu56     Cu       0.36216    0.19303    0.86216    1.000
    O303     O        0.39470    0.21500    0.89470    1.000
    O304     O        0.38030    0.23290    0.88030    1.000
    Cu57     Cu       0.13784    0.69303    0.13784    1.000
    O305     O        0.10530    0.71500    0.10530    1.000
    O306     O        0.11970    0.73290    0.11970    1.000
    Cu58     Cu       0.13784    0.19303    0.63784    1.000
    O307     O        0.10530    0.21500    0.60530    1.000
    O308     O        0.11970    0.23290    0.61970    1.000
    Cu59     Cu       0.63784    0.69303    0.63784    1.000
    O309     O        0.60530    0.71500    0.60530    1.000
    O310     O        0.61970    0.73290    0.61970    1.000
    Cu60     Cu       0.63784    0.19303    0.13784    1.000
    O311     O        0.60530    0.21500    0.10530    1.000
    O312     O        0.61970    0.23290    0.11970    1.000
    Cu61     Cu       0.86216    0.30697    0.13784    1.000
    O313     O        0.89470    0.28500    0.10530    1.000
    O314     O        0.88030    0.26710    0.11970    1.000
    Cu62     Cu       0.86216    0.80697    0.63784    1.000
    O315     O        0.89470    0.78500    0.60530    1.000
    O316     O        0.88030    0.76710    0.61970    1.000
    Cu63     Cu       0.36216    0.30697    0.63784    1.000
    O317     O        0.39470    0.28500    0.60530    1.000
    O318     O        0.38030    0.26710    0.61970    1.000
    Cu64     Cu       0.36216    0.80697    0.13784    1.000
    O319     O        0.39470    0.78500    0.10530    1.000
    O320     O        0.38030    0.76710    0.11970    1.000
    Cu65     Cu       0.30697    0.13784    0.86216    1.000
    O321     O        0.28500    0.10530    0.89470    1.000
    O322     O        0.26710    0.11970    0.88030    1.000
    Cu66     Cu       0.30697    0.63784    0.36216    1.000
    O323     O        0.28500    0.60530    0.39470    1.000
    O324     O        0.26710    0.61970    0.38030    1.000
    Cu67     Cu       0.80697    0.13784    0.36216    1.000
    O325     O        0.78500    0.10530    0.39470    1.000
    O326     O        0.76710    0.11970    0.38030    1.000
    Cu68     Cu       0.80697    0.63784    0.86216    1.000
    O327     O        0.78500    0.60530    0.89470    1.000
    O328     O        0.76710    0.61970    0.88030    1.000
    Cu69     Cu       0.69303    0.13784    0.13784    1.000
    O329     O        0.71500    0.10530    0.10530    1.000
    O330     O        0.73290    0.11970    0.11970    1.000
    Cu70     Cu       0.69303    0.63784    0.63784    1.000
    O331     O        0.71500    0.60530    0.60530    1.000
    O332     O        0.73290    0.61970    0.61970    1.000
    Cu71     Cu       0.19303    0.13784    0.63784    1.000
    O333     O        0.21500    0.10530    0.60530    1.000
    O334     O        0.23290    0.11970    0.61970    1.000
    Cu72     Cu       0.19303    0.63784    0.13784    1.000
    O335     O        0.21500    0.60530    0.10530    1.000
    O336     O        0.23290    0.61970    0.11970    1.000
    Cu73     Cu       0.69303    0.86216    0.86216    1.000
    O337     O        0.71500    0.89470    0.89470    1.000
    O338     O        0.73290    0.88030    0.88030    1.000
    Cu74     Cu       0.69303    0.36216    0.36216    1.000
    O339     O        0.71500    0.39470    0.39470    1.000
    O340     O        0.73290    0.38030    0.38030    1.000
    Cu75     Cu       0.19303    0.86216    0.36216    1.000
    O341     O        0.21500    0.89470    0.39470    1.000
    O342     O        0.23290    0.88030    0.38030    1.000
    Cu76     Cu       0.19303    0.36216    0.86216    1.000
    O343     O        0.21500    0.39470    0.89470    1.000
    O344     O        0.23290    0.38030    0.88030    1.000
    Cu77     Cu       0.30697    0.86216    0.13784    1.000
    O345     O        0.28500    0.89470    0.10530    1.000
    O346     O        0.26710    0.88030    0.11970    1.000
    Cu78     Cu       0.30697    0.36216    0.63784    1.000
    O347     O        0.28500    0.39470    0.60530    1.000
    O348     O        0.26710    0.38030    0.61970    1.000
    Cu79     Cu       0.80697    0.86216    0.63784    1.000
    O349     O        0.78500    0.89470    0.60530    1.000
    O350     O        0.76710    0.88030    0.61970    1.000
    Cu80     Cu       0.80697    0.36216    0.13784    1.000
    O351     O        0.78500    0.39470    0.10530    1.000
    O352     O        0.76710    0.38030    0.11970    1.000
    Cu81     Cu       0.13784    0.13784    0.69303    1.000
    O353     O        0.10530    0.10530    0.71500    1.000
    O354     O        0.11970    0.11970    0.73290    1.000
    Cu82     Cu       0.13784    0.63784    0.19303    1.000
    O355     O        0.10530    0.60530    0.21500    1.000
    O356     O        0.11970    0.61970    0.23290    1.000
    Cu83     Cu       0.63784    0.13784    0.19303    1.000
    O357     O        0.60530    0.10530    0.21500    1.000
    O358     O        0.61970    0.11970    0.23290    1.000
    Cu84     Cu       0.63784    0.63784    0.69303    1.000
    O359     O        0.60530    0.60530    0.71500    1.000
    O360     O        0.61970    0.61970    0.73290    1.000
    Cu85     Cu       0.13784    0.86216    0.30697    1.000
    O361     O        0.10530    0.89470    0.28500    1.000
    O362     O        0.11970    0.88030    0.26710    1.000
    Cu86     Cu       0.13784    0.36216    0.80697    1.000
    O363     O        0.10530    0.39470    0.78500    1.000
    O364     O        0.11970    0.38030    0.76710    1.000
    Cu87     Cu       0.63784    0.86216    0.80697    1.000
    O365     O        0.60530    0.89470    0.78500    1.000
    O366     O        0.61970    0.88030    0.76710    1.000
    Cu88     Cu       0.63784    0.36216    0.30697    1.000
    O367     O        0.60530    0.39470    0.28500    1.000
    O368     O        0.61970    0.38030    0.26710    1.000
    Cu89     Cu       0.86216    0.13784    0.30697    1.000
    O369     O        0.89470    0.10530    0.28500    1.000
    O370     O        0.88030    0.11970    0.26710    1.000
    Cu90     Cu       0.86216    0.63784    0.80697    1.000
    O371     O        0.89470    0.60530    0.78500    1.000
    O372     O        0.88030    0.61970    0.76710    1.000
    Cu91     Cu       0.36216    0.13784    0.80697    1.000
    O373     O        0.39470    0.10530    0.78500    1.000
    O374     O        0.38030    0.11970    0.76710    1.000
    Cu92     Cu       0.36216    0.63784    0.30697    1.000
    O375     O        0.39470    0.60530    0.28500    1.000
    O376     O        0.38030    0.61970    0.26710    1.000
    Cu93     Cu       0.86216    0.86216    0.69303    1.000
    O377     O        0.89470    0.89470    0.71500    1.000
    O378     O        0.88030    0.88030    0.73290    1.000
    Cu94     Cu       0.86216    0.36216    0.19303    1.000
    O379     O        0.89470    0.39470    0.21500    1.000
    O380     O        0.88030    0.38030    0.23290    1.000
    Cu95     Cu       0.36216    0.86216    0.19303    1.000
    O381     O        0.39470    0.89470    0.21500    1.000
    O382     O        0.38030    0.88030    0.23290    1.000
    Cu96     Cu       0.36216    0.36216    0.69303    1.000
    O383     O        0.39470    0.39470    0.71500    1.000
    O384     O        0.38030    0.38030    0.73290    1.000
    O385     O        0.33780    0.16220    0.16220    1.000
    O386     O        0.33780    0.66220    0.66220    1.000
    O387     O        0.66220    0.83780    0.16220    1.000
    O388     O        0.66220    0.33780    0.66220    1.000
    O389     O        0.16220    0.33780    0.16220    1.000
    O390     O        0.66220    0.16220    0.83780    1.000
    O391     O        0.66220    0.66220    0.33780    1.000
    O392     O        0.16220    0.16220    0.33780    1.000
    O393     O        0.33780    0.83780    0.83780    1.000
    O394     O        0.33780    0.33780    0.33780    1.000
    O395     O        0.16220    0.66220    0.83780    1.000
    O396     O        0.83780    0.66220    0.16220    1.000
    O397     O        0.83780    0.33780    0.83780    1.000
    O398     O        0.83780    0.16220    0.66220    1.000
    O399     O        0.16220    0.83780    0.66220    1.000
    O400     O        0.83780    0.83780    0.33780    1.000
    O401     O        0.16220    0.33780    0.83780    1.000
    O402     O        0.83780    0.66220    0.83780    1.000
    O403     O        0.83780    0.16220    0.33780    1.000
    O404     O        0.33780    0.16220    0.83780    1.000
    O405     O        0.16220    0.66220    0.16220    1.000
    O406     O        0.83780    0.33780    0.16220    1.000
    O407     O        0.33780    0.33780    0.66220    1.000
    O408     O        0.33780    0.66220    0.33780    1.000
    O409     O        0.66220    0.16220    0.16220    1.000
    O410     O        0.66220    0.66220    0.66220    1.000
    O411     O        0.66220    0.83780    0.83780    1.000
    O412     O        0.66220    0.33780    0.33780    1.000
    O413     O        0.16220    0.83780    0.33780    1.000
    O414     O        0.33780    0.83780    0.16220    1.000
    O415     O        0.16220    0.16220    0.66220    1.000
    O416     O        0.83780    0.83780    0.66220    1.000
    C193     C        0.29529    0.20471    0.06840    1.000
    C194     C        0.27944    0.22056    0.04300    1.000
    C195     C        0.29529    0.70471    0.56840    1.000
    C196     C        0.27944    0.72056    0.54300    1.000
    C197     C        0.70471    0.79529    0.06840    1.000
    C198     C        0.72056    0.77944    0.04300    1.000
    C199     C        0.70471    0.29529    0.56840    1.000
    C200     C        0.72056    0.27944    0.54300    1.000
    C201     C        0.20471    0.29529    0.06840    1.000
    C202     C        0.22056    0.27944    0.04300    1.000
    C203     C        0.70471    0.20471    0.93160    1.000
    C204     C        0.72056    0.22056    0.95700    1.000
    C205     C        0.70471    0.70471    0.43160    1.000
    C206     C        0.72056    0.72056    0.45700    1.000
    C207     C        0.20471    0.20471    0.43160    1.000
    C208     C        0.22056    0.22056    0.45700    1.000
    C209     C        0.29529    0.79529    0.93160    1.000
    C210     C        0.27944    0.77944    0.95700    1.000
    C211     C        0.29529    0.29529    0.43160    1.000
    C212     C        0.27944    0.27944    0.45700    1.000
    C213     C        0.06840    0.29529    0.20471    1.000
    C214     C        0.04300    0.27944    0.22056    1.000
    C215     C        0.56840    0.29529    0.70471    1.000
    C216     C        0.54300    0.27944    0.72056    1.000
    C217     C        0.06840    0.70471    0.79529    1.000
    C218     C        0.04300    0.72056    0.77944    1.000
    C219     C        0.06840    0.20471    0.29529    1.000
    C220     C        0.04300    0.22056    0.27944    1.000
    C221     C        0.56840    0.70471    0.29529    1.000
    C222     C        0.54300    0.72056    0.27944    1.000
    C223     C        0.93160    0.70471    0.20471    1.000
    C224     C        0.95700    0.72056    0.22056    1.000
    C225     C        0.43160    0.70471    0.70471    1.000
    C226     C        0.45700    0.72056    0.72056    1.000
    C227     C        0.43160    0.20471    0.20471    1.000
    C228     C        0.45700    0.22056    0.22056    1.000
    C229     C        0.93160    0.29529    0.79529    1.000
    C230     C        0.95700    0.27944    0.77944    1.000
    C231     C        0.43160    0.29529    0.29529    1.000
    C232     C        0.45700    0.27944    0.27944    1.000
    C233     C        0.20471    0.06840    0.29529    1.000
    C234     C        0.22056    0.04300    0.27944    1.000
    C235     C        0.20471    0.56840    0.79529    1.000
    C236     C        0.22056    0.54300    0.77944    1.000
    C237     C        0.79529    0.06840    0.70471    1.000
    C238     C        0.77944    0.04300    0.72056    1.000
    C239     C        0.79529    0.56840    0.20471    1.000
    C240     C        0.77944    0.54300    0.22056    1.000
    C241     C        0.29529    0.06840    0.20471    1.000
    C242     C        0.27944    0.04300    0.22056    1.000
    C243     C        0.20471    0.93160    0.70471    1.000
    C244     C        0.22056    0.95700    0.72056    1.000
    C245     C        0.20471    0.43160    0.20471    1.000
    C246     C        0.22056    0.45700    0.22056    1.000
    C247     C        0.79529    0.93160    0.29529    1.000
    C248     C        0.77944    0.95700    0.27944    1.000
    C249     C        0.79529    0.43160    0.79529    1.000
    C250     C        0.77944    0.45700    0.77944    1.000
    C251     C        0.29529    0.43160    0.29529    1.000
    C252     C        0.27944    0.45700    0.27944    1.000
    C253     C        0.20471    0.29529    0.93160    1.000
    C254     C        0.22056    0.27944    0.95700    1.000
    C255     C        0.20471    0.79529    0.43160    1.000
    C256     C        0.22056    0.77944    0.45700    1.000
    C257     C        0.79529    0.70471    0.93160    1.000
    C258     C        0.77944    0.72056    0.95700    1.000
    C259     C        0.79529    0.20471    0.43160    1.000
    C260     C        0.77944    0.22056    0.45700    1.000
    C261     C        0.29529    0.20471    0.93160    1.000
    C262     C        0.27944    0.22056    0.95700    1.000
    C263     C        0.20471    0.70471    0.06840    1.000
    C264     C        0.22056    0.72056    0.04300    1.000
    C265     C        0.20471    0.20471    0.56840    1.000
    C266     C        0.22056    0.22056    0.54300    1.000
    C267     C        0.79529    0.29529    0.06840    1.000
    C268     C        0.77944    0.27944    0.04300    1.000
    C269     C        0.79529    0.79529    0.56840    1.000
    C270     C        0.77944    0.77944    0.54300    1.000
    C271     C        0.29529    0.29529    0.56840    1.000
    C272     C        0.27944    0.27944    0.54300    1.000
    C273     C        0.29529    0.06840    0.79529    1.000
    C274     C        0.27944    0.04300    0.77944    1.000
    C275     C        0.29529    0.56840    0.29529    1.000
    C276     C        0.27944    0.54300    0.27944    1.000
    C277     C        0.70471    0.06840    0.20471    1.000
    C278     C        0.72056    0.04300    0.22056    1.000
    C279     C        0.70471    0.56840    0.70471    1.000
    C280     C        0.72056    0.54300    0.72056    1.000
    C281     C        0.20471    0.56840    0.20471    1.000
    C282     C        0.22056    0.54300    0.22056    1.000
    C283     C        0.70471    0.93160    0.79529    1.000
    C284     C        0.72056    0.95700    0.77944    1.000
    C285     C        0.70471    0.43160    0.29529    1.000
    C286     C        0.72056    0.45700    0.27944    1.000
    C287     C        0.20471    0.93160    0.29529    1.000
    C288     C        0.22056    0.95700    0.27944    1.000
    C289     C        0.29529    0.93160    0.20471    1.000
    C290     C        0.27944    0.95700    0.22056    1.000
    C291     C        0.29529    0.43160    0.70471    1.000
    C292     C        0.27944    0.45700    0.72056    1.000
    C293     C        0.06840    0.20471    0.70471    1.000
    C294     C        0.04300    0.22056    0.72056    1.000
    C295     C        0.56840    0.20471    0.20471    1.000
    C296     C        0.54300    0.22056    0.22056    1.000
    C297     C        0.06840    0.79529    0.29529    1.000
    C298     C        0.04300    0.77944    0.27944    1.000
    C299     C        0.56840    0.79529    0.79529    1.000
    C300     C        0.54300    0.77944    0.77944    1.000
    C301     C        0.56840    0.29529    0.29529    1.000
    C302     C        0.54300    0.27944    0.27944    1.000
    C303     C        0.93160    0.20471    0.29529    1.000
    C304     C        0.95700    0.22056    0.27944    1.000
    C305     C        0.43160    0.20471    0.79529    1.000
    C306     C        0.45700    0.22056    0.77944    1.000
    C307     C        0.93160    0.79529    0.70471    1.000
    C308     C        0.95700    0.77944    0.72056    1.000
    C309     C        0.93160    0.29529    0.20471    1.000
    C310     C        0.95700    0.27944    0.22056    1.000
    C311     C        0.43160    0.79529    0.20471    1.000
    C312     C        0.45700    0.77944    0.22056    1.000
    C313     C        0.70471    0.79529    0.93160    1.000
    C314     C        0.72056    0.77944    0.95700    1.000
    C315     C        0.70471    0.29529    0.43160    1.000
    C316     C        0.72056    0.27944    0.45700    1.000
    C317     C        0.29529    0.70471    0.43160    1.000
    C318     C        0.27944    0.72056    0.45700    1.000
    C319     C        0.29529    0.79529    0.06840    1.000
    C320     C        0.27944    0.77944    0.04300    1.000
    C321     C        0.70471    0.20471    0.06840    1.000
    C322     C        0.72056    0.22056    0.04300    1.000
    C323     C        0.70471    0.70471    0.56840    1.000
    C324     C        0.72056    0.72056    0.54300    1.000
    C325     C        0.93160    0.70471    0.79529    1.000
    C326     C        0.95700    0.72056    0.77944    1.000
    C327     C        0.43160    0.70471    0.29529    1.000
    C328     C        0.45700    0.72056    0.27944    1.000
    C329     C        0.43160    0.29529    0.70471    1.000
    C330     C        0.45700    0.27944    0.72056    1.000
    C331     C        0.06840    0.29529    0.79529    1.000
    C332     C        0.04300    0.27944    0.77944    1.000
    C333     C        0.06840    0.70471    0.20471    1.000
    C334     C        0.04300    0.72056    0.22056    1.000
    C335     C        0.56840    0.70471    0.70471    1.000
    C336     C        0.54300    0.72056    0.72056    1.000
    C337     C        0.79529    0.93160    0.70471    1.000
    C338     C        0.77944    0.95700    0.72056    1.000
    C339     C        0.79529    0.43160    0.20471    1.000
    C340     C        0.77944    0.45700    0.22056    1.000
    C341     C        0.20471    0.43160    0.79529    1.000
    C342     C        0.22056    0.45700    0.77944    1.000
    C343     C        0.79529    0.06840    0.29529    1.000
    C344     C        0.77944    0.04300    0.27944    1.000
    C345     C        0.79529    0.56840    0.79529    1.000
    C346     C        0.77944    0.54300    0.77944    1.000
    C347     C        0.20471    0.06840    0.70471    1.000
    C348     C        0.22056    0.04300    0.72056    1.000
    C349     C        0.79529    0.70471    0.06840    1.000
    C350     C        0.77944    0.72056    0.04300    1.000
    C351     C        0.79529    0.20471    0.56840    1.000
    C352     C        0.77944    0.22056    0.54300    1.000
    C353     C        0.20471    0.79529    0.56840    1.000
    C354     C        0.22056    0.77944    0.54300    1.000
    C355     C        0.79529    0.29529    0.93160    1.000
    C356     C        0.77944    0.27944    0.95700    1.000
    C357     C        0.79529    0.79529    0.43160    1.000
    C358     C        0.77944    0.77944    0.45700    1.000
    C359     C        0.20471    0.70471    0.93160    1.000
    C360     C        0.22056    0.72056    0.95700    1.000
    C361     C        0.70471    0.93160    0.20471    1.000
    C362     C        0.72056    0.95700    0.22056    1.000
    C363     C        0.70471    0.43160    0.70471    1.000
    C364     C        0.72056    0.45700    0.72056    1.000
    C365     C        0.29529    0.93160    0.79529    1.000
    C366     C        0.27944    0.95700    0.77944    1.000
    C367     C        0.29529    0.56840    0.70471    1.000
    C368     C        0.27944    0.54300    0.72056    1.000
    C369     C        0.70471    0.06840    0.79529    1.000
    C370     C        0.72056    0.04300    0.77944    1.000
    C371     C        0.70471    0.56840    0.29529    1.000
    C372     C        0.72056    0.54300    0.27944    1.000
    C373     C        0.93160    0.79529    0.29529    1.000
    C374     C        0.95700    0.77944    0.27944    1.000
    C375     C        0.43160    0.79529    0.79529    1.000
    C376     C        0.45700    0.77944    0.77944    1.000
    C377     C        0.93160    0.20471    0.70471    1.000
    C378     C        0.95700    0.22056    0.72056    1.000
    C379     C        0.06840    0.79529    0.70471    1.000
    C380     C        0.04300    0.77944    0.72056    1.000
    C381     C        0.56840    0.79529    0.20471    1.000
    C382     C        0.54300    0.77944    0.22056    1.000
    C383     C        0.56840    0.20471    0.79529    1.000
    C384     C        0.54300    0.22056    0.77944    1.000
    Cu97     Cu       0.22831    0.22831    0.00000    1.000
    Cu98     Cu       0.22831    0.72831    0.50000    1.000
    Cu99     Cu       0.72831    0.22831    0.50000    1.000
    Cu100    Cu       0.72831    0.72831    0.00000    1.000
    Cu101    Cu       0.77169    0.77169    0.00000    1.000
    Cu102    Cu       0.77169    0.27169    0.50000    1.000
    Cu103    Cu       0.27169    0.77169    0.50000    1.000
    Cu104    Cu       0.27169    0.27169    0.00000    1.000
    Cu105    Cu       0.77169    0.22831    0.00000    1.000
    Cu106    Cu       0.77169    0.72831    0.50000    1.000
    Cu107    Cu       0.27169    0.22831    0.50000    1.000
    Cu108    Cu       0.27169    0.72831    0.00000    1.000
    Cu109    Cu       0.22831    0.77169    0.00000    1.000
    Cu110    Cu       0.22831    0.27169    0.50000    1.000
    Cu111    Cu       0.72831    0.77169    0.50000    1.000
    Cu112    Cu       0.72831    0.27169    0.00000    1.000
    Cu113    Cu       0.00000    0.22831    0.22831    1.000
    Cu114    Cu       0.00000    0.72831    0.72831    1.000
    Cu115    Cu       0.50000    0.22831    0.72831    1.000
    Cu116    Cu       0.50000    0.72831    0.22831    1.000
    Cu117    Cu       0.00000    0.77169    0.77169    1.000
    Cu118    Cu       0.00000    0.27169    0.27169    1.000
    Cu119    Cu       0.50000    0.77169    0.27169    1.000
    Cu120    Cu       0.50000    0.27169    0.77169    1.000
    Cu121    Cu       0.00000    0.77169    0.22831    1.000
    Cu122    Cu       0.00000    0.27169    0.72831    1.000
    Cu123    Cu       0.50000    0.77169    0.72831    1.000
    Cu124    Cu       0.50000    0.27169    0.22831    1.000
    Cu125    Cu       0.00000    0.22831    0.77169    1.000
    Cu126    Cu       0.00000    0.72831    0.27169    1.000
    Cu127    Cu       0.50000    0.22831    0.27169    1.000
    Cu128    Cu       0.50000    0.72831    0.77169    1.000
    Cu129    Cu       0.22831    0.00000    0.22831    1.000
    Cu130    Cu       0.22831    0.50000    0.72831    1.000
    Cu131    Cu       0.72831    0.00000    0.72831    1.000
    Cu132    Cu       0.72831    0.50000    0.22831    1.000
    Cu133    Cu       0.77169    0.00000    0.77169    1.000
    Cu134    Cu       0.77169    0.50000    0.27169    1.000
    Cu135    Cu       0.27169    0.00000    0.27169    1.000
    Cu136    Cu       0.27169    0.50000    0.77169    1.000
    Cu137    Cu       0.22831    0.00000    0.77169    1.000
    Cu138    Cu       0.22831    0.50000    0.27169    1.000
    Cu139    Cu       0.72831    0.00000    0.27169    1.000
    Cu140    Cu       0.72831    0.50000    0.77169    1.000
    Cu141    Cu       0.77169    0.00000    0.22831    1.000
    Cu142    Cu       0.77169    0.50000    0.72831    1.000
    Cu143    Cu       0.27169    0.00000    0.72831    1.000
    Cu144    Cu       0.27169    0.50000    0.22831    1.000
