# CIF file generated by openbabel 3.1.0, see https://openbabel.org
data_I
_chemical_name_common 'image0'
_cell_length_a 15.8475
_cell_length_b 15.8475
_cell_length_c 21.601
_cell_angle_alpha 90
_cell_angle_beta 90
_cell_angle_gamma 90
_space_group_name_H-M_alt 'P 1'
_space_group_name_Hall 'P 1'
loop_
    _symmetry_equiv_pos_as_xyz
    x,y,z
loop_
    _atom_site_label
    _atom_site_type_symbol
    _atom_site_fract_x
    _atom_site_fract_y
    _atom_site_fract_z
    _atom_site_occupancy
    C1       C        0.53730    0.25550    0.03600    1.000
    H1       H        0.50600    0.26030    0.07330    1.000
    C2       C        0.56700    0.30160    0.93940    1.000
    H2       H        0.55740    0.34020    0.90650    1.000
    C3       C        0.28340    0.26440    0.88570    1.000
    H3       H        0.26100    0.21030    0.89500    1.000
    C4       C        0.29830    0.38240    0.82050    1.000
    H4       H        0.28590    0.41270    0.78360    1.000
    C5       C        0.25510    0.30760    0.83360    1.000
    C6       C        0.18330    0.27670    0.79660    1.000
    C7       C        0.16800    0.30440    0.73680    1.000
    H5       H        0.20530    0.34390    0.71820    1.000
    C8       C        0.09890    0.27530    0.70390    1.000
    H6       H        0.08910    0.29500    0.66300    1.000
    C9       C        0.04340    0.21710    0.73040    1.000
    H7       H        0.99530    0.19820    0.70820    1.000
    C10      C        0.05930    0.18740    0.78940    1.000
    C11      C        0.12840    0.21730    0.82200    1.000
    H8       H        0.13860    0.19680    0.86270    1.000
    C12      C        0.00450    0.12560    0.81986    1.000
    C13      C        0.90810    0.07430    0.88200    1.000
    C14      C        0.83850    0.06580    0.92540    1.000
    C15      C        0.83420    0.99320    0.96210    1.000
    H9       H        0.87700    0.95150    0.95890    1.000
    C16      C        0.76990    0.98200    0.00190    1.000
    H10      H        0.76820    0.93250    0.02660    1.000
    C17      C        0.70640    0.04110    0.00750    1.000
    H11      H        0.66210    0.03240    0.03640    1.000
    C18      C        0.70690    0.11390    0.97060    1.000
    C19      C        0.77360    0.12460    0.92950    1.000
    H12      H        0.77480    0.17310    0.90370    1.000
    C20      C        0.64080    0.17950    0.97700    1.000
    C21      C        0.62440    0.23710    0.92990    1.000
    H13      H        0.65260    0.23220    0.89120    1.000
    C22      C        0.59420    0.18910    0.03020    1.000
    H14      H        0.60080    0.15010    0.06330    1.000
    C23      C        0.35840    0.41220    0.86020    1.000
    H15      H        0.38680    0.46280    0.84950    1.000
    C24      C        0.34320    0.29920    0.92390    1.000
    H16      H        0.36000    0.26870    0.95970    1.000
    N1       N        0.00660    0.04350    0.81671    1.000
    N2       N        0.94600    0.01090    0.85546    1.000
    N3       N        0.94360    0.14790    0.86076    1.000
    N4       N        0.92410    0.22920    0.88110    1.000
    H17      H        0.97300    0.25700    0.88970    1.000
    H18      H        0.89570    0.25710    0.85080    1.000
    N5       N        0.37920    0.37470    0.91282    1.000
    N6       N        0.52440    0.31300    0.99166    1.000
    C25      C        0.46270    0.74450    0.53600    1.000
    H19      H        0.49400    0.73970    0.57330    1.000
    C26      C        0.43300    0.69840    0.43940    1.000
    H20      H        0.44260    0.65980    0.40650    1.000
    C27      C        0.71660    0.73560    0.38570    1.000
    H21      H        0.73900    0.78970    0.39500    1.000
    C28      C        0.70170    0.61760    0.32050    1.000
    H22      H        0.71410    0.58730    0.28360    1.000
    C29      C        0.74490    0.69240    0.33360    1.000
    C30      C        0.81670    0.72330    0.29660    1.000
    C31      C        0.83200    0.69560    0.23680    1.000
    H23      H        0.79470    0.65610    0.21820    1.000
    C32      C        0.90110    0.72470    0.20390    1.000
    H24      H        0.91090    0.70500    0.16300    1.000
    C33      C        0.95660    0.78290    0.23040    1.000
    H25      H        0.00470    0.80180    0.20820    1.000
    C34      C        0.94070    0.81260    0.28940    1.000
    C35      C        0.87160    0.78270    0.32200    1.000
    H26      H        0.86140    0.80320    0.36270    1.000
    C36      C        0.99550    0.87440    0.31986    1.000
    C37      C        0.09190    0.92570    0.38200    1.000
    C38      C        0.16150    0.93420    0.42540    1.000
    C39      C        0.16580    0.00680    0.46210    1.000
    H27      H        0.12300    0.04850    0.45890    1.000
    C40      C        0.23010    0.01800    0.50190    1.000
    H28      H        0.23180    0.06750    0.52660    1.000
    C41      C        0.29360    0.95890    0.50750    1.000
    H29      H        0.33790    0.96760    0.53640    1.000
    C42      C        0.29310    0.88610    0.47060    1.000
    C43      C        0.22640    0.87540    0.42950    1.000
    H30      H        0.22520    0.82690    0.40370    1.000
    C44      C        0.35920    0.82050    0.47700    1.000
    C45      C        0.37560    0.76290    0.42990    1.000
    H31      H        0.34740    0.76780    0.39120    1.000
    C46      C        0.40580    0.81090    0.53020    1.000
    H32      H        0.39920    0.84990    0.56330    1.000
    C47      C        0.64160    0.58780    0.36020    1.000
    H33      H        0.61320    0.53720    0.34950    1.000
    C48      C        0.65680    0.70080    0.42390    1.000
    H34      H        0.64000    0.73130    0.45970    1.000
    N7       N        0.99340    0.95650    0.31671    1.000
    N8       N        0.05400    0.98910    0.35546    1.000
    N9       N        0.05640    0.85210    0.36076    1.000
    N10      N        0.07590    0.77080    0.38110    1.000
    H35      H        0.02700    0.74300    0.38970    1.000
    H36      H        0.10430    0.74290    0.35080    1.000
    N11      N        0.62080    0.62530    0.41282    1.000
    N12      N        0.47560    0.68700    0.49166    1.000
    C49      C        0.24450    0.03730    0.78600    1.000
    H37      H        0.23970    0.00600    0.82330    1.000
    C50      C        0.19840    0.06700    0.68940    1.000
    H38      H        0.15980    0.05740    0.65650    1.000
    C51      C        0.23560    0.78340    0.63570    1.000
    H39      H        0.28970    0.76100    0.64500    1.000
    C52      C        0.11760    0.79830    0.57050    1.000
    H40      H        0.08730    0.78590    0.53360    1.000
    C53      C        0.19240    0.75510    0.58360    1.000
    C54      C        0.22330    0.68330    0.54660    1.000
    C55      C        0.19560    0.66800    0.48680    1.000
    H41      H        0.15610    0.70530    0.46820    1.000
    C56      C        0.22470    0.59890    0.45390    1.000
    H42      H        0.20500    0.58910    0.41300    1.000
    C57      C        0.28290    0.54340    0.48040    1.000
    H43      H        0.30180    0.49530    0.45820    1.000
    C58      C        0.31260    0.55930    0.53940    1.000
    C59      C        0.28270    0.62840    0.57200    1.000
    H44      H        0.30320    0.63860    0.61270    1.000
    C60      C        0.37440    0.50450    0.56986    1.000
    C61      C        0.42570    0.40810    0.63200    1.000
    C62      C        0.43420    0.33850    0.67540    1.000
    C63      C        0.50680    0.33420    0.71210    1.000
    H45      H        0.54850    0.37700    0.70890    1.000
    C64      C        0.51800    0.26990    0.75190    1.000
    H46      H        0.56750    0.26820    0.77660    1.000
    C65      C        0.45890    0.20640    0.75750    1.000
    H47      H        0.46760    0.16210    0.78640    1.000
    C66      C        0.38610    0.20690    0.72060    1.000
    C67      C        0.37540    0.27360    0.67950    1.000
    H48      H        0.32690    0.27480    0.65370    1.000
    C68      C        0.32050    0.14080    0.72700    1.000
    C69      C        0.26290    0.12440    0.67990    1.000
    H49      H        0.26780    0.15260    0.64120    1.000
    C70      C        0.31090    0.09420    0.78020    1.000
    H50      H        0.34990    0.10080    0.81330    1.000
    C71      C        0.08780    0.85840    0.61020    1.000
    H51      H        0.03720    0.88680    0.59950    1.000
    C72      C        0.20080    0.84320    0.67390    1.000
    H52      H        0.23130    0.86000    0.70970    1.000
    N13      N        0.45650    0.50660    0.56671    1.000
    N14      N        0.48910    0.44600    0.60546    1.000
    N15      N        0.35210    0.44360    0.61076    1.000
    N16      N        0.27080    0.42410    0.63110    1.000
    H53      H        0.24300    0.47300    0.63970    1.000
    H54      H        0.24290    0.39570    0.60080    1.000
    N17      N        0.12530    0.87920    0.66282    1.000
    N18      N        0.18700    0.02440    0.74166    1.000
    C73      C        0.75550    0.96270    0.28600    1.000
    H55      H        0.76030    0.99400    0.32330    1.000
    C74      C        0.80160    0.93300    0.18940    1.000
    H56      H        0.84020    0.94260    0.15650    1.000
    C75      C        0.76440    0.21660    0.13570    1.000
    H57      H        0.71030    0.23900    0.14500    1.000
    C76      C        0.88240    0.20170    0.07050    1.000
    H58      H        0.91270    0.21410    0.03360    1.000
    C77      C        0.80760    0.24490    0.08360    1.000
    C78      C        0.77670    0.31670    0.04660    1.000
    C79      C        0.80440    0.33200    0.98680    1.000
    H59      H        0.84390    0.29470    0.96820    1.000
    C80      C        0.77530    0.40110    0.95390    1.000
    H60      H        0.79500    0.41090    0.91300    1.000
    C81      C        0.71710    0.45660    0.98040    1.000
    H61      H        0.69820    0.50470    0.95820    1.000
    C82      C        0.68740    0.44070    0.03940    1.000
    C83      C        0.71730    0.37160    0.07200    1.000
    H62      H        0.69680    0.36140    0.11270    1.000
    C84      C        0.62560    0.49550    0.06986    1.000
    C85      C        0.57430    0.59190    0.13200    1.000
    C86      C        0.56580    0.66150    0.17540    1.000
    C87      C        0.49320    0.66580    0.21210    1.000
    H63      H        0.45150    0.62300    0.20890    1.000
    C88      C        0.48200    0.73010    0.25190    1.000
    H64      H        0.43250    0.73180    0.27660    1.000
    C89      C        0.54110    0.79360    0.25750    1.000
    H65      H        0.53240    0.83790    0.28640    1.000
    C90      C        0.61390    0.79310    0.22060    1.000
    C91      C        0.62460    0.72640    0.17950    1.000
    H66      H        0.67310    0.72520    0.15370    1.000
    C92      C        0.67950    0.85920    0.22700    1.000
    C93      C        0.73710    0.87560    0.17990    1.000
    H67      H        0.73220    0.84740    0.14120    1.000
    C94      C        0.68910    0.90580    0.28020    1.000
    H68      H        0.65010    0.89920    0.31330    1.000
    C95      C        0.91220    0.14160    0.11020    1.000
    H69      H        0.96280    0.11320    0.09950    1.000
    C96      C        0.79920    0.15680    0.17390    1.000
    H70      H        0.76870    0.14000    0.20970    1.000
    N19      N        0.54350    0.49340    0.06671    1.000
    N20      N        0.51090    0.55400    0.10546    1.000
    N21      N        0.64790    0.55640    0.11076    1.000
    N22      N        0.72920    0.57590    0.13110    1.000
    H71      H        0.75700    0.52700    0.13970    1.000
    H72      H        0.75710    0.60430    0.10080    1.000
    N23      N        0.87470    0.12080    0.16282    1.000
    N24      N        0.81300    0.97560    0.24166    1.000
    C97      C        0.96270    0.75550    0.71400    1.000
    H73      H        0.99400    0.76030    0.67670    1.000
    C98      C        0.93300    0.80160    0.81060    1.000
    H74      H        0.94260    0.84020    0.84350    1.000
    C99      C        0.21660    0.76440    0.86430    1.000
    H75      H        0.23900    0.71030    0.85500    1.000
    C100     C        0.20170    0.88240    0.92950    1.000
    H76      H        0.21410    0.91270    0.96640    1.000
    C101     C        0.24490    0.80760    0.91640    1.000
    C102     C        0.31670    0.77670    0.95340    1.000
    C103     C        0.33200    0.80440    0.01320    1.000
    H77      H        0.29470    0.84390    0.03180    1.000
    C104     C        0.40110    0.77530    0.04610    1.000
    H78      H        0.41090    0.79500    0.08700    1.000
    C105     C        0.45660    0.71710    0.01960    1.000
    H79      H        0.50470    0.69820    0.04180    1.000
    C106     C        0.44070    0.68740    0.96060    1.000
    C107     C        0.37160    0.71730    0.92800    1.000
    H80      H        0.36140    0.69680    0.88730    1.000
    C108     C        0.49550    0.62560    0.93014    1.000
    C109     C        0.59190    0.57430    0.86800    1.000
    C110     C        0.66150    0.56580    0.82460    1.000
    C111     C        0.66580    0.49320    0.78790    1.000
    H81      H        0.62300    0.45150    0.79110    1.000
    C112     C        0.73010    0.48200    0.74810    1.000
    H82      H        0.73180    0.43250    0.72340    1.000
    C113     C        0.79360    0.54110    0.74250    1.000
    H83      H        0.83790    0.53240    0.71360    1.000
    C114     C        0.79310    0.61390    0.77940    1.000
    C115     C        0.72640    0.62460    0.82050    1.000
    H84      H        0.72520    0.67310    0.84630    1.000
    C116     C        0.85920    0.67950    0.77300    1.000
    C117     C        0.87560    0.73710    0.82010    1.000
    H85      H        0.84740    0.73220    0.85880    1.000
    C118     C        0.90580    0.68910    0.71980    1.000
    H86      H        0.89920    0.65010    0.68670    1.000
    C119     C        0.14160    0.91220    0.88980    1.000
    H87      H        0.11320    0.96280    0.90050    1.000
    C120     C        0.15680    0.79920    0.82610    1.000
    H88      H        0.14000    0.76870    0.79030    1.000
    N25      N        0.49340    0.54350    0.93329    1.000
    N26      N        0.55400    0.51090    0.89454    1.000
    N27      N        0.55640    0.64790    0.88924    1.000
    N28      N        0.57590    0.72920    0.86890    1.000
    H89      H        0.52700    0.75700    0.86030    1.000
    H90      H        0.60430    0.75710    0.89920    1.000
    N29      N        0.12080    0.87470    0.83718    1.000
    N30      N        0.97560    0.81300    0.75834    1.000
    C121     C        0.03730    0.24450    0.21400    1.000
    H91      H        0.00600    0.23970    0.17670    1.000
    C122     C        0.06700    0.19840    0.31060    1.000
    H92      H        0.05740    0.15980    0.34350    1.000
    C123     C        0.78340    0.23560    0.36430    1.000
    H93      H        0.76100    0.28970    0.35500    1.000
    C124     C        0.79830    0.11760    0.42950    1.000
    H94      H        0.78590    0.08730    0.46640    1.000
    C125     C        0.75510    0.19240    0.41640    1.000
    C126     C        0.68330    0.22330    0.45340    1.000
    C127     C        0.66800    0.19560    0.51320    1.000
    H95      H        0.70530    0.15610    0.53180    1.000
    C128     C        0.59890    0.22470    0.54610    1.000
    H96      H        0.58910    0.20500    0.58700    1.000
    C129     C        0.54340    0.28290    0.51960    1.000
    H97      H        0.49530    0.30180    0.54180    1.000
    C130     C        0.55930    0.31260    0.46060    1.000
    C131     C        0.62840    0.28270    0.42800    1.000
    H98      H        0.63860    0.30320    0.38730    1.000
    C132     C        0.50450    0.37440    0.43014    1.000
    C133     C        0.40810    0.42570    0.36800    1.000
    C134     C        0.33850    0.43420    0.32460    1.000
    C135     C        0.33420    0.50680    0.28790    1.000
    H99      H        0.37700    0.54850    0.29110    1.000
    C136     C        0.26990    0.51800    0.24810    1.000
    H100     H        0.26820    0.56750    0.22340    1.000
    C137     C        0.20640    0.45890    0.24250    1.000
    H101     H        0.16210    0.46760    0.21360    1.000
    C138     C        0.20690    0.38610    0.27940    1.000
    C139     C        0.27360    0.37540    0.32050    1.000
    H102     H        0.27480    0.32690    0.34630    1.000
    C140     C        0.14080    0.32050    0.27300    1.000
    C141     C        0.12440    0.26290    0.32010    1.000
    H103     H        0.15260    0.26780    0.35880    1.000
    C142     C        0.09420    0.31090    0.21980    1.000
    H104     H        0.10080    0.34990    0.18670    1.000
    C143     C        0.85840    0.08780    0.38980    1.000
    H105     H        0.88680    0.03720    0.40050    1.000
    C144     C        0.84320    0.20080    0.32610    1.000
    H106     H        0.86000    0.23130    0.29030    1.000
    N31      N        0.50660    0.45650    0.43329    1.000
    N32      N        0.44600    0.48910    0.39454    1.000
    N33      N        0.44360    0.35210    0.38924    1.000
    N34      N        0.42410    0.27080    0.36890    1.000
    H107     H        0.47300    0.24300    0.36030    1.000
    H108     H        0.39570    0.24290    0.39920    1.000
    N35      N        0.87920    0.12530    0.33718    1.000
    N36      N        0.02440    0.18700    0.25834    1.000
    C145     C        0.25550    0.53730    0.96400    1.000
    H109     H        0.26030    0.50600    0.92670    1.000
    C146     C        0.30160    0.56700    0.06060    1.000
    H110     H        0.34020    0.55740    0.09350    1.000
    C147     C        0.26440    0.28340    0.11430    1.000
    H111     H        0.21030    0.26100    0.10500    1.000
    C148     C        0.38240    0.29830    0.17950    1.000
    H112     H        0.41270    0.28590    0.21640    1.000
    C149     C        0.30760    0.25510    0.16640    1.000
    C150     C        0.27670    0.18330    0.20340    1.000
    C151     C        0.30440    0.16800    0.26320    1.000
    H113     H        0.34390    0.20530    0.28180    1.000
    C152     C        0.27530    0.09890    0.29610    1.000
    H114     H        0.29500    0.08910    0.33700    1.000
    C153     C        0.21710    0.04340    0.26960    1.000
    H115     H        0.19820    0.99530    0.29180    1.000
    C154     C        0.18740    0.05930    0.21060    1.000
    C155     C        0.21730    0.12840    0.17800    1.000
    H116     H        0.19680    0.13860    0.13730    1.000
    C156     C        0.12560    0.00450    0.18014    1.000
    C157     C        0.07430    0.90810    0.11800    1.000
    C158     C        0.06580    0.83850    0.07460    1.000
    C159     C        0.99320    0.83420    0.03790    1.000
    H117     H        0.95150    0.87700    0.04110    1.000
    C160     C        0.98200    0.76990    0.99810    1.000
    H118     H        0.93250    0.76820    0.97340    1.000
    C161     C        0.04110    0.70640    0.99250    1.000
    H119     H        0.03240    0.66210    0.96360    1.000
    C162     C        0.11390    0.70690    0.02940    1.000
    C163     C        0.12460    0.77360    0.07050    1.000
    H120     H        0.17310    0.77480    0.09630    1.000
    C164     C        0.17950    0.64080    0.02300    1.000
    C165     C        0.23710    0.62440    0.07010    1.000
    H121     H        0.23220    0.65260    0.10880    1.000
    C166     C        0.18910    0.59420    0.96980    1.000
    H122     H        0.15010    0.60080    0.93670    1.000
    C167     C        0.41220    0.35840    0.13980    1.000
    H123     H        0.46280    0.38680    0.15050    1.000
    C168     C        0.29920    0.34320    0.07610    1.000
    H124     H        0.26870    0.36000    0.04030    1.000
    N37      N        0.04350    0.00660    0.18329    1.000
    N38      N        0.01090    0.94600    0.14454    1.000
    N39      N        0.14790    0.94360    0.13924    1.000
    N40      N        0.22920    0.92410    0.11890    1.000
    H125     H        0.25700    0.97300    0.11030    1.000
    H126     H        0.25710    0.89570    0.14920    1.000
    N41      N        0.37470    0.37920    0.08718    1.000
    N42      N        0.31300    0.52440    0.00834    1.000
    C169     C        0.74450    0.46270    0.46400    1.000
    H127     H        0.73970    0.49400    0.42670    1.000
    C170     C        0.69840    0.43300    0.56060    1.000
    H128     H        0.65980    0.44260    0.59350    1.000
    C171     C        0.73560    0.71660    0.61430    1.000
    H129     H        0.78970    0.73900    0.60500    1.000
    C172     C        0.61760    0.70170    0.67950    1.000
    H130     H        0.58730    0.71410    0.71640    1.000
    C173     C        0.69240    0.74490    0.66640    1.000
    C174     C        0.72330    0.81670    0.70340    1.000
    C175     C        0.69560    0.83200    0.76320    1.000
    H131     H        0.65610    0.79470    0.78180    1.000
    C176     C        0.72470    0.90110    0.79610    1.000
    H132     H        0.70500    0.91090    0.83700    1.000
    C177     C        0.78290    0.95660    0.76960    1.000
    H133     H        0.80180    0.00470    0.79180    1.000
    C178     C        0.81260    0.94070    0.71060    1.000
    C179     C        0.78270    0.87160    0.67800    1.000
    H134     H        0.80320    0.86140    0.63730    1.000
    C180     C        0.87440    0.99550    0.68014    1.000
    C181     C        0.92570    0.09190    0.61800    1.000
    C182     C        0.93420    0.16150    0.57460    1.000
    C183     C        0.00680    0.16580    0.53790    1.000
    H135     H        0.04850    0.12300    0.54110    1.000
    C184     C        0.01800    0.23010    0.49810    1.000
    H136     H        0.06750    0.23180    0.47340    1.000
    C185     C        0.95890    0.29360    0.49250    1.000
    H137     H        0.96760    0.33790    0.46360    1.000
    C186     C        0.88610    0.29310    0.52940    1.000
    C187     C        0.87540    0.22640    0.57050    1.000
    H138     H        0.82690    0.22520    0.59630    1.000
    C188     C        0.82050    0.35920    0.52300    1.000
    C189     C        0.76290    0.37560    0.57010    1.000
    H139     H        0.76780    0.34740    0.60880    1.000
    C190     C        0.81090    0.40580    0.46980    1.000
    H140     H        0.84990    0.39920    0.43670    1.000
    C191     C        0.58780    0.64160    0.63980    1.000
    H141     H        0.53720    0.61320    0.65050    1.000
    C192     C        0.70080    0.65680    0.57610    1.000
    H142     H        0.73130    0.64000    0.54030    1.000
    N43      N        0.95650    0.99340    0.68329    1.000
    N44      N        0.98910    0.05400    0.64454    1.000
    N45      N        0.85210    0.05640    0.63924    1.000
    N46      N        0.77080    0.07590    0.61890    1.000
    H143     H        0.74300    0.02700    0.61030    1.000
    H144     H        0.74290    0.10430    0.64920    1.000
    N47      N        0.62530    0.62080    0.58718    1.000
    N48      N        0.68700    0.47560    0.50834    1.000
    Cd1      Cd       0.05931    0.94069    0.75000    1.000
    Cd2      Cd       0.94069    0.05931    0.25000    1.000
    Cd3      Cd       0.55931    0.55931    0.50000    1.000
    Cd4      Cd       0.44069    0.44069    0.00000    1.000
