# CIF file generated by openbabel 3.1.0, see https://openbabel.org
data_I
_chemical_name_common 'image0'
_cell_length_a 13.0196
_cell_length_b 13.1488
_cell_length_c 14.0444
_cell_angle_alpha 90
_cell_angle_beta 103.955
_cell_angle_gamma 90
_space_group_name_H-M_alt 'P 1'
_space_group_name_Hall 'P 1'
loop_
    _symmetry_equiv_pos_as_xyz
    x,y,z
loop_
    _atom_site_label
    _atom_site_type_symbol
    _atom_site_fract_x
    _atom_site_fract_y
    _atom_site_fract_z
    _atom_site_occupancy
    Sm1      Sm       0.40887    0.44675    0.08817    1.000
    O1       O        0.84950    0.11270    0.42330    1.000
    O2       O        0.47270    0.38770    0.25640    1.000
    O3       O        0.35850    0.51200    0.23990    1.000
    O4       O        0.57000    0.41460    0.04040    1.000
    O5       O        0.44120    0.25120    0.08620    1.000
    C1       C        0.88260    0.11420    0.34640    1.000
    C2       C        0.46520    0.47950    0.40030    1.000
    C3       C        0.39250    0.17700    0.04780    1.000
    C4       C        0.71380    0.30730    0.11570    1.000
    C5       C        0.79320    0.24330    0.09970    1.000
    H1       H        0.81100    0.24420    0.03940    1.000
    C6       C        0.42910    0.45790    0.29190    1.000
    O6       O        0.29010    0.17010    0.02350    1.000
    H2       H        0.26420    0.22300    0.03800    1.000
    C7       C        0.84550    0.17830    0.17290    1.000
    H3       H        0.89700    0.13420    0.16120    1.000
    C8       C        0.54500    0.42170    0.45880    1.000
    H4       H        0.57530    0.36850    0.43150    1.000
    C9       C        0.42020    0.55690    0.44210    1.000
    H5       H        0.36580    0.59520    0.40350    1.000
    O7       O        0.96200    0.06950    0.33230    1.000
    O8       O        0.70410    0.40640    0.97310    1.000
    C10      C        0.74250    0.24230    0.27970    1.000
    H6       H        0.72540    0.24190    0.34030    1.000
    C11      C        0.82110    0.17890    0.26410    1.000
    C12      C        0.65920    0.37930    0.03800    1.000
    C13      C        0.68820    0.30710    0.20580    1.000
    H7       H        0.63530    0.34970    0.21700    1.000
    C14      C        0.44790    0.08400    0.02360    1.000
    C15      C        0.55620    0.07440    0.05970    1.000
    H8       H        0.59380    0.12500    0.09970    1.000
    C16      C        0.39160    0.00960    0.96320    1.000
    H9       H        0.31890    0.01630    0.93840    1.000
    Cl1      Cl       0.19673    0.36139    0.07667    1.000
    Sm2      Sm       0.09113    0.94675    0.41183    1.000
    O9       O        0.65050    0.61270    0.07670    1.000
    O10      O        0.02730    0.88770    0.24360    1.000
    O11      O        0.14150    0.01200    0.26010    1.000
    O12      O        0.93000    0.91460    0.45960    1.000
    O13      O        0.05880    0.75120    0.41380    1.000
    C17      C        0.61740    0.61420    0.15360    1.000
    C18      C        0.03480    0.97950    0.09970    1.000
    C19      C        0.10750    0.67700    0.45220    1.000
    C20      C        0.78620    0.80730    0.38430    1.000
    C21      C        0.70680    0.74330    0.40030    1.000
    H10      H        0.68900    0.74420    0.46060    1.000
    C22      C        0.07090    0.95790    0.20810    1.000
    O14      O        0.20990    0.67010    0.47650    1.000
    H11      H        0.23580    0.72300    0.46200    1.000
    C23      C        0.65450    0.67830    0.32710    1.000
    H12      H        0.60300    0.63420    0.33880    1.000
    C24      C        0.95500    0.92170    0.04120    1.000
    H13      H        0.92470    0.86850    0.06850    1.000
    C25      C        0.07980    0.05690    0.05790    1.000
    H14      H        0.13420    0.09520    0.09650    1.000
    O15      O        0.53800    0.56950    0.16770    1.000
    O16      O        0.79590    0.90640    0.52690    1.000
    C26      C        0.75750    0.74230    0.22030    1.000
    H15      H        0.77460    0.74190    0.15970    1.000
    C27      C        0.67890    0.67890    0.23590    1.000
    C28      C        0.84080    0.87930    0.46200    1.000
    C29      C        0.81180    0.80710    0.29420    1.000
    H16      H        0.86470    0.84970    0.28300    1.000
    C30      C        0.05210    0.58400    0.47640    1.000
    C31      C        0.94380    0.57440    0.44030    1.000
    H17      H        0.90620    0.62500    0.40030    1.000
    C32      C        0.10840    0.50960    0.53680    1.000
    H18      H        0.18110    0.51630    0.56160    1.000
    Cl2      Cl       0.30327    0.86139    0.42333    1.000
    Sm3      Sm       0.59113    0.55325    0.91183    1.000
    O17      O        0.15050    0.88730    0.57670    1.000
    O18      O        0.52730    0.61230    0.74360    1.000
    O19      O        0.64150    0.48800    0.76010    1.000
    O20      O        0.43000    0.58540    0.95960    1.000
    O21      O        0.55880    0.74880    0.91380    1.000
    C33      C        0.11740    0.88580    0.65360    1.000
    C34      C        0.53480    0.52050    0.59970    1.000
    C35      C        0.60750    0.82300    0.95220    1.000
    C36      C        0.28620    0.69270    0.88430    1.000
    C37      C        0.20680    0.75670    0.90030    1.000
    H19      H        0.18900    0.75580    0.96060    1.000
    C38      C        0.57090    0.54210    0.70810    1.000
    O22      O        0.70990    0.82990    0.97650    1.000
    H20      H        0.73580    0.77700    0.96200    1.000
    C39      C        0.15450    0.82170    0.82710    1.000
    H21      H        0.10300    0.86580    0.83880    1.000
    C40      C        0.45500    0.57830    0.54120    1.000
    H22      H        0.42470    0.63150    0.56850    1.000
    C41      C        0.57980    0.44310    0.55790    1.000
    H23      H        0.63420    0.40480    0.59650    1.000
    O23      O        0.03800    0.93050    0.66770    1.000
    O24      O        0.29590    0.59360    0.02690    1.000
    C42      C        0.25750    0.75770    0.72030    1.000
    H24      H        0.27460    0.75810    0.65970    1.000
    C43      C        0.17890    0.82110    0.73590    1.000
    C44      C        0.34080    0.62070    0.96200    1.000
    C45      C        0.31180    0.69290    0.79420    1.000
    H25      H        0.36470    0.65030    0.78300    1.000
    C46      C        0.55210    0.91600    0.97640    1.000
    C47      C        0.44380    0.92560    0.94030    1.000
    H26      H        0.40620    0.87500    0.90030    1.000
    C48      C        0.60840    0.99040    0.03680    1.000
    H27      H        0.68110    0.98370    0.06160    1.000
    Cl3      Cl       0.80327    0.63861    0.92333    1.000
    Sm4      Sm       0.90887    0.05325    0.58817    1.000
    O25      O        0.34950    0.38730    0.92330    1.000
    O26      O        0.97270    0.11230    0.75640    1.000
    O27      O        0.85850    0.98800    0.73990    1.000
    O28      O        0.07000    0.08540    0.54040    1.000
    O29      O        0.94120    0.24880    0.58620    1.000
    C49      C        0.38260    0.38580    0.84640    1.000
    C50      C        0.96520    0.02050    0.90030    1.000
    C51      C        0.89250    0.32300    0.54780    1.000
    C52      C        0.21380    0.19270    0.61570    1.000
    C53      C        0.29320    0.25670    0.59970    1.000
    H28      H        0.31100    0.25580    0.53940    1.000
    C54      C        0.92910    0.04210    0.79190    1.000
    O30      O        0.79010    0.32990    0.52350    1.000
    H29      H        0.76420    0.27700    0.53800    1.000
    C55      C        0.34550    0.32170    0.67290    1.000
    H30      H        0.39700    0.36580    0.66120    1.000
    C56      C        0.04500    0.07830    0.95880    1.000
    H31      H        0.07530    0.13150    0.93150    1.000
    C57      C        0.92020    0.94310    0.94210    1.000
    H32      H        0.86580    0.90480    0.90350    1.000
    O31      O        0.46200    0.43050    0.83230    1.000
    O32      O        0.20410    0.09360    0.47310    1.000
    C58      C        0.24250    0.25770    0.77970    1.000
    H33      H        0.22540    0.25810    0.84030    1.000
    C59      C        0.32110    0.32110    0.76410    1.000
    C60      C        0.15920    0.12070    0.53800    1.000
    C61      C        0.18820    0.19290    0.70580    1.000
    H34      H        0.13530    0.15030    0.71700    1.000
    C62      C        0.94790    0.41600    0.52360    1.000
    C63      C        0.05620    0.42560    0.55970    1.000
    H35      H        0.09380    0.37500    0.59970    1.000
    C64      C        0.89160    0.49040    0.46320    1.000
    H36      H        0.81890    0.48370    0.43840    1.000
    Cl4      Cl       0.69673    0.13861    0.57667    1.000
