data_functionalizedCrystal
_audit_creation_method	'EQeq! by Chris Wilmer'
_symmetry_space_group_name_H-M	'P1'
_symmetry_Int_Tables_number	1
_symmetry_cell_setting	triclinic
loop_
_symmetry_equiv_pos_as_xyz
  x,y,z
_cell_length_a	13.1485
_cell_length_b	16.408
_cell_length_c	13.344
_cell_angle_alpha	90
_cell_angle_beta	90
_cell_angle_gamma	90
loop_
_atom_site_label
_atom_site_type_symbol
_atom_site_fract_x
_atom_site_fract_y
_atom_site_fract_z
_atom_site_charge
Mof_H 	H 	0.40444	0.45765	0.58413	0.023
Mof_H 	H 	0.40217	0.57894	0.46899	0.027
Mof_H 	H 	0.08346	0.541	0.41506	0.014
Mof_H 	H 	0.08573	0.41972	0.53018	0.018
Mof_H 	H 	0.40191	0.0791	0.5287	0.027
Mof_H 	H 	0.08329	0.04044	0.58243	0.014
Mof_H 	H 	0.15182	0.07809	0.96714	0.031
Mof_H 	H 	0.33596	0.91821	0.02865	0.026
Mof_H 	H 	0.15462	0.95686	0.08233	0.027
Mof_H 	H 	0.33315	0.03948	0.91352	0.023
Mof_H 	H 	0.33575	0.41832	0.96918	0.026
Mof_H 	H 	0.15441	0.45636	0.91497	0.027
Mof_H 	H 	0.0861	0.91916	0.46731	0.018
Mof_H 	H 	0.4047	0.95784	0.41354	0.024
Mof_H 	H 	0.15217	0.57765	0.03007	0.031
Mof_H 	H 	0.3335	0.5396	0.08431	0.023
Mof_H 	H 	0.9045	0.45768	0.58415	0.032
Mof_H 	H 	0.90222	0.57895	0.469	0.036
Mof_H 	H 	0.58352	0.54101	0.41506	0.024
Mof_H 	H 	0.58579	0.41973	0.53018	0.028
Mof_H 	H 	0.90198	0.07911	0.52868	0.036
Mof_H 	H 	0.58336	0.04044	0.58243	0.024
Mof_H 	H 	0.65181	0.07805	0.96708	0.029
Mof_H 	H 	0.836	0.91819	0.0286	0.029
Mof_H 	H 	0.65461	0.95683	0.08228	0.024
Mof_H 	H 	0.83318	0.03947	0.91349	0.026
Mof_H 	H 	0.83577	0.4183	0.96919	0.029
Mof_H 	H 	0.6544	0.45635	0.91499	0.025
Mof_H 	H 	0.58617	0.91917	0.46731	0.028
Mof_H 	H 	0.90477	0.95785	0.41352	0.032
Mof_H 	H 	0.65216	0.57763	0.03011	0.028
Mof_H 	H 	0.83352	0.5396	0.08431	0.026
Mof_C 	C 	0.40295	0.02087	0.95103	0.045
Mof_C 	C 	0.99238	0.06551	0.93381	-0.238
Mof_C 	C 	0.49073	0.13724	0.86512	1
Mof_C 	C 	0.08356	0.54215	0.01638	0.011
Mof_C 	C 	0.15313	0.52226	0.45269	0.043
Mof_C 	C 	0.2427	0.56672	0.43554	-0.269
Mof_C 	C 	0.24126	0.63828	0.3666	0.998
Mof_C 	C 	0.33342	0.04349	0.51482	0.042
Mof_C 	C 	0.08476	0.47508	0.95266	0.015
Mof_C 	C 	0.49519	0.43059	0.93559	-0.267
Mof_C 	C 	0.99661	0.35901	0.86667	1.034
Mof_C 	C 	0.40446	0.95381	0.01476	0.041
Mof_C 	C 	0.33492	0.97643	0.45109	0.044
Mof_C 	C 	0.24553	0.93177	0.43392	-0.269
Mof_C 	C 	0.24715	0.86004	0.36525	0.998
Mof_C 	C 	0.15435	0.4552	0.51642	0.039
Mof_C 	C 	0.08485	0.97542	0.04474	0.015
Mof_C 	C 	0.49544	0.93075	0.06193	-0.267
Mof_C 	C 	0.99712	0.85912	0.13077	1.033
Mof_C 	C 	0.40437	0.45379	0.98293	0.042
Mof_C 	C 	0.33476	0.47642	0.54654	0.045
Mof_C 	C 	0.2452	0.43194	0.56365	-0.269
Mof_C 	C 	0.24662	0.36014	0.63222	0.998
Mof_C 	C 	0.15457	0.95481	0.48112	0.039
Mof_C 	C 	0.40317	0.52086	0.04666	0.045
Mof_C 	C 	0.99272	0.56539	0.06367	-0.237
Mof_C 	C 	0.49129	0.63721	0.13224	1
Mof_C 	C 	0.08335	0.04246	0.98099	0.012
Mof_C 	C 	0.15306	0.02187	0.54484	0.042
Mof_C 	C 	0.24244	0.06656	0.562	-0.269
Mof_C 	C 	0.24076	0.13823	0.63076	0.998
Mof_C 	C 	0.33354	0.54349	0.48281	0.042
Mof_C 	C 	0.90297	0.02086	0.95102	0.044
Mof_C 	C 	0.49235	0.0655	0.93379	-0.267
Mof_C 	C 	0.99075	0.13726	0.86516	1.033
Mof_C 	C 	0.58355	0.54214	0.0164	0.042
Mof_C 	C 	0.65319	0.52227	0.4527	0.046
Mof_C 	C 	0.74275	0.56672	0.43554	-0.266
Mof_C 	C 	0.74129	0.6383	0.36662	1.002
Mof_C 	C 	0.83349	0.0435	0.51482	0.045
Mof_C 	C 	0.58474	0.47507	0.95268	0.046
Mof_C 	C 	0.99521	0.43058	0.9356	-0.238
Mof_C 	C 	0.4966	0.35901	0.86666	1
Mof_C 	C 	0.90449	0.9538	0.01474	0.041
Mof_C 	C 	0.83499	0.97645	0.45108	0.047
Mof_C 	C 	0.7456	0.93177	0.43391	-0.266
Mof_C 	C 	0.7472	0.86006	0.36522	1.002
Mof_C 	C 	0.6544	0.45521	0.51642	0.042
Mof_C 	C 	0.58484	0.9754	0.04471	0.045
Mof_C 	C 	0.99546	0.93075	0.06193	-0.238
Mof_C 	C 	0.4971	0.85912	0.13078	1
Mof_C 	C 	0.90439	0.45379	0.98294	0.041
Mof_C 	C 	0.83481	0.47644	0.54656	0.048
Mof_C 	C 	0.74526	0.43196	0.56367	-0.266
Mof_C 	C 	0.74666	0.36016	0.63225	1.002
Mof_C 	C 	0.65464	0.95482	0.48112	0.042
Mof_C 	C 	0.90319	0.52086	0.04666	0.044
Mof_C 	C 	0.49271	0.56538	0.06369	-0.267
Mof_C 	C 	0.99129	0.63722	0.13221	1.034
Mof_C 	C 	0.58333	0.04244	0.98095	0.042
Mof_C 	C 	0.65313	0.02188	0.54483	0.046
Mof_C 	C 	0.74251	0.06657	0.56199	-0.266
Mof_C 	C 	0.7408	0.13825	0.63074	1.002
Mof_C 	C 	0.8336	0.5435	0.48282	0.045
Mof_O 	O 	0.07537	0.17207	0.84658	-1.416
Mof_O 	O 	0.40514	0.65884	0.16722	-1.395
Mof_O 	O 	0.32589	0.67306	0.34794	-1.388
Mof_O 	O 	0.15449	0.15971	0.66561	-1.395
Mof_O 	O 	0.41195	0.32425	0.84801	-1.389
Mof_O 	O 	0.08336	0.8377	0.16576	-1.418
Mof_O 	O 	0.16256	0.82514	0.34679	-1.39
Mof_O 	O 	0.33275	0.33856	0.66728	-1.393
Mof_O 	O 	0.41252	0.82431	0.14949	-1.39
Mof_O 	O 	0.08276	0.3376	0.8315	-1.42
Mof_O 	O 	0.16196	0.32531	0.65059	-1.39
Mof_O 	O 	0.33333	0.83856	0.3302	-1.393
Mof_O 	O 	0.07594	0.67206	0.15059	-1.415
Mof_O 	O 	0.40453	0.15882	0.83022	-1.394
Mof_O 	O 	0.32534	0.17305	0.6495	-1.388
Mof_O 	O 	0.15508	0.65969	0.33148	-1.395
Mof_O 	O 	0.57536	0.17204	0.84653	-1.391
Mof_O 	O 	0.90515	0.65884	0.16721	-1.402
Mof_O 	O 	0.82593	0.67307	0.34793	-1.39
Mof_O 	O 	0.65453	0.15973	0.66557	-1.396
Mof_O 	O 	0.91197	0.32422	0.84806	-1.396
Mof_O 	O 	0.58334	0.8377	0.16576	-1.395
Mof_O 	O 	0.6626	0.82516	0.34678	-1.391
Mof_O 	O 	0.83278	0.33857	0.66733	-1.395
Mof_O 	O 	0.91254	0.8243	0.14946	-1.397
Mof_O 	O 	0.58275	0.33759	0.83151	-1.396
Mof_O 	O 	0.66199	0.32533	0.6506	-1.391
Mof_O 	O 	0.83337	0.83857	0.33016	-1.395
Mof_O 	O 	0.57594	0.67204	0.15064	-1.39
Mof_O 	O 	0.90455	0.15882	0.83024	-1.402
Mof_O 	O 	0.82538	0.17306	0.64951	-1.39
Mof_O 	O 	0.65511	0.65971	0.33152	-1.396
Mof_F 	F 	0.99357	0.24916	0.68869	-1.977
Mof_F 	F 	0.24423	0.74829	0.18873	-1.992
Mof_F 	F 	0.49419	0.74918	0.30861	-1.999
Mof_F 	F 	0.24358	0.24816	0.80859	-1.992
Mof_F 	F 	0.49357	0.24917	0.68867	-1.998
Mof_F 	F 	0.74423	0.74828	0.18873	-2.002
Mof_F 	F 	0.9942	0.74917	0.30859	-1.978
Mof_F 	F 	0.74358	0.24814	0.8086	-2.001
Mof_Al	Al	0.11861	0.24867	0.74855	5.779
Mof_Al	Al	0.36921	0.74869	0.2487	5.82
Mof_Al	Al	0.36861	0.24867	0.74873	5.818
Mof_Al	Al	0.11921	0.74868	0.24864	5.778
Mof_Al	Al	0.61862	0.24867	0.74854	5.827
Mof_Al	Al	0.86922	0.74869	0.24868	5.849
Mof_Al	Al	0.86863	0.24867	0.74876	5.846
Mof_Al	Al	0.61922	0.74869	0.24865	5.826
_end
