data_functionalizedCrystal
_audit_creation_method	'EQeq! by Chris Wilmer'
_symmetry_space_group_name_H-M	'P1'
_symmetry_Int_Tables_number	1
_symmetry_cell_setting	triclinic
loop_
_symmetry_equiv_pos_as_xyz
  x,y,z
_cell_length_a	15.2994
_cell_length_b	15.2994
_cell_length_c	18.4904
_cell_angle_alpha	75.7184
_cell_angle_beta	75.7184
_cell_angle_gamma	68.1324
loop_
_atom_site_label
_atom_site_type_symbol
_atom_site_fract_x
_atom_site_fract_y
_atom_site_fract_z
_atom_site_charge
Mof_Tb	Tb	0.96142	0.04354	0.10404	2.215
Mof_Tb	Tb	0.95646	0.03858	0.39596	2.229
Mof_Tb	Tb	0.03858	0.95646	0.89596	2.215
Mof_Tb	Tb	0.04354	0.96142	0.60404	2.229
Mof_H 	H 	0.0157	0.7131	0.2153	-0.009
Mof_H 	H 	0.0192	0.5578	0.245	0.091
Mof_H 	H 	0.0349	0.5559	0.0273	0.097
Mof_H 	H 	0.0307	0.7105	0.9976	-0.062
Mof_H 	H 	0.3495	0.9205	0.9071	-0.006
Mof_H 	H 	0.4948	0.9298	0.9091	0.078
Mof_H 	H 	0.3814	0.0474	0.096	0.08
Mof_H 	H 	0.2389	0.0297	0.0968	0.007
Mof_H 	H 	0.1063	0.2393	0.0917	-0.002
Mof_H 	H 	0.1143	0.3929	0.0628	0.076
Mof_H 	H 	0.9537	0.4453	0.2641	0.076
Mof_H 	H 	0.9429	0.2943	0.2925	-0.01
Mof_H 	H 	0.2869	0.9843	0.2847	-0.006
Mof_H 	H 	0.4422	0.9808	0.255	0.089
Mof_H 	H 	0.4441	0.9651	0.4727	0.091
Mof_H 	H 	0.2895	0.9693	0.5024	-0.049
Mof_H 	H 	0.0795	0.6505	0.5929	-0.008
Mof_H 	H 	0.0702	0.5052	0.5909	0.077
Mof_H 	H 	0.9526	0.6186	0.404	0.08
Mof_H 	H 	0.9703	0.7611	0.4032	0.005
Mof_H 	H 	0.7607	0.8937	0.4083	-0.003
Mof_H 	H 	0.6071	0.8857	0.4372	0.077
Mof_H 	H 	0.5547	0.0463	0.2359	0.077
Mof_H 	H 	0.7057	0.0571	0.2075	-0.011
Mof_H 	H 	0.9843	0.2869	0.7847	-0.009
Mof_H 	H 	0.9808	0.4422	0.755	0.091
Mof_H 	H 	0.9651	0.4441	0.9727	0.097
Mof_H 	H 	0.9693	0.2895	0.0024	-0.062
Mof_H 	H 	0.6505	0.0795	0.0929	-0.006
Mof_H 	H 	0.5052	0.0702	0.0909	0.078
Mof_H 	H 	0.6186	0.9526	0.904	0.08
Mof_H 	H 	0.7611	0.9703	0.9032	0.007
Mof_H 	H 	0.8937	0.7607	0.9083	-0.002
Mof_H 	H 	0.8857	0.6071	0.9372	0.076
Mof_H 	H 	0.0463	0.5547	0.7359	0.076
Mof_H 	H 	0.0571	0.7057	0.7075	-0.01
Mof_H 	H 	0.7131	0.0157	0.7153	-0.006
Mof_H 	H 	0.5578	0.0192	0.745	0.089
Mof_H 	H 	0.5559	0.0349	0.5273	0.091
Mof_H 	H 	0.7105	0.0307	0.4976	-0.049
Mof_H 	H 	0.9205	0.3495	0.4071	-0.008
Mof_H 	H 	0.9298	0.4948	0.4091	0.077
Mof_H 	H 	0.0474	0.3814	0.596	0.08
Mof_H 	H 	0.0297	0.2389	0.5968	0.005
Mof_H 	H 	0.2393	0.1063	0.5917	-0.003
Mof_H 	H 	0.3929	0.1143	0.5628	0.077
Mof_H 	H 	0.4453	0.9537	0.7641	0.077
Mof_H 	H 	0.2943	0.9429	0.7925	-0.011
Mof_C 	C 	0.0083	0.8333	0.0845	0.542
Mof_C 	C 	0.0172	0.7304	0.1031	-0.263
Mof_C 	C 	0.0179	0.6819	0.1773	0.143
Mof_C 	C 	0.0216	0.5882	0.1947	-0.188
Mof_C 	C 	0.0289	0.5375	0.1401	0.094
Mof_C 	C 	0.0308	0.5872	0.0657	-0.212
Mof_C 	C 	0.0268	0.6804	0.0479	0.18
Mof_C 	C 	0.18213	0.96853	0.0003	0.546
Mof_C 	C 	0.2763	0.9765	0.001	-0.214
Mof_C 	C 	0.3556	0.9462	0.9456	0.103
Mof_C 	C 	0.4428	0.953	0.9459	-0.161
Mof_C 	C 	0.4538	0.9942	0.0003	0.069
Mof_C 	C 	0.3755	0.0219	0.0574	-0.157
Mof_C 	C 	0.2895	0.0119	0.0574	0.112
Mof_C 	C 	0.01466	0.15286	0.2128	0.544
Mof_C 	C 	0.0239	0.2497	0.1954	-0.217
Mof_C 	C 	0.0749	0.2807	0.1264	0.095
Mof_C 	C 	0.0795	0.3735	0.1088	-0.146
Mof_C 	C 	0.0329	0.4363	0.1588	0.051
Mof_C 	C 	0.9833	0.4045	0.2289	-0.152
Mof_C 	C 	0.9778	0.3134	0.2464	0.096
Mof_C 	C 	0.1667	0.9917	0.4155	0.535
Mof_C 	C 	0.2696	0.9828	0.3969	-0.251
Mof_C 	C 	0.3181	0.9821	0.3227	0.133
Mof_C 	C 	0.4118	0.9784	0.3053	-0.179
Mof_C 	C 	0.4625	0.9711	0.3599	0.085
Mof_C 	C 	0.4128	0.9692	0.4343	-0.196
Mof_C 	C 	0.3196	0.9732	0.4521	0.156
Mof_C 	C 	0.03147	0.81787	0.4997	0.542
Mof_C 	C 	0.0235	0.7237	0.499	-0.223
Mof_C 	C 	0.0538	0.6444	0.5544	0.111
Mof_C 	C 	0.047	0.5572	0.5541	-0.159
Mof_C 	C 	0.0058	0.5462	0.4997	0.064
Mof_C 	C 	0.9781	0.6245	0.4426	-0.155
Mof_C 	C 	0.9881	0.7105	0.4426	0.118
Mof_C 	C 	0.84714	0.98534	0.2872	0.544
Mof_C 	C 	0.7503	0.9761	0.3046	-0.22
Mof_C 	C 	0.7193	0.9251	0.3736	0.096
Mof_C 	C 	0.6265	0.9205	0.3912	-0.149
Mof_C 	C 	0.5637	0.9671	0.3412	0.053
Mof_C 	C 	0.5955	0.0167	0.2711	-0.153
Mof_C 	C 	0.6866	0.0222	0.2536	0.099
Mof_C 	C 	0.9917	0.1667	0.9155	0.542
Mof_C 	C 	0.9828	0.2696	0.8969	-0.263
Mof_C 	C 	0.9821	0.3181	0.8227	0.143
Mof_C 	C 	0.9784	0.4118	0.8053	-0.188
Mof_C 	C 	0.9711	0.4625	0.8599	0.094
Mof_C 	C 	0.9692	0.4128	0.9343	-0.212
Mof_C 	C 	0.9732	0.3196	0.9521	0.18
Mof_C 	C 	0.81787	0.03147	0.9997	0.546
Mof_C 	C 	0.7237	0.0235	0.999	-0.214
Mof_C 	C 	0.6444	0.0538	0.0544	0.103
Mof_C 	C 	0.5572	0.047	0.0541	-0.161
Mof_C 	C 	0.5462	0.0058	0.9997	0.069
Mof_C 	C 	0.6245	0.9781	0.9426	-0.157
Mof_C 	C 	0.7105	0.9881	0.9426	0.112
Mof_C 	C 	0.98534	0.84714	0.7872	0.544
Mof_C 	C 	0.9761	0.7503	0.8046	-0.217
Mof_C 	C 	0.9251	0.7193	0.8736	0.095
Mof_C 	C 	0.9205	0.6265	0.8912	-0.146
Mof_C 	C 	0.9671	0.5637	0.8412	0.051
Mof_C 	C 	0.0167	0.5955	0.7711	-0.152
Mof_C 	C 	0.0222	0.6866	0.7536	0.096
Mof_C 	C 	0.8333	0.0083	0.5845	0.535
Mof_C 	C 	0.7304	0.0172	0.6031	-0.251
Mof_C 	C 	0.6819	0.0179	0.6773	0.133
Mof_C 	C 	0.5882	0.0216	0.6947	-0.179
Mof_C 	C 	0.5375	0.0289	0.6401	0.085
Mof_C 	C 	0.5872	0.0308	0.5657	-0.196
Mof_C 	C 	0.6804	0.0268	0.5479	0.156
Mof_C 	C 	0.96853	0.18213	0.5003	0.542
Mof_C 	C 	0.9765	0.2763	0.501	-0.223
Mof_C 	C 	0.9462	0.3556	0.4456	0.111
Mof_C 	C 	0.953	0.4428	0.4459	-0.159
Mof_C 	C 	0.9942	0.4538	0.5003	0.064
Mof_C 	C 	0.0219	0.3755	0.5574	-0.155
Mof_C 	C 	0.0119	0.2895	0.5574	0.118
Mof_C 	C 	0.15286	0.01466	0.7128	0.544
Mof_C 	C 	0.2497	0.0239	0.6954	-0.22
Mof_C 	C 	0.2807	0.0749	0.6264	0.096
Mof_C 	C 	0.3735	0.0795	0.6088	-0.149
Mof_C 	C 	0.4363	0.0329	0.6588	0.053
Mof_C 	C 	0.4045	0.9833	0.7289	-0.153
Mof_C 	C 	0.3134	0.9778	0.7464	0.099
Mof_O 	O 	0.99061	0.87701	0.1376	-0.526
Mof_O 	O 	0.01114	0.87534	0.017	-0.634
Mof_O 	O 	0.12262	0.97522	0.0598	-0.57
Mof_O 	O 	0.16943	0.95643	0.9393	-0.585
Mof_O 	O 	0.04066	0.10446	0.1596	-0.566
Mof_O 	O 	0.97721	0.12721	0.2791	-0.616
Mof_O 	O 	0.12299	0.00939	0.3624	-0.523
Mof_O 	O 	0.12466	0.98886	0.483	-0.639
Mof_O 	O 	0.02478	0.87738	0.4402	-0.573
Mof_O 	O 	0.04357	0.83057	0.5607	-0.581
Mof_O 	O 	0.89554	0.95934	0.3404	-0.568
Mof_O 	O 	0.87279	0.02279	0.2209	-0.614
Mof_O 	O 	0.00939	0.12299	0.8624	-0.526
Mof_O 	O 	0.98886	0.12466	0.983	-0.634
Mof_O 	O 	0.87738	0.02478	0.9402	-0.57
Mof_O 	O 	0.83057	0.04357	0.0607	-0.585
Mof_O 	O 	0.95934	0.89554	0.8404	-0.566
Mof_O 	O 	0.02279	0.87279	0.7209	-0.616
Mof_O 	O 	0.87701	0.99061	0.6376	-0.523
Mof_O 	O 	0.87534	0.01114	0.517	-0.639
Mof_O 	O 	0.97522	0.12262	0.5598	-0.573
Mof_O 	O 	0.95643	0.16943	0.4393	-0.581
Mof_O 	O 	0.10446	0.04066	0.6596	-0.568
Mof_O 	O 	0.12721	0.97721	0.7791	-0.614
_end
