data_functionalizedCrystal
_audit_creation_method	'EQeq! by Chris Wilmer'
_symmetry_space_group_name_H-M	'P1'
_symmetry_Int_Tables_number	1
_symmetry_cell_setting	triclinic
loop_
_symmetry_equiv_pos_as_xyz
  x,y,z
_cell_length_a	55.0575
_cell_length_b	55.0575
_cell_length_c	55.0575
_cell_angle_alpha	90
_cell_angle_beta	90
_cell_angle_gamma	90
loop_
_atom_site_label
_atom_site_type_symbol
_atom_site_fract_x
_atom_site_fract_y
_atom_site_fract_z
_atom_site_charge
Mof_C 	C 	0.70391	0.67476	0.42305	0.07
Mof_H 	H 	0.7111	0.6609	0.4157	0.031
Mof_C 	C 	0.71373	0.68453	0.44306	-0.149
Mof_H 	H 	0.7287	0.6783	0.449	0.088
Mof_O 	O 	0.6538	0.68188	0.38157	-0.19
Mof_C 	C 	0.70391	0.17476	0.92305	0.07
Mof_H 	H 	0.7111	0.1609	0.9157	0.031
Mof_C 	C 	0.71373	0.18453	0.94306	-0.149
Mof_H 	H 	0.7287	0.1783	0.949	0.088
Mof_O 	O 	0.6538	0.18188	0.88157	-0.19
Mof_C 	C 	0.20391	0.67476	0.92305	0.07
Mof_H 	H 	0.2111	0.6609	0.9157	0.031
Mof_C 	C 	0.21373	0.68453	0.94306	-0.149
Mof_H 	H 	0.2287	0.6783	0.949	0.088
Mof_O 	O 	0.1538	0.68188	0.88157	-0.19
Mof_C 	C 	0.20391	0.17476	0.42305	0.07
Mof_H 	H 	0.2111	0.1609	0.4157	0.031
Mof_C 	C 	0.21373	0.18453	0.44306	-0.149
Mof_H 	H 	0.2287	0.1783	0.449	0.088
Mof_O 	O 	0.1538	0.18188	0.38157	-0.19
Mof_C 	C 	0.29609	0.32524	0.42305	0.07
Mof_H 	H 	0.2889	0.3391	0.4157	0.031
Mof_C 	C 	0.28627	0.31547	0.44306	-0.149
Mof_H 	H 	0.2713	0.3217	0.449	0.088
Mof_O 	O 	0.3462	0.31812	0.38157	-0.19
Mof_C 	C 	0.29609	0.82524	0.92305	0.07
Mof_H 	H 	0.2889	0.8391	0.9157	0.031
Mof_C 	C 	0.28627	0.81547	0.94306	-0.149
Mof_H 	H 	0.2713	0.8217	0.949	0.088
Mof_O 	O 	0.3462	0.81812	0.88157	-0.19
Mof_C 	C 	0.79609	0.32524	0.92305	0.07
Mof_H 	H 	0.7889	0.3391	0.9157	0.031
Mof_C 	C 	0.78627	0.31547	0.94306	-0.149
Mof_H 	H 	0.7713	0.3217	0.949	0.088
Mof_O 	O 	0.8462	0.31812	0.88157	-0.19
Mof_C 	C 	0.79609	0.82524	0.42305	0.07
Mof_H 	H 	0.7889	0.8391	0.4157	0.031
Mof_C 	C 	0.78627	0.81547	0.44306	-0.149
Mof_H 	H 	0.7713	0.8217	0.449	0.088
Mof_O 	O 	0.8462	0.81812	0.38157	-0.19
Mof_C 	C 	0.29609	0.67476	0.57695	0.07
Mof_H 	H 	0.2889	0.6609	0.5843	0.031
Mof_C 	C 	0.28627	0.68453	0.55694	-0.149
Mof_H 	H 	0.2713	0.6783	0.551	0.088
Mof_O 	O 	0.3462	0.68188	0.61843	-0.19
Mof_C 	C 	0.29609	0.17476	0.07695	0.07
Mof_H 	H 	0.2889	0.1609	0.0843	0.031
Mof_C 	C 	0.28627	0.18453	0.05694	-0.149
Mof_H 	H 	0.2713	0.1783	0.051	0.088
Mof_O 	O 	0.3462	0.18188	0.11843	-0.19
Mof_C 	C 	0.79609	0.67476	0.07695	0.07
Mof_H 	H 	0.7889	0.6609	0.0843	0.031
Mof_C 	C 	0.78627	0.68453	0.05694	-0.149
Mof_H 	H 	0.7713	0.6783	0.051	0.088
Mof_O 	O 	0.8462	0.68188	0.11843	-0.19
Mof_C 	C 	0.79609	0.17476	0.57695	0.07
Mof_H 	H 	0.7889	0.1609	0.5843	0.031
Mof_C 	C 	0.78627	0.18453	0.55694	-0.149
Mof_H 	H 	0.7713	0.1783	0.551	0.088
Mof_O 	O 	0.8462	0.18188	0.61843	-0.19
Mof_C 	C 	0.70391	0.32524	0.57695	0.07
Mof_H 	H 	0.7111	0.3391	0.5843	0.031
Mof_C 	C 	0.71373	0.31547	0.55694	-0.149
Mof_H 	H 	0.7287	0.3217	0.551	0.088
Mof_O 	O 	0.6538	0.31812	0.61843	-0.19
Mof_C 	C 	0.70391	0.82524	0.07695	0.07
Mof_H 	H 	0.7111	0.8391	0.0843	0.031
Mof_C 	C 	0.71373	0.81547	0.05694	-0.149
Mof_H 	H 	0.7287	0.8217	0.051	0.088
Mof_O 	O 	0.6538	0.81812	0.11843	-0.19
Mof_C 	C 	0.20391	0.32524	0.07695	0.07
Mof_H 	H 	0.2111	0.3391	0.0843	0.031
Mof_C 	C 	0.21373	0.31547	0.05694	-0.149
Mof_H 	H 	0.2287	0.3217	0.051	0.088
Mof_O 	O 	0.1538	0.31812	0.11843	-0.19
Mof_C 	C 	0.20391	0.82524	0.57695	0.07
Mof_H 	H 	0.2111	0.8391	0.5843	0.031
Mof_C 	C 	0.21373	0.81547	0.55694	-0.149
Mof_H 	H 	0.2287	0.8217	0.551	0.088
Mof_O 	O 	0.1538	0.81812	0.61843	-0.19
Mof_C 	C 	0.42305	0.70391	0.67476	0.07
Mof_H 	H 	0.4157	0.7111	0.6609	0.031
Mof_C 	C 	0.44306	0.71373	0.68453	-0.149
Mof_H 	H 	0.449	0.7287	0.6783	0.088
Mof_O 	O 	0.38157	0.6538	0.68188	-0.19
Mof_C 	C 	0.42305	0.20391	0.17476	0.07
Mof_H 	H 	0.4157	0.2111	0.1609	0.031
Mof_C 	C 	0.44306	0.21373	0.18453	-0.149
Mof_H 	H 	0.449	0.2287	0.1783	0.088
Mof_O 	O 	0.38157	0.1538	0.18188	-0.19
Mof_C 	C 	0.92305	0.70391	0.17476	0.07
Mof_H 	H 	0.9157	0.7111	0.1609	0.031
Mof_C 	C 	0.94306	0.71373	0.18453	-0.149
Mof_H 	H 	0.949	0.7287	0.1783	0.088
Mof_O 	O 	0.88157	0.6538	0.18188	-0.19
Mof_C 	C 	0.92305	0.20391	0.67476	0.07
Mof_H 	H 	0.9157	0.2111	0.6609	0.031
Mof_C 	C 	0.94306	0.21373	0.68453	-0.149
Mof_H 	H 	0.949	0.2287	0.6783	0.088
Mof_O 	O 	0.88157	0.1538	0.68188	-0.19
Mof_C 	C 	0.42305	0.29609	0.32524	0.07
Mof_H 	H 	0.4157	0.2889	0.3391	0.031
Mof_C 	C 	0.44306	0.28627	0.31547	-0.149
Mof_H 	H 	0.449	0.2713	0.3217	0.088
Mof_O 	O 	0.38157	0.3462	0.31812	-0.19
Mof_C 	C 	0.42305	0.79609	0.82524	0.07
Mof_H 	H 	0.4157	0.7889	0.8391	0.031
Mof_C 	C 	0.44306	0.78627	0.81547	-0.149
Mof_H 	H 	0.449	0.7713	0.8217	0.088
Mof_O 	O 	0.38157	0.8462	0.81812	-0.19
Mof_C 	C 	0.92305	0.29609	0.82524	0.07
Mof_H 	H 	0.9157	0.2889	0.8391	0.031
Mof_C 	C 	0.94306	0.28627	0.81547	-0.149
Mof_H 	H 	0.949	0.2713	0.8217	0.088
Mof_O 	O 	0.88157	0.3462	0.81812	-0.19
Mof_C 	C 	0.92305	0.79609	0.32524	0.07
Mof_H 	H 	0.9157	0.7889	0.3391	0.031
Mof_C 	C 	0.94306	0.78627	0.31547	-0.149
Mof_H 	H 	0.949	0.7713	0.3217	0.088
Mof_O 	O 	0.88157	0.8462	0.31812	-0.19
Mof_C 	C 	0.57695	0.29609	0.67476	0.07
Mof_H 	H 	0.5843	0.2889	0.6609	0.031
Mof_C 	C 	0.55694	0.28627	0.68453	-0.149
Mof_H 	H 	0.551	0.2713	0.6783	0.088
Mof_O 	O 	0.61843	0.3462	0.68188	-0.19
Mof_C 	C 	0.57695	0.79609	0.17476	0.07
Mof_H 	H 	0.5843	0.7889	0.1609	0.031
Mof_C 	C 	0.55694	0.78627	0.18453	-0.149
Mof_H 	H 	0.551	0.7713	0.1783	0.088
Mof_O 	O 	0.61843	0.8462	0.18188	-0.19
Mof_C 	C 	0.07695	0.29609	0.17476	0.07
Mof_H 	H 	0.0843	0.2889	0.1609	0.031
Mof_C 	C 	0.05694	0.28627	0.18453	-0.149
Mof_H 	H 	0.051	0.2713	0.1783	0.088
Mof_O 	O 	0.11843	0.3462	0.18188	-0.19
Mof_C 	C 	0.07695	0.79609	0.67476	0.07
Mof_H 	H 	0.0843	0.7889	0.6609	0.031
Mof_C 	C 	0.05694	0.78627	0.68453	-0.149
Mof_H 	H 	0.051	0.7713	0.6783	0.088
Mof_O 	O 	0.11843	0.8462	0.68188	-0.19
Mof_C 	C 	0.57695	0.70391	0.32524	0.07
Mof_H 	H 	0.5843	0.7111	0.3391	0.031
Mof_C 	C 	0.55694	0.71373	0.31547	-0.149
Mof_H 	H 	0.551	0.7287	0.3217	0.088
Mof_O 	O 	0.61843	0.6538	0.31812	-0.19
Mof_C 	C 	0.57695	0.20391	0.82524	0.07
Mof_H 	H 	0.5843	0.2111	0.8391	0.031
Mof_C 	C 	0.55694	0.21373	0.81547	-0.149
Mof_H 	H 	0.551	0.2287	0.8217	0.088
Mof_O 	O 	0.61843	0.1538	0.81812	-0.19
Mof_C 	C 	0.07695	0.70391	0.82524	0.07
Mof_H 	H 	0.0843	0.7111	0.8391	0.031
Mof_C 	C 	0.05694	0.71373	0.81547	-0.149
Mof_H 	H 	0.051	0.7287	0.8217	0.088
Mof_O 	O 	0.11843	0.6538	0.81812	-0.19
Mof_C 	C 	0.07695	0.20391	0.32524	0.07
Mof_H 	H 	0.0843	0.2111	0.3391	0.031
Mof_C 	C 	0.05694	0.21373	0.31547	-0.149
Mof_H 	H 	0.051	0.2287	0.3217	0.088
Mof_O 	O 	0.11843	0.1538	0.31812	-0.19
Mof_C 	C 	0.67476	0.42305	0.70391	0.07
Mof_H 	H 	0.6609	0.4157	0.7111	0.031
Mof_C 	C 	0.68453	0.44306	0.71373	-0.149
Mof_H 	H 	0.6783	0.449	0.7287	0.088
Mof_O 	O 	0.68188	0.38157	0.6538	-0.19
Mof_C 	C 	0.67476	0.92305	0.20391	0.07
Mof_H 	H 	0.6609	0.9157	0.2111	0.031
Mof_C 	C 	0.68453	0.94306	0.21373	-0.149
Mof_H 	H 	0.6783	0.949	0.2287	0.088
Mof_O 	O 	0.68188	0.88157	0.1538	-0.19
Mof_C 	C 	0.17476	0.42305	0.20391	0.07
Mof_H 	H 	0.1609	0.4157	0.2111	0.031
Mof_C 	C 	0.18453	0.44306	0.21373	-0.149
Mof_H 	H 	0.1783	0.449	0.2287	0.088
Mof_O 	O 	0.18188	0.38157	0.1538	-0.19
Mof_C 	C 	0.17476	0.92305	0.70391	0.07
Mof_H 	H 	0.1609	0.9157	0.7111	0.031
Mof_C 	C 	0.18453	0.94306	0.71373	-0.149
Mof_H 	H 	0.1783	0.949	0.7287	0.088
Mof_O 	O 	0.18188	0.88157	0.6538	-0.19
Mof_C 	C 	0.32524	0.42305	0.29609	0.07
Mof_H 	H 	0.3391	0.4157	0.2889	0.031
Mof_C 	C 	0.31547	0.44306	0.28627	-0.149
Mof_H 	H 	0.3217	0.449	0.2713	0.088
Mof_O 	O 	0.31812	0.38157	0.3462	-0.19
Mof_C 	C 	0.32524	0.92305	0.79609	0.07
Mof_H 	H 	0.3391	0.9157	0.7889	0.031
Mof_C 	C 	0.31547	0.94306	0.78627	-0.149
Mof_H 	H 	0.3217	0.949	0.7713	0.088
Mof_O 	O 	0.31812	0.88157	0.8462	-0.19
Mof_C 	C 	0.82524	0.42305	0.79609	0.07
Mof_H 	H 	0.8391	0.4157	0.7889	0.031
Mof_C 	C 	0.81547	0.44306	0.78627	-0.149
Mof_H 	H 	0.8217	0.449	0.7713	0.088
Mof_O 	O 	0.81812	0.38157	0.8462	-0.19
Mof_C 	C 	0.82524	0.92305	0.29609	0.07
Mof_H 	H 	0.8391	0.9157	0.2889	0.031
Mof_C 	C 	0.81547	0.94306	0.28627	-0.149
Mof_H 	H 	0.8217	0.949	0.2713	0.088
Mof_O 	O 	0.81812	0.88157	0.3462	-0.19
Mof_C 	C 	0.67476	0.57695	0.29609	0.07
Mof_H 	H 	0.6609	0.5843	0.2889	0.031
Mof_C 	C 	0.68453	0.55694	0.28627	-0.149
Mof_H 	H 	0.6783	0.551	0.2713	0.088
Mof_O 	O 	0.68188	0.61843	0.3462	-0.19
Mof_C 	C 	0.67476	0.07695	0.79609	0.07
Mof_H 	H 	0.6609	0.0843	0.7889	0.031
Mof_C 	C 	0.68453	0.05694	0.78627	-0.149
Mof_H 	H 	0.6783	0.051	0.7713	0.088
Mof_O 	O 	0.68188	0.11843	0.8462	-0.19
Mof_C 	C 	0.17476	0.57695	0.79609	0.07
Mof_H 	H 	0.1609	0.5843	0.7889	0.031
Mof_C 	C 	0.18453	0.55694	0.78627	-0.149
Mof_H 	H 	0.1783	0.551	0.7713	0.088
Mof_O 	O 	0.18188	0.61843	0.8462	-0.19
Mof_C 	C 	0.17476	0.07695	0.29609	0.07
Mof_H 	H 	0.1609	0.0843	0.2889	0.031
Mof_C 	C 	0.18453	0.05694	0.28627	-0.149
Mof_H 	H 	0.1783	0.051	0.2713	0.088
Mof_O 	O 	0.18188	0.11843	0.3462	-0.19
Mof_C 	C 	0.32524	0.57695	0.70391	0.07
Mof_H 	H 	0.3391	0.5843	0.7111	0.031
Mof_C 	C 	0.31547	0.55694	0.71373	-0.149
Mof_H 	H 	0.3217	0.551	0.7287	0.088
Mof_O 	O 	0.31812	0.61843	0.6538	-0.19
Mof_C 	C 	0.32524	0.07695	0.20391	0.07
Mof_H 	H 	0.3391	0.0843	0.2111	0.031
Mof_C 	C 	0.31547	0.05694	0.21373	-0.149
Mof_H 	H 	0.3217	0.051	0.2287	0.088
Mof_O 	O 	0.31812	0.11843	0.1538	-0.19
Mof_C 	C 	0.82524	0.57695	0.20391	0.07
Mof_H 	H 	0.8391	0.5843	0.2111	0.031
Mof_C 	C 	0.81547	0.55694	0.21373	-0.149
Mof_H 	H 	0.8217	0.551	0.2287	0.088
Mof_O 	O 	0.81812	0.61843	0.1538	-0.19
Mof_C 	C 	0.82524	0.07695	0.70391	0.07
Mof_H 	H 	0.8391	0.0843	0.7111	0.031
Mof_C 	C 	0.81547	0.05694	0.71373	-0.149
Mof_H 	H 	0.8217	0.051	0.7287	0.088
Mof_O 	O 	0.81812	0.11843	0.6538	-0.19
Mof_C 	C 	0.67476	0.70391	0.57695	0.07
Mof_H 	H 	0.6609	0.7111	0.5843	0.031
Mof_C 	C 	0.68453	0.71373	0.55694	-0.149
Mof_H 	H 	0.6783	0.7287	0.551	0.088
Mof_O 	O 	0.68188	0.6538	0.61843	-0.19
Mof_C 	C 	0.67476	0.20391	0.07695	0.07
Mof_H 	H 	0.6609	0.2111	0.0843	0.031
Mof_C 	C 	0.68453	0.21373	0.05694	-0.149
Mof_H 	H 	0.6783	0.2287	0.051	0.088
Mof_O 	O 	0.68188	0.1538	0.11843	-0.19
Mof_C 	C 	0.17476	0.70391	0.07695	0.07
Mof_H 	H 	0.1609	0.7111	0.0843	0.031
Mof_C 	C 	0.18453	0.71373	0.05694	-0.149
Mof_H 	H 	0.1783	0.7287	0.051	0.088
Mof_O 	O 	0.18188	0.6538	0.11843	-0.19
Mof_C 	C 	0.17476	0.20391	0.57695	0.07
Mof_H 	H 	0.1609	0.2111	0.5843	0.031
Mof_C 	C 	0.18453	0.21373	0.55694	-0.149
Mof_H 	H 	0.1783	0.2287	0.551	0.088
Mof_O 	O 	0.18188	0.1538	0.61843	-0.19
Mof_C 	C 	0.32524	0.29609	0.57695	0.07
Mof_H 	H 	0.3391	0.2889	0.5843	0.031
Mof_C 	C 	0.31547	0.28627	0.55694	-0.149
Mof_H 	H 	0.3217	0.2713	0.551	0.088
Mof_O 	O 	0.31812	0.3462	0.61843	-0.19
Mof_C 	C 	0.32524	0.79609	0.07695	0.07
Mof_H 	H 	0.3391	0.7889	0.0843	0.031
Mof_C 	C 	0.31547	0.78627	0.05694	-0.149
Mof_H 	H 	0.3217	0.7713	0.051	0.088
Mof_O 	O 	0.31812	0.8462	0.11843	-0.19
Mof_C 	C 	0.82524	0.29609	0.07695	0.07
Mof_H 	H 	0.8391	0.2889	0.0843	0.031
Mof_C 	C 	0.81547	0.28627	0.05694	-0.149
Mof_H 	H 	0.8217	0.2713	0.051	0.088
Mof_O 	O 	0.81812	0.3462	0.11843	-0.19
Mof_C 	C 	0.82524	0.79609	0.57695	0.07
Mof_H 	H 	0.8391	0.7889	0.5843	0.031
Mof_C 	C 	0.81547	0.78627	0.55694	-0.149
Mof_H 	H 	0.8217	0.7713	0.551	0.088
Mof_O 	O 	0.81812	0.8462	0.61843	-0.19
Mof_C 	C 	0.67476	0.29609	0.42305	0.07
Mof_H 	H 	0.6609	0.2889	0.4157	0.031
Mof_C 	C 	0.68453	0.28627	0.44306	-0.149
Mof_H 	H 	0.6783	0.2713	0.449	0.088
Mof_O 	O 	0.68188	0.3462	0.38157	-0.19
Mof_C 	C 	0.67476	0.79609	0.92305	0.07
Mof_H 	H 	0.6609	0.7889	0.9157	0.031
Mof_C 	C 	0.68453	0.78627	0.94306	-0.149
Mof_H 	H 	0.6783	0.7713	0.949	0.089
Mof_O 	O 	0.68188	0.8462	0.88157	-0.189
Mof_C 	C 	0.17476	0.29609	0.92305	0.071
Mof_H 	H 	0.1609	0.2889	0.9157	0.032
Mof_C 	C 	0.18453	0.28627	0.94306	-0.148
Mof_H 	H 	0.1783	0.2713	0.949	0.089
Mof_O 	O 	0.18188	0.3462	0.88157	-0.189
Mof_C 	C 	0.17476	0.79609	0.42305	0.071
Mof_H 	H 	0.1609	0.7889	0.4157	0.032
Mof_C 	C 	0.18453	0.78627	0.44306	-0.148
Mof_H 	H 	0.1783	0.7713	0.449	0.089
Mof_O 	O 	0.18188	0.8462	0.38157	-0.189
Mof_C 	C 	0.32524	0.70391	0.42305	0.071
Mof_H 	H 	0.3391	0.7111	0.4157	0.032
Mof_C 	C 	0.31547	0.71373	0.44306	-0.148
Mof_H 	H 	0.3217	0.7287	0.449	0.089
Mof_O 	O 	0.31812	0.6538	0.38157	-0.189
Mof_C 	C 	0.32524	0.20391	0.92305	0.071
Mof_H 	H 	0.3391	0.2111	0.9157	0.032
Mof_C 	C 	0.31547	0.21373	0.94306	-0.148
Mof_H 	H 	0.3217	0.2287	0.949	0.089
Mof_O 	O 	0.31812	0.1538	0.88157	-0.189
Mof_C 	C 	0.82524	0.70391	0.92305	0.071
Mof_H 	H 	0.8391	0.7111	0.9157	0.032
Mof_C 	C 	0.81547	0.71373	0.94306	-0.148
Mof_H 	H 	0.8217	0.7287	0.949	0.089
Mof_O 	O 	0.81812	0.6538	0.88157	-0.189
Mof_C 	C 	0.82524	0.20391	0.42305	0.071
Mof_H 	H 	0.8391	0.2111	0.4157	0.032
Mof_C 	C 	0.81547	0.21373	0.44306	-0.148
Mof_H 	H 	0.8217	0.2287	0.449	0.089
Mof_O 	O 	0.81812	0.1538	0.38157	-0.189
Mof_C 	C 	0.70391	0.42305	0.32524	0.071
Mof_H 	H 	0.7111	0.4157	0.3391	0.032
Mof_C 	C 	0.71373	0.44306	0.31547	-0.148
Mof_H 	H 	0.7287	0.449	0.3217	0.089
Mof_O 	O 	0.6538	0.38157	0.31812	-0.189
Mof_C 	C 	0.70391	0.92305	0.82524	0.071
Mof_H 	H 	0.7111	0.9157	0.8391	0.032
Mof_C 	C 	0.71373	0.94306	0.81547	-0.148
Mof_H 	H 	0.7287	0.949	0.8217	0.089
Mof_O 	O 	0.6538	0.88157	0.81812	-0.189
Mof_C 	C 	0.20391	0.42305	0.82524	0.071
Mof_H 	H 	0.2111	0.4157	0.8391	0.032
Mof_C 	C 	0.21373	0.44306	0.81547	-0.148
Mof_H 	H 	0.2287	0.449	0.8217	0.089
Mof_O 	O 	0.1538	0.38157	0.81812	-0.189
Mof_C 	C 	0.20391	0.92305	0.32524	0.071
Mof_H 	H 	0.2111	0.9157	0.3391	0.032
Mof_C 	C 	0.21373	0.94306	0.31547	-0.148
Mof_H 	H 	0.2287	0.949	0.3217	0.089
Mof_O 	O 	0.1538	0.88157	0.31812	-0.189
Mof_C 	C 	0.29609	0.42305	0.67476	0.071
Mof_H 	H 	0.2889	0.4157	0.6609	0.032
Mof_C 	C 	0.28627	0.44306	0.68453	-0.148
Mof_H 	H 	0.2713	0.449	0.6783	0.089
Mof_O 	O 	0.3462	0.38157	0.68188	-0.189
Mof_C 	C 	0.29609	0.92305	0.17476	0.071
Mof_H 	H 	0.2889	0.9157	0.1609	0.032
Mof_C 	C 	0.28627	0.94306	0.18453	-0.148
Mof_H 	H 	0.2713	0.949	0.1783	0.089
Mof_O 	O 	0.3462	0.88157	0.18188	-0.189
Mof_C 	C 	0.79609	0.42305	0.17476	0.071
Mof_H 	H 	0.7889	0.4157	0.1609	0.032
Mof_C 	C 	0.78627	0.44306	0.18453	-0.148
Mof_H 	H 	0.7713	0.449	0.1783	0.089
Mof_O 	O 	0.8462	0.38157	0.18188	-0.189
Mof_C 	C 	0.79609	0.92305	0.67476	0.071
Mof_H 	H 	0.7889	0.9157	0.6609	0.032
Mof_C 	C 	0.78627	0.94306	0.68453	-0.148
Mof_H 	H 	0.7713	0.949	0.6783	0.089
Mof_O 	O 	0.8462	0.88157	0.68188	-0.189
Mof_C 	C 	0.29609	0.57695	0.32524	0.071
Mof_H 	H 	0.2889	0.5843	0.3391	0.032
Mof_C 	C 	0.28627	0.55694	0.31547	-0.148
Mof_H 	H 	0.2713	0.551	0.3217	0.089
Mof_O 	O 	0.3462	0.61843	0.31812	-0.189
Mof_C 	C 	0.29609	0.07695	0.82524	0.071
Mof_H 	H 	0.2889	0.0843	0.8391	0.032
Mof_C 	C 	0.28627	0.05694	0.81547	-0.148
Mof_H 	H 	0.2713	0.051	0.8217	0.089
Mof_O 	O 	0.3462	0.11843	0.81812	-0.189
Mof_C 	C 	0.79609	0.57695	0.82524	0.071
Mof_H 	H 	0.7889	0.5843	0.8391	0.032
Mof_C 	C 	0.78627	0.55694	0.81547	-0.148
Mof_H 	H 	0.7713	0.551	0.8217	0.089
Mof_O 	O 	0.8462	0.61843	0.81812	-0.189
Mof_C 	C 	0.79609	0.07695	0.32524	0.071
Mof_H 	H 	0.7889	0.0843	0.3391	0.032
Mof_C 	C 	0.78627	0.05694	0.31547	-0.148
Mof_H 	H 	0.7713	0.051	0.3217	0.089
Mof_O 	O 	0.8462	0.11843	0.31812	-0.189
Mof_C 	C 	0.70391	0.57695	0.67476	0.071
Mof_H 	H 	0.7111	0.5843	0.6609	0.032
Mof_C 	C 	0.71373	0.55694	0.68453	-0.148
Mof_H 	H 	0.7287	0.551	0.6783	0.089
Mof_O 	O 	0.6538	0.61843	0.68188	-0.189
Mof_C 	C 	0.70391	0.07695	0.17476	0.071
Mof_H 	H 	0.7111	0.0843	0.1609	0.032
Mof_C 	C 	0.71373	0.05694	0.18453	-0.148
Mof_H 	H 	0.7287	0.051	0.1783	0.089
Mof_O 	O 	0.6538	0.11843	0.18188	-0.189
Mof_C 	C 	0.20391	0.57695	0.17476	0.071
Mof_H 	H 	0.2111	0.5843	0.1609	0.032
Mof_C 	C 	0.21373	0.55694	0.18453	-0.148
Mof_H 	H 	0.2287	0.551	0.1783	0.089
Mof_O 	O 	0.1538	0.61843	0.18188	-0.189
Mof_C 	C 	0.20391	0.07695	0.67476	0.071
Mof_H 	H 	0.2111	0.0843	0.6609	0.032
Mof_C 	C 	0.21373	0.05694	0.68453	-0.148
Mof_H 	H 	0.2287	0.051	0.6783	0.089
Mof_O 	O 	0.1538	0.11843	0.68188	-0.189
Mof_C 	C 	0.42305	0.67476	0.29609	0.071
Mof_H 	H 	0.4157	0.6609	0.2889	0.032
Mof_C 	C 	0.44306	0.68453	0.28627	-0.148
Mof_H 	H 	0.449	0.6783	0.2713	0.089
Mof_O 	O 	0.38157	0.68188	0.3462	-0.189
Mof_C 	C 	0.42305	0.17476	0.79609	0.071
Mof_H 	H 	0.4157	0.1609	0.7889	0.032
Mof_C 	C 	0.44306	0.18453	0.78627	-0.148
Mof_H 	H 	0.449	0.1783	0.7713	0.089
Mof_O 	O 	0.38157	0.18188	0.8462	-0.189
Mof_C 	C 	0.92305	0.67476	0.79609	0.071
Mof_H 	H 	0.9157	0.6609	0.7889	0.032
Mof_C 	C 	0.94306	0.68453	0.78627	-0.148
Mof_H 	H 	0.949	0.6783	0.7713	0.089
Mof_O 	O 	0.88157	0.68188	0.8462	-0.189
Mof_C 	C 	0.92305	0.17476	0.29609	0.071
Mof_H 	H 	0.9157	0.1609	0.2889	0.032
Mof_C 	C 	0.94306	0.18453	0.28627	-0.148
Mof_H 	H 	0.949	0.1783	0.2713	0.089
Mof_O 	O 	0.88157	0.18188	0.3462	-0.189
Mof_C 	C 	0.42305	0.32524	0.70391	0.071
Mof_H 	H 	0.4157	0.3391	0.7111	0.032
Mof_C 	C 	0.44306	0.31547	0.71373	-0.148
Mof_H 	H 	0.449	0.3217	0.7287	0.089
Mof_O 	O 	0.38157	0.31812	0.6538	-0.189
Mof_C 	C 	0.42305	0.82524	0.20391	0.071
Mof_H 	H 	0.4157	0.8391	0.2111	0.032
Mof_C 	C 	0.44306	0.81547	0.21373	-0.148
Mof_H 	H 	0.449	0.8217	0.2287	0.089
Mof_O 	O 	0.38157	0.81812	0.1538	-0.189
Mof_C 	C 	0.92305	0.32524	0.20391	0.071
Mof_H 	H 	0.9157	0.3391	0.2111	0.032
Mof_C 	C 	0.94306	0.31547	0.21373	-0.148
Mof_H 	H 	0.949	0.3217	0.2287	0.089
Mof_O 	O 	0.88157	0.31812	0.1538	-0.189
Mof_C 	C 	0.92305	0.82524	0.70391	0.071
Mof_H 	H 	0.9157	0.8391	0.7111	0.032
Mof_C 	C 	0.94306	0.81547	0.71373	-0.148
Mof_H 	H 	0.949	0.8217	0.7287	0.089
Mof_O 	O 	0.88157	0.81812	0.6538	-0.189
Mof_C 	C 	0.57695	0.67476	0.70391	0.071
Mof_H 	H 	0.5843	0.6609	0.7111	0.032
Mof_C 	C 	0.55694	0.68453	0.71373	-0.148
Mof_H 	H 	0.551	0.6783	0.7287	0.089
Mof_O 	O 	0.61843	0.68188	0.6538	-0.189
Mof_C 	C 	0.57695	0.17476	0.20391	0.071
Mof_H 	H 	0.5843	0.1609	0.2111	0.032
Mof_C 	C 	0.55694	0.18453	0.21373	-0.148
Mof_H 	H 	0.551	0.1783	0.2287	0.089
Mof_O 	O 	0.61843	0.18188	0.1538	-0.189
Mof_C 	C 	0.07695	0.67476	0.20391	0.071
Mof_H 	H 	0.0843	0.6609	0.2111	0.032
Mof_C 	C 	0.05694	0.68453	0.21373	-0.148
Mof_H 	H 	0.051	0.6783	0.2287	0.089
Mof_O 	O 	0.11843	0.68188	0.1538	-0.189
Mof_C 	C 	0.07695	0.17476	0.70391	0.071
Mof_H 	H 	0.0843	0.1609	0.7111	0.032
Mof_C 	C 	0.05694	0.18453	0.71373	-0.148
Mof_H 	H 	0.051	0.1783	0.7287	0.089
Mof_O 	O 	0.11843	0.18188	0.6538	-0.189
Mof_C 	C 	0.57695	0.32524	0.29609	0.071
Mof_H 	H 	0.5843	0.3391	0.2889	0.032
Mof_C 	C 	0.55694	0.31547	0.28627	-0.148
Mof_H 	H 	0.551	0.3217	0.2713	0.089
Mof_O 	O 	0.61843	0.31812	0.3462	-0.189
Mof_C 	C 	0.57695	0.82524	0.79609	0.071
Mof_H 	H 	0.5843	0.8391	0.7889	0.032
Mof_C 	C 	0.55694	0.81547	0.78627	-0.148
Mof_H 	H 	0.551	0.8217	0.7713	0.089
Mof_O 	O 	0.61843	0.81812	0.8462	-0.189
Mof_C 	C 	0.07695	0.32524	0.79609	0.071
Mof_H 	H 	0.0843	0.3391	0.7889	0.032
Mof_C 	C 	0.05694	0.31547	0.78627	-0.148
Mof_H 	H 	0.051	0.3217	0.7713	0.089
Mof_O 	O 	0.11843	0.31812	0.8462	-0.189
Mof_C 	C 	0.07695	0.82524	0.29609	0.071
Mof_H 	H 	0.0843	0.8391	0.2889	0.032
Mof_C 	C 	0.05694	0.81547	0.28627	-0.148
Mof_H 	H 	0.051	0.8217	0.2713	0.089
Mof_O 	O 	0.11843	0.81812	0.3462	-0.189
Mof_C 	C 	0.29609	0.32524	0.57695	0.071
Mof_H 	H 	0.2889	0.3391	0.5843	0.032
Mof_C 	C 	0.28627	0.31547	0.55694	-0.148
Mof_H 	H 	0.2713	0.3217	0.551	0.089
Mof_O 	O 	0.3462	0.31812	0.61843	-0.189
Mof_C 	C 	0.29609	0.82524	0.07695	0.071
Mof_H 	H 	0.2889	0.8391	0.0843	0.032
Mof_C 	C 	0.28627	0.81547	0.05694	-0.148
Mof_H 	H 	0.2713	0.8217	0.051	0.089
Mof_O 	O 	0.3462	0.81812	0.11843	-0.189
Mof_C 	C 	0.79609	0.32524	0.07695	0.071
Mof_H 	H 	0.7889	0.3391	0.0843	0.032
Mof_C 	C 	0.78627	0.31547	0.05694	-0.148
Mof_H 	H 	0.7713	0.3217	0.051	0.089
Mof_O 	O 	0.8462	0.31812	0.11843	-0.189
Mof_C 	C 	0.79609	0.82524	0.57695	0.071
Mof_H 	H 	0.7889	0.8391	0.5843	0.032
Mof_C 	C 	0.78627	0.81547	0.55694	-0.148
Mof_H 	H 	0.7713	0.8217	0.551	0.089
Mof_O 	O 	0.8462	0.81812	0.61843	-0.189
Mof_C 	C 	0.70391	0.67476	0.57695	0.071
Mof_H 	H 	0.7111	0.6609	0.5843	0.032
Mof_C 	C 	0.71373	0.68453	0.55694	-0.148
Mof_H 	H 	0.7287	0.6783	0.551	0.089
Mof_O 	O 	0.6538	0.68188	0.61843	-0.189
Mof_C 	C 	0.70391	0.17476	0.07695	0.071
Mof_H 	H 	0.7111	0.1609	0.0843	0.032
Mof_C 	C 	0.71373	0.18453	0.05694	-0.148
Mof_H 	H 	0.7287	0.1783	0.051	0.089
Mof_O 	O 	0.6538	0.18188	0.11843	-0.189
Mof_C 	C 	0.20391	0.67476	0.07695	0.071
Mof_H 	H 	0.2111	0.6609	0.0843	0.032
Mof_C 	C 	0.21373	0.68453	0.05694	-0.148
Mof_H 	H 	0.2287	0.6783	0.051	0.089
Mof_O 	O 	0.1538	0.68188	0.11843	-0.189
Mof_C 	C 	0.20391	0.17476	0.57695	0.071
Mof_H 	H 	0.2111	0.1609	0.5843	0.032
Mof_C 	C 	0.21373	0.18453	0.55694	-0.148
Mof_H 	H 	0.2287	0.1783	0.551	0.089
Mof_O 	O 	0.1538	0.18188	0.61843	-0.189
Mof_C 	C 	0.70391	0.32524	0.42305	0.071
Mof_H 	H 	0.7111	0.3391	0.4157	0.032
Mof_C 	C 	0.71373	0.31547	0.44306	-0.148
Mof_H 	H 	0.7287	0.3217	0.449	0.089
Mof_O 	O 	0.6538	0.31812	0.38157	-0.189
Mof_C 	C 	0.70391	0.82524	0.92305	0.071
Mof_H 	H 	0.7111	0.8391	0.9157	0.032
Mof_C 	C 	0.71373	0.81547	0.94306	-0.148
Mof_H 	H 	0.7287	0.8217	0.949	0.089
Mof_O 	O 	0.6538	0.81812	0.88157	-0.189
Mof_C 	C 	0.20391	0.32524	0.92305	0.071
Mof_H 	H 	0.2111	0.3391	0.9157	0.032
Mof_C 	C 	0.21373	0.31547	0.94306	-0.148
Mof_H 	H 	0.2287	0.3217	0.949	0.089
Mof_O 	O 	0.1538	0.31812	0.88157	-0.189
Mof_C 	C 	0.20391	0.82524	0.42305	0.071
Mof_H 	H 	0.2111	0.8391	0.4157	0.032
Mof_C 	C 	0.21373	0.81547	0.44306	-0.148
Mof_H 	H 	0.2287	0.8217	0.449	0.089
Mof_O 	O 	0.1538	0.81812	0.38157	-0.189
Mof_C 	C 	0.29609	0.67476	0.42305	0.071
Mof_H 	H 	0.2889	0.6609	0.4157	0.032
Mof_C 	C 	0.28627	0.68453	0.44306	-0.148
Mof_H 	H 	0.2713	0.6783	0.449	0.089
Mof_O 	O 	0.3462	0.68188	0.38157	-0.189
Mof_C 	C 	0.29609	0.17476	0.92305	0.071
Mof_H 	H 	0.2889	0.1609	0.9157	0.032
Mof_C 	C 	0.28627	0.18453	0.94306	-0.148
Mof_H 	H 	0.2713	0.1783	0.949	0.089
Mof_O 	O 	0.3462	0.18188	0.88157	-0.189
Mof_C 	C 	0.79609	0.67476	0.92305	0.071
Mof_H 	H 	0.7889	0.6609	0.9157	0.032
Mof_C 	C 	0.78627	0.68453	0.94306	-0.148
Mof_H 	H 	0.7713	0.6783	0.949	0.089
Mof_O 	O 	0.8462	0.68188	0.88157	-0.189
Mof_C 	C 	0.79609	0.17476	0.42305	0.071
Mof_H 	H 	0.7889	0.1609	0.4157	0.032
Mof_C 	C 	0.78627	0.18453	0.44306	-0.148
Mof_H 	H 	0.7713	0.1783	0.449	0.089
Mof_O 	O 	0.8462	0.18188	0.38157	-0.189
Mof_C 	C 	0.57695	0.29609	0.32524	0.071
Mof_H 	H 	0.5843	0.2889	0.3391	0.032
Mof_C 	C 	0.55694	0.28627	0.31547	-0.148
Mof_H 	H 	0.551	0.2713	0.3217	0.089
Mof_O 	O 	0.61843	0.3462	0.31812	-0.189
Mof_C 	C 	0.57695	0.79609	0.82524	0.071
Mof_H 	H 	0.5843	0.7889	0.8391	0.032
Mof_C 	C 	0.55694	0.78627	0.81547	-0.148
Mof_H 	H 	0.551	0.7713	0.8217	0.089
Mof_O 	O 	0.61843	0.8462	0.81812	-0.189
Mof_C 	C 	0.07695	0.29609	0.82524	0.071
Mof_H 	H 	0.0843	0.2889	0.8391	0.032
Mof_C 	C 	0.05694	0.28627	0.81547	-0.148
Mof_H 	H 	0.051	0.2713	0.8217	0.089
Mof_O 	O 	0.11843	0.3462	0.81812	-0.189
Mof_C 	C 	0.07695	0.79609	0.32524	0.071
Mof_H 	H 	0.0843	0.7889	0.3391	0.032
Mof_C 	C 	0.05694	0.78627	0.31547	-0.148
Mof_H 	H 	0.051	0.7713	0.3217	0.089
Mof_O 	O 	0.11843	0.8462	0.31812	-0.189
Mof_C 	C 	0.57695	0.70391	0.67476	0.071
Mof_H 	H 	0.5843	0.7111	0.6609	0.032
Mof_C 	C 	0.55694	0.71373	0.68453	-0.148
Mof_H 	H 	0.551	0.7287	0.6783	0.089
Mof_O 	O 	0.61843	0.6538	0.68188	-0.189
Mof_C 	C 	0.57695	0.20391	0.17476	0.071
Mof_H 	H 	0.5843	0.2111	0.1609	0.032
Mof_C 	C 	0.55694	0.21373	0.18453	-0.148
Mof_H 	H 	0.551	0.2287	0.1783	0.089
Mof_O 	O 	0.61843	0.1538	0.18188	-0.189
Mof_C 	C 	0.07695	0.70391	0.17476	0.071
Mof_H 	H 	0.0843	0.7111	0.1609	0.032
Mof_C 	C 	0.05694	0.71373	0.18453	-0.148
Mof_H 	H 	0.051	0.7287	0.1783	0.089
Mof_O 	O 	0.11843	0.6538	0.18188	-0.189
Mof_C 	C 	0.07695	0.20391	0.67476	0.071
Mof_H 	H 	0.0843	0.2111	0.6609	0.032
Mof_C 	C 	0.05694	0.21373	0.68453	-0.148
Mof_H 	H 	0.051	0.2287	0.6783	0.089
Mof_O 	O 	0.11843	0.1538	0.68188	-0.189
Mof_C 	C 	0.42305	0.70391	0.32524	0.071
Mof_H 	H 	0.4157	0.7111	0.3391	0.032
Mof_C 	C 	0.44306	0.71373	0.31547	-0.148
Mof_H 	H 	0.449	0.7287	0.3217	0.089
Mof_O 	O 	0.38157	0.6538	0.31812	-0.189
Mof_C 	C 	0.42305	0.20391	0.82524	0.071
Mof_H 	H 	0.4157	0.2111	0.8391	0.032
Mof_C 	C 	0.44306	0.21373	0.81547	-0.148
Mof_H 	H 	0.449	0.2287	0.8217	0.089
Mof_O 	O 	0.38157	0.1538	0.81812	-0.189
Mof_C 	C 	0.92305	0.70391	0.82524	0.071
Mof_H 	H 	0.9157	0.7111	0.8391	0.032
Mof_C 	C 	0.94306	0.71373	0.81547	-0.148
Mof_H 	H 	0.949	0.7287	0.8217	0.089
Mof_O 	O 	0.88157	0.6538	0.81812	-0.189
Mof_C 	C 	0.92305	0.20391	0.32524	0.071
Mof_H 	H 	0.9157	0.2111	0.3391	0.032
Mof_C 	C 	0.94306	0.21373	0.31547	-0.148
Mof_H 	H 	0.949	0.2287	0.3217	0.089
Mof_O 	O 	0.88157	0.1538	0.31812	-0.189
Mof_C 	C 	0.42305	0.29609	0.67476	0.071
Mof_H 	H 	0.4157	0.2889	0.6609	0.032
Mof_C 	C 	0.44306	0.28627	0.68453	-0.148
Mof_H 	H 	0.449	0.2713	0.6783	0.089
Mof_O 	O 	0.38157	0.3462	0.68188	-0.189
Mof_C 	C 	0.42305	0.79609	0.17476	0.071
Mof_H 	H 	0.4157	0.7889	0.1609	0.032
Mof_C 	C 	0.44306	0.78627	0.18453	-0.148
Mof_H 	H 	0.449	0.7713	0.1783	0.089
Mof_O 	O 	0.38157	0.8462	0.18188	-0.189
Mof_C 	C 	0.92305	0.29609	0.17476	0.071
Mof_H 	H 	0.9157	0.2889	0.1609	0.032
Mof_C 	C 	0.94306	0.28627	0.18453	-0.148
Mof_H 	H 	0.949	0.2713	0.1783	0.089
Mof_O 	O 	0.88157	0.3462	0.18188	-0.189
Mof_C 	C 	0.92305	0.79609	0.67476	0.071
Mof_H 	H 	0.9157	0.7889	0.6609	0.032
Mof_C 	C 	0.94306	0.78627	0.68453	-0.148
Mof_H 	H 	0.949	0.7713	0.6783	0.089
Mof_O 	O 	0.88157	0.8462	0.68188	-0.189
Mof_C 	C 	0.32524	0.57695	0.29609	0.071
Mof_H 	H 	0.3391	0.5843	0.2889	0.032
Mof_C 	C 	0.31547	0.55694	0.28627	-0.148
Mof_H 	H 	0.3217	0.551	0.2713	0.089
Mof_O 	O 	0.31812	0.61843	0.3462	-0.189
Mof_C 	C 	0.32524	0.07695	0.79609	0.071
Mof_H 	H 	0.3391	0.0843	0.7889	0.032
Mof_C 	C 	0.31547	0.05694	0.78627	-0.148
Mof_H 	H 	0.3217	0.051	0.7713	0.089
Mof_O 	O 	0.31812	0.11843	0.8462	-0.189
Mof_C 	C 	0.82524	0.57695	0.79609	0.071
Mof_H 	H 	0.8391	0.5843	0.7889	0.032
Mof_C 	C 	0.81547	0.55694	0.78627	-0.148
Mof_H 	H 	0.8217	0.551	0.7713	0.089
Mof_O 	O 	0.81812	0.61843	0.8462	-0.189
Mof_C 	C 	0.82524	0.07695	0.29609	0.071
Mof_H 	H 	0.8391	0.0843	0.2889	0.032
Mof_C 	C 	0.81547	0.05694	0.28627	-0.148
Mof_H 	H 	0.8217	0.051	0.2713	0.089
Mof_O 	O 	0.81812	0.11843	0.3462	-0.189
Mof_C 	C 	0.67476	0.57695	0.70391	0.071
Mof_H 	H 	0.6609	0.5843	0.7111	0.032
Mof_C 	C 	0.68453	0.55694	0.71373	-0.148
Mof_H 	H 	0.6783	0.551	0.7287	0.089
Mof_O 	O 	0.68188	0.61843	0.6538	-0.189
Mof_C 	C 	0.67476	0.07695	0.20391	0.071
Mof_H 	H 	0.6609	0.0843	0.2111	0.032
Mof_C 	C 	0.68453	0.05694	0.21373	-0.148
Mof_H 	H 	0.6783	0.051	0.2287	0.089
Mof_O 	O 	0.68188	0.11843	0.1538	-0.189
Mof_C 	C 	0.17476	0.57695	0.20391	0.071
Mof_H 	H 	0.1609	0.5843	0.2111	0.032
Mof_C 	C 	0.18453	0.55694	0.21373	-0.148
Mof_H 	H 	0.1783	0.551	0.2287	0.089
Mof_O 	O 	0.18188	0.61843	0.1538	-0.189
Mof_C 	C 	0.17476	0.07695	0.70391	0.071
Mof_H 	H 	0.1609	0.0843	0.7111	0.032
Mof_C 	C 	0.18453	0.05694	0.71373	-0.148
Mof_H 	H 	0.1783	0.051	0.7287	0.089
Mof_O 	O 	0.18188	0.11843	0.6538	-0.189
Mof_C 	C 	0.32524	0.42305	0.70391	0.071
Mof_H 	H 	0.3391	0.4157	0.7111	0.032
Mof_C 	C 	0.31547	0.44306	0.71373	-0.148
Mof_H 	H 	0.3217	0.449	0.7287	0.089
Mof_O 	O 	0.31812	0.38157	0.6538	-0.189
Mof_C 	C 	0.32524	0.92305	0.20391	0.071
Mof_H 	H 	0.3391	0.9157	0.2111	0.032
Mof_C 	C 	0.31547	0.94306	0.21373	-0.148
Mof_H 	H 	0.3217	0.949	0.2287	0.089
Mof_O 	O 	0.31812	0.88157	0.1538	-0.189
Mof_C 	C 	0.82524	0.42305	0.20391	0.071
Mof_H 	H 	0.8391	0.4157	0.2111	0.032
Mof_C 	C 	0.81547	0.44306	0.21373	-0.148
Mof_H 	H 	0.8217	0.449	0.2287	0.089
Mof_O 	O 	0.81812	0.38157	0.1538	-0.189
Mof_C 	C 	0.82524	0.92305	0.70391	0.071
Mof_H 	H 	0.8391	0.9157	0.7111	0.032
Mof_C 	C 	0.81547	0.94306	0.71373	-0.148
Mof_H 	H 	0.8217	0.949	0.7287	0.089
Mof_O 	O 	0.81812	0.88157	0.6538	-0.189
Mof_C 	C 	0.67476	0.42305	0.29609	0.071
Mof_H 	H 	0.6609	0.4157	0.2889	0.032
Mof_C 	C 	0.68453	0.44306	0.28627	-0.148
Mof_H 	H 	0.6783	0.449	0.2713	0.089
Mof_O 	O 	0.68188	0.38157	0.3462	-0.189
Mof_C 	C 	0.67476	0.92305	0.79609	0.071
Mof_H 	H 	0.6609	0.9157	0.7889	0.032
Mof_C 	C 	0.68453	0.94306	0.78627	-0.148
Mof_H 	H 	0.6783	0.949	0.7713	0.089
Mof_O 	O 	0.68188	0.88157	0.8462	-0.189
Mof_C 	C 	0.17476	0.42305	0.79609	0.071
Mof_H 	H 	0.1609	0.4157	0.7889	0.032
Mof_C 	C 	0.18453	0.44306	0.78627	-0.148
Mof_H 	H 	0.1783	0.449	0.7713	0.089
Mof_O 	O 	0.18188	0.38157	0.8462	-0.189
Mof_C 	C 	0.17476	0.92305	0.29609	0.071
Mof_H 	H 	0.1609	0.9157	0.2889	0.032
Mof_C 	C 	0.18453	0.94306	0.28627	-0.148
Mof_H 	H 	0.1783	0.949	0.2713	0.089
Mof_O 	O 	0.18188	0.88157	0.3462	-0.189
Mof_C 	C 	0.32524	0.29609	0.42305	0.071
Mof_H 	H 	0.3391	0.2889	0.4157	0.032
Mof_C 	C 	0.31547	0.28627	0.44306	-0.148
Mof_H 	H 	0.3217	0.2713	0.449	0.089
Mof_O 	O 	0.31812	0.3462	0.38157	-0.189
Mof_C 	C 	0.32524	0.79609	0.92305	0.071
Mof_H 	H 	0.3391	0.7889	0.9157	0.032
Mof_C 	C 	0.31547	0.78627	0.94306	-0.148
Mof_H 	H 	0.3217	0.7713	0.949	0.089
Mof_O 	O 	0.31812	0.8462	0.88157	-0.189
Mof_C 	C 	0.82524	0.29609	0.92305	0.071
Mof_H 	H 	0.8391	0.2889	0.9157	0.032
Mof_C 	C 	0.81547	0.28627	0.94306	-0.148
Mof_H 	H 	0.8217	0.2713	0.949	0.089
Mof_O 	O 	0.81812	0.3462	0.88157	-0.189
Mof_C 	C 	0.82524	0.79609	0.42305	0.071
Mof_H 	H 	0.8391	0.7889	0.4157	0.032
Mof_C 	C 	0.81547	0.78627	0.44306	-0.148
Mof_H 	H 	0.8217	0.7713	0.449	0.089
Mof_O 	O 	0.81812	0.8462	0.38157	-0.189
Mof_C 	C 	0.67476	0.70391	0.42305	0.071
Mof_H 	H 	0.6609	0.7111	0.4157	0.032
Mof_C 	C 	0.68453	0.71373	0.44306	-0.148
Mof_H 	H 	0.6783	0.7287	0.449	0.089
Mof_O 	O 	0.68188	0.6538	0.38157	-0.189
Mof_C 	C 	0.67476	0.20391	0.92305	0.071
Mof_H 	H 	0.6609	0.2111	0.9157	0.032
Mof_C 	C 	0.68453	0.21373	0.94306	-0.148
Mof_H 	H 	0.6783	0.2287	0.949	0.089
Mof_O 	O 	0.68188	0.1538	0.88157	-0.189
Mof_C 	C 	0.17476	0.70391	0.92305	0.071
Mof_H 	H 	0.1609	0.7111	0.9157	0.032
Mof_C 	C 	0.18453	0.71373	0.94306	-0.148
Mof_H 	H 	0.1783	0.7287	0.949	0.089
Mof_O 	O 	0.18188	0.6538	0.88157	-0.189
Mof_C 	C 	0.17476	0.20391	0.42305	0.071
Mof_H 	H 	0.1609	0.2111	0.4157	0.032
Mof_C 	C 	0.18453	0.21373	0.44306	-0.148
Mof_H 	H 	0.1783	0.2287	0.449	0.089
Mof_O 	O 	0.18188	0.1538	0.38157	-0.189
Mof_C 	C 	0.32524	0.70391	0.57695	0.071
Mof_H 	H 	0.3391	0.7111	0.5843	0.032
Mof_C 	C 	0.31547	0.71373	0.55694	-0.148
Mof_H 	H 	0.3217	0.7287	0.551	0.089
Mof_O 	O 	0.31812	0.6538	0.61843	-0.189
Mof_C 	C 	0.32524	0.20391	0.07695	0.071
Mof_H 	H 	0.3391	0.2111	0.0843	0.032
Mof_C 	C 	0.31547	0.21373	0.05694	-0.148
Mof_H 	H 	0.3217	0.2287	0.051	0.089
Mof_O 	O 	0.31812	0.1538	0.11843	-0.189
Mof_C 	C 	0.82524	0.70391	0.07695	0.071
Mof_H 	H 	0.8391	0.7111	0.0843	0.032
Mof_C 	C 	0.81547	0.71373	0.05694	-0.148
Mof_H 	H 	0.8217	0.7287	0.051	0.089
Mof_O 	O 	0.81812	0.6538	0.11843	-0.189
Mof_C 	C 	0.82524	0.20391	0.57695	0.071
Mof_H 	H 	0.8391	0.2111	0.5843	0.032
Mof_C 	C 	0.81547	0.21373	0.55694	-0.148
Mof_H 	H 	0.8217	0.2287	0.551	0.089
Mof_O 	O 	0.81812	0.1538	0.61843	-0.189
Mof_C 	C 	0.67476	0.29609	0.57695	0.071
Mof_H 	H 	0.6609	0.2889	0.5843	0.032
Mof_C 	C 	0.68453	0.28627	0.55694	-0.148
Mof_H 	H 	0.6783	0.2713	0.551	0.089
Mof_O 	O 	0.68188	0.3462	0.61843	-0.189
Mof_C 	C 	0.67476	0.79609	0.07695	0.071
Mof_H 	H 	0.6609	0.7889	0.0843	0.032
Mof_C 	C 	0.68453	0.78627	0.05694	-0.148
Mof_H 	H 	0.6783	0.7713	0.051	0.089
Mof_O 	O 	0.68188	0.8462	0.11843	-0.189
Mof_C 	C 	0.17476	0.29609	0.07695	0.071
Mof_H 	H 	0.1609	0.2889	0.0843	0.032
Mof_C 	C 	0.18453	0.28627	0.05694	-0.148
Mof_H 	H 	0.1783	0.2713	0.051	0.089
Mof_O 	O 	0.18188	0.3462	0.11843	-0.189
Mof_C 	C 	0.17476	0.79609	0.57695	0.071
Mof_H 	H 	0.1609	0.7889	0.5843	0.032
Mof_C 	C 	0.18453	0.78627	0.55694	-0.148
Mof_H 	H 	0.1783	0.7713	0.551	0.089
Mof_O 	O 	0.18188	0.8462	0.61843	-0.189
Mof_C 	C 	0.29609	0.57695	0.67476	0.071
Mof_H 	H 	0.2889	0.5843	0.6609	0.032
Mof_C 	C 	0.28627	0.55694	0.68453	-0.148
Mof_H 	H 	0.2713	0.551	0.6783	0.089
Mof_O 	O 	0.3462	0.61843	0.68188	-0.189
Mof_C 	C 	0.29609	0.07695	0.17476	0.071
Mof_H 	H 	0.2889	0.0843	0.1609	0.032
Mof_C 	C 	0.28627	0.05694	0.18453	-0.148
Mof_H 	H 	0.2713	0.051	0.1783	0.089
Mof_O 	O 	0.3462	0.11843	0.18188	-0.189
Mof_C 	C 	0.79609	0.57695	0.17476	0.071
Mof_H 	H 	0.7889	0.5843	0.1609	0.032
Mof_C 	C 	0.78627	0.55694	0.18453	-0.148
Mof_H 	H 	0.7713	0.551	0.1783	0.089
Mof_O 	O 	0.8462	0.61843	0.18188	-0.189
Mof_C 	C 	0.79609	0.07695	0.67476	0.071
Mof_H 	H 	0.7889	0.0843	0.6609	0.032
Mof_C 	C 	0.78627	0.05694	0.68453	-0.148
Mof_H 	H 	0.7713	0.051	0.6783	0.089
Mof_O 	O 	0.8462	0.11843	0.68188	-0.189
Mof_C 	C 	0.70391	0.57695	0.32524	0.071
Mof_H 	H 	0.7111	0.5843	0.3391	0.032
Mof_C 	C 	0.71373	0.55694	0.31547	-0.148
Mof_H 	H 	0.7287	0.551	0.3217	0.089
Mof_O 	O 	0.6538	0.61843	0.31812	-0.189
Mof_C 	C 	0.70391	0.07695	0.82524	0.071
Mof_H 	H 	0.7111	0.0843	0.8391	0.032
Mof_C 	C 	0.71373	0.05694	0.81547	-0.148
Mof_H 	H 	0.7287	0.051	0.8217	0.089
Mof_O 	O 	0.6538	0.11843	0.81812	-0.189
Mof_C 	C 	0.20391	0.57695	0.82524	0.071
Mof_H 	H 	0.2111	0.5843	0.8391	0.032
Mof_C 	C 	0.21373	0.55694	0.81547	-0.148
Mof_H 	H 	0.2287	0.551	0.8217	0.089
Mof_O 	O 	0.1538	0.61843	0.81812	-0.189
Mof_C 	C 	0.20391	0.07695	0.32524	0.071
Mof_H 	H 	0.2111	0.0843	0.3391	0.032
Mof_C 	C 	0.21373	0.05694	0.31547	-0.148
Mof_H 	H 	0.2287	0.051	0.3217	0.089
Mof_O 	O 	0.1538	0.11843	0.31812	-0.189
Mof_C 	C 	0.70391	0.42305	0.67476	0.071
Mof_H 	H 	0.7111	0.4157	0.6609	0.032
Mof_C 	C 	0.71373	0.44306	0.68453	-0.148
Mof_H 	H 	0.7287	0.449	0.6783	0.089
Mof_O 	O 	0.6538	0.38157	0.68188	-0.189
Mof_C 	C 	0.70391	0.92305	0.17476	0.071
Mof_H 	H 	0.7111	0.9157	0.1609	0.032
Mof_C 	C 	0.71373	0.94306	0.18453	-0.148
Mof_H 	H 	0.7287	0.949	0.1783	0.089
Mof_O 	O 	0.6538	0.88157	0.18188	-0.189
Mof_C 	C 	0.20391	0.42305	0.17476	0.071
Mof_H 	H 	0.2111	0.4157	0.1609	0.032
Mof_C 	C 	0.21373	0.44306	0.18453	-0.148
Mof_H 	H 	0.2287	0.449	0.1783	0.089
Mof_O 	O 	0.1538	0.38157	0.18188	-0.189
Mof_C 	C 	0.20391	0.92305	0.67476	0.071
Mof_H 	H 	0.2111	0.9157	0.6609	0.032
Mof_C 	C 	0.21373	0.94306	0.68453	-0.148
Mof_H 	H 	0.2287	0.949	0.6783	0.089
Mof_O 	O 	0.1538	0.88157	0.68188	-0.189
Mof_C 	C 	0.29609	0.42305	0.32524	0.071
Mof_H 	H 	0.2889	0.4157	0.3391	0.032
Mof_C 	C 	0.28627	0.44306	0.31547	-0.148
Mof_H 	H 	0.2713	0.449	0.3217	0.089
Mof_O 	O 	0.3462	0.38157	0.31812	-0.189
Mof_C 	C 	0.29609	0.92305	0.82524	0.071
Mof_H 	H 	0.2889	0.9157	0.8391	0.032
Mof_C 	C 	0.28627	0.94306	0.81547	-0.148
Mof_H 	H 	0.2713	0.949	0.8217	0.089
Mof_O 	O 	0.3462	0.88157	0.81812	-0.189
Mof_C 	C 	0.79609	0.42305	0.82524	0.071
Mof_H 	H 	0.7889	0.4157	0.8391	0.032
Mof_C 	C 	0.78627	0.44306	0.81547	-0.148
Mof_H 	H 	0.7713	0.449	0.8217	0.089
Mof_O 	O 	0.8462	0.38157	0.81812	-0.189
Mof_C 	C 	0.79609	0.92305	0.32524	0.071
Mof_H 	H 	0.7889	0.9157	0.3391	0.032
Mof_C 	C 	0.78627	0.94306	0.31547	-0.148
Mof_H 	H 	0.7713	0.949	0.3217	0.089
Mof_O 	O 	0.8462	0.88157	0.31812	-0.189
Mof_C 	C 	0.57695	0.32524	0.70391	0.071
Mof_H 	H 	0.5843	0.3391	0.7111	0.032
Mof_C 	C 	0.55694	0.31547	0.71373	-0.148
Mof_H 	H 	0.551	0.3217	0.7287	0.089
Mof_O 	O 	0.61843	0.31812	0.6538	-0.189
Mof_C 	C 	0.57695	0.82524	0.20391	0.071
Mof_H 	H 	0.5843	0.8391	0.2111	0.032
Mof_C 	C 	0.55694	0.81547	0.21373	-0.148
Mof_H 	H 	0.551	0.8217	0.2287	0.089
Mof_O 	O 	0.61843	0.81812	0.1538	-0.189
Mof_C 	C 	0.07695	0.32524	0.20391	0.071
Mof_H 	H 	0.0843	0.3391	0.2111	0.032
Mof_C 	C 	0.05694	0.31547	0.21373	-0.148
Mof_H 	H 	0.051	0.3217	0.2287	0.089
Mof_O 	O 	0.11843	0.31812	0.1538	-0.189
Mof_C 	C 	0.07695	0.82524	0.70391	0.071
Mof_H 	H 	0.0843	0.8391	0.7111	0.032
Mof_C 	C 	0.05694	0.81547	0.71373	-0.148
Mof_H 	H 	0.051	0.8217	0.7287	0.089
Mof_O 	O 	0.11843	0.81812	0.6538	-0.189
Mof_C 	C 	0.57695	0.67476	0.29609	0.071
Mof_H 	H 	0.5843	0.6609	0.2889	0.032
Mof_C 	C 	0.55694	0.68453	0.28627	-0.148
Mof_H 	H 	0.551	0.6783	0.2713	0.089
Mof_O 	O 	0.61843	0.68188	0.3462	-0.189
Mof_C 	C 	0.57695	0.17476	0.79609	0.071
Mof_H 	H 	0.5843	0.1609	0.7889	0.032
Mof_C 	C 	0.55694	0.18453	0.78627	-0.148
Mof_H 	H 	0.551	0.1783	0.7713	0.089
Mof_O 	O 	0.61843	0.18188	0.8462	-0.189
Mof_C 	C 	0.07695	0.67476	0.79609	0.071
Mof_H 	H 	0.0843	0.6609	0.7889	0.032
Mof_C 	C 	0.05694	0.68453	0.78627	-0.148
Mof_H 	H 	0.051	0.6783	0.7713	0.089
Mof_O 	O 	0.11843	0.68188	0.8462	-0.189
Mof_C 	C 	0.07695	0.17476	0.29609	0.071
Mof_H 	H 	0.0843	0.1609	0.2889	0.032
Mof_C 	C 	0.05694	0.18453	0.28627	-0.148
Mof_H 	H 	0.051	0.1783	0.2713	0.089
Mof_O 	O 	0.11843	0.18188	0.3462	-0.189
Mof_C 	C 	0.42305	0.32524	0.29609	0.071
Mof_H 	H 	0.4157	0.3391	0.2889	0.032
Mof_C 	C 	0.44306	0.31547	0.28627	-0.148
Mof_H 	H 	0.449	0.3217	0.2713	0.089
Mof_O 	O 	0.38157	0.31812	0.3462	-0.189
Mof_C 	C 	0.42305	0.82524	0.79609	0.071
Mof_H 	H 	0.4157	0.8391	0.7889	0.032
Mof_C 	C 	0.44306	0.81547	0.78627	-0.148
Mof_H 	H 	0.449	0.8217	0.7713	0.089
Mof_O 	O 	0.38157	0.81812	0.8462	-0.189
Mof_C 	C 	0.92305	0.32524	0.79609	0.071
Mof_H 	H 	0.9157	0.3391	0.7889	0.032
Mof_C 	C 	0.94306	0.31547	0.78627	-0.148
Mof_H 	H 	0.949	0.3217	0.7713	0.089
Mof_O 	O 	0.88157	0.31812	0.8462	-0.189
Mof_C 	C 	0.92305	0.82524	0.29609	0.071
Mof_H 	H 	0.9157	0.8391	0.2889	0.032
Mof_C 	C 	0.94306	0.81547	0.28627	-0.148
Mof_H 	H 	0.949	0.8217	0.2713	0.089
Mof_O 	O 	0.88157	0.81812	0.3462	-0.189
Mof_C 	C 	0.42305	0.67476	0.70391	0.071
Mof_H 	H 	0.4157	0.6609	0.7111	0.032
Mof_C 	C 	0.44306	0.68453	0.71373	-0.148
Mof_H 	H 	0.449	0.6783	0.7287	0.089
Mof_O 	O 	0.38157	0.68188	0.6538	-0.189
Mof_C 	C 	0.42305	0.17476	0.20391	0.071
Mof_H 	H 	0.4157	0.1609	0.2111	0.032
Mof_C 	C 	0.44306	0.18453	0.21373	-0.148
Mof_H 	H 	0.449	0.1783	0.2287	0.089
Mof_O 	O 	0.38157	0.18188	0.1538	-0.189
Mof_C 	C 	0.92305	0.67476	0.20391	0.071
Mof_H 	H 	0.9157	0.6609	0.2111	0.032
Mof_C 	C 	0.94306	0.68453	0.21373	-0.148
Mof_H 	H 	0.949	0.6783	0.2287	0.089
Mof_O 	O 	0.88157	0.68188	0.1538	-0.189
Mof_C 	C 	0.92305	0.17476	0.70391	0.071
Mof_H 	H 	0.9157	0.1609	0.7111	0.032
Mof_C 	C 	0.94306	0.18453	0.71373	-0.148
Mof_H 	H 	0.949	0.1783	0.7287	0.089
Mof_O 	O 	0.88157	0.18188	0.6538	-0.189
Mof_C 	C 	0.67236	0.67236	0.39058	0.294
Mof_C 	C 	0.68435	0.68435	0.41359	-0.103
Mof_C 	C 	0.70285	0.70285	0.45479	0.102
Mof_C 	C 	0.71388	0.71388	0.47829	-0.036
Mof_C 	C 	0.73157	0.73157	0.47639	0.025
Mof_C 	C 	0.74131	0.74131	0.45486	-0.054
Mof_H 	H 	0.7354	0.7354	0.4397	0.058
Mof_C 	C 	0.67236	0.17236	0.89058	0.294
Mof_C 	C 	0.68435	0.18435	0.91359	-0.103
Mof_C 	C 	0.70285	0.20285	0.95479	0.102
Mof_C 	C 	0.71388	0.21388	0.97829	-0.036
Mof_C 	C 	0.73157	0.23157	0.97639	0.025
Mof_C 	C 	0.74131	0.24131	0.95486	-0.054
Mof_H 	H 	0.7354	0.2354	0.9397	0.058
Mof_C 	C 	0.17236	0.67236	0.89058	0.294
Mof_C 	C 	0.18435	0.68435	0.91359	-0.103
Mof_C 	C 	0.20285	0.70285	0.95479	0.102
Mof_C 	C 	0.21388	0.71388	0.97829	-0.036
Mof_C 	C 	0.23157	0.73157	0.97639	0.025
Mof_C 	C 	0.24131	0.74131	0.95486	-0.054
Mof_H 	H 	0.2354	0.7354	0.9397	0.058
Mof_C 	C 	0.17236	0.17236	0.39058	0.294
Mof_C 	C 	0.18435	0.18435	0.41359	-0.103
Mof_C 	C 	0.20285	0.20285	0.45479	0.102
Mof_C 	C 	0.21388	0.21388	0.47829	-0.036
Mof_C 	C 	0.23157	0.23157	0.47639	0.025
Mof_C 	C 	0.24131	0.24131	0.45486	-0.054
Mof_H 	H 	0.2354	0.2354	0.4397	0.058
Mof_C 	C 	0.32764	0.32764	0.39058	0.294
Mof_C 	C 	0.31565	0.31565	0.41359	-0.103
Mof_C 	C 	0.29715	0.29715	0.45479	0.102
Mof_C 	C 	0.28612	0.28612	0.47829	-0.036
Mof_C 	C 	0.26843	0.26843	0.47639	0.025
Mof_C 	C 	0.25869	0.25869	0.45486	-0.054
Mof_H 	H 	0.2646	0.2646	0.4397	0.058
Mof_C 	C 	0.32764	0.82764	0.89058	0.294
Mof_C 	C 	0.31565	0.81565	0.91359	-0.103
Mof_C 	C 	0.29715	0.79715	0.95479	0.102
Mof_C 	C 	0.28612	0.78612	0.97829	-0.036
Mof_C 	C 	0.26843	0.76843	0.97639	0.025
Mof_C 	C 	0.25869	0.75869	0.95486	-0.054
Mof_H 	H 	0.2646	0.7646	0.9397	0.058
Mof_C 	C 	0.82764	0.32764	0.89058	0.294
Mof_C 	C 	0.81565	0.31565	0.91359	-0.103
Mof_C 	C 	0.79715	0.29715	0.95479	0.102
Mof_C 	C 	0.78612	0.28612	0.97829	-0.036
Mof_C 	C 	0.76843	0.26843	0.97639	0.025
Mof_C 	C 	0.75869	0.25869	0.95486	-0.054
Mof_H 	H 	0.7646	0.2646	0.9397	0.058
Mof_C 	C 	0.82764	0.82764	0.39058	0.294
Mof_C 	C 	0.81565	0.81565	0.41359	-0.103
Mof_C 	C 	0.79715	0.79715	0.45479	0.102
Mof_C 	C 	0.78612	0.78612	0.47829	-0.036
Mof_C 	C 	0.76843	0.76843	0.47639	0.025
Mof_C 	C 	0.75869	0.75869	0.45486	-0.054
Mof_H 	H 	0.7646	0.7646	0.4397	0.058
Mof_C 	C 	0.32764	0.67236	0.60942	0.294
Mof_C 	C 	0.31565	0.68435	0.58641	-0.103
Mof_C 	C 	0.29715	0.70285	0.54521	0.102
Mof_C 	C 	0.28612	0.71388	0.52171	-0.036
Mof_C 	C 	0.26843	0.73157	0.52361	0.025
Mof_C 	C 	0.25869	0.74131	0.54514	-0.054
Mof_H 	H 	0.2646	0.7354	0.5603	0.058
Mof_C 	C 	0.32764	0.17236	0.10942	0.294
Mof_C 	C 	0.31565	0.18435	0.08641	-0.103
Mof_C 	C 	0.29715	0.20285	0.04521	0.102
Mof_C 	C 	0.28612	0.21388	0.02171	-0.036
Mof_C 	C 	0.26843	0.23157	0.02361	0.025
Mof_C 	C 	0.25869	0.24131	0.04514	-0.054
Mof_H 	H 	0.2646	0.2354	0.0603	0.058
Mof_C 	C 	0.82764	0.67236	0.10942	0.294
Mof_C 	C 	0.81565	0.68435	0.08641	-0.103
Mof_C 	C 	0.79715	0.70285	0.04521	0.102
Mof_C 	C 	0.78612	0.71388	0.02171	-0.036
Mof_C 	C 	0.76843	0.73157	0.02361	0.025
Mof_C 	C 	0.75869	0.74131	0.04514	-0.054
Mof_H 	H 	0.7646	0.7354	0.0603	0.058
Mof_C 	C 	0.82764	0.17236	0.60942	0.294
Mof_C 	C 	0.81565	0.18435	0.58641	-0.103
Mof_C 	C 	0.79715	0.20285	0.54521	0.102
Mof_C 	C 	0.78612	0.21388	0.52171	-0.036
Mof_C 	C 	0.76843	0.23157	0.52361	0.025
Mof_C 	C 	0.75869	0.24131	0.54514	-0.054
Mof_H 	H 	0.7646	0.2354	0.5603	0.058
Mof_C 	C 	0.67236	0.32764	0.60942	0.294
Mof_C 	C 	0.68435	0.31565	0.58641	-0.103
Mof_C 	C 	0.70285	0.29715	0.54521	0.102
Mof_C 	C 	0.71388	0.28612	0.52171	-0.036
Mof_C 	C 	0.73157	0.26843	0.52361	0.025
Mof_C 	C 	0.74131	0.25869	0.54514	-0.054
Mof_H 	H 	0.7354	0.2646	0.5603	0.058
Mof_C 	C 	0.67236	0.82764	0.10942	0.294
Mof_C 	C 	0.68435	0.81565	0.08641	-0.103
Mof_C 	C 	0.70285	0.79715	0.04521	0.102
Mof_C 	C 	0.71388	0.78612	0.02171	-0.036
Mof_C 	C 	0.73157	0.76843	0.02361	0.025
Mof_C 	C 	0.74131	0.75869	0.04514	-0.054
Mof_H 	H 	0.7354	0.7646	0.0603	0.058
Mof_C 	C 	0.17236	0.32764	0.10942	0.294
Mof_C 	C 	0.18435	0.31565	0.08641	-0.103
Mof_C 	C 	0.20285	0.29715	0.04521	0.102
Mof_C 	C 	0.21388	0.28612	0.02171	-0.036
Mof_C 	C 	0.23157	0.26843	0.02361	0.025
Mof_C 	C 	0.24131	0.25869	0.04514	-0.054
Mof_H 	H 	0.2354	0.2646	0.0603	0.058
Mof_C 	C 	0.17236	0.82764	0.60942	0.294
Mof_C 	C 	0.18435	0.81565	0.58641	-0.103
Mof_C 	C 	0.20285	0.79715	0.54521	0.102
Mof_C 	C 	0.21388	0.78612	0.52171	-0.036
Mof_C 	C 	0.23157	0.76843	0.52361	0.025
Mof_C 	C 	0.24131	0.75869	0.54514	-0.054
Mof_H 	H 	0.2354	0.7646	0.5603	0.058
Mof_C 	C 	0.39058	0.67236	0.67236	0.294
Mof_C 	C 	0.41359	0.68435	0.68435	-0.103
Mof_C 	C 	0.45479	0.70285	0.70285	0.102
Mof_C 	C 	0.47829	0.71388	0.71388	-0.036
Mof_C 	C 	0.47639	0.73157	0.73157	0.025
Mof_C 	C 	0.45486	0.74131	0.74131	-0.054
Mof_H 	H 	0.4397	0.7354	0.7354	0.058
Mof_C 	C 	0.39058	0.17236	0.17236	0.294
Mof_C 	C 	0.41359	0.18435	0.18435	-0.103
Mof_C 	C 	0.45479	0.20285	0.20285	0.102
Mof_C 	C 	0.47829	0.21388	0.21388	-0.036
Mof_C 	C 	0.47639	0.23157	0.23157	0.025
Mof_C 	C 	0.45486	0.24131	0.24131	-0.054
Mof_H 	H 	0.4397	0.2354	0.2354	0.058
Mof_C 	C 	0.89058	0.67236	0.17236	0.294
Mof_C 	C 	0.91359	0.68435	0.18435	-0.103
Mof_C 	C 	0.95479	0.70285	0.20285	0.102
Mof_C 	C 	0.97829	0.71388	0.21388	-0.036
Mof_C 	C 	0.97639	0.73157	0.23157	0.025
Mof_C 	C 	0.95486	0.74131	0.24131	-0.054
Mof_H 	H 	0.9397	0.7354	0.2354	0.058
Mof_C 	C 	0.89058	0.17236	0.67236	0.294
Mof_C 	C 	0.91359	0.18435	0.68435	-0.103
Mof_C 	C 	0.95479	0.20285	0.70285	0.102
Mof_C 	C 	0.97829	0.21388	0.71388	-0.036
Mof_C 	C 	0.97639	0.23157	0.73157	0.025
Mof_C 	C 	0.95486	0.24131	0.74131	-0.054
Mof_H 	H 	0.9397	0.2354	0.7354	0.058
Mof_C 	C 	0.39058	0.32764	0.32764	0.294
Mof_C 	C 	0.41359	0.31565	0.31565	-0.103
Mof_C 	C 	0.45479	0.29715	0.29715	0.102
Mof_C 	C 	0.47829	0.28612	0.28612	-0.036
Mof_C 	C 	0.47639	0.26843	0.26843	0.025
Mof_C 	C 	0.45486	0.25869	0.25869	-0.054
Mof_H 	H 	0.4397	0.2646	0.2646	0.058
Mof_C 	C 	0.39058	0.82764	0.82764	0.294
Mof_C 	C 	0.41359	0.81565	0.81565	-0.103
Mof_C 	C 	0.45479	0.79715	0.79715	0.102
Mof_C 	C 	0.47829	0.78612	0.78612	-0.036
Mof_C 	C 	0.47639	0.76843	0.76843	0.025
Mof_C 	C 	0.45486	0.75869	0.75869	-0.054
Mof_H 	H 	0.4397	0.7646	0.7646	0.058
Mof_C 	C 	0.89058	0.32764	0.82764	0.294
Mof_C 	C 	0.91359	0.31565	0.81565	-0.103
Mof_C 	C 	0.95479	0.29715	0.79715	0.102
Mof_C 	C 	0.97829	0.28612	0.78612	-0.036
Mof_C 	C 	0.97639	0.26843	0.76843	0.025
Mof_C 	C 	0.95486	0.25869	0.75869	-0.054
Mof_H 	H 	0.9397	0.2646	0.7646	0.058
Mof_C 	C 	0.89058	0.82764	0.32764	0.294
Mof_C 	C 	0.91359	0.81565	0.31565	-0.103
Mof_C 	C 	0.95479	0.79715	0.29715	0.102
Mof_C 	C 	0.97829	0.78612	0.28612	-0.036
Mof_C 	C 	0.97639	0.76843	0.26843	0.025
Mof_C 	C 	0.95486	0.75869	0.25869	-0.054
Mof_H 	H 	0.9397	0.7646	0.2646	0.058
Mof_C 	C 	0.60942	0.32764	0.67236	0.294
Mof_C 	C 	0.58641	0.31565	0.68435	-0.103
Mof_C 	C 	0.54521	0.29715	0.70285	0.102
Mof_C 	C 	0.52171	0.28612	0.71388	-0.036
Mof_C 	C 	0.52361	0.26843	0.73157	0.025
Mof_C 	C 	0.54514	0.25869	0.74131	-0.054
Mof_H 	H 	0.5603	0.2646	0.7354	0.058
Mof_C 	C 	0.60942	0.82764	0.17236	0.294
Mof_C 	C 	0.58641	0.81565	0.18435	-0.103
Mof_C 	C 	0.54521	0.79715	0.20285	0.102
Mof_C 	C 	0.52171	0.78612	0.21388	-0.036
Mof_C 	C 	0.52361	0.76843	0.23157	0.025
Mof_C 	C 	0.54514	0.75869	0.24131	-0.054
Mof_H 	H 	0.5603	0.7646	0.2354	0.058
Mof_C 	C 	0.10942	0.32764	0.17236	0.294
Mof_C 	C 	0.08641	0.31565	0.18435	-0.103
Mof_C 	C 	0.04521	0.29715	0.20285	0.102
Mof_C 	C 	0.02171	0.28612	0.21388	-0.036
Mof_C 	C 	0.02361	0.26843	0.23157	0.025
Mof_C 	C 	0.04514	0.25869	0.24131	-0.054
Mof_H 	H 	0.0603	0.2646	0.2354	0.058
Mof_C 	C 	0.10942	0.82764	0.67236	0.294
Mof_C 	C 	0.08641	0.81565	0.68435	-0.103
Mof_C 	C 	0.04521	0.79715	0.70285	0.102
Mof_C 	C 	0.02171	0.78612	0.71388	-0.036
Mof_C 	C 	0.02361	0.76843	0.73157	0.025
Mof_C 	C 	0.04514	0.75869	0.74131	-0.054
Mof_H 	H 	0.0603	0.7646	0.7354	0.058
Mof_C 	C 	0.60942	0.67236	0.32764	0.294
Mof_C 	C 	0.58641	0.68435	0.31565	-0.103
Mof_C 	C 	0.54521	0.70285	0.29715	0.102
Mof_C 	C 	0.52171	0.71388	0.28612	-0.036
Mof_C 	C 	0.52361	0.73157	0.26843	0.025
Mof_C 	C 	0.54514	0.74131	0.25869	-0.054
Mof_H 	H 	0.5603	0.7354	0.2646	0.058
Mof_C 	C 	0.60942	0.17236	0.82764	0.294
Mof_C 	C 	0.58641	0.18435	0.81565	-0.103
Mof_C 	C 	0.54521	0.20285	0.79715	0.102
Mof_C 	C 	0.52171	0.21388	0.78612	-0.036
Mof_C 	C 	0.52361	0.23157	0.76843	0.025
Mof_C 	C 	0.54514	0.24131	0.75869	-0.054
Mof_H 	H 	0.5603	0.2354	0.7646	0.058
Mof_C 	C 	0.10942	0.67236	0.82764	0.294
Mof_C 	C 	0.08641	0.68435	0.81565	-0.103
Mof_C 	C 	0.04521	0.70285	0.79715	0.102
Mof_C 	C 	0.02171	0.71388	0.78612	-0.036
Mof_C 	C 	0.02361	0.73157	0.76843	0.025
Mof_C 	C 	0.04514	0.74131	0.75869	-0.054
Mof_H 	H 	0.0603	0.7354	0.7646	0.058
Mof_C 	C 	0.10942	0.17236	0.32764	0.294
Mof_C 	C 	0.08641	0.18435	0.31565	-0.103
Mof_C 	C 	0.04521	0.20285	0.29715	0.102
Mof_C 	C 	0.02171	0.21388	0.28612	-0.036
Mof_C 	C 	0.02361	0.23157	0.26843	0.025
Mof_C 	C 	0.04514	0.24131	0.25869	-0.054
Mof_H 	H 	0.0603	0.2354	0.2646	0.058
Mof_C 	C 	0.67236	0.39058	0.67236	0.294
Mof_C 	C 	0.68435	0.41359	0.68435	-0.103
Mof_C 	C 	0.70285	0.45479	0.70285	0.102
Mof_C 	C 	0.71388	0.47829	0.71388	-0.036
Mof_C 	C 	0.73157	0.47639	0.73157	0.025
Mof_C 	C 	0.74131	0.45486	0.74131	-0.054
Mof_H 	H 	0.7354	0.4397	0.7354	0.058
Mof_C 	C 	0.67236	0.89058	0.17236	0.294
Mof_C 	C 	0.68435	0.91359	0.18435	-0.103
Mof_C 	C 	0.70285	0.95479	0.20285	0.102
Mof_C 	C 	0.71388	0.97829	0.21388	-0.036
Mof_C 	C 	0.73157	0.97639	0.23157	0.025
Mof_C 	C 	0.74131	0.95486	0.24131	-0.054
Mof_H 	H 	0.7354	0.9397	0.2354	0.058
Mof_C 	C 	0.17236	0.39058	0.17236	0.294
Mof_C 	C 	0.18435	0.41359	0.18435	-0.103
Mof_C 	C 	0.20285	0.45479	0.20285	0.102
Mof_C 	C 	0.21388	0.47829	0.21388	-0.036
Mof_C 	C 	0.23157	0.47639	0.23157	0.025
Mof_C 	C 	0.24131	0.45486	0.24131	-0.054
Mof_H 	H 	0.2354	0.4397	0.2354	0.058
Mof_C 	C 	0.17236	0.89058	0.67236	0.294
Mof_C 	C 	0.18435	0.91359	0.68435	-0.103
Mof_C 	C 	0.20285	0.95479	0.70285	0.102
Mof_C 	C 	0.21388	0.97829	0.71388	-0.036
Mof_C 	C 	0.23157	0.97639	0.73157	0.025
Mof_C 	C 	0.24131	0.95486	0.74131	-0.054
Mof_H 	H 	0.2354	0.9397	0.7354	0.058
Mof_C 	C 	0.32764	0.39058	0.32764	0.294
Mof_C 	C 	0.31565	0.41359	0.31565	-0.103
Mof_C 	C 	0.29715	0.45479	0.29715	0.102
Mof_C 	C 	0.28612	0.47829	0.28612	-0.036
Mof_C 	C 	0.26843	0.47639	0.26843	0.025
Mof_C 	C 	0.25869	0.45486	0.25869	-0.054
Mof_H 	H 	0.2646	0.4397	0.2646	0.058
Mof_C 	C 	0.32764	0.89058	0.82764	0.294
Mof_C 	C 	0.31565	0.91359	0.81565	-0.103
Mof_C 	C 	0.29715	0.95479	0.79715	0.102
Mof_C 	C 	0.28612	0.97829	0.78612	-0.036
Mof_C 	C 	0.26843	0.97639	0.76843	0.025
Mof_C 	C 	0.25869	0.95486	0.75869	-0.054
Mof_H 	H 	0.2646	0.9397	0.7646	0.058
Mof_C 	C 	0.82764	0.39058	0.82764	0.294
Mof_C 	C 	0.81565	0.41359	0.81565	-0.103
Mof_C 	C 	0.79715	0.45479	0.79715	0.102
Mof_C 	C 	0.78612	0.47829	0.78612	-0.036
Mof_C 	C 	0.76843	0.47639	0.76843	0.025
Mof_C 	C 	0.75869	0.45486	0.75869	-0.054
Mof_H 	H 	0.7646	0.4397	0.7646	0.058
Mof_C 	C 	0.82764	0.89058	0.32764	0.294
Mof_C 	C 	0.81565	0.91359	0.31565	-0.103
Mof_C 	C 	0.79715	0.95479	0.29715	0.102
Mof_C 	C 	0.78612	0.97829	0.28612	-0.036
Mof_C 	C 	0.76843	0.97639	0.26843	0.025
Mof_C 	C 	0.75869	0.95486	0.25869	-0.054
Mof_H 	H 	0.7646	0.9397	0.2646	0.058
Mof_C 	C 	0.67236	0.60942	0.32764	0.294
Mof_C 	C 	0.68435	0.58641	0.31565	-0.103
Mof_C 	C 	0.70285	0.54521	0.29715	0.102
Mof_C 	C 	0.71388	0.52171	0.28612	-0.036
Mof_C 	C 	0.73157	0.52361	0.26843	0.025
Mof_C 	C 	0.74131	0.54514	0.25869	-0.054
Mof_H 	H 	0.7354	0.5603	0.2646	0.058
Mof_C 	C 	0.67236	0.10942	0.82764	0.294
Mof_C 	C 	0.68435	0.08641	0.81565	-0.103
Mof_C 	C 	0.70285	0.04521	0.79715	0.102
Mof_C 	C 	0.71388	0.02171	0.78612	-0.036
Mof_C 	C 	0.73157	0.02361	0.76843	0.025
Mof_C 	C 	0.74131	0.04514	0.75869	-0.054
Mof_H 	H 	0.7354	0.0603	0.7646	0.058
Mof_C 	C 	0.17236	0.60942	0.82764	0.294
Mof_C 	C 	0.18435	0.58641	0.81565	-0.103
Mof_C 	C 	0.20285	0.54521	0.79715	0.102
Mof_C 	C 	0.21388	0.52171	0.78612	-0.036
Mof_C 	C 	0.23157	0.52361	0.76843	0.025
Mof_C 	C 	0.24131	0.54514	0.75869	-0.054
Mof_H 	H 	0.2354	0.5603	0.7646	0.058
Mof_C 	C 	0.17236	0.10942	0.32764	0.294
Mof_C 	C 	0.18435	0.08641	0.31565	-0.103
Mof_C 	C 	0.20285	0.04521	0.29715	0.102
Mof_C 	C 	0.21388	0.02171	0.28612	-0.036
Mof_C 	C 	0.23157	0.02361	0.26843	0.025
Mof_C 	C 	0.24131	0.04514	0.25869	-0.054
Mof_H 	H 	0.2354	0.0603	0.2646	0.058
Mof_C 	C 	0.32764	0.60942	0.67236	0.294
Mof_C 	C 	0.31565	0.58641	0.68435	-0.103
Mof_C 	C 	0.29715	0.54521	0.70285	0.102
Mof_C 	C 	0.28612	0.52171	0.71388	-0.036
Mof_C 	C 	0.26843	0.52361	0.73157	0.025
Mof_C 	C 	0.25869	0.54514	0.74131	-0.054
Mof_H 	H 	0.2646	0.5603	0.7354	0.058
Mof_C 	C 	0.32764	0.10942	0.17236	0.294
Mof_C 	C 	0.31565	0.08641	0.18435	-0.103
Mof_C 	C 	0.29715	0.04521	0.20285	0.102
Mof_C 	C 	0.28612	0.02171	0.21388	-0.036
Mof_C 	C 	0.26843	0.02361	0.23157	0.025
Mof_C 	C 	0.25869	0.04514	0.24131	-0.054
Mof_H 	H 	0.2646	0.0603	0.2354	0.058
Mof_C 	C 	0.82764	0.60942	0.17236	0.294
Mof_C 	C 	0.81565	0.58641	0.18435	-0.103
Mof_C 	C 	0.79715	0.54521	0.20285	0.102
Mof_C 	C 	0.78612	0.52171	0.21388	-0.036
Mof_C 	C 	0.76843	0.52361	0.23157	0.025
Mof_C 	C 	0.75869	0.54514	0.24131	-0.054
Mof_H 	H 	0.7646	0.5603	0.2354	0.058
Mof_C 	C 	0.82764	0.10942	0.67236	0.294
Mof_C 	C 	0.81565	0.08641	0.68435	-0.103
Mof_C 	C 	0.79715	0.04521	0.70285	0.102
Mof_C 	C 	0.78612	0.02171	0.71388	-0.036
Mof_C 	C 	0.76843	0.02361	0.73157	0.025
Mof_C 	C 	0.75869	0.04514	0.74131	-0.054
Mof_H 	H 	0.7646	0.0603	0.7354	0.058
Mof_C 	C 	0.67236	0.67236	0.60942	0.294
Mof_C 	C 	0.68435	0.68435	0.58641	-0.103
Mof_C 	C 	0.70285	0.70285	0.54521	0.102
Mof_C 	C 	0.71388	0.71388	0.52171	-0.036
Mof_C 	C 	0.73157	0.73157	0.52361	0.025
Mof_C 	C 	0.74131	0.74131	0.54514	-0.054
Mof_H 	H 	0.7354	0.7354	0.5603	0.058
Mof_C 	C 	0.67236	0.17236	0.10942	0.294
Mof_C 	C 	0.68435	0.18435	0.08641	-0.103
Mof_C 	C 	0.70285	0.20285	0.04521	0.102
Mof_C 	C 	0.71388	0.21388	0.02171	-0.036
Mof_C 	C 	0.73157	0.23157	0.02361	0.025
Mof_C 	C 	0.74131	0.24131	0.04514	-0.054
Mof_H 	H 	0.7354	0.2354	0.0603	0.058
Mof_C 	C 	0.17236	0.67236	0.10942	0.294
Mof_C 	C 	0.18435	0.68435	0.08641	-0.103
Mof_C 	C 	0.20285	0.70285	0.04521	0.102
Mof_C 	C 	0.21388	0.71388	0.02171	-0.036
Mof_C 	C 	0.23157	0.73157	0.02361	0.025
Mof_C 	C 	0.24131	0.74131	0.04514	-0.054
Mof_H 	H 	0.2354	0.7354	0.0603	0.058
Mof_C 	C 	0.17236	0.17236	0.60942	0.294
Mof_C 	C 	0.18435	0.18435	0.58641	-0.103
Mof_C 	C 	0.20285	0.20285	0.54521	0.102
Mof_C 	C 	0.21388	0.21388	0.52171	-0.036
Mof_C 	C 	0.23157	0.23157	0.52361	0.025
Mof_C 	C 	0.24131	0.24131	0.54514	-0.054
Mof_H 	H 	0.2354	0.2354	0.5603	0.058
Mof_C 	C 	0.32764	0.32764	0.60942	0.294
Mof_C 	C 	0.31565	0.31565	0.58641	-0.103
Mof_C 	C 	0.29715	0.29715	0.54521	0.102
Mof_C 	C 	0.28612	0.28612	0.52171	-0.036
Mof_C 	C 	0.26843	0.26843	0.52361	0.025
Mof_C 	C 	0.25869	0.25869	0.54514	-0.054
Mof_H 	H 	0.2646	0.2646	0.5603	0.058
Mof_C 	C 	0.32764	0.82764	0.10942	0.294
Mof_C 	C 	0.31565	0.81565	0.08641	-0.103
Mof_C 	C 	0.29715	0.79715	0.04521	0.102
Mof_C 	C 	0.28612	0.78612	0.02171	-0.036
Mof_C 	C 	0.26843	0.76843	0.02361	0.025
Mof_C 	C 	0.25869	0.75869	0.04514	-0.054
Mof_H 	H 	0.2646	0.7646	0.0603	0.058
Mof_C 	C 	0.82764	0.32764	0.10942	0.294
Mof_C 	C 	0.81565	0.31565	0.08641	-0.103
Mof_C 	C 	0.79715	0.29715	0.04521	0.102
Mof_C 	C 	0.78612	0.28612	0.02171	-0.036
Mof_C 	C 	0.76843	0.26843	0.02361	0.025
Mof_C 	C 	0.75869	0.25869	0.04514	-0.054
Mof_H 	H 	0.7646	0.2646	0.0603	0.058
Mof_C 	C 	0.82764	0.82764	0.60942	0.294
Mof_C 	C 	0.81565	0.81565	0.58641	-0.103
Mof_C 	C 	0.79715	0.79715	0.54521	0.102
Mof_C 	C 	0.78612	0.78612	0.52171	-0.036
Mof_C 	C 	0.76843	0.76843	0.52361	0.025
Mof_C 	C 	0.75869	0.75869	0.54514	-0.054
Mof_H 	H 	0.7646	0.7646	0.5603	0.058
Mof_C 	C 	0.67236	0.32764	0.39058	0.294
Mof_C 	C 	0.68435	0.31565	0.41359	-0.103
Mof_C 	C 	0.70285	0.29715	0.45479	0.102
Mof_C 	C 	0.71388	0.28612	0.47829	-0.036
Mof_C 	C 	0.73157	0.26843	0.47639	0.025
Mof_C 	C 	0.74131	0.25869	0.45486	-0.054
Mof_H 	H 	0.7354	0.2646	0.4397	0.058
Mof_C 	C 	0.67236	0.82764	0.89058	0.294
Mof_C 	C 	0.68435	0.81565	0.91359	-0.103
Mof_C 	C 	0.70285	0.79715	0.95479	0.102
Mof_C 	C 	0.71388	0.78612	0.97829	-0.036
Mof_C 	C 	0.73157	0.76843	0.97639	0.025
Mof_C 	C 	0.74131	0.75869	0.95486	-0.054
Mof_H 	H 	0.7354	0.7646	0.9397	0.058
Mof_C 	C 	0.17236	0.32764	0.89058	0.294
Mof_C 	C 	0.18435	0.31565	0.91359	-0.103
Mof_C 	C 	0.20285	0.29715	0.95479	0.102
Mof_C 	C 	0.21388	0.28612	0.97829	-0.036
Mof_C 	C 	0.23157	0.26843	0.97639	0.025
Mof_C 	C 	0.24131	0.25869	0.95486	-0.054
Mof_H 	H 	0.2354	0.2646	0.9397	0.058
Mof_C 	C 	0.17236	0.82764	0.39058	0.294
Mof_C 	C 	0.18435	0.81565	0.41359	-0.103
Mof_C 	C 	0.20285	0.79715	0.45479	0.102
Mof_C 	C 	0.21388	0.78612	0.47829	-0.036
Mof_C 	C 	0.23157	0.76843	0.47639	0.025
Mof_C 	C 	0.24131	0.75869	0.45486	-0.054
Mof_H 	H 	0.2354	0.7646	0.4397	0.058
Mof_C 	C 	0.32764	0.67236	0.39058	0.294
Mof_C 	C 	0.31565	0.68435	0.41359	-0.103
Mof_C 	C 	0.29715	0.70285	0.45479	0.102
Mof_C 	C 	0.28612	0.71388	0.47829	-0.036
Mof_C 	C 	0.26843	0.73157	0.47639	0.025
Mof_C 	C 	0.25869	0.74131	0.45486	-0.054
Mof_H 	H 	0.2646	0.7354	0.4397	0.058
Mof_C 	C 	0.32764	0.17236	0.89058	0.294
Mof_C 	C 	0.31565	0.18435	0.91359	-0.103
Mof_C 	C 	0.29715	0.20285	0.95479	0.102
Mof_C 	C 	0.28612	0.21388	0.97829	-0.036
Mof_C 	C 	0.26843	0.23157	0.97639	0.025
Mof_C 	C 	0.25869	0.24131	0.95486	-0.054
Mof_H 	H 	0.2646	0.2354	0.9397	0.058
Mof_C 	C 	0.82764	0.67236	0.89058	0.294
Mof_C 	C 	0.81565	0.68435	0.91359	-0.103
Mof_C 	C 	0.79715	0.70285	0.95479	0.102
Mof_C 	C 	0.78612	0.71388	0.97829	-0.036
Mof_C 	C 	0.76843	0.73157	0.97639	0.025
Mof_C 	C 	0.75869	0.74131	0.95486	-0.054
Mof_H 	H 	0.7646	0.7354	0.9397	0.058
Mof_C 	C 	0.82764	0.17236	0.39058	0.294
Mof_C 	C 	0.81565	0.18435	0.41359	-0.103
Mof_C 	C 	0.79715	0.20285	0.45479	0.102
Mof_C 	C 	0.78612	0.21388	0.47829	-0.036
Mof_C 	C 	0.76843	0.23157	0.47639	0.025
Mof_C 	C 	0.75869	0.24131	0.45486	-0.054
Mof_H 	H 	0.7646	0.2354	0.4397	0.058
Mof_C 	C 	0.67236	0.39058	0.32764	0.294
Mof_C 	C 	0.68435	0.41359	0.31565	-0.103
Mof_C 	C 	0.70285	0.45479	0.29715	0.102
Mof_C 	C 	0.71388	0.47829	0.28612	-0.036
Mof_C 	C 	0.73157	0.47639	0.26843	0.025
Mof_C 	C 	0.74131	0.45486	0.25869	-0.054
Mof_H 	H 	0.7354	0.4397	0.2646	0.058
Mof_C 	C 	0.67236	0.89058	0.82764	0.294
Mof_C 	C 	0.68435	0.91359	0.81565	-0.103
Mof_C 	C 	0.70285	0.95479	0.79715	0.102
Mof_C 	C 	0.71388	0.97829	0.78612	-0.036
Mof_C 	C 	0.73157	0.97639	0.76843	0.025
Mof_C 	C 	0.74131	0.95486	0.75869	-0.054
Mof_H 	H 	0.7354	0.9397	0.7646	0.058
Mof_C 	C 	0.17236	0.39058	0.82764	0.294
Mof_C 	C 	0.18435	0.41359	0.81565	-0.103
Mof_C 	C 	0.20285	0.45479	0.79715	0.102
Mof_C 	C 	0.21388	0.47829	0.78612	-0.036
Mof_C 	C 	0.23157	0.47639	0.76843	0.025
Mof_C 	C 	0.24131	0.45486	0.75869	-0.054
Mof_H 	H 	0.2354	0.4397	0.7646	0.058
Mof_C 	C 	0.17236	0.89058	0.32764	0.294
Mof_C 	C 	0.18435	0.91359	0.31565	-0.103
Mof_C 	C 	0.20285	0.95479	0.29715	0.102
Mof_C 	C 	0.21388	0.97829	0.28612	-0.036
Mof_C 	C 	0.23157	0.97639	0.26843	0.025
Mof_C 	C 	0.24131	0.95486	0.25869	-0.054
Mof_H 	H 	0.2354	0.9397	0.2646	0.058
Mof_C 	C 	0.32764	0.39058	0.67236	0.294
Mof_C 	C 	0.31565	0.41359	0.68435	-0.103
Mof_C 	C 	0.29715	0.45479	0.70285	0.102
Mof_C 	C 	0.28612	0.47829	0.71388	-0.036
Mof_C 	C 	0.26843	0.47639	0.73157	0.025
Mof_C 	C 	0.25869	0.45486	0.74131	-0.054
Mof_H 	H 	0.2646	0.4397	0.7354	0.058
Mof_C 	C 	0.32764	0.89058	0.17236	0.294
Mof_C 	C 	0.31565	0.91359	0.18435	-0.103
Mof_C 	C 	0.29715	0.95479	0.20285	0.102
Mof_C 	C 	0.28612	0.97829	0.21388	-0.036
Mof_C 	C 	0.26843	0.97639	0.23157	0.025
Mof_C 	C 	0.25869	0.95486	0.24131	-0.054
Mof_H 	H 	0.2646	0.9397	0.2354	0.058
Mof_C 	C 	0.82764	0.39058	0.17236	0.294
Mof_C 	C 	0.81565	0.41359	0.18435	-0.103
Mof_C 	C 	0.79715	0.45479	0.20285	0.102
Mof_C 	C 	0.78612	0.47829	0.21388	-0.036
Mof_C 	C 	0.76843	0.47639	0.23157	0.025
Mof_C 	C 	0.75869	0.45486	0.24131	-0.054
Mof_H 	H 	0.7646	0.4397	0.2354	0.058
Mof_C 	C 	0.82764	0.89058	0.67236	0.294
Mof_C 	C 	0.81565	0.91359	0.68435	-0.103
Mof_C 	C 	0.79715	0.95479	0.70285	0.102
Mof_C 	C 	0.78612	0.97829	0.71388	-0.036
Mof_C 	C 	0.76843	0.97639	0.73157	0.025
Mof_C 	C 	0.75869	0.95486	0.74131	-0.054
Mof_H 	H 	0.7646	0.9397	0.7354	0.058
Mof_C 	C 	0.32764	0.60942	0.32764	0.294
Mof_C 	C 	0.31565	0.58641	0.31565	-0.103
Mof_C 	C 	0.29715	0.54521	0.29715	0.102
Mof_C 	C 	0.28612	0.52171	0.28612	-0.036
Mof_C 	C 	0.26843	0.52361	0.26843	0.025
Mof_C 	C 	0.25869	0.54514	0.25869	-0.054
Mof_H 	H 	0.2646	0.5603	0.2646	0.058
Mof_C 	C 	0.32764	0.10942	0.82764	0.294
Mof_C 	C 	0.31565	0.08641	0.81565	-0.103
Mof_C 	C 	0.29715	0.04521	0.79715	0.102
Mof_C 	C 	0.28612	0.02171	0.78612	-0.036
Mof_C 	C 	0.26843	0.02361	0.76843	0.025
Mof_C 	C 	0.25869	0.04514	0.75869	-0.054
Mof_H 	H 	0.2646	0.0603	0.7646	0.058
Mof_C 	C 	0.82764	0.60942	0.82764	0.294
Mof_C 	C 	0.81565	0.58641	0.81565	-0.103
Mof_C 	C 	0.79715	0.54521	0.79715	0.102
Mof_C 	C 	0.78612	0.52171	0.78612	-0.036
Mof_C 	C 	0.76843	0.52361	0.76843	0.025
Mof_C 	C 	0.75869	0.54514	0.75869	-0.054
Mof_H 	H 	0.7646	0.5603	0.7646	0.058
Mof_C 	C 	0.82764	0.10942	0.32764	0.294
Mof_C 	C 	0.81565	0.08641	0.31565	-0.103
Mof_C 	C 	0.79715	0.04521	0.29715	0.102
Mof_C 	C 	0.78612	0.02171	0.28612	-0.036
Mof_C 	C 	0.76843	0.02361	0.26843	0.025
Mof_C 	C 	0.75869	0.04514	0.25869	-0.054
Mof_H 	H 	0.7646	0.0603	0.2646	0.058
Mof_C 	C 	0.67236	0.60942	0.67236	0.294
Mof_C 	C 	0.68435	0.58641	0.68435	-0.103
Mof_C 	C 	0.70285	0.54521	0.70285	0.102
Mof_C 	C 	0.71388	0.52171	0.71388	-0.036
Mof_C 	C 	0.73157	0.52361	0.73157	0.025
Mof_C 	C 	0.74131	0.54514	0.74131	-0.054
Mof_H 	H 	0.7354	0.5603	0.7354	0.058
Mof_C 	C 	0.67236	0.10942	0.17236	0.294
Mof_C 	C 	0.68435	0.08641	0.18435	-0.103
Mof_C 	C 	0.70285	0.04521	0.20285	0.102
Mof_C 	C 	0.71388	0.02171	0.21388	-0.036
Mof_C 	C 	0.73157	0.02361	0.23157	0.025
Mof_C 	C 	0.74131	0.04514	0.24131	-0.054
Mof_H 	H 	0.7354	0.0603	0.2354	0.058
Mof_C 	C 	0.17236	0.60942	0.17236	0.294
Mof_C 	C 	0.18435	0.58641	0.18435	-0.103
Mof_C 	C 	0.20285	0.54521	0.20285	0.102
Mof_C 	C 	0.21388	0.52171	0.21388	-0.036
Mof_C 	C 	0.23157	0.52361	0.23157	0.025
Mof_C 	C 	0.24131	0.54514	0.24131	-0.054
Mof_H 	H 	0.2354	0.5603	0.2354	0.058
Mof_C 	C 	0.17236	0.10942	0.67236	0.294
Mof_C 	C 	0.18435	0.08641	0.68435	-0.103
Mof_C 	C 	0.20285	0.04521	0.70285	0.102
Mof_C 	C 	0.21388	0.02171	0.71388	-0.036
Mof_C 	C 	0.23157	0.02361	0.73157	0.025
Mof_C 	C 	0.24131	0.04514	0.74131	-0.054
Mof_H 	H 	0.2354	0.0603	0.7354	0.058
Mof_C 	C 	0.39058	0.67236	0.32764	0.294
Mof_C 	C 	0.41359	0.68435	0.31565	-0.103
Mof_C 	C 	0.45479	0.70285	0.29715	0.102
Mof_C 	C 	0.47829	0.71388	0.28612	-0.036
Mof_C 	C 	0.47639	0.73157	0.26843	0.025
Mof_C 	C 	0.45486	0.74131	0.25869	-0.054
Mof_H 	H 	0.4397	0.7354	0.2646	0.058
Mof_C 	C 	0.39058	0.17236	0.82764	0.294
Mof_C 	C 	0.41359	0.18435	0.81565	-0.103
Mof_C 	C 	0.45479	0.20285	0.79715	0.102
Mof_C 	C 	0.47829	0.21388	0.78612	-0.036
Mof_C 	C 	0.47639	0.23157	0.76843	0.025
Mof_C 	C 	0.45486	0.24131	0.75869	-0.054
Mof_H 	H 	0.4397	0.2354	0.7646	0.058
Mof_C 	C 	0.89058	0.67236	0.82764	0.294
Mof_C 	C 	0.91359	0.68435	0.81565	-0.103
Mof_C 	C 	0.95479	0.70285	0.79715	0.102
Mof_C 	C 	0.97829	0.71388	0.78612	-0.036
Mof_C 	C 	0.97639	0.73157	0.76843	0.025
Mof_C 	C 	0.95486	0.74131	0.75869	-0.054
Mof_H 	H 	0.9397	0.7354	0.7646	0.058
Mof_C 	C 	0.89058	0.17236	0.32764	0.294
Mof_C 	C 	0.91359	0.18435	0.31565	-0.103
Mof_C 	C 	0.95479	0.20285	0.29715	0.102
Mof_C 	C 	0.97829	0.21388	0.28612	-0.036
Mof_C 	C 	0.97639	0.23157	0.26843	0.025
Mof_C 	C 	0.95486	0.24131	0.25869	-0.054
Mof_H 	H 	0.9397	0.2354	0.2646	0.058
Mof_C 	C 	0.39058	0.32764	0.67236	0.294
Mof_C 	C 	0.41359	0.31565	0.68435	-0.103
Mof_C 	C 	0.45479	0.29715	0.70285	0.102
Mof_C 	C 	0.47829	0.28612	0.71388	-0.036
Mof_C 	C 	0.47639	0.26843	0.73157	0.025
Mof_C 	C 	0.45486	0.25869	0.74131	-0.054
Mof_H 	H 	0.4397	0.2646	0.7354	0.058
Mof_C 	C 	0.39058	0.82764	0.17236	0.294
Mof_C 	C 	0.41359	0.81565	0.18435	-0.103
Mof_C 	C 	0.45479	0.79715	0.20285	0.102
Mof_C 	C 	0.47829	0.78612	0.21388	-0.036
Mof_C 	C 	0.47639	0.76843	0.23157	0.025
Mof_C 	C 	0.45486	0.75869	0.24131	-0.054
Mof_H 	H 	0.4397	0.7646	0.2354	0.058
Mof_C 	C 	0.89058	0.32764	0.17236	0.294
Mof_C 	C 	0.91359	0.31565	0.18435	-0.103
Mof_C 	C 	0.95479	0.29715	0.20285	0.102
Mof_C 	C 	0.97829	0.28612	0.21388	-0.036
Mof_C 	C 	0.97639	0.26843	0.23157	0.025
Mof_C 	C 	0.95486	0.25869	0.24131	-0.054
Mof_H 	H 	0.9397	0.2646	0.2354	0.058
Mof_C 	C 	0.89058	0.82764	0.67236	0.294
Mof_C 	C 	0.91359	0.81565	0.68435	-0.103
Mof_C 	C 	0.95479	0.79715	0.70285	0.102
Mof_C 	C 	0.97829	0.78612	0.71388	-0.036
Mof_C 	C 	0.97639	0.76843	0.73157	0.025
Mof_C 	C 	0.95486	0.75869	0.74131	-0.054
Mof_H 	H 	0.9397	0.7646	0.7354	0.058
Mof_C 	C 	0.60942	0.67236	0.67236	0.294
Mof_C 	C 	0.58641	0.68435	0.68435	-0.103
Mof_C 	C 	0.54521	0.70285	0.70285	0.102
Mof_C 	C 	0.52171	0.71388	0.71388	-0.036
Mof_C 	C 	0.52361	0.73157	0.73157	0.025
Mof_C 	C 	0.54514	0.74131	0.74131	-0.054
Mof_H 	H 	0.5603	0.7354	0.7354	0.058
Mof_C 	C 	0.60942	0.17236	0.17236	0.294
Mof_C 	C 	0.58641	0.18435	0.18435	-0.103
Mof_C 	C 	0.54521	0.20285	0.20285	0.102
Mof_C 	C 	0.52171	0.21388	0.21388	-0.036
Mof_C 	C 	0.52361	0.23157	0.23157	0.025
Mof_C 	C 	0.54514	0.24131	0.24131	-0.054
Mof_H 	H 	0.5603	0.2354	0.2354	0.058
Mof_C 	C 	0.10942	0.67236	0.17236	0.294
Mof_C 	C 	0.08641	0.68435	0.18435	-0.103
Mof_C 	C 	0.04521	0.70285	0.20285	0.102
Mof_C 	C 	0.02171	0.71388	0.21388	-0.036
Mof_C 	C 	0.02361	0.73157	0.23157	0.025
Mof_C 	C 	0.04514	0.74131	0.24131	-0.054
Mof_H 	H 	0.0603	0.7354	0.2354	0.058
Mof_C 	C 	0.10942	0.17236	0.67236	0.294
Mof_C 	C 	0.08641	0.18435	0.68435	-0.103
Mof_C 	C 	0.04521	0.20285	0.70285	0.102
Mof_C 	C 	0.02171	0.21388	0.71388	-0.036
Mof_C 	C 	0.02361	0.23157	0.73157	0.025
Mof_C 	C 	0.04514	0.24131	0.74131	-0.054
Mof_H 	H 	0.0603	0.2354	0.7354	0.058
Mof_C 	C 	0.60942	0.32764	0.32764	0.294
Mof_C 	C 	0.58641	0.31565	0.31565	-0.103
Mof_C 	C 	0.54521	0.29715	0.29715	0.102
Mof_C 	C 	0.52171	0.28612	0.28612	-0.036
Mof_C 	C 	0.52361	0.26843	0.26843	0.025
Mof_C 	C 	0.54514	0.25869	0.25869	-0.054
Mof_H 	H 	0.5603	0.2646	0.2646	0.058
Mof_C 	C 	0.60942	0.82764	0.82764	0.294
Mof_C 	C 	0.58641	0.81565	0.81565	-0.103
Mof_C 	C 	0.54521	0.79715	0.79715	0.102
Mof_C 	C 	0.52171	0.78612	0.78612	-0.036
Mof_C 	C 	0.52361	0.76843	0.76843	0.025
Mof_C 	C 	0.54514	0.75869	0.75869	-0.054
Mof_H 	H 	0.5603	0.7646	0.7646	0.058
Mof_C 	C 	0.10942	0.32764	0.82764	0.294
Mof_C 	C 	0.08641	0.31565	0.81565	-0.103
Mof_C 	C 	0.04521	0.29715	0.79715	0.102
Mof_C 	C 	0.02171	0.28612	0.78612	-0.036
Mof_C 	C 	0.02361	0.26843	0.76843	0.025
Mof_C 	C 	0.04514	0.25869	0.75869	-0.054
Mof_H 	H 	0.0603	0.2646	0.7646	0.058
Mof_C 	C 	0.10942	0.82764	0.32764	0.294
Mof_C 	C 	0.08641	0.81565	0.31565	-0.103
Mof_C 	C 	0.04521	0.79715	0.29715	0.102
Mof_C 	C 	0.02171	0.78612	0.28612	-0.036
Mof_C 	C 	0.02361	0.76843	0.26843	0.025
Mof_C 	C 	0.04514	0.75869	0.25869	-0.054
Mof_H 	H 	0.0603	0.7646	0.2646	0.058
Mof_C 	C 	0.7055	0.7055	0.5	-0.035
Mof_H 	H 	0.6933	0.6933	0.5	0.052
Mof_C 	C 	0.74074	0.74074	0.5	-0.009
Mof_C 	C 	0.7055	0.2055	-0	-0.035
Mof_H 	H 	0.6933	0.1933	-0	0.052
Mof_C 	C 	0.74074	0.24074	-0	-0.009
Mof_C 	C 	0.2055	0.7055	-0	-0.035
Mof_H 	H 	0.1933	0.6933	-0	0.052
Mof_C 	C 	0.24074	0.74074	-0	-0.009
Mof_C 	C 	0.2055	0.2055	0.5	-0.035
Mof_H 	H 	0.1933	0.1933	0.5	0.052
Mof_C 	C 	0.24074	0.24074	0.5	-0.009
Mof_C 	C 	0.2945	0.2945	0.5	-0.035
Mof_H 	H 	0.3067	0.3067	0.5	0.052
Mof_C 	C 	0.25926	0.25926	0.5	-0.009
Mof_C 	C 	0.2945	0.7945	-0	-0.035
Mof_H 	H 	0.3067	0.8067	-0	0.052
Mof_C 	C 	0.25926	0.75926	-0	-0.009
Mof_C 	C 	0.7945	0.2945	-0	-0.035
Mof_H 	H 	0.8067	0.3067	-0	0.052
Mof_C 	C 	0.75926	0.25926	-0	-0.009
Mof_C 	C 	0.7945	0.7945	0.5	-0.035
Mof_H 	H 	0.8067	0.8067	0.5	0.052
Mof_C 	C 	0.75926	0.75926	0.5	-0.009
Mof_C 	C 	0.2945	0.7055	0.5	-0.035
Mof_H 	H 	0.3067	0.6933	0.5	0.052
Mof_C 	C 	0.25926	0.74074	0.5	-0.009
Mof_C 	C 	0.2945	0.2055	-0	-0.035
Mof_H 	H 	0.3067	0.1933	-0	0.052
Mof_C 	C 	0.25926	0.24074	-0	-0.009
Mof_C 	C 	0.7945	0.7055	-0	-0.035
Mof_H 	H 	0.8067	0.6933	-0	0.052
Mof_C 	C 	0.75926	0.74074	-0	-0.009
Mof_C 	C 	0.7945	0.2055	0.5	-0.035
Mof_H 	H 	0.8067	0.1933	0.5	0.052
Mof_C 	C 	0.75926	0.24074	0.5	-0.009
Mof_C 	C 	0.7055	0.2945	0.5	-0.035
Mof_H 	H 	0.6933	0.3067	0.5	0.052
Mof_C 	C 	0.74074	0.25926	0.5	-0.009
Mof_C 	C 	0.7055	0.7945	-0	-0.035
Mof_H 	H 	0.6933	0.8067	-0	0.052
Mof_C 	C 	0.74074	0.75926	-0	-0.009
Mof_C 	C 	0.2055	0.2945	-0	-0.035
Mof_H 	H 	0.1933	0.3067	-0	0.052
Mof_C 	C 	0.24074	0.25926	-0	-0.009
Mof_C 	C 	0.2055	0.7945	0.5	-0.035
Mof_H 	H 	0.1933	0.8067	0.5	0.052
Mof_C 	C 	0.24074	0.75926	0.5	-0.009
Mof_C 	C 	0.5	0.7055	0.7055	-0.035
Mof_H 	H 	0.5	0.6933	0.6933	0.052
Mof_C 	C 	0.5	0.74074	0.74074	-0.009
Mof_C 	C 	0.5	0.2055	0.2055	-0.035
Mof_H 	H 	0.5	0.1933	0.1933	0.052
Mof_C 	C 	0.5	0.24074	0.24074	-0.009
Mof_C 	C 	-8.90962e-33	0.7055	0.2055	-0.035
Mof_H 	H 	-4.1153e-33	0.6933	0.1933	0.052
Mof_C 	C 	-8.77749e-33	0.74074	0.24074	-0.009
Mof_C 	C 	-1.1875e-32	0.2055	0.7055	-0.035
Mof_H 	H 	-7.08067e-33	0.1933	0.6933	0.052
Mof_C 	C 	-6.90279e-33	0.24074	0.74074	-0.009
Mof_C 	C 	0.5	0.2945	0.2945	-0.035
Mof_H 	H 	0.5	0.3067	0.3067	0.052
Mof_C 	C 	0.5	0.25926	0.25926	-0.009
Mof_C 	C 	0.5	0.7945	0.7945	-0.035
Mof_H 	H 	0.5	0.8067	0.8067	0.052
Mof_C 	C 	0.5	0.75926	0.75926	-0.009
Mof_C 	C 	-2.60615e-32	0.2945	0.7945	-0.035
Mof_H 	H 	-6.65548e-33	0.3067	0.8067	0.052
Mof_C 	C 	-6.83336e-33	0.25926	0.75926	-0.009
Mof_C 	C 	-2.06761e-32	0.7945	0.2945	-0.035
Mof_H 	H 	-1.27009e-33	0.8067	0.3067	0.052
Mof_C 	C 	-6.28802e-33	0.75926	0.25926	-0.009
Mof_C 	C 	0.5	0.2945	0.7055	-0.035
Mof_H 	H 	0.5	0.3067	0.6933	0.052
Mof_C 	C 	0.5	0.25926	0.74074	-0.009
Mof_C 	C 	0.5	0.7945	0.2055	-0.035
Mof_H 	H 	0.5	0.8067	0.1933	0.052
Mof_C 	C 	0.5	0.75926	0.24074	-0.009
Mof_C 	C 	-1.64953e-33	0.2945	0.2055	-0.035
Mof_H 	H 	-1.69527e-33	0.3067	0.1933	0.052
Mof_C 	C 	-1.5174e-33	0.25926	0.24074	-0.009
Mof_C 	C 	-2.15551e-32	0.7945	0.7055	-0.035
Mof_H 	H 	-1.67608e-32	0.8067	0.6933	0.052
Mof_C 	C 	-1.65829e-32	0.75926	0.74074	-0.009
Mof_C 	C 	0.5	0.7055	0.2945	-0.035
Mof_H 	H 	0.5	0.6933	0.3067	0.052
Mof_C 	C 	0.5	0.74074	0.25926	-0.009
Mof_C 	C 	0.5	0.2055	0.7945	-0.035
Mof_H 	H 	0.5	0.1933	0.8067	0.052
Mof_C 	C 	0.5	0.24074	0.75926	-0.009
Mof_C 	C 	-1.63814e-32	0.7055	0.7945	-0.035
Mof_H 	H 	-1.63356e-32	0.6933	0.8067	0.052
Mof_C 	C 	-1.65135e-32	0.74074	0.75926	-0.009
Mof_C 	C 	-3.73586e-33	0.2055	0.2945	-0.035
Mof_H 	H 	-3.69012e-33	0.1933	0.3067	0.052
Mof_C 	C 	-1.44796e-33	0.24074	0.25926	-0.009
Mof_C 	C 	0.7055	0.5	0.7055	-0.035
Mof_H 	H 	0.6933	0.5	0.6933	0.052
Mof_C 	C 	0.74074	0.5	0.74074	-0.009
Mof_C 	C 	0.7055	-2.42003e-33	0.2055	-0.035
Mof_H 	H 	0.6933	-2.42003e-33	0.1933	0.052
Mof_C 	C 	0.74074	-2.42003e-33	0.24074	-0.009
Mof_C 	C 	0.2055	0.5	0.2055	-0.035
Mof_H 	H 	0.1933	0.5	0.1933	0.052
Mof_C 	C 	0.24074	0.5	0.24074	-0.009
Mof_C 	C 	0.2055	-9.68012e-33	0.7055	-0.035
Mof_H 	H 	0.1933	-9.68012e-33	0.6933	0.052
Mof_C 	C 	0.24074	-9.68012e-33	0.74074	-0.009
Mof_C 	C 	0.2945	0.5	0.2945	-0.035
Mof_H 	H 	0.3067	0.5	0.3067	0.052
Mof_C 	C 	0.25926	0.5	0.25926	-0.009
Mof_C 	C 	0.2945	-9.68012e-33	0.7945	-0.035
Mof_H 	H 	0.3067	-9.68012e-33	0.8067	0.052
Mof_C 	C 	0.25926	0	0.75926	-0.009
Mof_C 	C 	0.7945	0.5	0.7945	-0.035
Mof_H 	H 	0.8067	0.5	0.8067	0.052
Mof_C 	C 	0.75926	0.5	0.75926	-0.009
Mof_C 	C 	0.7945	0	0.2945	-0.035
Mof_H 	H 	0.8067	-4.84006e-33	0.3067	0.052
Mof_C 	C 	0.75926	-2.42003e-33	0.25926	-0.009
Mof_C 	C 	0.7055	0.5	0.2945	-0.035
Mof_H 	H 	0.6933	0.5	0.3067	0.052
Mof_C 	C 	0.74074	0.5	0.25926	-0.009
Mof_C 	C 	0.7055	-9.68012e-33	0.7945	-0.035
Mof_H 	H 	0.6933	-9.68012e-33	0.8067	0.052
Mof_C 	C 	0.74074	0	0.75926	-0.009
Mof_C 	C 	0.2055	0.5	0.7945	-0.035
Mof_H 	H 	0.1933	0.5	0.8067	0.052
Mof_C 	C 	0.24074	0.5	0.75926	-0.009
Mof_C 	C 	0.2055	0	0.2945	-0.035
Mof_H 	H 	0.1933	-4.84006e-33	0.3067	0.052
Mof_C 	C 	0.24074	-2.42003e-33	0.25926	-0.009
Mof_C 	C 	0.2945	0.5	0.7055	-0.035
Mof_H 	H 	0.3067	0.5	0.6933	0.052
Mof_C 	C 	0.25926	0.5	0.74074	-0.009
Mof_C 	C 	0.2945	-2.42003e-33	0.2055	-0.035
Mof_H 	H 	0.3067	-2.42003e-33	0.1933	0.052
Mof_C 	C 	0.25926	-2.42003e-33	0.24074	-0.009
Mof_C 	C 	0.7945	0.5	0.2055	-0.035
Mof_H 	H 	0.8067	0.5	0.1933	0.052
Mof_C 	C 	0.75926	0.5	0.24074	-0.009
Mof_C 	C 	0.7945	-9.68012e-33	0.7055	-0.035
Mof_H 	H 	0.8067	-9.68012e-33	0.6933	0.052
Mof_C 	C 	0.75926	-9.68012e-33	0.74074	-0.009
Mof_U 	U 	0.6515	0.6515	0.3485	0.009
Mof_U 	U 	0.6515	0.1515	0.8485	0.009
Mof_U 	U 	0.1515	0.6515	0.8485	0.009
Mof_U 	U 	0.1515	0.1515	0.3485	0.009
Mof_U 	U 	0.3485	0.3485	0.3485	0.009
Mof_U 	U 	0.3485	0.8485	0.8485	0.009
Mof_U 	U 	0.8485	0.3485	0.8485	0.009
Mof_U 	U 	0.8485	0.8485	0.3485	0.009
Mof_U 	U 	0.3485	0.6515	0.6515	0.009
Mof_U 	U 	0.3485	0.1515	0.1515	0.009
Mof_U 	U 	0.8485	0.6515	0.1515	0.009
Mof_U 	U 	0.8485	0.1515	0.6515	0.009
Mof_U 	U 	0.6515	0.3485	0.6515	0.009
Mof_U 	U 	0.6515	0.8485	0.1515	0.009
Mof_U 	U 	0.1515	0.3485	0.1515	0.009
Mof_U 	U 	0.1515	0.8485	0.6515	0.009
Mof_U 	U 	0.6515	0.6515	0.6515	0.009
Mof_U 	U 	0.6515	0.1515	0.1515	0.009
Mof_U 	U 	0.1515	0.6515	0.1515	0.009
Mof_U 	U 	0.1515	0.1515	0.6515	0.009
Mof_U 	U 	0.3485	0.3485	0.6515	0.009
Mof_U 	U 	0.3485	0.8485	0.1515	0.009
Mof_U 	U 	0.8485	0.3485	0.1515	0.009
Mof_U 	U 	0.8485	0.8485	0.6515	0.009
Mof_U 	U 	0.6515	0.3485	0.3485	0.009
Mof_U 	U 	0.6515	0.8485	0.8485	0.009
Mof_U 	U 	0.1515	0.3485	0.8485	0.009
Mof_U 	U 	0.1515	0.8485	0.3485	0.009
Mof_U 	U 	0.3485	0.6515	0.3485	0.009
Mof_U 	U 	0.3485	0.1515	0.8485	0.009
Mof_U 	U 	0.8485	0.6515	0.8485	0.009
Mof_U 	U 	0.8485	0.1515	0.3485	0.009
_end
