# CIF file generated by openbabel 3.1.0, see https://openbabel.org
data_I
_chemical_name_common 'YATTUK_clean'
_cell_length_a 10.8924
_cell_length_b 10.9631
_cell_length_c 16.774
_cell_angle_alpha 90
_cell_angle_beta 90
_cell_angle_gamma 102.254
_space_group_name_H-M_alt 'P 1'
_space_group_name_Hall 'P 1'
loop_
    _symmetry_equiv_pos_as_xyz
    x,y,z
loop_
    _atom_site_label
    _atom_site_type_symbol
    _atom_site_fract_x
    _atom_site_fract_y
    _atom_site_fract_z
    _atom_site_occupancy
    Tb1      Tb       0.34901    0.08321    0.88764    1.000
    Tb2      Tb       0.15099    0.41679    0.38764    1.000
    Tb3      Tb       0.65099    0.91679    0.11237    1.000
    Tb4      Tb       0.84901    0.58321    0.61236    1.000
    H1       H        0.17730    0.75720    0.68060    1.000
    H2       H        0.39350    0.57020    0.55770    1.000
    H3       H        0.53930    0.79130    0.73900    1.000
    H4       H        0.32270    0.74280    0.18060    1.000
    H5       H        0.10650    0.92980    0.05770    1.000
    H6       H        0.96070    0.70870    0.23900    1.000
    H7       H        0.82270    0.24280    0.31940    1.000
    H8       H        0.60650    0.42980    0.44230    1.000
    H9       H        0.46070    0.20870    0.26100    1.000
    H10      H        0.67730    0.25720    0.81940    1.000
    H11      H        0.89350    0.07020    0.94230    1.000
    H12      H        0.03930    0.29130    0.76100    1.000
    C1       C        0.34300    0.87860    0.78800    1.000
    C2       C        0.35480    0.78780    0.72160    1.000
    C3       C        0.25490    0.73680    0.67210    1.000
    C4       C        0.26750    0.65620    0.61040    1.000
    C5       C        0.38460    0.62540    0.59830    1.000
    C6       C        0.48880    0.67590    0.64610    1.000
    C7       C        0.47130    0.75660    0.70680    1.000
    C8       C        0.15850    0.60470    0.55460    1.000
    C9       C        0.61250    0.64260    0.63480    1.000
    C10      C        0.15700    0.62140    0.28800    1.000
    C11      C        0.14520    0.71220    0.22160    1.000
    C12      C        0.24510    0.76320    0.17210    1.000
    C13      C        0.23250    0.84380    0.11040    1.000
    C14      C        0.11540    0.87460    0.09830    1.000
    C15      C        0.01120    0.82410    0.14610    1.000
    C16      C        0.02870    0.74340    0.20680    1.000
    C17      C        0.34150    0.89530    0.05460    1.000
    C18      C        0.88750    0.85740    0.13480    1.000
    C19      C        0.65700    0.12140    0.21200    1.000
    C20      C        0.64520    0.21220    0.27840    1.000
    C21      C        0.74510    0.26320    0.32790    1.000
    C22      C        0.73250    0.34380    0.38960    1.000
    C23      C        0.61540    0.37460    0.40170    1.000
    C24      C        0.51120    0.32410    0.35390    1.000
    C25      C        0.52870    0.24340    0.29320    1.000
    C26      C        0.84150    0.39530    0.44540    1.000
    C27      C        0.38750    0.35740    0.36520    1.000
    C28      C        0.84300    0.37860    0.71200    1.000
    C29      C        0.85480    0.28780    0.77840    1.000
    C30      C        0.75490    0.23680    0.82790    1.000
    C31      C        0.76750    0.15620    0.88960    1.000
    C32      C        0.88460    0.12540    0.90170    1.000
    C33      C        0.98880    0.17590    0.85390    1.000
    C34      C        0.97130    0.25660    0.79320    1.000
    C35      C        0.65850    0.10470    0.94540    1.000
    C36      C        0.11250    0.14260    0.86520    1.000
    O1       O        0.24380    0.91730    0.79590    1.000
    O2       O        0.43680    0.91900    0.83100    1.000
    O3       O        0.69790    0.67980    0.68440    1.000
    O4       O        0.62970    0.57760    0.57580    1.000
    O5       O        0.18180    0.54000    0.49780    1.000
    O6       O        0.05720    0.63500    0.56810    1.000
    O7       O        0.25620    0.58270    0.29590    1.000
    O8       O        0.06320    0.58100    0.33100    1.000
    O9       O        0.80210    0.82020    0.18440    1.000
    O10      O        0.87030    0.92240    0.07580    1.000
    O11      O        0.31820    0.96000    0.99780    1.000
    O12      O        0.44280    0.86500    0.06810    1.000
    O13      O        0.75620    0.08270    0.20410    1.000
    O14      O        0.56320    0.08100    0.16900    1.000
    O15      O        0.30210    0.32020    0.31560    1.000
    O16      O        0.37030    0.42240    0.42420    1.000
    O17      O        0.81820    0.46000    0.50220    1.000
    O18      O        0.94280    0.36500    0.43190    1.000
    O19      O        0.74380    0.41730    0.70410    1.000
    O20      O        0.93680    0.41900    0.66900    1.000
    O21      O        0.19790    0.17980    0.81560    1.000
    O22      O        0.12970    0.07760    0.92420    1.000
    O23      O        0.68180    0.04000    0.00220    1.000
    O24      O        0.55720    0.13500    0.93190    1.000
