# CIF file generated by openbabel 3.1.0, see https://openbabel.org
data_I
_chemical_name_common 'image0'
_cell_length_a 15.0975
_cell_length_b 16.7752
_cell_length_c 16.9014
_cell_angle_alpha 110.493
_cell_angle_beta 91.562
_cell_angle_gamma 99.176
_space_group_name_H-M_alt 'P 1'
_space_group_name_Hall 'P 1'
loop_
    _symmetry_equiv_pos_as_xyz
    x,y,z
loop_
    _atom_site_label
    _atom_site_type_symbol
    _atom_site_fract_x
    _atom_site_fract_y
    _atom_site_fract_z
    _atom_site_occupancy
    Gd1      Gd       0.55988    0.12226    0.02872    1.000
    Gd2      Gd       0.51499    0.36249    0.14630    1.000
    Gd3      Gd       0.45086    0.47078    0.38190    1.000
    O1       O        0.43550    0.92530    0.85680    1.000
    O2       O        0.50520    0.06170    0.88400    1.000
    O3       O        0.37350    0.77490    0.02420    1.000
    O4       O        0.41920    0.64770    0.97550    1.000
    O5       O        0.46650    0.48700    0.15520    1.000
    O6       O        0.40290    0.51910    0.27890    1.000
    O7       O        0.30760    0.36860    0.31310    1.000
    O8       O        0.43010    0.33460    0.25190    1.000
    O9       O        0.42090    0.03650    0.03230    1.000
    O10      O        0.31330    0.93480    0.04040    1.000
    O11      O        0.63410    0.68240    0.92720    1.000
    O12      O        0.54980    0.78470    0.96520    1.000
    O13      O        0.58490    0.25460    0.16400    1.000
    O14      O        0.70360    0.19440    0.12850    1.000
    O15      O        0.57750    0.46530    0.46100    1.000
    O16      O        0.67540    0.46220    0.55840    1.000
    O17      O        0.33290    0.55800    0.80970    1.000
    O18      O        0.42570    0.52720    0.70900    1.000
    O19      O        0.51310    0.61790    0.43890    1.000
    O20      O        0.57390    0.65050    0.57210    1.000
    N1       N        0.39910    0.83570    0.42320    1.000
    H1       H        0.41650    0.79350    0.43550    1.000
    N2       N        0.35890    0.95870    0.43890    1.000
    N3       N        0.35510    0.90990    0.35140    1.000
    N4       N        0.01510    0.01630    0.12120    1.000
    H2       H        0.03580    0.97080    0.08870    1.000
    N5       N        0.00540    0.14630    0.20650    1.000
    N6       N        0.91980    0.09890    0.18950    1.000
    N7       N        0.97120    0.37720    0.47800    1.000
    H3       H        0.94910    0.41160    0.52220    1.000
    N8       N        0.98460    0.28960    0.35060    1.000
    N9       N        0.06510    0.30410    0.39740    1.000
    C1       C        0.46670    0.98670    0.83500    1.000
    C2       C        0.44830    0.97330    0.74230    1.000
    C3       C        0.44250    0.03900    0.71230    1.000
    H4       H        0.45210    0.09740    0.75040    1.000
    C4       C        0.42290    0.01980    0.62750    1.000
    H5       H        0.41900    0.06460    0.60610    1.000
    C5       C        0.40870    0.93510    0.57360    1.000
    C6       C        0.41620    0.86970    0.60100    1.000
    H6       H        0.40840    0.81190    0.56180    1.000
    C7       C        0.43540    0.88750    0.68690    1.000
    H7       H        0.43960    0.84210    0.70750    1.000
    C8       C        0.38850    0.91340    0.47810    1.000
    C9       C        0.37800    0.83610    0.34730    1.000
    C10      C        0.38230    0.76210    0.26850    1.000
    C11      C        0.37860    0.76940    0.18940    1.000
    H8       H        0.36860    0.82180    0.18380    1.000
    C12      C        0.38990    0.69890    0.11760    1.000
    C13      C        0.39430    0.70880    0.03350    1.000
    C14      C        0.40780    0.62340    0.12550    1.000
    H9       H        0.41910    0.57720    0.07720    1.000
    C15      C        0.40920    0.61600    0.20550    1.000
    C16      C        0.42780    0.53450    0.21340    1.000
    C17      C        0.39600    0.68470    0.27670    1.000
    H10      H        0.39610    0.67910    0.33070    1.000
    C18      C        0.34760    0.31440    0.26220    1.000
    C19      C        0.29870    0.22490    0.21350    1.000
    C20      C        0.20610    0.20460    0.21500    1.000
    H11      H        0.17410    0.24710    0.24830    1.000
    C21      C        0.15990    0.12070    0.16700    1.000
    C22      C        0.20700    0.06020    0.11840    1.000
    H12      H        0.17580    0.00390    0.08500    1.000
    C23      C        0.30030    0.08050    0.11750    1.000
    C24      C        0.34730    0.01430    0.06070    1.000
    C25      C        0.34570    0.16250    0.16570    1.000
    H13      H        0.40930    0.17620    0.16620    1.000
    C26      C        0.06280    0.09570    0.16570    1.000
    C27      C        0.92950    0.02180    0.13740    1.000
    C28      C        0.85360    0.95040    0.10110    1.000
    C29      C        0.76640    0.96560    0.12000    1.000
    H14      H        0.75800    0.01940    0.16000    1.000
    C30      C        0.69260    0.90130    0.07980    1.000
    H15      H        0.63360    0.91130    0.09290    1.000
    C31      C        0.70390    0.82270    0.02080    1.000
    C32      C        0.62540    0.75790    0.96990    1.000
    C33      C        0.79360    0.80670    0.00730    1.000
    H16      H        0.80300    0.75120    0.97180    1.000
    C34      C        0.86530    0.87050    0.04520    1.000
    H17      H        0.92440    0.86030    0.03310    1.000
    C35      C        0.66400    0.24290    0.18240    1.000
    C36      C        0.70560    0.28870    0.27050    1.000
    C37      C        0.65550    0.33600    0.33480    1.000
    H18      H        0.59390    0.33610    0.32210    1.000
    C38      C        0.69610    0.38200    0.41600    1.000
    C39      C        0.64750    0.43930    0.48180    1.000
    C40      C        0.78500    0.38060    0.43520    1.000
    H19      H        0.81230    0.41300    0.49100    1.000
    C41      C        0.83480    0.33400    0.37590    1.000
    C42      C        0.79610    0.28730    0.29300    1.000
    H20      H        0.83070    0.25450    0.25180    1.000
    C43      C        0.92800    0.33190    0.40020    1.000
    C44      C        0.05490    0.35890    0.47410    1.000
    C45      C        0.12470    0.39210    0.54400    1.000
    C46      C        0.10960    0.44460    0.62460    1.000
    H21      H        0.05050    0.45550    0.63600    1.000
    C47      C        0.17900    0.48140    0.68870    1.000
    H22      H        0.16700    0.51500    0.74420    1.000
    C48      C        0.26740    0.46900    0.67110    1.000
    C49      C        0.34510    0.51980    0.73370    1.000
    C50      C        0.28260    0.41450    0.58980    1.000
    H23      H        0.34160    0.40360    0.57820    1.000
    C51      C        0.21290    0.37710    0.52720    1.000
    H24      H        0.22410    0.34110    0.47230    1.000
    C52      C        0.54740    0.67300    0.51200    1.000
    H25      H        0.55330    0.73300    0.52150    1.000
    Gd4      Gd       0.44012    0.87774    0.97128    1.000
    Gd5      Gd       0.48501    0.63751    0.85370    1.000
    Gd6      Gd       0.54914    0.52922    0.61810    1.000
    O21      O        0.56450    0.07470    0.14320    1.000
    O22      O        0.49480    0.93830    0.11600    1.000
    O23      O        0.62650    0.22510    0.97580    1.000
    O24      O        0.58080    0.35230    0.02450    1.000
    O25      O        0.53350    0.51300    0.84480    1.000
    O26      O        0.59710    0.48090    0.72110    1.000
    O27      O        0.69240    0.63140    0.68690    1.000
    O28      O        0.56990    0.66540    0.74810    1.000
    O29      O        0.57910    0.96350    0.96770    1.000
    O30      O        0.68670    0.06520    0.95960    1.000
    O31      O        0.36590    0.31760    0.07280    1.000
    O32      O        0.45020    0.21530    0.03480    1.000
    O33      O        0.41510    0.74540    0.83600    1.000
    O34      O        0.29640    0.80560    0.87150    1.000
    O35      O        0.42250    0.53470    0.53900    1.000
    O36      O        0.32460    0.53780    0.44160    1.000
    O37      O        0.66710    0.44200    0.19030    1.000
    O38      O        0.57430    0.47280    0.29100    1.000
    O39      O        0.48690    0.38210    0.56110    1.000
    O40      O        0.42610    0.34950    0.42790    1.000
    N10      N        0.60090    0.16430    0.57680    1.000
    H26      H        0.58350    0.20650    0.56450    1.000
    N11      N        0.64110    0.04130    0.56110    1.000
    N12      N        0.64490    0.09010    0.64860    1.000
    N13      N        0.98490    0.98370    0.87880    1.000
    H27      H        0.96420    0.02920    0.91130    1.000
    N14      N        0.99460    0.85370    0.79350    1.000
    N15      N        0.08020    0.90110    0.81050    1.000
    N16      N        0.02880    0.62280    0.52200    1.000
    H28      H        0.05090    0.58840    0.47780    1.000
    N17      N        0.01540    0.71040    0.64940    1.000
    N18      N        0.93490    0.69590    0.60260    1.000
    C53      C        0.53330    0.01330    0.16500    1.000
    C54      C        0.55170    0.02670    0.25770    1.000
    C55      C        0.55750    0.96100    0.28770    1.000
    H29      H        0.54790    0.90260    0.24960    1.000
    C56      C        0.57710    0.98020    0.37250    1.000
    H30      H        0.58100    0.93540    0.39390    1.000
    C57      C        0.59130    0.06490    0.42640    1.000
    C58      C        0.58380    0.13030    0.39900    1.000
    H31      H        0.59160    0.18810    0.43820    1.000
    C59      C        0.56460    0.11250    0.31310    1.000
    H32      H        0.56040    0.15790    0.29250    1.000
    C60      C        0.61150    0.08660    0.52190    1.000
    C61      C        0.62200    0.16390    0.65270    1.000
    C62      C        0.61770    0.23790    0.73150    1.000
    C63      C        0.62140    0.23060    0.81060    1.000
    H33      H        0.63140    0.17820    0.81620    1.000
    C64      C        0.61010    0.30110    0.88240    1.000
    C65      C        0.60570    0.29120    0.96650    1.000
    C66      C        0.59220    0.37660    0.87450    1.000
    H34      H        0.58090    0.42280    0.92280    1.000
    C67      C        0.59080    0.38400    0.79450    1.000
    C68      C        0.57220    0.46550    0.78660    1.000
    C69      C        0.60400    0.31530    0.72330    1.000
    H35      H        0.60390    0.32090    0.66930    1.000
    C70      C        0.65240    0.68560    0.73780    1.000
    C71      C        0.70130    0.77510    0.78650    1.000
    C72      C        0.79390    0.79540    0.78500    1.000
    H36      H        0.82590    0.75290    0.75170    1.000
    C73      C        0.84010    0.87930    0.83300    1.000
    C74      C        0.79300    0.93980    0.88160    1.000
    H37      H        0.82420    0.99610    0.91500    1.000
    C75      C        0.69970    0.91950    0.88250    1.000
    C76      C        0.65270    0.98570    0.93930    1.000
    C77      C        0.65430    0.83750    0.83430    1.000
    H38      H        0.59070    0.82380    0.83380    1.000
    C78      C        0.93720    0.90430    0.83430    1.000
    C79      C        0.07050    0.97820    0.86260    1.000
    C80      C        0.14640    0.04960    0.89890    1.000
    C81      C        0.23360    0.03440    0.88000    1.000
    H39      H        0.24200    0.98060    0.84000    1.000
    C82      C        0.30740    0.09870    0.92020    1.000
    H40      H        0.36640    0.08870    0.90710    1.000
    C83      C        0.29610    0.17730    0.97920    1.000
    C84      C        0.37460    0.24210    0.03010    1.000
    C85      C        0.20640    0.19330    0.99270    1.000
    H41      H        0.19700    0.24880    0.02820    1.000
    C86      C        0.13470    0.12950    0.95480    1.000
    H42      H        0.07560    0.13970    0.96690    1.000
    C87      C        0.33600    0.75710    0.81760    1.000
    C88      C        0.29440    0.71130    0.72950    1.000
    C89      C        0.34450    0.66400    0.66520    1.000
    H43      H        0.40610    0.66390    0.67790    1.000
    C90      C        0.30390    0.61800    0.58400    1.000
    C91      C        0.35250    0.56070    0.51820    1.000
    C92      C        0.21500    0.61940    0.56480    1.000
    H44      H        0.18770    0.58700    0.50900    1.000
    C93      C        0.16520    0.66600    0.62410    1.000
    C94      C        0.20390    0.71270    0.70700    1.000
    H45      H        0.16930    0.74550    0.74820    1.000
    C95      C        0.07200    0.66810    0.59980    1.000
    C96      C        0.94510    0.64110    0.52590    1.000
    C97      C        0.87530    0.60790    0.45600    1.000
    C98      C        0.89040    0.55540    0.37540    1.000
    H46      H        0.94950    0.54450    0.36400    1.000
    C99      C        0.82100    0.51860    0.31130    1.000
    H47      H        0.83300    0.48500    0.25580    1.000
    C100     C        0.73260    0.53100    0.32890    1.000
    C101     C        0.65490    0.48020    0.26630    1.000
    C102     C        0.71740    0.58550    0.41020    1.000
    H48      H        0.65840    0.59640    0.42180    1.000
    C103     C        0.78710    0.62290    0.47280    1.000
    H49      H        0.77590    0.65890    0.52770    1.000
    C104     C        0.45260    0.32700    0.48800    1.000
    H50      H        0.44670    0.26700    0.47850    1.000
