# CIF file generated by openbabel 3.1.0, see https://openbabel.org
data_I
_chemical_name_common 'image0'
_cell_length_a 7.5739
_cell_length_b 8.6167
_cell_length_c 9.867
_cell_angle_alpha 86.99
_cell_angle_beta 89.87
_cell_angle_gamma 85.24
_space_group_name_H-M_alt 'P 1'
_space_group_name_Hall 'P 1'
loop_
    _symmetry_equiv_pos_as_xyz
    x,y,z
loop_
    _atom_site_label
    _atom_site_type_symbol
    _atom_site_fract_x
    _atom_site_fract_y
    _atom_site_fract_z
    _atom_site_occupancy
    Eu1      Eu       0.56547    0.88473    0.83312    1.000
    O1       O        0.41040    0.27780    0.96110    1.000
    O2       O        0.86690    0.76120    0.86470    1.000
    O3       O        0.57040    0.64450    0.72450    1.000
    O4       O        0.50140    0.16200    0.77240    1.000
    O5       O        0.30980    0.97060    0.99270    1.000
    O6       O        0.28290    0.76020    0.88190    1.000
    N1       N        0.03060    0.64900    0.03870    1.000
    N2       N        0.43380    0.45600    0.62800    1.000
    C1       C        0.42570    0.27310    0.83450    1.000
    C2       C        0.92610    0.64250    0.93100    1.000
    C3       C        0.87510    0.48840    0.89010    1.000
    H1       H        0.74640    0.48390    0.90570    1.000
    H2       H        0.89610    0.48150    0.79150    1.000
    C4       C        0.53450    0.57360    0.62210    1.000
    C5       C        0.23480    0.84610    0.97420    1.000
    C6       C        0.09120    0.79840    0.06970    1.000
    H3       H        0.13670    0.79230    0.16390    1.000
    H4       H        0.98990    0.87880    0.06360    1.000
    C7       C        0.34160    0.41440    0.75340    1.000
    H5       H        0.21860    0.39460    0.73040    1.000
    H6       H        0.33540    0.50490    0.81160    1.000
    C8       C        0.61020    0.62840    0.48940    1.000
    H7       H        0.56890    0.73970    0.47180    1.000
    H8       H        0.74080    0.62190    0.49820    1.000
    Eu2      Eu       0.43453    0.11527    0.16688    1.000
    O7       O        0.58960    0.72220    0.03890    1.000
    O8       O        0.13310    0.23880    0.13530    1.000
    O9       O        0.42960    0.35550    0.27550    1.000
    O10      O        0.49860    0.83800    0.22760    1.000
    O11      O        0.69020    0.02940    0.00730    1.000
    O12      O        0.71710    0.23980    0.11810    1.000
    N3       N        0.96940    0.35100    0.96130    1.000
    N4       N        0.56620    0.54400    0.37200    1.000
    C9       C        0.57430    0.72690    0.16550    1.000
    C10      C        0.07390    0.35750    0.06900    1.000
    C11      C        0.12490    0.51160    0.10990    1.000
    H9       H        0.25360    0.51610    0.09430    1.000
    H10      H        0.10390    0.51850    0.20850    1.000
    C12      C        0.46550    0.42640    0.37790    1.000
    C13      C        0.76520    0.15390    0.02580    1.000
    C14      C        0.90880    0.20160    0.93030    1.000
    H11      H        0.86330    0.20770    0.83610    1.000
    H12      H        0.01010    0.12120    0.93640    1.000
    C15      C        0.65840    0.58560    0.24660    1.000
    H13      H        0.78140    0.60540    0.26960    1.000
    H14      H        0.66460    0.49510    0.18840    1.000
    C16      C        0.38980    0.37160    0.51060    1.000
    H15      H        0.43110    0.26030    0.52820    1.000
    H16      H        0.25920    0.37810    0.50180    1.000
