data_functionalizedCrystal
_audit_creation_method	'EQeq! by Chris Wilmer'
_symmetry_space_group_name_H-M	'P1'
_symmetry_Int_Tables_number	1
_symmetry_cell_setting	triclinic
loop_
_symmetry_equiv_pos_as_xyz
  x,y,z
_cell_length_a	19.374
_cell_length_b	14.8874
_cell_length_c	15.3721
_cell_angle_alpha	90
_cell_angle_beta	111.753
_cell_angle_gamma	90
loop_
_atom_site_label
_atom_site_type_symbol
_atom_site_fract_x
_atom_site_fract_y
_atom_site_fract_z
_atom_site_charge
Mof_Cd	Cd	0.81809	0.08663	0.17834	0.446
Mof_Cd	Cd	0.81936	0.31636	0.54457	0.44
Mof_Cd	Cd	0.18033	0.18117	0.74532	0.432
Mof_Cd	Cd	0.81554	0.41939	0.11364	0.466
Mof_C 	C 	0.8252	0.0995	0.556	0.307
Mof_C 	C 	0.8196	0.1235	0.4619	-0.021
Mof_C 	C 	0.8138	0.0775	0.3814	-0.011
Mof_C 	C 	0.8168	0.981	0.3579	0.307
Mof_C 	C 	0.8076	0.2187	0.3499	0.106
Mof_H 	H 	0.8032	0.2737	0.3168	0.026
Mof_C 	C 	0.8288	0.3988	0.7475	0.298
Mof_C 	C 	0.8232	0.3747	0.8372	-0.011
Mof_C 	C 	0.8205	0.4235	0.9139	-0.011
Mof_C 	C 	0.8224	0.5197	0.9367	0.305
Mof_C 	C 	0.8139	0.2817	0.9394	0.099
Mof_H 	H 	0.8112	0.227	0.97	0.029
Mof_C 	C 	0.9049	0.2723	0.1951	0.28
Mof_C 	C 	0.9594	0.2054	0.2278	0.003
Mof_C 	C 	0.6606	0.3692	0.5596	0.098
Mof_H 	H 	0.6947	0.3845	0.6204	0.011
Mof_C 	C 	0.5864	0.385	0.5407	-0.147
Mof_H 	H 	0.5705	0.413	0.5856	0.082
Mof_C 	C 	0.5369	0.3594	0.4562	0.077
Mof_C 	C 	0.5605	0.3184	0.395	-0.142
Mof_H 	H 	0.5263	0.2964	0.337	0.071
Mof_C 	C 	0.6371	0.3088	0.4189	0.074
Mof_H 	H 	0.6543	0.2821	0.3745	0.009
Mof_C 	C 	0.4553	0.3722	0.4346	0.032
Mof_C 	C 	0.4282	0.3677	0.5091	-0.108
Mof_H 	H 	0.461	0.3566	0.5716	0.065
Mof_C 	C 	0.3519	0.3803	0.4875	0.07
Mof_H 	H 	0.3336	0.3757	0.5368	0.011
Mof_C 	C 	0.3311	0.4022	0.3321	0.059
Mof_H 	H 	0.2967	0.4128	0.2703	0.029
Mof_C 	C 	0.4047	0.3916	0.3455	-0.112
Mof_H 	H 	0.4207	0.3976	0.2945	0.065
Mof_C 	C 	0.3627	0.1957	0.7912	0.074
Mof_H 	H 	0.345	0.2265	0.7329	0.009
Mof_C 	C 	0.4398	0.1845	0.8352	-0.124
Mof_H 	H 	0.473	0.2051	0.8071	0.064
Mof_C 	C 	0.4652	0.1424	0.9212	0.048
Mof_C 	C 	0.413	0.1121	0.9558	-0.117
Mof_H 	H 	0.4293	0.083	0.015	0.071
Mof_C 	C 	0.339	0.1229	0.907	0.071
Mof_H 	H 	0.3045	0.099	0.9316	0.021
Mof_C 	C 	0.5463	0.1314	0.9745	0.059
Mof_C 	C 	0.5964	0.1132	0.9357	-0.133
Mof_H 	H 	0.5798	0.1084	0.8694	0.072
Mof_C 	C 	0.6696	0.1015	0.9867	0.075
Mof_H 	H 	0.7025	0.0884	0.9554	0.026
Mof_C 	C 	0.6473	0.1257	0.12	0.082
Mof_H 	H 	0.6652	0.1309	0.1863	0.009
Mof_C 	C 	0.574	0.1366	0.0725	-0.131
Mof_H 	H 	0.5415	0.1478	0.1049	0.073
Mof_N 	N 	0.8147	0.2158	0.4379	-0.139
Mof_N 	N 	0.8069	0.1394	0.3099	-0.137
Mof_N 	N 	0.8185	0.2851	0.8562	-0.139
Mof_N 	N 	0.8134	0.3639	0.9773	-0.134
Mof_N 	N 	0.9364	0.1209	0.2165	-0.126
Mof_N 	N 	0.6878	0.3354	0.5017	-0.153
Mof_N 	N 	0.3046	0.3982	0.4029	-0.149
Mof_N 	N 	0.3135	0.1672	0.8239	-0.145
Mof_N 	N 	0.6968	0.108	0.0805	-0.151
Mof_O 	O 	0.8283	0.0192	0.5778	-0.274
Mof_O 	O 	0.8281	0.1646	0.611	-0.296
Mof_O 	O 	0.8164	0.9204	0.4094	-0.262
Mof_O 	O 	0.8198	0.9672	0.2776	-0.303
Mof_O 	O 	0.8289	0.3339	0.6944	-0.294
Mof_O 	O 	0.8348	0.48	0.7288	-0.258
Mof_O 	O 	0.8259	0.5799	0.8866	-0.253
Mof_O 	O 	0.8225	0.5362	0.0187	-0.299
Mof_O 	O 	0.8389	0.2514	0.1574	-0.277
Mof_O 	O 	0.9228	0.3565	0.2019	-0.229
Mof_Cd	Cd	0.18191	0.08663	0.32166	0.447
Mof_Cd	Cd	0.18064	0.31636	0.95543	0.439
Mof_Cd	Cd	0.81967	0.18117	0.75468	0.435
Mof_Cd	Cd	0.18446	0.41939	0.38636	0.466
Mof_C 	C 	0.1748	0.0995	0.944	0.307
Mof_C 	C 	0.1804	0.1235	0.0381	-0.023
Mof_C 	C 	0.1862	0.0775	0.1186	-0.012
Mof_C 	C 	0.1832	0.981	0.1421	0.307
Mof_C 	C 	0.1924	0.2187	0.1501	0.105
Mof_H 	H 	0.1968	0.2737	0.1832	0.026
Mof_C 	C 	0.1712	0.3988	0.7525	0.297
Mof_C 	C 	0.1768	0.3747	0.6628	-0.012
Mof_C 	C 	0.1795	0.4235	0.5861	-0.012
Mof_C 	C 	0.1776	0.5197	0.5633	0.304
Mof_C 	C 	0.1861	0.2817	0.5606	0.098
Mof_H 	H 	0.1888	0.227	0.53	0.028
Mof_C 	C 	0.0951	0.2723	0.3049	0.285
Mof_C 	C 	0.0406	0.2054	0.2722	-0.014
Mof_C 	C 	0.3394	0.3692	0.9404	0.098
Mof_H 	H 	0.3053	0.3845	0.8796	0.011
Mof_C 	C 	0.4136	0.385	0.9593	-0.147
Mof_H 	H 	0.4295	0.413	0.9144	0.082
Mof_C 	C 	0.4631	0.3594	0.0438	0.077
Mof_C 	C 	0.4395	0.3184	0.105	-0.142
Mof_H 	H 	0.4737	0.2964	0.163	0.071
Mof_C 	C 	0.3629	0.3088	0.0811	0.074
Mof_H 	H 	0.3457	0.2821	0.1255	0.009
Mof_C 	C 	0.5447	0.3722	0.0654	0.032
Mof_C 	C 	0.5718	0.3677	0.9909	-0.107
Mof_H 	H 	0.539	0.3566	0.9284	0.065
Mof_C 	C 	0.6481	0.3803	0.0125	0.069
Mof_H 	H 	0.6664	0.3757	0.9632	0.011
Mof_C 	C 	0.6689	0.4022	0.1679	0.059
Mof_H 	H 	0.7033	0.4128	0.2297	0.029
Mof_C 	C 	0.5953	0.3916	0.1545	-0.112
Mof_H 	H 	0.5793	0.3976	0.2055	0.065
Mof_C 	C 	0.6373	0.1957	0.7088	0.075
Mof_H 	H 	0.655	0.2265	0.7671	0.009
Mof_C 	C 	0.5602	0.1845	0.6648	-0.125
Mof_H 	H 	0.527	0.2051	0.6929	0.065
Mof_C 	C 	0.5348	0.1424	0.5788	0.049
Mof_C 	C 	0.587	0.1121	0.5442	-0.12
Mof_H 	H 	0.5707	0.083	0.485	0.073
Mof_C 	C 	0.661	0.1229	0.593	0.073
Mof_H 	H 	0.6955	0.099	0.5684	0.02
Mof_C 	C 	0.4537	0.1314	0.5255	0.057
Mof_C 	C 	0.4036	0.1132	0.5643	-0.131
Mof_H 	H 	0.4202	0.1084	0.6306	0.072
Mof_C 	C 	0.3304	0.1015	0.5133	0.073
Mof_H 	H 	0.2975	0.0884	0.5446	0.027
Mof_C 	C 	0.3527	0.1257	0.38	0.081
Mof_H 	H 	0.3348	0.1309	0.3137	0.009
Mof_C 	C 	0.426	0.1366	0.4275	-0.129
Mof_H 	H 	0.4585	0.1478	0.3951	0.072
Mof_N 	N 	0.1853	0.2158	0.0621	-0.14
Mof_N 	N 	0.1931	0.1394	0.1901	-0.137
Mof_N 	N 	0.1815	0.2851	0.6438	-0.139
Mof_N 	N 	0.1866	0.3639	0.5227	-0.134
Mof_N 	N 	0.0636	0.1209	0.2835	-0.127
Mof_N 	N 	0.3122	0.3354	0.9983	-0.153
Mof_N 	N 	0.6954	0.3982	0.0971	-0.149
Mof_N 	N 	0.6865	0.1672	0.6761	-0.146
Mof_N 	N 	0.3032	0.108	0.4195	-0.15
Mof_O 	O 	0.1717	0.0192	0.9222	-0.275
Mof_O 	O 	0.1719	0.1646	0.889	-0.297
Mof_O 	O 	0.1836	0.9204	0.0906	-0.263
Mof_O 	O 	0.1802	0.9672	0.2224	-0.304
Mof_O 	O 	0.1711	0.3339	0.8056	-0.295
Mof_O 	O 	0.1652	0.48	0.7712	-0.259
Mof_O 	O 	0.1741	0.5799	0.6134	-0.255
Mof_O 	O 	0.1775	0.5362	0.4813	-0.3
Mof_O 	O 	0.1611	0.2514	0.3426	-0.279
Mof_O 	O 	0.0772	0.3565	0.2981	-0.235
Mof_Cd	Cd	0.18191	0.91337	0.82166	0.446
Mof_Cd	Cd	0.18064	0.68364	0.45543	0.439
Mof_Cd	Cd	0.81967	0.81883	0.25468	0.435
Mof_Cd	Cd	0.18446	0.58061	0.88636	0.465
Mof_C 	C 	0.1748	0.9005	0.444	0.306
Mof_C 	C 	0.1804	0.8765	0.5381	-0.022
Mof_C 	C 	0.1862	0.9225	0.6186	-0.012
Mof_C 	C 	0.1832	0.019	0.6421	0.306
Mof_C 	C 	0.1924	0.7813	0.6501	0.105
Mof_H 	H 	0.1968	0.7263	0.6832	0.026
Mof_C 	C 	0.1712	0.6012	0.2525	0.297
Mof_C 	C 	0.1768	0.6253	0.1628	-0.012
Mof_C 	C 	0.1795	0.5765	0.0861	-0.012
Mof_C 	C 	0.1776	0.4803	0.0633	0.305
Mof_C 	C 	0.1861	0.7183	0.0606	0.098
Mof_H 	H 	0.1888	0.773	0.03	0.029
Mof_C 	C 	0.0951	0.7277	0.8049	0.285
Mof_C 	C 	0.0406	0.7946	0.7722	-0.014
Mof_C 	C 	0.3394	0.6308	0.4404	0.098
Mof_H 	H 	0.3053	0.6155	0.3796	0.011
Mof_C 	C 	0.4136	0.615	0.4593	-0.147
Mof_H 	H 	0.4295	0.587	0.4144	0.082
Mof_C 	C 	0.4631	0.6406	0.5438	0.077
Mof_C 	C 	0.4395	0.6816	0.605	-0.142
Mof_H 	H 	0.4737	0.7036	0.663	0.071
Mof_C 	C 	0.3629	0.6912	0.5811	0.074
Mof_H 	H 	0.3457	0.7179	0.6255	0.009
Mof_C 	C 	0.5447	0.6278	0.5654	0.032
Mof_C 	C 	0.5718	0.6323	0.4909	-0.108
Mof_H 	H 	0.539	0.6434	0.4284	0.065
Mof_C 	C 	0.6481	0.6197	0.5125	0.07
Mof_H 	H 	0.6664	0.6243	0.4632	0.011
Mof_C 	C 	0.6689	0.5978	0.6679	0.059
Mof_H 	H 	0.7033	0.5872	0.7297	0.029
Mof_C 	C 	0.5953	0.6084	0.6545	-0.112
Mof_H 	H 	0.5793	0.6024	0.7055	0.065
Mof_C 	C 	0.6373	0.8043	0.2088	0.074
Mof_H 	H 	0.655	0.7735	0.2671	0.009
Mof_C 	C 	0.5602	0.8155	0.1648	-0.124
Mof_H 	H 	0.527	0.7949	0.1929	0.064
Mof_C 	C 	0.5348	0.8576	0.0788	0.047
Mof_C 	C 	0.587	0.8879	0.0442	-0.116
Mof_H 	H 	0.5707	0.917	0.985	0.071
Mof_C 	C 	0.661	0.8771	0.093	0.071
Mof_H 	H 	0.6955	0.901	0.0684	0.021
Mof_C 	C 	0.4537	0.8686	0.0255	0.061
Mof_C 	C 	0.4036	0.8868	0.0643	-0.134
Mof_H 	H 	0.4202	0.8916	0.1306	0.073
Mof_C 	C 	0.3304	0.8985	0.0133	0.076
Mof_H 	H 	0.2975	0.9116	0.0446	0.026
Mof_C 	C 	0.3527	0.8743	0.88	0.083
Mof_H 	H 	0.3348	0.8691	0.8137	0.009
Mof_C 	C 	0.426	0.8634	0.9275	-0.132
Mof_H 	H 	0.4585	0.8522	0.8951	0.073
Mof_N 	N 	0.1853	0.7842	0.5621	-0.14
Mof_N 	N 	0.1931	0.8606	0.6901	-0.137
Mof_N 	N 	0.1815	0.7149	0.1438	-0.139
Mof_N 	N 	0.1866	0.6361	0.0227	-0.134
Mof_N 	N 	0.0636	0.8791	0.7835	-0.127
Mof_N 	N 	0.3122	0.6646	0.4983	-0.153
Mof_N 	N 	0.6954	0.6018	0.5971	-0.149
Mof_N 	N 	0.6865	0.8328	0.1761	-0.145
Mof_N 	N 	0.3032	0.892	0.9195	-0.151
Mof_O 	O 	0.1717	0.9808	0.4222	-0.275
Mof_O 	O 	0.1719	0.8354	0.389	-0.297
Mof_O 	O 	0.1836	0.0796	0.5906	-0.263
Mof_O 	O 	0.1802	0.0328	0.7224	-0.304
Mof_O 	O 	0.1711	0.6661	0.3056	-0.295
Mof_O 	O 	0.1652	0.52	0.2712	-0.259
Mof_O 	O 	0.1741	0.4201	0.1134	-0.255
Mof_O 	O 	0.1775	0.4638	0.9813	-0.3
Mof_O 	O 	0.1611	0.7486	0.8426	-0.279
Mof_O 	O 	0.0772	0.6435	0.7981	-0.235
Mof_Cd	Cd	0.81809	0.91337	0.67834	0.448
Mof_Cd	Cd	0.81936	0.68364	0.04457	0.441
Mof_Cd	Cd	0.18033	0.81883	0.24532	0.433
Mof_Cd	Cd	0.81554	0.58061	0.61364	0.467
Mof_C 	C 	0.8252	0.9005	0.056	0.308
Mof_C 	C 	0.8196	0.8765	0.9619	-0.022
Mof_C 	C 	0.8138	0.9225	0.8814	-0.011
Mof_C 	C 	0.8168	0.019	0.8579	0.307
Mof_C 	C 	0.8076	0.7813	0.8499	0.106
Mof_H 	H 	0.8032	0.7263	0.8168	0.026
Mof_C 	C 	0.8288	0.6012	0.2475	0.298
Mof_C 	C 	0.8232	0.6253	0.3372	-0.011
Mof_C 	C 	0.8205	0.5765	0.4139	-0.011
Mof_C 	C 	0.8224	0.4803	0.4367	0.305
Mof_C 	C 	0.8139	0.7183	0.4394	0.099
Mof_H 	H 	0.8112	0.773	0.47	0.029
Mof_C 	C 	0.9049	0.7277	0.6951	0.28
Mof_C 	C 	0.9594	0.7946	0.7278	0.004
Mof_C 	C 	0.6606	0.6308	0.0596	0.097
Mof_H 	H 	0.6947	0.6155	0.1204	0.011
Mof_C 	C 	0.5864	0.615	0.0407	-0.147
Mof_H 	H 	0.5705	0.587	0.0856	0.082
Mof_C 	C 	0.5369	0.6406	0.9562	0.077
Mof_C 	C 	0.5605	0.6816	0.895	-0.141
Mof_H 	H 	0.5263	0.7036	0.837	0.071
Mof_C 	C 	0.6371	0.6912	0.9189	0.074
Mof_H 	H 	0.6543	0.7179	0.8745	0.009
Mof_C 	C 	0.4553	0.6278	0.9346	0.031
Mof_C 	C 	0.4282	0.6323	0.0091	-0.105
Mof_H 	H 	0.461	0.6434	0.0716	0.064
Mof_C 	C 	0.3519	0.6197	0.9875	0.067
Mof_H 	H 	0.3336	0.6243	0.0368	0.012
Mof_C 	C 	0.3311	0.5978	0.8321	0.058
Mof_H 	H 	0.2967	0.5872	0.7703	0.029
Mof_C 	C 	0.4047	0.6084	0.8455	-0.111
Mof_H 	H 	0.4207	0.6024	0.7945	0.065
Mof_C 	C 	0.3627	0.8043	0.2912	0.075
Mof_H 	H 	0.345	0.7735	0.2329	0.009
Mof_C 	C 	0.4398	0.8155	0.3352	-0.125
Mof_H 	H 	0.473	0.7949	0.3071	0.065
Mof_C 	C 	0.4652	0.8576	0.4212	0.049
Mof_C 	C 	0.413	0.8879	0.4558	-0.12
Mof_H 	H 	0.4293	0.917	0.515	0.073
Mof_C 	C 	0.339	0.8771	0.407	0.073
Mof_H 	H 	0.3045	0.901	0.4316	0.021
Mof_C 	C 	0.5463	0.8686	0.4745	0.057
Mof_C 	C 	0.5964	0.8868	0.4357	-0.131
Mof_H 	H 	0.5798	0.8916	0.3694	0.072
Mof_C 	C 	0.6696	0.8985	0.4867	0.073
Mof_H 	H 	0.7025	0.9116	0.4554	0.027
Mof_C 	C 	0.6473	0.8743	0.62	0.081
Mof_H 	H 	0.6652	0.8691	0.6863	0.009
Mof_C 	C 	0.574	0.8634	0.5725	-0.129
Mof_H 	H 	0.5415	0.8522	0.6049	0.072
Mof_N 	N 	0.8147	0.7842	0.9379	-0.139
Mof_N 	N 	0.8069	0.8606	0.8099	-0.137
Mof_N 	N 	0.8185	0.7149	0.3562	-0.139
Mof_N 	N 	0.8134	0.6361	0.4773	-0.134
Mof_N 	N 	0.9364	0.8791	0.7165	-0.126
Mof_N 	N 	0.6878	0.6646	0.0017	-0.152
Mof_N 	N 	0.3046	0.6018	0.9029	-0.148
Mof_N 	N 	0.3135	0.8328	0.3239	-0.146
Mof_N 	N 	0.6968	0.892	0.5805	-0.15
Mof_O 	O 	0.8283	0.9808	0.0778	-0.273
Mof_O 	O 	0.8281	0.8354	0.111	-0.296
Mof_O 	O 	0.8164	0.0796	0.9094	-0.262
Mof_O 	O 	0.8198	0.0328	0.7776	-0.303
Mof_O 	O 	0.8289	0.6661	0.1944	-0.294
Mof_O 	O 	0.8348	0.52	0.2288	-0.258
Mof_O 	O 	0.8259	0.4201	0.3866	-0.253
Mof_O 	O 	0.8225	0.4638	0.5187	-0.299
Mof_O 	O 	0.8389	0.7486	0.6574	-0.277
Mof_O 	O 	0.9228	0.6435	0.7019	-0.229
Mof_C 	C 	-1.38036e-17	0.0679	0.25	0.082
Mof_H 	H 	-1.38036e-17	0.0041	0.25	0.02
Mof_C 	C 	-2.76071e-17	0.9321	0.75	0.081
Mof_H 	H 	-2.76071e-17	0.9959	0.75	0.02
_end
