data_functionalizedCrystal
_audit_creation_method	'EQeq! by Chris Wilmer'
_symmetry_space_group_name_H-M	'P1'
_symmetry_Int_Tables_number	1
_symmetry_cell_setting	triclinic
loop_
_symmetry_equiv_pos_as_xyz
  x,y,z
_cell_length_a	12.1538
_cell_length_b	12.1574
_cell_length_c	16.1536
_cell_angle_alpha	77.045
_cell_angle_beta	82.55
_cell_angle_gamma	83.527
loop_
_atom_site_label
_atom_site_type_symbol
_atom_site_fract_x
_atom_site_fract_y
_atom_site_fract_z
_atom_site_charge
Mof_N 	N 	0.1121	0.3791	0.59777	-0.149
Mof_C 	C 	0.1353	0.2653	0.6134	0.089
Mof_C 	C 	0.1615	0.4098	0.6567	0.105
Mof_N 	N 	0.1944	0.2236	0.6773	-0.094
Mof_N 	N 	0.2108	0.3192	0.7051	-0.118
Mof_N 	N 	0.8721	0.9809	0.6193	-0.13
Mof_C 	C 	0.8101	0.8935	0.6575	0.104
Mof_C 	C 	0.8395	0.0583	0.6657	0.087
Mof_H 	H 	0.8665	0.1292	0.6559	0.022
Mof_N 	N 	0.742	0.9124	0.7242	-0.087
Mof_N 	N 	0.7624	0.0192	0.72834	-0.119
Mof_C 	C 	0.7127	0.0704	0.7971	0.12
Mof_C 	C 	0.6768	0.1853	0.7795	-0.082
Mof_N 	N 	0.2527	0.4679	0.27615	-0.116
Mof_C 	C 	0.5498	0.216	0.0016	-0.019
Mof_C 	C 	0.4521	0.2808	0.9922	-0.013
Mof_N 	N 	0.1455	0.4974	0.38938	-0.152
Mof_C 	C 	0.612	0.1676	0.9304	0.003
Mof_C 	C 	0.158	0.4433	0.3258	0.101
Mof_H 	H 	0.1083	0.3953	0.317	-0.004
Mof_C 	C 	0.3005	0.4277	0.2012	0.117
Mof_C 	C 	0.3899	0.2935	0.9166	-0.005
Mof_C 	C 	0.5981	0.1808	0.0845	0.003
Mof_C 	C 	0.8398	0.0506	0.3358	0.107
Mof_H 	H 	0.9009	0.0539	0.2944	0.011
Mof_H 	H 	0.162	0.478	0.66	0.006
Mof_O 	O 	0.084	0.6315	0.54422	-0.316
Mof_N 	N 	0.8455	0.0218	0.41897	-0.142
Mof_O 	O 	0.0105	0.8088	0.50396	-0.329
Mof_N 	N 	0.7342	0.0744	0.31942	-0.116
Mof_C 	C 	0.7569	0.1518	0.1658	-0.116
Mof_H 	H 	0.8322	0.157	0.1679	0.082
Mof_C 	C 	0.2749	0.4044	0.8117	-0.123
Mof_H 	H 	0.239	0.4739	0.7882	0.076
Mof_N 	N 	0.6662	0.0655	0.3944	-0.091
Mof_C 	C 	0.5325	0.1362	0.1595	-0.021
Mof_H 	H 	0.4575	0.1297	0.1574	0.049
Mof_C 	C 	0.6887	0.1095	0.2396	0.121
Mof_C 	C 	0.4586	0.3984	0.1015	-0.017
Mof_H 	H 	0.5324	0.4094	0.0806	0.042
Mof_C 	C 	0.3325	0.3931	0.8813	-0.016
Mof_H 	H 	0.3326	0.4557	0.9055	0.037
Mof_C 	C 	0.2359	0.3747	0.1599	-0.115
Mof_H 	H 	0.1608	0.3686	0.1787	0.068
Mof_C 	C 	0.5766	0.1015	0.2364	-0.114
Mof_H 	H 	0.5315	0.0729	0.2859	0.089
Mof_C 	C 	0.3211	0.2062	0.8133	-0.121
Mof_H 	H 	0.3155	0.1427	0.7914	0.086
Mof_C 	C 	0.6591	0.0576	0.9451	-0.005
Mof_H 	H 	0.6578	0.0158	0.001	0.031
Mof_C 	C 	0.2845	0.3307	0.0904	-0.02
Mof_H 	H 	0.241	0.2956	0.0623	0.035
Mof_C 	C 	0.0792	0.7362	0.5378	0.395
Mof_H 	H 	0.1343	0.7624	0.5615	-0.085
Mof_C 	C 	0.4115	0.4415	0.1714	-0.113
Mof_H 	H 	0.4537	0.4794	0.1982	0.085
Mof_N 	N 	0.3066	0.5389	0.3086	-0.094
Mof_C 	C 	0.3797	0.1973	0.8827	-0.014
Mof_H 	H 	0.4131	0.1271	0.9077	0.036
Mof_C 	C 	0.2711	0.3102	0.7769	0.123
Mof_C 	C 	0.6276	0.2338	0.8469	-0.031
Mof_H 	H 	0.6047	0.3108	0.8368	0.055
Mof_H 	H 	0.683	0.234	0.718	0.066
Mof_C 	C 	0.7109	0.1858	0.0894	-0.021
Mof_H 	H 	0.7566	0.2129	0.0399	0.047
Mof_C 	C 	0.7086	0.0075	0.8788	-0.147
Mof_H 	H 	0.7384	0.9324	0.8897	0.104
Mof_C 	C 	0.2385	0.5541	0.3762	0.094
Mof_H 	H 	0.253	0.5998	0.4119	0.017
Mof_C 	C 	0.737	0.0343	0.4514	0.099
Mof_H 	H 	0.7148	0.0216	0.5098	0.013
Mof_H 	H 	0.817	0.831	0.643	0.016
Mof_H 	H 	0.112	0.221	0.581	0.02
Mof_C 	C 	0.3974	0.3382	0.0616	-0.001
Mof_N 	N 	0.8879	0.6209	0.40223	-0.133
Mof_C 	C 	0.8647	0.7347	0.3866	0.097
Mof_C 	C 	0.8385	0.5902	0.3433	0.115
Mof_N 	N 	0.8056	0.7764	0.3227	-0.083
Mof_N 	N 	0.7892	0.6808	0.2949	-0.116
Mof_N 	N 	0.1279	0.0191	0.3807	-0.168
Mof_C 	C 	0.1899	0.1065	0.3425	0.089
Mof_C 	C 	0.1605	0.9417	0.3343	0.112
Mof_H 	H 	0.1335	0.8708	0.3441	0.002
Mof_N 	N 	0.258	0.0876	0.2758	-0.101
Mof_N 	N 	0.2376	0.9808	0.27166	-0.106
Mof_C 	C 	0.2873	0.9296	0.2029	0.08
Mof_C 	C 	0.3232	0.8147	0.2205	-0.055
Mof_N 	N 	0.7473	0.5321	0.72385	-0.114
Mof_C 	C 	0.4502	0.784	0.9984	-0.03
Mof_C 	C 	0.5479	0.7192	0.0078	-0.007
Mof_N 	N 	0.8545	0.5026	0.61062	-0.137
Mof_C 	C 	0.388	0.8324	0.0696	0.035
Mof_C 	C 	0.842	0.5567	0.6742	0.108
Mof_H 	H 	0.8917	0.6047	0.683	0.017
Mof_C 	C 	0.6995	0.5723	0.7988	0.126
Mof_C 	C 	0.6101	0.7065	0.0834	-0.008
Mof_C 	C 	0.4019	0.8192	0.9155	0.01
Mof_C 	C 	0.1602	0.9494	0.6642	0.108
Mof_H 	H 	0.0991	0.9461	0.7056	-0.004
Mof_H 	H 	0.838	0.522	0.34	0.011
Mof_O 	O 	0.916	0.3685	0.45578	-0.286
Mof_N 	N 	0.1545	0.9782	0.58103	-0.149
Mof_O 	O 	0.9895	0.1912	0.49604	-0.283
Mof_N 	N 	0.2658	0.9256	0.68058	-0.115
Mof_C 	C 	0.2431	0.8482	0.8342	-0.112
Mof_H 	H 	0.1678	0.843	0.8321	0.069
Mof_C 	C 	0.7251	0.5956	0.1883	-0.125
Mof_H 	H 	0.761	0.5261	0.2118	0.085
Mof_N 	N 	0.3338	0.9345	0.6056	-0.087
Mof_C 	C 	0.4675	0.8638	0.8405	-0.023
Mof_H 	H 	0.5425	0.8703	0.8426	0.055
Mof_C 	C 	0.3113	0.8905	0.7604	0.12
Mof_C 	C 	0.5414	0.6016	0.8985	-0.012
Mof_H 	H 	0.4676	0.5906	0.9194	0.039
Mof_C 	C 	0.6675	0.6069	0.1187	-0.008
Mof_H 	H 	0.6674	0.5443	0.0945	0.038
Mof_C 	C 	0.7641	0.6253	0.8401	-0.118
Mof_H 	H 	0.8392	0.6314	0.8213	0.085
Mof_C 	C 	0.4234	0.8985	0.7636	-0.108
Mof_H 	H 	0.4685	0.9271	0.7141	0.094
Mof_C 	C 	0.6789	0.7938	0.1867	-0.122
Mof_H 	H 	0.6845	0.8573	0.2086	0.098
Mof_C 	C 	0.3409	0.9424	0.0549	-0.068
Mof_H 	H 	0.3422	0.9842	0.999	0.061
Mof_C 	C 	0.7155	0.6693	0.9096	-0.013
Mof_H 	H 	0.759	0.7044	0.9377	0.044
Mof_C 	C 	0.9208	0.2638	0.4622	0.386
Mof_H 	H 	0.8657	0.2376	0.4385	-0.076
Mof_C 	C 	0.5885	0.5585	0.8286	-0.117
Mof_H 	H 	0.5463	0.5206	0.8018	0.087
Mof_N 	N 	0.6934	0.4611	0.6914	-0.093
Mof_C 	C 	0.6203	0.8027	0.1173	-0.006
Mof_H 	H 	0.5869	0.8729	0.0923	0.043
Mof_C 	C 	0.7289	0.6898	0.2231	0.135
Mof_C 	C 	0.3724	0.7662	0.1531	-0.062
Mof_H 	H 	0.3953	0.6892	0.1632	0.063
Mof_H 	H 	0.317	0.766	0.282	0.058
Mof_C 	C 	0.2891	0.8142	0.9106	-0.028
Mof_H 	H 	0.2434	0.7871	0.9601	0.041
Mof_C 	C 	0.2914	0.9925	0.1212	-0.047
Mof_H 	H 	0.2616	0.0676	0.1103	0.043
Mof_C 	C 	0.7615	0.4459	0.6238	0.098
Mof_H 	H 	0.747	0.4002	0.5881	0.018
Mof_C 	C 	0.263	0.9657	0.5486	0.102
Mof_H 	H 	0.2852	0.9784	0.4902	0.02
Mof_H 	H 	0.183	0.169	0.357	0.006
Mof_H 	H 	0.888	0.779	0.419	0.047
Mof_C 	C 	0.6026	0.6618	0.9384	-0.003
Mof_Cd	Cd	-0	0.5	0.5	0.401
Mof_Cd	Cd	-0	0	0.5	0.372
_end
