data_functionalizedCrystal
_audit_creation_method	'EQeq! by Chris Wilmer'
_symmetry_space_group_name_H-M	'P1'
_symmetry_Int_Tables_number	1
_symmetry_cell_setting	triclinic
loop_
_symmetry_equiv_pos_as_xyz
  x,y,z
_cell_length_a	11.3887
_cell_length_b	13.7495
_cell_length_c	13.7495
_cell_angle_alpha	80.1238
_cell_angle_beta	65.5341
_cell_angle_gamma	65.5342
loop_
_atom_site_label
_atom_site_type_symbol
_atom_site_fract_x
_atom_site_fract_y
_atom_site_fract_z
_atom_site_charge
Mof_Zn	Zn	0.33712	0.5508	0.47294	1.109
Mof_Zn	Zn	0.86086	0.9492	0.02706	1.107
Mof_Zn	Zn	0.81006	0.52706	0.0508	1.109
Mof_Zn	Zn	0.88792	0.97294	0.4492	1.108
Mof_Zn	Zn	0.66288	0.4492	0.52706	1.109
Mof_Zn	Zn	0.13914	0.0508	0.97294	1.107
Mof_Zn	Zn	0.18994	0.47294	0.9492	1.109
Mof_Zn	Zn	0.11208	0.02706	0.5508	1.108
Mof_H 	H 	0.9102	0.4218	0.343	0.088
Mof_H 	H 	0.9558	0.3847	0.2267	0.128
Mof_H 	H 	0.9348	0.5008	0.2468	0.101
Mof_H 	H 	0.504	0.5736	0.226	-0.122
Mof_H 	H 	0.175	0.0782	0.157	0.092
Mof_H 	H 	0.0672	0.1153	0.2733	0.13
Mof_H 	H 	0.1824	0.9992	0.2532	0.104
Mof_H 	H 	0.8036	0.9264	0.274	-0.123
Mof_H 	H 	0.2532	0.657	0.9218	0.09
Mof_H 	H 	0.1825	0.7733	0.8847	0.131
Mof_H 	H 	0.1816	0.7532	0.0008	0.104
Mof_H 	H 	0.73	0.774	0.0736	-0.123
Mof_H 	H 	0.332	0.843	0.5782	0.091
Mof_H 	H 	0.3405	0.7267	0.6153	0.13
Mof_H 	H 	0.4356	0.7468	0.4992	0.103
Mof_H 	H 	0.0776	0.726	0.4264	-0.122
Mof_H 	H 	0.0898	0.5782	0.657	0.088
Mof_H 	H 	0.0442	0.6153	0.7733	0.128
Mof_H 	H 	0.0652	0.4992	0.7532	0.101
Mof_H 	H 	0.496	0.4264	0.774	-0.122
Mof_H 	H 	0.825	0.9218	0.843	0.092
Mof_H 	H 	0.9328	0.8847	0.7267	0.13
Mof_H 	H 	0.8176	0.0008	0.7468	0.104
Mof_H 	H 	0.1964	0.0736	0.726	-0.123
Mof_H 	H 	0.7468	0.343	0.0782	0.09
Mof_H 	H 	0.8175	0.2267	0.1153	0.131
Mof_H 	H 	0.8184	0.2468	0.9992	0.104
Mof_H 	H 	0.27	0.226	0.9264	-0.123
Mof_H 	H 	0.668	0.157	0.4218	0.091
Mof_H 	H 	0.6595	0.2733	0.3847	0.13
Mof_H 	H 	0.5644	0.2532	0.5008	0.103
Mof_H 	H 	0.9224	0.274	0.5736	-0.122
Mof_C 	C 	0.9015	0.4441	0.2753	-0.571
Mof_C 	C 	0.7515	0.4829	0.2903	0.181
Mof_C 	C 	0.56627	0.54535	0.26051	0.062
Mof_C 	C 	0.1209	0.0559	0.2247	-0.577
Mof_C 	C 	0.0247	0.0171	0.2097	0.185
Mof_C 	C 	0.87213	0.95465	0.23949	0.06
Mof_C 	C 	0.1768	0.7247	0.9441	-0.575
Mof_C 	C 	0.0418	0.7097	0.9829	0.185
Mof_C 	C 	0.82678	0.73949	0.04535	0.061
Mof_C 	C 	0.3456	0.7753	0.5559	-0.575
Mof_C 	C 	0.2344	0.7903	0.5171	0.182
Mof_C 	C 	0.11162	0.76051	0.45465	0.062
Mof_C 	C 	0.0985	0.5559	0.7247	-0.571
Mof_C 	C 	0.2485	0.5171	0.7097	0.181
Mof_C 	C 	0.43373	0.45465	0.73949	0.062
Mof_C 	C 	0.8791	0.9441	0.7753	-0.577
Mof_C 	C 	0.9753	0.9829	0.7903	0.185
Mof_C 	C 	0.12787	0.04535	0.76051	0.06
Mof_C 	C 	0.8232	0.2753	0.0559	-0.575
Mof_C 	C 	0.9582	0.2903	0.0171	0.185
Mof_C 	C 	0.17322	0.26051	0.95465	0.061
Mof_C 	C 	0.6544	0.2247	0.4441	-0.575
Mof_C 	C 	0.7656	0.2097	0.4829	0.182
Mof_C 	C 	0.88838	0.23949	0.54535	0.062
Mof_N 	N 	0.52914	0.5268	0.36332	-0.309
Mof_N 	N 	0.65003	0.48617	0.38297	-0.322
Mof_N 	N 	0.70461	0.51889	0.21049	-0.345
Mof_N 	N 	0.91926	0.9732	0.13668	-0.312
Mof_N 	N 	0.01917	0.01383	0.11703	-0.32
Mof_N 	N 	0.93399	0.98111	0.28951	-0.349
Mof_N 	N 	0.89246	0.63668	0.0268	-0.31
Mof_N 	N 	0.033	0.61703	0.98617	-0.323
Mof_N 	N 	0.9151	0.78951	0.01889	-0.349
Mof_N 	N 	0.05594	0.86332	0.4732	-0.308
Mof_N 	N 	0.1362	0.88297	0.51383	-0.322
Mof_N 	N 	0.2235	0.71049	0.48111	-0.346
Mof_N 	N 	0.47086	0.4732	0.63668	-0.309
Mof_N 	N 	0.34997	0.51383	0.61703	-0.322
Mof_N 	N 	0.29539	0.48111	0.78951	-0.345
Mof_N 	N 	0.08074	0.0268	0.86332	-0.312
Mof_N 	N 	0.98083	0.98617	0.88297	-0.32
Mof_N 	N 	0.06601	0.01889	0.71049	-0.349
Mof_N 	N 	0.10754	0.36332	0.9732	-0.31
Mof_N 	N 	0.967	0.38297	0.01383	-0.323
Mof_N 	N 	0.0849	0.21049	0.98111	-0.349
Mof_N 	N 	0.94406	0.13668	0.5268	-0.308
Mof_N 	N 	0.8638	0.11703	0.48617	-0.322
Mof_N 	N 	0.7765	0.28951	0.51889	-0.346
_end
