data_functionalizedCrystal
_audit_creation_method	'EQeq! by Chris Wilmer'
_symmetry_space_group_name_H-M	'P1'
_symmetry_Int_Tables_number	1
_symmetry_cell_setting	triclinic
loop_
_symmetry_equiv_pos_as_xyz
  x,y,z
_cell_length_a	33.914
_cell_length_b	15.135
_cell_length_c	30.963
_cell_angle_alpha	90
_cell_angle_beta	100.727
_cell_angle_gamma	90
loop_
_atom_site_label
_atom_site_type_symbol
_atom_site_fract_x
_atom_site_fract_y
_atom_site_fract_z
_atom_site_charge
Mof_Zn	Zn	0.2308	0.141	0.0369	1.161
Mof_I 	I 	0.29156	0.2403	0.06293	-0.369
Mof_I 	I 	0.18377	0.1672	0.9636	-0.406
Mof_N 	N 	0.1977	0.1561	0.0889	-0.268
Mof_C 	C 	0.1826	0.088	0.1076	0.085
Mof_H 	H 	0.1879	0.0298	0.0981	-0.017
Mof_C 	C 	0.1598	0.096	0.1397	-0.132
Mof_H 	H 	0.1493	0.0456	0.1521	0.088
Mof_C 	C 	0.153	0.18	0.1531	0.078
Mof_C 	C 	0.1677	0.253	0.1347	-0.131
Mof_H 	H 	0.163	0.3111	0.1439	0.092
Mof_C 	C 	0.1895	0.237	0.1025	0.082
Mof_H 	H 	0.1993	0.2865	0.0889	-0.016
Mof_C 	C 	0.1305	0.1923	0.1894	0.089
Mof_N 	N 	0.1001	0.1364	0.1942	-0.13
Mof_C 	C 	0.0757	0.1561	0.2232	0.089
Mof_N 	N 	0.0817	0.2316	0.2474	-0.14
Mof_C 	C 	0.1121	0.2874	0.2426	0.081
Mof_N 	N 	0.1365	0.2678	0.2137	-0.13
Mof_N 	N 	0.9735	0.99	0.228	-0.249
Mof_C 	C 	0.9899	0.043	0.2607	0.048
Mof_H 	H 	0.9771	0.0459	0.2855	-0.005
Mof_C 	C 	0.0233	0.095	0.2621	-0.089
Mof_H 	H 	0.0331	0.1307	0.2871	0.072
Mof_C 	C 	0.0424	0.095	0.2266	0.036
Mof_C 	C 	0.0274	0.038	0.1924	-0.094
Mof_H 	H 	0.0403	0.0328	0.1678	0.076
Mof_C 	C 	0.9935	0.991	0.1948	0.053
Mof_H 	H 	0.9832	0.9544	0.1703	-0.005
Mof_Zn	Zn	0.9189	0.9123	0.2309	1.156
Mof_I 	I 	0.9339	0.763	0.201	-0.393
Mof_I 	I 	0.8857	0.9477	0.2997	-0.354
Mof_N 	N 	0.1295	0.528	0.3158	-0.275
Mof_C 	C 	0.1551	0.501	0.291	0.082
Mof_H 	H 	0.1783	0.5358	0.2903	-0.013
Mof_C 	C 	0.1496	0.426	0.2664	-0.126
Mof_H 	H 	0.1686	0.4101	0.2487	0.084
Mof_C 	C 	0.1172	0.372	0.267	0.062
Mof_C 	C 	0.0911	0.4	0.293	-0.124
Mof_H 	H 	0.0684	0.3647	0.2954	0.075
Mof_C 	C 	0.0973	0.478	0.3156	0.074
Mof_H 	H 	0.0778	0.497	0.3319	-0.012
Mof_I 	I 	0.18577	0.7375	0.32849	-0.372
Mof_Zn	Zn	0.144	0.6266	0.3628	1.164
Mof_I 	I 	0.08366	0.6597	0.3985	-0.341
Mof_N 	N 	0.1807	0.5559	0.4114	-0.274
Mof_C 	C 	0.2105	0.594	0.4394	0.081
Mof_H 	H 	0.2156	0.6547	0.4356	-0.015
Mof_C 	C 	0.2342	0.5507	0.4732	-0.142
Mof_H 	H 	0.2559	0.58	0.4916	0.086
Mof_C 	C 	0.2259	0.4641	0.4799	0.078
Mof_C 	C 	0.198	0.4175	0.4515	-0.135
Mof_H 	H 	0.1943	0.3556	0.4538	0.101
Mof_C 	C 	0.1758	0.4679	0.4195	0.082
Mof_H 	H 	0.1544	0.4387	0.4007	-0.002
Mof_C 	C 	0.2452	0.4106	0.5176	0.084
Mof_N 	N 	0.2738	0.4501	0.549	-0.13
Mof_C 	C 	0.2987	0.399	0.5793	0.074
Mof_N 	N 	0.2949	0.3084	0.5782	-0.131
Mof_C 	C 	0.2663	0.2689	0.5468	0.084
Mof_N 	N 	0.2414	0.32	0.5165	-0.123
Mof_N 	N 	0.3792	0.5247	0.6818	-0.277
Mof_C 	C 	0.3735	0.4376	0.6824	0.08
Mof_H 	H 	0.3854	0.4055	0.7078	-0.004
Mof_C 	C 	0.3513	0.392	0.648	-0.127
Mof_H 	H 	0.3502	0.3296	0.6486	0.09
Mof_C 	C 	0.3307	0.438	0.6126	0.064
Mof_C 	C 	0.3357	0.5279	0.6112	-0.137
Mof_H 	H 	0.3225	0.5619	0.587	0.095
Mof_C 	C 	0.3606	0.567	0.646	0.08
Mof_H 	H 	0.3647	0.6289	0.6445	-0.009
Mof_N 	N 	0.2466	0.9908	0.5408	-0.277
Mof_C 	C 	0.2233	0.0465	0.5142	0.067
Mof_H 	H 	0.2026	0.0244	0.4919	-0.016
Mof_C 	C 	0.2293	0.135	0.5189	-0.123
Mof_H 	H 	0.2109	0.1738	0.5011	0.083
Mof_C 	C 	0.2601	0.1725	0.5479	0.064
Mof_C 	C 	0.2816	0.1131	0.5762	-0.131
Mof_H 	H 	0.3021	0.1341	0.5991	0.082
Mof_C 	C 	0.2744	0.0242	0.5725	0.082
Mof_H 	H 	0.2897	0.9853	0.5931	-0.015
Mof_Zn	Zn	0.7308	0.641	0.0369	1.162
Mof_I 	I 	0.79156	0.7403	0.06293	-0.368
Mof_I 	I 	0.68377	0.6672	0.9636	-0.406
Mof_N 	N 	0.6977	0.6561	0.0889	-0.267
Mof_C 	C 	0.6826	0.588	0.1076	0.086
Mof_H 	H 	0.6879	0.5298	0.0981	-0.016
Mof_C 	C 	0.6598	0.596	0.1397	-0.131
Mof_H 	H 	0.6493	0.5456	0.1521	0.088
Mof_C 	C 	0.653	0.68	0.1531	0.077
Mof_C 	C 	0.6677	0.753	0.1347	-0.131
Mof_H 	H 	0.663	0.8111	0.1439	0.092
Mof_C 	C 	0.6895	0.737	0.1025	0.081
Mof_H 	H 	0.6993	0.7865	0.0889	-0.016
Mof_C 	C 	0.6305	0.6923	0.1894	0.089
Mof_N 	N 	0.6001	0.6364	0.1942	-0.129
Mof_C 	C 	0.5757	0.6561	0.2232	0.081
Mof_N 	N 	0.5817	0.7316	0.2474	-0.14
Mof_C 	C 	0.6121	0.7874	0.2426	0.08
Mof_N 	N 	0.6365	0.7678	0.2137	-0.129
Mof_N 	N 	0.4735	0.49	0.228	-0.259
Mof_C 	C 	0.4899	0.543	0.2607	0.081
Mof_H 	H 	0.4771	0.5459	0.2855	-0.013
Mof_C 	C 	0.5233	0.595	0.2621	-0.128
Mof_H 	H 	0.5331	0.6307	0.2871	0.081
Mof_C 	C 	0.5424	0.595	0.2266	0.059
Mof_C 	C 	0.5274	0.538	0.1924	-0.133
Mof_H 	H 	0.5403	0.5328	0.1678	0.086
Mof_C 	C 	0.4935	0.491	0.1948	0.086
Mof_H 	H 	0.4832	0.4544	0.1703	-0.012
Mof_Zn	Zn	0.4189	0.4123	0.2309	1.157
Mof_I 	I 	0.4339	0.263	0.201	-0.387
Mof_I 	I 	0.3857	0.4477	0.2997	-0.352
Mof_N 	N 	0.6295	0.028	0.3158	-0.275
Mof_C 	C 	0.6551	0.001	0.291	0.082
Mof_H 	H 	0.6783	0.0358	0.2903	-0.013
Mof_C 	C 	0.6496	0.926	0.2664	-0.126
Mof_H 	H 	0.6686	0.9101	0.2487	0.084
Mof_C 	C 	0.6172	0.872	0.267	0.062
Mof_C 	C 	0.5911	0.9	0.293	-0.124
Mof_H 	H 	0.5684	0.8647	0.2954	0.073
Mof_C 	C 	0.5973	0.978	0.3156	0.074
Mof_H 	H 	0.5778	0.997	0.3319	-0.013
Mof_I 	I 	0.68577	0.2375	0.32849	-0.372
Mof_Zn	Zn	0.644	0.1266	0.3628	1.164
Mof_I 	I 	0.58366	0.1597	0.3985	-0.347
Mof_N 	N 	0.6807	0.0559	0.4114	-0.274
Mof_C 	C 	0.7105	0.094	0.4394	0.081
Mof_H 	H 	0.7156	0.1547	0.4356	-0.015
Mof_C 	C 	0.7342	0.0507	0.4732	-0.141
Mof_H 	H 	0.7559	0.08	0.4916	0.086
Mof_C 	C 	0.7259	0.9641	0.4799	0.077
Mof_C 	C 	0.698	0.9175	0.4515	-0.135
Mof_H 	H 	0.6943	0.8556	0.4538	0.1
Mof_C 	C 	0.6758	0.9679	0.4195	0.082
Mof_H 	H 	0.6544	0.9387	0.4007	-0.003
Mof_C 	C 	0.7452	0.9106	0.5176	0.084
Mof_N 	N 	0.7738	0.9501	0.549	-0.13
Mof_C 	C 	0.7987	0.899	0.5793	0.074
Mof_N 	N 	0.7949	0.8084	0.5782	-0.131
Mof_C 	C 	0.7663	0.7689	0.5468	0.084
Mof_N 	N 	0.7414	0.82	0.5165	-0.123
Mof_N 	N 	0.8792	0.0247	0.6818	-0.277
Mof_C 	C 	0.8735	0.9376	0.6824	0.08
Mof_H 	H 	0.8854	0.9055	0.7078	-0.004
Mof_C 	C 	0.8513	0.892	0.648	-0.127
Mof_H 	H 	0.8502	0.8296	0.6486	0.09
Mof_C 	C 	0.8307	0.938	0.6126	0.063
Mof_C 	C 	0.8357	0.0279	0.6112	-0.136
Mof_H 	H 	0.8225	0.0619	0.587	0.095
Mof_C 	C 	0.8606	0.067	0.646	0.079
Mof_H 	H 	0.8647	0.1289	0.6445	-0.008
Mof_N 	N 	0.7466	0.4908	0.5408	-0.277
Mof_C 	C 	0.7233	0.5465	0.5142	0.067
Mof_H 	H 	0.7026	0.5244	0.4919	-0.016
Mof_C 	C 	0.7293	0.635	0.5189	-0.122
Mof_H 	H 	0.7109	0.6738	0.5011	0.082
Mof_C 	C 	0.7601	0.6725	0.5479	0.063
Mof_C 	C 	0.7816	0.6131	0.5762	-0.131
Mof_H 	H 	0.8021	0.6341	0.5991	0.082
Mof_C 	C 	0.7744	0.5242	0.5725	0.082
Mof_H 	H 	0.7897	0.4853	0.5931	-0.014
Mof_Zn	Zn	0.2308	0.859	0.5369	1.161
Mof_I 	I 	0.29156	0.7597	0.56293	-0.371
Mof_I 	I 	0.18377	0.8328	0.4636	-0.402
Mof_N 	N 	0.1977	0.8439	0.5889	-0.267
Mof_C 	C 	0.1826	0.912	0.6076	0.086
Mof_H 	H 	0.1879	0.9702	0.5981	-0.016
Mof_C 	C 	0.1598	0.904	0.6397	-0.131
Mof_H 	H 	0.1493	0.9544	0.6521	0.089
Mof_C 	C 	0.153	0.82	0.6531	0.078
Mof_C 	C 	0.1677	0.747	0.6347	-0.131
Mof_H 	H 	0.163	0.6889	0.6439	0.092
Mof_C 	C 	0.1895	0.763	0.6025	0.081
Mof_H 	H 	0.1993	0.7135	0.5889	-0.017
Mof_C 	C 	0.1305	0.8077	0.6894	0.089
Mof_N 	N 	0.1001	0.8636	0.6942	-0.13
Mof_C 	C 	0.0757	0.8439	0.7232	0.089
Mof_N 	N 	0.0817	0.7684	0.7474	-0.14
Mof_C 	C 	0.1121	0.7126	0.7426	0.081
Mof_N 	N 	0.1365	0.7322	0.7137	-0.13
Mof_N 	N 	0.9735	0.01	0.728	-0.249
Mof_C 	C 	0.9899	0.957	0.7607	0.048
Mof_H 	H 	0.9771	0.9541	0.7855	-0.005
Mof_C 	C 	0.0233	0.905	0.7621	-0.089
Mof_H 	H 	0.0331	0.8693	0.7871	0.071
Mof_C 	C 	0.0424	0.905	0.7266	0.036
Mof_C 	C 	0.0274	0.962	0.6924	-0.094
Mof_H 	H 	0.0403	0.9672	0.6678	0.076
Mof_C 	C 	0.9935	0.009	0.6948	0.053
Mof_H 	H 	0.9832	0.0456	0.6703	-0.005
Mof_Zn	Zn	0.9189	0.0877	0.7309	1.156
Mof_I 	I 	0.9339	0.237	0.701	-0.393
Mof_I 	I 	0.8857	0.0523	0.7997	-0.354
Mof_N 	N 	0.1295	0.472	0.8158	-0.275
Mof_C 	C 	0.1551	0.499	0.791	0.082
Mof_H 	H 	0.1783	0.4642	0.7903	-0.013
Mof_C 	C 	0.1496	0.574	0.7664	-0.126
Mof_H 	H 	0.1686	0.5899	0.7487	0.084
Mof_C 	C 	0.1172	0.628	0.767	0.062
Mof_C 	C 	0.0911	0.6	0.793	-0.124
Mof_H 	H 	0.0684	0.6353	0.7954	0.075
Mof_C 	C 	0.0973	0.522	0.8156	0.074
Mof_H 	H 	0.0778	0.503	0.8319	-0.012
Mof_I 	I 	0.18577	0.2625	0.82849	-0.372
Mof_Zn	Zn	0.144	0.3734	0.8628	1.164
Mof_I 	I 	0.08366	0.3403	0.8985	-0.342
Mof_N 	N 	0.1807	0.4441	0.9114	-0.274
Mof_C 	C 	0.2105	0.406	0.9394	0.079
Mof_H 	H 	0.2156	0.3453	0.9356	-0.015
Mof_C 	C 	0.2342	0.4493	0.9732	-0.138
Mof_H 	H 	0.2559	0.42	0.9916	0.084
Mof_C 	C 	0.2259	0.5359	0.9799	0.072
Mof_C 	C 	0.198	0.5825	0.9515	-0.132
Mof_H 	H 	0.1943	0.6444	0.9538	0.099
Mof_C 	C 	0.1758	0.5321	0.9195	0.08
Mof_H 	H 	0.1544	0.5613	0.9007	-0.002
Mof_C 	C 	0.2452	0.5894	0.0176	0.089
Mof_N 	N 	0.2738	0.5499	0.049	-0.129
Mof_C 	C 	0.2987	0.601	0.0793	0.075
Mof_N 	N 	0.2949	0.6916	0.0782	-0.131
Mof_C 	C 	0.2663	0.7311	0.0468	0.084
Mof_N 	N 	0.2414	0.68	0.0165	-0.123
Mof_N 	N 	0.3792	0.4753	0.1818	-0.278
Mof_C 	C 	0.3735	0.5624	0.1824	0.08
Mof_H 	H 	0.3854	0.5945	0.2078	-0.004
Mof_C 	C 	0.3513	0.608	0.148	-0.128
Mof_H 	H 	0.3502	0.6704	0.1486	0.09
Mof_C 	C 	0.3307	0.562	0.1126	0.064
Mof_C 	C 	0.3357	0.4721	0.1112	-0.137
Mof_H 	H 	0.3225	0.4381	0.087	0.096
Mof_C 	C 	0.3606	0.433	0.146	0.08
Mof_H 	H 	0.3647	0.3711	0.1445	-0.009
Mof_N 	N 	0.2466	0.0092	0.0408	-0.278
Mof_C 	C 	0.2233	0.9535	0.0142	0.076
Mof_H 	H 	0.2026	0.9756	0.9919	-0.021
Mof_C 	C 	0.2293	0.865	0.0189	-0.127
Mof_H 	H 	0.2109	0.8262	0.0011	0.086
Mof_C 	C 	0.2601	0.8275	0.0479	0.066
Mof_C 	C 	0.2816	0.8869	0.0762	-0.133
Mof_H 	H 	0.3021	0.8659	0.0991	0.082
Mof_C 	C 	0.2744	0.9758	0.0725	0.083
Mof_H 	H 	0.2897	0.0147	0.0931	-0.015
Mof_Zn	Zn	0.7308	0.359	0.5369	1.161
Mof_I 	I 	0.79156	0.2597	0.56293	-0.371
Mof_I 	I 	0.68377	0.3328	0.4636	-0.403
Mof_N 	N 	0.6977	0.3439	0.5889	-0.267
Mof_C 	C 	0.6826	0.412	0.6076	0.085
Mof_H 	H 	0.6879	0.4702	0.5981	-0.016
Mof_C 	C 	0.6598	0.404	0.6397	-0.132
Mof_H 	H 	0.6493	0.4544	0.6521	0.088
Mof_C 	C 	0.653	0.32	0.6531	0.077
Mof_C 	C 	0.6677	0.247	0.6347	-0.131
Mof_H 	H 	0.663	0.1889	0.6439	0.092
Mof_C 	C 	0.6895	0.263	0.6025	0.081
Mof_H 	H 	0.6993	0.2135	0.5889	-0.017
Mof_C 	C 	0.6305	0.3077	0.6894	0.089
Mof_N 	N 	0.6001	0.3636	0.6942	-0.129
Mof_C 	C 	0.5757	0.3439	0.7232	0.081
Mof_N 	N 	0.5817	0.2684	0.7474	-0.14
Mof_C 	C 	0.6121	0.2126	0.7426	0.081
Mof_N 	N 	0.6365	0.2322	0.7137	-0.129
Mof_N 	N 	0.4735	0.51	0.728	-0.259
Mof_C 	C 	0.4899	0.457	0.7607	0.081
Mof_H 	H 	0.4771	0.4541	0.7855	-0.013
Mof_C 	C 	0.5233	0.405	0.7621	-0.128
Mof_H 	H 	0.5331	0.3693	0.7871	0.081
Mof_C 	C 	0.5424	0.405	0.7266	0.059
Mof_C 	C 	0.5274	0.462	0.6924	-0.133
Mof_H 	H 	0.5403	0.4672	0.6678	0.086
Mof_C 	C 	0.4935	0.509	0.6948	0.086
Mof_H 	H 	0.4832	0.5456	0.6703	-0.013
Mof_Zn	Zn	0.4189	0.5877	0.7309	1.157
Mof_I 	I 	0.4339	0.737	0.701	-0.387
Mof_I 	I 	0.3857	0.5523	0.7997	-0.352
Mof_N 	N 	0.6295	0.972	0.8158	-0.275
Mof_C 	C 	0.6551	0.999	0.791	0.082
Mof_H 	H 	0.6783	0.9642	0.7903	-0.013
Mof_C 	C 	0.6496	0.074	0.7664	-0.126
Mof_H 	H 	0.6686	0.0899	0.7487	0.084
Mof_C 	C 	0.6172	0.128	0.767	0.062
Mof_C 	C 	0.5911	0.1	0.793	-0.124
Mof_H 	H 	0.5684	0.1353	0.7954	0.073
Mof_C 	C 	0.5973	0.022	0.8156	0.074
Mof_H 	H 	0.5778	0.003	0.8319	-0.013
Mof_I 	I 	0.68577	0.7625	0.82849	-0.372
Mof_Zn	Zn	0.644	0.8734	0.8628	1.164
Mof_I 	I 	0.58366	0.8403	0.8985	-0.348
Mof_N 	N 	0.6807	0.9441	0.9114	-0.273
Mof_C 	C 	0.7105	0.906	0.9394	0.079
Mof_H 	H 	0.7156	0.8453	0.9356	-0.014
Mof_C 	C 	0.7342	0.9493	0.9732	-0.138
Mof_H 	H 	0.7559	0.92	0.9916	0.084
Mof_C 	C 	0.7259	0.0359	0.9799	0.071
Mof_C 	C 	0.698	0.0825	0.9515	-0.131
Mof_H 	H 	0.6943	0.1444	0.9538	0.098
Mof_C 	C 	0.6758	0.0321	0.9195	0.08
Mof_H 	H 	0.6544	0.0613	0.9007	-0.002
Mof_C 	C 	0.7452	0.0894	0.0176	0.089
Mof_N 	N 	0.7738	0.0499	0.049	-0.13
Mof_C 	C 	0.7987	0.101	0.0793	0.074
Mof_N 	N 	0.7949	0.1916	0.0782	-0.131
Mof_C 	C 	0.7663	0.2311	0.0468	0.084
Mof_N 	N 	0.7414	0.18	0.0165	-0.123
Mof_N 	N 	0.8792	0.9753	0.1818	-0.278
Mof_C 	C 	0.8735	0.0624	0.1824	0.08
Mof_H 	H 	0.8854	0.0945	0.2078	-0.005
Mof_C 	C 	0.8513	0.108	0.148	-0.128
Mof_H 	H 	0.8502	0.1704	0.1486	0.09
Mof_C 	C 	0.8307	0.062	0.1126	0.064
Mof_C 	C 	0.8357	0.9721	0.1112	-0.137
Mof_H 	H 	0.8225	0.9381	0.087	0.096
Mof_C 	C 	0.8606	0.933	0.146	0.08
Mof_H 	H 	0.8647	0.8711	0.1445	-0.008
Mof_N 	N 	0.7466	0.5092	0.0408	-0.278
Mof_C 	C 	0.7233	0.4535	0.0142	0.077
Mof_H 	H 	0.7026	0.4756	0.9919	-0.022
Mof_C 	C 	0.7293	0.365	0.0189	-0.128
Mof_H 	H 	0.7109	0.3262	0.0011	0.086
Mof_C 	C 	0.7601	0.3275	0.0479	0.067
Mof_C 	C 	0.7816	0.3869	0.0762	-0.133
Mof_H 	H 	0.8021	0.3659	0.0991	0.082
Mof_C 	C 	0.7744	0.4758	0.0725	0.084
Mof_H 	H 	0.7897	0.5147	0.0931	-0.015
Mof_Zn	Zn	0.3796	0.3701	0.4874	1.159
Mof_I 	I 	0.31198	0.3065	0.4478	-0.365
Mof_I 	I 	0.4201	0.3271	0.56209	-0.398
Mof_N 	N 	0.4167	0.3619	0.4385	-0.265
Mof_C 	C 	0.4086	0.293	0.412	0.07
Mof_H 	H 	0.3856	0.257	0.4125	-0.017
Mof_C 	C 	0.4343	0.274	0.3841	-0.127
Mof_H 	H 	0.4299	0.2242	0.3649	0.081
Mof_C 	C 	0.4663	0.328	0.3846	0.071
Mof_C 	C 	0.4756	0.402	0.4095	-0.139
Mof_H 	H 	0.4974	0.4409	0.408	0.089
Mof_C 	C 	0.4487	0.4126	0.4369	0.092
Mof_H 	H 	0.4532	0.4608	0.4569	-0.018
Mof_C 	C 	0.4936	0.3123	0.3534	0.088
Mof_N 	N 	0.4886	0.2386	0.3287	-0.135
Mof_C 	C 	0.5133	0.2218	0.3004	0.087
Mof_N 	N 	0.543	0.2787	0.2968	-0.142
Mof_C 	C 	0.548	0.3525	0.3215	0.091
Mof_N 	N 	0.5232	0.3692	0.3498	-0.135
Mof_N 	N 	0.6464	0.523	0.3185	-0.271
Mof_C 	C 	0.6281	0.529	0.353	0.051
Mof_H 	H 	0.6329	0.5759	0.3736	-0.012
Mof_C 	C 	0.6016	0.462	0.3561	-0.104
Mof_H 	H 	0.5963	0.4479	0.3844	0.079
Mof_C 	C 	0.5822	0.412	0.3205	0.046
Mof_C 	C 	0.6022	0.408	0.2861	-0.121
Mof_H 	H 	0.5952	0.3652	0.2634	0.078
Mof_C 	C 	0.6326	0.467	0.2858	0.081
Mof_H 	H 	0.6447	0.4691	0.2604	-0.005
Mof_Zn	Zn	0.6957	0.6037	0.32341	1.166
Mof_I 	I 	0.72081	0.5854	0.25288	-0.377
Mof_I 	I 	0.68103	0.7482	0.35639	-0.381
Mof_N 	N 	0.5	0.9823	0.227	-0.277
Mof_C 	C 	0.5273	0.0436	0.2226	0.082
Mof_H 	H 	0.5444	0.032	0.2022	-0.01
Mof_C 	C 	0.5326	0.122	0.2452	-0.136
Mof_H 	H 	0.5517	0.1642	0.2395	0.08
Mof_C 	C 	0.5094	0.1374	0.2762	0.069
Mof_C 	C 	0.481	0.0791	0.2811	-0.13
Mof_H 	H 	0.4628	0.091	0.3003	0.086
Mof_C 	C 	0.4786	0.0016	0.2577	0.075
Mof_H 	H 	0.4602	0.9583	0.2639	-0.015
Mof_Zn	Zn	0.481	0.8809	0.1826	1.162
Mof_I 	I 	0.53915	0.8517	0.14299	-0.354
Mof_I 	I 	0.4424	0.7672	0.2195	-0.377
Mof_N 	N 	0.4382	0.9499	0.1365	-0.273
Mof_C 	C 	0.4376	0.0376	0.135	0.081
Mof_H 	H 	0.4523	0.0678	0.1598	-0.003
Mof_C 	C 	0.4181	0.0891	0.1012	-0.136
Mof_H 	H 	0.4212	0.1514	0.0997	0.096
Mof_C 	C 	0.3935	0.0405	0.0699	0.076
Mof_C 	C 	0.3862	0.9523	0.072	-0.149
Mof_H 	H 	0.3647	0.9225	0.0536	0.086
Mof_C 	C 	0.4133	0.9124	0.1036	0.089
Mof_H 	H 	0.4146	0.8498	0.102	-0.01
Mof_C 	C 	0.3685	0.0831	0.0318	0.087
Mof_N 	N 	0.3792	0.1685	0.0254	-0.123
Mof_C 	C 	0.3586	0.216	0.9908	0.089
Mof_N 	N 	0.3273	0.1781	0.9627	-0.13
Mof_C 	C 	0.3166	0.0927	0.9692	0.065
Mof_N 	N 	0.3372	0.0452	0.0037	-0.131
Mof_N 	N 	0.3702	0.493	0.9878	-0.277
Mof_C 	C 	0.3454	0.447	0.9575	0.084
Mof_H 	H 	0.327	0.4795	0.9366	-0.008
Mof_C 	C 	0.3441	0.357	0.9538	-0.138
Mof_H 	H 	0.3316	0.3268	0.9279	0.088
Mof_C 	C 	0.3626	0.3132	0.991	0.069
Mof_C 	C 	0.3851	0.3552	0.0265	-0.13
Mof_H 	H 	0.3964	0.3252	0.0528	0.088
Mof_C 	C 	0.3897	0.4438	0.0208	0.078
Mof_H 	H 	0.4086	0.4734	0.0425	-0.016
Mof_N 	N 	0.2358	0.9601	0.8743	-0.259
Mof_C 	C 	0.2603	0.912	0.9037	0.064
Mof_H 	H 	0.2588	0.8488	0.9032	0.004
Mof_C 	C 	0.2878	0.955	0.9345	-0.124
Mof_H 	H 	0.3043	0.9219	0.9569	0.084
Mof_C 	C 	0.2918	0.041	0.9339	0.058
Mof_C 	C 	0.2717	0.083	0.8975	-0.115
Mof_H 	H 	0.2813	0.1386	0.8894	0.083
Mof_C 	C 	0.2378	0.048	0.8722	0.057
Mof_H 	H 	0.2175	0.0824	0.8548	0.008
Mof_Zn	Zn	0.8796	0.8701	0.4874	1.159
Mof_I 	I 	0.81198	0.8065	0.4478	-0.365
Mof_I 	I 	0.9201	0.8271	0.56209	-0.403
Mof_N 	N 	0.9167	0.8619	0.4385	-0.265
Mof_C 	C 	0.9086	0.793	0.412	0.07
Mof_H 	H 	0.8856	0.757	0.4125	-0.018
Mof_C 	C 	0.9343	0.774	0.3841	-0.129
Mof_H 	H 	0.9299	0.7242	0.3649	0.081
Mof_C 	C 	0.9663	0.828	0.3846	0.074
Mof_C 	C 	0.9756	0.902	0.4095	-0.142
Mof_H 	H 	0.9974	0.9409	0.408	0.086
Mof_C 	C 	0.9487	0.9126	0.4369	0.092
Mof_H 	H 	0.9532	0.9608	0.4569	-0.019
Mof_C 	C 	0.9936	0.8123	0.3534	0.076
Mof_N 	N 	0.9886	0.7386	0.3287	-0.141
Mof_C 	C 	0.0133	0.7218	0.3004	0.094
Mof_N 	N 	0.043	0.7787	0.2968	-0.142
Mof_C 	C 	0.048	0.8525	0.3215	0.093
Mof_N 	N 	0.0232	0.8692	0.3498	-0.126
Mof_N 	N 	0.1464	0.023	0.3185	-0.271
Mof_C 	C 	0.1281	0.029	0.353	0.052
Mof_H 	H 	0.1329	0.0759	0.3736	-0.011
Mof_C 	C 	0.1016	0.962	0.3561	-0.104
Mof_H 	H 	0.0963	0.9479	0.3844	0.08
Mof_C 	C 	0.0822	0.912	0.3205	0.047
Mof_C 	C 	0.1022	0.908	0.2861	-0.121
Mof_H 	H 	0.0952	0.8652	0.2634	0.079
Mof_C 	C 	0.1326	0.967	0.2858	0.081
Mof_H 	H 	0.1447	0.9691	0.2604	-0.005
Mof_Zn	Zn	0.1957	0.1037	0.32341	1.166
Mof_I 	I 	0.22081	0.0854	0.25288	-0.377
Mof_I 	I 	0.18103	0.2482	0.35639	-0.381
Mof_N 	N 	7.28051e-18	0.4823	0.227	-0.268
Mof_C 	C 	0.0273	0.5436	0.2226	0.089
Mof_H 	H 	0.0444	0.532	0.2022	-0.011
Mof_C 	C 	0.0326	0.622	0.2452	-0.143
Mof_H 	H 	0.0517	0.6642	0.2395	0.083
Mof_C 	C 	0.0094	0.6374	0.2762	0.088
Mof_C 	C 	0.981	0.5791	0.2811	-0.15
Mof_H 	H 	0.9628	0.591	0.3003	0.09
Mof_C 	C 	0.9786	0.5016	0.2577	0.068
Mof_H 	H 	0.9602	0.4583	0.2639	-0.015
Mof_Zn	Zn	0.981	0.3809	0.1826	1.158
Mof_I 	I 	0.03915	0.3517	0.14299	-0.342
Mof_I 	I 	0.9424	0.2672	0.2195	-0.385
Mof_N 	N 	0.9382	0.4499	0.1365	-0.275
Mof_C 	C 	0.9376	0.5376	0.135	0.08
Mof_H 	H 	0.9523	0.5678	0.1598	-0.006
Mof_C 	C 	0.9181	0.5891	0.1012	-0.137
Mof_H 	H 	0.9212	0.6514	0.0997	0.095
Mof_C 	C 	0.8935	0.5405	0.0699	0.075
Mof_C 	C 	0.8862	0.4523	0.072	-0.149
Mof_H 	H 	0.8647	0.4225	0.0536	0.086
Mof_C 	C 	0.9133	0.4124	0.1036	0.088
Mof_H 	H 	0.9146	0.3498	0.102	-0.011
Mof_C 	C 	0.8685	0.5831	0.0318	0.087
Mof_N 	N 	0.8792	0.6685	0.0254	-0.123
Mof_C 	C 	0.8586	0.716	0.9908	0.088
Mof_N 	N 	0.8273	0.6781	0.9627	-0.13
Mof_C 	C 	0.8166	0.5927	0.9692	0.064
Mof_N 	N 	0.8372	0.5452	0.0037	-0.131
Mof_N 	N 	0.8702	0.993	0.9878	-0.276
Mof_C 	C 	0.8454	0.947	0.9575	0.084
Mof_H 	H 	0.827	0.9795	0.9366	-0.008
Mof_C 	C 	0.8441	0.857	0.9538	-0.138
Mof_H 	H 	0.8316	0.8268	0.9279	0.088
Mof_C 	C 	0.8626	0.8132	0.991	0.069
Mof_C 	C 	0.8851	0.8552	0.0265	-0.131
Mof_H 	H 	0.8964	0.8252	0.0528	0.088
Mof_C 	C 	0.8897	0.9438	0.0208	0.078
Mof_H 	H 	0.9086	0.9734	0.0425	-0.017
Mof_N 	N 	0.7358	0.4601	0.8743	-0.259
Mof_C 	C 	0.7603	0.412	0.9037	0.064
Mof_H 	H 	0.7588	0.3488	0.9032	0.004
Mof_C 	C 	0.7878	0.455	0.9345	-0.125
Mof_H 	H 	0.8043	0.4219	0.9569	0.083
Mof_C 	C 	0.7918	0.541	0.9339	0.059
Mof_C 	C 	0.7717	0.583	0.8975	-0.115
Mof_H 	H 	0.7813	0.6386	0.8894	0.083
Mof_C 	C 	0.7378	0.548	0.8722	0.057
Mof_H 	H 	0.7175	0.5824	0.8548	0.008
Mof_Zn	Zn	0.3796	0.6299	0.9874	1.158
Mof_I 	I 	0.31198	0.6935	0.9478	-0.367
Mof_I 	I 	0.4201	0.6729	0.06209	-0.395
Mof_N 	N 	0.4167	0.6381	0.9385	-0.265
Mof_C 	C 	0.4086	0.707	0.912	0.069
Mof_H 	H 	0.3856	0.743	0.9125	-0.018
Mof_C 	C 	0.4343	0.726	0.8841	-0.127
Mof_H 	H 	0.4299	0.7758	0.8649	0.081
Mof_C 	C 	0.4663	0.672	0.8846	0.071
Mof_C 	C 	0.4756	0.598	0.9095	-0.139
Mof_H 	H 	0.4974	0.5591	0.908	0.089
Mof_C 	C 	0.4487	0.5874	0.9369	0.092
Mof_H 	H 	0.4532	0.5392	0.9569	-0.018
Mof_C 	C 	0.4936	0.6877	0.8534	0.088
Mof_N 	N 	0.4886	0.7614	0.8287	-0.135
Mof_C 	C 	0.5133	0.7782	0.8004	0.087
Mof_N 	N 	0.543	0.7213	0.7968	-0.142
Mof_C 	C 	0.548	0.6475	0.8215	0.091
Mof_N 	N 	0.5232	0.6308	0.8498	-0.135
Mof_N 	N 	0.6464	0.477	0.8185	-0.271
Mof_C 	C 	0.6281	0.471	0.853	0.051
Mof_H 	H 	0.6329	0.4241	0.8736	-0.012
Mof_C 	C 	0.6016	0.538	0.8561	-0.104
Mof_H 	H 	0.5963	0.5521	0.8844	0.078
Mof_C 	C 	0.5822	0.588	0.8205	0.046
Mof_C 	C 	0.6022	0.592	0.7861	-0.121
Mof_H 	H 	0.5952	0.6348	0.7634	0.078
Mof_C 	C 	0.6326	0.533	0.7858	0.081
Mof_H 	H 	0.6447	0.5309	0.7604	-0.005
Mof_Zn	Zn	0.6957	0.3963	0.82341	1.166
Mof_I 	I 	0.72081	0.4146	0.75288	-0.377
Mof_I 	I 	0.68103	0.2518	0.85639	-0.382
Mof_N 	N 	0.5	0.0177	0.727	-0.276
Mof_C 	C 	0.5273	0.9564	0.7226	0.081
Mof_H 	H 	0.5444	0.968	0.7022	-0.01
Mof_C 	C 	0.5326	0.878	0.7452	-0.136
Mof_H 	H 	0.5517	0.8358	0.7395	0.08
Mof_C 	C 	0.5094	0.8626	0.7762	0.069
Mof_C 	C 	0.481	0.9209	0.7811	-0.13
Mof_H 	H 	0.4628	0.909	0.8003	0.085
Mof_C 	C 	0.4786	0.9984	0.7577	0.075
Mof_H 	H 	0.4602	0.0417	0.7639	-0.015
Mof_Zn	Zn	0.481	0.1191	0.6826	1.162
Mof_I 	I 	0.53915	0.1483	0.64299	-0.354
Mof_I 	I 	0.4424	0.2328	0.7195	-0.378
Mof_N 	N 	0.4382	0.0501	0.6365	-0.273
Mof_C 	C 	0.4376	0.9624	0.635	0.08
Mof_H 	H 	0.4523	0.9322	0.6598	-0.003
Mof_C 	C 	0.4181	0.9109	0.6012	-0.136
Mof_H 	H 	0.4212	0.8486	0.5997	0.096
Mof_C 	C 	0.3935	0.9595	0.5699	0.075
Mof_C 	C 	0.3862	0.0477	0.572	-0.148
Mof_H 	H 	0.3647	0.0775	0.5536	0.086
Mof_C 	C 	0.4133	0.0876	0.6036	0.089
Mof_H 	H 	0.4146	0.1502	0.602	-0.01
Mof_C 	C 	0.3685	0.9169	0.5318	0.087
Mof_N 	N 	0.3792	0.8315	0.5254	-0.125
Mof_C 	C 	0.3586	0.784	0.4908	0.091
Mof_N 	N 	0.3273	0.8219	0.4627	-0.13
Mof_C 	C 	0.3166	0.9073	0.4692	0.068
Mof_N 	N 	0.3372	0.9548	0.5037	-0.134
Mof_N 	N 	0.3702	0.507	0.4878	-0.275
Mof_C 	C 	0.3454	0.553	0.4575	0.086
Mof_H 	H 	0.327	0.5205	0.4366	-0.008
Mof_C 	C 	0.3441	0.643	0.4538	-0.14
Mof_H 	H 	0.3316	0.6732	0.4279	0.089
Mof_C 	C 	0.3626	0.6868	0.491	0.074
Mof_C 	C 	0.3851	0.6448	0.5265	-0.135
Mof_H 	H 	0.3964	0.6748	0.5528	0.09
Mof_C 	C 	0.3897	0.5562	0.5208	0.076
Mof_H 	H 	0.4086	0.5266	0.5425	-0.016
Mof_N 	N 	0.2358	0.0399	0.3743	-0.259
Mof_C 	C 	0.2603	0.088	0.4037	0.064
Mof_H 	H 	0.2588	0.1512	0.4032	0.004
Mof_C 	C 	0.2878	0.045	0.4345	-0.123
Mof_H 	H 	0.3043	0.0781	0.4569	0.084
Mof_C 	C 	0.2918	0.959	0.4339	0.058
Mof_C 	C 	0.2717	0.917	0.3975	-0.115
Mof_H 	H 	0.2813	0.8614	0.3894	0.083
Mof_C 	C 	0.2378	0.952	0.3722	0.056
Mof_H 	H 	0.2175	0.9176	0.3548	0.008
Mof_Zn	Zn	0.8796	0.1299	0.9874	1.158
Mof_I 	I 	0.81198	0.1935	0.9478	-0.368
Mof_I 	I 	0.9201	0.1729	0.06209	-0.4
Mof_N 	N 	0.9167	0.1381	0.9385	-0.266
Mof_C 	C 	0.9086	0.207	0.912	0.07
Mof_H 	H 	0.8856	0.243	0.9125	-0.018
Mof_C 	C 	0.9343	0.226	0.8841	-0.129
Mof_H 	H 	0.9299	0.2758	0.8649	0.081
Mof_C 	C 	0.9663	0.172	0.8846	0.074
Mof_C 	C 	0.9756	0.098	0.9095	-0.143
Mof_H 	H 	0.9974	0.0591	0.908	0.086
Mof_C 	C 	0.9487	0.0874	0.9369	0.092
Mof_H 	H 	0.9532	0.0392	0.9569	-0.02
Mof_C 	C 	0.9936	0.1877	0.8534	0.076
Mof_N 	N 	0.9886	0.2614	0.8287	-0.141
Mof_C 	C 	0.0133	0.2782	0.8004	0.094
Mof_N 	N 	0.043	0.2213	0.7968	-0.142
Mof_C 	C 	0.048	0.1475	0.8215	0.093
Mof_N 	N 	0.0232	0.1308	0.8498	-0.126
Mof_N 	N 	0.1464	0.977	0.8185	-0.271
Mof_C 	C 	0.1281	0.971	0.853	0.052
Mof_H 	H 	0.1329	0.9241	0.8736	-0.011
Mof_C 	C 	0.1016	0.038	0.8561	-0.104
Mof_H 	H 	0.0963	0.0521	0.8844	0.08
Mof_C 	C 	0.0822	0.088	0.8205	0.047
Mof_C 	C 	0.1022	0.092	0.7861	-0.121
Mof_H 	H 	0.0952	0.1348	0.7634	0.079
Mof_C 	C 	0.1326	0.033	0.7858	0.081
Mof_H 	H 	0.1447	0.0309	0.7604	-0.005
Mof_Zn	Zn	0.1957	0.8963	0.82341	1.166
Mof_I 	I 	0.22081	0.9146	0.75288	-0.377
Mof_I 	I 	0.18103	0.7518	0.85639	-0.381
Mof_N 	N 	1.4561e-17	0.5177	0.727	-0.268
Mof_C 	C 	0.0273	0.4564	0.7226	0.089
Mof_H 	H 	0.0444	0.468	0.7022	-0.011
Mof_C 	C 	0.0326	0.378	0.7452	-0.143
Mof_H 	H 	0.0517	0.3358	0.7395	0.083
Mof_C 	C 	0.0094	0.3626	0.7762	0.088
Mof_C 	C 	0.981	0.4209	0.7811	-0.151
Mof_H 	H 	0.9628	0.409	0.8003	0.09
Mof_C 	C 	0.9786	0.4984	0.7577	0.068
Mof_H 	H 	0.9602	0.5417	0.7639	-0.015
Mof_Zn	Zn	0.981	0.6191	0.6826	1.158
Mof_I 	I 	0.03915	0.6483	0.64299	-0.343
Mof_I 	I 	0.9424	0.7328	0.7195	-0.385
Mof_N 	N 	0.9382	0.5501	0.6365	-0.275
Mof_C 	C 	0.9376	0.4624	0.635	0.08
Mof_H 	H 	0.9523	0.4322	0.6598	-0.006
Mof_C 	C 	0.9181	0.4109	0.6012	-0.137
Mof_H 	H 	0.9212	0.3486	0.5997	0.095
Mof_C 	C 	0.8935	0.4595	0.5699	0.074
Mof_C 	C 	0.8862	0.5477	0.572	-0.149
Mof_H 	H 	0.8647	0.5775	0.5536	0.086
Mof_C 	C 	0.9133	0.5876	0.6036	0.088
Mof_H 	H 	0.9146	0.6502	0.602	-0.011
Mof_C 	C 	0.8685	0.4169	0.5318	0.086
Mof_N 	N 	0.8792	0.3315	0.5254	-0.125
Mof_C 	C 	0.8586	0.284	0.4908	0.09
Mof_N 	N 	0.8273	0.3219	0.4627	-0.13
Mof_C 	C 	0.8166	0.4073	0.4692	0.068
Mof_N 	N 	0.8372	0.4548	0.5037	-0.134
Mof_N 	N 	0.8702	0.007	0.4878	-0.275
Mof_C 	C 	0.8454	0.053	0.4575	0.086
Mof_H 	H 	0.827	0.0205	0.4366	-0.008
Mof_C 	C 	0.8441	0.143	0.4538	-0.14
Mof_H 	H 	0.8316	0.1732	0.4279	0.089
Mof_C 	C 	0.8626	0.1868	0.491	0.074
Mof_C 	C 	0.8851	0.1448	0.5265	-0.136
Mof_H 	H 	0.8964	0.1748	0.5528	0.089
Mof_C 	C 	0.8897	0.0562	0.5208	0.076
Mof_H 	H 	0.9086	0.0266	0.5425	-0.017
Mof_N 	N 	0.7358	0.5399	0.3743	-0.259
Mof_C 	C 	0.7603	0.588	0.4037	0.064
Mof_H 	H 	0.7588	0.6512	0.4032	0.004
Mof_C 	C 	0.7878	0.545	0.4345	-0.124
Mof_H 	H 	0.8043	0.5781	0.4569	0.084
Mof_C 	C 	0.7918	0.459	0.4339	0.058
Mof_C 	C 	0.7717	0.417	0.3975	-0.115
Mof_H 	H 	0.7813	0.3614	0.3894	0.083
Mof_C 	C 	0.7378	0.452	0.3722	0.056
Mof_H 	H 	0.7175	0.4176	0.3548	0.008
_end
