data_functionalizedCrystal
_audit_creation_method	'EQeq! by Chris Wilmer'
_symmetry_space_group_name_H-M	'P1'
_symmetry_Int_Tables_number	1
_symmetry_cell_setting	triclinic
loop_
_symmetry_equiv_pos_as_xyz
  x,y,z
_cell_length_a	40.592
_cell_length_b	16.616
_cell_length_c	12.998
_cell_angle_alpha	90
_cell_angle_beta	98.145
_cell_angle_gamma	90
loop_
_atom_site_label
_atom_site_type_symbol
_atom_site_fract_x
_atom_site_fract_y
_atom_site_fract_z
_atom_site_charge
Mof_Sr	Sr	0.76387	0.40463	0.13339	1.563
Mof_Sr	Sr	0.74079	0.39141	0.82957	1.257
Mof_O 	O 	0.68086	0.3541	0.8572	-0.415
Mof_O 	O 	0.27066	0.1422	0.4009	-0.258
Mof_O 	O 	0.27182	0.0181	0.3355	-0.448
Mof_O 	O 	0.82047	0.3489	0.113	-0.432
Mof_O 	O 	0.7844	0.3362	0.9693	-0.501
Mof_O 	O 	0.21602	0.0077	0.4889	-0.455
Mof_O 	O 	0.21627	0.1415	0.4592	-0.254
Mof_C 	C 	0.65989	0.315	0.0106	-0.176
Mof_C 	C 	0.66736	0.2922	0.1148	0.091
Mof_H 	H 	0.6889	0.2977	0.1493	-0.007
Mof_C 	C 	0.64257	0.2615	0.1666	-0.187
Mof_H 	H 	0.6477	0.2466	0.236	0.104
Mof_C 	C 	0.6102	0.2526	0.1164	0.116
Mof_C 	C 	0.60331	0.2738	0.0111	-0.176
Mof_H 	H 	0.5819	0.2673	0.9759	0.096
Mof_C 	C 	0.62791	0.304	0.9593	0.091
Mof_H 	H 	0.623	0.3172	0.8893	0.007
Mof_C 	C 	0.58231	0.2235	0.1711	-0.076
Mof_C 	C 	0.56964	0.1451	0.1531	0.037
Mof_C 	C 	0.53964	0.1213	0.1922	-0.002
Mof_C 	C 	0.52284	0.1768	0.2486	-0.013
Mof_C 	C 	0.53693	0.253	0.2732	-0.006
Mof_C 	C 	0.56687	0.2765	0.2352	0.038
Mof_C 	C 	0.58019	0.3542	0.2628	-0.09
Mof_H 	H 	0.5997	0.3699	0.2389	0.061
Mof_C 	C 	0.56556	0.4052	0.3221	-0.014
Mof_H 	H 	0.5747	0.4558	0.3377	0.034
Mof_C 	C 	0.53602	0.382	0.3608	-0.05
Mof_H 	H 	0.5261	0.4167	0.4033	0.048
Mof_C 	C 	0.52226	0.3084	0.3356	-0.052
Mof_H 	H 	0.5026	0.2944	0.3602	0.05
Mof_C 	C 	0.5275	0.0418	0.1701	-0.059
Mof_H 	H 	0.5078	0.0258	0.193	0.053
Mof_C 	C 	0.5441	0.9886	0.1158	-0.039
Mof_H 	H 	0.5356	0.9371	0.1021	0.041
Mof_C 	C 	0.57388	0.0111	0.0807	-0.027
Mof_H 	H 	0.5854	0.974	0.0459	0.036
Mof_C 	C 	0.58617	0.0877	0.0974	-0.081
Mof_H 	H 	0.6056	0.1023	0.0719	0.057
Mof_C 	C 	0.48937	0.1562	0.2757	-0.011
Mof_C 	C 	0.46138	0.1634	0.1983	-0.005
Mof_C 	C 	0.42886	0.1438	0.2213	0.037
Mof_C 	C 	0.42465	0.1206	0.3235	-0.077
Mof_C 	C 	0.45245	0.1133	0.3996	0.04
Mof_C 	C 	0.48526	0.1302	0.3762	-0.007
Mof_C 	C 	0.51295	0.1219	0.4556	-0.048
Mof_H 	H 	0.5343	0.1307	0.4401	0.05
Mof_C 	C 	0.50853	0.1012	0.555	-0.048
Mof_H 	H 	0.5268	0.0978	0.6068	0.052
Mof_C 	C 	0.47613	0.0849	0.5788	-0.01
Mof_H 	H 	0.4733	0.0705	0.6461	0.035
Mof_C 	C 	0.44902	0.0901	0.5038	-0.087
Mof_H 	H 	0.428	0.0784	0.5205	0.064
Mof_C 	C 	0.40093	0.1487	0.1401	-0.089
Mof_H 	H 	0.3799	0.1347	0.1543	0.063
Mof_C 	C 	0.40484	0.1736	0.0425	-0.017
Mof_H 	H 	0.3867	0.1758	0.9903	0.028
Mof_C 	C 	0.43721	0.1964	0.0215	-0.049
Mof_H 	H 	0.4398	0.2156	0.9559	0.046
Mof_C 	C 	0.46424	0.1904	0.0959	-0.05
Mof_H 	H 	0.4851	0.2042	0.0796	0.054
Mof_C 	C 	0.39006	0.1081	0.3455	0.107
Mof_C 	C 	0.3705	0.1752	0.358	-0.161
Mof_H 	H 	0.38	0.2262	0.359	0.084
Mof_C 	C 	0.33712	0.1677	0.3691	0.073
Mof_H 	H 	0.3246	0.2132	0.3793	0.01
Mof_C 	C 	0.32223	0.0911	0.3649	-0.158
Mof_C 	C 	0.34173	0.024	0.3554	0.084
Mof_H 	H 	0.3323	0.973	0.3542	-0.003
Mof_C 	C 	0.37535	0.0325	0.3477	-0.166
Mof_H 	H 	0.3883	0.9867	0.344	0.086
Mof_C 	C 	0.28554	0.0823	0.3665	0.371
Mof_C 	C 	0.84137	0.302	0.9636	-0.188
Mof_C 	C 	0.87378	0.3023	0.014	0.103
Mof_H 	H 	0.8784	0.3205	0.0822	0.003
Mof_C 	C 	0.89933	0.2754	0.9628	-0.191
Mof_H 	H 	0.9211	0.2768	0.9966	0.101
Mof_C 	C 	0.89307	0.2464	0.8621	0.131
Mof_C 	C 	0.86051	0.2455	0.8123	-0.203
Mof_H 	H 	0.8559	0.2263	0.7446	0.108
Mof_C 	C 	0.8346	0.2729	0.8626	0.1
Mof_H 	H 	0.8128	0.2718	0.8287	-0.019
Mof_C 	C 	0.92157	0.2181	0.812	-0.083
Mof_C 	C 	0.93429	0.1394	0.8334	0.039
Mof_C 	C 	0.96477	0.1157	0.799	-0.003
Mof_C 	C 	0.98141	0.1686	0.7401	-0.011
Mof_C 	C 	0.96735	0.2435	0.7114	-0.007
Mof_C 	C 	0.9371	0.2695	0.7488	0.042
Mof_C 	C 	0.92401	0.3473	0.7198	-0.093
Mof_H 	H 	0.905	0.3647	0.7454	0.06
Mof_C 	C 	0.93825	0.3959	0.6568	-0.012
Mof_H 	H 	0.9292	0.4463	0.6391	0.032
Mof_C 	C 	0.96709	0.3701	0.6177	-0.052
Mof_H 	H 	0.9763	0.4032	0.5717	0.049
Mof_C 	C 	0.98183	0.2985	0.645	-0.051
Mof_H 	H 	0.0015	0.2847	0.6205	0.05
Mof_C 	C 	0.9168	0.0834	0.8904	-0.083
Mof_H 	H 	0.897	0.0985	0.9131	0.057
Mof_C 	C 	0.92937	0.0081	0.9111	-0.027
Mof_H 	H 	0.9175	0.9718	0.9462	0.036
Mof_C 	C 	0.95961	0.9841	0.8809	-0.039
Mof_H 	H 	0.9679	0.9327	0.8973	0.04
Mof_C 	C 	0.9772	0.0364	0.8268	-0.06
Mof_H 	H 	0.9974	0.0202	0.8079	0.054
Mof_C 	C 	0.01445	0.1468	0.7111	-0.011
Mof_C 	C 	0.04363	0.1546	0.7833	-0.006
Mof_C 	C 	0.07556	0.1373	0.755	0.038
Mof_C 	C 	0.07803	0.1159	0.6499	-0.077
Mof_C 	C 	0.04886	0.1101	0.5761	0.041
Mof_C 	C 	0.01681	0.1227	0.6068	-0.006
Mof_C 	C 	0.98794	0.1133	0.5319	-0.046
Mof_H 	H 	0.9669	0.1177	0.5519	0.05
Mof_C 	C 	0.99104	0.0981	0.4317	-0.048
Mof_H 	H 	0.972	0.0935	0.3832	0.051
Mof_C 	C 	0.02248	0.0888	0.3987	-0.009
Mof_H 	H 	0.0241	0.08	0.329	0.036
Mof_C 	C 	0.05032	0.0929	0.4701	-0.09
Mof_H 	H 	0.0709	0.0842	0.4487	0.068
Mof_C 	C 	0.04252	0.1811	0.8857	-0.049
Mof_H 	H 	0.022	0.194	0.9055	0.053
Mof_C 	C 	0.07041	0.1885	0.9566	-0.052
Mof_H 	H 	0.0689	0.2067	0.0235	0.046
Mof_C 	C 	0.10191	0.1683	0.9274	-0.012
Mof_H 	H 	0.1209	0.1716	0.9763	0.028
Mof_C 	C 	0.10443	0.1444	0.8301	-0.091
Mof_H 	H 	0.1252	0.1325	0.8118	0.06
Mof_C 	C 	0.11102	0.1049	0.6153	0.106
Mof_C 	C 	0.12324	0.0282	0.5946	-0.165
Mof_H 	H 	0.1109	0.9827	0.6057	0.085
Mof_C 	C 	0.15371	0.0194	0.5575	0.074
Mof_H 	H 	0.1618	0.9683	0.5461	-0.008
Mof_C 	C 	0.17207	0.087	0.5374	-0.163
Mof_C 	C 	0.16051	0.162	0.5594	0.08
Mof_H 	H 	0.1727	0.2076	0.5473	0.01
Mof_C 	C 	0.13088	0.1701	0.5993	-0.167
Mof_H 	H 	0.124	0.2212	0.616	0.087
Mof_C 	C 	0.20386	0.0768	0.4921	0.346
Mof_O 	O 	0.71425	0.3685	0.0058	-0.52
Mof_C 	C 	0.68682	0.3487	0.954	0.395
Mof_C 	C 	0.81379	0.3304	0.019	0.382
Mof_Cl	Cl	0.74879	0.27038	0.2557	-0.652
Mof_Sr	Sr	0.23613	0.90463	0.36661	1.558
Mof_Sr	Sr	0.25921	0.89141	0.67043	1.255
Mof_O 	O 	0.31914	0.8541	0.6428	-0.416
Mof_O 	O 	0.72934	0.6422	0.0991	-0.259
Mof_O 	O 	0.72818	0.5181	0.1645	-0.45
Mof_O 	O 	0.17953	0.8489	0.387	-0.433
Mof_O 	O 	0.2156	0.8362	0.5307	-0.5
Mof_O 	O 	0.78398	0.5077	0.0111	-0.457
Mof_O 	O 	0.78373	0.6415	0.0408	-0.254
Mof_C 	C 	0.34011	0.815	0.4894	-0.179
Mof_C 	C 	0.33264	0.7922	0.3852	0.094
Mof_H 	H 	0.3111	0.7977	0.3507	-0.008
Mof_C 	C 	0.35743	0.7615	0.3334	-0.19
Mof_H 	H 	0.3523	0.7466	0.264	0.104
Mof_C 	C 	0.3898	0.7526	0.3836	0.119
Mof_C 	C 	0.39669	0.7738	0.4889	-0.18
Mof_H 	H 	0.4181	0.7673	0.5241	0.098
Mof_C 	C 	0.37209	0.804	0.5407	0.095
Mof_H 	H 	0.377	0.8172	0.6107	0.006
Mof_C 	C 	0.41769	0.7235	0.3289	-0.078
Mof_C 	C 	0.43036	0.6451	0.3469	0.039
Mof_C 	C 	0.46036	0.6213	0.3078	-0.004
Mof_C 	C 	0.47716	0.6768	0.2514	-0.012
Mof_C 	C 	0.46307	0.753	0.2268	-0.007
Mof_C 	C 	0.43313	0.7765	0.2648	0.039
Mof_C 	C 	0.41981	0.8542	0.2372	-0.091
Mof_H 	H 	0.4003	0.8699	0.2611	0.061
Mof_C 	C 	0.43444	0.9052	0.1779	-0.013
Mof_H 	H 	0.4253	0.9558	0.1623	0.033
Mof_C 	C 	0.46398	0.882	0.1392	-0.051
Mof_H 	H 	0.4739	0.9167	0.0967	0.048
Mof_C 	C 	0.47774	0.8084	0.1644	-0.051
Mof_H 	H 	0.4974	0.7944	0.1398	0.05
Mof_C 	C 	0.4725	0.5418	0.3299	-0.055
Mof_H 	H 	0.4922	0.5258	0.307	0.052
Mof_C 	C 	0.4559	0.4886	0.3842	-0.045
Mof_H 	H 	0.4644	0.4371	0.3979	0.043
Mof_C 	C 	0.42612	0.5111	0.4193	-0.021
Mof_H 	H 	0.4146	0.474	0.4541	0.034
Mof_C 	C 	0.41383	0.5877	0.4026	-0.085
Mof_H 	H 	0.3944	0.6023	0.4281	0.058
Mof_C 	C 	0.51063	0.6562	0.2243	-0.012
Mof_C 	C 	0.53862	0.6634	0.3017	-0.004
Mof_C 	C 	0.57114	0.6438	0.2787	0.037
Mof_C 	C 	0.57535	0.6206	0.1765	-0.077
Mof_C 	C 	0.54755	0.6133	0.1004	0.04
Mof_C 	C 	0.51474	0.6302	0.1238	-0.006
Mof_C 	C 	0.48705	0.6219	0.0444	-0.048
Mof_H 	H 	0.4657	0.6307	0.0599	0.05
Mof_C 	C 	0.49147	0.6012	0.945	-0.048
Mof_H 	H 	0.4732	0.5978	0.8932	0.052
Mof_C 	C 	0.52387	0.5849	0.9212	-0.01
Mof_H 	H 	0.5267	0.5705	0.8539	0.035
Mof_C 	C 	0.55098	0.5901	0.9962	-0.088
Mof_H 	H 	0.572	0.5784	0.9795	0.064
Mof_C 	C 	0.59907	0.6487	0.3599	-0.09
Mof_H 	H 	0.6201	0.6347	0.3457	0.063
Mof_C 	C 	0.59516	0.6736	0.4575	-0.016
Mof_H 	H 	0.6133	0.6758	0.5097	0.027
Mof_C 	C 	0.56279	0.6964	0.4785	-0.049
Mof_H 	H 	0.5602	0.7156	0.5441	0.046
Mof_C 	C 	0.53576	0.6904	0.4041	-0.051
Mof_H 	H 	0.5149	0.7042	0.4204	0.054
Mof_C 	C 	0.60994	0.6081	0.1545	0.107
Mof_C 	C 	0.6295	0.6752	0.142	-0.161
Mof_H 	H 	0.62	0.7262	0.141	0.084
Mof_C 	C 	0.66288	0.6677	0.1309	0.073
Mof_H 	H 	0.6754	0.7132	0.1207	0.01
Mof_C 	C 	0.67777	0.5911	0.1351	-0.157
Mof_C 	C 	0.65827	0.524	0.1446	0.081
Mof_H 	H 	0.6677	0.473	0.1458	-0
Mof_C 	C 	0.62465	0.5325	0.1523	-0.167
Mof_H 	H 	0.6117	0.4867	0.156	0.088
Mof_C 	C 	0.71446	0.5823	0.1335	0.371
Mof_C 	C 	0.15863	0.802	0.5364	-0.186
Mof_C 	C 	0.12622	0.8023	0.486	0.1
Mof_H 	H 	0.1216	0.8205	0.4178	0.004
Mof_C 	C 	0.10067	0.7754	0.5372	-0.19
Mof_H 	H 	0.0789	0.7768	0.5034	0.101
Mof_C 	C 	0.10693	0.7464	0.6379	0.13
Mof_C 	C 	0.13949	0.7455	0.6877	-0.202
Mof_H 	H 	0.1441	0.7263	0.7554	0.108
Mof_C 	C 	0.1654	0.7729	0.6374	0.099
Mof_H 	H 	0.1872	0.7718	0.6713	-0.018
Mof_C 	C 	0.07843	0.7181	0.688	-0.084
Mof_C 	C 	0.06571	0.6394	0.6666	0.042
Mof_C 	C 	0.03523	0.6157	0.701	-0.007
Mof_C 	C 	0.01859	0.6686	0.7599	-0.01
Mof_C 	C 	0.03265	0.7435	0.7886	-0.008
Mof_C 	C 	0.0629	0.7695	0.7512	0.043
Mof_C 	C 	0.07599	0.8473	0.7802	-0.094
Mof_H 	H 	0.095	0.8647	0.7546	0.061
Mof_C 	C 	0.06175	0.8959	0.8432	-0.011
Mof_H 	H 	0.0708	0.9463	0.8609	0.032
Mof_C 	C 	0.03291	0.8701	0.8823	-0.053
Mof_H 	H 	0.0237	0.9032	0.9283	0.049
Mof_C 	C 	0.01817	0.7985	0.855	-0.05
Mof_H 	H 	0.9985	0.7847	0.8795	0.05
Mof_C 	C 	0.0832	0.5834	0.6096	-0.089
Mof_H 	H 	0.103	0.5985	0.5869	0.06
Mof_C 	C 	0.07063	0.5081	0.5889	-0.016
Mof_H 	H 	0.0825	0.4718	0.5538	0.032
Mof_C 	C 	0.04039	0.4841	0.6191	-0.048
Mof_H 	H 	0.0321	0.4327	0.6027	0.043
Mof_C 	C 	0.0228	0.5364	0.6732	-0.054
Mof_H 	H 	0.0026	0.5202	0.6921	0.052
Mof_C 	C 	0.98555	0.6468	0.7889	-0.011
Mof_C 	C 	0.95637	0.6546	0.7167	-0.005
Mof_C 	C 	0.92444	0.6373	0.745	0.038
Mof_C 	C 	0.92197	0.6159	0.8501	-0.077
Mof_C 	C 	0.95114	0.6101	0.9239	0.041
Mof_C 	C 	0.98319	0.6227	0.8932	-0.006
Mof_C 	C 	0.01206	0.6133	0.9681	-0.047
Mof_H 	H 	0.0331	0.6177	0.9481	0.05
Mof_C 	C 	0.00896	0.5981	0.0683	-0.047
Mof_H 	H 	0.028	0.5935	0.1168	0.051
Mof_C 	C 	0.97752	0.5888	0.1013	-0.009
Mof_H 	H 	0.9759	0.58	0.171	0.036
Mof_C 	C 	0.94968	0.5929	0.0299	-0.09
Mof_H 	H 	0.9291	0.5842	0.0513	0.067
Mof_C 	C 	0.95748	0.6811	0.6143	-0.049
Mof_H 	H 	0.978	0.694	0.5945	0.053
Mof_C 	C 	0.92959	0.6885	0.5434	-0.051
Mof_H 	H 	0.9311	0.7067	0.4765	0.046
Mof_C 	C 	0.89809	0.6683	0.5726	-0.012
Mof_H 	H 	0.8791	0.6716	0.5237	0.028
Mof_C 	C 	0.89557	0.6444	0.6699	-0.091
Mof_H 	H 	0.8748	0.6325	0.6882	0.06
Mof_C 	C 	0.88898	0.6049	0.8847	0.106
Mof_C 	C 	0.87676	0.5282	0.9054	-0.166
Mof_H 	H 	0.8891	0.4827	0.8943	0.087
Mof_C 	C 	0.84629	0.5194	0.9425	0.071
Mof_H 	H 	0.8382	0.4683	0.9539	-0.005
Mof_C 	C 	0.82793	0.587	0.9626	-0.163
Mof_C 	C 	0.83949	0.662	0.9406	0.079
Mof_H 	H 	0.8273	0.7076	0.9527	0.01
Mof_C 	C 	0.86912	0.6701	0.9007	-0.167
Mof_H 	H 	0.876	0.7212	0.884	0.087
Mof_C 	C 	0.79614	0.5768	0.0079	0.347
Mof_O 	O 	0.28575	0.8685	0.4942	-0.521
Mof_C 	C 	0.31318	0.8487	0.546	0.397
Mof_C 	C 	0.18621	0.8304	0.481	0.38
Mof_Cl	Cl	0.25121	0.77038	0.2443	-0.652
Mof_Sr	Sr	0.23613	0.59537	0.86661	1.562
Mof_Sr	Sr	0.25921	0.60859	0.17043	1.256
Mof_O 	O 	0.31914	0.6459	0.1428	-0.416
Mof_O 	O 	0.72934	0.8578	0.5991	-0.259
Mof_O 	O 	0.72818	0.9819	0.6645	-0.449
Mof_O 	O 	0.17953	0.6511	0.887	-0.433
Mof_O 	O 	0.2156	0.6638	0.0307	-0.501
Mof_O 	O 	0.78398	0.9923	0.5111	-0.455
Mof_O 	O 	0.78373	0.8585	0.5408	-0.254
Mof_C 	C 	0.34011	0.685	0.9894	-0.176
Mof_C 	C 	0.33264	0.7078	0.8852	0.091
Mof_H 	H 	0.3111	0.7023	0.8507	-0.007
Mof_C 	C 	0.35743	0.7385	0.8334	-0.187
Mof_H 	H 	0.3523	0.7534	0.764	0.104
Mof_C 	C 	0.3898	0.7474	0.8836	0.116
Mof_C 	C 	0.39669	0.7262	0.9889	-0.176
Mof_H 	H 	0.4181	0.7327	0.0241	0.096
Mof_C 	C 	0.37209	0.696	0.0407	0.091
Mof_H 	H 	0.377	0.6828	0.1107	0.007
Mof_C 	C 	0.41769	0.7765	0.8289	-0.076
Mof_C 	C 	0.43036	0.8549	0.8469	0.037
Mof_C 	C 	0.46036	0.8787	0.8078	-0.002
Mof_C 	C 	0.47716	0.8232	0.7514	-0.013
Mof_C 	C 	0.46307	0.747	0.7268	-0.006
Mof_C 	C 	0.43313	0.7235	0.7648	0.038
Mof_C 	C 	0.41981	0.6458	0.7372	-0.09
Mof_H 	H 	0.4003	0.6301	0.7611	0.061
Mof_C 	C 	0.43444	0.5948	0.6779	-0.014
Mof_H 	H 	0.4253	0.5442	0.6623	0.034
Mof_C 	C 	0.46398	0.618	0.6392	-0.05
Mof_H 	H 	0.4739	0.5833	0.5967	0.048
Mof_C 	C 	0.47774	0.6916	0.6644	-0.052
Mof_H 	H 	0.4974	0.7056	0.6398	0.05
Mof_C 	C 	0.4725	0.9582	0.8299	-0.059
Mof_H 	H 	0.4922	0.9742	0.807	0.053
Mof_C 	C 	0.4559	0.0114	0.8842	-0.039
Mof_H 	H 	0.4644	0.0629	0.8979	0.041
Mof_C 	C 	0.42612	0.9889	0.9193	-0.027
Mof_H 	H 	0.4146	0.026	0.9541	0.036
Mof_C 	C 	0.41383	0.9123	0.9026	-0.081
Mof_H 	H 	0.3944	0.8977	0.9281	0.057
Mof_C 	C 	0.51063	0.8438	0.7243	-0.011
Mof_C 	C 	0.53862	0.8366	0.8017	-0.005
Mof_C 	C 	0.57114	0.8562	0.7787	0.037
Mof_C 	C 	0.57535	0.8794	0.6765	-0.077
Mof_C 	C 	0.54755	0.8867	0.6004	0.04
Mof_C 	C 	0.51474	0.8698	0.6238	-0.007
Mof_C 	C 	0.48705	0.8781	0.5444	-0.048
Mof_H 	H 	0.4657	0.8693	0.5599	0.05
Mof_C 	C 	0.49147	0.8988	0.445	-0.048
Mof_H 	H 	0.4732	0.9022	0.3932	0.052
Mof_C 	C 	0.52387	0.9151	0.4212	-0.01
Mof_H 	H 	0.5267	0.9295	0.3539	0.035
Mof_C 	C 	0.55098	0.9099	0.4962	-0.087
Mof_H 	H 	0.572	0.9216	0.4795	0.064
Mof_C 	C 	0.59907	0.8513	0.8599	-0.089
Mof_H 	H 	0.6201	0.8653	0.8457	0.063
Mof_C 	C 	0.59516	0.8264	0.9575	-0.017
Mof_H 	H 	0.6133	0.8242	0.0097	0.028
Mof_C 	C 	0.56279	0.8036	0.9785	-0.049
Mof_H 	H 	0.5602	0.7844	0.0441	0.046
Mof_C 	C 	0.53576	0.8096	0.9041	-0.05
Mof_H 	H 	0.5149	0.7958	0.9204	0.054
Mof_C 	C 	0.60994	0.8919	0.6545	0.107
Mof_C 	C 	0.6295	0.8248	0.642	-0.161
Mof_H 	H 	0.62	0.7738	0.641	0.084
Mof_C 	C 	0.66288	0.8323	0.6309	0.073
Mof_H 	H 	0.6754	0.7868	0.6207	0.01
Mof_C 	C 	0.67777	0.9089	0.6351	-0.158
Mof_C 	C 	0.65827	0.976	0.6446	0.084
Mof_H 	H 	0.6677	0.027	0.6458	-0.003
Mof_C 	C 	0.62465	0.9675	0.6523	-0.166
Mof_H 	H 	0.6117	0.0133	0.656	0.086
Mof_C 	C 	0.71446	0.9177	0.6335	0.371
Mof_C 	C 	0.15863	0.698	0.0364	-0.188
Mof_C 	C 	0.12622	0.6977	0.986	0.103
Mof_H 	H 	0.1216	0.6795	0.9178	0.003
Mof_C 	C 	0.10067	0.7246	0.0372	-0.191
Mof_H 	H 	0.0789	0.7232	0.0034	0.101
Mof_C 	C 	0.10693	0.7536	0.1379	0.131
Mof_C 	C 	0.13949	0.7545	0.1877	-0.203
Mof_H 	H 	0.1441	0.7737	0.2554	0.108
Mof_C 	C 	0.1654	0.7271	0.1374	0.1
Mof_H 	H 	0.1872	0.7282	0.1713	-0.019
Mof_C 	C 	0.07843	0.7819	0.188	-0.083
Mof_C 	C 	0.06571	0.8606	0.1666	0.039
Mof_C 	C 	0.03523	0.8843	0.201	-0.003
Mof_C 	C 	0.01859	0.8314	0.2599	-0.011
Mof_C 	C 	0.03265	0.7565	0.2886	-0.007
Mof_C 	C 	0.0629	0.7305	0.2512	0.042
Mof_C 	C 	0.07599	0.6527	0.2802	-0.093
Mof_H 	H 	0.095	0.6353	0.2546	0.06
Mof_C 	C 	0.06175	0.6041	0.3432	-0.012
Mof_H 	H 	0.0708	0.5537	0.3609	0.032
Mof_C 	C 	0.03291	0.6299	0.3823	-0.052
Mof_H 	H 	0.0237	0.5968	0.4283	0.049
Mof_C 	C 	0.01817	0.7015	0.355	-0.051
Mof_H 	H 	0.9985	0.7153	0.3795	0.05
Mof_C 	C 	0.0832	0.9166	0.1096	-0.083
Mof_H 	H 	0.103	0.9015	0.0869	0.057
Mof_C 	C 	0.07063	0.9919	0.0889	-0.027
Mof_H 	H 	0.0825	0.0282	0.0538	0.036
Mof_C 	C 	0.04039	0.0159	0.1191	-0.039
Mof_H 	H 	0.0321	0.0673	0.1027	0.04
Mof_C 	C 	0.0228	0.9636	0.1732	-0.06
Mof_H 	H 	0.0026	0.9798	0.1921	0.054
Mof_C 	C 	0.98555	0.8532	0.2889	-0.011
Mof_C 	C 	0.95637	0.8454	0.2167	-0.006
Mof_C 	C 	0.92444	0.8627	0.245	0.038
Mof_C 	C 	0.92197	0.8841	0.3501	-0.077
Mof_C 	C 	0.95114	0.8899	0.4239	0.041
Mof_C 	C 	0.98319	0.8773	0.3932	-0.006
Mof_C 	C 	0.01206	0.8867	0.4681	-0.046
Mof_H 	H 	0.0331	0.8823	0.4481	0.05
Mof_C 	C 	0.00896	0.9019	0.5683	-0.048
Mof_H 	H 	0.028	0.9065	0.6168	0.051
Mof_C 	C 	0.97752	0.9112	0.6013	-0.009
Mof_H 	H 	0.9759	0.92	0.671	0.036
Mof_C 	C 	0.94968	0.9071	0.5299	-0.09
Mof_H 	H 	0.9291	0.9158	0.5513	0.068
Mof_C 	C 	0.95748	0.8189	0.1143	-0.049
Mof_H 	H 	0.978	0.806	0.0945	0.053
Mof_C 	C 	0.92959	0.8115	0.0434	-0.052
Mof_H 	H 	0.9311	0.7933	0.9765	0.046
Mof_C 	C 	0.89809	0.8317	0.0726	-0.012
Mof_H 	H 	0.8791	0.8284	0.0237	0.028
Mof_C 	C 	0.89557	0.8556	0.1699	-0.091
Mof_H 	H 	0.8748	0.8675	0.1882	0.06
Mof_C 	C 	0.88898	0.8951	0.3847	0.106
Mof_C 	C 	0.87676	0.9718	0.4054	-0.165
Mof_H 	H 	0.8891	0.0173	0.3943	0.085
Mof_C 	C 	0.84629	0.9806	0.4425	0.074
Mof_H 	H 	0.8382	0.0317	0.4539	-0.008
Mof_C 	C 	0.82793	0.913	0.4626	-0.163
Mof_C 	C 	0.83949	0.838	0.4406	0.08
Mof_H 	H 	0.8273	0.7924	0.4527	0.01
Mof_C 	C 	0.86912	0.8299	0.4007	-0.167
Mof_H 	H 	0.876	0.7788	0.384	0.087
Mof_C 	C 	0.79614	0.9232	0.5079	0.346
Mof_O 	O 	0.28575	0.6315	0.9942	-0.52
Mof_C 	C 	0.31318	0.6513	0.046	0.395
Mof_C 	C 	0.18621	0.6696	0.981	0.382
Mof_Cl	Cl	0.25121	0.72962	0.7443	-0.652
Mof_Sr	Sr	0.76387	0.09537	0.63339	1.558
Mof_Sr	Sr	0.74079	0.10859	0.32957	1.255
Mof_O 	O 	0.68086	0.1459	0.3572	-0.416
Mof_O 	O 	0.27066	0.3578	0.9009	-0.259
Mof_O 	O 	0.27182	0.4819	0.8355	-0.45
Mof_O 	O 	0.82047	0.1511	0.613	-0.433
Mof_O 	O 	0.7844	0.1638	0.4693	-0.5
Mof_O 	O 	0.21602	0.4923	0.9889	-0.457
Mof_O 	O 	0.21627	0.3585	0.9592	-0.254
Mof_C 	C 	0.65989	0.185	0.5106	-0.179
Mof_C 	C 	0.66736	0.2078	0.6148	0.094
Mof_H 	H 	0.6889	0.2023	0.6493	-0.008
Mof_C 	C 	0.64257	0.2385	0.6666	-0.19
Mof_H 	H 	0.6477	0.2534	0.736	0.104
Mof_C 	C 	0.6102	0.2474	0.6164	0.119
Mof_C 	C 	0.60331	0.2262	0.5111	-0.18
Mof_H 	H 	0.5819	0.2327	0.4759	0.098
Mof_C 	C 	0.62791	0.196	0.4593	0.095
Mof_H 	H 	0.623	0.1828	0.3893	0.006
Mof_C 	C 	0.58231	0.2765	0.6711	-0.078
Mof_C 	C 	0.56964	0.3549	0.6531	0.039
Mof_C 	C 	0.53964	0.3787	0.6922	-0.004
Mof_C 	C 	0.52284	0.3232	0.7486	-0.012
Mof_C 	C 	0.53693	0.247	0.7732	-0.007
Mof_C 	C 	0.56687	0.2235	0.7352	0.039
Mof_C 	C 	0.58019	0.1458	0.7628	-0.091
Mof_H 	H 	0.5997	0.1301	0.7389	0.061
Mof_C 	C 	0.56556	0.0948	0.8221	-0.013
Mof_H 	H 	0.5747	0.0442	0.8377	0.033
Mof_C 	C 	0.53602	0.118	0.8608	-0.051
Mof_H 	H 	0.5261	0.0833	0.9033	0.048
Mof_C 	C 	0.52226	0.1916	0.8356	-0.051
Mof_H 	H 	0.5026	0.2056	0.8602	0.05
Mof_C 	C 	0.5275	0.4582	0.6701	-0.055
Mof_H 	H 	0.5078	0.4742	0.693	0.052
Mof_C 	C 	0.5441	0.5114	0.6158	-0.045
Mof_H 	H 	0.5356	0.5629	0.6021	0.043
Mof_C 	C 	0.57388	0.4889	0.5807	-0.021
Mof_H 	H 	0.5854	0.526	0.5459	0.034
Mof_C 	C 	0.58617	0.4123	0.5974	-0.085
Mof_H 	H 	0.6056	0.3977	0.5719	0.058
Mof_C 	C 	0.48937	0.3438	0.7757	-0.012
Mof_C 	C 	0.46138	0.3366	0.6983	-0.004
Mof_C 	C 	0.42886	0.3562	0.7213	0.037
Mof_C 	C 	0.42465	0.3794	0.8235	-0.077
Mof_C 	C 	0.45245	0.3867	0.8996	0.04
Mof_C 	C 	0.48526	0.3698	0.8762	-0.006
Mof_C 	C 	0.51295	0.3781	0.9556	-0.048
Mof_H 	H 	0.5343	0.3693	0.9401	0.05
Mof_C 	C 	0.50853	0.3988	0.055	-0.048
Mof_H 	H 	0.5268	0.4022	0.1068	0.052
Mof_C 	C 	0.47613	0.4151	0.0788	-0.01
Mof_H 	H 	0.4733	0.4295	0.1461	0.035
Mof_C 	C 	0.44902	0.4099	0.0038	-0.088
Mof_H 	H 	0.428	0.4216	0.0205	0.064
Mof_C 	C 	0.40093	0.3513	0.6401	-0.09
Mof_H 	H 	0.3799	0.3653	0.6543	0.063
Mof_C 	C 	0.40484	0.3264	0.5425	-0.016
Mof_H 	H 	0.3867	0.3242	0.4903	0.027
Mof_C 	C 	0.43721	0.3036	0.5215	-0.049
Mof_H 	H 	0.4398	0.2844	0.4559	0.046
Mof_C 	C 	0.46424	0.3096	0.5959	-0.051
Mof_H 	H 	0.4851	0.2958	0.5796	0.054
Mof_C 	C 	0.39006	0.3919	0.8455	0.107
Mof_C 	C 	0.3705	0.3248	0.858	-0.161
Mof_H 	H 	0.38	0.2738	0.859	0.084
Mof_C 	C 	0.33712	0.3323	0.8691	0.073
Mof_H 	H 	0.3246	0.2868	0.8793	0.01
Mof_C 	C 	0.32223	0.4089	0.8649	-0.157
Mof_C 	C 	0.34173	0.476	0.8554	0.081
Mof_H 	H 	0.3323	0.527	0.8542	-0
Mof_C 	C 	0.37535	0.4675	0.8477	-0.167
Mof_H 	H 	0.3883	0.5133	0.844	0.088
Mof_C 	C 	0.28554	0.4177	0.8665	0.371
Mof_C 	C 	0.84137	0.198	0.4636	-0.186
Mof_C 	C 	0.87378	0.1977	0.514	0.1
Mof_H 	H 	0.8784	0.1795	0.5822	0.004
Mof_C 	C 	0.89933	0.2246	0.4628	-0.19
Mof_H 	H 	0.9211	0.2232	0.4966	0.101
Mof_C 	C 	0.89307	0.2536	0.3621	0.13
Mof_C 	C 	0.86051	0.2545	0.3123	-0.202
Mof_H 	H 	0.8559	0.2737	0.2446	0.108
Mof_C 	C 	0.8346	0.2271	0.3626	0.099
Mof_H 	H 	0.8128	0.2282	0.3287	-0.018
Mof_C 	C 	0.92157	0.2819	0.312	-0.084
Mof_C 	C 	0.93429	0.3606	0.3334	0.042
Mof_C 	C 	0.96477	0.3843	0.299	-0.007
Mof_C 	C 	0.98141	0.3314	0.2401	-0.01
Mof_C 	C 	0.96735	0.2565	0.2114	-0.008
Mof_C 	C 	0.9371	0.2305	0.2488	0.043
Mof_C 	C 	0.92401	0.1527	0.2198	-0.094
Mof_H 	H 	0.905	0.1353	0.2454	0.061
Mof_C 	C 	0.93825	0.1041	0.1568	-0.011
Mof_H 	H 	0.9292	0.0537	0.1391	0.032
Mof_C 	C 	0.96709	0.1299	0.1177	-0.053
Mof_H 	H 	0.9763	0.0968	0.0717	0.049
Mof_C 	C 	0.98183	0.2015	0.145	-0.05
Mof_H 	H 	0.0015	0.2153	0.1205	0.05
Mof_C 	C 	0.9168	0.4166	0.3904	-0.089
Mof_H 	H 	0.897	0.4015	0.4131	0.06
Mof_C 	C 	0.92937	0.4919	0.4111	-0.016
Mof_H 	H 	0.9175	0.5282	0.4462	0.032
Mof_C 	C 	0.95961	0.5159	0.3809	-0.048
Mof_H 	H 	0.9679	0.5673	0.3973	0.043
Mof_C 	C 	0.9772	0.4636	0.3268	-0.054
Mof_H 	H 	0.9974	0.4798	0.3079	0.052
Mof_C 	C 	0.01445	0.3532	0.2111	-0.011
Mof_C 	C 	0.04363	0.3454	0.2833	-0.005
Mof_C 	C 	0.07556	0.3627	0.255	0.038
Mof_C 	C 	0.07803	0.3841	0.1499	-0.077
Mof_C 	C 	0.04886	0.3899	0.0761	0.041
Mof_C 	C 	0.01681	0.3773	0.1068	-0.006
Mof_C 	C 	0.98794	0.3867	0.0319	-0.047
Mof_H 	H 	0.9669	0.3823	0.0519	0.05
Mof_C 	C 	0.99104	0.4019	0.9317	-0.047
Mof_H 	H 	0.972	0.4065	0.8832	0.051
Mof_C 	C 	0.02248	0.4112	0.8987	-0.009
Mof_H 	H 	0.0241	0.42	0.829	0.036
Mof_C 	C 	0.05032	0.4071	0.9701	-0.09
Mof_H 	H 	0.0709	0.4158	0.9487	0.067
Mof_C 	C 	0.04252	0.3189	0.3857	-0.049
Mof_H 	H 	0.022	0.306	0.4055	0.053
Mof_C 	C 	0.07041	0.3115	0.4566	-0.051
Mof_H 	H 	0.0689	0.2933	0.5235	0.046
Mof_C 	C 	0.10191	0.3317	0.4274	-0.012
Mof_H 	H 	0.1209	0.3284	0.4763	0.028
Mof_C 	C 	0.10443	0.3556	0.3301	-0.091
Mof_H 	H 	0.1252	0.3675	0.3118	0.06
Mof_C 	C 	0.11102	0.3951	0.1153	0.106
Mof_C 	C 	0.12324	0.4718	0.0946	-0.166
Mof_H 	H 	0.1109	0.5173	0.1057	0.087
Mof_C 	C 	0.15371	0.4806	0.0575	0.071
Mof_H 	H 	0.1618	0.5317	0.0461	-0.005
Mof_C 	C 	0.17207	0.413	0.0374	-0.163
Mof_C 	C 	0.16051	0.338	0.0594	0.079
Mof_H 	H 	0.1727	0.2924	0.0473	0.01
Mof_C 	C 	0.13088	0.3299	0.0993	-0.167
Mof_H 	H 	0.124	0.2788	0.116	0.087
Mof_C 	C 	0.20386	0.4232	0.9921	0.347
Mof_O 	O 	0.71425	0.1315	0.5058	-0.521
Mof_C 	C 	0.68682	0.1513	0.454	0.397
Mof_C 	C 	0.81379	0.1696	0.519	0.38
Mof_Cl	Cl	0.74879	0.22962	0.7557	-0.652
_end
