# CIF file generated by openbabel 3.1.0, see https://openbabel.org
data_I
_chemical_name_common 'image0'
_cell_length_a 15.0721
_cell_length_b 24.7694
_cell_length_c 15.1707
_cell_angle_alpha 90
_cell_angle_beta 110.541
_cell_angle_gamma 90
_space_group_name_H-M_alt 'P 1'
_space_group_name_Hall 'P 1'
loop_
    _symmetry_equiv_pos_as_xyz
    x,y,z
loop_
    _atom_site_label
    _atom_site_type_symbol
    _atom_site_fract_x
    _atom_site_fract_y
    _atom_site_fract_z
    _atom_site_occupancy
    Ni1      Ni       0.39621    0.52227    0.10812    1.000
    C1       C        0.20950    0.49590    0.13010    1.000
    H1       H        0.24830    0.48430    0.18940    1.000
    C2       C        0.11070    0.49040    0.10400    1.000
    H2       H        0.08480    0.47780    0.14740    1.000
    C3       C        0.05270    0.50350    0.01440    1.000
    C4       C        0.09450    0.52250    0.95600    1.000
    H3       H        0.05710    0.53170    0.89480    1.000
    C5       C        0.19270    0.52890    0.98420    1.000
    H4       H        0.21960    0.54130    0.94140    1.000
    C6       C        0.32270    0.63630    0.08070    1.000
    C7       C        0.32230    0.69180    0.08190    1.000
    H5       H        0.26520    0.71010    0.05620    1.000
    C8       C        0.40400    0.72020    0.11980    1.000
    C9       C        0.47970    0.69170    0.15050    1.000
    H6       H        0.53810    0.70910    0.17280    1.000
    C10      C        0.47680    0.63320    0.15150    1.000
    H7       H        0.53230    0.61410    0.18210    1.000
    C11      C        0.54650    0.49830    0.04400    1.000
    C12      C        0.49530    0.47960    0.29830    1.000
    H8       H        0.51720    0.45560    0.26340    1.000
    C13      C        0.52070    0.47280    0.39420    1.000
    H9       H        0.56160    0.44470    0.42260    1.000
    C14      C        0.48900    0.50540    0.44990    1.000
    C15      C        0.43340    0.54870    0.40190    1.000
    H10      H        0.41050    0.57350    0.43480    1.000
    C16      C        0.41230    0.55500    0.30700    1.000
    H11      H        0.37740    0.58520    0.27820    1.000
    N1       N        0.43800    0.52130    0.25470    1.000
    N2       N        0.24850    0.51720    0.07300    1.000
    N3       N        0.39850    0.60660    0.11070    1.000
    O1       O        0.62040    0.48270    0.03480    1.000
    O2       O        0.53660    0.51260    0.12010    1.000
    Ni2      Ni       0.60379    0.02227    0.89188    1.000
    C17      C        0.79050    0.99590    0.86990    1.000
    H12      H        0.75170    0.98430    0.81060    1.000
    C18      C        0.88930    0.99040    0.89600    1.000
    H13      H        0.91520    0.97780    0.85260    1.000
    C19      C        0.94730    0.00350    0.98560    1.000
    C20      C        0.90550    0.02250    0.04400    1.000
    H14      H        0.94290    0.03170    0.10520    1.000
    C21      C        0.80730    0.02890    0.01580    1.000
    H15      H        0.78040    0.04130    0.05860    1.000
    C22      C        0.67730    0.13630    0.91930    1.000
    C23      C        0.67770    0.19180    0.91810    1.000
    H16      H        0.73480    0.21010    0.94380    1.000
    C24      C        0.59600    0.22020    0.88020    1.000
    C25      C        0.52030    0.19170    0.84950    1.000
    H17      H        0.46190    0.20910    0.82720    1.000
    C26      C        0.52320    0.13320    0.84850    1.000
    H18      H        0.46770    0.11410    0.81790    1.000
    C27      C        0.45350    0.99830    0.95600    1.000
    C28      C        0.50470    0.97960    0.70170    1.000
    H19      H        0.48280    0.95560    0.73660    1.000
    C29      C        0.47930    0.97280    0.60580    1.000
    H20      H        0.43840    0.94470    0.57740    1.000
    C30      C        0.51100    0.00540    0.55010    1.000
    C31      C        0.56660    0.04870    0.59810    1.000
    H21      H        0.58950    0.07350    0.56520    1.000
    C32      C        0.58770    0.05500    0.69300    1.000
    H22      H        0.62260    0.08520    0.72180    1.000
    N4       N        0.56200    0.02130    0.74530    1.000
    N5       N        0.75150    0.01720    0.92700    1.000
    N6       N        0.60150    0.10660    0.88930    1.000
    O3       O        0.37960    0.98270    0.96520    1.000
    O4       O        0.46340    0.01260    0.87990    1.000
    Ni3      Ni       0.60379    0.47773    0.89188    1.000
    C33      C        0.79050    0.50410    0.86990    1.000
    H23      H        0.75170    0.51570    0.81060    1.000
    C34      C        0.88930    0.50960    0.89600    1.000
    H24      H        0.91520    0.52220    0.85260    1.000
    C35      C        0.94730    0.49650    0.98560    1.000
    C36      C        0.90550    0.47750    0.04400    1.000
    H25      H        0.94290    0.46830    0.10520    1.000
    C37      C        0.80730    0.47110    0.01580    1.000
    H26      H        0.78040    0.45870    0.05860    1.000
    C38      C        0.67730    0.36370    0.91930    1.000
    C39      C        0.67770    0.30820    0.91810    1.000
    H27      H        0.73480    0.28990    0.94380    1.000
    C40      C        0.59600    0.27980    0.88020    1.000
    C41      C        0.52030    0.30830    0.84950    1.000
    H28      H        0.46190    0.29090    0.82720    1.000
    C42      C        0.52320    0.36680    0.84850    1.000
    H29      H        0.46770    0.38590    0.81790    1.000
    C43      C        0.45350    0.50170    0.95600    1.000
    C44      C        0.50470    0.52040    0.70170    1.000
    H30      H        0.48280    0.54440    0.73660    1.000
    C45      C        0.47930    0.52720    0.60580    1.000
    H31      H        0.43840    0.55530    0.57740    1.000
    C46      C        0.51100    0.49460    0.55010    1.000
    C47      C        0.56660    0.45130    0.59810    1.000
    H32      H        0.58950    0.42650    0.56520    1.000
    C48      C        0.58770    0.44500    0.69300    1.000
    H33      H        0.62260    0.41480    0.72180    1.000
    N7       N        0.56200    0.47870    0.74530    1.000
    N8       N        0.75150    0.48280    0.92700    1.000
    N9       N        0.60150    0.39340    0.88930    1.000
    O5       O        0.37960    0.51730    0.96520    1.000
    O6       O        0.46340    0.48740    0.87990    1.000
    Ni4      Ni       0.39621    0.97773    0.10812    1.000
    C49      C        0.20950    0.00410    0.13010    1.000
    H34      H        0.24830    0.01570    0.18940    1.000
    C50      C        0.11070    0.00960    0.10400    1.000
    H35      H        0.08480    0.02220    0.14740    1.000
    C51      C        0.05270    0.99650    0.01440    1.000
    C52      C        0.09450    0.97750    0.95600    1.000
    H36      H        0.05710    0.96830    0.89480    1.000
    C53      C        0.19270    0.97110    0.98420    1.000
    H37      H        0.21960    0.95870    0.94140    1.000
    C54      C        0.32270    0.86370    0.08070    1.000
    C55      C        0.32230    0.80820    0.08190    1.000
    H38      H        0.26520    0.78990    0.05620    1.000
    C56      C        0.40400    0.77980    0.11980    1.000
    C57      C        0.47970    0.80830    0.15050    1.000
    H39      H        0.53810    0.79090    0.17280    1.000
    C58      C        0.47680    0.86680    0.15150    1.000
    H40      H        0.53230    0.88590    0.18210    1.000
    C59      C        0.54650    0.00170    0.04400    1.000
    C60      C        0.49530    0.02040    0.29830    1.000
    H41      H        0.51720    0.04440    0.26340    1.000
    C61      C        0.52070    0.02720    0.39420    1.000
    H42      H        0.56160    0.05530    0.42260    1.000
    C62      C        0.48900    0.99460    0.44990    1.000
    C63      C        0.43340    0.95130    0.40190    1.000
    H43      H        0.41050    0.92650    0.43480    1.000
    C64      C        0.41230    0.94500    0.30700    1.000
    H44      H        0.37740    0.91480    0.27820    1.000
    N10      N        0.43800    0.97870    0.25470    1.000
    N11      N        0.24850    0.98280    0.07300    1.000
    N12      N        0.39850    0.89340    0.11070    1.000
    O7       O        0.62040    0.01730    0.03480    1.000
    O8       O        0.53660    0.98740    0.12010    1.000
