data_functionalizedCrystal
_audit_creation_method	'EQeq! by Chris Wilmer'
_symmetry_space_group_name_H-M	'P1'
_symmetry_Int_Tables_number	1
_symmetry_cell_setting	triclinic
loop_
_symmetry_equiv_pos_as_xyz
  x,y,z
_cell_length_a	26.8152
_cell_length_b	26.8152
_cell_length_c	26.8152
_cell_angle_alpha	90
_cell_angle_beta	90
_cell_angle_gamma	90
loop_
_atom_site_label
_atom_site_type_symbol
_atom_site_fract_x
_atom_site_fract_y
_atom_site_fract_z
_atom_site_charge
Mof_Cu	Cu	0.75328	0.61049	0.89158	0.846
Mof_Cu	Cu	0.24672	0.38951	0.89158	0.846
Mof_Cu	Cu	0.24672	0.61049	0.10842	0.846
Mof_Cu	Cu	0.75328	0.38951	0.10842	0.846
Mof_Cu	Cu	0.89158	0.75328	0.61049	0.846
Mof_Cu	Cu	0.89158	0.24672	0.38951	0.846
Mof_Cu	Cu	0.10842	0.24672	0.61049	0.846
Mof_Cu	Cu	0.10842	0.75328	0.38951	0.846
Mof_Cu	Cu	0.61049	0.89158	0.75328	0.846
Mof_Cu	Cu	0.38951	0.89158	0.24672	0.846
Mof_Cu	Cu	0.61049	0.10842	0.24672	0.846
Mof_Cu	Cu	0.38951	0.10842	0.75328	0.846
Mof_Cu	Cu	0.61049	0.75328	0.10842	0.846
Mof_Cu	Cu	0.38951	0.24672	0.10842	0.846
Mof_Cu	Cu	0.61049	0.24672	0.89158	0.846
Mof_Cu	Cu	0.38951	0.75328	0.89158	0.846
Mof_Cu	Cu	0.75328	0.89158	0.38951	0.846
Mof_Cu	Cu	0.24672	0.89158	0.61049	0.846
Mof_Cu	Cu	0.24672	0.10842	0.38951	0.846
Mof_Cu	Cu	0.75328	0.10842	0.61049	0.846
Mof_Cu	Cu	0.89158	0.61049	0.24672	0.846
Mof_Cu	Cu	0.89158	0.38951	0.75328	0.846
Mof_Cu	Cu	0.10842	0.61049	0.75328	0.846
Mof_Cu	Cu	0.10842	0.38951	0.24672	0.846
Mof_B 	B 	0.9011	0.59886	0.75092	0.903
Mof_B 	B 	0.0989	0.40114	0.75092	0.903
Mof_B 	B 	0.0989	0.59886	0.24908	0.903
Mof_B 	B 	0.9011	0.40114	0.24908	0.903
Mof_B 	B 	0.75092	0.9011	0.59886	0.903
Mof_B 	B 	0.75092	0.0989	0.40114	0.903
Mof_B 	B 	0.24908	0.0989	0.59886	0.903
Mof_B 	B 	0.24908	0.9011	0.40114	0.903
Mof_B 	B 	0.59886	0.75092	0.9011	0.903
Mof_B 	B 	0.40114	0.75092	0.0989	0.903
Mof_B 	B 	0.59886	0.24908	0.0989	0.903
Mof_B 	B 	0.40114	0.24908	0.9011	0.903
Mof_B 	B 	0.59886	0.9011	0.24908	0.903
Mof_B 	B 	0.40114	0.0989	0.24908	0.903
Mof_B 	B 	0.59886	0.0989	0.75092	0.903
Mof_B 	B 	0.40114	0.9011	0.75092	0.903
Mof_B 	B 	0.9011	0.75092	0.40114	0.903
Mof_B 	B 	0.0989	0.75092	0.59886	0.903
Mof_B 	B 	0.0989	0.24908	0.40114	0.903
Mof_B 	B 	0.9011	0.24908	0.59886	0.903
Mof_B 	B 	0.75092	0.59886	0.0989	0.903
Mof_B 	B 	0.75092	0.40114	0.9011	0.903
Mof_B 	B 	0.24908	0.59886	0.9011	0.903
Mof_B 	B 	0.24908	0.40114	0.0989	0.903
Mof_H 	H 	0.8139	0.5732	0.8041	-0.039
Mof_H 	H 	0.8969	0.6959	0.8018	0.022
Mof_H 	H 	0.8378	0.7527	0.8617	0.148
Mof_H 	H 	0.7851	0.728	0.8749	0.142
Mof_H 	H 	0.8327	0.717	0.9093	0.143
Mof_H 	H 	0.9292	0.499	0.7756	-0.043
Mof_H 	H 	0.8162	0.5573	0.6993	0.028
Mof_H 	H 	0.7669	0.474	0.6802	0.155
Mof_H 	H 	0.8063	0.4298	0.6721	0.147
Mof_H 	H 	0.7759	0.4337	0.7233	0.153
Mof_H 	H 	0.8779	0.6971	0.7122	-0.056
Mof_H 	H 	0.9313	0.5729	0.6514	0.027
Mof_H 	H 	0.9468	0.6042	0.5607	0.155
Mof_H 	H 	0.902	0.6408	0.5459	0.154
Mof_H 	H 	0.956	0.6631	0.5582	0.152
Mof_H 	H 	0.9993	0.6203	0.7172	-0.045
Mof_H 	H 	0.9454	0.5743	0.847	0.026
Mof_H 	H 	0.0712	0.6062	0.8761	0.153
Mof_H 	H 	0.0305	0.5685	0.8978	0.154
Mof_H 	H 	0.0728	0.5486	0.8608	0.152
Mof_H 	H 	0.1861	0.4268	0.8041	-0.039
Mof_H 	H 	0.1031	0.3041	0.8018	0.022
Mof_H 	H 	0.1622	0.2473	0.8617	0.148
Mof_H 	H 	0.2149	0.272	0.8749	0.142
Mof_H 	H 	0.1673	0.283	0.9093	0.143
Mof_H 	H 	0.0708	0.501	0.7756	-0.043
Mof_H 	H 	0.1838	0.4427	0.6993	0.028
Mof_H 	H 	0.2331	0.526	0.6802	0.155
Mof_H 	H 	0.1937	0.5702	0.6721	0.147
Mof_H 	H 	0.2241	0.5663	0.7233	0.153
Mof_H 	H 	0.1221	0.3029	0.7122	-0.056
Mof_H 	H 	0.0687	0.4271	0.6514	0.027
Mof_H 	H 	0.0532	0.3958	0.5607	0.155
Mof_H 	H 	0.098	0.3592	0.5459	0.154
Mof_H 	H 	0.044	0.3369	0.5582	0.152
Mof_H 	H 	0.0007	0.3797	0.7172	-0.045
Mof_H 	H 	0.0546	0.4257	0.847	0.026
Mof_H 	H 	0.9288	0.3938	0.8761	0.153
Mof_H 	H 	0.9695	0.4315	0.8978	0.154
Mof_H 	H 	0.9272	0.4514	0.8608	0.152
Mof_H 	H 	0.1861	0.5732	0.1959	-0.039
Mof_H 	H 	0.1031	0.6959	0.1982	0.022
Mof_H 	H 	0.1622	0.7527	0.1383	0.148
Mof_H 	H 	0.2149	0.728	0.1251	0.142
Mof_H 	H 	0.1673	0.717	0.0907	0.143
Mof_H 	H 	0.0708	0.499	0.2244	-0.043
Mof_H 	H 	0.1838	0.5573	0.3007	0.028
Mof_H 	H 	0.2331	0.474	0.3198	0.155
Mof_H 	H 	0.1937	0.4298	0.3279	0.147
Mof_H 	H 	0.2241	0.4337	0.2767	0.153
Mof_H 	H 	0.1221	0.6971	0.2878	-0.056
Mof_H 	H 	0.0687	0.5729	0.3486	0.027
Mof_H 	H 	0.0532	0.6042	0.4393	0.155
Mof_H 	H 	0.098	0.6408	0.4541	0.154
Mof_H 	H 	0.044	0.6631	0.4418	0.152
Mof_H 	H 	0.0007	0.6203	0.2828	-0.045
Mof_H 	H 	0.0546	0.5743	0.153	0.026
Mof_H 	H 	0.9288	0.6062	0.1239	0.153
Mof_H 	H 	0.9695	0.5685	0.1022	0.154
Mof_H 	H 	0.9272	0.5486	0.1392	0.152
Mof_H 	H 	0.8139	0.4268	0.1959	-0.039
Mof_H 	H 	0.8969	0.3041	0.1982	0.022
Mof_H 	H 	0.8378	0.2473	0.1383	0.148
Mof_H 	H 	0.7851	0.272	0.1251	0.142
Mof_H 	H 	0.8327	0.283	0.0907	0.143
Mof_H 	H 	0.9292	0.501	0.2244	-0.043
Mof_H 	H 	0.8162	0.4427	0.3007	0.028
Mof_H 	H 	0.7669	0.526	0.3198	0.155
Mof_H 	H 	0.8063	0.5702	0.3279	0.147
Mof_H 	H 	0.7759	0.5663	0.2767	0.153
Mof_H 	H 	0.8779	0.3029	0.2878	-0.056
Mof_H 	H 	0.9313	0.4271	0.3486	0.027
Mof_H 	H 	0.9468	0.3958	0.4393	0.156
Mof_H 	H 	0.902	0.3592	0.4541	0.155
Mof_H 	H 	0.956	0.3369	0.4418	0.153
Mof_H 	H 	0.9993	0.3797	0.2828	-0.044
Mof_H 	H 	0.9454	0.4257	0.153	0.027
Mof_H 	H 	0.0712	0.3938	0.1239	0.154
Mof_H 	H 	0.0305	0.4315	0.1022	0.155
Mof_H 	H 	0.0728	0.4514	0.1392	0.153
Mof_H 	H 	0.8041	0.8139	0.5732	-0.038
Mof_H 	H 	0.8018	0.8969	0.6959	0.023
Mof_H 	H 	0.8617	0.8378	0.7527	0.149
Mof_H 	H 	0.8749	0.7851	0.728	0.143
Mof_H 	H 	0.9093	0.8327	0.717	0.144
Mof_H 	H 	0.7756	0.9292	0.499	-0.042
Mof_H 	H 	0.6993	0.8162	0.5573	0.029
Mof_H 	H 	0.6802	0.7669	0.474	0.156
Mof_H 	H 	0.6721	0.8063	0.4298	0.148
Mof_H 	H 	0.7233	0.7759	0.4337	0.154
Mof_H 	H 	0.7122	0.8779	0.6971	-0.055
Mof_H 	H 	0.6514	0.9313	0.5729	0.028
Mof_H 	H 	0.5607	0.9468	0.6042	0.156
Mof_H 	H 	0.5459	0.902	0.6408	0.155
Mof_H 	H 	0.5582	0.956	0.6631	0.153
Mof_H 	H 	0.7172	0.9993	0.6203	-0.044
Mof_H 	H 	0.847	0.9454	0.5743	0.027
Mof_H 	H 	0.8761	0.0712	0.6062	0.154
Mof_H 	H 	0.8978	0.0305	0.5685	0.155
Mof_H 	H 	0.8608	0.0728	0.5486	0.153
Mof_H 	H 	0.8041	0.1861	0.4268	-0.038
Mof_H 	H 	0.8018	0.1031	0.3041	0.023
Mof_H 	H 	0.8617	0.1622	0.2473	0.149
Mof_H 	H 	0.8749	0.2149	0.272	0.143
Mof_H 	H 	0.9093	0.1673	0.283	0.144
Mof_H 	H 	0.7756	0.0708	0.501	-0.042
Mof_H 	H 	0.6993	0.1838	0.4427	0.029
Mof_H 	H 	0.6802	0.2331	0.526	0.156
Mof_H 	H 	0.6721	0.1937	0.5702	0.148
Mof_H 	H 	0.7233	0.2241	0.5663	0.154
Mof_H 	H 	0.7122	0.1221	0.3029	-0.055
Mof_H 	H 	0.6514	0.0687	0.4271	0.028
Mof_H 	H 	0.5607	0.0532	0.3958	0.156
Mof_H 	H 	0.5459	0.098	0.3592	0.155
Mof_H 	H 	0.5582	0.044	0.3369	0.153
Mof_H 	H 	0.7172	0.0007	0.3797	-0.044
Mof_H 	H 	0.847	0.0546	0.4257	0.027
Mof_H 	H 	0.8761	0.9288	0.3938	0.154
Mof_H 	H 	0.8978	0.9695	0.4315	0.155
Mof_H 	H 	0.8608	0.9272	0.4514	0.153
Mof_H 	H 	0.1959	0.1861	0.5732	-0.038
Mof_H 	H 	0.1982	0.1031	0.6959	0.023
Mof_H 	H 	0.1383	0.1622	0.7527	0.149
Mof_H 	H 	0.1251	0.2149	0.728	0.143
Mof_H 	H 	0.0907	0.1673	0.717	0.144
Mof_H 	H 	0.2244	0.0708	0.499	-0.042
Mof_H 	H 	0.3007	0.1838	0.5573	0.029
Mof_H 	H 	0.3198	0.2331	0.474	0.156
Mof_H 	H 	0.3279	0.1937	0.4298	0.148
Mof_H 	H 	0.2767	0.2241	0.4337	0.154
Mof_H 	H 	0.2878	0.1221	0.6971	-0.055
Mof_H 	H 	0.3486	0.0687	0.5729	0.028
Mof_H 	H 	0.4393	0.0532	0.6042	0.156
Mof_H 	H 	0.4541	0.098	0.6408	0.155
Mof_H 	H 	0.4418	0.044	0.6631	0.153
Mof_H 	H 	0.2828	0.0007	0.6203	-0.044
Mof_H 	H 	0.153	0.0546	0.5743	0.027
Mof_H 	H 	0.1239	0.9288	0.6062	0.154
Mof_H 	H 	0.1022	0.9695	0.5685	0.155
Mof_H 	H 	0.1392	0.9272	0.5486	0.153
Mof_H 	H 	0.1959	0.8139	0.4268	-0.038
Mof_H 	H 	0.1982	0.8969	0.3041	0.023
Mof_H 	H 	0.1383	0.8378	0.2473	0.149
Mof_H 	H 	0.1251	0.7851	0.272	0.143
Mof_H 	H 	0.0907	0.8327	0.283	0.144
Mof_H 	H 	0.2244	0.9292	0.501	-0.042
Mof_H 	H 	0.3007	0.8162	0.4427	0.029
Mof_H 	H 	0.3198	0.7669	0.526	0.156
Mof_H 	H 	0.3279	0.8063	0.5702	0.148
Mof_H 	H 	0.2767	0.7759	0.5663	0.154
Mof_H 	H 	0.2878	0.8779	0.3029	-0.055
Mof_H 	H 	0.3486	0.9313	0.4271	0.028
Mof_H 	H 	0.4393	0.9468	0.3958	0.156
Mof_H 	H 	0.4541	0.902	0.3592	0.155
Mof_H 	H 	0.4418	0.956	0.3369	0.153
Mof_H 	H 	0.2828	0.9993	0.3797	-0.044
Mof_H 	H 	0.153	0.9454	0.4257	0.027
Mof_H 	H 	0.1239	0.0712	0.3938	0.154
Mof_H 	H 	0.1022	0.0305	0.4315	0.155
Mof_H 	H 	0.1392	0.0728	0.4514	0.153
Mof_H 	H 	0.5732	0.8041	0.8139	-0.038
Mof_H 	H 	0.6959	0.8018	0.8969	0.023
Mof_H 	H 	0.7527	0.8617	0.8378	0.149
Mof_H 	H 	0.728	0.8749	0.7851	0.143
Mof_H 	H 	0.717	0.9093	0.8327	0.144
Mof_H 	H 	0.499	0.7756	0.9292	-0.042
Mof_H 	H 	0.5573	0.6993	0.8162	0.029
Mof_H 	H 	0.474	0.6802	0.7669	0.156
Mof_H 	H 	0.4298	0.6721	0.8063	0.148
Mof_H 	H 	0.4337	0.7233	0.7759	0.154
Mof_H 	H 	0.6971	0.7122	0.8779	-0.055
Mof_H 	H 	0.5729	0.6514	0.9313	0.028
Mof_H 	H 	0.6042	0.5607	0.9468	0.156
Mof_H 	H 	0.6408	0.5459	0.902	0.155
Mof_H 	H 	0.6631	0.5582	0.956	0.153
Mof_H 	H 	0.6203	0.7172	0.9993	-0.044
Mof_H 	H 	0.5743	0.847	0.9454	0.027
Mof_H 	H 	0.6062	0.8761	0.0712	0.154
Mof_H 	H 	0.5685	0.8978	0.0305	0.155
Mof_H 	H 	0.5486	0.8608	0.0728	0.153
Mof_H 	H 	0.4268	0.8041	0.1861	-0.038
Mof_H 	H 	0.3041	0.8018	0.1031	0.023
Mof_H 	H 	0.2473	0.8617	0.1622	0.149
Mof_H 	H 	0.272	0.8749	0.2149	0.143
Mof_H 	H 	0.283	0.9093	0.1673	0.144
Mof_H 	H 	0.501	0.7756	0.0708	-0.042
Mof_H 	H 	0.4427	0.6993	0.1838	0.029
Mof_H 	H 	0.526	0.6802	0.2331	0.156
Mof_H 	H 	0.5702	0.6721	0.1937	0.148
Mof_H 	H 	0.5663	0.7233	0.2241	0.154
Mof_H 	H 	0.3029	0.7122	0.1221	-0.055
Mof_H 	H 	0.4271	0.6514	0.0687	0.028
Mof_H 	H 	0.3958	0.5607	0.0532	0.156
Mof_H 	H 	0.3592	0.5459	0.098	0.155
Mof_H 	H 	0.3369	0.5582	0.044	0.153
Mof_H 	H 	0.3797	0.7172	0.0007	-0.044
Mof_H 	H 	0.4257	0.847	0.0546	0.027
Mof_H 	H 	0.3938	0.8761	0.9288	0.154
Mof_H 	H 	0.4315	0.8978	0.9695	0.155
Mof_H 	H 	0.4514	0.8608	0.9272	0.153
Mof_H 	H 	0.5732	0.1959	0.1861	-0.038
Mof_H 	H 	0.6959	0.1982	0.1031	0.023
Mof_H 	H 	0.7527	0.1383	0.1622	0.149
Mof_H 	H 	0.728	0.1251	0.2149	0.143
Mof_H 	H 	0.717	0.0907	0.1673	0.144
Mof_H 	H 	0.499	0.2244	0.0708	-0.042
Mof_H 	H 	0.5573	0.3007	0.1838	0.029
Mof_H 	H 	0.474	0.3198	0.2331	0.156
Mof_H 	H 	0.4298	0.3279	0.1937	0.148
Mof_H 	H 	0.4337	0.2767	0.2241	0.154
Mof_H 	H 	0.6971	0.2878	0.1221	-0.055
Mof_H 	H 	0.5729	0.3486	0.0687	0.028
Mof_H 	H 	0.6042	0.4393	0.0532	0.156
Mof_H 	H 	0.6408	0.4541	0.098	0.155
Mof_H 	H 	0.6631	0.4418	0.044	0.153
Mof_H 	H 	0.6203	0.2828	0.0007	-0.044
Mof_H 	H 	0.5743	0.153	0.0546	0.027
Mof_H 	H 	0.6062	0.1239	0.9288	0.154
Mof_H 	H 	0.5685	0.1022	0.9695	0.155
Mof_H 	H 	0.5486	0.1392	0.9272	0.153
Mof_H 	H 	0.4268	0.1959	0.8139	-0.038
Mof_H 	H 	0.3041	0.1982	0.8969	0.023
Mof_H 	H 	0.2473	0.1383	0.8378	0.149
Mof_H 	H 	0.272	0.1251	0.7851	0.143
Mof_H 	H 	0.283	0.0907	0.8327	0.144
Mof_H 	H 	0.501	0.2244	0.9292	-0.042
Mof_H 	H 	0.4427	0.3007	0.8162	0.029
Mof_H 	H 	0.526	0.3198	0.7669	0.156
Mof_H 	H 	0.5702	0.3279	0.8063	0.148
Mof_H 	H 	0.5663	0.2767	0.7759	0.154
Mof_H 	H 	0.3029	0.2878	0.8779	-0.055
Mof_H 	H 	0.4271	0.3486	0.9313	0.028
Mof_H 	H 	0.3958	0.4393	0.9468	0.156
Mof_H 	H 	0.3592	0.4541	0.902	0.155
Mof_H 	H 	0.3369	0.4418	0.956	0.153
Mof_H 	H 	0.3797	0.2828	0.9993	-0.044
Mof_H 	H 	0.4257	0.153	0.9454	0.027
Mof_H 	H 	0.3938	0.1239	0.0712	0.154
Mof_H 	H 	0.4315	0.1022	0.0305	0.155
Mof_H 	H 	0.4514	0.1392	0.0728	0.153
Mof_H 	H 	0.5732	0.8139	0.1959	-0.038
Mof_H 	H 	0.6959	0.8969	0.1982	0.023
Mof_H 	H 	0.7527	0.8378	0.1383	0.149
Mof_H 	H 	0.728	0.7851	0.1251	0.143
Mof_H 	H 	0.717	0.8327	0.0907	0.144
Mof_H 	H 	0.499	0.9292	0.2244	-0.042
Mof_H 	H 	0.5573	0.8162	0.3007	0.029
Mof_H 	H 	0.474	0.7669	0.3198	0.156
Mof_H 	H 	0.4298	0.8063	0.3279	0.148
Mof_H 	H 	0.4337	0.7759	0.2767	0.154
Mof_H 	H 	0.6971	0.8779	0.2878	-0.055
Mof_H 	H 	0.5729	0.9313	0.3486	0.028
Mof_H 	H 	0.6042	0.9468	0.4393	0.156
Mof_H 	H 	0.6408	0.902	0.4541	0.155
Mof_H 	H 	0.6631	0.956	0.4418	0.153
Mof_H 	H 	0.6203	0.9993	0.2828	-0.044
Mof_H 	H 	0.5743	0.9454	0.153	0.027
Mof_H 	H 	0.6062	0.0712	0.1239	0.154
Mof_H 	H 	0.5685	0.0305	0.1022	0.155
Mof_H 	H 	0.5486	0.0728	0.1392	0.153
Mof_H 	H 	0.4268	0.1861	0.1959	-0.038
Mof_H 	H 	0.3041	0.1031	0.1982	0.023
Mof_H 	H 	0.2473	0.1622	0.1383	0.149
Mof_H 	H 	0.272	0.2149	0.1251	0.143
Mof_H 	H 	0.283	0.1673	0.0907	0.144
Mof_H 	H 	0.501	0.0708	0.2244	-0.042
Mof_H 	H 	0.4427	0.1838	0.3007	0.029
Mof_H 	H 	0.526	0.2331	0.3198	0.156
Mof_H 	H 	0.5702	0.1937	0.3279	0.148
Mof_H 	H 	0.5663	0.2241	0.2767	0.154
Mof_H 	H 	0.3029	0.1221	0.2878	-0.055
Mof_H 	H 	0.4271	0.0687	0.3486	0.028
Mof_H 	H 	0.3958	0.0532	0.4393	0.156
Mof_H 	H 	0.3592	0.098	0.4541	0.155
Mof_H 	H 	0.3369	0.044	0.4418	0.153
Mof_H 	H 	0.3797	0.0007	0.2828	-0.044
Mof_H 	H 	0.4257	0.0546	0.153	0.027
Mof_H 	H 	0.3938	0.9288	0.1239	0.154
Mof_H 	H 	0.4315	0.9695	0.1022	0.155
Mof_H 	H 	0.4514	0.9272	0.1392	0.153
Mof_H 	H 	0.5732	0.1861	0.8041	-0.038
Mof_H 	H 	0.6959	0.1031	0.8018	0.023
Mof_H 	H 	0.7527	0.1622	0.8617	0.149
Mof_H 	H 	0.728	0.2149	0.8749	0.143
Mof_H 	H 	0.717	0.1673	0.9093	0.144
Mof_H 	H 	0.499	0.0708	0.7756	-0.042
Mof_H 	H 	0.5573	0.1838	0.6993	0.029
Mof_H 	H 	0.474	0.2331	0.6802	0.156
Mof_H 	H 	0.4298	0.1937	0.6721	0.148
Mof_H 	H 	0.4337	0.2241	0.7233	0.154
Mof_H 	H 	0.6971	0.1221	0.7122	-0.055
Mof_H 	H 	0.5729	0.0687	0.6514	0.028
Mof_H 	H 	0.6042	0.0532	0.5607	0.156
Mof_H 	H 	0.6408	0.098	0.5459	0.155
Mof_H 	H 	0.6631	0.044	0.5582	0.153
Mof_H 	H 	0.6203	0.0007	0.7172	-0.044
Mof_H 	H 	0.5743	0.0546	0.847	0.027
Mof_H 	H 	0.6062	0.9288	0.8761	0.154
Mof_H 	H 	0.5685	0.9695	0.8978	0.155
Mof_H 	H 	0.5486	0.9272	0.8608	0.153
Mof_H 	H 	0.4268	0.8139	0.8041	-0.038
Mof_H 	H 	0.3041	0.8969	0.8018	0.023
Mof_H 	H 	0.2473	0.8378	0.8617	0.149
Mof_H 	H 	0.272	0.7851	0.8749	0.143
Mof_H 	H 	0.283	0.8327	0.9093	0.144
Mof_H 	H 	0.501	0.9292	0.7756	-0.042
Mof_H 	H 	0.4427	0.8162	0.6993	0.029
Mof_H 	H 	0.526	0.7669	0.6802	0.156
Mof_H 	H 	0.5702	0.8063	0.6721	0.148
Mof_H 	H 	0.5663	0.7759	0.7233	0.154
Mof_H 	H 	0.3029	0.8779	0.7122	-0.055
Mof_H 	H 	0.4271	0.9313	0.6514	0.028
Mof_H 	H 	0.3958	0.9468	0.5607	0.156
Mof_H 	H 	0.3592	0.902	0.5459	0.155
Mof_H 	H 	0.3369	0.956	0.5582	0.153
Mof_H 	H 	0.3797	0.9993	0.7172	-0.044
Mof_H 	H 	0.4257	0.9454	0.847	0.027
Mof_H 	H 	0.3938	0.0712	0.8761	0.154
Mof_H 	H 	0.4315	0.0305	0.8978	0.155
Mof_H 	H 	0.4514	0.0728	0.8608	0.153
Mof_H 	H 	0.8139	0.8041	0.4268	-0.038
Mof_H 	H 	0.8969	0.8018	0.3041	0.023
Mof_H 	H 	0.8378	0.8617	0.2473	0.149
Mof_H 	H 	0.7851	0.8749	0.272	0.143
Mof_H 	H 	0.8327	0.9093	0.283	0.144
Mof_H 	H 	0.9292	0.7756	0.501	-0.042
Mof_H 	H 	0.8162	0.6993	0.4427	0.029
Mof_H 	H 	0.7669	0.6802	0.526	0.156
Mof_H 	H 	0.8063	0.6721	0.5702	0.148
Mof_H 	H 	0.7759	0.7233	0.5663	0.154
Mof_H 	H 	0.8779	0.7122	0.3029	-0.055
Mof_H 	H 	0.9313	0.6514	0.4271	0.028
Mof_H 	H 	0.9468	0.5607	0.3958	0.156
Mof_H 	H 	0.902	0.5459	0.3592	0.155
Mof_H 	H 	0.956	0.5582	0.3369	0.153
Mof_H 	H 	0.9993	0.7172	0.3797	-0.044
Mof_H 	H 	0.9454	0.847	0.4257	0.027
Mof_H 	H 	0.0712	0.8761	0.3938	0.154
Mof_H 	H 	0.0305	0.8978	0.4315	0.155
Mof_H 	H 	0.0728	0.8608	0.4514	0.153
Mof_H 	H 	0.1861	0.8041	0.5732	-0.038
Mof_H 	H 	0.1031	0.8018	0.6959	0.023
Mof_H 	H 	0.1622	0.8617	0.7527	0.149
Mof_H 	H 	0.2149	0.8749	0.728	0.143
Mof_H 	H 	0.1673	0.9093	0.717	0.144
Mof_H 	H 	0.0708	0.7756	0.499	-0.042
Mof_H 	H 	0.1838	0.6993	0.5573	0.029
Mof_H 	H 	0.2331	0.6802	0.474	0.156
Mof_H 	H 	0.1937	0.6721	0.4298	0.148
Mof_H 	H 	0.2241	0.7233	0.4337	0.154
Mof_H 	H 	0.1221	0.7122	0.6971	-0.055
Mof_H 	H 	0.0687	0.6514	0.5729	0.028
Mof_H 	H 	0.0532	0.5607	0.6042	0.156
Mof_H 	H 	0.098	0.5459	0.6408	0.155
Mof_H 	H 	0.044	0.5582	0.6631	0.153
Mof_H 	H 	0.0007	0.7172	0.6203	-0.044
Mof_H 	H 	0.0546	0.847	0.5743	0.027
Mof_H 	H 	0.9288	0.8761	0.6062	0.154
Mof_H 	H 	0.9695	0.8978	0.5685	0.155
Mof_H 	H 	0.9272	0.8608	0.5486	0.153
Mof_H 	H 	0.1861	0.1959	0.4268	-0.038
Mof_H 	H 	0.1031	0.1982	0.3041	0.023
Mof_H 	H 	0.1622	0.1383	0.2473	0.149
Mof_H 	H 	0.2149	0.1251	0.272	0.143
Mof_H 	H 	0.1673	0.0907	0.283	0.144
Mof_H 	H 	0.0708	0.2244	0.501	-0.042
Mof_H 	H 	0.1838	0.3007	0.4427	0.029
Mof_H 	H 	0.2331	0.3198	0.526	0.156
Mof_H 	H 	0.1937	0.3279	0.5702	0.148
Mof_H 	H 	0.2241	0.2767	0.5663	0.154
Mof_H 	H 	0.1221	0.2878	0.3029	-0.055
Mof_H 	H 	0.0687	0.3486	0.4271	0.028
Mof_H 	H 	0.0532	0.4393	0.3958	0.156
Mof_H 	H 	0.098	0.4541	0.3592	0.155
Mof_H 	H 	0.044	0.4418	0.3369	0.153
Mof_H 	H 	0.0007	0.2828	0.3797	-0.044
Mof_H 	H 	0.0546	0.153	0.4257	0.027
Mof_H 	H 	0.9288	0.1239	0.3938	0.154
Mof_H 	H 	0.9695	0.1022	0.4315	0.155
Mof_H 	H 	0.9272	0.1392	0.4514	0.153
Mof_H 	H 	0.8139	0.1959	0.5732	-0.038
Mof_H 	H 	0.8969	0.1982	0.6959	0.023
Mof_H 	H 	0.8378	0.1383	0.7527	0.149
Mof_H 	H 	0.7851	0.1251	0.728	0.143
Mof_H 	H 	0.8327	0.0907	0.717	0.144
Mof_H 	H 	0.9292	0.2244	0.499	-0.042
Mof_H 	H 	0.8162	0.3007	0.5573	0.029
Mof_H 	H 	0.7669	0.3198	0.474	0.156
Mof_H 	H 	0.8063	0.3279	0.4298	0.148
Mof_H 	H 	0.7759	0.2767	0.4337	0.154
Mof_H 	H 	0.8779	0.2878	0.6971	-0.055
Mof_H 	H 	0.9313	0.3486	0.5729	0.028
Mof_H 	H 	0.9468	0.4393	0.6042	0.156
Mof_H 	H 	0.902	0.4541	0.6408	0.155
Mof_H 	H 	0.956	0.4418	0.6631	0.153
Mof_H 	H 	0.9993	0.2828	0.6203	-0.044
Mof_H 	H 	0.9454	0.153	0.5743	0.027
Mof_H 	H 	0.0712	0.1239	0.6062	0.154
Mof_H 	H 	0.0305	0.1022	0.5685	0.155
Mof_H 	H 	0.0728	0.1392	0.5486	0.153
Mof_H 	H 	0.8041	0.5732	0.1861	-0.038
Mof_H 	H 	0.8018	0.6959	0.1031	0.023
Mof_H 	H 	0.8617	0.7527	0.1622	0.149
Mof_H 	H 	0.8749	0.728	0.2149	0.143
Mof_H 	H 	0.9093	0.717	0.1673	0.144
Mof_H 	H 	0.7756	0.499	0.0708	-0.042
Mof_H 	H 	0.6993	0.5573	0.1838	0.029
Mof_H 	H 	0.6802	0.474	0.2331	0.156
Mof_H 	H 	0.6721	0.4298	0.1937	0.148
Mof_H 	H 	0.7233	0.4337	0.2241	0.154
Mof_H 	H 	0.7122	0.6971	0.1221	-0.055
Mof_H 	H 	0.6514	0.5729	0.0687	0.028
Mof_H 	H 	0.5607	0.6042	0.0532	0.156
Mof_H 	H 	0.5459	0.6408	0.098	0.155
Mof_H 	H 	0.5582	0.6631	0.044	0.153
Mof_H 	H 	0.7172	0.6203	0.0007	-0.044
Mof_H 	H 	0.847	0.5743	0.0546	0.027
Mof_H 	H 	0.8761	0.6062	0.9288	0.154
Mof_H 	H 	0.8978	0.5685	0.9695	0.155
Mof_H 	H 	0.8608	0.5486	0.9272	0.153
Mof_H 	H 	0.8041	0.4268	0.8139	-0.038
Mof_H 	H 	0.8018	0.3041	0.8969	0.023
Mof_H 	H 	0.8617	0.2473	0.8378	0.149
Mof_H 	H 	0.8749	0.272	0.7851	0.143
Mof_H 	H 	0.9093	0.283	0.8327	0.144
Mof_H 	H 	0.7756	0.501	0.9292	-0.042
Mof_H 	H 	0.6993	0.4427	0.8162	0.029
Mof_H 	H 	0.6802	0.526	0.7669	0.156
Mof_H 	H 	0.6721	0.5702	0.8063	0.148
Mof_H 	H 	0.7233	0.5663	0.7759	0.154
Mof_H 	H 	0.7122	0.3029	0.8779	-0.055
Mof_H 	H 	0.6514	0.4271	0.9313	0.028
Mof_H 	H 	0.5607	0.3958	0.9468	0.156
Mof_H 	H 	0.5459	0.3592	0.902	0.155
Mof_H 	H 	0.5582	0.3369	0.956	0.153
Mof_H 	H 	0.7172	0.3797	0.9993	-0.044
Mof_H 	H 	0.847	0.4257	0.9454	0.027
Mof_H 	H 	0.8761	0.3938	0.0712	0.154
Mof_H 	H 	0.8978	0.4315	0.0305	0.155
Mof_H 	H 	0.8608	0.4514	0.0728	0.153
Mof_H 	H 	0.1959	0.5732	0.8139	-0.038
Mof_H 	H 	0.1982	0.6959	0.8969	0.023
Mof_H 	H 	0.1383	0.7527	0.8378	0.149
Mof_H 	H 	0.1251	0.728	0.7851	0.143
Mof_H 	H 	0.0907	0.717	0.8327	0.144
Mof_H 	H 	0.2244	0.499	0.9292	-0.042
Mof_H 	H 	0.3007	0.5573	0.8162	0.029
Mof_H 	H 	0.3198	0.474	0.7669	0.156
Mof_H 	H 	0.3279	0.4298	0.8063	0.148
Mof_H 	H 	0.2767	0.4337	0.7759	0.154
Mof_H 	H 	0.2878	0.6971	0.8779	-0.055
Mof_H 	H 	0.3486	0.5729	0.9313	0.028
Mof_H 	H 	0.4393	0.6042	0.9468	0.156
Mof_H 	H 	0.4541	0.6408	0.902	0.155
Mof_H 	H 	0.4418	0.6631	0.956	0.153
Mof_H 	H 	0.2828	0.6203	0.9993	-0.044
Mof_H 	H 	0.153	0.5743	0.9454	0.027
Mof_H 	H 	0.1239	0.6062	0.0712	0.154
Mof_H 	H 	0.1022	0.5685	0.0305	0.155
Mof_H 	H 	0.1392	0.5486	0.0728	0.153
Mof_H 	H 	0.1959	0.4268	0.1861	-0.038
Mof_H 	H 	0.1982	0.3041	0.1031	0.023
Mof_H 	H 	0.1383	0.2473	0.1622	0.149
Mof_H 	H 	0.1251	0.272	0.2149	0.143
Mof_H 	H 	0.0907	0.283	0.1673	0.144
Mof_H 	H 	0.2244	0.501	0.0708	-0.042
Mof_H 	H 	0.3007	0.4427	0.1838	0.029
Mof_H 	H 	0.3198	0.526	0.2331	0.156
Mof_H 	H 	0.3279	0.5702	0.1937	0.148
Mof_H 	H 	0.2767	0.5663	0.2241	0.154
Mof_H 	H 	0.2878	0.3029	0.1221	-0.055
Mof_H 	H 	0.3486	0.4271	0.0687	0.028
Mof_H 	H 	0.4393	0.3958	0.0532	0.156
Mof_H 	H 	0.4541	0.3592	0.098	0.155
Mof_H 	H 	0.4418	0.3369	0.044	0.153
Mof_H 	H 	0.2828	0.3797	0.0007	-0.044
Mof_H 	H 	0.153	0.4257	0.0546	0.027
Mof_H 	H 	0.1239	0.3938	0.9288	0.154
Mof_H 	H 	0.1022	0.4315	0.9695	0.155
Mof_H 	H 	0.1392	0.4514	0.9272	0.153
Mof_C 	C 	0.82623	0.60562	0.81131	0.102
Mof_C 	C 	0.83414	0.67855	0.84319	0.151
Mof_C 	C 	0.87163	0.67229	0.80944	-0.061
Mof_C 	C 	0.8213	0.7229	0.8751	-0.506
Mof_C 	C 	0.89912	0.50225	0.75706	0.12
Mof_C 	C 	0.83197	0.48471	0.71801	0.168
Mof_C 	C 	0.83779	0.53442	0.7156	-0.075
Mof_C 	C 	0.7918	0.4528	0.6966	-0.528
Mof_C 	C 	0.89082	0.67402	0.68864	0.123
Mof_C 	C 	0.91768	0.64164	0.62079	0.162
Mof_C 	C 	0.91985	0.60615	0.656	-0.071
Mof_C 	C 	0.9319	0.637	0.56668	-0.523
Mof_C 	C 	0.99713	0.60912	0.75079	0.12
Mof_C 	C 	0.01741	0.58753	0.8246	0.165
Mof_C 	C 	0.96751	0.58416	0.82114	-0.071
Mof_C 	C 	0.0509	0.5768	0.8687	-0.523
Mof_C 	C 	0.17377	0.39438	0.81131	0.102
Mof_C 	C 	0.16586	0.32145	0.84319	0.151
Mof_C 	C 	0.12837	0.32771	0.80944	-0.061
Mof_C 	C 	0.1787	0.2771	0.8751	-0.506
Mof_C 	C 	0.10088	0.49775	0.75706	0.12
Mof_C 	C 	0.16803	0.51529	0.71801	0.168
Mof_C 	C 	0.16221	0.46558	0.7156	-0.075
Mof_C 	C 	0.2082	0.5472	0.6966	-0.528
Mof_C 	C 	0.10918	0.32598	0.68864	0.123
Mof_C 	C 	0.08232	0.35836	0.62079	0.162
Mof_C 	C 	0.08015	0.39385	0.656	-0.071
Mof_C 	C 	0.0681	0.363	0.56668	-0.523
Mof_C 	C 	0.00287	0.39088	0.75079	0.12
Mof_C 	C 	0.98259	0.41247	0.8246	0.165
Mof_C 	C 	0.03249	0.41584	0.82114	-0.071
Mof_C 	C 	0.9491	0.4232	0.8687	-0.523
Mof_C 	C 	0.17377	0.60562	0.18869	0.102
Mof_C 	C 	0.16586	0.67855	0.15681	0.151
Mof_C 	C 	0.12837	0.67229	0.19056	-0.061
Mof_C 	C 	0.1787	0.7229	0.1249	-0.506
Mof_C 	C 	0.10088	0.50225	0.24294	0.12
Mof_C 	C 	0.16803	0.48471	0.28199	0.168
Mof_C 	C 	0.16221	0.53442	0.2844	-0.075
Mof_C 	C 	0.2082	0.4528	0.3034	-0.528
Mof_C 	C 	0.10918	0.67402	0.31136	0.123
Mof_C 	C 	0.08232	0.64164	0.37921	0.162
Mof_C 	C 	0.08015	0.60615	0.344	-0.071
Mof_C 	C 	0.0681	0.637	0.43332	-0.523
Mof_C 	C 	0.00287	0.60912	0.24921	0.12
Mof_C 	C 	0.98259	0.58753	0.1754	0.165
Mof_C 	C 	0.03249	0.58416	0.17886	-0.071
Mof_C 	C 	0.9491	0.5768	0.1313	-0.523
Mof_C 	C 	0.82623	0.39438	0.18869	0.102
Mof_C 	C 	0.83414	0.32145	0.15681	0.151
Mof_C 	C 	0.87163	0.32771	0.19056	-0.061
Mof_C 	C 	0.8213	0.2771	0.1249	-0.506
Mof_C 	C 	0.89912	0.49775	0.24294	0.12
Mof_C 	C 	0.83197	0.51529	0.28199	0.168
Mof_C 	C 	0.83779	0.46558	0.2844	-0.075
Mof_C 	C 	0.7918	0.5472	0.3034	-0.528
Mof_C 	C 	0.89082	0.32598	0.31136	0.123
Mof_C 	C 	0.91768	0.35836	0.37921	0.162
Mof_C 	C 	0.91985	0.39385	0.344	-0.071
Mof_C 	C 	0.9319	0.363	0.43332	-0.523
Mof_C 	C 	0.99713	0.39088	0.24921	0.12
Mof_C 	C 	0.01741	0.41247	0.1754	0.165
Mof_C 	C 	0.96751	0.41584	0.17886	-0.071
Mof_C 	C 	0.0509	0.4232	0.1313	-0.523
Mof_C 	C 	0.81131	0.82623	0.60562	0.102
Mof_C 	C 	0.84319	0.83414	0.67855	0.151
Mof_C 	C 	0.80944	0.87163	0.67229	-0.061
Mof_C 	C 	0.8751	0.8213	0.7229	-0.506
Mof_C 	C 	0.75706	0.89912	0.50225	0.12
Mof_C 	C 	0.71801	0.83197	0.48471	0.168
Mof_C 	C 	0.7156	0.83779	0.53442	-0.075
Mof_C 	C 	0.6966	0.7918	0.4528	-0.528
Mof_C 	C 	0.68864	0.89082	0.67402	0.123
Mof_C 	C 	0.62079	0.91768	0.64164	0.162
Mof_C 	C 	0.656	0.91985	0.60615	-0.071
Mof_C 	C 	0.56668	0.9319	0.637	-0.523
Mof_C 	C 	0.75079	0.99713	0.60912	0.12
Mof_C 	C 	0.8246	0.01741	0.58753	0.165
Mof_C 	C 	0.82114	0.96751	0.58416	-0.071
Mof_C 	C 	0.8687	0.0509	0.5768	-0.523
Mof_C 	C 	0.81131	0.17377	0.39438	0.102
Mof_C 	C 	0.84319	0.16586	0.32145	0.151
Mof_C 	C 	0.80944	0.12837	0.32771	-0.061
Mof_C 	C 	0.8751	0.1787	0.2771	-0.506
Mof_C 	C 	0.75706	0.10088	0.49775	0.12
Mof_C 	C 	0.71801	0.16803	0.51529	0.168
Mof_C 	C 	0.7156	0.16221	0.46558	-0.075
Mof_C 	C 	0.6966	0.2082	0.5472	-0.528
Mof_C 	C 	0.68864	0.10918	0.32598	0.123
Mof_C 	C 	0.62079	0.08232	0.35836	0.162
Mof_C 	C 	0.656	0.08015	0.39385	-0.071
Mof_C 	C 	0.56668	0.0681	0.363	-0.523
Mof_C 	C 	0.75079	0.00287	0.39088	0.12
Mof_C 	C 	0.8246	0.98259	0.41247	0.165
Mof_C 	C 	0.82114	0.03249	0.41584	-0.071
Mof_C 	C 	0.8687	0.9491	0.4232	-0.523
Mof_C 	C 	0.18869	0.17377	0.60562	0.102
Mof_C 	C 	0.15681	0.16586	0.67855	0.151
Mof_C 	C 	0.19056	0.12837	0.67229	-0.061
Mof_C 	C 	0.1249	0.1787	0.7229	-0.506
Mof_C 	C 	0.24294	0.10088	0.50225	0.12
Mof_C 	C 	0.28199	0.16803	0.48471	0.168
Mof_C 	C 	0.2844	0.16221	0.53442	-0.075
Mof_C 	C 	0.3034	0.2082	0.4528	-0.528
Mof_C 	C 	0.31136	0.10918	0.67402	0.123
Mof_C 	C 	0.37921	0.08232	0.64164	0.162
Mof_C 	C 	0.344	0.08015	0.60615	-0.071
Mof_C 	C 	0.43332	0.0681	0.637	-0.523
Mof_C 	C 	0.24921	0.00287	0.60912	0.12
Mof_C 	C 	0.1754	0.98259	0.58753	0.165
Mof_C 	C 	0.17886	0.03249	0.58416	-0.071
Mof_C 	C 	0.1313	0.9491	0.5768	-0.523
Mof_C 	C 	0.18869	0.82623	0.39438	0.102
Mof_C 	C 	0.15681	0.83414	0.32145	0.151
Mof_C 	C 	0.19056	0.87163	0.32771	-0.061
Mof_C 	C 	0.1249	0.8213	0.2771	-0.506
Mof_C 	C 	0.24294	0.89912	0.49775	0.12
Mof_C 	C 	0.28199	0.83197	0.51529	0.168
Mof_C 	C 	0.2844	0.83779	0.46558	-0.075
Mof_C 	C 	0.3034	0.7918	0.5472	-0.528
Mof_C 	C 	0.31136	0.89082	0.32598	0.123
Mof_C 	C 	0.37921	0.91768	0.35836	0.162
Mof_C 	C 	0.344	0.91985	0.39385	-0.071
Mof_C 	C 	0.43332	0.9319	0.363	-0.523
Mof_C 	C 	0.24921	0.99713	0.39088	0.12
Mof_C 	C 	0.1754	0.01741	0.41247	0.165
Mof_C 	C 	0.17886	0.96751	0.41584	-0.071
Mof_C 	C 	0.1313	0.0509	0.4232	-0.523
Mof_C 	C 	0.60562	0.81131	0.82623	0.102
Mof_C 	C 	0.67855	0.84319	0.83414	0.151
Mof_C 	C 	0.67229	0.80944	0.87163	-0.061
Mof_C 	C 	0.7229	0.8751	0.8213	-0.506
Mof_C 	C 	0.50225	0.75706	0.89912	0.12
Mof_C 	C 	0.48471	0.71801	0.83197	0.168
Mof_C 	C 	0.53442	0.7156	0.83779	-0.075
Mof_C 	C 	0.4528	0.6966	0.7918	-0.528
Mof_C 	C 	0.67402	0.68864	0.89082	0.123
Mof_C 	C 	0.64164	0.62079	0.91768	0.162
Mof_C 	C 	0.60615	0.656	0.91985	-0.071
Mof_C 	C 	0.637	0.56668	0.9319	-0.523
Mof_C 	C 	0.60912	0.75079	0.99713	0.12
Mof_C 	C 	0.58753	0.8246	0.01741	0.165
Mof_C 	C 	0.58416	0.82114	0.96751	-0.071
Mof_C 	C 	0.5768	0.8687	0.0509	-0.523
Mof_C 	C 	0.39438	0.81131	0.17377	0.102
Mof_C 	C 	0.32145	0.84319	0.16586	0.151
Mof_C 	C 	0.32771	0.80944	0.12837	-0.061
Mof_C 	C 	0.2771	0.8751	0.1787	-0.506
Mof_C 	C 	0.49775	0.75706	0.10088	0.12
Mof_C 	C 	0.51529	0.71801	0.16803	0.168
Mof_C 	C 	0.46558	0.7156	0.16221	-0.075
Mof_C 	C 	0.5472	0.6966	0.2082	-0.528
Mof_C 	C 	0.32598	0.68864	0.10918	0.123
Mof_C 	C 	0.35836	0.62079	0.08232	0.162
Mof_C 	C 	0.39385	0.656	0.08015	-0.071
Mof_C 	C 	0.363	0.56668	0.0681	-0.523
Mof_C 	C 	0.39088	0.75079	0.00287	0.12
Mof_C 	C 	0.41247	0.8246	0.98259	0.165
Mof_C 	C 	0.41584	0.82114	0.03249	-0.071
Mof_C 	C 	0.4232	0.8687	0.9491	-0.523
Mof_C 	C 	0.60562	0.18869	0.17377	0.102
Mof_C 	C 	0.67855	0.15681	0.16586	0.151
Mof_C 	C 	0.67229	0.19056	0.12837	-0.061
Mof_C 	C 	0.7229	0.1249	0.1787	-0.506
Mof_C 	C 	0.50225	0.24294	0.10088	0.12
Mof_C 	C 	0.48471	0.28199	0.16803	0.168
Mof_C 	C 	0.53442	0.2844	0.16221	-0.075
Mof_C 	C 	0.4528	0.3034	0.2082	-0.528
Mof_C 	C 	0.67402	0.31136	0.10918	0.123
Mof_C 	C 	0.64164	0.37921	0.08232	0.162
Mof_C 	C 	0.60615	0.344	0.08015	-0.071
Mof_C 	C 	0.637	0.43332	0.0681	-0.523
Mof_C 	C 	0.60912	0.24921	0.00287	0.12
Mof_C 	C 	0.58753	0.1754	0.98259	0.165
Mof_C 	C 	0.58416	0.17886	0.03249	-0.071
Mof_C 	C 	0.5768	0.1313	0.9491	-0.523
Mof_C 	C 	0.39438	0.18869	0.82623	0.102
Mof_C 	C 	0.32145	0.15681	0.83414	0.151
Mof_C 	C 	0.32771	0.19056	0.87163	-0.061
Mof_C 	C 	0.2771	0.1249	0.8213	-0.506
Mof_C 	C 	0.49775	0.24294	0.89912	0.12
Mof_C 	C 	0.51529	0.28199	0.83197	0.168
Mof_C 	C 	0.46558	0.2844	0.83779	-0.075
Mof_C 	C 	0.5472	0.3034	0.7918	-0.528
Mof_C 	C 	0.32598	0.31136	0.89082	0.123
Mof_C 	C 	0.35836	0.37921	0.91768	0.162
Mof_C 	C 	0.39385	0.344	0.91985	-0.071
Mof_C 	C 	0.363	0.43332	0.9319	-0.523
Mof_C 	C 	0.39088	0.24921	0.99713	0.12
Mof_C 	C 	0.41247	0.1754	0.01741	0.165
Mof_C 	C 	0.41584	0.17886	0.96751	-0.071
Mof_C 	C 	0.4232	0.1313	0.0509	-0.523
Mof_C 	C 	0.60562	0.82623	0.18869	0.102
Mof_C 	C 	0.67855	0.83414	0.15681	0.151
Mof_C 	C 	0.67229	0.87163	0.19056	-0.061
Mof_C 	C 	0.7229	0.8213	0.1249	-0.506
Mof_C 	C 	0.50225	0.89912	0.24294	0.12
Mof_C 	C 	0.48471	0.83197	0.28199	0.168
Mof_C 	C 	0.53442	0.83779	0.2844	-0.075
Mof_C 	C 	0.4528	0.7918	0.3034	-0.528
Mof_C 	C 	0.67402	0.89082	0.31136	0.123
Mof_C 	C 	0.64164	0.91768	0.37921	0.162
Mof_C 	C 	0.60615	0.91985	0.344	-0.071
Mof_C 	C 	0.637	0.9319	0.43332	-0.523
Mof_C 	C 	0.60912	0.99713	0.24921	0.12
Mof_C 	C 	0.58753	0.01741	0.1754	0.165
Mof_C 	C 	0.58416	0.96751	0.17886	-0.071
Mof_C 	C 	0.5768	0.0509	0.1313	-0.523
Mof_C 	C 	0.39438	0.17377	0.18869	0.102
Mof_C 	C 	0.32145	0.16586	0.15681	0.151
Mof_C 	C 	0.32771	0.12837	0.19056	-0.061
Mof_C 	C 	0.2771	0.1787	0.1249	-0.506
Mof_C 	C 	0.49775	0.10088	0.24294	0.12
Mof_C 	C 	0.51529	0.16803	0.28199	0.168
Mof_C 	C 	0.46558	0.16221	0.2844	-0.075
Mof_C 	C 	0.5472	0.2082	0.3034	-0.528
Mof_C 	C 	0.32598	0.10918	0.31136	0.123
Mof_C 	C 	0.35836	0.08232	0.37921	0.162
Mof_C 	C 	0.39385	0.08015	0.344	-0.071
Mof_C 	C 	0.363	0.0681	0.43332	-0.523
Mof_C 	C 	0.39088	0.00287	0.24921	0.12
Mof_C 	C 	0.41247	0.98259	0.1754	0.165
Mof_C 	C 	0.41584	0.03249	0.17886	-0.071
Mof_C 	C 	0.4232	0.9491	0.1313	-0.523
Mof_C 	C 	0.60562	0.17377	0.81131	0.102
Mof_C 	C 	0.67855	0.16586	0.84319	0.151
Mof_C 	C 	0.67229	0.12837	0.80944	-0.061
Mof_C 	C 	0.7229	0.1787	0.8751	-0.506
Mof_C 	C 	0.50225	0.10088	0.75706	0.12
Mof_C 	C 	0.48471	0.16803	0.71801	0.168
Mof_C 	C 	0.53442	0.16221	0.7156	-0.075
Mof_C 	C 	0.4528	0.2082	0.6966	-0.528
Mof_C 	C 	0.67402	0.10918	0.68864	0.123
Mof_C 	C 	0.64164	0.08232	0.62079	0.162
Mof_C 	C 	0.60615	0.08015	0.656	-0.071
Mof_C 	C 	0.637	0.0681	0.56668	-0.523
Mof_C 	C 	0.60912	0.00287	0.75079	0.12
Mof_C 	C 	0.58753	0.98259	0.8246	0.165
Mof_C 	C 	0.58416	0.03249	0.82114	-0.071
Mof_C 	C 	0.5768	0.9491	0.8687	-0.523
Mof_C 	C 	0.39438	0.82623	0.81131	0.102
Mof_C 	C 	0.32145	0.83414	0.84319	0.151
Mof_C 	C 	0.32771	0.87163	0.80944	-0.061
Mof_C 	C 	0.2771	0.8213	0.8751	-0.506
Mof_C 	C 	0.49775	0.89912	0.75706	0.12
Mof_C 	C 	0.51529	0.83197	0.71801	0.168
Mof_C 	C 	0.46558	0.83779	0.7156	-0.075
Mof_C 	C 	0.5472	0.7918	0.6966	-0.528
Mof_C 	C 	0.32598	0.89082	0.68864	0.123
Mof_C 	C 	0.35836	0.91768	0.62079	0.162
Mof_C 	C 	0.39385	0.91985	0.656	-0.071
Mof_C 	C 	0.363	0.9319	0.56668	-0.523
Mof_C 	C 	0.39088	0.99713	0.75079	0.12
Mof_C 	C 	0.41247	0.01741	0.8246	0.165
Mof_C 	C 	0.41584	0.96751	0.82114	-0.071
Mof_C 	C 	0.4232	0.0509	0.8687	-0.523
Mof_C 	C 	0.82623	0.81131	0.39438	0.102
Mof_C 	C 	0.83414	0.84319	0.32145	0.151
Mof_C 	C 	0.87163	0.80944	0.32771	-0.061
Mof_C 	C 	0.8213	0.8751	0.2771	-0.506
Mof_C 	C 	0.89912	0.75706	0.49775	0.12
Mof_C 	C 	0.83197	0.71801	0.51529	0.168
Mof_C 	C 	0.83779	0.7156	0.46558	-0.075
Mof_C 	C 	0.7918	0.6966	0.5472	-0.528
Mof_C 	C 	0.89082	0.68864	0.32598	0.123
Mof_C 	C 	0.91768	0.62079	0.35836	0.162
Mof_C 	C 	0.91985	0.656	0.39385	-0.071
Mof_C 	C 	0.9319	0.56668	0.363	-0.523
Mof_C 	C 	0.99713	0.75079	0.39088	0.12
Mof_C 	C 	0.01741	0.8246	0.41247	0.165
Mof_C 	C 	0.96751	0.82114	0.41584	-0.071
Mof_C 	C 	0.0509	0.8687	0.4232	-0.523
Mof_C 	C 	0.17377	0.81131	0.60562	0.102
Mof_C 	C 	0.16586	0.84319	0.67855	0.151
Mof_C 	C 	0.12837	0.80944	0.67229	-0.061
Mof_C 	C 	0.1787	0.8751	0.7229	-0.506
Mof_C 	C 	0.10088	0.75706	0.50225	0.12
Mof_C 	C 	0.16803	0.71801	0.48471	0.168
Mof_C 	C 	0.16221	0.7156	0.53442	-0.075
Mof_C 	C 	0.2082	0.6966	0.4528	-0.528
Mof_C 	C 	0.10918	0.68864	0.67402	0.123
Mof_C 	C 	0.08232	0.62079	0.64164	0.162
Mof_C 	C 	0.08015	0.656	0.60615	-0.071
Mof_C 	C 	0.0681	0.56668	0.637	-0.523
Mof_C 	C 	0.00287	0.75079	0.60912	0.12
Mof_C 	C 	0.98259	0.8246	0.58753	0.165
Mof_C 	C 	0.03249	0.82114	0.58416	-0.071
Mof_C 	C 	0.9491	0.8687	0.5768	-0.523
Mof_C 	C 	0.17377	0.18869	0.39438	0.102
Mof_C 	C 	0.16586	0.15681	0.32145	0.151
Mof_C 	C 	0.12837	0.19056	0.32771	-0.061
Mof_C 	C 	0.1787	0.1249	0.2771	-0.506
Mof_C 	C 	0.10088	0.24294	0.49775	0.12
Mof_C 	C 	0.16803	0.28199	0.51529	0.168
Mof_C 	C 	0.16221	0.2844	0.46558	-0.075
Mof_C 	C 	0.2082	0.3034	0.5472	-0.528
Mof_C 	C 	0.10918	0.31136	0.32598	0.123
Mof_C 	C 	0.08232	0.37921	0.35836	0.162
Mof_C 	C 	0.08015	0.344	0.39385	-0.071
Mof_C 	C 	0.0681	0.43332	0.363	-0.523
Mof_C 	C 	0.00287	0.24921	0.39088	0.12
Mof_C 	C 	0.98259	0.1754	0.41247	0.165
Mof_C 	C 	0.03249	0.17886	0.41584	-0.071
Mof_C 	C 	0.9491	0.1313	0.4232	-0.523
Mof_C 	C 	0.82623	0.18869	0.60562	0.102
Mof_C 	C 	0.83414	0.15681	0.67855	0.151
Mof_C 	C 	0.87163	0.19056	0.67229	-0.061
Mof_C 	C 	0.8213	0.1249	0.7229	-0.506
Mof_C 	C 	0.89912	0.24294	0.50225	0.12
Mof_C 	C 	0.83197	0.28199	0.48471	0.168
Mof_C 	C 	0.83779	0.2844	0.53442	-0.075
Mof_C 	C 	0.7918	0.3034	0.4528	-0.528
Mof_C 	C 	0.89082	0.31136	0.67402	0.123
Mof_C 	C 	0.91768	0.37921	0.64164	0.162
Mof_C 	C 	0.91985	0.344	0.60615	-0.071
Mof_C 	C 	0.9319	0.43332	0.637	-0.523
Mof_C 	C 	0.99713	0.24921	0.60912	0.12
Mof_C 	C 	0.01741	0.1754	0.58753	0.165
Mof_C 	C 	0.96751	0.17886	0.58416	-0.071
Mof_C 	C 	0.0509	0.1313	0.5768	-0.523
Mof_C 	C 	0.81131	0.60562	0.17377	0.102
Mof_C 	C 	0.84319	0.67855	0.16586	0.151
Mof_C 	C 	0.80944	0.67229	0.12837	-0.061
Mof_C 	C 	0.8751	0.7229	0.1787	-0.506
Mof_C 	C 	0.75706	0.50225	0.10088	0.12
Mof_C 	C 	0.71801	0.48471	0.16803	0.168
Mof_C 	C 	0.7156	0.53442	0.16221	-0.075
Mof_C 	C 	0.6966	0.4528	0.2082	-0.528
Mof_C 	C 	0.68864	0.67402	0.10918	0.123
Mof_C 	C 	0.62079	0.64164	0.08232	0.162
Mof_C 	C 	0.656	0.60615	0.08015	-0.071
Mof_C 	C 	0.56668	0.637	0.0681	-0.523
Mof_C 	C 	0.75079	0.60912	0.00287	0.12
Mof_C 	C 	0.8246	0.58753	0.98259	0.165
Mof_C 	C 	0.82114	0.58416	0.03249	-0.071
Mof_C 	C 	0.8687	0.5768	0.9491	-0.523
Mof_C 	C 	0.81131	0.39438	0.82623	0.102
Mof_C 	C 	0.84319	0.32145	0.83414	0.151
Mof_C 	C 	0.80944	0.32771	0.87163	-0.061
Mof_C 	C 	0.8751	0.2771	0.8213	-0.506
Mof_C 	C 	0.75706	0.49775	0.89912	0.12
Mof_C 	C 	0.71801	0.51529	0.83197	0.168
Mof_C 	C 	0.7156	0.46558	0.83779	-0.075
Mof_C 	C 	0.6966	0.5472	0.7918	-0.528
Mof_C 	C 	0.68864	0.32598	0.89082	0.123
Mof_C 	C 	0.62079	0.35836	0.91768	0.162
Mof_C 	C 	0.656	0.39385	0.91985	-0.071
Mof_C 	C 	0.56668	0.363	0.9319	-0.523
Mof_C 	C 	0.75079	0.39088	0.99713	0.12
Mof_C 	C 	0.8246	0.41247	0.01741	0.165
Mof_C 	C 	0.82114	0.41584	0.96751	-0.071
Mof_C 	C 	0.8687	0.4232	0.0509	-0.523
Mof_C 	C 	0.18869	0.60562	0.82623	0.102
Mof_C 	C 	0.15681	0.67855	0.83414	0.151
Mof_C 	C 	0.19056	0.67229	0.87163	-0.061
Mof_C 	C 	0.1249	0.7229	0.8213	-0.506
Mof_C 	C 	0.24294	0.50225	0.89912	0.12
Mof_C 	C 	0.28199	0.48471	0.83197	0.168
Mof_C 	C 	0.2844	0.53442	0.83779	-0.075
Mof_C 	C 	0.3034	0.4528	0.7918	-0.528
Mof_C 	C 	0.31136	0.67402	0.89082	0.123
Mof_C 	C 	0.37921	0.64164	0.91768	0.162
Mof_C 	C 	0.344	0.60615	0.91985	-0.071
Mof_C 	C 	0.43332	0.637	0.9319	-0.523
Mof_C 	C 	0.24921	0.60912	0.99713	0.12
Mof_C 	C 	0.1754	0.58753	0.01741	0.165
Mof_C 	C 	0.17886	0.58416	0.96751	-0.071
Mof_C 	C 	0.1313	0.5768	0.0509	-0.523
Mof_C 	C 	0.18869	0.39438	0.17377	0.102
Mof_C 	C 	0.15681	0.32145	0.16586	0.151
Mof_C 	C 	0.19056	0.32771	0.12837	-0.061
Mof_C 	C 	0.1249	0.2771	0.1787	-0.506
Mof_C 	C 	0.24294	0.49775	0.10088	0.12
Mof_C 	C 	0.28199	0.51529	0.16803	0.168
Mof_C 	C 	0.2844	0.46558	0.16221	-0.075
Mof_C 	C 	0.3034	0.5472	0.2082	-0.528
Mof_C 	C 	0.31136	0.32598	0.10918	0.123
Mof_C 	C 	0.37921	0.35836	0.08232	0.162
Mof_C 	C 	0.344	0.39385	0.08015	-0.071
Mof_C 	C 	0.43332	0.363	0.0681	-0.523
Mof_C 	C 	0.24921	0.39088	0.00287	0.12
Mof_C 	C 	0.1754	0.41247	0.98259	0.165
Mof_C 	C 	0.17886	0.41584	0.03249	-0.071
Mof_C 	C 	0.1313	0.4232	0.9491	-0.523
Mof_N 	N 	0.86647	0.62586	0.78843	-0.288
Mof_N 	N 	0.80589	0.63575	0.84477	-0.273
Mof_N 	N 	0.88111	0.54625	0.74121	-0.294
Mof_N 	N 	0.87111	0.46422	0.74447	-0.265
Mof_N 	N 	0.90242	0.62637	0.70006	-0.289
Mof_N 	N 	0.89913	0.68513	0.64179	-0.277
Mof_N 	N 	0.95406	0.5977	0.77313	-0.293
Mof_N 	N 	0.03609	0.6034	0.77982	-0.268
Mof_N 	N 	0.13353	0.37414	0.78843	-0.288
Mof_N 	N 	0.19411	0.36425	0.84477	-0.273
Mof_N 	N 	0.11889	0.45375	0.74121	-0.294
Mof_N 	N 	0.12889	0.53578	0.74447	-0.265
Mof_N 	N 	0.09758	0.37363	0.70006	-0.289
Mof_N 	N 	0.10087	0.31487	0.64179	-0.277
Mof_N 	N 	0.04594	0.4023	0.77313	-0.293
Mof_N 	N 	0.96391	0.3966	0.77982	-0.268
Mof_N 	N 	0.13353	0.62586	0.21157	-0.288
Mof_N 	N 	0.19411	0.63575	0.15523	-0.273
Mof_N 	N 	0.11889	0.54625	0.25879	-0.294
Mof_N 	N 	0.12889	0.46422	0.25553	-0.265
Mof_N 	N 	0.09758	0.62637	0.29994	-0.289
Mof_N 	N 	0.10087	0.68513	0.35821	-0.277
Mof_N 	N 	0.04594	0.5977	0.22687	-0.293
Mof_N 	N 	0.96391	0.6034	0.22018	-0.268
Mof_N 	N 	0.86647	0.37414	0.21157	-0.288
Mof_N 	N 	0.80589	0.36425	0.15523	-0.273
Mof_N 	N 	0.88111	0.45375	0.25879	-0.294
Mof_N 	N 	0.87111	0.53578	0.25553	-0.265
Mof_N 	N 	0.90242	0.37363	0.29994	-0.289
Mof_N 	N 	0.89913	0.31487	0.35821	-0.277
Mof_N 	N 	0.95406	0.4023	0.22687	-0.293
Mof_N 	N 	0.03609	0.3966	0.22018	-0.268
Mof_N 	N 	0.78843	0.86647	0.62586	-0.288
Mof_N 	N 	0.84477	0.80589	0.63575	-0.273
Mof_N 	N 	0.74121	0.88111	0.54625	-0.294
Mof_N 	N 	0.74447	0.87111	0.46422	-0.265
Mof_N 	N 	0.70006	0.90242	0.62637	-0.289
Mof_N 	N 	0.64179	0.89913	0.68513	-0.277
Mof_N 	N 	0.77313	0.95406	0.5977	-0.293
Mof_N 	N 	0.77982	0.03609	0.6034	-0.268
Mof_N 	N 	0.78843	0.13353	0.37414	-0.288
Mof_N 	N 	0.84477	0.19411	0.36425	-0.273
Mof_N 	N 	0.74121	0.11889	0.45375	-0.294
Mof_N 	N 	0.74447	0.12889	0.53578	-0.265
Mof_N 	N 	0.70006	0.09758	0.37363	-0.289
Mof_N 	N 	0.64179	0.10087	0.31487	-0.277
Mof_N 	N 	0.77313	0.04594	0.4023	-0.293
Mof_N 	N 	0.77982	0.96391	0.3966	-0.268
Mof_N 	N 	0.21157	0.13353	0.62586	-0.288
Mof_N 	N 	0.15523	0.19411	0.63575	-0.273
Mof_N 	N 	0.25879	0.11889	0.54625	-0.294
Mof_N 	N 	0.25553	0.12889	0.46422	-0.265
Mof_N 	N 	0.29994	0.09758	0.62637	-0.289
Mof_N 	N 	0.35821	0.10087	0.68513	-0.277
Mof_N 	N 	0.22687	0.04594	0.5977	-0.293
Mof_N 	N 	0.22018	0.96391	0.6034	-0.268
Mof_N 	N 	0.21157	0.86647	0.37414	-0.288
Mof_N 	N 	0.15523	0.80589	0.36425	-0.273
Mof_N 	N 	0.25879	0.88111	0.45375	-0.294
Mof_N 	N 	0.25553	0.87111	0.53578	-0.265
Mof_N 	N 	0.29994	0.90242	0.37363	-0.289
Mof_N 	N 	0.35821	0.89913	0.31487	-0.277
Mof_N 	N 	0.22687	0.95406	0.4023	-0.293
Mof_N 	N 	0.22018	0.03609	0.3966	-0.268
Mof_N 	N 	0.62586	0.78843	0.86647	-0.288
Mof_N 	N 	0.63575	0.84477	0.80589	-0.273
Mof_N 	N 	0.54625	0.74121	0.88111	-0.294
Mof_N 	N 	0.46422	0.74447	0.87111	-0.265
Mof_N 	N 	0.62637	0.70006	0.90242	-0.289
Mof_N 	N 	0.68513	0.64179	0.89913	-0.277
Mof_N 	N 	0.5977	0.77313	0.95406	-0.293
Mof_N 	N 	0.6034	0.77982	0.03609	-0.268
Mof_N 	N 	0.37414	0.78843	0.13353	-0.288
Mof_N 	N 	0.36425	0.84477	0.19411	-0.273
Mof_N 	N 	0.45375	0.74121	0.11889	-0.294
Mof_N 	N 	0.53578	0.74447	0.12889	-0.265
Mof_N 	N 	0.37363	0.70006	0.09758	-0.289
Mof_N 	N 	0.31487	0.64179	0.10087	-0.277
Mof_N 	N 	0.4023	0.77313	0.04594	-0.293
Mof_N 	N 	0.3966	0.77982	0.96391	-0.268
Mof_N 	N 	0.62586	0.21157	0.13353	-0.288
Mof_N 	N 	0.63575	0.15523	0.19411	-0.273
Mof_N 	N 	0.54625	0.25879	0.11889	-0.294
Mof_N 	N 	0.46422	0.25553	0.12889	-0.265
Mof_N 	N 	0.62637	0.29994	0.09758	-0.289
Mof_N 	N 	0.68513	0.35821	0.10087	-0.277
Mof_N 	N 	0.5977	0.22687	0.04594	-0.293
Mof_N 	N 	0.6034	0.22018	0.96391	-0.268
Mof_N 	N 	0.37414	0.21157	0.86647	-0.288
Mof_N 	N 	0.36425	0.15523	0.80589	-0.273
Mof_N 	N 	0.45375	0.25879	0.88111	-0.294
Mof_N 	N 	0.53578	0.25553	0.87111	-0.265
Mof_N 	N 	0.37363	0.29994	0.90242	-0.289
Mof_N 	N 	0.31487	0.35821	0.89913	-0.277
Mof_N 	N 	0.4023	0.22687	0.95406	-0.293
Mof_N 	N 	0.3966	0.22018	0.03609	-0.268
Mof_N 	N 	0.62586	0.86647	0.21157	-0.288
Mof_N 	N 	0.63575	0.80589	0.15523	-0.273
Mof_N 	N 	0.54625	0.88111	0.25879	-0.294
Mof_N 	N 	0.46422	0.87111	0.25553	-0.265
Mof_N 	N 	0.62637	0.90242	0.29994	-0.289
Mof_N 	N 	0.68513	0.89913	0.35821	-0.277
Mof_N 	N 	0.5977	0.95406	0.22687	-0.293
Mof_N 	N 	0.6034	0.03609	0.22018	-0.268
Mof_N 	N 	0.37414	0.13353	0.21157	-0.288
Mof_N 	N 	0.36425	0.19411	0.15523	-0.273
Mof_N 	N 	0.45375	0.11889	0.25879	-0.294
Mof_N 	N 	0.53578	0.12889	0.25553	-0.265
Mof_N 	N 	0.37363	0.09758	0.29994	-0.289
Mof_N 	N 	0.31487	0.10087	0.35821	-0.277
Mof_N 	N 	0.4023	0.04594	0.22687	-0.293
Mof_N 	N 	0.3966	0.96391	0.22018	-0.268
Mof_N 	N 	0.62586	0.13353	0.78843	-0.288
Mof_N 	N 	0.63575	0.19411	0.84477	-0.273
Mof_N 	N 	0.54625	0.11889	0.74121	-0.294
Mof_N 	N 	0.46422	0.12889	0.74447	-0.265
Mof_N 	N 	0.62637	0.09758	0.70006	-0.289
Mof_N 	N 	0.68513	0.10087	0.64179	-0.277
Mof_N 	N 	0.5977	0.04594	0.77313	-0.293
Mof_N 	N 	0.6034	0.96391	0.77982	-0.268
Mof_N 	N 	0.37414	0.86647	0.78843	-0.288
Mof_N 	N 	0.36425	0.80589	0.84477	-0.273
Mof_N 	N 	0.45375	0.88111	0.74121	-0.294
Mof_N 	N 	0.53578	0.87111	0.74447	-0.265
Mof_N 	N 	0.37363	0.90242	0.70006	-0.289
Mof_N 	N 	0.31487	0.89913	0.64179	-0.277
Mof_N 	N 	0.4023	0.95406	0.77313	-0.293
Mof_N 	N 	0.3966	0.03609	0.77982	-0.268
Mof_N 	N 	0.86647	0.78843	0.37414	-0.288
Mof_N 	N 	0.80589	0.84477	0.36425	-0.273
Mof_N 	N 	0.88111	0.74121	0.45375	-0.294
Mof_N 	N 	0.87111	0.74447	0.53578	-0.265
Mof_N 	N 	0.90242	0.70006	0.37363	-0.289
Mof_N 	N 	0.89913	0.64179	0.31487	-0.277
Mof_N 	N 	0.95406	0.77313	0.4023	-0.293
Mof_N 	N 	0.03609	0.77982	0.3966	-0.268
Mof_N 	N 	0.13353	0.78843	0.62586	-0.288
Mof_N 	N 	0.19411	0.84477	0.63575	-0.273
Mof_N 	N 	0.11889	0.74121	0.54625	-0.294
Mof_N 	N 	0.12889	0.74447	0.46422	-0.265
Mof_N 	N 	0.09758	0.70006	0.62637	-0.289
Mof_N 	N 	0.10087	0.64179	0.68513	-0.277
Mof_N 	N 	0.04594	0.77313	0.5977	-0.293
Mof_N 	N 	0.96391	0.77982	0.6034	-0.268
Mof_N 	N 	0.13353	0.21157	0.37414	-0.288
Mof_N 	N 	0.19411	0.15523	0.36425	-0.273
Mof_N 	N 	0.11889	0.25879	0.45375	-0.294
Mof_N 	N 	0.12889	0.25553	0.53578	-0.265
Mof_N 	N 	0.09758	0.29994	0.37363	-0.289
Mof_N 	N 	0.10087	0.35821	0.31487	-0.277
Mof_N 	N 	0.04594	0.22687	0.4023	-0.293
Mof_N 	N 	0.96391	0.22018	0.3966	-0.268
Mof_N 	N 	0.86647	0.21157	0.62586	-0.288
Mof_N 	N 	0.80589	0.15523	0.63575	-0.273
Mof_N 	N 	0.88111	0.25879	0.54625	-0.294
Mof_N 	N 	0.87111	0.25553	0.46422	-0.265
Mof_N 	N 	0.90242	0.29994	0.62637	-0.289
Mof_N 	N 	0.89913	0.35821	0.68513	-0.277
Mof_N 	N 	0.95406	0.22687	0.5977	-0.293
Mof_N 	N 	0.03609	0.22018	0.6034	-0.268
Mof_N 	N 	0.78843	0.62586	0.13353	-0.288
Mof_N 	N 	0.84477	0.63575	0.19411	-0.273
Mof_N 	N 	0.74121	0.54625	0.11889	-0.294
Mof_N 	N 	0.74447	0.46422	0.12889	-0.265
Mof_N 	N 	0.70006	0.62637	0.09758	-0.289
Mof_N 	N 	0.64179	0.68513	0.10087	-0.277
Mof_N 	N 	0.77313	0.5977	0.04594	-0.293
Mof_N 	N 	0.77982	0.6034	0.96391	-0.268
Mof_N 	N 	0.78843	0.37414	0.86647	-0.288
Mof_N 	N 	0.84477	0.36425	0.80589	-0.273
Mof_N 	N 	0.74121	0.45375	0.88111	-0.294
Mof_N 	N 	0.74447	0.53578	0.87111	-0.265
Mof_N 	N 	0.70006	0.37363	0.90242	-0.289
Mof_N 	N 	0.64179	0.31487	0.89913	-0.277
Mof_N 	N 	0.77313	0.4023	0.95406	-0.293
Mof_N 	N 	0.77982	0.3966	0.03609	-0.268
Mof_N 	N 	0.21157	0.62586	0.86647	-0.288
Mof_N 	N 	0.15523	0.63575	0.80589	-0.273
Mof_N 	N 	0.25879	0.54625	0.88111	-0.294
Mof_N 	N 	0.25553	0.46422	0.87111	-0.265
Mof_N 	N 	0.29994	0.62637	0.90242	-0.289
Mof_N 	N 	0.35821	0.68513	0.89913	-0.277
Mof_N 	N 	0.22687	0.5977	0.95406	-0.293
Mof_N 	N 	0.22018	0.6034	0.03609	-0.268
Mof_N 	N 	0.21157	0.37414	0.13353	-0.288
Mof_N 	N 	0.15523	0.36425	0.19411	-0.273
Mof_N 	N 	0.25879	0.45375	0.11889	-0.294
Mof_N 	N 	0.25553	0.53578	0.12889	-0.265
Mof_N 	N 	0.29994	0.37363	0.09758	-0.289
Mof_N 	N 	0.35821	0.31487	0.10087	-0.277
Mof_N 	N 	0.22687	0.4023	0.04594	-0.293
Mof_N 	N 	0.22018	0.3966	0.96391	-0.268
_end
