# CIF file generated by openbabel 3.1.0, see https://openbabel.org
data_I
_chemical_name_common 'image0'
_cell_length_a 26.63
_cell_length_b 35.928
_cell_length_c 13.001
_cell_angle_alpha 90
_cell_angle_beta 90
_cell_angle_gamma 90
_space_group_name_H-M_alt 'P 1'
_space_group_name_Hall 'P 1'
loop_
    _symmetry_equiv_pos_as_xyz
    x,y,z
loop_
    _atom_site_label
    _atom_site_type_symbol
    _atom_site_fract_x
    _atom_site_fract_y
    _atom_site_fract_z
    _atom_site_occupancy
    Zn1      Zn       0.35469    0.11894    0.58537    1.000
    Zn2      Zn       0.22689    0.06110    0.49499    1.000
    O1       O        0.30114    0.09629    0.49685    1.000
    O2       O        0.37826    0.14921    0.46058    1.000
    O3       O        0.39705    0.15815    0.29710    1.000
    O4       O        0.40217    0.13996    0.68827    1.000
    O5       O        0.32530    0.08368    0.69962    1.000
    O6       O        0.29174    0.07871    0.85503    1.000
    N1       N        0.26304    0.07377    0.36042    1.000
    N2       N        0.44053    0.15164    0.83678    1.000
    N3       N        0.16909    0.02480    0.46108    1.000
    N4       N        0.95347    0.91329    0.37346    1.000
    C1       C        0.30010    0.09592    0.39810    1.000
    C2       C        0.33173    0.11612    0.33050    1.000
    C3       C        0.32413    0.11094    0.22520    1.000
    H1       H        0.34450    0.12420    0.17780    1.000
    C4       C        0.28759    0.08688    0.18810    1.000
    H2       H        0.28340    0.08290    0.11640    1.000
    C5       C        0.25756    0.06897    0.25910    1.000
    H3       H        0.23210    0.05260    0.23510    1.000
    C6       C        0.37204    0.14289    0.36640    1.000
    C7       C        0.40286    0.13381    0.78470    1.000
    C8       C        0.36831    0.11155    0.84220    1.000
    C9       C        0.37529    0.10817    0.94750    1.000
    H4       H        0.35180    0.09430    0.98680    1.000
    C10      C        0.41587    0.12457    0.99660    1.000
    H5       H        0.42180    0.12090    0.06790    1.000
    C11      C        0.44731    0.14643    0.93770    1.000
    H6       H        0.47500    0.15830    0.97020    1.000
    C12      C        0.32525    0.09005    0.79580    1.000
    C13      C        0.14435    0.02642    0.37100    1.000
    H7       H        0.15620    0.04300    0.31940    1.000
    C14      C        0.10254    0.00505    0.35070    1.000
    H8       H        0.08670    0.00640    0.28530    1.000
    C15      C        0.08351    0.98138    0.42630    1.000
    C16      C        0.10924    0.97982    0.51920    1.000
    H9       H        0.09770    0.96410    0.57290    1.000
    C17      C        0.15181    0.00136    0.53290    1.000
    H10      H        0.16950    0.99940    0.59610    1.000
    C18      C        0.98422    0.92333    0.29670    1.000
    H11      H        0.97700    0.91460    0.22940    1.000
    C19      C        0.02584    0.94574    0.31020    1.000
    H12      H        0.04630    0.95220    0.25310    1.000
    C20      C        0.03752    0.95875    0.40800    1.000
    C21      C        0.00512    0.94922    0.48810    1.000
    H13      H        0.01120    0.95790    0.55590    1.000
    C22      C        0.96389    0.92680    0.46710    1.000
    H14      H        0.94190    0.92070    0.52210    1.000
    Zn3      Zn       0.85469    0.11894    0.08537    1.000
    Zn4      Zn       0.72689    0.06110    0.99499    1.000
    O7       O        0.80114    0.09629    0.99685    1.000
    O8       O        0.87826    0.14921    0.96058    1.000
    O9       O        0.89705    0.15815    0.79710    1.000
    O10      O        0.90217    0.13996    0.18827    1.000
    O11      O        0.82530    0.08368    0.19962    1.000
    O12      O        0.79174    0.07871    0.35503    1.000
    N5       N        0.76304    0.07377    0.86042    1.000
    N6       N        0.94053    0.15164    0.33678    1.000
    N7       N        0.66909    0.02480    0.96108    1.000
    N8       N        0.45347    0.91329    0.87346    1.000
    C23      C        0.80010    0.09592    0.89810    1.000
    C24      C        0.83173    0.11612    0.83050    1.000
    C25      C        0.82413    0.11094    0.72520    1.000
    H15      H        0.84450    0.12420    0.67780    1.000
    C26      C        0.78759    0.08688    0.68810    1.000
    H16      H        0.78340    0.08290    0.61640    1.000
    C27      C        0.75756    0.06897    0.75910    1.000
    H17      H        0.73210    0.05260    0.73510    1.000
    C28      C        0.87204    0.14289    0.86640    1.000
    C29      C        0.90286    0.13381    0.28470    1.000
    C30      C        0.86831    0.11155    0.34220    1.000
    C31      C        0.87529    0.10817    0.44750    1.000
    H18      H        0.85180    0.09430    0.48680    1.000
    C32      C        0.91587    0.12457    0.49660    1.000
    H19      H        0.92180    0.12090    0.56790    1.000
    C33      C        0.94731    0.14643    0.43770    1.000
    H20      H        0.97500    0.15830    0.47020    1.000
    C34      C        0.82525    0.09005    0.29580    1.000
    C35      C        0.64435    0.02642    0.87100    1.000
    H21      H        0.65620    0.04300    0.81940    1.000
    C36      C        0.60254    0.00505    0.85070    1.000
    H22      H        0.58670    0.00640    0.78530    1.000
    C37      C        0.58351    0.98138    0.92630    1.000
    C38      C        0.60924    0.97982    0.01920    1.000
    H23      H        0.59770    0.96410    0.07290    1.000
    C39      C        0.65181    0.00136    0.03290    1.000
    H24      H        0.66950    0.99940    0.09610    1.000
    C40      C        0.48422    0.92333    0.79670    1.000
    H25      H        0.47700    0.91460    0.72940    1.000
    C41      C        0.52584    0.94574    0.81020    1.000
    H26      H        0.54630    0.95220    0.75310    1.000
    C42      C        0.53752    0.95875    0.90800    1.000
    C43      C        0.50512    0.94922    0.98810    1.000
    H27      H        0.51120    0.95790    0.05590    1.000
    C44      C        0.46389    0.92680    0.96710    1.000
    H28      H        0.44190    0.92070    0.02210    1.000
    Zn5      Zn       0.60469    0.13106    0.83537    1.000
    Zn6      Zn       0.47689    0.18890    0.74499    1.000
    O13      O        0.55114    0.15371    0.74685    1.000
    O14      O        0.62826    0.10079    0.71058    1.000
    O15      O        0.64705    0.09185    0.54710    1.000
    O16      O        0.65217    0.11004    0.93827    1.000
    O17      O        0.57530    0.16632    0.94962    1.000
    O18      O        0.54174    0.17129    0.10503    1.000
    N9       N        0.51304    0.17623    0.61042    1.000
    N10      N        0.69053    0.09836    0.08678    1.000
    N11      N        0.41909    0.22520    0.71108    1.000
    N12      N        0.20347    0.33671    0.62346    1.000
    C45      C        0.55010    0.15408    0.64810    1.000
    C46      C        0.58173    0.13388    0.58050    1.000
    C47      C        0.57413    0.13906    0.47520    1.000
    H29      H        0.59450    0.12580    0.42780    1.000
    C48      C        0.53759    0.16312    0.43810    1.000
    H30      H        0.53340    0.16710    0.36640    1.000
    C49      C        0.50756    0.18103    0.50910    1.000
    H31      H        0.48210    0.19740    0.48510    1.000
    C50      C        0.62204    0.10711    0.61640    1.000
    C51      C        0.65286    0.11619    0.03470    1.000
    C52      C        0.61831    0.13845    0.09220    1.000
    C53      C        0.62529    0.14183    0.19750    1.000
    H32      H        0.60180    0.15570    0.23680    1.000
    C54      C        0.66587    0.12543    0.24660    1.000
    H33      H        0.67180    0.12910    0.31790    1.000
    C55      C        0.69731    0.10357    0.18770    1.000
    H34      H        0.72500    0.09170    0.22020    1.000
    C56      C        0.57525    0.15995    0.04580    1.000
    C57      C        0.39435    0.22358    0.62100    1.000
    H35      H        0.40620    0.20700    0.56940    1.000
    C58      C        0.35254    0.24495    0.60070    1.000
    H36      H        0.33670    0.24360    0.53530    1.000
    C59      C        0.33351    0.26862    0.67630    1.000
    C60      C        0.35924    0.27018    0.76920    1.000
    H37      H        0.34770    0.28590    0.82290    1.000
    C61      C        0.40181    0.24864    0.78290    1.000
    H38      H        0.41950    0.25060    0.84610    1.000
    C62      C        0.23422    0.32667    0.54670    1.000
    H39      H        0.22700    0.33540    0.47940    1.000
    C63      C        0.27584    0.30426    0.56020    1.000
    H40      H        0.29630    0.29780    0.50310    1.000
    C64      C        0.28752    0.29125    0.65800    1.000
    C65      C        0.25512    0.30078    0.73810    1.000
    H41      H        0.26120    0.29210    0.80590    1.000
    C66      C        0.21389    0.32320    0.71710    1.000
    H42      H        0.19190    0.32930    0.77210    1.000
    Zn7      Zn       0.10469    0.13106    0.33537    1.000
    Zn8      Zn       0.97689    0.18890    0.24499    1.000
    O19      O        0.05114    0.15371    0.24685    1.000
    O20      O        0.12826    0.10079    0.21058    1.000
    O21      O        0.14705    0.09185    0.04710    1.000
    O22      O        0.15217    0.11004    0.43827    1.000
    O23      O        0.07530    0.16632    0.44962    1.000
    O24      O        0.04174    0.17129    0.60503    1.000
    N13      N        0.01304    0.17623    0.11042    1.000
    N14      N        0.19053    0.09836    0.58678    1.000
    N15      N        0.91909    0.22520    0.21108    1.000
    N16      N        0.70347    0.33671    0.12346    1.000
    C67      C        0.05010    0.15408    0.14810    1.000
    C68      C        0.08173    0.13388    0.08050    1.000
    C69      C        0.07413    0.13906    0.97520    1.000
    H43      H        0.09450    0.12580    0.92780    1.000
    C70      C        0.03759    0.16312    0.93810    1.000
    H44      H        0.03340    0.16710    0.86640    1.000
    C71      C        0.00756    0.18103    0.00910    1.000
    H45      H        0.98210    0.19740    0.98510    1.000
    C72      C        0.12204    0.10711    0.11640    1.000
    C73      C        0.15286    0.11619    0.53470    1.000
    C74      C        0.11831    0.13845    0.59220    1.000
    C75      C        0.12529    0.14183    0.69750    1.000
    H46      H        0.10180    0.15570    0.73680    1.000
    C76      C        0.16587    0.12543    0.74660    1.000
    H47      H        0.17180    0.12910    0.81790    1.000
    C77      C        0.19731    0.10357    0.68770    1.000
    H48      H        0.22500    0.09170    0.72020    1.000
    C78      C        0.07525    0.15995    0.54580    1.000
    C79      C        0.89435    0.22358    0.12100    1.000
    H49      H        0.90620    0.20700    0.06940    1.000
    C80      C        0.85254    0.24495    0.10070    1.000
    H50      H        0.83670    0.24360    0.03530    1.000
    C81      C        0.83351    0.26862    0.17630    1.000
    C82      C        0.85924    0.27018    0.26920    1.000
    H51      H        0.84770    0.28590    0.32290    1.000
    C83      C        0.90181    0.24864    0.28290    1.000
    H52      H        0.91950    0.25060    0.34610    1.000
    C84      C        0.73422    0.32667    0.04670    1.000
    H53      H        0.72700    0.33540    0.97940    1.000
    C85      C        0.77584    0.30426    0.06020    1.000
    H54      H        0.79630    0.29780    0.00310    1.000
    C86      C        0.78752    0.29125    0.15800    1.000
    C87      C        0.75512    0.30078    0.23810    1.000
    H55      H        0.76120    0.29210    0.30590    1.000
    C88      C        0.71389    0.32320    0.21710    1.000
    H56      H        0.69190    0.32930    0.27210    1.000
    Zn9      Zn       0.35469    0.61894    0.08537    1.000
    Zn10     Zn       0.22689    0.56110    0.99499    1.000
    O25      O        0.30114    0.59629    0.99685    1.000
    O26      O        0.37826    0.64921    0.96058    1.000
    O27      O        0.39705    0.65815    0.79710    1.000
    O28      O        0.40217    0.63996    0.18827    1.000
    O29      O        0.32530    0.58368    0.19962    1.000
    O30      O        0.29174    0.57871    0.35503    1.000
    N17      N        0.26304    0.57377    0.86042    1.000
    N18      N        0.44053    0.65164    0.33678    1.000
    N19      N        0.16909    0.52480    0.96108    1.000
    N20      N        0.95347    0.41329    0.87346    1.000
    C89      C        0.30010    0.59592    0.89810    1.000
    C90      C        0.33173    0.61612    0.83050    1.000
    C91      C        0.32413    0.61094    0.72520    1.000
    H57      H        0.34450    0.62420    0.67780    1.000
    C92      C        0.28759    0.58688    0.68810    1.000
    H58      H        0.28340    0.58290    0.61640    1.000
    C93      C        0.25756    0.56897    0.75910    1.000
    H59      H        0.23210    0.55260    0.73510    1.000
    C94      C        0.37204    0.64289    0.86640    1.000
    C95      C        0.40286    0.63381    0.28470    1.000
    C96      C        0.36831    0.61155    0.34220    1.000
    C97      C        0.37529    0.60817    0.44750    1.000
    H60      H        0.35180    0.59430    0.48680    1.000
    C98      C        0.41587    0.62457    0.49660    1.000
    H61      H        0.42180    0.62090    0.56790    1.000
    C99      C        0.44731    0.64643    0.43770    1.000
    H62      H        0.47500    0.65830    0.47020    1.000
    C100     C        0.32525    0.59005    0.29580    1.000
    C101     C        0.14435    0.52642    0.87100    1.000
    H63      H        0.15620    0.54300    0.81940    1.000
    C102     C        0.10254    0.50505    0.85070    1.000
    H64      H        0.08670    0.50640    0.78530    1.000
    C103     C        0.08351    0.48138    0.92630    1.000
    C104     C        0.10924    0.47982    0.01920    1.000
    H65      H        0.09770    0.46410    0.07290    1.000
    C105     C        0.15181    0.50136    0.03290    1.000
    H66      H        0.16950    0.49940    0.09610    1.000
    C106     C        0.98422    0.42333    0.79670    1.000
    H67      H        0.97700    0.41460    0.72940    1.000
    C107     C        0.02584    0.44574    0.81020    1.000
    H68      H        0.04630    0.45220    0.75310    1.000
    C108     C        0.03752    0.45875    0.90800    1.000
    C109     C        0.00512    0.44922    0.98810    1.000
    H69      H        0.01120    0.45790    0.05590    1.000
    C110     C        0.96389    0.42680    0.96710    1.000
    H70      H        0.94190    0.42070    0.02210    1.000
    Zn11     Zn       0.85469    0.61894    0.58537    1.000
    Zn12     Zn       0.72689    0.56110    0.49499    1.000
    O31      O        0.80114    0.59629    0.49685    1.000
    O32      O        0.87826    0.64921    0.46058    1.000
    O33      O        0.89705    0.65815    0.29710    1.000
    O34      O        0.90217    0.63996    0.68827    1.000
    O35      O        0.82530    0.58368    0.69962    1.000
    O36      O        0.79174    0.57871    0.85503    1.000
    N21      N        0.76304    0.57377    0.36042    1.000
    N22      N        0.94053    0.65164    0.83678    1.000
    N23      N        0.66909    0.52480    0.46108    1.000
    N24      N        0.45347    0.41329    0.37346    1.000
    C111     C        0.80010    0.59592    0.39810    1.000
    C112     C        0.83173    0.61612    0.33050    1.000
    C113     C        0.82413    0.61094    0.22520    1.000
    H71      H        0.84450    0.62420    0.17780    1.000
    C114     C        0.78759    0.58688    0.18810    1.000
    H72      H        0.78340    0.58290    0.11640    1.000
    C115     C        0.75756    0.56897    0.25910    1.000
    H73      H        0.73210    0.55260    0.23510    1.000
    C116     C        0.87204    0.64289    0.36640    1.000
    C117     C        0.90286    0.63381    0.78470    1.000
    C118     C        0.86831    0.61155    0.84220    1.000
    C119     C        0.87529    0.60817    0.94750    1.000
    H74      H        0.85180    0.59430    0.98680    1.000
    C120     C        0.91587    0.62457    0.99660    1.000
    H75      H        0.92180    0.62090    0.06790    1.000
    C121     C        0.94731    0.64643    0.93770    1.000
    H76      H        0.97500    0.65830    0.97020    1.000
    C122     C        0.82525    0.59005    0.79580    1.000
    C123     C        0.64435    0.52642    0.37100    1.000
    H77      H        0.65620    0.54300    0.31940    1.000
    C124     C        0.60254    0.50505    0.35070    1.000
    H78      H        0.58670    0.50640    0.28530    1.000
    C125     C        0.58351    0.48138    0.42630    1.000
    C126     C        0.60924    0.47982    0.51920    1.000
    H79      H        0.59770    0.46410    0.57290    1.000
    C127     C        0.65181    0.50136    0.53290    1.000
    H80      H        0.66950    0.49940    0.59610    1.000
    C128     C        0.48422    0.42333    0.29670    1.000
    H81      H        0.47700    0.41460    0.22940    1.000
    C129     C        0.52584    0.44574    0.31020    1.000
    H82      H        0.54630    0.45220    0.25310    1.000
    C130     C        0.53752    0.45875    0.40800    1.000
    C131     C        0.50512    0.44922    0.48810    1.000
    H83      H        0.51120    0.45790    0.55590    1.000
    C132     C        0.46389    0.42680    0.46710    1.000
    H84      H        0.44190    0.42070    0.52210    1.000
    Zn13     Zn       0.60469    0.63106    0.33537    1.000
    Zn14     Zn       0.47689    0.68890    0.24499    1.000
    O37      O        0.55114    0.65371    0.24685    1.000
    O38      O        0.62826    0.60079    0.21058    1.000
    O39      O        0.64705    0.59185    0.04710    1.000
    O40      O        0.65217    0.61004    0.43827    1.000
    O41      O        0.57530    0.66632    0.44962    1.000
    O42      O        0.54174    0.67129    0.60503    1.000
    N25      N        0.51304    0.67623    0.11042    1.000
    N26      N        0.69053    0.59836    0.58678    1.000
    N27      N        0.41909    0.72520    0.21108    1.000
    N28      N        0.20347    0.83671    0.12346    1.000
    C133     C        0.55010    0.65408    0.14810    1.000
    C134     C        0.58173    0.63388    0.08050    1.000
    C135     C        0.57413    0.63906    0.97520    1.000
    H85      H        0.59450    0.62580    0.92780    1.000
    C136     C        0.53759    0.66312    0.93810    1.000
    H86      H        0.53340    0.66710    0.86640    1.000
    C137     C        0.50756    0.68103    0.00910    1.000
    H87      H        0.48210    0.69740    0.98510    1.000
    C138     C        0.62204    0.60711    0.11640    1.000
    C139     C        0.65286    0.61619    0.53470    1.000
    C140     C        0.61831    0.63845    0.59220    1.000
    C141     C        0.62529    0.64183    0.69750    1.000
    H88      H        0.60180    0.65570    0.73680    1.000
    C142     C        0.66587    0.62543    0.74660    1.000
    H89      H        0.67180    0.62910    0.81790    1.000
    C143     C        0.69731    0.60357    0.68770    1.000
    H90      H        0.72500    0.59170    0.72020    1.000
    C144     C        0.57525    0.65995    0.54580    1.000
    C145     C        0.39435    0.72358    0.12100    1.000
    H91      H        0.40620    0.70700    0.06940    1.000
    C146     C        0.35254    0.74495    0.10070    1.000
    H92      H        0.33670    0.74360    0.03530    1.000
    C147     C        0.33351    0.76862    0.17630    1.000
    C148     C        0.35924    0.77018    0.26920    1.000
    H93      H        0.34770    0.78590    0.32290    1.000
    C149     C        0.40181    0.74864    0.28290    1.000
    H94      H        0.41950    0.75060    0.34610    1.000
    C150     C        0.23422    0.82667    0.04670    1.000
    H95      H        0.22700    0.83540    0.97940    1.000
    C151     C        0.27584    0.80426    0.06020    1.000
    H96      H        0.29630    0.79780    0.00310    1.000
    C152     C        0.28752    0.79125    0.15800    1.000
    C153     C        0.25512    0.80078    0.23810    1.000
    H97      H        0.26120    0.79210    0.30590    1.000
    C154     C        0.21389    0.82320    0.21710    1.000
    H98      H        0.19190    0.82930    0.27210    1.000
    Zn15     Zn       0.10469    0.63106    0.83537    1.000
    Zn16     Zn       0.97689    0.68890    0.74499    1.000
    O43      O        0.05114    0.65371    0.74685    1.000
    O44      O        0.12826    0.60079    0.71058    1.000
    O45      O        0.14705    0.59185    0.54710    1.000
    O46      O        0.15217    0.61004    0.93827    1.000
    O47      O        0.07530    0.66632    0.94962    1.000
    O48      O        0.04174    0.67129    0.10503    1.000
    N29      N        0.01304    0.67623    0.61042    1.000
    N30      N        0.19053    0.59836    0.08678    1.000
    N31      N        0.91909    0.72520    0.71108    1.000
    N32      N        0.70347    0.83671    0.62346    1.000
    C155     C        0.05010    0.65408    0.64810    1.000
    C156     C        0.08173    0.63388    0.58050    1.000
    C157     C        0.07413    0.63906    0.47520    1.000
    H99      H        0.09450    0.62580    0.42780    1.000
    C158     C        0.03759    0.66312    0.43810    1.000
    H100     H        0.03340    0.66710    0.36640    1.000
    C159     C        0.00756    0.68103    0.50910    1.000
    H101     H        0.98210    0.69740    0.48510    1.000
    C160     C        0.12204    0.60711    0.61640    1.000
    C161     C        0.15286    0.61619    0.03470    1.000
    C162     C        0.11831    0.63845    0.09220    1.000
    C163     C        0.12529    0.64183    0.19750    1.000
    H102     H        0.10180    0.65570    0.23680    1.000
    C164     C        0.16587    0.62543    0.24660    1.000
    H103     H        0.17180    0.62910    0.31790    1.000
    C165     C        0.19731    0.60357    0.18770    1.000
    H104     H        0.22500    0.59170    0.22020    1.000
    C166     C        0.07525    0.65995    0.04580    1.000
    C167     C        0.89435    0.72358    0.62100    1.000
    H105     H        0.90620    0.70700    0.56940    1.000
    C168     C        0.85254    0.74495    0.60070    1.000
    H106     H        0.83670    0.74360    0.53530    1.000
    C169     C        0.83351    0.76862    0.67630    1.000
    C170     C        0.85924    0.77018    0.76920    1.000
    H107     H        0.84770    0.78590    0.82290    1.000
    C171     C        0.90181    0.74864    0.78290    1.000
    H108     H        0.91950    0.75060    0.84610    1.000
    C172     C        0.73422    0.82667    0.54670    1.000
    H109     H        0.72700    0.83540    0.47940    1.000
    C173     C        0.77584    0.80426    0.56020    1.000
    H110     H        0.79630    0.79780    0.50310    1.000
    C174     C        0.78752    0.79125    0.65800    1.000
    C175     C        0.75512    0.80078    0.73810    1.000
    H111     H        0.76120    0.79210    0.80590    1.000
    C176     C        0.71389    0.82320    0.71710    1.000
    H112     H        0.69190    0.82930    0.77210    1.000
    Zn17     Zn       0.64531    0.88106    0.58537    1.000
    Zn18     Zn       0.77311    0.93890    0.49499    1.000
    O49      O        0.69886    0.90371    0.49685    1.000
    O50      O        0.62174    0.85079    0.46058    1.000
    O51      O        0.60295    0.84185    0.29710    1.000
    O52      O        0.59783    0.86004    0.68827    1.000
    O53      O        0.67470    0.91632    0.69962    1.000
    O54      O        0.70826    0.92129    0.85503    1.000
    N33      N        0.73696    0.92623    0.36042    1.000
    N34      N        0.55947    0.84836    0.83678    1.000
    N35      N        0.83091    0.97520    0.46108    1.000
    N36      N        0.04653    0.08671    0.37346    1.000
    C177     C        0.69990    0.90408    0.39810    1.000
    C178     C        0.66827    0.88388    0.33050    1.000
    C179     C        0.67587    0.88906    0.22520    1.000
    H113     H        0.65550    0.87580    0.17780    1.000
    C180     C        0.71241    0.91312    0.18810    1.000
    H114     H        0.71660    0.91710    0.11640    1.000
    C181     C        0.74244    0.93103    0.25910    1.000
    H115     H        0.76790    0.94740    0.23510    1.000
    C182     C        0.62796    0.85711    0.36640    1.000
    C183     C        0.59714    0.86619    0.78470    1.000
    C184     C        0.63169    0.88845    0.84220    1.000
    C185     C        0.62471    0.89183    0.94750    1.000
    H116     H        0.64820    0.90570    0.98680    1.000
    C186     C        0.58413    0.87543    0.99660    1.000
    H117     H        0.57820    0.87910    0.06790    1.000
    C187     C        0.55269    0.85357    0.93770    1.000
    H118     H        0.52500    0.84170    0.97020    1.000
    C188     C        0.67475    0.90995    0.79580    1.000
    C189     C        0.85565    0.97358    0.37100    1.000
    H119     H        0.84380    0.95700    0.31940    1.000
    C190     C        0.89746    0.99495    0.35070    1.000
    H120     H        0.91330    0.99360    0.28530    1.000
    C191     C        0.91649    0.01862    0.42630    1.000
    C192     C        0.89076    0.02018    0.51920    1.000
    H121     H        0.90230    0.03590    0.57290    1.000
    C193     C        0.84819    0.99864    0.53290    1.000
    H122     H        0.83050    0.00060    0.59610    1.000
    C194     C        0.01578    0.07667    0.29670    1.000
    H123     H        0.02300    0.08540    0.22940    1.000
    C195     C        0.97416    0.05426    0.31020    1.000
    H124     H        0.95370    0.04780    0.25310    1.000
    C196     C        0.96248    0.04125    0.40800    1.000
    C197     C        0.99488    0.05078    0.48810    1.000
    H125     H        0.98880    0.04210    0.55590    1.000
    C198     C        0.03611    0.07320    0.46710    1.000
    H126     H        0.05810    0.07930    0.52210    1.000
    Zn19     Zn       0.14531    0.88106    0.08537    1.000
    Zn20     Zn       0.27311    0.93890    0.99499    1.000
    O55      O        0.19886    0.90371    0.99685    1.000
    O56      O        0.12174    0.85079    0.96058    1.000
    O57      O        0.10295    0.84185    0.79710    1.000
    O58      O        0.09783    0.86004    0.18827    1.000
    O59      O        0.17470    0.91632    0.19962    1.000
    O60      O        0.20826    0.92129    0.35503    1.000
    N37      N        0.23696    0.92623    0.86042    1.000
    N38      N        0.05947    0.84836    0.33678    1.000
    N39      N        0.33091    0.97520    0.96108    1.000
    N40      N        0.54653    0.08671    0.87346    1.000
    C199     C        0.19990    0.90408    0.89810    1.000
    C200     C        0.16827    0.88388    0.83050    1.000
    C201     C        0.17587    0.88906    0.72520    1.000
    H127     H        0.15550    0.87580    0.67780    1.000
    C202     C        0.21241    0.91312    0.68810    1.000
    H128     H        0.21660    0.91710    0.61640    1.000
    C203     C        0.24244    0.93103    0.75910    1.000
    H129     H        0.26790    0.94740    0.73510    1.000
    C204     C        0.12796    0.85711    0.86640    1.000
    C205     C        0.09714    0.86619    0.28470    1.000
    C206     C        0.13169    0.88845    0.34220    1.000
    C207     C        0.12471    0.89183    0.44750    1.000
    H130     H        0.14820    0.90570    0.48680    1.000
    C208     C        0.08413    0.87543    0.49660    1.000
    H131     H        0.07820    0.87910    0.56790    1.000
    C209     C        0.05269    0.85357    0.43770    1.000
    H132     H        0.02500    0.84170    0.47020    1.000
    C210     C        0.17475    0.90995    0.29580    1.000
    C211     C        0.35565    0.97358    0.87100    1.000
    H133     H        0.34380    0.95700    0.81940    1.000
    C212     C        0.39746    0.99495    0.85070    1.000
    H134     H        0.41330    0.99360    0.78530    1.000
    C213     C        0.41649    0.01862    0.92630    1.000
    C214     C        0.39076    0.02018    0.01920    1.000
    H135     H        0.40230    0.03590    0.07290    1.000
    C215     C        0.34819    0.99864    0.03290    1.000
    H136     H        0.33050    0.00060    0.09610    1.000
    C216     C        0.51578    0.07667    0.79670    1.000
    H137     H        0.52300    0.08540    0.72940    1.000
    C217     C        0.47416    0.05426    0.81020    1.000
    H138     H        0.45370    0.04780    0.75310    1.000
    C218     C        0.46248    0.04125    0.90800    1.000
    C219     C        0.49488    0.05078    0.98810    1.000
    H139     H        0.48880    0.04210    0.05590    1.000
    C220     C        0.53611    0.07320    0.96710    1.000
    H140     H        0.55810    0.07930    0.02210    1.000
    Zn21     Zn       0.89531    0.86894    0.33537    1.000
    Zn22     Zn       0.02311    0.81110    0.24499    1.000
    O61      O        0.94886    0.84629    0.24685    1.000
    O62      O        0.87174    0.89921    0.21058    1.000
    O63      O        0.85295    0.90815    0.04710    1.000
    O64      O        0.84783    0.88996    0.43827    1.000
    O65      O        0.92470    0.83368    0.44962    1.000
    O66      O        0.95826    0.82871    0.60503    1.000
    N41      N        0.98696    0.82377    0.11042    1.000
    N42      N        0.80947    0.90164    0.58678    1.000
    N43      N        0.08091    0.77480    0.21108    1.000
    N44      N        0.29653    0.66329    0.12346    1.000
    C221     C        0.94990    0.84592    0.14810    1.000
    C222     C        0.91827    0.86612    0.08050    1.000
    C223     C        0.92587    0.86094    0.97520    1.000
    H141     H        0.90550    0.87420    0.92780    1.000
    C224     C        0.96241    0.83688    0.93810    1.000
    H142     H        0.96660    0.83290    0.86640    1.000
    C225     C        0.99244    0.81897    0.00910    1.000
    H143     H        0.01790    0.80260    0.98510    1.000
    C226     C        0.87796    0.89289    0.11640    1.000
    C227     C        0.84714    0.88381    0.53470    1.000
    C228     C        0.88169    0.86155    0.59220    1.000
    C229     C        0.87471    0.85817    0.69750    1.000
    H144     H        0.89820    0.84430    0.73680    1.000
    C230     C        0.83413    0.87457    0.74660    1.000
    H145     H        0.82820    0.87090    0.81790    1.000
    C231     C        0.80269    0.89643    0.68770    1.000
    H146     H        0.77500    0.90830    0.72020    1.000
    C232     C        0.92475    0.84005    0.54580    1.000
    C233     C        0.10565    0.77642    0.12100    1.000
    H147     H        0.09380    0.79300    0.06940    1.000
    C234     C        0.14746    0.75505    0.10070    1.000
    H148     H        0.16330    0.75640    0.03530    1.000
    C235     C        0.16649    0.73138    0.17630    1.000
    C236     C        0.14076    0.72982    0.26920    1.000
    H149     H        0.15230    0.71410    0.32290    1.000
    C237     C        0.09819    0.75136    0.28290    1.000
    H150     H        0.08050    0.74940    0.34610    1.000
    C238     C        0.26578    0.67333    0.04670    1.000
    H151     H        0.27300    0.66460    0.97940    1.000
    C239     C        0.22416    0.69574    0.06020    1.000
    H152     H        0.20370    0.70220    0.00310    1.000
    C240     C        0.21248    0.70875    0.15800    1.000
    C241     C        0.24488    0.69922    0.23810    1.000
    H153     H        0.23880    0.70790    0.30590    1.000
    C242     C        0.28611    0.67680    0.21710    1.000
    H154     H        0.30810    0.67070    0.27210    1.000
    Zn23     Zn       0.39531    0.86894    0.83537    1.000
    Zn24     Zn       0.52311    0.81110    0.74499    1.000
    O67      O        0.44886    0.84629    0.74685    1.000
    O68      O        0.37174    0.89921    0.71058    1.000
    O69      O        0.35295    0.90815    0.54710    1.000
    O70      O        0.34783    0.88996    0.93827    1.000
    O71      O        0.42470    0.83368    0.94962    1.000
    O72      O        0.45826    0.82871    0.10503    1.000
    N45      N        0.48696    0.82377    0.61042    1.000
    N46      N        0.30947    0.90164    0.08678    1.000
    N47      N        0.58091    0.77480    0.71108    1.000
    N48      N        0.79653    0.66329    0.62346    1.000
    C243     C        0.44990    0.84592    0.64810    1.000
    C244     C        0.41827    0.86612    0.58050    1.000
    C245     C        0.42587    0.86094    0.47520    1.000
    H155     H        0.40550    0.87420    0.42780    1.000
    C246     C        0.46241    0.83688    0.43810    1.000
    H156     H        0.46660    0.83290    0.36640    1.000
    C247     C        0.49244    0.81897    0.50910    1.000
    H157     H        0.51790    0.80260    0.48510    1.000
    C248     C        0.37796    0.89289    0.61640    1.000
    C249     C        0.34714    0.88381    0.03470    1.000
    C250     C        0.38169    0.86155    0.09220    1.000
    C251     C        0.37471    0.85817    0.19750    1.000
    H158     H        0.39820    0.84430    0.23680    1.000
    C252     C        0.33413    0.87457    0.24660    1.000
    H159     H        0.32820    0.87090    0.31790    1.000
    C253     C        0.30269    0.89643    0.18770    1.000
    H160     H        0.27500    0.90830    0.22020    1.000
    C254     C        0.42475    0.84005    0.04580    1.000
    C255     C        0.60565    0.77642    0.62100    1.000
    H161     H        0.59380    0.79300    0.56940    1.000
    C256     C        0.64746    0.75505    0.60070    1.000
    H162     H        0.66330    0.75640    0.53530    1.000
    C257     C        0.66649    0.73138    0.67630    1.000
    C258     C        0.64076    0.72982    0.76920    1.000
    H163     H        0.65230    0.71410    0.82290    1.000
    C259     C        0.59819    0.75136    0.78290    1.000
    H164     H        0.58050    0.74940    0.84610    1.000
    C260     C        0.76578    0.67333    0.54670    1.000
    H165     H        0.77300    0.66460    0.47940    1.000
    C261     C        0.72416    0.69574    0.56020    1.000
    H166     H        0.70370    0.70220    0.50310    1.000
    C262     C        0.71248    0.70875    0.65800    1.000
    C263     C        0.74488    0.69922    0.73810    1.000
    H167     H        0.73880    0.70790    0.80590    1.000
    C264     C        0.78611    0.67680    0.71710    1.000
    H168     H        0.80810    0.67070    0.77210    1.000
    Zn25     Zn       0.64531    0.38106    0.08537    1.000
    Zn26     Zn       0.77311    0.43890    0.99499    1.000
    O73      O        0.69886    0.40371    0.99685    1.000
    O74      O        0.62174    0.35079    0.96058    1.000
    O75      O        0.60295    0.34185    0.79710    1.000
    O76      O        0.59783    0.36004    0.18827    1.000
    O77      O        0.67470    0.41632    0.19962    1.000
    O78      O        0.70826    0.42129    0.35503    1.000
    N49      N        0.73696    0.42623    0.86042    1.000
    N50      N        0.55947    0.34836    0.33678    1.000
    N51      N        0.83091    0.47520    0.96108    1.000
    N52      N        0.04653    0.58671    0.87346    1.000
    C265     C        0.69990    0.40408    0.89810    1.000
    C266     C        0.66827    0.38388    0.83050    1.000
    C267     C        0.67587    0.38906    0.72520    1.000
    H169     H        0.65550    0.37580    0.67780    1.000
    C268     C        0.71241    0.41312    0.68810    1.000
    H170     H        0.71660    0.41710    0.61640    1.000
    C269     C        0.74244    0.43103    0.75910    1.000
    H171     H        0.76790    0.44740    0.73510    1.000
    C270     C        0.62796    0.35711    0.86640    1.000
    C271     C        0.59714    0.36619    0.28470    1.000
    C272     C        0.63169    0.38845    0.34220    1.000
    C273     C        0.62471    0.39183    0.44750    1.000
    H172     H        0.64820    0.40570    0.48680    1.000
    C274     C        0.58413    0.37543    0.49660    1.000
    H173     H        0.57820    0.37910    0.56790    1.000
    C275     C        0.55269    0.35357    0.43770    1.000
    H174     H        0.52500    0.34170    0.47020    1.000
    C276     C        0.67475    0.40995    0.29580    1.000
    C277     C        0.85565    0.47358    0.87100    1.000
    H175     H        0.84380    0.45700    0.81940    1.000
    C278     C        0.89746    0.49495    0.85070    1.000
    H176     H        0.91330    0.49360    0.78530    1.000
    C279     C        0.91649    0.51862    0.92630    1.000
    C280     C        0.89076    0.52018    0.01920    1.000
    H177     H        0.90230    0.53590    0.07290    1.000
    C281     C        0.84819    0.49864    0.03290    1.000
    H178     H        0.83050    0.50060    0.09610    1.000
    C282     C        0.01578    0.57667    0.79670    1.000
    H179     H        0.02300    0.58540    0.72940    1.000
    C283     C        0.97416    0.55426    0.81020    1.000
    H180     H        0.95370    0.54780    0.75310    1.000
    C284     C        0.96248    0.54125    0.90800    1.000
    C285     C        0.99488    0.55078    0.98810    1.000
    H181     H        0.98880    0.54210    0.05590    1.000
    C286     C        0.03611    0.57320    0.96710    1.000
    H182     H        0.05810    0.57930    0.02210    1.000
    Zn27     Zn       0.14531    0.38106    0.58537    1.000
    Zn28     Zn       0.27311    0.43890    0.49499    1.000
    O79      O        0.19886    0.40371    0.49685    1.000
    O80      O        0.12174    0.35079    0.46058    1.000
    O81      O        0.10295    0.34185    0.29710    1.000
    O82      O        0.09783    0.36004    0.68827    1.000
    O83      O        0.17470    0.41632    0.69962    1.000
    O84      O        0.20826    0.42129    0.85503    1.000
    N53      N        0.23696    0.42623    0.36042    1.000
    N54      N        0.05947    0.34836    0.83678    1.000
    N55      N        0.33091    0.47520    0.46108    1.000
    N56      N        0.54653    0.58671    0.37346    1.000
    C287     C        0.19990    0.40408    0.39810    1.000
    C288     C        0.16827    0.38388    0.33050    1.000
    C289     C        0.17587    0.38906    0.22520    1.000
    H183     H        0.15550    0.37580    0.17780    1.000
    C290     C        0.21241    0.41312    0.18810    1.000
    H184     H        0.21660    0.41710    0.11640    1.000
    C291     C        0.24244    0.43103    0.25910    1.000
    H185     H        0.26790    0.44740    0.23510    1.000
    C292     C        0.12796    0.35711    0.36640    1.000
    C293     C        0.09714    0.36619    0.78470    1.000
    C294     C        0.13169    0.38845    0.84220    1.000
    C295     C        0.12471    0.39183    0.94750    1.000
    H186     H        0.14820    0.40570    0.98680    1.000
    C296     C        0.08413    0.37543    0.99660    1.000
    H187     H        0.07820    0.37910    0.06790    1.000
    C297     C        0.05269    0.35357    0.93770    1.000
    H188     H        0.02500    0.34170    0.97020    1.000
    C298     C        0.17475    0.40995    0.79580    1.000
    C299     C        0.35565    0.47358    0.37100    1.000
    H189     H        0.34380    0.45700    0.31940    1.000
    C300     C        0.39746    0.49495    0.35070    1.000
    H190     H        0.41330    0.49360    0.28530    1.000
    C301     C        0.41649    0.51862    0.42630    1.000
    C302     C        0.39076    0.52018    0.51920    1.000
    H191     H        0.40230    0.53590    0.57290    1.000
    C303     C        0.34819    0.49864    0.53290    1.000
    H192     H        0.33050    0.50060    0.59610    1.000
    C304     C        0.51578    0.57667    0.29670    1.000
    H193     H        0.52300    0.58540    0.22940    1.000
    C305     C        0.47416    0.55426    0.31020    1.000
    H194     H        0.45370    0.54780    0.25310    1.000
    C306     C        0.46248    0.54125    0.40800    1.000
    C307     C        0.49488    0.55078    0.48810    1.000
    H195     H        0.48880    0.54210    0.55590    1.000
    C308     C        0.53611    0.57320    0.46710    1.000
    H196     H        0.55810    0.57930    0.52210    1.000
    Zn29     Zn       0.89531    0.36894    0.83537    1.000
    Zn30     Zn       0.02311    0.31110    0.74499    1.000
    O85      O        0.94886    0.34629    0.74685    1.000
    O86      O        0.87174    0.39921    0.71058    1.000
    O87      O        0.85295    0.40815    0.54710    1.000
    O88      O        0.84783    0.38996    0.93827    1.000
    O89      O        0.92470    0.33368    0.94962    1.000
    O90      O        0.95826    0.32871    0.10503    1.000
    N57      N        0.98696    0.32377    0.61042    1.000
    N58      N        0.80947    0.40164    0.08678    1.000
    N59      N        0.08091    0.27480    0.71108    1.000
    N60      N        0.29653    0.16329    0.62346    1.000
    C309     C        0.94990    0.34592    0.64810    1.000
    C310     C        0.91827    0.36612    0.58050    1.000
    C311     C        0.92587    0.36094    0.47520    1.000
    H197     H        0.90550    0.37420    0.42780    1.000
    C312     C        0.96241    0.33688    0.43810    1.000
    H198     H        0.96660    0.33290    0.36640    1.000
    C313     C        0.99244    0.31897    0.50910    1.000
    H199     H        0.01790    0.30260    0.48510    1.000
    C314     C        0.87796    0.39289    0.61640    1.000
    C315     C        0.84714    0.38381    0.03470    1.000
    C316     C        0.88169    0.36155    0.09220    1.000
    C317     C        0.87471    0.35817    0.19750    1.000
    H200     H        0.89820    0.34430    0.23680    1.000
    C318     C        0.83413    0.37457    0.24660    1.000
    H201     H        0.82820    0.37090    0.31790    1.000
    C319     C        0.80269    0.39643    0.18770    1.000
    H202     H        0.77500    0.40830    0.22020    1.000
    C320     C        0.92475    0.34005    0.04580    1.000
    C321     C        0.10565    0.27642    0.62100    1.000
    H203     H        0.09380    0.29300    0.56940    1.000
    C322     C        0.14746    0.25505    0.60070    1.000
    H204     H        0.16330    0.25640    0.53530    1.000
    C323     C        0.16649    0.23138    0.67630    1.000
    C324     C        0.14076    0.22982    0.76920    1.000
    H205     H        0.15230    0.21410    0.82290    1.000
    C325     C        0.09819    0.25136    0.78290    1.000
    H206     H        0.08050    0.24940    0.84610    1.000
    C326     C        0.26578    0.17333    0.54670    1.000
    H207     H        0.27300    0.16460    0.47940    1.000
    C327     C        0.22416    0.19574    0.56020    1.000
    H208     H        0.20370    0.20220    0.50310    1.000
    C328     C        0.21248    0.20875    0.65800    1.000
    C329     C        0.24488    0.19922    0.73810    1.000
    H209     H        0.23880    0.20790    0.80590    1.000
    C330     C        0.28611    0.17680    0.71710    1.000
    H210     H        0.30810    0.17070    0.77210    1.000
    Zn31     Zn       0.39531    0.36894    0.33537    1.000
    Zn32     Zn       0.52311    0.31110    0.24499    1.000
    O91      O        0.44886    0.34629    0.24685    1.000
    O92      O        0.37174    0.39921    0.21058    1.000
    O93      O        0.35295    0.40815    0.04710    1.000
    O94      O        0.34783    0.38996    0.43827    1.000
    O95      O        0.42470    0.33368    0.44962    1.000
    O96      O        0.45826    0.32871    0.60503    1.000
    N61      N        0.48696    0.32377    0.11042    1.000
    N62      N        0.30947    0.40164    0.58678    1.000
    N63      N        0.58091    0.27480    0.21108    1.000
    N64      N        0.79653    0.16329    0.12346    1.000
    C331     C        0.44990    0.34592    0.14810    1.000
    C332     C        0.41827    0.36612    0.08050    1.000
    C333     C        0.42587    0.36094    0.97520    1.000
    H211     H        0.40550    0.37420    0.92780    1.000
    C334     C        0.46241    0.33688    0.93810    1.000
    H212     H        0.46660    0.33290    0.86640    1.000
    C335     C        0.49244    0.31897    0.00910    1.000
    H213     H        0.51790    0.30260    0.98510    1.000
    C336     C        0.37796    0.39289    0.11640    1.000
    C337     C        0.34714    0.38381    0.53470    1.000
    C338     C        0.38169    0.36155    0.59220    1.000
    C339     C        0.37471    0.35817    0.69750    1.000
    H214     H        0.39820    0.34430    0.73680    1.000
    C340     C        0.33413    0.37457    0.74660    1.000
    H215     H        0.32820    0.37090    0.81790    1.000
    C341     C        0.30269    0.39643    0.68770    1.000
    H216     H        0.27500    0.40830    0.72020    1.000
    C342     C        0.42475    0.34005    0.54580    1.000
    C343     C        0.60565    0.27642    0.12100    1.000
    H217     H        0.59380    0.29300    0.06940    1.000
    C344     C        0.64746    0.25505    0.10070    1.000
    H218     H        0.66330    0.25640    0.03530    1.000
    C345     C        0.66649    0.23138    0.17630    1.000
    C346     C        0.64076    0.22982    0.26920    1.000
    H219     H        0.65230    0.21410    0.32290    1.000
    C347     C        0.59819    0.25136    0.28290    1.000
    H220     H        0.58050    0.24940    0.34610    1.000
    C348     C        0.76578    0.17333    0.04670    1.000
    H221     H        0.77300    0.16460    0.97940    1.000
    C349     C        0.72416    0.19574    0.06020    1.000
    H222     H        0.70370    0.20220    0.00310    1.000
    C350     C        0.71248    0.20875    0.15800    1.000
    C351     C        0.74488    0.19922    0.23810    1.000
    H223     H        0.73880    0.20790    0.30590    1.000
    C352     C        0.78611    0.17680    0.21710    1.000
    H224     H        0.80810    0.17070    0.27210    1.000
