data_functionalizedCrystal
_audit_creation_method	'EQeq! by Chris Wilmer'
_symmetry_space_group_name_H-M	'P1'
_symmetry_Int_Tables_number	1
_symmetry_cell_setting	triclinic
loop_
_symmetry_equiv_pos_as_xyz
  x,y,z
_cell_length_a	10.528
_cell_length_b	10.671
_cell_length_c	11.378
_cell_angle_alpha	83.14
_cell_angle_beta	74.61
_cell_angle_gamma	69.34
loop_
_atom_site_label
_atom_site_type_symbol
_atom_site_fract_x
_atom_site_fract_y
_atom_site_fract_z
_atom_site_charge
Mof_Sm	Sm	0.58795	0.59672	0.63094	2.223
Mof_O 	O 	0.3959	0.6208	0.4076	-0.602
Mof_O 	O 	0.4703	0.7478	0.4954	-0.572
Mof_O 	O 	0.2756	0.2522	0.4423	-0.534
Mof_O 	O 	0.0467	0.32	0.4548	-0.453
Mof_O 	O 	0.8741	0.061	0.2631	-0.119
Mof_O 	O 	0.9537	0.8479	0.2744	-0.102
Mof_O 	O 	0.0057	0.4409	0.6684	-0.463
Mof_O 	O 	0.7763	0.4889	0.7178	-0.594
Mof_O 	O 	0.5328	0.4809	0.1617	-0.411
Mof_O 	O 	0.6605	0.3887	0.2951	-0.451
Mof_O 	O 	0.172	0.2491	0.1593	-0.143
Mof_O 	O 	0.2715	0.2399	0.9681	-0.117
Mof_N 	N 	0.9608	0.9568	0.2863	0.011
Mof_N 	N 	0.1679	0.2645	0.0523	-0.003
Mof_C 	C 	0.2809	0.8557	0.4061	-0.156
Mof_C 	C 	0.2793	0.9815	0.4315	0.078
Mof_H 	H 	0.3501	0.9878	0.4626	0.028
Mof_C 	C 	0.1726	0.0971	0.4106	-0.103
Mof_C 	C 	0.0668	0.0881	0.3649	-0.065
Mof_H 	H 	0.9927	0.1643	0.3539	0.111
Mof_C 	C 	0.0738	0.9632	0.3362	0.042
Mof_C 	C 	0.1771	0.8459	0.3568	0.009
Mof_H 	H 	0.1773	0.7632	0.3384	0.039
Mof_C 	C 	0.3909	0.7318	0.4381	0.53
Mof_C 	C 	0.1674	0.2334	0.4377	0.449
Mof_C 	C 	0.8973	0.416	0.8749	-0.085
Mof_C 	C 	0.7755	0.4413	0.9672	0.042
Mof_H 	H 	0.6892	0.4812	0.9478	0.041
Mof_C 	C 	0.7807	0.4079	0.0881	-0.064
Mof_C 	C 	0.9102	0.3486	0.1173	-0.001
Mof_H 	H 	0.9156	0.3257	0.1977	0.074
Mof_C 	C 	0.0311	0.3247	0.0233	0.043
Mof_C 	C 	0.0266	0.3564	0.903	-0.047
Mof_H 	H 	0.1087	0.3382	0.8417	0.084
Mof_C 	C 	0.8926	0.4518	0.7448	0.507
Mof_C 	C 	0.6492	0.429	0.187	0.306
Mof_Sm	Sm	0.41205	0.40328	0.36906	2.208
Mof_O 	O 	0.6041	0.3792	0.5924	-0.603
Mof_O 	O 	0.5297	0.2522	0.5046	-0.572
Mof_O 	O 	0.7244	0.7478	0.5577	-0.537
Mof_O 	O 	0.9533	0.68	0.5452	-0.423
Mof_O 	O 	0.1259	0.939	0.7369	-0.13
Mof_O 	O 	0.0463	0.1521	0.7256	-0.125
Mof_O 	O 	0.9943	0.5591	0.3316	-0.393
Mof_O 	O 	0.2237	0.5111	0.2822	-0.581
Mof_O 	O 	0.4672	0.5191	0.8383	-0.409
Mof_O 	O 	0.3395	0.6113	0.7049	-0.452
Mof_O 	O 	0.828	0.7509	0.8407	-0.128
Mof_O 	O 	0.7285	0.7601	0.0319	-0.116
Mof_N 	N 	0.0392	0.0432	0.7137	-0.008
Mof_N 	N 	0.8321	0.7355	0.9477	-0.009
Mof_C 	C 	0.7191	0.1443	0.5939	-0.173
Mof_C 	C 	0.7207	0.0185	0.5685	0.112
Mof_H 	H 	0.6499	0.0122	0.5374	0.016
Mof_C 	C 	0.8274	0.9029	0.5894	-0.156
Mof_C 	C 	0.9332	0.9119	0.6351	0.085
Mof_H 	H 	0.0073	0.8357	0.6461	0.013
Mof_C 	C 	0.9262	0.0368	0.6638	0.042
Mof_C 	C 	0.8229	0.1541	0.6432	0.031
Mof_H 	H 	0.8227	0.2368	0.6616	0.046
Mof_C 	C 	0.6091	0.2682	0.5619	0.537
Mof_C 	C 	0.8326	0.7666	0.5623	0.468
Mof_C 	C 	0.1027	0.584	0.1251	-0.133
Mof_C 	C 	0.2245	0.5587	0.0328	0.036
Mof_H 	H 	0.3108	0.5188	0.0522	0.043
Mof_C 	C 	0.2193	0.5921	0.9119	-0.039
Mof_C 	C 	0.0898	0.6514	0.8827	-0.1
Mof_H 	H 	0.0844	0.6743	0.8023	0.093
Mof_C 	C 	0.9689	0.6753	0.9767	0.114
Mof_C 	C 	0.9734	0.6436	0.097	0.011
Mof_H 	H 	0.8913	0.6618	0.1583	0.071
Mof_C 	C 	0.1074	0.5482	0.2552	0.435
Mof_C 	C 	0.3508	0.571	0.813	0.295
Mof_Cu	Cu	-2.23453e-17	0.5	0.5	0.899
_end
