data_functionalizedCrystal
_audit_creation_method	'EQeq! by Chris Wilmer'
_symmetry_space_group_name_H-M	'P1'
_symmetry_Int_Tables_number	1
_symmetry_cell_setting	triclinic
loop_
_symmetry_equiv_pos_as_xyz
  x,y,z
_cell_length_a	19.38
_cell_length_b	19.38
_cell_length_c	35.04
_cell_angle_alpha	90
_cell_angle_beta	90
_cell_angle_gamma	90
loop_
_atom_site_label
_atom_site_type_symbol
_atom_site_fract_x
_atom_site_fract_y
_atom_site_fract_z
_atom_site_charge
Mof_O 	O 	0.31679	0.21554	0.20309	-0.482
Mof_O 	O 	0.23214	0.12856	0.24795	-0.473
Mof_C 	C 	0.3699	0.23794	0.21995	0.396
Mof_C 	C 	0.43689	0.2267	0.19985	-0.122
Mof_C 	C 	0.43752	0.19718	0.16429	0.018
Mof_H 	H 	0.3948	0.1864	0.1524	0.032
Mof_C 	C 	0.4562	0.1263	0.0439	-0.037
Mof_H 	H 	0.4238	0.1384	0.0247	0.036
Mof_C 	C 	0.4535	0.1634	0.0785	-0.05
Mof_H 	H 	0.4196	0.1981	0.0826	0.043
Mof_C 	C 	0.5566	0.0996	0.09641	-0.044
Mof_C 	C 	0.556	0.0627	0.06296	-0.04
Mof_H 	H 	0.5936	0.0938	0.1139	0.038
Mof_H 	H 	0.5907	0.0295	0.0575	0.03
Mof_O 	O 	0.81679	0.71554	0.70309	-0.481
Mof_O 	O 	0.73214	0.62856	0.74795	-0.473
Mof_C 	C 	0.8699	0.73794	0.71995	0.394
Mof_C 	C 	0.93689	0.7267	0.69985	-0.117
Mof_C 	C 	0.93752	0.69718	0.66429	0.021
Mof_H 	H 	0.8948	0.6864	0.6524	0.031
Mof_C 	C 	0.9562	0.6263	0.5439	-0.03
Mof_H 	H 	0.9238	0.6384	0.5247	0.033
Mof_C 	C 	0.9535	0.6634	0.5785	-0.049
Mof_H 	H 	0.9196	0.6981	0.5826	0.042
Mof_C 	C 	0.0566	0.5996	0.59641	-0.044
Mof_C 	C 	0.056	0.5627	0.56296	-0.038
Mof_H 	H 	0.0936	0.5938	0.6139	0.039
Mof_H 	H 	0.0907	0.5295	0.5575	0.032
Mof_O 	O 	0.68321	0.78446	0.20309	-0.481
Mof_O 	O 	0.76786	0.87144	0.24795	-0.471
Mof_C 	C 	0.6301	0.76206	0.21995	0.395
Mof_C 	C 	0.56311	0.7733	0.19985	-0.123
Mof_C 	C 	0.56248	0.80282	0.16429	0.017
Mof_H 	H 	0.6052	0.8136	0.1524	0.032
Mof_C 	C 	0.5438	0.8737	0.0439	-0.035
Mof_H 	H 	0.5762	0.8616	0.0247	0.034
Mof_C 	C 	0.5465	0.8366	0.0785	-0.053
Mof_H 	H 	0.5804	0.8019	0.0826	0.043
Mof_C 	C 	0.4434	0.9004	0.09641	-0.043
Mof_C 	C 	0.444	0.9373	0.06296	-0.039
Mof_H 	H 	0.4064	0.9062	0.1139	0.04
Mof_H 	H 	0.4093	0.9705	0.0575	0.034
Mof_O 	O 	0.18321	0.28446	0.70309	-0.482
Mof_O 	O 	0.26786	0.37144	0.74795	-0.474
Mof_C 	C 	0.1301	0.26206	0.71995	0.394
Mof_C 	C 	0.06311	0.2733	0.69985	-0.122
Mof_C 	C 	0.06248	0.30282	0.66429	0.016
Mof_H 	H 	0.1052	0.3136	0.6524	0.032
Mof_C 	C 	0.0438	0.3737	0.5439	-0.037
Mof_H 	H 	0.0762	0.3616	0.5247	0.034
Mof_C 	C 	0.0465	0.3366	0.5785	-0.053
Mof_H 	H 	0.0804	0.3019	0.5826	0.041
Mof_C 	C 	0.9434	0.4004	0.59641	-0.041
Mof_C 	C 	0.944	0.4373	0.56296	-0.036
Mof_H 	H 	0.9064	0.4062	0.6139	0.039
Mof_H 	H 	0.9093	0.4705	0.5575	0.032
Mof_O 	O 	0.78446	0.31679	0.20309	-0.482
Mof_O 	O 	0.87144	0.23214	0.24795	-0.472
Mof_C 	C 	0.76206	0.3699	0.21995	0.395
Mof_C 	C 	0.7733	0.43689	0.19985	-0.123
Mof_C 	C 	0.80282	0.43752	0.16429	0.017
Mof_H 	H 	0.8136	0.3948	0.1524	0.032
Mof_C 	C 	0.8737	0.4562	0.0439	-0.035
Mof_H 	H 	0.8616	0.4238	0.0247	0.034
Mof_C 	C 	0.8366	0.4535	0.0785	-0.053
Mof_H 	H 	0.8019	0.4196	0.0826	0.042
Mof_C 	C 	0.9004	0.5566	0.09641	-0.043
Mof_C 	C 	0.9373	0.556	0.06296	-0.039
Mof_H 	H 	0.9062	0.5936	0.1139	0.04
Mof_H 	H 	0.9705	0.5907	0.0575	0.035
Mof_O 	O 	0.28446	0.81679	0.70309	-0.482
Mof_O 	O 	0.37144	0.73214	0.74795	-0.473
Mof_C 	C 	0.26206	0.8699	0.71995	0.394
Mof_C 	C 	0.2733	0.93689	0.69985	-0.118
Mof_C 	C 	0.30282	0.93752	0.66429	0.021
Mof_H 	H 	0.3136	0.8948	0.6524	0.031
Mof_C 	C 	0.3737	0.9562	0.5439	-0.03
Mof_H 	H 	0.3616	0.9238	0.5247	0.033
Mof_C 	C 	0.3366	0.9535	0.5785	-0.049
Mof_H 	H 	0.3019	0.9196	0.5826	0.042
Mof_C 	C 	0.4004	0.0566	0.59641	-0.044
Mof_C 	C 	0.4373	0.056	0.56296	-0.038
Mof_H 	H 	0.4062	0.0936	0.6139	0.039
Mof_H 	H 	0.4705	0.0907	0.5575	0.032
Mof_O 	O 	0.21554	0.68321	0.20309	-0.482
Mof_O 	O 	0.12856	0.76786	0.24795	-0.473
Mof_C 	C 	0.23794	0.6301	0.21995	0.395
Mof_C 	C 	0.2267	0.56311	0.19985	-0.123
Mof_C 	C 	0.19718	0.56248	0.16429	0.017
Mof_H 	H 	0.1864	0.6052	0.1524	0.032
Mof_C 	C 	0.1263	0.5438	0.0439	-0.038
Mof_H 	H 	0.1384	0.5762	0.0247	0.035
Mof_C 	C 	0.1634	0.5465	0.0785	-0.051
Mof_H 	H 	0.1981	0.5804	0.0826	0.042
Mof_C 	C 	0.0996	0.4434	0.09641	-0.044
Mof_C 	C 	0.0627	0.444	0.06296	-0.04
Mof_H 	H 	0.0938	0.4064	0.1139	0.038
Mof_H 	H 	0.0295	0.4093	0.0575	0.03
Mof_O 	O 	0.71554	0.18321	0.70309	-0.482
Mof_O 	O 	0.62856	0.26786	0.74795	-0.473
Mof_C 	C 	0.73794	0.1301	0.71995	0.394
Mof_C 	C 	0.7267	0.06311	0.69985	-0.121
Mof_C 	C 	0.69718	0.06248	0.66429	0.016
Mof_H 	H 	0.6864	0.1052	0.6524	0.032
Mof_C 	C 	0.6263	0.0438	0.5439	-0.037
Mof_H 	H 	0.6384	0.0762	0.5247	0.034
Mof_C 	C 	0.6634	0.0465	0.5785	-0.053
Mof_H 	H 	0.6981	0.0804	0.5826	0.042
Mof_C 	C 	0.5996	0.9434	0.59641	-0.041
Mof_C 	C 	0.5627	0.944	0.56296	-0.036
Mof_H 	H 	0.5938	0.9064	0.6139	0.039
Mof_H 	H 	0.5295	0.9093	0.5575	0.032
Mof_O 	O 	0.68321	0.21554	0.79691	-0.482
Mof_O 	O 	0.76786	0.12856	0.75205	-0.473
Mof_C 	C 	0.6301	0.23794	0.78005	0.395
Mof_C 	C 	0.56311	0.2267	0.80015	-0.123
Mof_C 	C 	0.56248	0.19718	0.83571	0.017
Mof_H 	H 	0.6052	0.1864	0.8476	0.032
Mof_C 	C 	0.5438	0.1263	0.9561	-0.038
Mof_H 	H 	0.5762	0.1384	0.9753	0.034
Mof_C 	C 	0.5465	0.1634	0.9215	-0.052
Mof_H 	H 	0.5804	0.1981	0.9174	0.042
Mof_C 	C 	0.4434	0.0996	0.90359	-0.044
Mof_C 	C 	0.444	0.0627	0.93704	-0.04
Mof_H 	H 	0.4064	0.0938	0.8861	0.038
Mof_H 	H 	0.4093	0.0295	0.9425	0.029
Mof_O 	O 	0.18321	0.71554	0.29691	-0.482
Mof_O 	O 	0.26786	0.62856	0.25205	-0.473
Mof_C 	C 	0.1301	0.73794	0.28005	0.394
Mof_C 	C 	0.06311	0.7267	0.30015	-0.121
Mof_C 	C 	0.06248	0.69718	0.33571	0.016
Mof_H 	H 	0.1052	0.6864	0.3476	0.032
Mof_C 	C 	0.0438	0.6263	0.4561	-0.037
Mof_H 	H 	0.0762	0.6384	0.4753	0.034
Mof_C 	C 	0.0465	0.6634	0.4215	-0.053
Mof_H 	H 	0.0804	0.6981	0.4174	0.042
Mof_C 	C 	0.9434	0.5996	0.40359	-0.041
Mof_C 	C 	0.944	0.5627	0.43704	-0.036
Mof_H 	H 	0.9064	0.5938	0.3861	0.039
Mof_H 	H 	0.9093	0.5295	0.4425	0.032
Mof_O 	O 	0.31679	0.78446	0.79691	-0.482
Mof_O 	O 	0.23214	0.87144	0.75205	-0.472
Mof_C 	C 	0.3699	0.76206	0.78005	0.395
Mof_C 	C 	0.43689	0.7733	0.80015	-0.123
Mof_C 	C 	0.43752	0.80282	0.83571	0.017
Mof_H 	H 	0.3948	0.8136	0.8476	0.032
Mof_C 	C 	0.4562	0.8737	0.9561	-0.035
Mof_H 	H 	0.4238	0.8616	0.9753	0.033
Mof_C 	C 	0.4535	0.8366	0.9215	-0.054
Mof_H 	H 	0.4196	0.8019	0.9174	0.042
Mof_C 	C 	0.5566	0.9004	0.90359	-0.043
Mof_C 	C 	0.556	0.9373	0.93704	-0.038
Mof_H 	H 	0.5936	0.9062	0.8861	0.04
Mof_H 	H 	0.5907	0.9705	0.9425	0.034
Mof_O 	O 	0.81679	0.28446	0.29691	-0.482
Mof_O 	O 	0.73214	0.37144	0.25205	-0.473
Mof_C 	C 	0.8699	0.26206	0.28005	0.394
Mof_C 	C 	0.93689	0.2733	0.30015	-0.118
Mof_C 	C 	0.93752	0.30282	0.33571	0.021
Mof_H 	H 	0.8948	0.3136	0.3476	0.031
Mof_C 	C 	0.9562	0.3737	0.4561	-0.03
Mof_H 	H 	0.9238	0.3616	0.4753	0.033
Mof_C 	C 	0.9535	0.3366	0.4215	-0.049
Mof_H 	H 	0.9196	0.3019	0.4174	0.042
Mof_C 	C 	0.0566	0.4004	0.40359	-0.044
Mof_C 	C 	0.056	0.4373	0.43704	-0.038
Mof_H 	H 	0.0936	0.4062	0.3861	0.039
Mof_H 	H 	0.0907	0.4705	0.4425	0.032
Mof_O 	O 	0.21554	0.31679	0.79691	-0.483
Mof_O 	O 	0.12856	0.23214	0.75205	-0.474
Mof_C 	C 	0.23794	0.3699	0.78005	0.395
Mof_C 	C 	0.2267	0.43689	0.80015	-0.123
Mof_C 	C 	0.19718	0.43752	0.83571	0.017
Mof_H 	H 	0.1864	0.3948	0.8476	0.031
Mof_C 	C 	0.1263	0.4562	0.9561	-0.037
Mof_H 	H 	0.1384	0.4238	0.9753	0.034
Mof_C 	C 	0.1634	0.4535	0.9215	-0.052
Mof_H 	H 	0.1981	0.4196	0.9174	0.042
Mof_C 	C 	0.0996	0.5566	0.90359	-0.044
Mof_C 	C 	0.0627	0.556	0.93704	-0.04
Mof_H 	H 	0.0938	0.5936	0.8861	0.038
Mof_H 	H 	0.0295	0.5907	0.9425	0.03
Mof_O 	O 	0.71554	0.81679	0.29691	-0.481
Mof_O 	O 	0.62856	0.73214	0.25205	-0.473
Mof_C 	C 	0.73794	0.8699	0.28005	0.394
Mof_C 	C 	0.7267	0.93689	0.30015	-0.117
Mof_C 	C 	0.69718	0.93752	0.33571	0.021
Mof_H 	H 	0.6864	0.8948	0.3476	0.031
Mof_C 	C 	0.6263	0.9562	0.4561	-0.03
Mof_H 	H 	0.6384	0.9238	0.4753	0.033
Mof_C 	C 	0.6634	0.9535	0.4215	-0.049
Mof_H 	H 	0.6981	0.9196	0.4174	0.042
Mof_C 	C 	0.5996	0.0566	0.40359	-0.044
Mof_C 	C 	0.5627	0.056	0.43704	-0.038
Mof_H 	H 	0.5938	0.0936	0.3861	0.039
Mof_H 	H 	0.5295	0.0907	0.4425	0.032
Mof_O 	O 	0.78446	0.68321	0.79691	-0.482
Mof_O 	O 	0.87144	0.76786	0.75205	-0.471
Mof_C 	C 	0.76206	0.6301	0.78005	0.395
Mof_C 	C 	0.7733	0.56311	0.80015	-0.123
Mof_C 	C 	0.80282	0.56248	0.83571	0.017
Mof_H 	H 	0.8136	0.6052	0.8476	0.032
Mof_C 	C 	0.8737	0.5438	0.9561	-0.035
Mof_H 	H 	0.8616	0.5762	0.9753	0.034
Mof_C 	C 	0.8366	0.5465	0.9215	-0.054
Mof_H 	H 	0.8019	0.5804	0.9174	0.043
Mof_C 	C 	0.9004	0.4434	0.90359	-0.043
Mof_C 	C 	0.9373	0.444	0.93704	-0.039
Mof_H 	H 	0.9062	0.4064	0.8861	0.04
Mof_H 	H 	0.9705	0.4093	0.9425	0.034
Mof_O 	O 	0.28446	0.18321	0.29691	-0.482
Mof_O 	O 	0.37144	0.26786	0.25205	-0.474
Mof_C 	C 	0.26206	0.1301	0.28005	0.394
Mof_C 	C 	0.2733	0.06311	0.30015	-0.122
Mof_C 	C 	0.30282	0.06248	0.33571	0.016
Mof_H 	H 	0.3136	0.1052	0.3476	0.032
Mof_C 	C 	0.3737	0.0438	0.4561	-0.037
Mof_H 	H 	0.3616	0.0762	0.4753	0.034
Mof_C 	C 	0.3366	0.0465	0.4215	-0.053
Mof_H 	H 	0.3019	0.0804	0.4174	0.041
Mof_C 	C 	0.4004	0.9434	0.40359	-0.041
Mof_C 	C 	0.4373	0.944	0.43704	-0.036
Mof_H 	H 	0.4062	0.9064	0.3861	0.039
Mof_H 	H 	0.4705	0.9093	0.4425	0.032
Mof_O 	O 	0.68321	0.78446	0.79691	-0.482
Mof_O 	O 	0.76786	0.87144	0.75205	-0.471
Mof_C 	C 	0.6301	0.76206	0.78005	0.395
Mof_C 	C 	0.56311	0.7733	0.80015	-0.123
Mof_C 	C 	0.56248	0.80282	0.83571	0.017
Mof_H 	H 	0.6052	0.8136	0.8476	0.032
Mof_C 	C 	0.5438	0.8737	0.9561	-0.035
Mof_H 	H 	0.5762	0.8616	0.9753	0.034
Mof_C 	C 	0.5465	0.8366	0.9215	-0.054
Mof_H 	H 	0.5804	0.8019	0.9174	0.043
Mof_C 	C 	0.4434	0.9004	0.90359	-0.043
Mof_C 	C 	0.444	0.9373	0.93704	-0.039
Mof_H 	H 	0.4064	0.9062	0.8861	0.04
Mof_H 	H 	0.4093	0.9705	0.9425	0.034
Mof_O 	O 	0.18321	0.28446	0.29691	-0.482
Mof_O 	O 	0.26786	0.37144	0.25205	-0.474
Mof_C 	C 	0.1301	0.26206	0.28005	0.394
Mof_C 	C 	0.06311	0.2733	0.30015	-0.122
Mof_C 	C 	0.06248	0.30282	0.33571	0.016
Mof_H 	H 	0.1052	0.3136	0.3476	0.032
Mof_C 	C 	0.0438	0.3737	0.4561	-0.037
Mof_H 	H 	0.0762	0.3616	0.4753	0.034
Mof_C 	C 	0.0465	0.3366	0.4215	-0.053
Mof_H 	H 	0.0804	0.3019	0.4174	0.041
Mof_C 	C 	0.9434	0.4004	0.40359	-0.041
Mof_C 	C 	0.944	0.4373	0.43704	-0.036
Mof_H 	H 	0.9064	0.4062	0.3861	0.039
Mof_H 	H 	0.9093	0.4705	0.4425	0.032
Mof_O 	O 	0.31679	0.21554	0.79691	-0.483
Mof_O 	O 	0.23214	0.12856	0.75205	-0.474
Mof_C 	C 	0.3699	0.23794	0.78005	0.395
Mof_C 	C 	0.43689	0.2267	0.80015	-0.123
Mof_C 	C 	0.43752	0.19718	0.83571	0.017
Mof_H 	H 	0.3948	0.1864	0.8476	0.031
Mof_C 	C 	0.4562	0.1263	0.9561	-0.037
Mof_H 	H 	0.4238	0.1384	0.9753	0.034
Mof_C 	C 	0.4535	0.1634	0.9215	-0.052
Mof_H 	H 	0.4196	0.1981	0.9174	0.042
Mof_C 	C 	0.5566	0.0996	0.90359	-0.044
Mof_C 	C 	0.556	0.0627	0.93704	-0.04
Mof_H 	H 	0.5936	0.0938	0.8861	0.038
Mof_H 	H 	0.5907	0.0295	0.9425	0.03
Mof_O 	O 	0.81679	0.71554	0.29691	-0.481
Mof_O 	O 	0.73214	0.62856	0.25205	-0.473
Mof_C 	C 	0.8699	0.73794	0.28005	0.394
Mof_C 	C 	0.93689	0.7267	0.30015	-0.117
Mof_C 	C 	0.93752	0.69718	0.33571	0.021
Mof_H 	H 	0.8948	0.6864	0.3476	0.031
Mof_C 	C 	0.9562	0.6263	0.4561	-0.03
Mof_H 	H 	0.9238	0.6384	0.4753	0.033
Mof_C 	C 	0.9535	0.6634	0.4215	-0.049
Mof_H 	H 	0.9196	0.6981	0.4174	0.042
Mof_C 	C 	0.0566	0.5996	0.40359	-0.044
Mof_C 	C 	0.056	0.5627	0.43704	-0.038
Mof_H 	H 	0.0936	0.5938	0.3861	0.039
Mof_H 	H 	0.0907	0.5295	0.4425	0.032
Mof_O 	O 	0.21554	0.68321	0.79691	-0.482
Mof_O 	O 	0.12856	0.76786	0.75205	-0.473
Mof_C 	C 	0.23794	0.6301	0.78005	0.395
Mof_C 	C 	0.2267	0.56311	0.80015	-0.123
Mof_C 	C 	0.19718	0.56248	0.83571	0.017
Mof_H 	H 	0.1864	0.6052	0.8476	0.032
Mof_C 	C 	0.1263	0.5438	0.9561	-0.038
Mof_H 	H 	0.1384	0.5762	0.9753	0.034
Mof_C 	C 	0.1634	0.5465	0.9215	-0.052
Mof_H 	H 	0.1981	0.5804	0.9174	0.042
Mof_C 	C 	0.0996	0.4434	0.90359	-0.044
Mof_C 	C 	0.0627	0.444	0.93704	-0.04
Mof_H 	H 	0.0938	0.4064	0.8861	0.038
Mof_H 	H 	0.0295	0.4093	0.9425	0.029
Mof_O 	O 	0.71554	0.18321	0.29691	-0.482
Mof_O 	O 	0.62856	0.26786	0.25205	-0.473
Mof_C 	C 	0.73794	0.1301	0.28005	0.394
Mof_C 	C 	0.7267	0.06311	0.30015	-0.121
Mof_C 	C 	0.69718	0.06248	0.33571	0.016
Mof_H 	H 	0.6864	0.1052	0.3476	0.032
Mof_C 	C 	0.6263	0.0438	0.4561	-0.037
Mof_H 	H 	0.6384	0.0762	0.4753	0.034
Mof_C 	C 	0.6634	0.0465	0.4215	-0.053
Mof_H 	H 	0.6981	0.0804	0.4174	0.042
Mof_C 	C 	0.5996	0.9434	0.40359	-0.041
Mof_C 	C 	0.5627	0.944	0.43704	-0.036
Mof_H 	H 	0.5938	0.9064	0.3861	0.039
Mof_H 	H 	0.5295	0.9093	0.4425	0.032
Mof_O 	O 	0.78446	0.31679	0.79691	-0.482
Mof_O 	O 	0.87144	0.23214	0.75205	-0.472
Mof_C 	C 	0.76206	0.3699	0.78005	0.395
Mof_C 	C 	0.7733	0.43689	0.80015	-0.123
Mof_C 	C 	0.80282	0.43752	0.83571	0.017
Mof_H 	H 	0.8136	0.3948	0.8476	0.032
Mof_C 	C 	0.8737	0.4562	0.9561	-0.035
Mof_H 	H 	0.8616	0.4238	0.9753	0.033
Mof_C 	C 	0.8366	0.4535	0.9215	-0.054
Mof_H 	H 	0.8019	0.4196	0.9174	0.042
Mof_C 	C 	0.9004	0.5566	0.90359	-0.043
Mof_C 	C 	0.9373	0.556	0.93704	-0.038
Mof_H 	H 	0.9062	0.5936	0.8861	0.04
Mof_H 	H 	0.9705	0.5907	0.9425	0.034
Mof_O 	O 	0.28446	0.81679	0.29691	-0.482
Mof_O 	O 	0.37144	0.73214	0.25205	-0.473
Mof_C 	C 	0.26206	0.8699	0.28005	0.394
Mof_C 	C 	0.2733	0.93689	0.30015	-0.118
Mof_C 	C 	0.30282	0.93752	0.33571	0.021
Mof_H 	H 	0.3136	0.8948	0.3476	0.031
Mof_C 	C 	0.3737	0.9562	0.4561	-0.03
Mof_H 	H 	0.3616	0.9238	0.4753	0.033
Mof_C 	C 	0.3366	0.9535	0.4215	-0.049
Mof_H 	H 	0.3019	0.9196	0.4174	0.042
Mof_C 	C 	0.4004	0.0566	0.40359	-0.044
Mof_C 	C 	0.4373	0.056	0.43704	-0.038
Mof_H 	H 	0.4062	0.0936	0.3861	0.039
Mof_H 	H 	0.4705	0.0907	0.4425	0.032
Mof_O 	O 	0.31679	0.78446	0.20309	-0.482
Mof_O 	O 	0.23214	0.87144	0.24795	-0.472
Mof_C 	C 	0.3699	0.76206	0.21995	0.395
Mof_C 	C 	0.43689	0.7733	0.19985	-0.123
Mof_C 	C 	0.43752	0.80282	0.16429	0.017
Mof_H 	H 	0.3948	0.8136	0.1524	0.032
Mof_C 	C 	0.4562	0.8737	0.0439	-0.035
Mof_H 	H 	0.4238	0.8616	0.0247	0.034
Mof_C 	C 	0.4535	0.8366	0.0785	-0.053
Mof_H 	H 	0.4196	0.8019	0.0826	0.042
Mof_C 	C 	0.5566	0.9004	0.09641	-0.043
Mof_C 	C 	0.556	0.9373	0.06296	-0.039
Mof_H 	H 	0.5936	0.9062	0.1139	0.04
Mof_H 	H 	0.5907	0.9705	0.0575	0.035
Mof_O 	O 	0.81679	0.28446	0.70309	-0.482
Mof_O 	O 	0.73214	0.37144	0.74795	-0.473
Mof_C 	C 	0.8699	0.26206	0.71995	0.394
Mof_C 	C 	0.93689	0.2733	0.69985	-0.118
Mof_C 	C 	0.93752	0.30282	0.66429	0.021
Mof_H 	H 	0.8948	0.3136	0.6524	0.031
Mof_C 	C 	0.9562	0.3737	0.5439	-0.03
Mof_H 	H 	0.9238	0.3616	0.5247	0.033
Mof_C 	C 	0.9535	0.3366	0.5785	-0.049
Mof_H 	H 	0.9196	0.3019	0.5826	0.042
Mof_C 	C 	0.0566	0.4004	0.59641	-0.044
Mof_C 	C 	0.056	0.4373	0.56296	-0.038
Mof_H 	H 	0.0936	0.4062	0.6139	0.039
Mof_H 	H 	0.0907	0.4705	0.5575	0.032
Mof_O 	O 	0.68321	0.21554	0.20309	-0.482
Mof_O 	O 	0.76786	0.12856	0.24795	-0.473
Mof_C 	C 	0.6301	0.23794	0.21995	0.395
Mof_C 	C 	0.56311	0.2267	0.19985	-0.123
Mof_C 	C 	0.56248	0.19718	0.16429	0.017
Mof_H 	H 	0.6052	0.1864	0.1524	0.032
Mof_C 	C 	0.5438	0.1263	0.0439	-0.038
Mof_H 	H 	0.5762	0.1384	0.0247	0.035
Mof_C 	C 	0.5465	0.1634	0.0785	-0.051
Mof_H 	H 	0.5804	0.1981	0.0826	0.042
Mof_C 	C 	0.4434	0.0996	0.09641	-0.044
Mof_C 	C 	0.444	0.0627	0.06296	-0.04
Mof_H 	H 	0.4064	0.0938	0.1139	0.038
Mof_H 	H 	0.4093	0.0295	0.0575	0.03
Mof_O 	O 	0.18321	0.71554	0.70309	-0.482
Mof_O 	O 	0.26786	0.62856	0.74795	-0.473
Mof_C 	C 	0.1301	0.73794	0.71995	0.394
Mof_C 	C 	0.06311	0.7267	0.69985	-0.121
Mof_C 	C 	0.06248	0.69718	0.66429	0.016
Mof_H 	H 	0.1052	0.6864	0.6524	0.032
Mof_C 	C 	0.0438	0.6263	0.5439	-0.037
Mof_H 	H 	0.0762	0.6384	0.5247	0.034
Mof_C 	C 	0.0465	0.6634	0.5785	-0.053
Mof_H 	H 	0.0804	0.6981	0.5826	0.042
Mof_C 	C 	0.9434	0.5996	0.59641	-0.041
Mof_C 	C 	0.944	0.5627	0.56296	-0.036
Mof_H 	H 	0.9064	0.5938	0.6139	0.039
Mof_H 	H 	0.9093	0.5295	0.5575	0.032
Mof_O 	O 	0.78446	0.68321	0.20309	-0.481
Mof_O 	O 	0.87144	0.76786	0.24795	-0.471
Mof_C 	C 	0.76206	0.6301	0.21995	0.395
Mof_C 	C 	0.7733	0.56311	0.19985	-0.123
Mof_C 	C 	0.80282	0.56248	0.16429	0.017
Mof_H 	H 	0.8136	0.6052	0.1524	0.032
Mof_C 	C 	0.8737	0.5438	0.0439	-0.035
Mof_H 	H 	0.8616	0.5762	0.0247	0.034
Mof_C 	C 	0.8366	0.5465	0.0785	-0.053
Mof_H 	H 	0.8019	0.5804	0.0826	0.043
Mof_C 	C 	0.9004	0.4434	0.09641	-0.043
Mof_C 	C 	0.9373	0.444	0.06296	-0.039
Mof_H 	H 	0.9062	0.4064	0.1139	0.04
Mof_H 	H 	0.9705	0.4093	0.0575	0.034
Mof_O 	O 	0.28446	0.18321	0.70309	-0.482
Mof_O 	O 	0.37144	0.26786	0.74795	-0.474
Mof_C 	C 	0.26206	0.1301	0.71995	0.394
Mof_C 	C 	0.2733	0.06311	0.69985	-0.122
Mof_C 	C 	0.30282	0.06248	0.66429	0.016
Mof_H 	H 	0.3136	0.1052	0.6524	0.032
Mof_C 	C 	0.3737	0.0438	0.5439	-0.037
Mof_H 	H 	0.3616	0.0762	0.5247	0.034
Mof_C 	C 	0.3366	0.0465	0.5785	-0.053
Mof_H 	H 	0.3019	0.0804	0.5826	0.041
Mof_C 	C 	0.4004	0.9434	0.59641	-0.041
Mof_C 	C 	0.4373	0.944	0.56296	-0.036
Mof_H 	H 	0.4062	0.9064	0.6139	0.039
Mof_H 	H 	0.4705	0.9093	0.5575	0.032
Mof_O 	O 	0.21554	0.31679	0.20309	-0.483
Mof_O 	O 	0.12856	0.23214	0.24795	-0.474
Mof_C 	C 	0.23794	0.3699	0.21995	0.395
Mof_C 	C 	0.2267	0.43689	0.19985	-0.123
Mof_C 	C 	0.19718	0.43752	0.16429	0.017
Mof_H 	H 	0.1864	0.3948	0.1524	0.031
Mof_C 	C 	0.1263	0.4562	0.0439	-0.038
Mof_H 	H 	0.1384	0.4238	0.0247	0.035
Mof_C 	C 	0.1634	0.4535	0.0785	-0.051
Mof_H 	H 	0.1981	0.4196	0.0826	0.042
Mof_C 	C 	0.0996	0.5566	0.09641	-0.044
Mof_C 	C 	0.0627	0.556	0.06296	-0.04
Mof_H 	H 	0.0938	0.5936	0.1139	0.038
Mof_H 	H 	0.0295	0.5907	0.0575	0.03
Mof_O 	O 	0.71554	0.81679	0.70309	-0.481
Mof_O 	O 	0.62856	0.73214	0.74795	-0.473
Mof_C 	C 	0.73794	0.8699	0.71995	0.394
Mof_C 	C 	0.7267	0.93689	0.69985	-0.117
Mof_C 	C 	0.69718	0.93752	0.66429	0.021
Mof_H 	H 	0.6864	0.8948	0.6524	0.031
Mof_C 	C 	0.6263	0.9562	0.5439	-0.03
Mof_H 	H 	0.6384	0.9238	0.5247	0.033
Mof_C 	C 	0.6634	0.9535	0.5785	-0.049
Mof_H 	H 	0.6981	0.9196	0.5826	0.042
Mof_C 	C 	0.5996	0.0566	0.59641	-0.044
Mof_C 	C 	0.5627	0.056	0.56296	-0.038
Mof_H 	H 	0.5938	0.0936	0.6139	0.039
Mof_H 	H 	0.5295	0.0907	0.5575	0.032
Mof_Zn	Zn	0.21455	0.21455	0.21681	1.197
Mof_Zn	Zn	0.71455	0.71455	0.71681	1.198
Mof_Zn	Zn	0.78545	0.78545	0.21681	1.198
Mof_Zn	Zn	0.28545	0.28545	0.71681	1.198
Mof_Zn	Zn	0.78545	0.21455	0.21681	1.198
Mof_Zn	Zn	0.28545	0.71455	0.71681	1.198
Mof_Zn	Zn	0.21455	0.78545	0.21681	1.198
Mof_Zn	Zn	0.71455	0.28545	0.71681	1.198
Mof_Zn	Zn	0.78545	0.21455	0.78319	1.198
Mof_Zn	Zn	0.28545	0.71455	0.28319	1.198
Mof_Zn	Zn	0.21455	0.78545	0.78319	1.198
Mof_Zn	Zn	0.71455	0.28545	0.28319	1.198
Mof_Zn	Zn	0.21455	0.21455	0.78319	1.197
Mof_Zn	Zn	0.71455	0.71455	0.28319	1.198
Mof_Zn	Zn	0.78545	0.78545	0.78319	1.198
Mof_Zn	Zn	0.28545	0.28545	0.28319	1.198
Mof_C 	C 	0.5	0.0762	0.03597	0.041
Mof_C 	C 	0.5	0.2408	0.2173	0.06
Mof_H 	H 	0.5	0.2608	0.2421	0.032
Mof_C 	C 	0.5	0.1484	0.10538	0.051
Mof_C 	C 	0.5	0.1822	0.14473	-0.043
Mof_C 	C 	3.63339e-33	0.5762	0.53597	0.03
Mof_C 	C 	4.86265e-33	0.7408	0.7173	0.052
Mof_H 	H 	2.03758e-32	0.7608	0.7421	0.033
Mof_C 	C 	4.10393e-33	0.6484	0.60538	0.046
Mof_C 	C 	1.97158e-32	0.6822	0.64473	-0.047
Mof_C 	C 	0.5	0.9238	0.03597	0.036
Mof_C 	C 	0.5	0.7592	0.2173	0.06
Mof_H 	H 	0.5	0.7392	0.2421	0.032
Mof_C 	C 	0.5	0.8516	0.10538	0.052
Mof_C 	C 	0.5	0.8178	0.14473	-0.043
Mof_C 	C 	1.13059e-32	0.4238	0.53597	0.03
Mof_C 	C 	-1.04824e-32	0.2592	0.7173	0.052
Mof_H 	H 	3.57209e-32	0.2392	0.7421	0.033
Mof_C 	C 	1.17765e-32	0.3516	0.60538	0.046
Mof_C 	C 	4.37069e-33	0.3178	0.64473	-0.047
Mof_C 	C 	0.9238	0.5	0.03597	0.036
Mof_C 	C 	0.7592	0.5	0.2173	0.06
Mof_H 	H 	0.7392	0.5	0.2421	0.032
Mof_C 	C 	0.8516	0.5	0.10538	0.052
Mof_C 	C 	0.8178	0.5	0.14473	-0.043
Mof_C 	C 	0.4238	7.67253e-33	0.53597	0.03
Mof_C 	C 	0.2592	0	0.7173	0.052
Mof_H 	H 	0.2392	1.53451e-32	0.7421	0.033
Mof_C 	C 	0.3516	7.67253e-33	0.60538	0.046
Mof_C 	C 	0.3178	0	0.64473	-0.047
Mof_C 	C 	0.0762	0.5	0.03597	0.041
Mof_C 	C 	0.2408	0.5	0.2173	0.06
Mof_H 	H 	0.2608	0.5	0.2421	0.032
Mof_C 	C 	0.1484	0.5	0.10538	0.051
Mof_C 	C 	0.1822	0.5	0.14473	-0.043
Mof_C 	C 	0.5762	7.67253e-33	0.53597	0.03
Mof_C 	C 	0.7408	0	0.7173	0.052
Mof_H 	H 	0.7608	1.53451e-32	0.7421	0.033
Mof_C 	C 	0.6484	7.67253e-33	0.60538	0.046
Mof_C 	C 	0.6822	0	0.64473	-0.047
Mof_C 	C 	0.5	0.0762	0.96403	0.04
Mof_C 	C 	0.5	0.2408	0.7827	0.06
Mof_H 	H 	0.5	0.2608	0.7579	0.032
Mof_C 	C 	0.5	0.1484	0.89462	0.051
Mof_C 	C 	0.5	0.1822	0.85527	-0.043
Mof_C 	C 	1.08182e-32	0.5762	0.46403	0.03
Mof_C 	C 	1.34253e-32	0.7408	0.2827	0.052
Mof_H 	H 	5.5846e-33	0.7608	0.2579	0.033
Mof_C 	C 	1.80202e-32	0.6484	0.39462	0.046
Mof_C 	C 	1.00809e-32	0.6822	0.35527	-0.047
Mof_C 	C 	0.5	0.9238	0.96403	0.035
Mof_C 	C 	0.5	0.7592	0.7827	0.06
Mof_H 	H 	0.5	0.7392	0.7579	0.032
Mof_C 	C 	0.5	0.8516	0.89462	0.053
Mof_C 	C 	0.5	0.8178	0.85527	-0.043
Mof_C 	C 	1.84908e-32	0.4238	0.46403	0.03
Mof_C 	C 	9.58898e-33	0.2592	0.2827	0.052
Mof_H 	H 	1.32571e-32	0.2392	0.2579	0.033
Mof_C 	C 	1.03477e-32	0.3516	0.39462	0.046
Mof_C 	C 	1.00809e-32	0.3178	0.35527	-0.047
Mof_C 	C 	0.0762	0.5	0.96403	0.04
Mof_C 	C 	0.2408	0.5	0.7827	0.06
Mof_H 	H 	0.2608	0.5	0.7579	0.032
Mof_C 	C 	0.1484	0.5	0.89462	0.051
Mof_C 	C 	0.1822	0.5	0.85527	-0.043
Mof_C 	C 	0.5762	1.53451e-32	0.46403	0.03
Mof_C 	C 	0.7408	3.83627e-33	0.2827	0.052
Mof_H 	H 	0.7608	7.67253e-33	0.2579	0.033
Mof_C 	C 	0.6484	7.67253e-33	0.39462	0.046
Mof_C 	C 	0.6822	7.67253e-33	0.35527	-0.047
Mof_C 	C 	0.9238	0.5	0.96403	0.035
Mof_C 	C 	0.7592	0.5	0.7827	0.06
Mof_H 	H 	0.7392	0.5	0.7579	0.032
Mof_C 	C 	0.8516	0.5	0.89462	0.053
Mof_C 	C 	0.8178	0.5	0.85527	-0.043
Mof_C 	C 	0.4238	1.53451e-32	0.46403	0.03
Mof_C 	C 	0.2592	3.83627e-33	0.2827	0.052
Mof_H 	H 	0.2392	7.67253e-33	0.2579	0.033
Mof_C 	C 	0.3516	7.67253e-33	0.39462	0.046
Mof_C 	C 	0.3178	7.67253e-33	0.35527	-0.047
Mof_C 	C 	0.5	0.0342	-0	-0.046
Mof_C 	C 	3.38955e-33	0.5342	0.5	-0.036
Mof_C 	C 	0.5	0.9658	-0	-0.029
Mof_C 	C 	3.38955e-33	0.4658	0.5	-0.036
Mof_C 	C 	0.9658	0.5	-0	-0.029
Mof_C 	C 	0.4658	7.67253e-33	0.5	-0.036
Mof_C 	C 	0.0342	0.5	-0	-0.046
Mof_C 	C 	0.5342	7.67253e-33	0.5	-0.036
_end
