data_functionalizedCrystal
_audit_creation_method	'EQeq! by Chris Wilmer'
_symmetry_space_group_name_H-M	'P1'
_symmetry_Int_Tables_number	1
_symmetry_cell_setting	triclinic
loop_
_symmetry_equiv_pos_as_xyz
  x,y,z
_cell_length_a	23.4228
_cell_length_b	23.4225
_cell_length_c	23.4225
_cell_angle_alpha	109.471
_cell_angle_beta	109.471
_cell_angle_gamma	109.471
loop_
_atom_site_label
_atom_site_type_symbol
_atom_site_fract_x
_atom_site_fract_y
_atom_site_fract_z
_atom_site_charge
Mof_K 	K 	0.03276	0.25	0.28276	3.416
Mof_K 	K 	0.71724	0.46724	0.25	3.433
Mof_K 	K 	0.46724	0.75	0.21724	3.423
Mof_K 	K 	0.78276	0.03276	0.75	3.415
Mof_K 	K 	0.75	0.71724	0.96724	3.48
Mof_K 	K 	0.25	0.78276	0.53276	3.42
Mof_Co	Co	0.79658	0	-0	1.051
Mof_Co	Co	0.70342	0.70342	0.20342	1.058
Mof_Co	Co	0.5	0.79658	0.5	1.058
Mof_Co	Co	-5.74637e-18	0.5	0.29658	1.058
Mof_H 	H 	0.0164	0.0876	0.8838	-0.064
Mof_H 	H 	0.3663	0.6203	0.5958	0.801
Mof_H 	H 	0.4387	0.9488	0.5997	0.028
Mof_H 	H 	0.2504	0.8606	0.7872	-0.294
Mof_H 	H 	0.7112	0.994	0.324	0.813
Mof_H 	H 	0.4899	0.6509	0.0512	0.026
Mof_H 	H 	0.7809	0.1762	0.8883	-0.242
Mof_H 	H 	0.883	0.8769	0.7971	0.92
Mof_H 	H 	0.9877	0.0786	0.6695	-0.211
Mof_H 	H 	0.799	0.9544	0.5518	-0.087
Mof_H 	H 	0.6929	0.9163	0.3016	0.794
Mof_H 	H 	0.6231	0.0061	0.4202	0.939
Mof_H 	H 	0.3507	0.4502	0.1221	0.943
Mof_H 	H 	0.6984	0.1147	0.8913	0.801
Mof_H 	H 	0.3141	0.9159	0.4726	-0.282
Mof_H 	H 	0.3838	0.0164	0.5876	-0.068
Mof_H 	H 	0.7709	0.4866	0.1491	0.663
Mof_H 	H 	0.5274	0.9433	0.3415	-0.294
Mof_H 	H 	0.4939	0.617	0.9141	0.902
Mof_H 	H 	0.001	0.2109	0.1145	0.761
Mof_H 	H 	0.0786	0.1695	0.4877	-0.308
Mof_H 	H 	0.1975	0.6354	0.9765	-0.399
Mof_H 	H 	0.6719	0.0498	0.4005	0.937
Mof_H 	H 	0.5909	0.5123	0.6818	-0.295
Mof_H 	H 	0.279	0.9379	0.8025	-0.283
Mof_H 	H 	0.0732	0.2484	0.0462	0.892
Mof_H 	H 	0.6491	0.7709	0.9866	0.663
Mof_H 	H 	0.2516	0.8248	0.2978	0.908
Mof_H 	H 	0.9726	0.3141	0.4159	-0.294
Mof_H 	H 	0.7318	0.3939	0.4397	-0.03
Mof_H 	H 	0.7682	0.2079	0.6621	-0.031
Mof_H 	H 	0.8071	0.1087	0.2234	0.787
Mof_H 	H 	0.9091	0.5909	0.9214	-0.273
Mof_H 	H 	0.7121	0.3238	0.1047	-0.228
Mof_H 	H 	0.7334	0.8241	0.7397	0.809
Mof_H 	H 	0.8446	0.5974	0.0456	-0.081
Mof_H 	H 	0.7291	0.8782	0.7157	0.694
Mof_H 	H 	0.7038	0.1326	0.6162	-0.074
Mof_H 	H 	0.5354	0.7255	0.0649	0.007
Mof_H 	H 	0.9016	0.09	0.5582	0.016
Mof_H 	H 	0.6674	0.2739	0.3831	0.029
Mof_H 	H 	0.8775	0.9947	0.5734	-0.038
Mof_H 	H 	0.0518	0.799	0.4544	-0.087
Mof_H 	H 	0.3913	0.6984	0.6147	0.789
Mof_H 	H 	0.0295	0.6901	0.4646	0.007
Mof_H 	H 	0.506	0.7172	0.83	0.777
Mof_H 	H 	0.5063	0.5907	0.2666	0.836
Mof_H 	H 	0.09	0.0582	0.4016	0.013
Mof_H 	H 	0.4124	0.9288	0.2962	-0.074
Mof_H 	H 	0.1762	0.3883	0.2809	-0.236
Mof_H 	H 	0.8865	0.8855	0.0964	0.746
Mof_H 	H 	0.3898	0.9266	0.1394	-0.299
Mof_H 	H 	0.4482	0.9026	0.7472	-0.089
Mof_H 	H 	0.221	0.0235	0.6589	-0.225
Mof_H 	H 	0.6221	0.3507	0.9502	0.886
Mof_H 	H 	0.6225	0.1959	0.1172	-0.038
Mof_H 	H 	0.3182	0.3305	0.4091	-0.296
Mof_H 	H 	0.9379	0.3025	0.779	-0.282
Mof_H 	H 	0.8855	0.5964	0.3865	0.781
Mof_H 	H 	0.754	0.1337	0.2295	0.8
Mof_H 	H 	0.5841	0.3982	0.0567	-0.277
Mof_H 	H 	0.1566	0.6884	0.0984	0.016
Mof_H 	H 	0.9156	0.6759	0.4093	0.822
Mof_H 	H 	0.1117	0.7879	0.3926	-0.236
Mof_H 	H 	0.3411	0.8646	0.0621	-0.289
Mof_H 	H 	0.1147	0.3913	0.1984	0.773
Mof_H 	H 	0.6625	0.0134	0.7843	0.718
Mof_H 	H 	0.4542	0.2921	0.0603	-0.029
Mof_H 	H 	0.1018	0.1859	0.1585	-0.286
Mof_H 	H 	0.8099	0.3394	0.2745	0.006
Mof_H 	H 	0.5123	0.1818	0.0909	-0.304
Mof_H 	H 	0.9288	0.7962	0.9124	-0.059
Mof_H 	H 	0.4042	0.5245	0.2705	0.814
Mof_H 	H 	0.7022	0.027	0.4538	0.921
Mof_H 	H 	0.0061	0.9202	0.1231	0.903
Mof_H 	H 	0.5787	0.5053	0.3828	-0.039
Mof_H 	H 	0.2286	0.8779	0.3281	0.925
Mof_H 	H 	0.1606	0.4705	0.4351	0.007
Mof_H 	H 	0.7879	0.8926	0.6117	-0.233
Mof_H 	H 	0.6074	0.8953	0.2191	-0.245
Mof_H 	H 	0.8797	0.746	0.4755	0.801
Mof_H 	H 	0.3394	0.7745	0.3099	0.007
Mof_H 	H 	0.2843	0.6625	0.5134	0.707
Mof_H 	H 	0.1859	0.6585	0.6018	-0.291
Mof_H 	H 	0.3434	0.4418	0.5318	0.017
Mof_H 	H 	0.2891	0.7901	0.4036	0.775
Mof_H 	H 	0.7745	0.8099	0.8394	0.007
Mof_H 	H 	0.5712	0.4836	0.8674	-0.066
Mof_H 	H 	0.2079	0.1621	0.2682	-0.03
Mof_H 	H 	0.661	0.0101	0.5613	0.024
Mof_H 	H 	0.1065	0.8326	0.7157	0.03
Mof_H 	H 	0.0458	0.1061	0.8379	-0.025
Mof_H 	H 	0.8375	0.6218	0.3509	0.706
Mof_H 	H 	0.4682	0.41	0.3116	0.016
Mof_H 	H 	0.4705	0.9351	0.6606	0.007
Mof_H 	H 	0.1493	0.2714	0.0995	0.911
Mof_H 	H 	0.3982	0.5567	0.0841	-0.31
Mof_H 	H 	0.2971	0.883	0.3769	0.927
Mof_H 	H 	0.9755	0.8797	0.246	0.773
Mof_H 	H 	0.3853	0.5837	0.2766	0.802
Mof_H 	H 	0.9026	0.2472	0.9482	-0.083
Mof_H 	H 	0.2128	0.5734	0.9632	-0.413
Mof_H 	H 	0.8248	0.7978	0.7516	0.902
Mof_H 	H 	0.5995	0.1493	0.7714	0.94
Mof_H 	H 	0.7234	0.8071	0.6087	0.775
Mof_H 	H 	0.0235	0.1589	0.721	-0.207
Mof_H 	H 	0.1959	0.6172	0.1225	-0.041
Mof_H 	H 	0.6585	0.1018	0.6859	-0.295
Mof_H 	H 	0.2484	0.5462	0.5732	0.914
Mof_H 	H 	0.9538	0.7022	0.527	0.915
Mof_H 	H 	0.6354	0.4765	0.6975	-0.285
Mof_H 	H 	0.6759	0.9093	0.4156	0.828
Mof_H 	H 	0.8953	0.7191	0.1074	-0.228
Mof_H 	H 	0.5567	0.5841	0.8982	-0.274
Mof_H 	H 	0.0734	0.8775	0.4947	-0.037
Mof_H 	H 	0.1087	0.7234	0.3071	0.783
Mof_H 	H 	0.3041	0.4266	0.4213	-0.038
Mof_H 	H 	0.3379	0.0458	0.6061	-0.028
Mof_H 	H 	0.2528	0.6554	0.201	-0.098
Mof_H 	H 	0.0101	0.0613	0.161	0.021
Mof_H 	H 	0.6135	0.7099	0.999	0.739
Mof_H 	H 	0.0134	0.2843	0.1625	0.689
Mof_H 	H 	0.7705	0.4042	0.0245	0.756
Mof_H 	H 	0.7766	0.3853	0.0837	0.745
Mof_H 	H 	0.3908	0.2843	0.1169	0.029
Mof_H 	H 	0.8116	0.4682	0.91	0.027
Mof_H 	H 	0.8606	0.2872	0.7504	-0.293
Mof_H 	H 	0.8646	0.5621	0.8411	-0.267
Mof_H 	H 	0.4141	0.4939	0.117	0.946
Mof_H 	H 	0.7901	0.9036	0.7891	0.768
Mof_H 	H 	0.5844	0.9937	0.7603	0.835
Mof_H 	H 	0.4214	0.9091	0.0909	-0.3
Mof_H 	H 	0.4632	0.2128	0.0734	-0.305
Mof_H 	H 	0.1695	0.9877	0.5786	-0.229
Mof_H 	H 	0.0613	0.661	0.5101	0.028
Mof_H 	H 	0.3872	0.676	0.67	0.808
Mof_H 	H 	0.8415	0.5274	0.4433	-0.291
Mof_H 	H 	0.2921	0.5603	0.9542	-0.036
Mof_H 	H 	0.5798	0.0859	0.7029	0.942
Mof_H 	H 	0.746	0.9755	0.3797	0.807
Mof_H 	H 	0.6047	0.7121	0.8238	-0.229
Mof_H 	H 	0.5974	0.5456	0.3446	-0.092
Mof_H 	H 	0.5964	0.8865	0.3855	0.787
Mof_H 	H 	0.9163	0.8016	0.1929	0.759
Mof_H 	H 	0.41	0.8116	0.9682	0.012
Mof_H 	H 	0.3238	0.6047	0.2121	-0.253
Mof_H 	H 	0.0318	0.3434	0.9418	0.024
Mof_H 	H 	0.6394	0.3898	0.4266	-0.299
Mof_H 	H 	0.4003	0.8491	0.339	0.028
Mof_H 	H 	0.9947	0.0734	0.3775	-0.04
Mof_H 	H 	0.5462	0.0732	0.7484	0.923
Mof_H 	H 	0.4268	0.473	0.1752	0.927
Mof_H 	H 	0.3939	0.9397	0.2318	-0.031
Mof_H 	H 	0.6218	0.8509	0.3375	0.712
Mof_H 	H 	0.2603	0.5844	0.4937	0.822
Mof_H 	H 	0.9397	0.7318	0.8939	-0.019
Mof_H 	H 	0.5984	0.1566	0.1884	0.016
Mof_H 	H 	0.0582	0.9016	0.59	0.017
Mof_H 	H 	0.8491	0.839	0.9003	0.03
Mof_H 	H 	0.5621	0.3411	0.3646	-0.289
Mof_H 	H 	0.9646	0.0295	0.1901	0.005
Mof_H 	H 	0.2472	0.4482	0.4026	-0.09
Mof_H 	H 	0.8326	0.2157	0.6065	0.03
Mof_H 	H 	0.4266	0.9213	0.8041	-0.036
Mof_H 	H 	0.9266	0.6394	0.8898	-0.276
Mof_H 	H 	0.9213	0.3041	0.9266	-0.031
Mof_H 	H 	0.5245	0.7705	0.9042	0.774
Mof_H 	H 	0.8509	0.8375	0.1218	0.672
Mof_H 	H 	0.2397	0.7334	0.3241	0.816
Mof_H 	H 	0.4836	0.3674	0.0712	-0.071
Mof_H 	H 	0.1326	0.1162	0.2038	-0.073
Mof_H 	H 	0.9488	0.0997	0.9387	0.034
Mof_H 	H 	0.2157	0.7291	0.3782	0.7
Mof_H 	H 	0.5734	0.4632	0.7128	-0.295
Mof_H 	H 	0.6203	0.0958	0.8663	0.813
Mof_H 	H 	0.3935	0.1092	0.7261	0.03
Mof_H 	H 	0.5837	0.7766	0.8853	0.759
Mof_H 	H 	0.1621	0.7682	0.7079	-0.03
Mof_H 	H 	0.7888	0.1128	0.2828	0.806
Mof_H 	H 	0.2872	0.2504	0.3606	-0.297
Mof_H 	H 	0.8241	0.2397	0.2334	0.822
Mof_H 	H 	0.8779	0.8281	0.7286	0.918
Mof_H 	H 	0.8016	0.6929	0.4163	0.788
Mof_H 	H 	0.676	0.17	0.8872	0.82
Mof_H 	H 	0.6169	0.3908	0.7843	0.033
Mof_H 	H 	0.2157	0.1065	0.3326	0.028
Mof_H 	H 	0.7255	0.5649	0.0354	0.021
Mof_H 	H 	0.6884	0.5984	0.6566	0.019
Mof_H 	H 	0.824	0.7112	0.494	0.807
Mof_H 	H 	0.0876	0.3838	0.5164	-0.076
Mof_H 	H 	0.2714	0.5995	0.6493	0.931
Mof_H 	H 	0.5603	0.4542	0.7921	-0.024
Mof_H 	H 	0.499	0.6135	0.2099	0.796
Mof_H 	H 	0.473	0.6752	0.9268	0.886
Mof_H 	H 	0.33	0.506	0.2172	0.82
Mof_H 	H 	0.5512	0.4899	0.1509	0.027
Mof_H 	H 	0.9159	0.9726	0.8141	-0.276
Mof_H 	H 	0.8831	0.6674	0.7739	0.033
Mof_H 	H 	0.7978	0.2516	0.3248	0.915
Mof_H 	H 	0.9005	0.6719	0.5498	0.931
Mof_H 	H 	0.1061	0.3379	0.5458	-0.032
Mof_H 	H 	0.7172	0.33	0.006	0.76
Mof_H 	H 	0.0859	0.2029	0.0798	0.911
Mof_H 	H 	0.1092	0.2261	0.8935	0.031
Mof_H 	H 	0.1162	0.7038	0.6326	-0.073
Mof_H 	H 	0.3883	0.7809	0.6762	-0.241
Mof_H 	H 	0.8926	0.1117	0.2879	-0.243
Mof_H 	H 	0.2739	0.8831	0.1674	0.029
Mof_H 	H 	0.3025	0.279	0.4379	-0.286
Mof_H 	H 	0.9202	0.6231	0.5061	0.934
Mof_H 	H 	0.2029	0.5798	0.5859	0.933
Mof_H 	H 	0.8281	0.2286	0.3779	0.931
Mof_H 	H 	0.7191	0.6074	0.3953	-0.242
Mof_H 	H 	0.3674	0.5712	0.9836	-0.082
Mof_H 	H 	0.8828	0.5787	0.0053	-0.033
Mof_H 	H 	0.9036	0.2891	0.2901	0.782
Mof_H 	H 	0.7666	0.5063	0.0907	0.776
Mof_H 	H 	0.5456	0.8446	0.0974	-0.094
Mof_H 	H 	0.7295	0.754	0.6337	0.788
Mof_H 	H 	0.8769	0.2971	0.383	0.934
Mof_H 	H 	0.17	0.3872	0.176	0.791
Mof_H 	H 	0.2496	0.0368	0.6102	-0.234
Mof_H 	H 	0.2261	0.3935	0.6092	0.029
Mof_H 	H 	0.2109	0.6145	0.501	0.781
Mof_H 	H 	0.7099	0.499	0.1135	0.736
Mof_H 	H 	0.6172	0.6225	0.6959	-0.035
Mof_H 	H 	0.701	0.2528	0.1554	-0.09
Mof_H 	H 	0.1589	0.221	0.5235	-0.296
Mof_H 	H 	0.6509	0.5512	0.9899	0.053
Mof_H 	H 	0.0498	0.9005	0.1719	0.901
Mof_H 	H 	0.839	0.4003	0.3491	0.028
Mof_H 	H 	0.7962	0.4124	0.4288	-0.073
Mof_H 	H 	0.7828	0.7888	0.6128	0.794
Mof_H 	H 	0.9544	0.0518	0.299	-0.092
Mof_H 	H 	0.4418	0.0318	0.8434	0.02
Mof_H 	H 	0.1102	0.2496	0.5368	-0.308
Mof_H 	H 	0.6901	0.9646	0.5295	0.005
Mof_H 	H 	0.5909	0.4214	0.4091	-0.299
Mof_H 	H 	0.5053	0.8828	0.0787	-0.043
Mof_H 	H 	0.0368	0.1102	0.7496	-0.216
Mof_H 	H 	0.6752	0.4268	0.973	0.871
Mof_H 	H 	0.994	0.824	0.2112	0.778
Mof_H 	H 	0.0958	0.3663	0.1203	0.784
Mof_H 	H 	0.1337	0.7295	0.254	0.796
Mof_H 	H 	0.6145	0.001	0.7109	0.792
Mof_H 	H 	0.027	0.9538	0.2022	0.887
Mof_H 	H 	0.4765	0.1975	0.1354	-0.293
Mof_H 	H 	0.8782	0.2157	0.2291	0.707
Mof_H 	H 	0.9093	0.9156	0.1759	0.79
Mof_H 	H 	0.0997	0.4387	0.4488	0.028
Mof_H 	H 	0.1818	0.5909	0.0123	-0.42
Mof_H 	H 	0.9091	0.3182	0.8305	-0.292
Mof_H 	H 	0.617	0.4141	0.9939	0.889
Mof_H 	H 	0.5649	0.5354	0.2255	0.005
Mof_H 	H 	0.1128	0.7828	0.2888	0.802
Mof_H 	H 	0.9351	0.1606	0.9705	0.014
Mof_H 	H 	0.3305	0.9091	0.8182	-0.293
Mof_H 	H 	0.9937	0.2603	0.0844	0.802
Mof_H 	H 	0.4502	0.6221	0.8507	0.899
Mof_H 	H 	0.9433	0.8415	0.0274	-0.27
Mof_H 	H 	0.5907	0.7666	0.0063	0.769
Mof_H 	H 	0.4866	0.6491	0.2709	0.721
Mof_H 	H 	0.6554	0.701	0.7528	-0.087
Mof_H 	H 	0.2843	0.6169	0.8908	0.028
Mof_C 	C 	0.2129	0.6104	0.9971	1.556
Mof_C 	C 	0.6845	0.4586	0.3799	0.416
Mof_C 	C 	0.225	0.7031	0.6287	0.674
Mof_C 	C 	0.6442	0.9476	0.3536	2.359
Mof_C 	C 	0.2842	0.8975	0.7871	1.141
Mof_C 	C 	0.7074	0.3278	0.342	-0.185
Mof_C 	C 	0.0695	0.8702	0.6549	-0.062
Mof_C 	C 	0.347	0.4456	0.71	0.005
Mof_C 	C 	0.6485	0.5725	0.2142	0.398
Mof_C 	C 	0.8384	0.7041	0.4595	-2.765
Mof_C 	C 	0.8536	0.6442	0.4476	2.341
Mof_C 	C 	0.0076	0.1001	0.8475	0.234
Mof_C 	C 	0.2867	0.7089	0.6322	-1.238
Mof_C 	C 	0.6619	0.0135	0.4122	-3.082
Mof_C 	C 	0.4424	0.7791	0.0319	-0.199
Mof_C 	C 	0.2445	0.6525	0.1564	0.217
Mof_C 	C 	0.6484	0.3987	0.9865	-2.897
Mof_C 	C 	0.8475	0.592	0.0039	0.155
Mof_C 	C 	0.0881	0.8436	0.4961	0.181
Mof_C 	C 	0.2497	0.5878	0.6013	-3.058
Mof_C 	C 	0.6729	0.3268	0.1025	0.476
Mof_C 	C 	0.006	0.8665	0.7197	-0.092
Mof_C 	C 	0.9256	0.7969	0.0219	0.601
Mof_C 	C 	0.9656	0.8801	0.6537	-0.09
Mof_C 	C 	0.1993	0.7847	0.1298	-0.066
Mof_C 	C 	0.7736	0.6199	0.5855	-0.093
Mof_C 	C 	0.3475	0.0076	0.6001	0.249
Mof_C 	C 	0.0998	0.8318	0.674	0.014
Mof_C 	C 	0.5725	0.7142	0.1485	0.397
Mof_C 	C 	0.1011	0.0714	0.3717	0.024
Mof_C 	C 	0.3713	0.5744	0.0963	0.725
Mof_C 	C 	0.3872	0.963	0.682	0.218
Mof_C 	C 	0.0657	0.424	0.3515	0.397
Mof_C 	C 	0.9847	0.0698	0.1851	-0.119
Mof_C 	C 	0.6025	0.3867	0.3896	1.158
Mof_C 	C 	0.6578	0.4258	0.826	0.004
Mof_C 	C 	0.5524	0.6966	0.906	2.241
Mof_C 	C 	0.0414	0.2259	0.4213	0.419
Mof_C 	C 	0.406	0.5524	0.1966	2.385
Mof_C 	C 	0.1537	0.9656	0.3801	-0.085
Mof_C 	C 	0.5814	0.1328	0.284	0.037
Mof_C 	C 	0.2754	0.1214	0.475	-0.01
Mof_C 	C 	0.5778	0.9233	0.2911	-1.25
Mof_C 	C 	0.9213	0.0414	0.7259	0.364
Mof_C 	C 	0.0142	0.1722	0.8796	-0.18
Mof_C 	C 	0.8318	0.174	0.5998	0.015
Mof_C 	C 	0.0714	0.8717	0.6011	0.014
Mof_C 	C 	0.5819	0.069	0.2265	-0.007
Mof_C 	C 	0.3401	0.5948	0.0571	-0.672
Mof_C 	C 	0.8422	0.6682	0.768	0.006
Mof_C 	C 	0.6335	0.1395	0.3532	-0.092
Mof_C 	C 	0.9961	0.0881	0.3436	0.202
Mof_C 	C 	0.2259	0.9213	0.5414	0.378
Mof_C 	C 	0.2683	0.7672	0.8707	0.003
Mof_C 	C 	0.1599	0.217	0.2547	-0.602
Mof_C 	C 	0.9186	0.2026	0.5514	0.036
Mof_C 	C 	0.7547	0.1599	0.717	-0.615
Mof_C 	C 	0.9595	0.8384	0.2041	-2.669
Mof_C 	C 	0.6283	0.1997	0.2294	0.017
Mof_C 	C 	0.0514	0.9186	0.7026	0.036
Mof_C 	C 	0.3463	0.7264	0.8119	-0.093
Mof_C 	C 	0.7153	0.4146	0.8451	-0.048
Mof_C 	C 	0.4703	0.3989	0.2706	0.018
Mof_C 	C 	0.7926	0.1346	0.6204	-0.185
Mof_C 	C 	0.3847	0.7996	0.3149	-0.132
Mof_C 	C 	0.6468	0.2863	0.7803	-0.089
Mof_C 	C 	0.719	0.537	0.9242	0.203
Mof_C 	C 	0.9037	0.9781	0.775	0.634
Mof_C 	C 	0.6682	0.268	0.3422	0.016
Mof_C 	C 	0.7672	0.3707	0.7683	0.002
Mof_C 	C 	0.4105	0.9681	0.7472	-0.174
Mof_C 	C 	0.4258	0.326	0.1578	0.014
Mof_C 	C 	0.6298	0.1993	0.2847	-0.063
Mof_C 	C 	0.7453	0.4623	0.4052	-0.612
Mof_C 	C 	0.431	0.5129	0.6575	-0.005
Mof_C 	C 	0.7004	0.5851	0.0153	-0.185
Mof_C 	C 	0.1001	0.3475	0.5076	0.279
Mof_C 	C 	0.0029	0.1133	0.7158	0.866
Mof_C 	C 	0.2317	0.1024	0.4989	-0.003
Mof_C 	C 	0.8975	0.2871	0.7842	1.14
Mof_C 	C 	0.625	0.0189	0.7587	-2.879
Mof_C 	C 	0.5767	0.6545	0.8678	-1.189
Mof_C 	C 	0.8558	0.2094	0.3034	2.343
Mof_C 	C 	0.1549	0.0695	0.3702	-0.066
Mof_C 	C 	0.7294	0.6283	0.6997	0.01
Mof_C 	C 	0.7735	0.3425	0.8554	-0.002
Mof_C 	C 	0.1287	0.225	0.2031	0.66
Mof_C 	C 	0.2644	0.0544	0.4014	0.007
Mof_C 	C 	0.3278	0.842	0.2074	-0.188
Mof_C 	C 	0.0377	0.283	0.4429	-0.621
Mof_C 	C 	0.1601	0.1525	0.2526	0.269
Mof_C 	C 	0.5851	0.5153	0.2004	-0.13
Mof_C 	C 	0.1732	0.3461	0.2757	0.5
Mof_C 	C 	0.3488	0.2974	0.216	0.037
Mof_C 	C 	0.8799	0.6845	0.9586	0.392
Mof_C 	C 	0.153	0.863	0.0986	0.005
Mof_C 	C 	0.0758	0.1128	0.2948	0.223
Mof_C 	C 	0.6996	0.346	0.7246	-0.01
Mof_C 	C 	0.7706	0.4703	0.8989	-0.003
Mof_C 	C 	0.7446	0.3789	0.0405	-2.622
Mof_C 	C 	0.2587	0.625	0.5189	-2.839
Mof_C 	C 	0.0854	0.3007	0.9305	-0.053
Mof_C 	C 	0.1153	0.4302	0.4149	-0.131
Mof_C 	C 	0.7328	0.5011	0.6035	0.001
Mof_C 	C 	0.7052	0.318	0.281	0.219
Mof_C 	C 	0.3789	0.5405	0.2446	-2.811
Mof_C 	C 	0.6564	0.2445	0.1525	0.185
Mof_C 	C 	0.0189	0.2587	0.125	-2.782
Mof_C 	C 	0.1464	0.8004	0.025	-0.011
Mof_C 	C 	0.9014	0.2644	0.5544	0.007
Mof_C 	C 	0.8515	0.0657	0.924	0.399
Mof_C 	C 	0.8155	0.1954	0.7741	0.415
Mof_C 	C 	0.9476	0.8536	0.1442	2.248
Mof_C 	C 	0.1204	0.7926	0.6346	-0.184
Mof_C 	C 	0.5878	0.1013	0.7497	-3.09
Mof_C 	C 	0.283	0.9429	0.5377	-0.58
Mof_C 	C 	0.1343	0.7554	0.2959	-2.745
Mof_C 	C 	0.7398	0.4811	0.1061	-2.692
Mof_C 	C 	0.8753	0.6663	0.0096	-0.449
Mof_C 	C 	0.3976	0.1293	0.8965	0.004
Mof_C 	C 	0.2741	0.8155	0.6954	0.413
Mof_C 	C 	0.6616	0.1211	0.8657	-2.801
Mof_C 	C 	0.6663	0.5096	0.3753	-0.464
Mof_C 	C 	0.5319	0.4424	0.2791	-0.181
Mof_C 	C 	0.7265	0.5819	0.569	-0.005
Mof_C 	C 	0.6104	0.4971	0.7129	1.142
Mof_C 	C 	0.9181	0.1446	0.4871	-0.004
Mof_C 	C 	0.174	0.0998	0.3318	0.018
Mof_C 	C 	0.424	0.8515	0.5657	0.398
Mof_C 	C 	0.8532	0.6335	0.6395	-0.09
Mof_C 	C 	0.4002	0.0742	0.732	0.01
Mof_C 	C 	0.9149	0.1153	0.9302	-0.137
Mof_C 	C 	0.1024	0.9989	0.7317	-0.002
Mof_C 	C 	0.21	0.347	0.9456	0.002
Mof_C 	C 	0.6417	0.9275	0.576	0.395
Mof_C 	C 	0.2246	0.6996	0.846	-0.007
Mof_C 	C 	0.318	0.781	0.2052	0.225
Mof_C 	C 	0.8975	0.7243	0.0704	0.473
Mof_C 	C 	0.6633	0.2528	0.2209	-0.179
Mof_C 	C 	0.2094	0.8034	0.3558	2.32
Mof_C 	C 	0.1322	0.2867	0.2089	-1.216
Mof_C 	C 	0.525	0.1464	0.3004	-0.011
Mof_C 	C 	0.8665	0.2197	0.506	-0.091
Mof_C 	C 	0.8271	0.9296	0.6539	0.488
Mof_C 	C 	0.7911	0.5778	0.4233	-1.24
Mof_C 	C 	0.4623	0.9052	0.2453	-0.617
Mof_C 	C 	0.1525	0.7526	0.6601	0.27
Mof_C 	C 	0.1722	0.3796	0.5142	-0.187
Mof_C 	C 	0.8583	0.4343	0.2858	0.397
Mof_C 	C 	0.3707	0.2683	0.2672	0.001
Mof_C 	C 	0.4119	0.908	0.7555	0.188
Mof_C 	C 	0.2197	0.006	0.3665	-0.097
Mof_C 	C 	0.6851	0.9847	0.5698	-0.125
Mof_C 	C 	0.4486	0.1512	0.8672	0.033
Mof_C 	C 	0.8657	0.9904	0.6567	-0.44
Mof_C 	C 	0.8034	0.8558	0.7094	2.299
Mof_C 	C 	0.8337	0.209	0.8433	-0.462
Mof_C 	C 	0.5405	0.7446	0.8789	-2.663
Mof_C 	C 	0.4242	0.719	0.037	0.221
Mof_C 	C 	0.6025	0.6729	0.8268	0.479
Mof_C 	C 	0.537	0.4242	0.219	0.218
Mof_C 	C 	0.4145	0.5344	0.6881	-0.092
Mof_C 	C 	0.3554	0.7735	0.8425	-0.002
Mof_C 	C 	0.1293	0.3965	0.8976	0.007
Mof_C 	C 	0.2974	0.716	0.8488	0.038
Mof_C 	C 	0.2528	0.7209	0.1633	-0.187
Mof_C 	C 	0.2356	0.637	0.79	0.006
Mof_C 	C 	0.4146	0.3451	0.2153	-0.063
Mof_C 	C 	0.0895	0.8367	0.5576	-0.178
Mof_C 	C 	0.842	0.7074	0.8278	-0.17
Mof_C 	C 	0.6199	0.0855	0.2736	-0.094
Mof_C 	C 	0.232	0.4002	0.5742	0.018
Mof_C 	C 	0.5986	0.153	0.363	0.005
Mof_C 	C 	0.5948	0.5571	0.8401	-0.583
Mof_C 	C 	0.9681	0.2472	0.9105	-0.163
Mof_C 	C 	0.8516	0.8381	0.7503	-3.014
Mof_C 	C 	0.326	0.6578	0.9258	0.028
Mof_C 	C 	0.9989	0.2317	0.6024	0.001
Mof_C 	C 	0.6545	0.3678	0.0767	-1.18
Mof_C 	C 	0.1575	0.431	0.0129	-0.004
Mof_C 	C 	0.8896	0.6025	0.8867	1.084
Mof_C 	C 	0.4286	0.0297	0.8003	0.008
Mof_C 	C 	0.1881	0.4145	0.0344	-0.104
Mof_C 	C 	0.2863	0.2803	0.1468	-0.091
Mof_C 	C 	0.5925	0.4924	0.8399	0.248
Mof_C 	C 	0.7264	0.3119	0.8463	-0.091
Mof_C 	C 	0.076	0.6417	0.4275	0.398
Mof_C 	C 	0.5153	0.7004	0.0851	-0.131
Mof_C 	C 	0.0698	0.6851	0.4847	-0.131
Mof_C 	C 	0.8801	0.1537	0.4656	-0.094
Mof_C 	C 	0.3268	0.6025	0.1729	0.544
Mof_C 	C 	0.8381	0.2503	0.3516	-3.061
Mof_C 	C 	0.5787	0.3046	0.1201	0.401
Mof_C 	C 	0.5219	0.9256	0.2969	0.684
Mof_C 	C 	0.716	0.3488	0.7974	0.032
Mof_C 	C 	0.5039	0.8475	0.092	0.206
Mof_C 	C 	0.784	0.5814	0.6328	0.034
Mof_C 	C 	0.1567	0.8657	0.4904	-0.447
Mof_C 	C 	0.1035	0.7328	0.0011	-0
Mof_C 	C 	0.0576	0.0895	0.3367	-0.188
Mof_C 	C 	0.4343	0.7858	0.3583	0.398
Mof_C 	C 	0.9233	0.7911	0.0778	-1.183
Mof_C 	C 	0.1133	0.2158	0.5029	1.183
Mof_C 	C 	0.781	0.7052	0.818	0.211
Mof_C 	C 	0.8663	0.2413	0.2602	-2.841
Mof_C 	C 	0.4811	0.6061	0.2398	-2.888
Mof_C 	C 	0.4586	0.8799	0.1845	0.421
Mof_C 	C 	0.1395	0.8532	0.1335	-0.088
Mof_C 	C 	0.268	0.8422	0.1682	0.021
Mof_C 	C 	0.7996	0.8149	0.8847	-0.131
Mof_C 	C 	0.8939	0.875	0.1337	-2.732
Mof_C 	C 	0.275	0.9037	0.4781	0.651
Mof_C 	C 	0.3989	0.7706	0.9703	0.044
Mof_C 	C 	0.5344	0.1881	0.9145	-0.09
Mof_C 	C 	0.5129	0.1575	0.931	-0
Mof_C 	C 	0.9052	0.7453	0.9623	-0.555
Mof_C 	C 	0.3678	0.5767	0.1545	-1.28
Mof_C 	C 	0.3003	0.4286	0.5297	0.018
Mof_C 	C 	0.875	0.6337	0.3939	-2.84
Mof_C 	C 	0.2555	0.4119	0.408	0.189
Mof_C 	C 	0.7243	0.5704	0.3975	0.513
Mof_C 	C 	0.9275	0.076	0.1417	0.394
Mof_C 	C 	0.3654	0.658	0.9858	-0.186
Mof_C 	C 	0.7757	0.1732	0.8461	0.518
Mof_C 	C 	0.1328	0.784	0.0814	0.037
Mof_C 	C 	0.7041	0.9595	0.3384	-2.784
Mof_C 	C 	0.8455	0.9222	0.7133	-1.205
Mof_C 	C 	0.8004	0.525	0.6464	-0.01
Mof_C 	C 	0.2026	0.0514	0.4186	0.034
Mof_C 	C 	0.1954	0.2741	0.3155	0.409
Mof_C 	C 	0.863	0.5986	0.653	0.006
Mof_C 	C 	0.4865	0.6484	0.8987	-2.95
Mof_C 	C 	0.6464	0.094	0.7906	2.369
Mof_C 	C 	0.1214	0.975	0.7754	-0.009
Mof_C 	C 	0.5963	0.3713	0.0744	0.631
Mof_C 	C 	0.0135	0.9122	0.1619	-2.955
Mof_C 	C 	0.217	0.7547	0.6599	-0.609
Mof_C 	C 	0.1997	0.7294	0.1283	0.026
Mof_C 	C 	0.3786	0.154	0.8536	-0.012
Mof_C 	C 	0.2503	0.8516	0.3381	-3.037
Mof_C 	C 	0.7554	0.7959	0.6343	-2.722
Mof_C 	C 	0.7959	0.1343	0.2554	-2.765
Mof_C 	C 	0.209	0.3433	0.3337	-0.456
Mof_C 	C 	0.6061	0.7398	0.9811	-2.688
Mof_C 	C 	0.7948	0.0758	0.6128	0.218
Mof_C 	C 	0.3007	0.4305	0.5854	-0.063
Mof_C 	C 	0.7031	0.1287	0.725	0.684
Mof_C 	C 	0.6343	0.291	0.1247	-0.447
Mof_C 	C 	0.8717	0.1011	0.5714	0.014
Mof_C 	C 	0.6525	0.6564	0.7445	0.179
Mof_C 	C 	0.291	0.6247	0.1343	-0.494
Mof_C 	C 	0.2472	0.4105	0.4681	-0.18
Mof_C 	C 	0.975	0.2754	0.6214	-0.009
Mof_C 	C 	0.5704	0.8975	0.2243	0.521
Mof_C 	C 	0.7858	0.8583	0.9343	0.399
Mof_C 	C 	0.3657	0.6616	0.6211	-2.766
Mof_C 	C 	0.0544	0.9014	0.7644	0.007
Mof_C 	C 	0.3433	0.8337	0.709	-0.461
Mof_C 	C 	0.3119	0.3463	0.2264	-0.094
Mof_C 	C 	0.0855	0.7736	0.1199	-0.091
Mof_C 	C 	0.7474	0.3999	0.4075	0.272
Mof_C 	C 	0.3399	0.5925	0.9924	0.318
Mof_C 	C 	0.2137	0.3605	0.994	-0.079
Mof_C 	C 	0.3987	0.4865	0.1484	-3.105
Mof_C 	C 	0.963	0.182	0.8872	0.218
Mof_C 	C 	0.1346	0.1204	0.2926	-0.186
Mof_C 	C 	0.592	0.5039	0.3475	0.194
Mof_C 	C 	0.4305	0.0854	0.8007	-0.059
Mof_C 	C 	0.2158	0.0029	0.6133	0.928
Mof_C 	C 	0.7969	0.5219	0.4256	0.675
Mof_C 	C 	0.3796	0.0142	0.6722	-0.183
Mof_C 	C 	0.7791	0.5319	0.9424	-0.148
Mof_C 	C 	0.3425	0.3554	0.2735	-0.005
Mof_C 	C 	0.4858	0.3654	0.158	-0.181
Mof_C 	C 	0.1539	0.8271	0.4296	0.498
Mof_C 	C 	0.9904	0.1567	0.3657	-0.464
Mof_C 	C 	0.4971	0.2129	0.1104	1.168
Mof_C 	C 	0.8436	0.9961	0.5881	0.178
Mof_C 	C 	0.2413	0.7602	0.3663	-2.817
Mof_C 	C 	0.2133	0.8455	0.4222	-1.22
Mof_C 	C 	0.3451	0.7153	0.9146	-0.073
Mof_C 	C 	0.908	0.2555	0.9119	0.181
Mof_C 	C 	0.3867	0.8896	0.1025	1.158
Mof_C 	C 	0.1446	0.9871	0.4181	-0.004
Mof_C 	C 	0.2871	0.2842	0.3975	1.148
Mof_C 	C 	0.069	0.7265	0.0819	-0.007
Mof_C 	C 	0.494	0.2137	0.8605	-0.087
Mof_C 	C 	0.7142	0.6485	0.0725	0.414
Mof_C 	C 	0.1128	0.7948	0.5758	0.217
Mof_C 	C 	0.0297	0.3003	0.9286	-0.001
Mof_C 	C 	0.7526	0.1601	0.6525	0.274
Mof_C 	C 	0.3672	0.4486	0.6512	0.036
Mof_C 	C 	0.9122	0.6619	0.5135	-3.06
Mof_C 	C 	0.4302	0.9149	0.6153	-0.132
Mof_C 	C 	0.9429	0.0377	0.783	-0.563
Mof_C 	C 	0.4924	0.3399	0.0925	0.259
Mof_C 	C 	0.8367	0.0576	0.5895	-0.179
Mof_C 	C 	0.6337	0.8939	0.375	-2.86
Mof_C 	C 	0.182	0.3872	0.463	0.22
Mof_C 	C 	0.4456	0.21	0.847	0.006
Mof_C 	C 	0.3536	0.3786	0.654	-0.01
Mof_C 	C 	0.3046	0.6201	0.0787	0.485
Mof_C 	C 	0.0742	0.232	0.9002	0.007
Mof_C 	C 	0.9222	0.2133	0.3455	-1.244
Mof_C 	C 	0.3605	0.494	0.7137	-0.089
Mof_C 	C 	0.2906	0.6464	0.594	2.34
Mof_C 	C 	0.29	0.2356	0.137	0.003
Mof_C 	C 	0.7089	0.1322	0.7867	-1.251
Mof_C 	C 	0.8149	0.3847	0.2996	-0.131
Mof_C 	C 	0.2803	0.6468	0.7863	-0.09
Mof_C 	C 	0.9871	0.9181	0.6446	-0.009
Mof_C 	C 	0.1512	0.3672	0.9486	0.038
Mof_C 	C 	0.6247	0.6343	0.791	-0.445
Mof_C 	C 	0.154	0.3536	0.8786	-0.013
Mof_C 	C 	0.3461	0.7757	0.6732	0.512
Mof_C 	C 	0.9075	0.7474	0.8999	0.234
Mof_C 	C 	0.658	0.4858	0.8654	-0.168
Mof_C 	C 	0.346	0.2246	0.1996	-0.012
Mof_C 	C 	0.637	0.29	0.7356	0.005
Mof_C 	C 	0.1013	0.2497	0.0878	-2.996
Mof_C 	C 	0.3999	0.9075	0.2474	0.277
Mof_C 	C 	0.9781	0.275	0.4037	0.686
Mof_C 	C 	0.5096	0.8753	0.1663	-0.47
Mof_C 	C 	0.5744	0.5963	0.8713	0.633
Mof_C 	C 	0.094	0.2906	0.1464	2.292
Mof_C 	C 	0.5571	0.3401	0.0948	-0.587
Mof_C 	C 	0.5011	0.1035	0.2328	-0.001
Mof_C 	C 	0.7847	0.6298	0.6993	-0.056
Mof_C 	C 	0.7602	0.8663	0.7413	-2.795
Mof_C 	C 	0.6966	0.406	0.0524	2.209
Mof_C 	C 	0.7209	0.6633	0.7528	-0.172
Mof_C 	C 	0.6201	0.5787	0.8046	0.395
Mof_C 	C 	0.9296	0.1539	0.3271	0.517
Mof_C 	C 	0.1211	0.3657	0.1616	-2.712
Mof_C 	C 	0.3965	0.3976	0.6293	0.001
Mof_C 	C 	0.8702	0.1549	0.5695	-0.062
Mof_O 	O 	0.2335	0.2761	0.38	-0.659
Mof_O 	O 	0.59653	0.46728	0.22001	-0.555
Mof_O 	O 	0.2665	0.6465	0.0426	-0.809
Mof_O 	O 	0.464	0.7575	0.33312	-0.76
Mof_O 	O 	0.37075	0.90347	0.62348	-0.553
Mof_O 	O 	0.12348	0.37075	0.40347	-0.554
Mof_O 	O 	0.06232	0.47828	0.36074	-0.525
Mof_O 	O 	0.43768	0.79842	0.41596	-0.525
Mof_O 	O 	0.02172	0.58404	0.38246	-0.525
Mof_O 	O 	0.2761	0.88	0.7335	-0.658
Mof_O 	O 	0.58404	0.88246	0.52172	-0.525
Mof_O 	O 	0.1039	0.2239	0.4574	-0.672
Mof_O 	O 	0.13088	0.66688	0.42438	-0.758
Mof_O 	O 	0.83312	0.464	0.2575	-0.757
Mof_O 	O 	0.7575	0.83312	0.964	-0.756
Mof_O 	O 	0.92438	0.13088	0.16688	-0.757
Mof_O 	O 	0.63926	0.61754	0.20158	-0.526
Mof_O 	O 	0.66688	0.92438	0.63088	-0.757
Mof_O 	O 	0.7425	0.7065	0.07562	-0.77
Mof_O 	O 	0.61754	0.70158	0.13926	-0.526
Mof_O 	O 	0.57562	0.7425	0.2065	-0.759
Mof_O 	O 	0.9574	0.1039	0.7239	-0.556
Mof_O 	O 	0.7065	0.57562	0.2425	-0.758
Mof_O 	O 	0.7935	0.036	0.86912	-0.757
Mof_O 	O 	0.75273	0.03272	0.62925	-0.556
Mof_O 	O 	0.62	0.3961	0.3535	-0.663
Mof_O 	O 	0.88246	0.02172	0.08404	-0.528
Mof_O 	O 	0.3961	0.8535	0.12	-0.663
Mof_O 	O 	0.8535	0.62	0.8961	-0.634
Mof_O 	O 	0.36912	0.7935	0.536	-0.758
Mof_O 	O 	0.91596	0.43768	0.29842	-0.524
Mof_O 	O 	0.036	0.36912	0.2935	-0.758
Mof_O 	O 	0.77999	0.74727	0.87652	-0.557
Mof_O 	O 	0.6465	0.5426	0.7665	-0.656
Mof_O 	O 	0.46728	0.72001	0.09653	-0.555
Mof_O 	O 	0.37652	0.77999	0.24727	-0.554
Mof_O 	O 	0.79842	0.91596	0.93768	-0.52
Mof_O 	O 	0.12925	0.75273	0.53272	-0.554
Mof_O 	O 	0.86074	0.06232	0.97828	-0.517
Mof_O 	O 	0.03272	0.12925	0.25273	-0.558
Mof_O 	O 	0.88	0.2335	0.7761	-0.658
Mof_O 	O 	0.90347	0.12348	0.87075	-0.551
Mof_O 	O 	0.5426	0.2665	0.1465	-0.664
Mof_O 	O 	0.74727	0.37652	0.27999	-0.555
Mof_O 	O 	0.72001	0.59653	0.96728	-0.538
Mof_O 	O 	0.47828	0.86074	0.56232	-0.525
Mof_O 	O 	0.2239	0.9574	0.6039	-0.58
Mof_O 	O 	0.70158	0.63926	0.11754	-0.53
_end
