data_functionalizedCrystal
_audit_creation_method	'EQeq! by Chris Wilmer'
_symmetry_space_group_name_H-M	'P1'
_symmetry_Int_Tables_number	1
_symmetry_cell_setting	triclinic
loop_
_symmetry_equiv_pos_as_xyz
  x,y,z
_cell_length_a	26.888
_cell_length_b	26.888
_cell_length_c	7.2385
_cell_angle_alpha	90
_cell_angle_beta	90
_cell_angle_gamma	120
loop_
_atom_site_label
_atom_site_type_symbol
_atom_site_fract_x
_atom_site_fract_y
_atom_site_fract_z
_atom_site_charge
Mof_Cd	Cd	0.72428	0.70456	0.80232	0.462
Mof_C 	C 	0.7554	0.6813	0.4138	0.337
Mof_C 	C 	0.7931	0.6718	0.2792	-0.105
Mof_C 	C 	0.8453	0.6796	0.3485	-0.104
Mof_H 	H 	0.85297	0.68827	0.47328	0.097
Mof_C 	C 	0.886	0.6752	0.2445	0.181
Mof_O 	O 	0.70842	0.6757	0.3592	-0.298
Mof_O 	O 	0.7744	0.6976	0.5719	-0.298
Mof_O 	O 	0.93478	0.6855	0.3286	-0.279
Mof_Cd	Cd	0.39095	0.03789	0.13565	0.463
Mof_C 	C 	0.42207	0.01463	0.74713	0.338
Mof_C 	C 	0.45977	0.00513	0.61253	-0.104
Mof_C 	C 	0.51197	0.01293	0.68183	-0.103
Mof_H 	H 	0.51964	0.0216	0.80661	0.098
Mof_C 	C 	0.55267	0.00853	0.57783	0.182
Mof_O 	O 	0.37509	0.00903	0.69253	-0.297
Mof_O 	O 	0.44107	0.03093	0.90523	-0.297
Mof_O 	O 	0.60145	0.01883	0.66193	-0.279
Mof_Cd	Cd	0.05761	0.37123	0.46899	0.463
Mof_C 	C 	0.08873	0.34797	0.08047	0.338
Mof_C 	C 	0.12643	0.33847	0.94587	-0.105
Mof_C 	C 	0.17863	0.34627	0.01517	-0.102
Mof_H 	H 	0.1863	0.35494	0.13995	0.097
Mof_C 	C 	0.21933	0.34187	0.91117	0.181
Mof_O 	O 	0.04175	0.34237	0.02587	-0.297
Mof_O 	O 	0.10773	0.36427	0.23857	-0.297
Mof_O 	O 	0.26811	0.35217	0.99527	-0.279
Mof_Cd	Cd	0.29544	0.01972	0.80232	0.463
Mof_C 	C 	0.3187	0.0741	0.4138	0.338
Mof_C 	C 	0.3282	0.1213	0.2792	-0.104
Mof_C 	C 	0.3204	0.1657	0.3485	-0.103
Mof_H 	H 	0.31173	0.1647	0.47328	0.098
Mof_C 	C 	0.3248	0.2108	0.2445	0.182
Mof_O 	O 	0.3243	0.03272	0.3592	-0.297
Mof_O 	O 	0.3024	0.0768	0.5719	-0.297
Mof_O 	O 	0.3145	0.24928	0.3286	-0.279
Mof_Cd	Cd	0.96211	0.35305	0.13565	0.463
Mof_C 	C 	0.98537	0.40743	0.74713	0.338
Mof_C 	C 	0.99487	0.45463	0.61253	-0.104
Mof_C 	C 	0.98707	0.49903	0.68183	-0.103
Mof_H 	H 	0.9784	0.49803	0.80661	0.098
Mof_C 	C 	0.99147	0.54413	0.57783	0.182
Mof_O 	O 	0.99097	0.36605	0.69253	-0.297
Mof_O 	O 	0.96907	0.41013	0.90523	-0.297
Mof_O 	O 	0.98117	0.58261	0.66193	-0.279
Mof_Cd	Cd	0.62877	0.68639	0.46899	0.463
Mof_C 	C 	0.65203	0.74077	0.08047	0.338
Mof_C 	C 	0.66153	0.78797	0.94587	-0.105
Mof_C 	C 	0.65373	0.83237	0.01517	-0.102
Mof_H 	H 	0.64506	0.83137	0.13995	0.097
Mof_C 	C 	0.65813	0.87747	0.91117	0.181
Mof_O 	O 	0.65763	0.69939	0.02587	-0.297
Mof_O 	O 	0.63573	0.74347	0.23857	-0.297
Mof_O 	O 	0.64783	0.91595	0.99527	-0.279
Mof_Cd	Cd	0.98028	0.27572	0.80232	0.463
Mof_C 	C 	0.9259	0.2446	0.4138	0.338
Mof_C 	C 	0.8787	0.2069	0.2792	-0.104
Mof_C 	C 	0.8343	0.1547	0.3485	-0.103
Mof_H 	H 	0.8353	0.14703	0.47328	0.098
Mof_C 	C 	0.7892	0.114	0.2445	0.182
Mof_O 	O 	0.96728	0.29158	0.3592	-0.297
Mof_O 	O 	0.9232	0.2256	0.5719	-0.297
Mof_O 	O 	0.75072	0.06522	0.3286	-0.279
Mof_Cd	Cd	0.64695	0.60905	0.13565	0.463
Mof_C 	C 	0.59257	0.57793	0.74713	0.338
Mof_C 	C 	0.54537	0.54023	0.61253	-0.104
Mof_C 	C 	0.50097	0.48803	0.68183	-0.103
Mof_H 	H 	0.50197	0.48036	0.80661	0.098
Mof_C 	C 	0.45587	0.44733	0.57783	0.182
Mof_O 	O 	0.63395	0.62491	0.69253	-0.297
Mof_O 	O 	0.58987	0.55893	0.90523	-0.297
Mof_O 	O 	0.41739	0.39855	0.66193	-0.279
Mof_Cd	Cd	0.31361	0.94239	0.46899	0.463
Mof_C 	C 	0.25923	0.91127	0.08047	0.339
Mof_C 	C 	0.21203	0.87357	0.94587	-0.105
Mof_C 	C 	0.16763	0.82137	0.01517	-0.102
Mof_H 	H 	0.16863	0.8137	0.13995	0.097
Mof_C 	C 	0.12253	0.78067	0.91117	0.181
Mof_O 	O 	0.30061	0.95825	0.02587	-0.297
Mof_O 	O 	0.25653	0.89227	0.23857	-0.297
Mof_O 	O 	0.08405	0.73189	0.99527	-0.279
Mof_Cd	Cd	0.27572	0.29544	0.19768	0.463
Mof_C 	C 	0.2446	0.3187	0.5862	0.338
Mof_C 	C 	0.2069	0.3282	0.7208	-0.104
Mof_C 	C 	0.1547	0.3204	0.6515	-0.103
Mof_H 	H 	0.14703	0.31173	0.52672	0.098
Mof_C 	C 	0.114	0.3248	0.7555	0.182
Mof_O 	O 	0.29158	0.3243	0.6408	-0.297
Mof_O 	O 	0.2256	0.3024	0.4281	-0.297
Mof_O 	O 	0.06522	0.3145	0.6714	-0.279
Mof_Cd	Cd	0.94239	0.62877	0.53101	0.463
Mof_C 	C 	0.91127	0.65203	0.91953	0.338
Mof_C 	C 	0.87357	0.66153	0.05413	-0.105
Mof_C 	C 	0.82137	0.65373	0.98483	-0.102
Mof_H 	H 	0.8137	0.64506	0.86005	0.097
Mof_C 	C 	0.78067	0.65813	0.08883	0.181
Mof_O 	O 	0.95825	0.65763	0.97413	-0.297
Mof_O 	O 	0.89227	0.63573	0.76143	-0.297
Mof_O 	O 	0.73189	0.64783	0.00473	-0.279
Mof_Cd	Cd	0.60905	0.96211	0.86435	0.463
Mof_C 	C 	0.57793	0.98537	0.25287	0.338
Mof_C 	C 	0.54023	0.99487	0.38747	-0.104
Mof_C 	C 	0.48803	0.98707	0.31817	-0.103
Mof_H 	H 	0.48036	0.9784	0.19339	0.098
Mof_C 	C 	0.44733	0.99147	0.42217	0.182
Mof_O 	O 	0.62491	0.99097	0.30747	-0.297
Mof_O 	O 	0.55893	0.96907	0.09477	-0.297
Mof_O 	O 	0.39855	0.98117	0.33807	-0.279
Mof_Cd	Cd	0.70456	0.98028	0.19768	0.463
Mof_C 	C 	0.6813	0.9259	0.5862	0.338
Mof_C 	C 	0.6718	0.8787	0.7208	-0.104
Mof_C 	C 	0.6796	0.8343	0.6515	-0.103
Mof_H 	H 	0.68827	0.8353	0.52672	0.098
Mof_C 	C 	0.6752	0.7892	0.7555	0.182
Mof_O 	O 	0.6757	0.96728	0.6408	-0.297
Mof_O 	O 	0.6976	0.9232	0.4281	-0.297
Mof_O 	O 	0.6855	0.75072	0.6714	-0.279
Mof_Cd	Cd	0.37123	0.31361	0.53101	0.463
Mof_C 	C 	0.34797	0.25923	0.91953	0.338
Mof_C 	C 	0.33847	0.21203	0.05413	-0.105
Mof_C 	C 	0.34627	0.16763	0.98483	-0.102
Mof_H 	H 	0.35494	0.16863	0.86005	0.097
Mof_C 	C 	0.34187	0.12253	0.08883	0.181
Mof_O 	O 	0.34237	0.30061	0.97413	-0.297
Mof_O 	O 	0.36427	0.25653	0.76143	-0.297
Mof_O 	O 	0.35217	0.08405	0.00473	-0.279
Mof_Cd	Cd	0.03789	0.64695	0.86435	0.463
Mof_C 	C 	0.01463	0.59257	0.25287	0.338
Mof_C 	C 	0.00513	0.54537	0.38747	-0.104
Mof_C 	C 	0.01293	0.50097	0.31817	-0.103
Mof_H 	H 	0.0216	0.50197	0.19339	0.098
Mof_C 	C 	0.00853	0.45587	0.42217	0.182
Mof_O 	O 	0.00903	0.63395	0.30747	-0.297
Mof_O 	O 	0.03093	0.58987	0.09477	-0.297
Mof_O 	O 	0.01883	0.41739	0.33807	-0.279
Mof_Cd	Cd	0.01972	0.72428	0.19768	0.463
Mof_C 	C 	0.0741	0.7554	0.5862	0.338
Mof_C 	C 	0.1213	0.7931	0.7208	-0.104
Mof_C 	C 	0.1657	0.8453	0.6515	-0.103
Mof_H 	H 	0.1647	0.85297	0.52672	0.098
Mof_C 	C 	0.2108	0.886	0.7555	0.182
Mof_O 	O 	0.03272	0.70842	0.6408	-0.297
Mof_O 	O 	0.0768	0.7744	0.4281	-0.297
Mof_O 	O 	0.24928	0.93478	0.6714	-0.279
Mof_Cd	Cd	0.68639	0.05761	0.53101	0.463
Mof_C 	C 	0.74077	0.08873	0.91953	0.339
Mof_C 	C 	0.78797	0.12643	0.05413	-0.105
Mof_C 	C 	0.83237	0.17863	0.98483	-0.102
Mof_H 	H 	0.83137	0.1863	0.86005	0.097
Mof_C 	C 	0.87747	0.21933	0.08883	0.181
Mof_O 	O 	0.69939	0.04175	0.97413	-0.297
Mof_O 	O 	0.74347	0.10773	0.76143	-0.297
Mof_O 	O 	0.91595	0.26811	0.00473	-0.279
Mof_Cd	Cd	0.35305	0.39095	0.86435	0.463
Mof_C 	C 	0.40743	0.42207	0.25287	0.338
Mof_C 	C 	0.45463	0.45977	0.38747	-0.104
Mof_C 	C 	0.49903	0.51197	0.31817	-0.103
Mof_H 	H 	0.49803	0.51964	0.19339	0.098
Mof_C 	C 	0.54413	0.55267	0.42217	0.182
Mof_O 	O 	0.36605	0.37509	0.30747	-0.297
Mof_O 	O 	0.41013	0.44107	0.09477	-0.297
Mof_O 	O 	0.58261	0.60145	0.33807	-0.279
_end
