data_functionalizedCrystal
_audit_creation_method	'EQeq! by Chris Wilmer'
_symmetry_space_group_name_H-M	'P1'
_symmetry_Int_Tables_number	1
_symmetry_cell_setting	triclinic
loop_
_symmetry_equiv_pos_as_xyz
  x,y,z
_cell_length_a	8.8749
_cell_length_b	9.6418
_cell_length_c	17.1186
_cell_angle_alpha	95.0835
_cell_angle_beta	90
_cell_angle_gamma	117.402
loop_
_atom_site_label
_atom_site_type_symbol
_atom_site_fract_x
_atom_site_fract_y
_atom_site_fract_z
_atom_site_charge
Mof_Li	Li	0.3616	0	0.75	2.924
Mof_Li	Li	0.6384	-1.09822e-17	0.25	2.953
Mof_Mg	Mg	0.49107	0.13822	0.9342	1.441
Mof_Mg	Mg	0.35285	0.86178	0.5658	1.485
Mof_Mg	Mg	0.50893	0.86178	0.0658	1.485
Mof_Mg	Mg	0.64715	0.13822	0.4342	1.441
Mof_H 	H 	0.5295	0.5302	0.5247	0.26
Mof_H 	H 	0.4974	0.825	0.7254	-0.101
Mof_H 	H 	0.4387	0.386	0.6903	-0.087
Mof_H 	H 	0.4164	0.5666	0.9073	-0.062
Mof_H 	H 	0.9993	0.4698	0.9753	0.171
Mof_H 	H 	0.6724	0.175	0.7746	-0.314
Mof_H 	H 	0.0527	0.614	0.8097	-0.044
Mof_H 	H 	0.8498	0.4334	0.5927	-0.082
Mof_H 	H 	0.4705	0.4698	0.4753	0.235
Mof_H 	H 	0.5026	0.175	0.2746	-0.319
Mof_H 	H 	0.5613	0.614	0.3097	-0.07
Mof_H 	H 	0.5836	0.4334	0.0927	-0.078
Mof_H 	H 	0.0007	0.5302	0.0247	0.311
Mof_H 	H 	0.3276	0.825	0.2254	-0.107
Mof_H 	H 	0.9473	0.386	0.1903	-0.103
Mof_H 	H 	0.1502	0.5666	0.4073	-0.058
Mof_C 	C 	0.46788	0.85196	0.87824	0.646
Mof_C 	C 	0.45682	0.71664	0.82453	-0.363
Mof_C 	C 	0.47866	0.73172	0.74494	0.28
Mof_C 	C 	0.47259	0.60838	0.69434	-0.315
Mof_C 	C 	0.49379	0.62398	0.60833	0.519
Mof_C 	C 	0.44429	0.46938	0.7241	0.287
Mof_C 	C 	0.4243	0.4536	0.80319	-0.383
Mof_C 	C 	0.41115	0.3065	0.8331	0.7
Mof_C 	C 	0.43021	0.57702	0.85394	0.294
Mof_C 	C 	0.61592	0.14804	0.62176	0.731
Mof_C 	C 	0.74018	0.28336	0.67547	-0.52
Mof_C 	C 	0.74694	0.26828	0.75506	0.379
Mof_C 	C 	0.86421	0.39162	0.80566	-0.399
Mof_C 	C 	0.86981	0.37602	0.89167	0.506
Mof_C 	C 	0.97491	0.53062	0.7759	0.286
Mof_C 	C 	0.9707	0.5464	0.69681	-0.395
Mof_C 	C 	0.10465	0.6935	0.6669	0.692
Mof_C 	C 	0.85319	0.42298	0.64606	0.344
Mof_C 	C 	0.53212	0.14804	0.12176	0.735
Mof_C 	C 	0.54318	0.28336	0.17547	-0.525
Mof_C 	C 	0.52134	0.26828	0.25506	0.396
Mof_C 	C 	0.52741	0.39162	0.30566	-0.424
Mof_C 	C 	0.50621	0.37602	0.39167	0.553
Mof_C 	C 	0.55571	0.53062	0.2759	0.334
Mof_C 	C 	0.5757	0.5464	0.19681	-0.395
Mof_C 	C 	0.58885	0.6935	0.1669	0.685
Mof_C 	C 	0.56979	0.42298	0.14606	0.351
Mof_C 	C 	0.38408	0.85196	0.37824	0.65
Mof_C 	C 	0.25982	0.71664	0.32453	-0.368
Mof_C 	C 	0.25306	0.73172	0.24494	0.292
Mof_C 	C 	0.13579	0.60838	0.19434	-0.333
Mof_C 	C 	0.13019	0.62398	0.10833	0.551
Mof_C 	C 	0.02509	0.46938	0.2241	0.317
Mof_C 	C 	0.0293	0.4536	0.30319	-0.383
Mof_C 	C 	0.89535	0.3065	0.3331	0.692
Mof_C 	C 	0.14681	0.57702	0.35394	0.298
Mof_O 	O 	0.47777	0.84834	0.95054	-0.569
Mof_O 	O 	0.47107	0.96854	0.84815	-0.807
Mof_O 	O 	0.48631	0.73322	0.57832	-0.451
Mof_O 	O 	0.51892	0.51604	0.57131	-0.542
Mof_O 	O 	0.35821	0.18582	0.7853	-1.182
Mof_O 	O 	0.46165	0.3169	0.90253	-0.683
Mof_O 	O 	0.62943	0.15166	0.54946	-0.828
Mof_O 	O 	0.50253	0.03146	0.65185	-1.275
Mof_O 	O 	0.75309	0.26678	0.92168	-0.62
Mof_O 	O 	0.00288	0.48396	0.92869	-0.475
Mof_O 	O 	0.17239	0.81418	0.7147	-0.923
Mof_O 	O 	0.14475	0.6831	0.59747	-0.579
Mof_O 	O 	0.52223	0.15166	0.04946	-0.817
Mof_O 	O 	0.52893	0.03146	0.15185	-1.275
Mof_O 	O 	0.51369	0.26678	0.42168	-0.626
Mof_O 	O 	0.48108	0.48396	0.42869	-0.538
Mof_O 	O 	0.64179	0.81418	0.2147	-0.934
Mof_O 	O 	0.53835	0.6831	0.09747	-0.58
Mof_O 	O 	0.37057	0.84834	0.45054	-0.563
Mof_O 	O 	0.49747	0.96854	0.34815	-0.813
Mof_O 	O 	0.24691	0.73322	0.07832	-0.458
Mof_O 	O 	0.99712	0.51604	0.07131	-0.587
Mof_O 	O 	0.82761	0.18582	0.2853	-1.189
Mof_O 	O 	0.85525	0.3169	0.40253	-0.682
_end
