data_functionalizedCrystal
_audit_creation_method	'EQeq! by Chris Wilmer'
_symmetry_space_group_name_H-M	'P1'
_symmetry_Int_Tables_number	1
_symmetry_cell_setting	triclinic
loop_
_symmetry_equiv_pos_as_xyz
  x,y,z
_cell_length_a	9.1816
_cell_length_b	12.9851
_cell_length_c	18.4627
_cell_angle_alpha	72.0644
_cell_angle_beta	75.6022
_cell_angle_gamma	69.2958
loop_
_atom_site_label
_atom_site_type_symbol
_atom_site_fract_x
_atom_site_fract_y
_atom_site_fract_z
_atom_site_charge
Mof_Dy	Dy	0.23674	0.41071	0.50661	1.87
Mof_Dy	Dy	0.76326	0.58929	0.49339	1.87
Mof_Dy	Dy	0.84594	0.91071	0.00661	1.845
Mof_Dy	Dy	0.15406	0.08929	0.99339	1.845
Mof_Zn	Zn	0.77621	0.58862	0.83522	1.205
Mof_Zn	Zn	0.20005	0.91138	0.66478	1.205
Mof_Zn	Zn	0.79995	0.08862	0.33522	1.205
Mof_Zn	Zn	0.22379	0.41138	0.16478	1.205
Mof_H 	H 	0.7554	0.9544	0.6504	0.272
Mof_H 	H 	0.2446	0.0456	0.3496	0.272
Mof_H 	H 	0.4967	0.8189	0.8601	0.265
Mof_H 	H 	0.7139	0.4907	0.0639	0.286
Mof_H 	H 	0.4628	0.3058	0.963	0.144
Mof_H 	H 	0.3954	0.9225	0.8047	0.251
Mof_H 	H 	0.2684	0.8058	0.463	0.146
Mof_H 	H 	0.6398	0.4544	0.1504	0.27
Mof_H 	H 	0.2861	0.5093	0.9361	0.286
Mof_H 	H 	0.6762	0.1739	0.1423	0.253
Mof_H 	H 	0.8774	0.4225	0.3047	0.247
Mof_H 	H 	0.6319	0.3948	0.09	0.268
Mof_H 	H 	0.7315	0.9907	0.5639	0.289
Mof_H 	H 	0.0076	0.6739	0.6423	0.25
Mof_H 	H 	0.5372	0.6942	0.037	0.144
Mof_H 	H 	0.1167	0.1052	0.41	0.269
Mof_H 	H 	0.9924	0.3261	0.3577	0.25
Mof_H 	H 	0.1226	0.5775	0.6953	0.247
Mof_H 	H 	0.7316	0.1942	0.537	0.146
Mof_H 	H 	0.8833	0.8948	0.59	0.269
Mof_H 	H 	0.5033	0.1811	0.1399	0.265
Mof_H 	H 	0.8243	0.3189	0.3601	0.262
Mof_H 	H 	0.3602	0.5456	0.8496	0.27
Mof_H 	H 	0.2685	0.0093	0.4361	0.289
Mof_H 	H 	0.3238	0.8261	0.8577	0.253
Mof_H 	H 	0.3681	0.6052	0.91	0.268
Mof_H 	H 	0.1757	0.6811	0.6399	0.262
Mof_H 	H 	0.6046	0.0775	0.1953	0.251
Mof_C 	C 	0.063	0.6401	0.0799	0.416
Mof_C 	C 	0.629	0.4653	0.0979	-0.86
Mof_C 	C 	0.02388	0.71974	0.7337	0.31
Mof_C 	C 	0.1094	0.9474	0.4184	0.333
Mof_C 	C 	0.49751	0.73268	0.6613	-0.077
Mof_C 	C 	0.4182	0.8423	0.8275	-0.848
Mof_C 	C 	0.4752	0.5526	0.0816	0.331
Mof_C 	C 	0.371	0.5347	0.9021	-0.86
Mof_C 	C 	0.2449	0.4408	0.3156	0.366
Mof_C 	C 	0.7706	0.3615	0.9283	-0.092
Mof_C 	C 	0.9987	0.9408	0.8156	0.368
Mof_C 	C 	0.44425	0.7391	0.5906	0.369
Mof_C 	C 	0.8078	0.9653	0.5979	-0.863
Mof_C 	C 	0.55575	0.2609	0.4094	0.369
Mof_C 	C 	0.02136	0.15758	0.2005	-0.075
Mof_C 	C 	0.50249	0.26732	0.3387	-0.077
Mof_C 	C 	0.2515	0.8456	0.0198	0.362
Mof_C 	C 	0.97612	0.28026	0.2663	0.31
Mof_C 	C 	0.9396	0.8615	0.4283	-0.092
Mof_C 	C 	0.3045	0.7214	0.0426	-0.028
Mof_C 	C 	0.6955	0.2786	0.9574	-0.028
Mof_C 	C 	0.10851	0.23268	0.1613	-0.075
Mof_C 	C 	0.0685	0.7786	0.4574	-0.028
Mof_C 	C 	0.1169	0.6544	0.4802	0.364
Mof_C 	C 	0.937	0.3599	0.9201	0.416
Mof_C 	C 	0.37944	0.34242	0.2995	-0.078
Mof_C 	C 	0.0013	0.0592	0.1844	0.368
Mof_C 	C 	0.97864	0.84242	0.7995	-0.075
Mof_C 	C 	0.62056	0.65758	0.7005	-0.078
Mof_C 	C 	0.8906	0.0526	0.5816	0.333
Mof_C 	C 	0.77395	0.7609	0.9094	0.367
Mof_C 	C 	0.5818	0.1577	0.1725	-0.848
Mof_C 	C 	0.8831	0.3456	0.5198	0.364
Mof_C 	C 	0.7485	0.1544	0.9802	0.362
Mof_C 	C 	0.1922	0.0347	0.4021	-0.863
Mof_C 	C 	0.9315	0.2214	0.5426	-0.028
Mof_C 	C 	0.783	0.8599	0.4201	0.409
Mof_C 	C 	0.7551	0.5592	0.6844	0.366
Mof_C 	C 	0.5248	0.4474	0.9184	0.331
Mof_C 	C 	0.52268	0.21974	0.2337	0.316
Mof_C 	C 	0.89149	0.76732	0.8387	-0.075
Mof_C 	C 	0.912	0.3423	0.3275	-0.839
Mof_C 	C 	0.217	0.1401	0.5799	0.409
Mof_C 	C 	0.22605	0.2391	0.0906	0.367
Mof_C 	C 	0.088	0.6577	0.6725	-0.839
Mof_C 	C 	0.2294	0.6385	0.0717	-0.092
Mof_C 	C 	0.47732	0.78026	0.7663	0.316
Mof_C 	C 	0.0604	0.1385	0.5717	-0.092
Mof_N 	N 	0.03233	0.03534	0.5964	-0.271
Mof_N 	N 	0.93926	0.18909	0.26699	-0.291
Mof_N 	N 	0.45995	0.6635	0.0504	-0.242
Mof_N 	N 	0.60466	0.68909	0.76699	-0.29
Mof_N 	N 	0.59168	0.19074	0.2957	-0.282
Mof_N 	N 	0.40832	0.80926	0.7043	-0.282
Mof_N 	N 	0.39534	0.31091	0.23301	-0.29
Mof_N 	N 	0.96767	0.96466	0.4036	-0.271
Mof_N 	N 	0.33593	0.53534	0.0964	-0.27
Mof_N 	N 	0.06074	0.81091	0.73301	-0.291
Mof_N 	N 	0.82615	0.1635	0.5504	-0.243
Mof_N 	N 	0.17385	0.8365	0.4496	-0.243
Mof_N 	N 	0.07812	0.30926	0.2043	-0.28
Mof_N 	N 	0.92188	0.69074	0.7957	-0.28
Mof_N 	N 	0.66407	0.46466	0.9036	-0.27
Mof_N 	N 	0.54005	0.3365	0.9496	-0.242
Mof_O 	O 	0.03018	0.55224	0.1202	-0.441
Mof_O 	O 	0.26788	0.16585	0.05239	-0.495
Mof_O 	O 	0.28655	0.31934	0.07356	-0.433
Mof_O 	O 	0.74016	0.39795	0.51673	-0.47
Mof_O 	O 	0.65484	0.10205	0.98327	-0.468
Mof_O 	O 	0.26263	0.22604	0.5463	-0.543
Mof_O 	O 	0.83599	0.50357	0.73765	-0.421
Mof_O 	O 	0.96982	0.44776	0.8798	-0.441
Mof_O 	O 	0.71345	0.68066	0.92644	-0.433
Mof_O 	O 	0.21297	0.46685	0.37901	-0.499
Mof_O 	O 	0.78703	0.53315	0.62099	-0.499
Mof_O 	O 	0.51388	0.66585	0.55239	-0.503
Mof_O 	O 	0.29738	0.05224	0.6202	-0.442
Mof_O 	O 	0.88584	0.09973	0.99519	-0.584
Mof_O 	O 	0.94117	0.96685	0.87901	-0.491
Mof_O 	O 	0.03497	0.27396	0.9537	-0.547
Mof_O 	O 	0.25984	0.60205	0.48327	-0.47
Mof_O 	O 	0.32055	0.81934	0.57356	-0.434
Mof_O 	O 	0.16401	0.49643	0.26235	-0.421
Mof_O 	O 	0.73212	0.83415	0.94761	-0.495
Mof_O 	O 	0.67945	0.18066	0.42644	-0.434
Mof_O 	O 	0.34516	0.89795	0.01673	-0.468
Mof_O 	O 	0.96503	0.72604	0.0463	-0.547
Mof_O 	O 	0.07721	0.99643	0.76235	-0.423
Mof_O 	O 	0.01924	0.59973	0.49519	-0.59
Mof_O 	O 	0.73737	0.77396	0.4537	-0.543
Mof_O 	O 	0.98076	0.40027	0.50481	-0.59
Mof_O 	O 	0.05883	0.03315	0.12099	-0.491
Mof_O 	O 	0.11416	0.90027	0.00481	-0.584
Mof_O 	O 	0.48612	0.33415	0.44761	-0.503
Mof_O 	O 	0.70262	0.94776	0.3798	-0.442
Mof_O 	O 	0.92279	0.00357	0.23765	-0.423
_end
