data_functionalizedCrystal
_audit_creation_method	'EQeq! by Chris Wilmer'
_symmetry_space_group_name_H-M	'P1'
_symmetry_Int_Tables_number	1
_symmetry_cell_setting	triclinic
loop_
_symmetry_equiv_pos_as_xyz
  x,y,z
_cell_length_a	9.417
_cell_length_b	9.754
_cell_length_c	11.002
_cell_angle_alpha	80.51
_cell_angle_beta	71.64
_cell_angle_gamma	61.68
loop_
_atom_site_label
_atom_site_type_symbol
_atom_site_fract_x
_atom_site_fract_y
_atom_site_fract_z
_atom_site_charge
Mof_P 	P 	0.6289	0.2613	0.2849	0.564
Mof_P 	P 	0.01	0.597	0.1735	0.522
Mof_P 	P 	0.1228	0.1192	0.4185	0.523
Mof_O 	O 	0.1385	0.5479	0.2499	-0.432
Mof_O 	O 	0.1898	0.226	0.329	-0.401
Mof_O 	O 	0.4593	0.3197	0.2572	-0.37
Mof_O 	O 	0.5948	0.2876	0.425	-0.446
Mof_O 	O 	0.2497	0.9516	0.379	-0.406
Mof_O 	O 	0.9511	0.1559	0.4048	-0.429
Mof_O 	O 	0.7175	0.3526	0.2003	-0.41
Mof_O 	O 	0.9064	0.5043	0.2165	-0.401
Mof_O 	O 	0.1079	0.5651	0.032	-0.387
Mof_O 	O 	0.108	0.1477	0.5563	-0.434
Mof_O 	O 	0.7337	0.0897	0.2534	-0.399
Mof_O 	O 	0.8881	0.7711	0.1956	-0.401
Mof_Sn	Sn	0.224	0.3959	0.3973	0.819
Mof_Sn	Sn	0.7108	0.2752	0.5594	0.79
Mof_Sn	Sn	0.9721	0.2992	0.1284	0.887
Mof_Sn	Sn	0.9719	0.9133	0.253	0.81
Mof_P 	P 	0.3711	0.7387	0.7151	0.565
Mof_P 	P 	0.99	0.403	0.8265	0.523
Mof_P 	P 	0.8772	0.8808	0.5815	0.523
Mof_O 	O 	0.8615	0.4521	0.7501	-0.432
Mof_O 	O 	0.8102	0.774	0.671	-0.401
Mof_O 	O 	0.5407	0.6803	0.7428	-0.37
Mof_O 	O 	0.4052	0.7124	0.575	-0.446
Mof_O 	O 	0.7503	0.0484	0.621	-0.406
Mof_O 	O 	0.0489	0.8441	0.5952	-0.429
Mof_O 	O 	0.2825	0.6474	0.7997	-0.41
Mof_O 	O 	0.0936	0.4957	0.7835	-0.401
Mof_O 	O 	0.8921	0.4349	0.968	-0.387
Mof_O 	O 	0.892	0.8523	0.4437	-0.434
Mof_O 	O 	0.2663	0.9103	0.7466	-0.399
Mof_O 	O 	0.1119	0.2289	0.8044	-0.401
Mof_Sn	Sn	0.776	0.6041	0.6027	0.819
Mof_Sn	Sn	0.2892	0.7248	0.4406	0.79
Mof_Sn	Sn	0.0279	0.7008	0.8716	0.887
Mof_Sn	Sn	0.0281	0.0867	0.747	0.81
_end
