# CIF file generated by openbabel 3.1.0, see https://openbabel.org
data_I
_chemical_name_common 'image0'
_cell_length_a 10.0345
_cell_length_b 15.2852
_cell_length_c 18.421
_cell_angle_alpha 67.732
_cell_angle_beta 87.024
_cell_angle_gamma 77.361
_space_group_name_H-M_alt 'P 1'
_space_group_name_Hall 'P 1'
loop_
    _symmetry_equiv_pos_as_xyz
    x,y,z
loop_
    _atom_site_label
    _atom_site_type_symbol
    _atom_site_fract_x
    _atom_site_fract_y
    _atom_site_fract_z
    _atom_site_occupancy
    Co1      Co       0.86172    0.98040    0.43287    1.000
    O1       O        0.53960    0.00079    0.88880    1.000
    O2       O        0.86400    0.96848    0.54522    1.000
    O3       O        0.25450    0.01434    0.66944    1.000
    O4       O        0.95910    0.01956    0.62334    1.000
    O5       O        0.35450    0.00840    0.56305    1.000
    O6       O        0.60670    0.47660    0.76039    1.000
    N1       N        0.91840    0.82420    0.47102    1.000
    N2       N        0.82600    0.13600    0.38262    1.000
    O7       O        0.66720    0.44310    0.14981    1.000
    O8       O        0.10920    0.47180    0.66367    1.000
    N3       N        0.49820    0.35640    0.77143    1.000
    H1       H        0.45070    0.33680    0.74480    1.000
    C1       C        0.61420    0.99180    0.62218    1.000
    H2       H        0.60800    0.99100    0.57170    1.000
    N4       N        0.51770    0.15070    0.95772    1.000
    O9       O        0.75830    0.92560    0.89716    1.000
    N5       N        0.95740    0.61180    0.65204    1.000
    H3       H        0.90190    0.63980    0.67850    1.000
    C2       C        0.74050    0.98780    0.65305    1.000
    N6       N        0.84460    0.31370    0.18551    1.000
    H4       H        0.91530    0.28260    0.16920    1.000
    C3       C        0.75050    0.98160    0.72950    1.000
    H5       H        0.83610    0.97660    0.75090    1.000
    C4       C        0.49750    0.99710    0.66583    1.000
    C5       C        0.44060    0.48680    0.52020    1.000
    C6       C        0.86370    0.99180    0.60321    1.000
    C7       C        0.85280    0.48300    0.88690    1.000
    C8       C        0.63580    0.98260    0.77510    1.000
    C9       C        0.43860    0.46120    0.60280    1.000
    H6       H        0.36110    0.44280    0.63000    1.000
    C10      C        0.54720    0.46300    0.64310    1.000
    C11      C        0.91860    0.76420    0.54620    1.000
    H7       H        0.88720    0.79120    0.58370    1.000
    C12      C        0.55270    0.43460    0.73060    1.000
    C13      C        0.80630    0.42160    0.04770    1.000
    C14      C        0.36120    0.00750    0.63093    1.000
    C15      C        0.70260    0.48460    0.99250    1.000
    H8       H        0.61690    0.50720    0.00970    1.000
    C16      C        0.96240    0.66520    0.57170    1.000
    C17      C        0.50830    0.99420    0.74190    1.000
    H9       H        0.42930    0.00020    0.77090    1.000
    C18      C        0.72510    0.51300    0.91460    1.000
    H10      H        0.65370    0.55350    0.87840    1.000
    C19      C        0.84840    0.17920    0.30650    1.000
    H11      H        0.88820    0.13980    0.27900    1.000
    C20      C        0.87900    0.51370    0.80610    1.000
    H12      H        0.80830    0.55440    0.76950    1.000
    C21      C        0.64650    0.96960    0.85980    1.000
    C22      C        0.66940    0.51640    0.52320    1.000
    H13      H        0.74780    0.53470    0.49710    1.000
    C23      C        0.77250    0.19340    0.42160    1.000
    H14      H        0.75660    0.16470    0.47530    1.000
    C24      C        0.50230    0.20840    0.88180    1.000
    H15      H        0.48360    0.18220    0.84580    1.000
    C25      C        0.95950    0.42110    0.94210    1.000
    C26      C        0.51240    0.30480    0.85300    1.000
    C27      C        0.81690    0.27770    0.26580    1.000
    C28      C        0.00370    0.48600    0.77990    1.000
    C29      C        0.76640    0.39470    0.13190    1.000
    C30      C        0.66350    0.49350    0.60170    1.000
    H16      H        0.73660    0.49780    0.62920    1.000
    C31      C        0.02970    0.52060    0.69380    1.000
    C32      C        0.76140    0.33640    0.30640    1.000
    H17      H        0.73890    0.40410    0.28090    1.000
    C33      C        0.53540    0.34440    0.90590    1.000
    H18      H        0.53780    0.41020    0.88940    1.000
    C34      C        0.93190    0.39110    0.02260    1.000
    H19      H        0.00120    0.34920    0.05980    1.000
    C35      C        0.96220    0.78480    0.41820    1.000
    H20      H        0.96360    0.82570    0.36520    1.000
    C36      C        0.00500    0.62460    0.51600    1.000
    H21      H        0.03260    0.55720    0.53070    1.000
    C37      C        0.74020    0.29220    0.38560    1.000
    H22      H        0.70350    0.33010    0.41480    1.000
    C38      C        0.00530    0.68650    0.43850    1.000
    H23      H        0.03490    0.66140    0.39970    1.000
    C39      C        0.10910    0.42280    0.83490    1.000
    H24      H        0.19500    0.40180    0.81710    1.000
    C40      C        0.55490    0.28420    0.98360    1.000
    H25      H        0.57450    0.30860    0.02080    1.000
    C41      C        0.54600    0.18930    0.00780    1.000
    H26      H        0.56020    0.14990    0.06140    1.000
    C42      C        0.08780    0.39230    0.91290    1.000
    H27      H        0.15970    0.35100    0.94840    1.000
    Co2      Co       0.13828    0.01960    0.56713    1.000
    O10      O        0.46040    0.99921    0.11120    1.000
    O11      O        0.13600    0.03152    0.45478    1.000
    O12      O        0.74550    0.98566    0.33056    1.000
    O13      O        0.04090    0.98044    0.37666    1.000
    O14      O        0.64550    0.99160    0.43695    1.000
    O15      O        0.39330    0.52340    0.23961    1.000
    N7       N        0.08160    0.17580    0.52898    1.000
    N8       N        0.17400    0.86400    0.61738    1.000
    O16      O        0.33280    0.55690    0.85019    1.000
    O17      O        0.89080    0.52820    0.33633    1.000
    N9       N        0.50180    0.64360    0.22857    1.000
    H28      H        0.54930    0.66320    0.25520    1.000
    C43      C        0.38580    0.00820    0.37782    1.000
    H29      H        0.39200    0.00900    0.42830    1.000
    N10      N        0.48230    0.84930    0.04228    1.000
    O18      O        0.24170    0.07440    0.10284    1.000
    N11      N        0.04260    0.38820    0.34796    1.000
    H30      H        0.09810    0.36020    0.32150    1.000
    C44      C        0.25950    0.01220    0.34695    1.000
    N12      N        0.15540    0.68630    0.81449    1.000
    H31      H        0.08470    0.71740    0.83080    1.000
    C45      C        0.24950    0.01840    0.27050    1.000
    H32      H        0.16390    0.02340    0.24910    1.000
    C46      C        0.50250    0.00290    0.33417    1.000
    C47      C        0.55940    0.51320    0.47980    1.000
    C48      C        0.13630    0.00820    0.39679    1.000
    C49      C        0.14720    0.51700    0.11310    1.000
    C50      C        0.36420    0.01740    0.22490    1.000
    C51      C        0.56140    0.53880    0.39720    1.000
    H33      H        0.63890    0.55720    0.37000    1.000
    C52      C        0.45280    0.53700    0.35690    1.000
    C53      C        0.08140    0.23580    0.45380    1.000
    H34      H        0.11280    0.20880    0.41630    1.000
    C54      C        0.44730    0.56540    0.26940    1.000
    C55      C        0.19370    0.57840    0.95230    1.000
    C56      C        0.63880    0.99250    0.36907    1.000
    C57      C        0.29740    0.51540    0.00750    1.000
    H35      H        0.38310    0.49280    0.99030    1.000
    C58      C        0.03760    0.33480    0.42830    1.000
    C59      C        0.49170    0.00580    0.25810    1.000
    H36      H        0.57070    0.99980    0.22910    1.000
    C60      C        0.27490    0.48700    0.08540    1.000
    H37      H        0.34630    0.44650    0.12160    1.000
    C61      C        0.15160    0.82080    0.69350    1.000
    H38      H        0.11180    0.86020    0.72100    1.000
    C62      C        0.12100    0.48630    0.19390    1.000
    H39      H        0.19170    0.44560    0.23050    1.000
    C63      C        0.35350    0.03040    0.14020    1.000
    C64      C        0.33060    0.48360    0.47680    1.000
    H40      H        0.25220    0.46530    0.50290    1.000
    C65      C        0.22750    0.80660    0.57840    1.000
    H41      H        0.24340    0.83530    0.52470    1.000
    C66      C        0.49770    0.79160    0.11820    1.000
    H42      H        0.51640    0.81780    0.15420    1.000
    C67      C        0.04050    0.57890    0.05790    1.000
    C68      C        0.48760    0.69520    0.14700    1.000
    C69      C        0.18310    0.72230    0.73420    1.000
    C70      C        0.99630    0.51400    0.22010    1.000
    C71      C        0.23360    0.60530    0.86810    1.000
    C72      C        0.33650    0.50650    0.39830    1.000
    H43      H        0.26340    0.50220    0.37080    1.000
    C73      C        0.97030    0.47940    0.30620    1.000
    C74      C        0.23860    0.66360    0.69360    1.000
    H44      H        0.26110    0.59590    0.71910    1.000
    C75      C        0.46460    0.65560    0.09410    1.000
    H45      H        0.46220    0.58980    0.11060    1.000
    C76      C        0.06810    0.60890    0.97740    1.000
    H46      H        0.99880    0.65080    0.94020    1.000
    C77      C        0.03780    0.21520    0.58180    1.000
    H47      H        0.03640    0.17430    0.63480    1.000
    C78      C        0.99500    0.37540    0.48400    1.000
    H48      H        0.96740    0.44280    0.46930    1.000
    C79      C        0.25980    0.70780    0.61440    1.000
    H49      H        0.29650    0.66990    0.58520    1.000
    C80      C        0.99470    0.31350    0.56150    1.000
    H50      H        0.96510    0.33860    0.60030    1.000
    C81      C        0.89090    0.57720    0.16510    1.000
    H51      H        0.80500    0.59820    0.18290    1.000
    C82      C        0.44510    0.71580    0.01640    1.000
    H52      H        0.42550    0.69140    0.97920    1.000
    C83      C        0.45400    0.81070    0.99220    1.000
    H53      H        0.43980    0.85010    0.93860    1.000
    C84      C        0.91220    0.60770    0.08710    1.000
    H54      H        0.84030    0.64900    0.05160    1.000
    Co3      Co       0.50000    0.00000    0.00000    1.000
