data_functionalizedCrystal
_audit_creation_method	'EQeq! by Chris Wilmer'
_symmetry_space_group_name_H-M	'P1'
_symmetry_Int_Tables_number	1
_symmetry_cell_setting	triclinic
loop_
_symmetry_equiv_pos_as_xyz
  x,y,z
_cell_length_a	13.53
_cell_length_b	19.71
_cell_length_c	28.3
_cell_angle_alpha	90
_cell_angle_beta	90
_cell_angle_gamma	90
loop_
_atom_site_label
_atom_site_type_symbol
_atom_site_fract_x
_atom_site_fract_y
_atom_site_fract_z
_atom_site_charge
Mof_Hf	Hf	0.19339	0.12173	0.12602	1.418
Mof_Hf	Hf	0.30437	0.88321	0.12423	1.409
Mof_Hf	Hf	0.14331	0.97835	0.19439	1.263
Mof_Hf	Hf	0.38744	0.03157	0.17989	1.26
Mof_Hf	Hf	0.35586	0.02735	0.05516	1.334
Mof_Hf	Hf	0.11262	0.97423	0.07166	1.333
Mof_H 	H 	0.2803	0.3275	0.193	0.047
Mof_H 	H 	0.373	0.4155	0.2329	0.043
Mof_H 	H 	0.2875	0.3283	0.0601	0.054
Mof_H 	H 	0.3844	0.4128	0.0163	0.038
Mof_H 	H 	0.1892	0.6717	0.0707	0.051
Mof_H 	H 	0.0868	0.5885	0.0325	0.039
Mof_H 	H 	0.194	0.6807	0.1792	0.049
Mof_H 	H 	0.1027	0.5909	0.2214	0.039
Mof_H 	H 	0.4579	0.0281	0.3322	0.048
Mof_H 	H 	0.4599	0.0396	0.4174	0.051
Mof_C 	C 	0.3401	0.1931	0.1971	0.398
Mof_C 	C 	0.3723	0.2562	0.2207	-0.109
Mof_C 	C 	0.334	0.3192	0.2127	-0.004
Mof_C 	C 	0.384	0.3695	0.2375	-0.009
Mof_C 	C 	0.4537	0.3446	0.2701	-0.108
Mof_C 	C 	0.518	0.3841	0.3023	0.394
Mof_C 	C 	0.319	0.1861	0.0442	0.397
Mof_C 	C 	0.354	0.2521	0.0209	-0.094
Mof_C 	C 	0.332	0.3178	0.0363	-0.025
Mof_C 	C 	0.389	0.367	0.0105	0.012
Mof_C 	C 	0.447	0.3416	0.9782	-0.118
Mof_C 	C 	0.5165	0.3781	0.9472	0.4
Mof_C 	C 	0.1512	0.8166	0.0558	0.431
Mof_C 	C 	0.1147	0.7485	0.0348	-0.098
Mof_C 	C 	0.14	0.6821	0.0488	-0.017
Mof_C 	C 	0.083	0.6345	0.0254	0.004
Mof_C 	C 	0.023	0.6577	0.9928	-0.108
Mof_C 	C 	0.9562	0.6181	0.9613	0.376
Mof_C 	C 	0.1714	0.8145	0.2038	0.368
Mof_C 	C 	0.129	0.7505	0.2212	-0.104
Mof_C 	C 	0.15	0.6887	0.2037	-0.009
Mof_C 	C 	0.095	0.6371	0.227	0
Mof_C 	C 	0.032	0.6639	0.2582	-0.111
Mof_C 	C 	0.958	0.6248	0.2868	0.402
Mof_C 	C 	0.2923	0.0087	0.2796	0.394
Mof_C 	C 	0.31	0.0101	0.3306	-0.104
Mof_C 	C 	0.402	0.023	0.3506	-0.002
Mof_C 	C 	0.405	0.027	0.3998	-0.011
Mof_C 	C 	0.3138	0.0084	0.4187	-0.096
Mof_C 	C 	0.2919	0.0017	0.4704	0.389
Mof_S 	S 	0.4603	0.2563	0.2658	0.081
Mof_S 	S 	0.4406	0.2533	0.9777	0.08
Mof_S 	S 	0.025	0.7453	0.9925	0.081
Mof_S 	S 	0.0411	0.7495	0.2648	0.081
Mof_S 	S 	0.2263	0.994	0.3758	0.084
Mof_O 	O 	0.3527	0.0928	0.1198	-0.558
Mof_O 	O 	0.2154	0.052	0.0728	-0.582
Mof_O 	O 	0.0892	0.034	0.1324	-0.615
Mof_O 	O 	0.2331	0.0645	0.1848	-0.517
Mof_O 	O 	0.2931	0.9383	0.1892	-0.659
Mof_O 	O 	0.3902	0.9732	0.1178	-0.559
Mof_O 	O 	0.262	0.9416	0.0624	-0.667
Mof_O 	O 	0.1563	0.9196	0.131	-0.559
Mof_O 	O 	0.2541	0.1951	0.0757	-0.388
Mof_O 	O 	0.3549	0.1335	0.0273	-0.408
Mof_O 	O 	0.5666	0.3442	0.9174	-0.38
Mof_O 	O 	0.5142	0.4412	0.953	-0.405
Mof_O 	O 	0.9168	0.656	0.3212	-0.373
Mof_O 	O 	0.9457	0.5649	0.2754	-0.394
Mof_O 	O 	0.2713	0.1973	0.1702	-0.391
Mof_O 	O 	0.3912	0.1378	0.2082	-0.369
Mof_O 	O 	0.197	0.9889	0.2678	-0.348
Mof_O 	O 	0.36	0.024	0.2564	-0.406
Mof_O 	O 	0.3682	0.0184	0.4948	-0.376
Mof_O 	O 	0.2077	0.9835	0.4835	-0.383
Mof_O 	O 	0.5155	0.4464	0.2971	-0.408
Mof_O 	O 	0.569	0.3505	0.3324	-0.385
Mof_O 	O 	0.9448	0.555	0.9722	-0.413
Mof_O 	O 	0.9152	0.6517	0.9284	-0.382
Mof_O 	O 	0.1053	0.8658	0.0433	-0.42
Mof_O 	O 	0.2235	0.8078	0.0818	-0.412
Mof_O 	O 	0.1368	0.8708	0.2216	-0.375
Mof_O 	O 	0.2399	0.8093	0.1738	-0.379
Mof_H 	H 	0.68479	0.40989	0.28778	0.266
Mof_H 	H 	0.72306	0.40709	0.45845	0.249
Mof_H 	H 	0.98471	0.534	0.3676	0.162
Mof_H 	H 	0.581	0.6232	0.38745	0.113
Mof_Hf	Hf	0.30661	0.87827	0.62602	1.417
Mof_Hf	Hf	0.19563	0.11679	0.62423	1.408
Mof_Hf	Hf	0.35669	0.02165	0.69439	1.262
Mof_Hf	Hf	0.11256	0.96843	0.67989	1.259
Mof_Hf	Hf	0.14414	0.97265	0.55516	1.334
Mof_Hf	Hf	0.38738	0.02577	0.57166	1.332
Mof_H 	H 	0.2197	0.6725	0.693	0.047
Mof_H 	H 	0.127	0.5845	0.7329	0.043
Mof_H 	H 	0.2125	0.6717	0.5601	0.054
Mof_H 	H 	0.1156	0.5872	0.5163	0.038
Mof_H 	H 	0.3108	0.3283	0.5707	0.051
Mof_H 	H 	0.4132	0.4115	0.5325	0.039
Mof_H 	H 	0.306	0.3193	0.6792	0.049
Mof_H 	H 	0.3973	0.4091	0.7214	0.039
Mof_H 	H 	0.0421	0.9719	0.8322	0.048
Mof_H 	H 	0.0401	0.9604	0.9174	0.051
Mof_C 	C 	0.1599	0.8069	0.6971	0.398
Mof_C 	C 	0.1277	0.7438	0.7207	-0.109
Mof_C 	C 	0.166	0.6808	0.7127	-0.004
Mof_C 	C 	0.116	0.6305	0.7375	-0.009
Mof_C 	C 	0.0463	0.6554	0.7701	-0.109
Mof_C 	C 	0.982	0.6159	0.8023	0.395
Mof_C 	C 	0.181	0.8139	0.5442	0.397
Mof_C 	C 	0.146	0.7479	0.5209	-0.094
Mof_C 	C 	0.168	0.6822	0.5363	-0.025
Mof_C 	C 	0.111	0.633	0.5105	0.012
Mof_C 	C 	0.053	0.6584	0.4782	-0.118
Mof_C 	C 	0.9835	0.6219	0.4472	0.401
Mof_C 	C 	0.3488	0.1834	0.5558	0.431
Mof_C 	C 	0.3853	0.2515	0.5348	-0.098
Mof_C 	C 	0.36	0.3179	0.5488	-0.017
Mof_C 	C 	0.417	0.3655	0.5254	0.004
Mof_C 	C 	0.477	0.3423	0.4928	-0.107
Mof_C 	C 	0.5438	0.3819	0.4613	0.376
Mof_C 	C 	0.3286	0.1855	0.7038	0.368
Mof_C 	C 	0.371	0.2495	0.7212	-0.104
Mof_C 	C 	0.35	0.3113	0.7037	-0.009
Mof_C 	C 	0.405	0.3629	0.727	-0
Mof_C 	C 	0.468	0.3361	0.7582	-0.11
Mof_C 	C 	0.542	0.3752	0.7868	0.401
Mof_C 	C 	0.2077	0.9913	0.7796	0.394
Mof_C 	C 	0.19	0.9899	0.8306	-0.104
Mof_C 	C 	0.098	0.977	0.8506	-0.002
Mof_C 	C 	0.095	0.973	0.8998	-0.011
Mof_C 	C 	0.1862	0.9916	0.9187	-0.096
Mof_C 	C 	0.2081	0.9983	0.9704	0.388
Mof_S 	S 	0.0397	0.7437	0.7658	0.08
Mof_S 	S 	0.0594	0.7467	0.4777	0.08
Mof_S 	S 	0.475	0.2547	0.4925	0.081
Mof_S 	S 	0.4589	0.2505	0.7648	0.082
Mof_S 	S 	0.2737	0.006	0.8758	0.084
Mof_O 	O 	0.1473	0.9072	0.6198	-0.558
Mof_O 	O 	0.2846	0.948	0.5728	-0.581
Mof_O 	O 	0.4108	0.966	0.6324	-0.615
Mof_O 	O 	0.2669	0.9355	0.6848	-0.517
Mof_O 	O 	0.2069	0.0617	0.6892	-0.659
Mof_O 	O 	0.1098	0.0268	0.6178	-0.559
Mof_O 	O 	0.238	0.0584	0.5624	-0.667
Mof_O 	O 	0.3437	0.0804	0.631	-0.559
Mof_O 	O 	0.2459	0.8049	0.5757	-0.388
Mof_O 	O 	0.1451	0.8665	0.5273	-0.408
Mof_O 	O 	0.9334	0.6558	0.4174	-0.38
Mof_O 	O 	0.9858	0.5588	0.453	-0.405
Mof_O 	O 	0.5832	0.344	0.8212	-0.373
Mof_O 	O 	0.5543	0.4351	0.7754	-0.394
Mof_O 	O 	0.2287	0.8027	0.6702	-0.392
Mof_O 	O 	0.1088	0.8622	0.7082	-0.369
Mof_O 	O 	0.303	0.0111	0.7678	-0.348
Mof_O 	O 	0.14	0.976	0.7564	-0.406
Mof_O 	O 	0.1318	0.9816	0.9948	-0.376
Mof_O 	O 	0.2923	0.0165	0.9835	-0.382
Mof_O 	O 	0.9845	0.5536	0.7971	-0.408
Mof_O 	O 	0.931	0.6495	0.8324	-0.385
Mof_O 	O 	0.5552	0.445	0.4722	-0.413
Mof_O 	O 	0.5848	0.3483	0.4284	-0.382
Mof_O 	O 	0.3947	0.1342	0.5433	-0.42
Mof_O 	O 	0.2765	0.1922	0.5818	-0.411
Mof_O 	O 	0.3632	0.1292	0.7216	-0.375
Mof_O 	O 	0.2601	0.1907	0.6738	-0.379
Mof_H 	H 	0.81521	0.59011	0.78778	0.266
Mof_H 	H 	0.77694	0.59291	0.95845	0.249
Mof_H 	H 	0.51529	0.466	0.8676	0.162
Mof_H 	H 	0.919	0.3768	0.88745	0.112
Mof_Hf	Hf	0.80661	0.62173	0.37398	1.417
Mof_Hf	Hf	0.69563	0.38321	0.37577	1.408
Mof_Hf	Hf	0.85669	0.47835	0.30561	1.262
Mof_Hf	Hf	0.61256	0.53157	0.32011	1.26
Mof_Hf	Hf	0.64414	0.52735	0.44484	1.334
Mof_Hf	Hf	0.88738	0.47423	0.42834	1.333
Mof_H 	H 	0.7197	0.8275	0.307	0.047
Mof_H 	H 	0.627	0.9155	0.2671	0.043
Mof_H 	H 	0.7125	0.8283	0.4399	0.054
Mof_H 	H 	0.6156	0.9128	0.4837	0.039
Mof_H 	H 	0.8108	0.1717	0.4293	0.051
Mof_H 	H 	0.9132	0.0885	0.4675	0.038
Mof_H 	H 	0.806	0.1807	0.3208	0.049
Mof_H 	H 	0.8973	0.0909	0.2786	0.038
Mof_H 	H 	0.5421	0.5281	0.1678	0.048
Mof_H 	H 	0.5401	0.5396	0.0826	0.051
Mof_C 	C 	0.6599	0.6931	0.3029	0.398
Mof_C 	C 	0.6277	0.7562	0.2793	-0.109
Mof_C 	C 	0.666	0.8192	0.2873	-0.003
Mof_C 	C 	0.616	0.8695	0.2625	-0.009
Mof_C 	C 	0.5463	0.8446	0.2299	-0.108
Mof_C 	C 	0.482	0.8841	0.1977	0.394
Mof_C 	C 	0.681	0.6861	0.4558	0.397
Mof_C 	C 	0.646	0.7521	0.4791	-0.094
Mof_C 	C 	0.668	0.8178	0.4637	-0.025
Mof_C 	C 	0.611	0.867	0.4895	0.012
Mof_C 	C 	0.553	0.8416	0.5218	-0.117
Mof_C 	C 	0.4835	0.8781	0.5528	0.4
Mof_C 	C 	0.8488	0.3166	0.4442	0.431
Mof_C 	C 	0.8853	0.2485	0.4652	-0.097
Mof_C 	C 	0.86	0.1821	0.4512	-0.018
Mof_C 	C 	0.917	0.1345	0.4746	0.005
Mof_C 	C 	0.977	0.1577	0.5072	-0.11
Mof_C 	C 	0.0438	0.1181	0.5387	0.378
Mof_C 	C 	0.8286	0.3145	0.2962	0.368
Mof_C 	C 	0.871	0.2505	0.2788	-0.104
Mof_C 	C 	0.85	0.1887	0.2963	-0.009
Mof_C 	C 	0.905	0.1371	0.273	0.001
Mof_C 	C 	0.968	0.1639	0.2418	-0.112
Mof_C 	C 	0.042	0.1248	0.2132	0.402
Mof_C 	C 	0.7077	0.5087	0.2204	0.394
Mof_C 	C 	0.69	0.5101	0.1694	-0.104
Mof_C 	C 	0.598	0.523	0.1494	-0.002
Mof_C 	C 	0.595	0.527	0.1002	-0.011
Mof_C 	C 	0.6862	0.5084	0.0813	-0.096
Mof_C 	C 	0.7081	0.5017	0.0296	0.388
Mof_S 	S 	0.5397	0.7563	0.2342	0.081
Mof_S 	S 	0.5594	0.7533	0.5223	0.08
Mof_S 	S 	0.975	0.2453	0.5075	0.081
Mof_S 	S 	0.9589	0.2495	0.2352	0.082
Mof_S 	S 	0.7737	0.494	0.1242	0.083
Mof_O 	O 	0.6473	0.5928	0.3802	-0.558
Mof_O 	O 	0.7846	0.552	0.4272	-0.582
Mof_O 	O 	0.9108	0.534	0.3676	-0.615
Mof_O 	O 	0.7669	0.5645	0.3152	-0.517
Mof_O 	O 	0.7069	0.4383	0.3108	-0.659
Mof_O 	O 	0.6098	0.4732	0.3822	-0.56
Mof_O 	O 	0.738	0.4416	0.4376	-0.667
Mof_O 	O 	0.8437	0.4196	0.369	-0.559
Mof_O 	O 	0.7459	0.6951	0.4243	-0.387
Mof_O 	O 	0.6451	0.6335	0.4727	-0.408
Mof_O 	O 	0.4334	0.8442	0.5826	-0.38
Mof_O 	O 	0.4858	0.9412	0.547	-0.404
Mof_O 	O 	0.0832	0.156	0.1788	-0.373
Mof_O 	O 	0.0543	0.0649	0.2246	-0.394
Mof_O 	O 	0.7287	0.6973	0.3298	-0.391
Mof_O 	O 	0.6088	0.6378	0.2918	-0.369
Mof_O 	O 	0.803	0.4889	0.2322	-0.348
Mof_O 	O 	0.64	0.524	0.2436	-0.406
Mof_O 	O 	0.6318	0.5184	0.0052	-0.376
Mof_O 	O 	0.7923	0.4835	0.0165	-0.382
Mof_O 	O 	0.4845	0.9464	0.2029	-0.407
Mof_O 	O 	0.431	0.8505	0.1676	-0.385
Mof_O 	O 	0.0552	0.055	0.5278	-0.412
Mof_O 	O 	0.0848	0.1517	0.5716	-0.382
Mof_O 	O 	0.8947	0.3658	0.4567	-0.42
Mof_O 	O 	0.7765	0.3078	0.4182	-0.412
Mof_O 	O 	0.8632	0.3708	0.2784	-0.375
Mof_O 	O 	0.7601	0.3093	0.3262	-0.379
Mof_H 	H 	0.31521	0.90989	0.21222	0.266
Mof_H 	H 	0.27694	0.90709	0.04155	0.249
Mof_H 	H 	0.01529	0.034	0.1324	0.163
Mof_H 	H 	0.419	0.1232	0.11255	0.113
Mof_Hf	Hf	0.69339	0.37827	0.87398	1.417
Mof_Hf	Hf	0.80437	0.61679	0.87577	1.408
Mof_Hf	Hf	0.64331	0.52165	0.80561	1.262
Mof_Hf	Hf	0.88744	0.46843	0.82011	1.26
Mof_Hf	Hf	0.85586	0.47265	0.94484	1.334
Mof_Hf	Hf	0.61262	0.52577	0.92834	1.333
Mof_H 	H 	0.7803	0.1725	0.807	0.047
Mof_H 	H 	0.873	0.0845	0.7671	0.042
Mof_H 	H 	0.7875	0.1717	0.9399	0.054
Mof_H 	H 	0.8844	0.0872	0.9837	0.037
Mof_H 	H 	0.6892	0.8283	0.9293	0.051
Mof_H 	H 	0.5868	0.9115	0.9675	0.04
Mof_H 	H 	0.694	0.8193	0.8208	0.049
Mof_H 	H 	0.6027	0.9091	0.7786	0.04
Mof_H 	H 	0.9579	0.4719	0.6678	0.048
Mof_H 	H 	0.9599	0.4604	0.5826	0.051
Mof_C 	C 	0.8401	0.3069	0.8029	0.398
Mof_C 	C 	0.8723	0.2438	0.7793	-0.108
Mof_C 	C 	0.834	0.1808	0.7873	-0.005
Mof_C 	C 	0.884	0.1305	0.7625	-0.008
Mof_C 	C 	0.9537	0.1554	0.7299	-0.111
Mof_C 	C 	0.018	0.1159	0.6977	0.396
Mof_C 	C 	0.819	0.3139	0.9558	0.397
Mof_C 	C 	0.854	0.2479	0.9791	-0.094
Mof_C 	C 	0.832	0.1822	0.9637	-0.025
Mof_C 	C 	0.889	0.133	0.9895	0.012
Mof_C 	C 	0.947	0.1584	0.0218	-0.119
Mof_C 	C 	0.0165	0.1219	0.0528	0.401
Mof_C 	C 	0.6512	0.6834	0.9442	0.431
Mof_C 	C 	0.6147	0.7515	0.9652	-0.098
Mof_C 	C 	0.64	0.8179	0.9512	-0.017
Mof_C 	C 	0.583	0.8655	0.9746	0.003
Mof_C 	C 	0.523	0.8423	0.0072	-0.106
Mof_C 	C 	0.4562	0.8819	0.0387	0.376
Mof_C 	C 	0.6714	0.6855	0.7962	0.368
Mof_C 	C 	0.629	0.7495	0.7788	-0.104
Mof_C 	C 	0.65	0.8113	0.7963	-0.008
Mof_C 	C 	0.595	0.8629	0.773	-0
Mof_C 	C 	0.532	0.8361	0.7418	-0.11
Mof_C 	C 	0.458	0.8752	0.7132	0.401
Mof_C 	C 	0.7923	0.4913	0.7204	0.394
Mof_C 	C 	0.81	0.4899	0.6694	-0.104
Mof_C 	C 	0.902	0.477	0.6494	-0.002
Mof_C 	C 	0.905	0.473	0.6002	-0.011
Mof_C 	C 	0.8138	0.4916	0.5813	-0.096
Mof_C 	C 	0.7919	0.4983	0.5296	0.388
Mof_S 	S 	0.9603	0.2437	0.7342	0.08
Mof_S 	S 	0.9406	0.2467	0.0223	0.08
Mof_S 	S 	0.525	0.7547	0.0075	0.082
Mof_S 	S 	0.5411	0.7505	0.7352	0.082
Mof_S 	S 	0.7263	0.506	0.6242	0.083
Mof_O 	O 	0.8527	0.4072	0.8802	-0.558
Mof_O 	O 	0.7154	0.448	0.9272	-0.582
Mof_O 	O 	0.5892	0.466	0.8676	-0.615
Mof_O 	O 	0.7331	0.4355	0.8152	-0.517
Mof_O 	O 	0.7931	0.5617	0.8108	-0.659
Mof_O 	O 	0.8902	0.5268	0.8822	-0.56
Mof_O 	O 	0.762	0.5584	0.9376	-0.667
Mof_O 	O 	0.6563	0.5804	0.869	-0.559
Mof_O 	O 	0.7541	0.3049	0.9243	-0.388
Mof_O 	O 	0.8549	0.3665	0.9727	-0.408
Mof_O 	O 	0.0666	0.1558	0.0826	-0.381
Mof_O 	O 	0.0142	0.0588	0.047	-0.404
Mof_O 	O 	0.4168	0.844	0.6788	-0.373
Mof_O 	O 	0.4457	0.9351	0.7246	-0.393
Mof_O 	O 	0.7713	0.3027	0.8298	-0.392
Mof_O 	O 	0.8912	0.3622	0.7918	-0.369
Mof_O 	O 	0.697	0.5111	0.7322	-0.348
Mof_O 	O 	0.86	0.476	0.7436	-0.406
Mof_O 	O 	0.8682	0.4816	0.5052	-0.376
Mof_O 	O 	0.7077	0.5165	0.5165	-0.383
Mof_O 	O 	0.0155	0.0536	0.7029	-0.407
Mof_O 	O 	0.069	0.1495	0.6676	-0.385
Mof_O 	O 	0.4448	0.945	0.0278	-0.412
Mof_O 	O 	0.4152	0.8483	0.0716	-0.382
Mof_O 	O 	0.6053	0.6342	0.9567	-0.42
Mof_O 	O 	0.7235	0.6922	0.9182	-0.411
Mof_O 	O 	0.6368	0.6292	0.7784	-0.375
Mof_O 	O 	0.7399	0.6907	0.8262	-0.379
Mof_H 	H 	0.18479	0.09011	0.71222	0.266
Mof_H 	H 	0.22306	0.09291	0.54155	0.249
Mof_H 	H 	0.48471	0.966	0.6324	0.163
Mof_H 	H 	0.081	0.8768	0.61255	0.112
_end
