data_functionalizedCrystal
_audit_creation_method	'EQeq! by Chris Wilmer'
_symmetry_space_group_name_H-M	'P1'
_symmetry_Int_Tables_number	1
_symmetry_cell_setting	triclinic
loop_
_symmetry_equiv_pos_as_xyz
  x,y,z
_cell_length_a	16.835
_cell_length_b	9.707
_cell_length_c	39.767
_cell_angle_alpha	90
_cell_angle_beta	90.522
_cell_angle_gamma	90
loop_
_atom_site_label
_atom_site_type_symbol
_atom_site_fract_x
_atom_site_fract_y
_atom_site_fract_z
_atom_site_charge
Mof_Cu	Cu	0.55023	0.71487	0.66665	0.854
Mof_C 	C 	0.6635	0.8794	0.5158	0.482
Mof_C 	C 	0.6362	0.9884	0.5346	-0.449
Mof_H 	H 	0.5928	0.0413	0.5279	0.211
Mof_C 	C 	0.6782	0.0143	0.5646	0.454
Mof_C 	C 	0.7359	0.9328	0.5749	-0.491
Mof_H 	H 	0.7594	0.9494	0.5957	0.208
Mof_C 	C 	0.763	0.8233	0.5558	0.409
Mof_H 	H 	0.8064	0.7709	0.5628	-0.095
Mof_C 	C 	0.7235	0.7955	0.5266	-0.493
Mof_H 	H 	0.7375	0.719	0.5139	0.245
Mof_O 	O 	0.6227	0.8444	0.48668	-0.365
Mof_O 	O 	0.6382	0.049	0.4642	-0.298
Mof_N 	N 	0.4973	0.7863	0.37667	-0.236
Mof_C 	C 	0.5381	0.7026	0.3961	0.07
Mof_H 	H 	0.5418	0.6108	0.3896	-0.012
Mof_C 	C 	0.5747	0.7406	0.4246	-0.081
Mof_H 	H 	0.6018	0.6767	0.4378	0.089
Mof_C 	C 	0.5711	0.8761	0.4338	-0.023
Mof_C 	C 	0.5329	0.9678	0.4131	-0.062
Mof_H 	H 	0.5306	0.0613	0.4181	0.061
Mof_C 	C 	0.4982	0.9149	0.38461	0.067
Mof_H 	H 	0.4736	0.9763	0.3699	-0.004
Mof_C 	C 	0.6132	0.9357	0.4637	0.377
Mof_N 	N 	0.5977	0.5621	0.64087	-0.24
Mof_O 	O 	0.6519	0.1282	0.58243	-0.371
Mof_O 	O 	0.739	0.2644	0.5583	-0.255
Mof_C 	C 	0.6523	0.5865	0.617	0.062
Mof_H 	H 	0.6693	0.6766	0.6137	-0.009
Mof_C 	C 	0.6838	0.4845	0.5974	-0.097
Mof_H 	H 	0.7251	0.5026	0.5827	0.086
Mof_C 	C 	0.6528	0.3556	0.60035	-0.008
Mof_C 	C 	0.5988	0.3283	0.6236	-0.095
Mof_H 	H 	0.5778	0.2402	0.6258	0.074
Mof_C 	C 	0.5744	0.4351	0.6445	0.067
Mof_H 	H 	0.5398	0.4147	0.6619	-0.012
Mof_C 	C 	0.6855	0.2457	0.5781	0.316
Mof_C 	C 	0.5865	0.2195	0.89728	0.505
Mof_C 	C 	0.5966	0.2992	0.8678	-0.49
Mof_H 	H 	0.6447	0.3363	0.861	0.236
Mof_C 	C 	0.5218	0.3157	0.8496	0.527
Mof_C 	C 	0.4538	0.2671	0.8595	-0.608
Mof_H 	H 	0.4088	0.2787	0.8461	0.283
Mof_C 	C 	0.4483	0.2	0.8892	0.498
Mof_H 	H 	0.3991	0.1713	0.897	-0.129
Mof_C 	C 	0.5164	0.1744	0.908	-0.569
Mof_H 	H 	0.5131	0.1256	0.928	0.232
Mof_O 	O 	0.6548	0.2052	0.91656	-0.381
Mof_O 	O 	0.6804	0.0107	0.8917	-0.276
Mof_N 	N 	0.8989	0.0699	0.97398	-0.241
Mof_C 	C 	0.8466	0.1706	0.9773	0.073
Mof_H 	H 	0.8548	0.2352	0.9942	-0.01
Mof_C 	C 	0.7831	0.1837	0.9575	-0.102
Mof_H 	H 	0.7488	0.2581	0.9599	0.08
Mof_C 	C 	0.7694	0.0858	0.93378	-0.009
Mof_C 	C 	0.8204	0.9805	0.931	-0.105
Mof_H 	H 	0.8114	0.9121	0.915	0.09
Mof_C 	C 	0.8818	0.9744	0.9504	0.084
Mof_H 	H 	0.9162	0.9002	0.948	-0.014
Mof_C 	C 	0.6962	0.0939	0.91195	0.335
Mof_O 	O 	0.6261	0.267	0.7976	-0.263
Mof_N 	N 	0.5618	0.6051	0.70977	-0.249
Mof_O 	O 	0.5269	0.3903	0.82025	-0.35
Mof_C 	C 	0.5009	0.5884	0.7294	0.094
Mof_H 	H 	0.4531	0.6283	0.7227	-0.02
Mof_C 	C 	0.5016	0.518	0.7587	-0.12
Mof_H 	H 	0.4579	0.5151	0.7728	0.102
Mof_C 	C 	0.5712	0.4511	0.7662	0.027
Mof_C 	C 	0.6345	0.4667	0.7458	-0.137
Mof_H 	H 	0.6826	0.4242	0.7509	0.094
Mof_C 	C 	0.627	0.5434	0.7185	0.109
Mof_H 	H 	0.6711	0.5535	0.7047	-0.021
Mof_C 	C 	0.5799	0.3604	0.7964	0.307
Mof_C 	C 	0.2644	0.2556	0.7693	0.521
Mof_C 	C 	0.2298	0.2072	0.7982	-0.543
Mof_H 	H 	0.2341	0.1153	0.8045	0.248
Mof_C 	C 	0.1886	0.3009	0.81724	0.508
Mof_C 	C 	0.1755	0.4298	0.8079	-0.476
Mof_H 	H 	0.145	0.4884	0.8211	0.237
Mof_C 	C 	0.21	0.478	0.7765	0.381
Mof_H 	H 	0.201	0.5665	0.7683	-0.088
Mof_C 	C 	0.2564	0.3846	0.7599	-0.525
Mof_H 	H 	0.2836	0.4141	0.7409	0.216
Mof_N 	N 	0.0593	0.1023	0.95667	-0.237
Mof_O 	O 	0.1501	0.2583	0.84668	-0.357
Mof_O 	O 	0.2627	0.1776	0.8687	-0.263
Mof_C 	C 	0.1208	0.0347	0.9488	0.074
Mof_H 	H 	0.137	0.9631	0.9628	-0.006
Mof_C 	C 	0.166	0.0627	0.9199	-0.099
Mof_H 	H 	0.2108	0.0107	0.915	0.08
Mof_C 	C 	0.1435	0.163	0.90029	0
Mof_C 	C 	0.0755	0.2424	0.9089	-0.089
Mof_H 	H 	0.058	0.3161	0.8959	0.088
Mof_C 	C 	0.0376	0.203	0.9376	0.056
Mof_H 	H 	0.9928	0.2527	0.9439	0.001
Mof_C 	C 	0.1912	0.2012	0.8699	0.323
Mof_N 	N 	0.4966	0.8642	0.69297	-0.223
Mof_O 	O 	0.3071	0.1628	0.74943	-0.378
Mof_O 	O 	0.4182	0.2213	0.7753	-0.27
Mof_C 	C 	0.5376	0.932	0.7162	0.06
Mof_H 	H 	0.5917	0.9147	0.7186	-0.01
Mof_C 	C 	0.5022	0.0282	0.7371	-0.075
Mof_H 	H 	0.5317	0.0748	0.7534	0.077
Mof_C 	C 	0.4216	0.0528	0.733	-0.069
Mof_C 	C 	0.3854	0.9838	0.70918	-0.004
Mof_H 	H 	0.3314	0.0006	0.7062	0.038
Mof_C 	C 	0.4185	0.8913	0.6886	0.01
Mof_H 	H 	0.3888	0.8473	0.672	0.011
Mof_C 	C 	0.3851	0.1538	0.7549	0.339
Mof_Cu	Cu	0.44977	0.71487	0.33335	0.855
Mof_C 	C 	0.3365	0.8794	0.4842	0.482
Mof_C 	C 	0.3638	0.9884	0.4654	-0.447
Mof_H 	H 	0.4072	0.0413	0.4721	0.21
Mof_C 	C 	0.3218	0.0143	0.4354	0.451
Mof_C 	C 	0.2641	0.9328	0.4251	-0.489
Mof_H 	H 	0.2406	0.9494	0.4043	0.206
Mof_C 	C 	0.237	0.8233	0.4442	0.407
Mof_H 	H 	0.1936	0.7709	0.4372	-0.096
Mof_C 	C 	0.2765	0.7955	0.4734	-0.492
Mof_H 	H 	0.2625	0.719	0.4861	0.244
Mof_O 	O 	0.3773	0.8444	0.51332	-0.365
Mof_O 	O 	0.3618	0.049	0.5358	-0.299
Mof_N 	N 	0.5027	0.7863	0.62333	-0.236
Mof_C 	C 	0.4619	0.7026	0.6039	0.07
Mof_H 	H 	0.4582	0.6108	0.6104	-0.012
Mof_C 	C 	0.4253	0.7406	0.5754	-0.081
Mof_H 	H 	0.3982	0.6767	0.5622	0.089
Mof_C 	C 	0.4289	0.8761	0.5662	-0.023
Mof_C 	C 	0.4671	0.9678	0.5869	-0.062
Mof_H 	H 	0.4694	0.0613	0.5819	0.061
Mof_C 	C 	0.5018	0.9149	0.61539	0.067
Mof_H 	H 	0.5264	0.9763	0.6301	-0.004
Mof_C 	C 	0.3868	0.9357	0.5363	0.377
Mof_N 	N 	0.4023	0.5621	0.35913	-0.24
Mof_O 	O 	0.3481	0.1282	0.41757	-0.371
Mof_O 	O 	0.261	0.2644	0.4417	-0.256
Mof_C 	C 	0.3477	0.5865	0.383	0.062
Mof_H 	H 	0.3307	0.6766	0.3863	-0.01
Mof_C 	C 	0.3162	0.4845	0.4026	-0.097
Mof_H 	H 	0.2749	0.5026	0.4173	0.086
Mof_C 	C 	0.3472	0.3556	0.39965	-0.008
Mof_C 	C 	0.4012	0.3283	0.3764	-0.095
Mof_H 	H 	0.4222	0.2402	0.3742	0.074
Mof_C 	C 	0.4256	0.4351	0.3555	0.067
Mof_H 	H 	0.4602	0.4147	0.3381	-0.012
Mof_C 	C 	0.3145	0.2457	0.4219	0.316
Mof_C 	C 	0.4135	0.2195	0.10272	0.504
Mof_C 	C 	0.4034	0.2992	0.1322	-0.49
Mof_H 	H 	0.3553	0.3363	0.139	0.235
Mof_C 	C 	0.4782	0.3157	0.1504	0.527
Mof_C 	C 	0.5462	0.2671	0.1405	-0.607
Mof_H 	H 	0.5912	0.2787	0.1539	0.283
Mof_C 	C 	0.5517	0.2	0.1108	0.497
Mof_H 	H 	0.6009	0.1713	0.103	-0.129
Mof_C 	C 	0.4836	0.1744	0.092	-0.568
Mof_H 	H 	0.4869	0.1256	0.072	0.23
Mof_O 	O 	0.3452	0.2052	0.08344	-0.381
Mof_O 	O 	0.3196	0.0107	0.1083	-0.277
Mof_N 	N 	0.1011	0.0699	0.02602	-0.248
Mof_C 	C 	0.1534	0.1706	0.0227	0.073
Mof_H 	H 	0.1452	0.2352	0.0058	-0.016
Mof_C 	C 	0.2169	0.1837	0.0425	-0.105
Mof_H 	H 	0.2512	0.2581	0.0401	0.078
Mof_C 	C 	0.2306	0.0858	0.06622	-0.01
Mof_C 	C 	0.1796	0.9805	0.069	-0.108
Mof_H 	H 	0.1886	0.9121	0.085	0.09
Mof_C 	C 	0.1182	0.9744	0.0496	0.084
Mof_H 	H 	0.0838	0.9002	0.052	-0.021
Mof_C 	C 	0.3038	0.0939	0.08805	0.334
Mof_O 	O 	0.3739	0.267	0.2024	-0.264
Mof_N 	N 	0.4382	0.6051	0.29023	-0.248
Mof_O 	O 	0.4731	0.3903	0.17975	-0.35
Mof_C 	C 	0.4991	0.5884	0.2706	0.094
Mof_H 	H 	0.5469	0.6283	0.2773	-0.02
Mof_C 	C 	0.4984	0.518	0.2413	-0.119
Mof_H 	H 	0.5421	0.5151	0.2272	0.102
Mof_C 	C 	0.4288	0.4511	0.2338	0.026
Mof_C 	C 	0.3655	0.4667	0.2542	-0.137
Mof_H 	H 	0.3174	0.4242	0.2491	0.093
Mof_C 	C 	0.373	0.5434	0.2815	0.109
Mof_H 	H 	0.3289	0.5535	0.2953	-0.021
Mof_C 	C 	0.4201	0.3604	0.2036	0.307
Mof_C 	C 	0.7356	0.2556	0.2307	0.52
Mof_C 	C 	0.7702	0.2072	0.2018	-0.543
Mof_H 	H 	0.7659	0.1153	0.1955	0.248
Mof_C 	C 	0.8114	0.3009	0.18276	0.508
Mof_C 	C 	0.8245	0.4298	0.1921	-0.475
Mof_H 	H 	0.855	0.4884	0.1789	0.239
Mof_C 	C 	0.79	0.478	0.2235	0.382
Mof_H 	H 	0.799	0.5665	0.2317	-0.088
Mof_C 	C 	0.7436	0.3846	0.2401	-0.525
Mof_H 	H 	0.7164	0.4141	0.2591	0.216
Mof_N 	N 	0.9407	0.1023	0.04333	-0.249
Mof_O 	O 	0.8499	0.2583	0.15332	-0.354
Mof_O 	O 	0.7373	0.1776	0.1313	-0.261
Mof_C 	C 	0.8792	0.0347	0.0512	0.087
Mof_H 	H 	0.863	0.9631	0.0372	-0.012
Mof_C 	C 	0.834	0.0627	0.0801	-0.117
Mof_H 	H 	0.7892	0.0107	0.085	0.085
Mof_C 	C 	0.8565	0.163	0.09971	0.02
Mof_C 	C 	0.9245	0.2424	0.0911	-0.125
Mof_H 	H 	0.942	0.3161	0.1041	0.105
Mof_C 	C 	0.9624	0.203	0.0624	0.118
Mof_H 	H 	0.0072	0.2527	0.0561	-0.038
Mof_C 	C 	0.8088	0.2012	0.1301	0.316
Mof_N 	N 	0.5034	0.8642	0.30703	-0.224
Mof_O 	O 	0.6929	0.1628	0.25057	-0.378
Mof_O 	O 	0.5818	0.2213	0.2247	-0.27
Mof_C 	C 	0.4624	0.932	0.2838	0.06
Mof_H 	H 	0.4083	0.9147	0.2814	-0.01
Mof_C 	C 	0.4978	0.0282	0.2629	-0.076
Mof_H 	H 	0.4683	0.0748	0.2466	0.077
Mof_C 	C 	0.5784	0.0528	0.267	-0.068
Mof_C 	C 	0.6146	0.9838	0.29082	-0.006
Mof_H 	H 	0.6686	0.0006	0.2938	0.039
Mof_C 	C 	0.5815	0.8913	0.3114	0.011
Mof_H 	H 	0.6112	0.8473	0.328	0.011
Mof_C 	C 	0.6149	0.1538	0.2451	0.339
Mof_Cu	Cu	-0	0.06478	-0	0.846
Mof_Cu	Cu	0.05023	0.21487	0.66665	0.852
Mof_C 	C 	0.1635	0.3794	0.5158	0.534
Mof_C 	C 	0.1362	0.4884	0.5346	-0.547
Mof_H 	H 	0.0928	0.5413	0.5279	0.251
Mof_C 	C 	0.1782	0.5143	0.5646	0.541
Mof_C 	C 	0.2359	0.4328	0.5749	-0.583
Mof_H 	H 	0.2594	0.4494	0.5957	0.234
Mof_C 	C 	0.263	0.3233	0.5558	0.48
Mof_H 	H 	0.3064	0.2709	0.5628	-0.122
Mof_C 	C 	0.2235	0.2955	0.5266	-0.556
Mof_H 	H 	0.2375	0.219	0.5139	0.264
Mof_O 	O 	0.1227	0.3444	0.48668	-0.375
Mof_O 	O 	0.1382	0.549	0.4642	-0.282
Mof_N 	N 	0.9973	0.2863	0.37667	-0.241
Mof_C 	C 	0.0381	0.2026	0.3961	0.071
Mof_H 	H 	0.0418	0.1108	0.3896	-0.019
Mof_C 	C 	0.0747	0.2406	0.4246	-0.102
Mof_H 	H 	0.1018	0.1767	0.4378	0.092
Mof_C 	C 	0.0711	0.3761	0.4338	0.006
Mof_C 	C 	0.0329	0.4678	0.4131	-0.132
Mof_H 	H 	0.0306	0.5613	0.4181	0.09
Mof_C 	C 	0.9982	0.4149	0.38461	0.113
Mof_H 	H 	0.9736	0.4763	0.3699	-0.02
Mof_C 	C 	0.1132	0.4357	0.4637	0.348
Mof_N 	N 	0.0977	0.0621	0.64087	-0.238
Mof_O 	O 	0.1519	0.6282	0.58243	-0.393
Mof_O 	O 	0.239	0.7644	0.5583	-0.258
Mof_C 	C 	0.1523	0.0865	0.617	0.012
Mof_H 	H 	0.1693	0.1766	0.6137	0.006
Mof_C 	C 	0.1838	0.9845	0.5974	-0.024
Mof_H 	H 	0.2251	0.0026	0.5827	0.051
Mof_C 	C 	0.1528	0.8556	0.60035	-0.041
Mof_C 	C 	0.0988	0.8283	0.6236	-0.075
Mof_H 	H 	0.0778	0.7402	0.6258	0.068
Mof_C 	C 	0.0744	0.9351	0.6445	0.068
Mof_H 	H 	0.0398	0.9147	0.6619	-0.01
Mof_C 	C 	0.1855	0.7457	0.5781	0.336
Mof_C 	C 	0.0865	0.7195	0.89728	0.509
Mof_C 	C 	0.0966	0.7992	0.8678	-0.487
Mof_H 	H 	0.1447	0.8363	0.861	0.237
Mof_C 	C 	0.0218	0.8157	0.8496	0.513
Mof_C 	C 	0.9538	0.7671	0.8595	-0.593
Mof_H 	H 	0.9088	0.7787	0.8461	0.281
Mof_C 	C 	0.9483	0.7	0.8892	0.512
Mof_H 	H 	0.8991	0.6713	0.897	-0.131
Mof_C 	C 	0.0164	0.6744	0.908	-0.586
Mof_H 	H 	0.0131	0.6256	0.928	0.236
Mof_O 	O 	0.1548	0.7052	0.91656	-0.38
Mof_O 	O 	0.1804	0.5107	0.8917	-0.271
Mof_N 	N 	0.3989	0.5699	0.97398	-0.243
Mof_C 	C 	0.3466	0.6706	0.9773	0.079
Mof_H 	H 	0.3548	0.7352	0.9942	-0.012
Mof_C 	C 	0.2831	0.6837	0.9575	-0.111
Mof_H 	H 	0.2488	0.7581	0.9599	0.083
Mof_C 	C 	0.2694	0.5858	0.93378	0.004
Mof_C 	C 	0.3204	0.4805	0.931	-0.12
Mof_H 	H 	0.3114	0.4121	0.915	0.094
Mof_C 	C 	0.3818	0.4744	0.9504	0.086
Mof_H 	H 	0.4162	0.4002	0.948	-0.019
Mof_C 	C 	0.1962	0.5939	0.91195	0.33
Mof_O 	O 	0.1261	0.767	0.7976	-0.26
Mof_N 	N 	0.0618	0.1051	0.70977	-0.247
Mof_O 	O 	0.0269	0.8903	0.82025	-0.347
Mof_C 	C 	0.0009	0.0884	0.7294	0.085
Mof_H 	H 	0.9531	0.1283	0.7227	-0.012
Mof_C 	C 	0.0016	0.018	0.7587	-0.153
Mof_H 	H 	0.9579	0.0151	0.7728	0.118
Mof_C 	C 	0.0712	0.9511	0.7662	0.041
Mof_C 	C 	0.1345	0.9667	0.7458	-0.125
Mof_H 	H 	0.1826	0.9242	0.7509	0.093
Mof_C 	C 	0.127	0.0434	0.7185	0.093
Mof_H 	H 	0.1711	0.0535	0.7047	-0.017
Mof_C 	C 	0.0799	0.8604	0.7964	0.301
Mof_C 	C 	0.7644	0.7556	0.7693	0.535
Mof_C 	C 	0.7298	0.7072	0.7982	-0.556
Mof_H 	H 	0.7341	0.6153	0.8045	0.254
Mof_C 	C 	0.6886	0.8009	0.81724	0.521
Mof_C 	C 	0.6755	0.9298	0.8079	-0.495
Mof_H 	H 	0.645	0.9884	0.8211	0.248
Mof_C 	C 	0.71	0.978	0.7765	0.417
Mof_H 	H 	0.701	0.0665	0.7683	-0.106
Mof_C 	C 	0.7564	0.8846	0.7599	-0.548
Mof_H 	H 	0.7836	0.9141	0.7409	0.227
Mof_N 	N 	0.5593	0.6023	0.95667	-0.245
Mof_O 	O 	0.6501	0.7583	0.84668	-0.356
Mof_O 	O 	0.7627	0.6776	0.8687	-0.26
Mof_C 	C 	0.6208	0.5347	0.9488	0.097
Mof_H 	H 	0.637	0.4631	0.9628	-0.017
Mof_C 	C 	0.666	0.5627	0.9199	-0.117
Mof_H 	H 	0.7108	0.5107	0.915	0.088
Mof_C 	C 	0.6435	0.663	0.90029	0.017
Mof_C 	C 	0.5755	0.7424	0.9089	-0.11
Mof_H 	H 	0.558	0.8161	0.8959	0.1
Mof_C 	C 	0.5376	0.703	0.9376	0.092
Mof_H 	H 	0.4928	0.7527	0.9439	-0.018
Mof_C 	C 	0.6912	0.7012	0.8699	0.319
Mof_N 	N 	0.9966	0.3642	0.69297	-0.222
Mof_O 	O 	0.8071	0.6628	0.74943	-0.375
Mof_O 	O 	0.9182	0.7213	0.7753	-0.258
Mof_C 	C 	0.0376	0.432	0.7162	0.052
Mof_H 	H 	0.0917	0.4147	0.7186	-0.01
Mof_C 	C 	0.0022	0.5282	0.7371	-0.098
Mof_H 	H 	0.0317	0.5748	0.7534	0.085
Mof_C 	C 	0.9216	0.5528	0.733	-0.012
Mof_C 	C 	0.8854	0.4838	0.70918	-0.078
Mof_H 	H 	0.8314	0.5006	0.7062	0.071
Mof_C 	C 	0.9185	0.3913	0.6886	0.049
Mof_H 	H 	0.8888	0.3473	0.672	-0.003
Mof_C 	C 	0.8851	0.6538	0.7549	0.32
Mof_Cu	Cu	0.94977	0.21487	0.33335	0.857
Mof_C 	C 	0.8365	0.3794	0.4842	0.537
Mof_C 	C 	0.8638	0.4884	0.4654	-0.548
Mof_H 	H 	0.9072	0.5413	0.4721	0.256
Mof_C 	C 	0.8218	0.5143	0.4354	0.544
Mof_C 	C 	0.7641	0.4328	0.4251	-0.584
Mof_H 	H 	0.7406	0.4494	0.4043	0.235
Mof_C 	C 	0.737	0.3233	0.4442	0.482
Mof_H 	H 	0.6936	0.2709	0.4372	-0.123
Mof_C 	C 	0.7765	0.2955	0.4734	-0.558
Mof_H 	H 	0.7625	0.219	0.4861	0.265
Mof_O 	O 	0.8773	0.3444	0.51332	-0.373
Mof_O 	O 	0.8618	0.549	0.5358	-0.282
Mof_N 	N 	0.0027	0.2863	0.62333	-0.248
Mof_C 	C 	0.9619	0.2026	0.6039	0.093
Mof_H 	H 	0.9582	0.1108	0.6104	-0.019
Mof_C 	C 	0.9253	0.2406	0.5754	-0.1
Mof_H 	H 	0.8982	0.1767	0.5622	0.094
Mof_C 	C 	0.9289	0.3761	0.5662	-0.003
Mof_C 	C 	0.9671	0.4678	0.5869	-0.088
Mof_H 	H 	0.9694	0.5613	0.5819	0.082
Mof_C 	C 	0.0018	0.4149	0.61539	0.069
Mof_H 	H 	0.0264	0.4763	0.6301	-0.011
Mof_C 	C 	0.8868	0.4357	0.5363	0.354
Mof_N 	N 	0.9023	0.0621	0.35913	-0.236
Mof_O 	O 	0.8481	0.6282	0.41757	-0.391
Mof_O 	O 	0.761	0.7644	0.4417	-0.258
Mof_C 	C 	0.8477	0.0865	0.383	0.016
Mof_H 	H 	0.8307	0.1766	0.3863	0.005
Mof_C 	C 	0.8162	0.9845	0.4026	-0.027
Mof_H 	H 	0.7749	0.0026	0.4173	0.053
Mof_C 	C 	0.8472	0.8556	0.39965	-0.038
Mof_C 	C 	0.9012	0.8283	0.3764	-0.075
Mof_H 	H 	0.9222	0.7402	0.3742	0.072
Mof_C 	C 	0.9256	0.9351	0.3555	0.07
Mof_H 	H 	0.9602	0.9147	0.3381	-0.006
Mof_C 	C 	0.8145	0.7457	0.4219	0.336
Mof_C 	C 	0.9135	0.7195	0.10272	0.501
Mof_C 	C 	0.9034	0.7992	0.1322	-0.49
Mof_H 	H 	0.8553	0.8363	0.139	0.238
Mof_C 	C 	0.9782	0.8157	0.1504	0.541
Mof_C 	C 	0.0462	0.7671	0.1405	-0.619
Mof_H 	H 	0.0912	0.7787	0.1539	0.286
Mof_C 	C 	0.0517	0.7	0.1108	0.485
Mof_H 	H 	0.1009	0.6713	0.103	-0.126
Mof_C 	C 	0.9836	0.6744	0.092	-0.55
Mof_H 	H 	0.9869	0.6256	0.072	0.229
Mof_O 	O 	0.8452	0.7052	0.08344	-0.377
Mof_O 	O 	0.8196	0.5107	0.1083	-0.27
Mof_N 	N 	0.6011	0.5699	0.02602	-0.246
Mof_C 	C 	0.6534	0.6706	0.0227	0.079
Mof_H 	H 	0.6452	0.7352	0.0058	-0.016
Mof_C 	C 	0.7169	0.6837	0.0425	-0.112
Mof_H 	H 	0.7512	0.7581	0.0401	0.083
Mof_C 	C 	0.7306	0.5858	0.06622	0.004
Mof_C 	C 	0.6796	0.4805	0.069	-0.122
Mof_H 	H 	0.6886	0.4121	0.085	0.094
Mof_C 	C 	0.6182	0.4744	0.0496	0.086
Mof_H 	H 	0.5838	0.4002	0.052	-0.02
Mof_C 	C 	0.8038	0.5939	0.08805	0.329
Mof_O 	O 	0.8739	0.767	0.2024	-0.262
Mof_N 	N 	0.9382	0.1051	0.29023	-0.247
Mof_O 	O 	0.9731	0.8903	0.17975	-0.347
Mof_C 	C 	0.9991	0.0884	0.2706	0.105
Mof_H 	H 	0.0469	0.1283	0.2773	-0.033
Mof_C 	C 	0.9984	0.018	0.2413	-0.112
Mof_H 	H 	0.0421	0.0151	0.2272	0.088
Mof_C 	C 	0.9288	0.9511	0.2338	0.024
Mof_C 	C 	0.8655	0.9667	0.2542	-0.114
Mof_H 	H 	0.8174	0.9242	0.2491	0.089
Mof_C 	C 	0.873	0.0434	0.2815	0.087
Mof_H 	H 	0.8289	0.0535	0.2953	-0.015
Mof_C 	C 	0.9201	0.8604	0.2036	0.312
Mof_C 	C 	0.2356	0.7556	0.2307	0.536
Mof_C 	C 	0.2702	0.7072	0.2018	-0.557
Mof_H 	H 	0.2659	0.6153	0.1955	0.254
Mof_C 	C 	0.3114	0.8009	0.18276	0.522
Mof_C 	C 	0.3245	0.9298	0.1921	-0.497
Mof_H 	H 	0.355	0.9884	0.1789	0.248
Mof_C 	C 	0.29	0.978	0.2235	0.419
Mof_H 	H 	0.299	0.0665	0.2317	-0.108
Mof_C 	C 	0.2436	0.8846	0.2401	-0.55
Mof_H 	H 	0.2164	0.9141	0.2591	0.226
Mof_N 	N 	0.4407	0.6023	0.04333	-0.248
Mof_O 	O 	0.3499	0.7583	0.15332	-0.357
Mof_O 	O 	0.2373	0.6776	0.1313	-0.262
Mof_C 	C 	0.3792	0.5347	0.0512	0.096
Mof_H 	H 	0.363	0.4631	0.0372	-0.02
Mof_C 	C 	0.334	0.5627	0.0801	-0.117
Mof_H 	H 	0.2892	0.5107	0.085	0.087
Mof_C 	C 	0.3565	0.663	0.09971	0.016
Mof_C 	C 	0.4245	0.7424	0.0911	-0.111
Mof_H 	H 	0.442	0.8161	0.1041	0.1
Mof_C 	C 	0.4624	0.703	0.0624	0.091
Mof_H 	H 	0.5072	0.7527	0.0561	-0.019
Mof_C 	C 	0.3088	0.7012	0.1301	0.319
Mof_N 	N 	0.0034	0.3642	0.30703	-0.235
Mof_O 	O 	0.1929	0.6628	0.25057	-0.379
Mof_O 	O 	0.0818	0.7213	0.2247	-0.271
Mof_C 	C 	0.9624	0.432	0.2838	0.06
Mof_H 	H 	0.9083	0.4147	0.2814	-0.011
Mof_C 	C 	0.9978	0.5282	0.2629	-0.061
Mof_H 	H 	0.9683	0.5748	0.2466	0.077
Mof_C 	C 	0.0784	0.5528	0.267	-0.052
Mof_C 	C 	0.1146	0.4838	0.29082	-0.056
Mof_H 	H 	0.1686	0.5006	0.2938	0.063
Mof_C 	C 	0.0815	0.3913	0.3114	0.032
Mof_H 	H 	0.1112	0.3473	0.328	-0.001
Mof_C 	C 	0.1149	0.6538	0.2451	0.333
Mof_Cu	Cu	0.5	0.56478	-0	0.853
_end
