data_functionalizedCrystal
_audit_creation_method	'EQeq! by Chris Wilmer'
_symmetry_space_group_name_H-M	'P1'
_symmetry_Int_Tables_number	1
_symmetry_cell_setting	triclinic
loop_
_symmetry_equiv_pos_as_xyz
  x,y,z
_cell_length_a	9.1683
_cell_length_b	9.1683
_cell_length_c	16.0239
_cell_angle_alpha	73.8979
_cell_angle_beta	73.8979
_cell_angle_gamma	72.323
loop_
_atom_site_label
_atom_site_type_symbol
_atom_site_fract_x
_atom_site_fract_y
_atom_site_fract_z
_atom_site_charge
Mof_Cd	Cd	0.75199	0.66863	0.15939	0.398
Mof_Cd	Cd	0.33137	0.24801	0.34061	0.398
Mof_Cd	Cd	0.24801	0.33137	0.84061	0.398
Mof_Cd	Cd	0.66863	0.75199	0.65939	0.398
Mof_Cd	Cd	0.01399	0.98601	0.25	0.436
Mof_Cd	Cd	0.98601	0.01399	0.75	0.436
Mof_H 	H 	0.6336	0.7312	0.9726	0.07
Mof_H 	H 	0.3934	0.8466	0.2583	0.021
Mof_H 	H 	0.1151	0.0289	0.0231	0.07
Mof_H 	H 	0.2688	0.3664	0.5274	0.071
Mof_H 	H 	0.1534	0.6066	0.2417	0.021
Mof_H 	H 	0.9711	0.8849	0.4769	0.07
Mof_H 	H 	0.3664	0.2688	0.0274	0.07
Mof_H 	H 	0.6066	0.1534	0.7417	0.021
Mof_H 	H 	0.8849	0.9711	0.9769	0.07
Mof_H 	H 	0.7312	0.6336	0.4726	0.071
Mof_H 	H 	0.8466	0.3934	0.7583	0.021
Mof_H 	H 	0.0289	0.1151	0.5231	0.07
Mof_C 	C 	0.5278	0.8056	0.8256	0.278
Mof_C 	C 	0.4475	0.8441	0.9144	-0.023
Mof_C 	C 	0.5306	0.7904	0.9825	-0.075
Mof_C 	C 	0.4575	0.8265	0.0651	0.057
Mof_C 	C 	0.3888	0.8538	0.2	0.103
Mof_C 	C 	0.3028	0.9134	0.0808	0.063
Mof_C 	C 	0.2183	0.9701	0.0129	-0.086
Mof_C 	C 	0.2921	0.9363	0.9307	-0.032
Mof_C 	C 	0.1919	0.9907	0.8625	0.287
Mof_C 	C 	0.1944	0.4722	0.6744	0.278
Mof_C 	C 	0.1559	0.5525	0.5856	-0.022
Mof_C 	C 	0.2096	0.4694	0.5175	-0.076
Mof_C 	C 	0.1735	0.5425	0.4349	0.057
Mof_C 	C 	0.1462	0.6112	0.3	0.103
Mof_C 	C 	0.0866	0.6972	0.4192	0.062
Mof_C 	C 	0.0299	0.7817	0.4871	-0.085
Mof_C 	C 	0.0637	0.7079	0.5693	-0.033
Mof_C 	C 	0.0093	0.8081	0.6375	0.288
Mof_C 	C 	0.4722	0.1944	0.1744	0.278
Mof_C 	C 	0.5525	0.1559	0.0856	-0.023
Mof_C 	C 	0.4694	0.2096	0.0175	-0.075
Mof_C 	C 	0.5425	0.1735	0.9349	0.057
Mof_C 	C 	0.6112	0.1462	0.8	0.103
Mof_C 	C 	0.6972	0.0866	0.9192	0.063
Mof_C 	C 	0.7817	0.0299	0.9871	-0.086
Mof_C 	C 	0.7079	0.0637	0.0693	-0.032
Mof_C 	C 	0.8081	0.0093	0.1375	0.287
Mof_C 	C 	0.8056	0.5278	0.3256	0.278
Mof_C 	C 	0.8441	0.4475	0.4144	-0.022
Mof_C 	C 	0.7904	0.5306	0.4825	-0.076
Mof_C 	C 	0.8265	0.4575	0.5651	0.057
Mof_C 	C 	0.8538	0.3888	0.7	0.103
Mof_C 	C 	0.9134	0.3028	0.5808	0.062
Mof_C 	C 	0.9701	0.2183	0.5129	-0.085
Mof_C 	C 	0.9363	0.2921	0.4307	-0.033
Mof_C 	C 	0.9907	0.1919	0.3625	0.288
Mof_N 	N 	0.5107	0.7897	0.1425	-0.156
Mof_N 	N 	0.2595	0.9293	0.1681	-0.153
Mof_N 	N 	0.2103	0.4893	0.3575	-0.156
Mof_N 	N 	0.0707	0.7405	0.3319	-0.153
Mof_N 	N 	0.4893	0.2103	0.8575	-0.156
Mof_N 	N 	0.7405	0.0707	0.8319	-0.153
Mof_N 	N 	0.7897	0.5107	0.6425	-0.156
Mof_N 	N 	0.9293	0.2595	0.6681	-0.153
Mof_O 	O 	0.642	0.6868	0.8212	-0.248
Mof_O 	O 	0.4828	0.8946	0.7573	-0.255
Mof_O 	O 	0.1432	0.1348	0.8328	-0.276
Mof_O 	O 	0.1533	0.8883	0.8398	-0.262
Mof_O 	O 	0.3132	0.358	0.6788	-0.248
Mof_O 	O 	0.1054	0.5172	0.7427	-0.254
Mof_O 	O 	0.8652	0.8568	0.6672	-0.276
Mof_O 	O 	0.1117	0.8467	0.6602	-0.262
Mof_O 	O 	0.358	0.3132	0.1788	-0.248
Mof_O 	O 	0.5172	0.1054	0.2427	-0.255
Mof_O 	O 	0.8568	0.8652	0.1672	-0.276
Mof_O 	O 	0.8467	0.1117	0.1602	-0.262
Mof_O 	O 	0.6868	0.642	0.3212	-0.248
Mof_O 	O 	0.8946	0.4828	0.2573	-0.254
Mof_O 	O 	0.1348	0.1432	0.3328	-0.276
Mof_O 	O 	0.8883	0.1533	0.3398	-0.262
_end
