# CIF file generated by openbabel 3.1.0, see https://openbabel.org
data_I
_chemical_name_common 'image0'
_cell_length_a 6.885
_cell_length_b 8.5229
_cell_length_c 11.384
_cell_angle_alpha 95.411
_cell_angle_beta 90.8
_cell_angle_gamma 108.87
_space_group_name_H-M_alt 'P 1'
_space_group_name_Hall 'P 1'
loop_
    _symmetry_equiv_pos_as_xyz
    x,y,z
loop_
    _atom_site_label
    _atom_site_type_symbol
    _atom_site_fract_x
    _atom_site_fract_y
    _atom_site_fract_z
    _atom_site_occupancy
    U1       U        0.34297    0.16988    0.32921    1.000
    O1       O        0.97180    0.09040    0.34670    1.000
    O2       O        0.75910    0.08360    0.58950    1.000
    O3       O        0.66120    0.11240    0.34340    1.000
    O4       O        0.79150    0.64510    0.77035    1.000
    O5       O        0.02470    0.53130    0.81941    1.000
    C1       C        0.88360    0.36840    0.56090    1.000
    O6       O        0.67080    0.26340    0.71581    1.000
    C2       C        0.95290    0.53150    0.61610    1.000
    C3       C        0.75960    0.22910    0.62880    1.000
    C4       C        0.84750    0.16620    0.37640    1.000
    C5       C        0.91620    0.56880    0.74520    1.000
    C6       C        0.93060    0.33760    0.44420    1.000
    U2       U        0.65703    0.83012    0.67079    1.000
    O7       O        0.02820    0.90960    0.65330    1.000
    O8       O        0.24090    0.91640    0.41050    1.000
    O9       O        0.33880    0.88760    0.65660    1.000
    O10      O        0.20850    0.35490    0.22965    1.000
    O11      O        0.97530    0.46870    0.18059    1.000
    C7       C        0.11640    0.63160    0.43910    1.000
    O12      O        0.32920    0.73660    0.28419    1.000
    C8       C        0.04710    0.46850    0.38390    1.000
    C9       C        0.24040    0.77090    0.37120    1.000
    C10      C        0.15250    0.83380    0.62360    1.000
    C11      C        0.08380    0.43120    0.25480    1.000
    C12      C        0.06940    0.66240    0.55580    1.000
    Co1      Co       0.00000    0.50000    0.00000    1.000
