# CIF file generated by openbabel 3.1.0, see https://openbabel.org
data_I
_chemical_name_common 'image0'
_cell_length_a 17.074
_cell_length_b 17.074
_cell_length_c 14.606
_cell_angle_alpha 90
_cell_angle_beta 90
_cell_angle_gamma 90
_space_group_name_H-M_alt 'P 1'
_space_group_name_Hall 'P 1'
loop_
    _symmetry_equiv_pos_as_xyz
    x,y,z
loop_
    _atom_site_label
    _atom_site_type_symbol
    _atom_site_fract_x
    _atom_site_fract_y
    _atom_site_fract_z
    _atom_site_occupancy
    N1       N        0.66110    0.22230    0.16060    1.000
    N2       N        0.34890    0.21410    0.84020    1.000
    C1       C        0.33590    0.19580    0.92660    1.000
    H1       H        0.28490    0.18490    0.94480    1.000
    C2       C        0.39580    0.19230    0.99230    1.000
    H2       H        0.38400    0.18080    0.05300    1.000
    C3       C        0.47060    0.20560    0.96690    1.000
    C4       C        0.48470    0.22490    0.87510    1.000
    H3       H        0.53530    0.23590    0.85550    1.000
    C5       C        0.42320    0.22750    0.81390    1.000
    H4       H        0.43340    0.23870    0.75280    1.000
    C6       C        0.58700    0.23700    0.18330    1.000
    H5       H        0.57710    0.25270    0.24310    1.000
    C7       C        0.52460    0.23090    0.12580    1.000
    H6       H        0.47430    0.24070    0.14740    1.000
    C8       C        0.53600    0.20990    0.03430    1.000
    C9       C        0.61170    0.18750    0.01180    1.000
    H7       H        0.62220    0.16760    0.95390    1.000
    C10      C        0.67120    0.19460    0.07400    1.000
    H8       H        0.72130    0.17960    0.05620    1.000
    O1       O        0.82950    0.18230    0.18170    1.000
    O2       O        0.99100    0.12980    0.18190    1.000
    O3       O        0.94110    0.18570    0.03850    1.000
    O4       O        0.87110    0.01990    0.18160    1.000
    O5       O        0.82030    0.07310    0.03670    1.000
    O6       O        0.13290    0.12020    0.12270    1.000
    V1       V        0.88776    0.12203    0.12782    1.000
    V2       V        0.04842    0.18458    0.08916    1.000
    V3       V        0.81163    0.96783    0.08669    1.000
    V4       V        0.07144    0.06536    0.23017    1.000
    N3       N        0.33890    0.77770    0.16060    1.000
    N4       N        0.65110    0.78590    0.84020    1.000
    C11      C        0.66410    0.80420    0.92660    1.000
    H9       H        0.71510    0.81510    0.94480    1.000
    C12      C        0.60420    0.80770    0.99230    1.000
    H10      H        0.61600    0.81920    0.05300    1.000
    C13      C        0.52940    0.79440    0.96690    1.000
    C14      C        0.51530    0.77510    0.87510    1.000
    H11      H        0.46470    0.76410    0.85550    1.000
    C15      C        0.57680    0.77250    0.81390    1.000
    H12      H        0.56660    0.76130    0.75280    1.000
    C16      C        0.41300    0.76300    0.18330    1.000
    H13      H        0.42290    0.74730    0.24310    1.000
    C17      C        0.47540    0.76910    0.12580    1.000
    H14      H        0.52570    0.75930    0.14740    1.000
    C18      C        0.46400    0.79010    0.03430    1.000
    C19      C        0.38830    0.81250    0.01180    1.000
    H15      H        0.37780    0.83240    0.95390    1.000
    C20      C        0.32880    0.80540    0.07400    1.000
    H16      H        0.27870    0.82040    0.05620    1.000
    O7       O        0.17050    0.81770    0.18170    1.000
    O8       O        0.00900    0.87020    0.18190    1.000
    O9       O        0.05890    0.81430    0.03850    1.000
    O10      O        0.12890    0.98010    0.18160    1.000
    O11      O        0.17970    0.92690    0.03670    1.000
    O12      O        0.86710    0.87980    0.12270    1.000
    V5       V        0.11224    0.87797    0.12782    1.000
    V6       V        0.95158    0.81542    0.08916    1.000
    V7       V        0.18837    0.03217    0.08669    1.000
    V8       V        0.92856    0.93464    0.23017    1.000
    N5       N        0.22230    0.33890    0.83940    1.000
    N6       N        0.21410    0.65110    0.15980    1.000
    C21      C        0.19580    0.66410    0.07340    1.000
    H17      H        0.18490    0.71510    0.05520    1.000
    C22      C        0.19230    0.60420    0.00770    1.000
    H18      H        0.18080    0.61600    0.94700    1.000
    C23      C        0.20560    0.52940    0.03310    1.000
    C24      C        0.22490    0.51530    0.12490    1.000
    H19      H        0.23590    0.46470    0.14450    1.000
    C25      C        0.22750    0.57680    0.18610    1.000
    H20      H        0.23870    0.56660    0.24720    1.000
    C26      C        0.23700    0.41300    0.81670    1.000
    H21      H        0.25270    0.42290    0.75690    1.000
    C27      C        0.23090    0.47540    0.87420    1.000
    H22      H        0.24070    0.52570    0.85260    1.000
    C28      C        0.20990    0.46400    0.96570    1.000
    C29      C        0.18750    0.38830    0.98820    1.000
    H23      H        0.16760    0.37780    0.04610    1.000
    C30      C        0.19460    0.32880    0.92600    1.000
    H24      H        0.17960    0.27870    0.94380    1.000
    O13      O        0.18230    0.17050    0.81830    1.000
    O14      O        0.12980    0.00900    0.81810    1.000
    O15      O        0.18570    0.05890    0.96150    1.000
    O16      O        0.01990    0.12890    0.81840    1.000
    O17      O        0.07310    0.17970    0.96330    1.000
    O18      O        0.12020    0.86710    0.87730    1.000
    V9       V        0.12203    0.11224    0.87218    1.000
    V10      V        0.18458    0.95158    0.91084    1.000
    V11      V        0.96783    0.18837    0.91331    1.000
    V12      V        0.06536    0.92856    0.76983    1.000
    N7       N        0.77770    0.66110    0.83940    1.000
    N8       N        0.78590    0.34890    0.15980    1.000
    C31      C        0.80420    0.33590    0.07340    1.000
    H25      H        0.81510    0.28490    0.05520    1.000
    C32      C        0.80770    0.39580    0.00770    1.000
    H26      H        0.81920    0.38400    0.94700    1.000
    C33      C        0.79440    0.47060    0.03310    1.000
    C34      C        0.77510    0.48470    0.12490    1.000
    H27      H        0.76410    0.53530    0.14450    1.000
    C35      C        0.77250    0.42320    0.18610    1.000
    H28      H        0.76130    0.43340    0.24720    1.000
    C36      C        0.76300    0.58700    0.81670    1.000
    H29      H        0.74730    0.57710    0.75690    1.000
    C37      C        0.76910    0.52460    0.87420    1.000
    H30      H        0.75930    0.47430    0.85260    1.000
    C38      C        0.79010    0.53600    0.96570    1.000
    C39      C        0.81250    0.61170    0.98820    1.000
    H31      H        0.83240    0.62220    0.04610    1.000
    C40      C        0.80540    0.67120    0.92600    1.000
    H32      H        0.82040    0.72130    0.94380    1.000
    O19      O        0.81770    0.82950    0.81830    1.000
    O20      O        0.87020    0.99100    0.81810    1.000
    O21      O        0.81430    0.94110    0.96150    1.000
    O22      O        0.98010    0.87110    0.81840    1.000
    O23      O        0.92690    0.82030    0.96330    1.000
    O24      O        0.87980    0.13290    0.87730    1.000
    V13      V        0.87797    0.88776    0.87218    1.000
    V14      V        0.81542    0.04842    0.91084    1.000
    V15      V        0.03217    0.81163    0.91331    1.000
    V16      V        0.93464    0.07144    0.76983    1.000
    N9       N        0.16110    0.27770    0.66060    1.000
    N10      N        0.84890    0.28590    0.34020    1.000
    C41      C        0.83590    0.30420    0.42660    1.000
    H33      H        0.78490    0.31510    0.44480    1.000
    C42      C        0.89580    0.30770    0.49230    1.000
    H34      H        0.88400    0.31920    0.55300    1.000
    C43      C        0.97060    0.29440    0.46690    1.000
    C44      C        0.98470    0.27510    0.37510    1.000
    H35      H        0.03530    0.26410    0.35550    1.000
    C45      C        0.92320    0.27250    0.31390    1.000
    H36      H        0.93340    0.26130    0.25280    1.000
    C46      C        0.08700    0.26300    0.68330    1.000
    H37      H        0.07710    0.24730    0.74310    1.000
    C47      C        0.02460    0.26910    0.62580    1.000
    H38      H        0.97430    0.25930    0.64740    1.000
    C48      C        0.03600    0.29010    0.53430    1.000
    C49      C        0.11170    0.31250    0.51180    1.000
    H39      H        0.12220    0.33240    0.45390    1.000
    C50      C        0.17120    0.30540    0.57400    1.000
    H40      H        0.22130    0.32040    0.55620    1.000
    O25      O        0.32950    0.31770    0.68170    1.000
    O26      O        0.49100    0.37020    0.68190    1.000
    O27      O        0.44110    0.31430    0.53850    1.000
    O28      O        0.37110    0.48010    0.68160    1.000
    O29      O        0.32030    0.42690    0.53670    1.000
    O30      O        0.63290    0.37980    0.62270    1.000
    V17      V        0.38776    0.37797    0.62782    1.000
    V18      V        0.54842    0.31542    0.58916    1.000
    V19      V        0.31163    0.53217    0.58669    1.000
    V20      V        0.57144    0.43464    0.73017    1.000
    N11      N        0.83890    0.72230    0.66060    1.000
    N12      N        0.15110    0.71410    0.34020    1.000
    C51      C        0.16410    0.69580    0.42660    1.000
    H41      H        0.21510    0.68490    0.44480    1.000
    C52      C        0.10420    0.69230    0.49230    1.000
    H42      H        0.11600    0.68080    0.55300    1.000
    C53      C        0.02940    0.70560    0.46690    1.000
    C54      C        0.01530    0.72490    0.37510    1.000
    H43      H        0.96470    0.73590    0.35550    1.000
    C55      C        0.07680    0.72750    0.31390    1.000
    H44      H        0.06660    0.73870    0.25280    1.000
    C56      C        0.91300    0.73700    0.68330    1.000
    H45      H        0.92290    0.75270    0.74310    1.000
    C57      C        0.97540    0.73090    0.62580    1.000
    H46      H        0.02570    0.74070    0.64740    1.000
    C58      C        0.96400    0.70990    0.53430    1.000
    C59      C        0.88830    0.68750    0.51180    1.000
    H47      H        0.87780    0.66760    0.45390    1.000
    C60      C        0.82880    0.69460    0.57400    1.000
    H48      H        0.77870    0.67960    0.55620    1.000
    O31      O        0.67050    0.68230    0.68170    1.000
    O32      O        0.50900    0.62980    0.68190    1.000
    O33      O        0.55890    0.68570    0.53850    1.000
    O34      O        0.62890    0.51990    0.68160    1.000
    O35      O        0.67970    0.57310    0.53670    1.000
    O36      O        0.36710    0.62020    0.62270    1.000
    V21      V        0.61224    0.62203    0.62782    1.000
    V22      V        0.45158    0.68458    0.58916    1.000
    V23      V        0.68837    0.46783    0.58669    1.000
    V24      V        0.42856    0.56536    0.73017    1.000
    N13      N        0.72230    0.16110    0.33940    1.000
    N14      N        0.71410    0.84890    0.65980    1.000
    C61      C        0.69580    0.83590    0.57340    1.000
    H49      H        0.68490    0.78490    0.55520    1.000
    C62      C        0.69230    0.89580    0.50770    1.000
    H50      H        0.68080    0.88400    0.44700    1.000
    C63      C        0.70560    0.97060    0.53310    1.000
    C64      C        0.72490    0.98470    0.62490    1.000
    H51      H        0.73590    0.03530    0.64450    1.000
    C65      C        0.72750    0.92320    0.68610    1.000
    H52      H        0.73870    0.93340    0.74720    1.000
    C66      C        0.73700    0.08700    0.31670    1.000
    H53      H        0.75270    0.07710    0.25690    1.000
    C67      C        0.73090    0.02460    0.37420    1.000
    H54      H        0.74070    0.97430    0.35260    1.000
    C68      C        0.70990    0.03600    0.46570    1.000
    C69      C        0.68750    0.11170    0.48820    1.000
    H55      H        0.66760    0.12220    0.54610    1.000
    C70      C        0.69460    0.17120    0.42600    1.000
    H56      H        0.67960    0.22130    0.44380    1.000
    O37      O        0.68230    0.32950    0.31830    1.000
    O38      O        0.62980    0.49100    0.31810    1.000
    O39      O        0.68570    0.44110    0.46150    1.000
    O40      O        0.51990    0.37110    0.31840    1.000
    O41      O        0.57310    0.32030    0.46330    1.000
    O42      O        0.62020    0.63290    0.37730    1.000
    V25      V        0.62203    0.38776    0.37218    1.000
    V26      V        0.68458    0.54842    0.41084    1.000
    V27      V        0.46783    0.31163    0.41331    1.000
    V28      V        0.56536    0.57144    0.26983    1.000
    N15      N        0.27770    0.83890    0.33940    1.000
    N16      N        0.28590    0.15110    0.65980    1.000
    C71      C        0.30420    0.16410    0.57340    1.000
    H57      H        0.31510    0.21510    0.55520    1.000
    C72      C        0.30770    0.10420    0.50770    1.000
    H58      H        0.31920    0.11600    0.44700    1.000
    C73      C        0.29440    0.02940    0.53310    1.000
    C74      C        0.27510    0.01530    0.62490    1.000
    H59      H        0.26410    0.96470    0.64450    1.000
    C75      C        0.27250    0.07680    0.68610    1.000
    H60      H        0.26130    0.06660    0.74720    1.000
    C76      C        0.26300    0.91300    0.31670    1.000
    H61      H        0.24730    0.92290    0.25690    1.000
    C77      C        0.26910    0.97540    0.37420    1.000
    H62      H        0.25930    0.02570    0.35260    1.000
    C78      C        0.29010    0.96400    0.46570    1.000
    C79      C        0.31250    0.88830    0.48820    1.000
    H63      H        0.33240    0.87780    0.54610    1.000
    C80      C        0.30540    0.82880    0.42600    1.000
    H64      H        0.32040    0.77870    0.44380    1.000
    O43      O        0.31770    0.67050    0.31830    1.000
    O44      O        0.37020    0.50900    0.31810    1.000
    O45      O        0.31430    0.55890    0.46150    1.000
    O46      O        0.48010    0.62890    0.31840    1.000
    O47      O        0.42690    0.67970    0.46330    1.000
    O48      O        0.37980    0.36710    0.37730    1.000
    V29      V        0.37797    0.61224    0.37218    1.000
    V30      V        0.31542    0.45158    0.41084    1.000
    V31      V        0.53217    0.68837    0.41331    1.000
    V32      V        0.43464    0.42856    0.26983    1.000
    O49      O        0.00000    0.00000    0.28320    1.000
    O50      O        0.00000    0.00000    0.71680    1.000
    O51      O        0.50000    0.50000    0.78320    1.000
    O52      O        0.50000    0.50000    0.21680    1.000
    Ni1      Ni       0.75467    0.25467    0.25000    1.000
    Ni2      Ni       0.24533    0.74533    0.25000    1.000
    Ni3      Ni       0.25467    0.24533    0.75000    1.000
    Ni4      Ni       0.74533    0.75467    0.75000    1.000
