# CIF file generated by openbabel 3.1.0, see https://openbabel.org
data_I
_chemical_name_common 'image0'
_cell_length_a 14.7325
_cell_length_b 12.999
_cell_length_c 12.7787
_cell_angle_alpha 90
_cell_angle_beta 104.975
_cell_angle_gamma 90
_space_group_name_H-M_alt 'P 1'
_space_group_name_Hall 'P 1'
loop_
    _symmetry_equiv_pos_as_xyz
    x,y,z
loop_
    _atom_site_label
    _atom_site_type_symbol
    _atom_site_fract_x
    _atom_site_fract_y
    _atom_site_fract_z
    _atom_site_occupancy
    Er1      Er       0.23523    0.06807    0.81115    1.000
    O1       O        0.38380    0.04740    0.76780    1.000
    O2       O        0.38350    0.02300    0.93070    1.000
    O3       O        0.20670    0.19050    0.93150    1.000
    O4       O        0.18740    0.05730    0.62030    1.000
    O5       O        0.18780    0.01800    0.45240    1.000
    O6       O        0.25650    0.22890    0.74540    1.000
    O7       O        0.27320    0.39420    0.72490    1.000
    O8       O        0.07620    0.08580    0.76790    1.000
    C1       C        0.42390    0.02320    0.86080    1.000
    H1       H        0.48700    0.00460    0.87730    1.000
    C2       C        0.22350    0.01750    0.55320    1.000
    H2       H        0.28120    0.98480    0.57890    1.000
    C3       C        0.22980    0.31820    0.74030    1.000
    H3       H        0.16990    0.32950    0.74910    1.000
    O9       O        0.22240    0.31960    0.04640    1.000
    H4       H        0.18470    0.26600    0.97300    1.000
    Er2      Er       0.73523    0.56807    0.81115    1.000
    O10      O        0.88380    0.54740    0.76780    1.000
    O11      O        0.88350    0.52300    0.93070    1.000
    O12      O        0.70670    0.69050    0.93150    1.000
    O13      O        0.68740    0.55730    0.62030    1.000
    O14      O        0.68780    0.51800    0.45240    1.000
    O15      O        0.75650    0.72890    0.74540    1.000
    O16      O        0.77320    0.89420    0.72490    1.000
    O17      O        0.57620    0.58580    0.76790    1.000
    C4       C        0.92390    0.52320    0.86080    1.000
    H5       H        0.98700    0.50460    0.87730    1.000
    C5       C        0.72350    0.51750    0.55320    1.000
    H6       H        0.78120    0.48480    0.57890    1.000
    C6       C        0.72980    0.81820    0.74030    1.000
    H7       H        0.66990    0.82950    0.74910    1.000
    O18      O        0.72240    0.81960    0.04640    1.000
    H8       H        0.68470    0.76600    0.97300    1.000
    Er3      Er       0.76477    0.06807    0.68885    1.000
    O19      O        0.61620    0.04740    0.73220    1.000
    O20      O        0.61650    0.02300    0.56930    1.000
    O21      O        0.79330    0.19050    0.56850    1.000
    O22      O        0.81260    0.05730    0.87970    1.000
    O23      O        0.81220    0.01800    0.04760    1.000
    O24      O        0.74350    0.22890    0.75460    1.000
    O25      O        0.72680    0.39420    0.77510    1.000
    O26      O        0.92380    0.08580    0.73210    1.000
    C7       C        0.57610    0.02320    0.63920    1.000
    H9       H        0.51300    0.00460    0.62270    1.000
    C8       C        0.77650    0.01750    0.94680    1.000
    H10      H        0.71880    0.98480    0.92110    1.000
    C9       C        0.77020    0.31820    0.75970    1.000
    H11      H        0.83010    0.32950    0.75090    1.000
    O27      O        0.77760    0.31960    0.45360    1.000
    H12      H        0.81530    0.26600    0.52700    1.000
    Er4      Er       0.26477    0.56807    0.68885    1.000
    O28      O        0.11620    0.54740    0.73220    1.000
    O29      O        0.11650    0.52300    0.56930    1.000
    O30      O        0.29330    0.69050    0.56850    1.000
    O31      O        0.31260    0.55730    0.87970    1.000
    O32      O        0.31220    0.51800    0.04760    1.000
    O33      O        0.24350    0.72890    0.75460    1.000
    O34      O        0.22680    0.89420    0.77510    1.000
    O35      O        0.42380    0.58580    0.73210    1.000
    C10      C        0.07610    0.52320    0.63920    1.000
    H13      H        0.01300    0.50460    0.62270    1.000
    C11      C        0.27650    0.51750    0.94680    1.000
    H14      H        0.21880    0.48480    0.92110    1.000
    C12      C        0.27020    0.81820    0.75970    1.000
    H15      H        0.33010    0.82950    0.75090    1.000
    O36      O        0.27760    0.81960    0.45360    1.000
    H16      H        0.31530    0.76600    0.52700    1.000
    Er5      Er       0.76477    0.93193    0.18885    1.000
    O37      O        0.61620    0.95260    0.23220    1.000
    O38      O        0.61650    0.97700    0.06930    1.000
    O39      O        0.79330    0.80950    0.06850    1.000
    O40      O        0.81260    0.94270    0.37970    1.000
    O41      O        0.81220    0.98200    0.54760    1.000
    O42      O        0.74350    0.77110    0.25460    1.000
    O43      O        0.72680    0.60580    0.27510    1.000
    O44      O        0.92380    0.91420    0.23210    1.000
    C13      C        0.57610    0.97680    0.13920    1.000
    H17      H        0.51300    0.99540    0.12270    1.000
    C14      C        0.77650    0.98250    0.44680    1.000
    H18      H        0.71880    0.01520    0.42110    1.000
    C15      C        0.77020    0.68180    0.25970    1.000
    H19      H        0.83010    0.67050    0.25090    1.000
    O45      O        0.77760    0.68040    0.95360    1.000
    H20      H        0.81530    0.73400    0.02700    1.000
    Er6      Er       0.26477    0.43193    0.18885    1.000
    O46      O        0.11620    0.45260    0.23220    1.000
    O47      O        0.11650    0.47700    0.06930    1.000
    O48      O        0.29330    0.30950    0.06850    1.000
    O49      O        0.31260    0.44270    0.37970    1.000
    O50      O        0.31220    0.48200    0.54760    1.000
    O51      O        0.24350    0.27110    0.25460    1.000
    O52      O        0.22680    0.10580    0.27510    1.000
    O53      O        0.42380    0.41420    0.23210    1.000
    C16      C        0.07610    0.47680    0.13920    1.000
    H21      H        0.01300    0.49540    0.12270    1.000
    C17      C        0.27650    0.48250    0.44680    1.000
    H22      H        0.21880    0.51520    0.42110    1.000
    C18      C        0.27020    0.18180    0.25970    1.000
    H23      H        0.33010    0.17050    0.25090    1.000
    O54      O        0.27760    0.18040    0.95360    1.000
    H24      H        0.31530    0.23400    0.02700    1.000
    Er7      Er       0.23523    0.93193    0.31115    1.000
    O55      O        0.38380    0.95260    0.26780    1.000
    O56      O        0.38350    0.97700    0.43070    1.000
    O57      O        0.20670    0.80950    0.43150    1.000
    O58      O        0.18740    0.94270    0.12030    1.000
    O59      O        0.18780    0.98200    0.95240    1.000
    O60      O        0.25650    0.77110    0.24540    1.000
    O61      O        0.27320    0.60580    0.22490    1.000
    O62      O        0.07620    0.91420    0.26790    1.000
    C19      C        0.42390    0.97680    0.36080    1.000
    H25      H        0.48700    0.99540    0.37730    1.000
    C20      C        0.22350    0.98250    0.05320    1.000
    H26      H        0.28120    0.01520    0.07890    1.000
    C21      C        0.22980    0.68180    0.24030    1.000
    H27      H        0.16990    0.67050    0.24910    1.000
    O63      O        0.22240    0.68040    0.54640    1.000
    H28      H        0.18470    0.73400    0.47300    1.000
    Er8      Er       0.73523    0.43193    0.31115    1.000
    O64      O        0.88380    0.45260    0.26780    1.000
    O65      O        0.88350    0.47700    0.43070    1.000
    O66      O        0.70670    0.30950    0.43150    1.000
    O67      O        0.68740    0.44270    0.12030    1.000
    O68      O        0.68780    0.48200    0.95240    1.000
    O69      O        0.75650    0.27110    0.24540    1.000
    O70      O        0.77320    0.10580    0.22490    1.000
    O71      O        0.57620    0.41420    0.26790    1.000
    C22      C        0.92390    0.47680    0.36080    1.000
    H29      H        0.98700    0.49540    0.37730    1.000
    C23      C        0.72350    0.48250    0.05320    1.000
    H30      H        0.78120    0.51520    0.07890    1.000
    C24      C        0.72980    0.18180    0.24030    1.000
    H31      H        0.66990    0.17050    0.24910    1.000
    O72      O        0.72240    0.18040    0.54640    1.000
    H32      H        0.68470    0.23400    0.47300    1.000
    C25      C        0.25000    0.25000    0.00000    1.000
    C26      C        0.75000    0.25000    0.50000    1.000
    C27      C        0.75000    0.75000    0.00000    1.000
    C28      C        0.25000    0.75000    0.50000    1.000
    C29      C        0.00000    0.12630    0.75000    1.000
    H33      H        0.00000    0.19780    0.75000    1.000
    C30      C        0.50000    0.62630    0.75000    1.000
    H34      H        0.50000    0.69780    0.75000    1.000
    C31      C        0.00000    0.87370    0.25000    1.000
    H35      H        0.00000    0.80220    0.25000    1.000
    C32      C        0.50000    0.37370    0.25000    1.000
    H36      H        0.50000    0.30220    0.25000    1.000
