data_functionalizedCrystal
_audit_creation_method	'EQeq! by Chris Wilmer'
_symmetry_space_group_name_H-M	'P1'
_symmetry_Int_Tables_number	1
_symmetry_cell_setting	triclinic
loop_
_symmetry_equiv_pos_as_xyz
  x,y,z
_cell_length_a	8.0674
_cell_length_b	10.006
_cell_length_c	20.4432
_cell_angle_alpha	100.972
_cell_angle_beta	95.065
_cell_angle_gamma	105.053
loop_
_atom_site_label
_atom_site_type_symbol
_atom_site_fract_x
_atom_site_fract_y
_atom_site_fract_z
_atom_site_charge
Mof_In	In	0.11547	0.46939	0.62531	3.039
Mof_In	In	0.90401	0.90585	0.66927	3.048
Mof_In	In	0.65109	0.68307	0.82015	3.111
Mof_In	In	0.02231	0.36439	0.88908	2.667
Mof_P 	P 	0.7536	0.5419	0.9533	0.658
Mof_P 	P 	0.0101	0.6796	0.75263	0.668
Mof_P 	P 	0.9768	0.6793	0.53957	0.645
Mof_P 	P 	0.4858	0.7403	0.67197	0.702
Mof_P 	P 	0.83	0.0212	0.83257	1.04
Mof_H 	H 	0.7132	0.0336	0.8297	-0.314
Mof_O 	O 	0.3623	0.6063	0.6301	-0.738
Mof_O 	O 	0.9482	0.5735	0.5845	-0.735
Mof_O 	O 	0.0794	0.555	0.7248	-0.738
Mof_O 	O 	0.8547	0.6239	0.4739	-0.681
Mof_O 	O 	0.8868	0.2887	0.6189	-0.616
Mof_O 	O 	0.2179	0.3112	0.6648	-0.6
Mof_O 	O 	0.6554	0.7649	0.6426	-0.734
Mof_O 	O 	0.8573	0.0081	0.7634	-0.859
Mof_O 	O 	0.9639	0.8241	0.5745	-0.703
Mof_O 	O 	0.0576	0.8004	0.7167	-0.751
Mof_O 	O 	0.8082	0.0652	0.6296	-0.605
Mof_O 	O 	0.1368	0.09	0.6797	-0.593
Mof_O 	O 	0.8022	0.891	0.861	-0.791
Mof_O 	O 	0.8168	0.6254	0.7548	-0.81
Mof_O 	O 	0.7805	0.6326	0.9017	-0.742
Mof_O 	O 	0.5063	0.743	0.7458	-0.772
Mof_O 	O 	0.4736	0.4671	0.8001	-0.643
Mof_O 	O 	0.4344	0.7051	0.8764	-0.601
Mof_O 	O 	0.8293	0.4184	0.9391	-0.725
Mof_O 	O 	0.9258	0.1475	0.8832	-0.743
Mof_O 	O 	0.816	0.6319	0.024	-0.651
Mof_O 	O 	0.177	0.5831	0.8947	-0.591
Mof_O 	O 	0.2364	0.3403	0.8316	-0.593
Mof_C 	C 	0.3155	0.5935	0.8701	0.283
Mof_C 	C 	0.3445	0.4552	0.83	0.292
Mof_C 	C 	0.9183	0.1823	0.6349	0.294
Mof_C 	C 	0.1073	0.1953	0.6624	0.274
Mof_H 	H 	0.561	0.481	0.942	-0.074
Mof_H 	H 	0.078	0.728	0.813	-0.116
Mof_H 	H 	0.142	0.696	0.522	-0.108
Mof_H 	H 	0.412	0.845	0.661	-0.095
Mof_In	In	0.88453	0.53061	0.37469	3.04
Mof_In	In	0.09599	0.09415	0.33073	3.049
Mof_In	In	0.34891	0.31693	0.17985	3.111
Mof_In	In	0.97769	0.63561	0.11092	2.667
Mof_P 	P 	0.2464	0.4581	0.0467	0.658
Mof_P 	P 	0.9899	0.3204	0.24737	0.668
Mof_P 	P 	0.0232	0.3207	0.46043	0.645
Mof_P 	P 	0.5142	0.2597	0.32803	0.702
Mof_P 	P 	0.17	0.9788	0.16743	1.04
Mof_H 	H 	0.2868	0.9664	0.1703	-0.314
Mof_O 	O 	0.6377	0.3937	0.3699	-0.738
Mof_O 	O 	0.0518	0.4265	0.4155	-0.735
Mof_O 	O 	0.9206	0.445	0.2752	-0.738
Mof_O 	O 	0.1453	0.3761	0.5261	-0.681
Mof_O 	O 	0.1132	0.7113	0.3811	-0.616
Mof_O 	O 	0.7821	0.6888	0.3352	-0.6
Mof_O 	O 	0.3446	0.2351	0.3574	-0.734
Mof_O 	O 	0.1427	0.9919	0.2366	-0.859
Mof_O 	O 	0.0361	0.1759	0.4255	-0.703
Mof_O 	O 	0.9424	0.1996	0.2833	-0.751
Mof_O 	O 	0.1918	0.9348	0.3704	-0.605
Mof_O 	O 	0.8632	0.91	0.3203	-0.593
Mof_O 	O 	0.1978	0.109	0.139	-0.791
Mof_O 	O 	0.1832	0.3746	0.2452	-0.81
Mof_O 	O 	0.2195	0.3674	0.0983	-0.742
Mof_O 	O 	0.4937	0.257	0.2542	-0.772
Mof_O 	O 	0.5264	0.5329	0.1999	-0.643
Mof_O 	O 	0.5656	0.2949	0.1236	-0.601
Mof_O 	O 	0.1707	0.5816	0.0609	-0.725
Mof_O 	O 	0.0742	0.8525	0.1168	-0.743
Mof_O 	O 	0.184	0.3681	0.976	-0.651
Mof_O 	O 	0.823	0.4169	0.1053	-0.591
Mof_O 	O 	0.7636	0.6597	0.1684	-0.593
Mof_C 	C 	0.6845	0.4065	0.1299	0.283
Mof_C 	C 	0.6555	0.5448	0.17	0.292
Mof_C 	C 	0.0817	0.8177	0.3651	0.294
Mof_C 	C 	0.8927	0.8047	0.3376	0.274
Mof_H 	H 	0.439	0.519	0.058	-0.074
Mof_H 	H 	0.922	0.272	0.187	-0.116
Mof_H 	H 	0.858	0.304	0.478	-0.108
Mof_H 	H 	0.588	0.155	0.339	-0.095
_end
