data_functionalizedCrystal
_audit_creation_method	'EQeq! by Chris Wilmer'
_symmetry_space_group_name_H-M	'P1'
_symmetry_Int_Tables_number	1
_symmetry_cell_setting	triclinic
loop_
_symmetry_equiv_pos_as_xyz
  x,y,z
_cell_length_a	27.6841
_cell_length_b	27.6841
_cell_length_c	17.4801
_cell_angle_alpha	90
_cell_angle_beta	90
_cell_angle_gamma	120
loop_
_atom_site_label
_atom_site_type_symbol
_atom_site_fract_x
_atom_site_fract_y
_atom_site_fract_z
_atom_site_charge
Mof_C 	C 	0.65172	0.09463	0.17511	0.237
Mof_C 	C 	0.66905	0.08432	0.1042	-0.232
Mof_H 	H 	0.68299	0.11669	0.06106	0.082
Mof_C 	C 	0.66319	0.03338	0.08035	0.25
Mof_C 	C 	0.77061	0.0513	0.24567	0.27
Mof_C 	C 	0.65551	0.15014	0.18757	-0.042
Mof_C 	C 	0.61309	0.15512	0.22446	-0.037
Mof_H 	H 	0.57602	0.11832	0.2445	0.043
Mof_C 	C 	0.61793	0.20806	0.23308	0.027
Mof_H 	H 	0.58472	0.21153	0.26031	0.012
Mof_N 	N 	0.66385	0.25494	0.20653	-0.196
Mof_C 	C 	0.70585	0.25123	0.17181	0.027
Mof_H 	H 	0.74202	0.28868	0.15119	0.004
Mof_C 	C 	0.70263	0.19947	0.16201	-0.046
Mof_H 	H 	0.73712	0.19818	0.13486	0.037
Mof_C 	C 	0.67501	0.02644	0.99903	-0.028
Mof_C 	C 	0.72891	0.05951	0.96953	-0.04
Mof_H 	H 	0.76195	0.09028	0.0053	0.038
Mof_C 	C 	0.74086	0.05178	0.89413	0.029
Mof_H 	H 	0.78313	0.07635	0.87368	0.015
Mof_N 	N 	0.70031	0.01327	0.84752	-0.192
Mof_C 	C 	0.64723	0.98119	0.87447	0.018
Mof_H 	H 	0.61536	0.95062	0.8373	0.002
Mof_C 	C 	0.63383	0.98657	0.95068	-0.051
Mof_H 	H 	0.59173	0.96018	0.97145	0.045
Mof_C 	C 	0.82567	0.10429	0.2484	-0.048
Mof_C 	C 	0.87648	0.10567	0.23501	-0.04
Mof_H 	H 	0.87787	0.0684	0.22068	0.038
Mof_C 	C 	0.92675	0.15638	0.2384	0.031
Mof_H 	H 	0.9656	0.15705	0.22876	0.015
Mof_N 	N 	0.92712	0.20479	0.25332	-0.185
Mof_C 	C 	0.87877	0.2051	0.26542	0.031
Mof_H 	H 	0.87996	0.24409	0.27674	0.007
Mof_C 	C 	0.82751	0.15525	0.26313	-0.034
Mof_H 	H 	0.78959	0.15658	0.27328	0.051
Mof_O 	O 	0.6344	0.05842	0.22929	-0.355
Mof_O 	O 	0.65009	0.99335	0.12708	-0.368
Mof_O 	O 	0.72788	0.05566	0.23141	-0.37
Mof_C 	C 	0.50039	0.17316	0.39228	-0.05
Mof_C 	C 	0.47013	0.12764	0.34362	0.004
Mof_C 	C 	0.54183	0.17451	0.43955	0.001
Mof_C 	C 	0.48029	0.083	0.34363	-0.089
Mof_C 	C 	0.55259	0.13025	0.43884	-0.089
Mof_C 	C 	0.52149	0.08392	0.3914	0.083
Mof_C 	C 	0.53228	0.03592	0.39076	-0.191
Mof_O 	O 	0.54454	0.29355	0.3873	-0.18
Mof_C 	C 	0.91244	0.55489	0.18272	0.242
Mof_C 	C 	0.92203	0.58254	0.11187	-0.237
Mof_H 	H 	0.88955	0.56397	0.06892	0.088
Mof_C 	C 	0.97204	0.62915	0.08869	0.282
Mof_C 	C 	0.95296	0.71926	0.24806	0.298
Mof_C 	C 	0.85911	0.50037	0.19382	-0.036
Mof_C 	C 	0.82908	0.48841	0.26285	-0.04
Mof_H 	H 	0.84565	0.517	0.31068	0.052
Mof_C 	C 	0.77585	0.44047	0.26897	0.026
Mof_H 	H 	0.75238	0.43235	0.32153	0
Mof_N 	N 	0.75299	0.40483	0.20867	-0.196
Mof_C 	C 	0.78204	0.41433	0.14221	0.031
Mof_H 	H 	0.76363	0.38547	0.09506	0.014
Mof_C 	C 	0.83506	0.46165	0.13361	-0.046
Mof_H 	H 	0.85673	0.46814	0.07972	0.042
Mof_C 	C 	0.97884	0.64832	0.00758	-0.02
Mof_C 	C 	0.94642	0.67013	0.97883	-0.034
Mof_H 	H 	0.91603	0.67275	0.01501	0.037
Mof_C 	C 	0.95434	0.69028	0.90358	0.034
Mof_H 	H 	0.93022	0.70859	0.88345	0.017
Mof_N 	N 	0.99242	0.68779	0.85659	-0.163
Mof_C 	C 	0.02385	0.66587	0.88285	0
Mof_H 	H 	0.05392	0.66401	0.8453	0.008
Mof_C 	C 	0.01825	0.64657	0.95876	-0.065
Mof_H 	H 	0.04414	0.63012	0.97899	0.048
Mof_C 	C 	0.89952	0.7205	0.24962	-0.055
Mof_C 	C 	0.894	0.76162	0.28969	-0.037
Mof_H 	H 	0.92851	0.79439	0.32101	0.04
Mof_C 	C 	0.8425	0.75976	0.29111	0.027
Mof_H 	H 	0.83844	0.79169	0.32122	0.003
Mof_N 	N 	0.79741	0.71814	0.25481	-0.2
Mof_C 	C 	0.80101	0.67717	0.21693	0.026
Mof_H 	H 	0.7646	0.64448	0.18848	0.006
Mof_C 	C 	0.85174	0.67758	0.21361	-0.03
Mof_H 	H 	0.85364	0.64467	0.18264	0.048
Mof_O 	O 	0.94722	0.57605	0.2384	-0.332
Mof_O 	O 	0.01155	0.657	0.13573	-0.387
Mof_O 	O 	0.94881	0.67164	0.24006	-0.364
Mof_O 	O 	0.44067	0.22627	0.32564	-0.167
Mof_O 	O 	0.45609	0.2313	0.48071	-0.17
Mof_C 	C 	0.45073	0.35368	0.19075	0.243
Mof_C 	C 	0.42342	0.33774	0.11949	-0.232
Mof_H 	H 	0.4425	0.32506	0.07569	0.088
Mof_C 	C 	0.37636	0.34091	0.09765	0.246
Mof_C 	C 	0.28831	0.23229	0.24829	0.257
Mof_C 	C 	0.50245	0.34971	0.20188	-0.029
Mof_C 	C 	0.5506	0.39224	0.23735	-0.033
Mof_H 	H 	0.55129	0.4293	0.25866	0.048
Mof_C 	C 	0.59905	0.38765	0.24258	0.042
Mof_H 	H 	0.6366	0.42123	0.26764	0.005
Mof_N 	N 	0.59933	0.34161	0.21512	-0.19
Mof_C 	C 	0.55251	0.29895	0.18361	0.044
Mof_H 	H 	0.55324	0.2625	0.16312	0.009
Mof_C 	C 	0.50389	0.30224	0.17604	-0.035
Mof_H 	H 	0.46752	0.26764	0.15012	0.041
Mof_C 	C 	0.35637	0.32973	0.01628	-0.045
Mof_C 	C 	0.29897	0.29859	0.00044	-0.042
Mof_H 	H 	0.26882	0.28318	0.0466	0.047
Mof_C 	C 	0.28023	0.28539	0.92456	0.031
Mof_H 	H 	0.23605	0.26009	0.91316	0.004
Mof_N 	N 	0.31703	0.30364	0.86512	-0.199
Mof_C 	C 	0.3729	0.3349	0.87855	0.03
Mof_H 	H 	0.40165	0.34903	0.83084	0.006
Mof_C 	C 	0.39352	0.34815	0.95379	-0.041
Mof_H 	H 	0.4381	0.37281	0.9629	0.044
Mof_C 	C 	0.28634	0.17745	0.24652	-0.045
Mof_C 	C 	0.24219	0.12927	0.27967	-0.044
Mof_H 	H 	0.2075	0.13007	0.30683	0.032
Mof_C 	C 	0.24378	0.07956	0.28049	0.028
Mof_H 	H 	0.21019	0.04273	0.3069	0.002
Mof_N 	N 	0.28791	0.07747	0.25	-0.203
Mof_C 	C 	0.33151	0.12345	0.2182	0.032
Mof_H 	H 	0.36642	0.12094	0.19499	0.005
Mof_C 	C 	0.33145	0.17393	0.21567	-0.028
Mof_H 	H 	0.36656	0.21005	0.19013	0.054
Mof_O 	O 	0.43163	0.36971	0.24622	-0.349
Mof_O 	O 	0.34838	0.35118	0.14643	-0.363
Mof_O 	O 	0.33636	0.27567	0.25154	-0.367
Mof_C 	C 	0.09808	0.64809	0.30326	0.23
Mof_C 	C 	0.08761	0.66285	0.3759	-0.218
Mof_H 	H 	0.11888	0.67147	0.41897	0.083
Mof_C 	C 	0.03829	0.66088	0.40011	0.203
Mof_C 	C 	0.05742	0.77152	0.25216	0.264
Mof_C 	C 	0.15341	0.65178	0.28995	-0.034
Mof_C 	C 	0.1588	0.61075	0.24963	-0.039
Mof_H 	H 	0.12239	0.5749	0.22594	0.045
Mof_C 	C 	0.21174	0.6153	0.24229	0.035
Mof_H 	H 	0.21563	0.58296	0.21308	0.008
Mof_N 	N 	0.25804	0.65972	0.27288	-0.193
Mof_C 	C 	0.25395	0.7008	0.30965	0.036
Mof_H 	H 	0.29088	0.73611	0.33271	0.009
Mof_C 	C 	0.20235	0.69777	0.31857	-0.046
Mof_H 	H 	0.20083	0.73141	0.34798	0.038
Mof_C 	C 	0.03074	0.67194	0.48263	-0.072
Mof_C 	C 	0.07642	0.70586	0.53056	-0.04
Mof_H 	H 	0.11887	0.72545	0.50992	0.035
Mof_C 	C 	0.06769	0.71722	0.606	0.02
Mof_H 	H 	0.1033	0.74375	0.64128	0.014
Mof_N 	N 	0.01515	0.69676	0.63426	-0.21
Mof_C 	C 	0.97017	0.66388	0.58931	0.052
Mof_H 	H 	0.92856	0.64813	0.61122	0.008
Mof_C 	C 	0.97703	0.65104	0.51362	-0.001
Mof_H 	H 	0.94041	0.62526	0.47934	0.048
Mof_C 	C 	0.11097	0.82629	0.25379	-0.051
Mof_C 	C 	0.11461	0.87664	0.23005	-0.044
Mof_H 	H 	0.07862	0.87813	0.20928	0.025
Mof_C 	C 	0.1662	0.92619	0.23075	0.024
Mof_H 	H 	0.16877	0.96469	0.21231	-0.005
Mof_N 	N 	0.21328	0.92631	0.25344	-0.204
Mof_C 	C 	0.21149	0.87816	0.27448	0.028
Mof_H 	H 	0.24939	0.87851	0.29	0.001
Mof_C 	C 	0.16074	0.8278	0.27553	-0.034
Mof_H 	H 	0.16057	0.7902	0.29306	0.049
Mof_O 	O 	0.0627	0.63357	0.24845	-0.352
Mof_O 	O 	0.99915	0.65041	0.35263	-0.31
Mof_O 	O 	0.06171	0.72788	0.24877	-0.372
Mof_O 	O 	0.37569	0.73899	0.95897	-0.195
Mof_C 	C 	0.55276	0.90934	0.29578	0.237
Mof_C 	C 	0.57789	0.91941	0.36837	-0.232
Mof_H 	H 	0.55538	0.88796	0.4112	0.086
Mof_C 	C 	0.62628	0.96791	0.39201	0.229
Mof_C 	C 	0.71759	0.94711	0.251	0.259
Mof_C 	C 	0.4989	0.85605	0.2835	-0.043
Mof_C 	C 	0.49139	0.82248	0.21915	-0.037
Mof_H 	H 	0.52263	0.83691	0.17444	0.051
Mof_C 	C 	0.44448	0.76857	0.21443	0.03
Mof_H 	H 	0.43949	0.74235	0.16575	0.011
Mof_N 	N 	0.40585	0.74856	0.27165	-0.196
Mof_C 	C 	0.41125	0.78101	0.33319	0.028
Mof_H 	H 	0.38041	0.76461	0.37814	0.022
Mof_C 	C 	0.45714	0.83493	0.34001	-0.043
Mof_H 	H 	0.46058	0.85941	0.39016	0.039
Mof_C 	C 	0.64489	0.9756	0.47455	-0.053
Mof_C 	C 	0.63131	0.92997	0.52356	-0.044
Mof_H 	H 	0.60695	0.88739	0.50394	0.037
Mof_C 	C 	0.65161	0.93878	0.59887	0.025
Mof_H 	H 	0.64122	0.90321	0.63502	0.01
Mof_N 	N 	0.68573	0.99127	0.62588	-0.207
Mof_C 	C 	0.69956	0.03625	0.58003	0.034
Mof_H 	H 	0.7271	0.07779	0.6011	0.005
Mof_C 	C 	0.67957	0.02933	0.50447	-0.028
Mof_H 	H 	0.69176	0.0659	0.4694	0.048
Mof_C 	C 	0.71972	0.89428	0.25408	-0.048
Mof_C 	C 	0.76666	0.89185	0.22848	-0.043
Mof_H 	H 	0.80315	0.92846	0.20656	0.033
Mof_C 	C 	0.76599	0.841	0.22891	0.027
Mof_H 	H 	0.80208	0.83914	0.20924	0.002
Mof_N 	N 	0.72016	0.79366	0.25341	-0.201
Mof_C 	C 	0.67392	0.7944	0.27795	0.029
Mof_H 	H 	0.63799	0.75616	0.29723	0.003
Mof_C 	C 	0.67276	0.84442	0.27851	-0.035
Mof_H 	H 	0.63548	0.84415	0.29806	0.049
Mof_O 	O 	0.57557	0.94305	0.23964	-0.363
Mof_O 	O 	0.65594	0.00623	0.34402	-0.349
Mof_O 	O 	0.67004	0.94267	0.24064	-0.372
Mof_C 	C 	0.3653	0.79945	0.09106	-0.047
Mof_C 	C 	0.33821	0.80064	0.158	-0.001
Mof_C 	C 	0.41599	0.84598	0.06918	-0
Mof_C 	C 	0.3618	0.84779	0.20456	-0.081
Mof_C 	C 	0.44085	0.89426	0.1141	-0.083
Mof_C 	C 	0.41543	0.89672	0.18201	0.078
Mof_C 	C 	0.44194	0.94819	0.23034	-0.2
Mof_O 	O 	0.32084	0.67933	0.08688	-0.208
Mof_O 	O 	0.27205	0.72247	0.99575	-0.178
Mof_C 	C 	0.36194	0.44989	0.3134	0.239
Mof_C 	C 	0.35076	0.42655	0.38726	-0.232
Mof_H 	H 	0.3455	0.45103	0.43089	0.084
Mof_C 	C 	0.35141	0.37842	0.4111	0.242
Mof_C 	C 	0.23638	0.28442	0.25493	0.256
Mof_C 	C 	0.35744	0.50124	0.29995	-0.039
Mof_C 	C 	0.39341	0.54418	0.25013	-0.039
Mof_H 	H 	0.42627	0.54156	0.22024	0.045
Mof_C 	C 	0.38761	0.59169	0.24041	0.029
Mof_H 	H 	0.41605	0.62516	0.20328	0.004
Mof_N 	N 	0.34678	0.59612	0.27809	-0.197
Mof_C 	C 	0.31077	0.55462	0.32516	0.029
Mof_H 	H 	0.27853	0.55871	0.35432	0.009
Mof_C 	C 	0.3151	0.5069	0.33651	-0.044
Mof_H 	H 	0.28491	0.47434	0.37331	0.037
Mof_C 	C 	0.34107	0.35995	0.49387	-0.039
Mof_C 	C 	0.31285	0.37703	0.54491	-0.048
Mof_H 	H 	0.2979	0.40466	0.52752	0.034
Mof_C 	C 	0.30049	0.35593	0.61966	0.029
Mof_H 	H 	0.27816	0.36896	0.65735	0.009
Mof_N 	N 	0.31414	0.31765	0.64424	-0.198
Mof_C 	C 	0.34168	0.3004	0.59686	0.029
Mof_H 	H 	0.35182	0.26953	0.61672	0.014
Mof_C 	C 	0.35562	0.3211	0.52166	-0.038
Mof_H 	H 	0.37674	0.30593	0.48508	0.066
Mof_C 	C 	0.18149	0.28224	0.25598	-0.048
Mof_C 	C 	0.13708	0.24509	0.2091	-0.046
Mof_H 	H 	0.14142	0.21679	0.17078	0.03
Mof_C 	C 	0.0868	0.2456	0.20989	0.025
Mof_H 	H 	0.05301	0.21755	0.17298	-0.005
Mof_N 	N 	0.08034	0.2816	0.25595	-0.196
Mof_C 	C 	0.12295	0.31882	0.30079	0.024
Mof_H 	H 	0.11727	0.34771	0.33603	0.005
Mof_C 	C 	0.17411	0.31999	0.30142	-0.034
Mof_H 	H 	0.20754	0.34991	0.33752	0.047
Mof_O 	O 	0.37386	0.42757	0.25759	-0.355
Mof_O 	O 	0.35941	0.34841	0.36295	-0.356
Mof_O 	O 	0.27982	0.33215	0.26238	-0.372
Mof_C 	C 	0.35858	0.9064	0.81547	0.236
Mof_C 	C 	0.34185	0.91701	0.88667	-0.225
Mof_H 	H 	0.32762	0.88411	0.92889	0.088
Mof_C 	C 	0.34624	0.96765	0.90982	0.226
Mof_C 	C 	0.23795	0.94858	0.75629	0.237
Mof_C 	C 	0.35437	0.8508	0.80324	-0.034
Mof_C 	C 	0.3981	0.84544	0.77135	-0.037
Mof_H 	H 	0.43648	0.8821	0.75404	0.047
Mof_C 	C 	0.39276	0.79218	0.76443	0.04
Mof_H 	H 	0.42708	0.78826	0.74205	0.011
Mof_N 	N 	0.34499	0.74551	0.78697	-0.191
Mof_C 	C 	0.30141	0.74962	0.81526	0.042
Mof_H 	H 	0.26368	0.7123	0.83226	0.014
Mof_C 	C 	0.3053	0.8017	0.82418	-0.04
Mof_H 	H 	0.26999	0.80353	0.84741	0.043
Mof_C 	C 	0.33582	0.97697	0.99178	-0.041
Mof_C 	C 	0.34312	0.94864	0.05396	-0.056
Mof_H 	H 	0.35888	0.92035	0.04534	0.041
Mof_C 	C 	0.33022	0.9571	0.12891	0.028
Mof_H 	H 	0.33479	0.93449	0.17606	0
Mof_N 	N 	0.31101	0.9929	0.14285	-0.209
Mof_C 	C 	0.30398	0.02115	0.08404	0.036
Mof_H 	H 	0.2875	0.04853	0.09534	0.005
Mof_C 	C 	0.3166	0.01421	0.00847	-0.041
Mof_H 	H 	0.30987	0.03681	0.96306	0.054
Mof_C 	C 	0.18259	0.89634	0.7566	-0.044
Mof_C 	C 	0.13729	0.89202	0.71458	-0.048
Mof_H 	H 	0.14114	0.92698	0.68187	0.029
Mof_C 	C 	0.0869	0.8413	0.71245	0.024
Mof_H 	H 	0.05249	0.83781	0.67889	-0.007
Mof_N 	N 	0.0811	0.79605	0.75121	-0.196
Mof_C 	C 	0.12426	0.79897	0.7923	0.026
Mof_H 	H 	0.1192	0.76258	0.82216	0.007
Mof_C 	C 	0.17562	0.84876	0.79531	-0.036
Mof_H 	H 	0.20961	0.85014	0.82778	0.048
Mof_O 	O 	0.37528	0.94202	0.76065	-0.352
Mof_O 	O 	0.3572	0.00629	0.86128	-0.345
Mof_O 	O 	0.28113	0.94344	0.75554	-0.365
Mof_C 	C 	0.09458	0.44885	0.81728	0.232
Mof_C 	C 	0.08422	0.42395	0.89011	-0.216
Mof_H 	H 	0.11545	0.4468	0.93294	0.081
Mof_C 	C 	0.03582	0.37521	0.91366	0.199
Mof_C 	C 	0.0573	0.28372	0.74801	0.266
Mof_C 	C 	0.14777	0.50308	0.80462	-0.038
Mof_C 	C 	0.18005	0.51123	0.73862	-0.039
Mof_H 	H 	0.16497	0.48013	0.69368	0.053
Mof_C 	C 	0.23372	0.55837	0.73248	0.029
Mof_H 	H 	0.25896	0.56333	0.6827	0.017
Mof_N 	N 	0.25484	0.59693	0.78977	-0.195
Mof_C 	C 	0.22367	0.5911	0.85302	0.026
Mof_H 	H 	0.24094	0.62203	0.89796	0.018
Mof_C 	C 	0.17002	0.54474	0.86144	-0.045
Mof_H 	H 	0.14663	0.54104	0.91286	0.039
Mof_C 	C 	0.02808	0.35624	0.99615	-0.059
Mof_C 	C 	0.07368	0.37186	0.0461	-0.05
Mof_H 	H 	0.11625	0.39811	0.02764	0.035
Mof_C 	C 	0.06506	0.35128	0.12113	0.023
Mof_H 	H 	0.10062	0.36344	0.15806	0.011
Mof_N 	N 	0.01288	0.31478	0.147	-0.213
Mof_C 	C 	0.96785	0.29873	0.10044	0.055
Mof_H 	H 	0.92662	0.26928	0.12121	0.006
Mof_C 	C 	0.97453	0.31901	0.02502	-0.016
Mof_H 	H 	0.938	0.30503	0.98925	0.055
Mof_C 	C 	0.11047	0.28224	0.74857	-0.054
Mof_C 	C 	0.11992	0.24814	0.6983	-0.043
Mof_H 	H 	0.08881	0.22176	0.65687	0.029
Mof_C 	C 	0.17102	0.24919	0.69997	0.025
Mof_H 	H 	0.17832	0.2233	0.66083	0.002
Mof_N 	N 	0.21177	0.28295	0.74989	-0.2
Mof_C 	C 	0.20439	0.31746	0.79777	0.024
Mof_H 	H 	0.23761	0.34472	0.83605	0.008
Mof_C 	C 	0.154	0.31781	0.79795	-0.033
Mof_H 	H 	0.14894	0.34541	0.83688	0.048
Mof_O 	O 	0.06128	0.42539	0.76092	-0.355
Mof_O 	O 	0.9976	0.3454	0.86559	-0.307
Mof_O 	O 	0.0607	0.33024	0.7636	-0.374
Mof_O 	O 	0.31007	0.665	0.4561	-0.201
Mof_C 	C 	0.5556	0.6436	0.8171	0.241
Mof_C 	C 	0.58266	0.66015	0.88858	-0.228
Mof_H 	H 	0.56379	0.67363	0.9315	0.085
Mof_C 	C 	0.63047	0.65835	0.91076	0.242
Mof_C 	C 	0.71928	0.76974	0.74381	0.255
Mof_C 	C 	0.50099	0.64224	0.8059	-0.038
Mof_C 	C 	0.48866	0.65918	0.73613	-0.037
Mof_H 	H 	0.51689	0.67029	0.68801	0.055
Mof_C 	C 	0.44088	0.66464	0.72958	0.028
Mof_H 	H 	0.43263	0.67932	0.67654	0.017
Mof_N 	N 	0.40574	0.6531	0.7902	-0.196
Mof_C 	C 	0.41537	0.63438	0.85726	0.03
Mof_H 	H 	0.38682	0.62494	0.90457	0.009
Mof_C 	C 	0.46251	0.62844	0.86627	-0.046
Mof_H 	H 	0.46903	0.61385	0.92063	0.038
Mof_C 	C 	0.6505	0.66959	0.9923	-0.028
Mof_C 	C 	0.61378	0.65571	0.05498	-0.054
Mof_H 	H 	0.56908	0.6343	0.04646	0.037
Mof_C 	C 	0.63494	0.66936	0.12995	0.033
Mof_H 	H 	0.60659	0.65913	0.1777	-0.001
Mof_N 	N 	0.69095	0.69604	0.143	-0.2
Mof_C 	C 	0.72731	0.70945	0.0836	0.032
Mof_H 	H 	0.77169	0.73126	0.09472	0.005
Mof_C 	C 	0.70798	0.69616	0.00804	-0.05
Mof_H 	H 	0.73797	0.70796	0.96197	0.057
Mof_C 	C 	0.7209	0.82446	0.74229	-0.047
Mof_C 	C 	0.75527	0.8672	0.69108	-0.045
Mof_H 	H 	0.7817	0.86172	0.65058	0.034
Mof_C 	C 	0.75444	0.91736	0.69059	0.027
Mof_H 	H 	0.78078	0.95015	0.65111	0
Mof_N 	N 	0.7204	0.92512	0.73895	-0.205
Mof_C 	C 	0.68619	0.88431	0.78843	0.026
Mof_H 	H 	0.65925	0.89103	0.8262	0.006
Mof_C 	C 	0.6856	0.83346	0.79074	-0.035
Mof_H 	H 	0.65804	0.80153	0.83057	0.049
Mof_O 	O 	0.57747	0.63181	0.76053	-0.354
Mof_O 	O 	0.65928	0.64922	0.86199	-0.36
Mof_O 	O 	0.67267	0.72667	0.75925	-0.372
Mof_C 	C 	0.39793	0.64008	0.49232	-0.056
Mof_C 	C 	0.38597	0.59019	0.52854	0.006
Mof_C 	C 	0.43825	0.66196	0.43447	0.005
Mof_C 	C 	0.41459	0.56255	0.50755	-0.091
Mof_C 	C 	0.46694	0.6344	0.41343	-0.09
Mof_C 	C 	0.45539	0.58458	0.44993	0.089
Mof_C 	C 	0.48672	0.55562	0.42713	-0.207
Mof_O 	O 	0.40459	0.74702	0.52349	-0.184
Mof_C 	C 	0.91299	0.35626	0.69336	0.241
Mof_C 	C 	0.92382	0.34032	0.62169	-0.234
Mof_H 	H 	0.89191	0.32787	0.57822	0.084
Mof_C 	C 	0.97303	0.34114	0.60003	0.278
Mof_C 	C 	0.95313	0.23095	0.73972	0.299
Mof_C 	C 	0.85975	0.35773	0.70413	-0.037
Mof_C 	C 	0.82859	0.33787	0.77206	-0.038
Mof_H 	H 	0.84419	0.32421	0.81925	0.053
Mof_C 	C 	0.77543	0.33277	0.77774	0.028
Mof_H 	H 	0.75103	0.31577	0.82925	0.016
Mof_N 	N 	0.75368	0.34752	0.71812	-0.195
Mof_C 	C 	0.78384	0.3689	0.65286	0.026
Mof_H 	H 	0.76619	0.3807	0.60619	-0.003
Mof_C 	C 	0.83687	0.37444	0.6447	-0.047
Mof_H 	H 	0.8594	0.39099	0.59169	0.038
Mof_C 	C 	0.98148	0.32922	0.51875	-0.006
Mof_C 	C 	0.00875	0.29894	0.50354	-0.075
Mof_H 	H 	0.02435	0.28461	0.54998	0.05
Mof_C 	C 	0.01447	0.28533	0.42797	0.002
Mof_H 	H 	0.03434	0.26086	0.41714	0.006
Mof_N 	N 	0.99489	0.30214	0.36813	-0.166
Mof_C 	C 	0.96912	0.3324	0.38082	0.04
Mof_H 	H 	0.95378	0.34546	0.33278	0.008
Mof_C 	C 	0.96178	0.34625	0.45577	-0.05
Mof_H 	H 	0.94122	0.37037	0.46415	0.041
Mof_C 	C 	0.89984	0.17616	0.73327	-0.054
Mof_C 	C 	0.89746	0.12424	0.73974	-0.035
Mof_H 	H 	0.93428	0.12103	0.74927	0.042
Mof_C 	C 	0.84589	0.07477	0.73712	0.027
Mof_H 	H 	0.84411	0.03505	0.74355	0.007
Mof_N 	N 	0.79773	0.07622	0.72956	-0.201
Mof_C 	C 	0.79844	0.1255	0.72369	0.028
Mof_H 	H 	0.75958	0.12578	0.71995	0.003
Mof_C 	C 	0.84903	0.17588	0.72461	-0.031
Mof_H 	H 	0.84812	0.21443	0.71996	0.05
Mof_O 	O 	0.94628	0.36744	0.75031	-0.332
Mof_O 	O 	0.01082	0.34994	0.6489	-0.391
Mof_O 	O 	0.94819	0.27351	0.75285	-0.364
Mof_O 	O 	0.652	0.35419	0.05216	-0.211
Mof_C 	C 	0.45622	0.09188	0.69455	0.242
Mof_C 	C 	0.43083	0.08241	0.6221	-0.231
Mof_H 	H 	0.45178	0.1147	0.57934	0.093
Mof_C 	C 	0.38378	0.03306	0.59768	0.255
Mof_C 	C 	0.29063	0.05276	0.75027	0.248
Mof_C 	C 	0.51015	0.14515	0.70742	-0.037
Mof_C 	C 	0.5172	0.17903	0.77121	-0.036
Mof_H 	H 	0.48532	0.16509	0.815	0.052
Mof_C 	C 	0.56425	0.23289	0.77611	0.03
Mof_H 	H 	0.5682	0.25955	0.82363	0.023
Mof_N 	N 	0.60387	0.25251	0.72007	-0.194
Mof_C 	C 	0.59916	0.21958	0.65938	0.028
Mof_H 	H 	0.63097	0.23557	0.61547	-0.002
Mof_C 	C 	0.55269	0.16584	0.652	-0.046
Mof_H 	H 	0.5494	0.14093	0.60255	0.038
Mof_C 	C 	0.36577	0.02698	0.51569	-0.029
Mof_C 	C 	0.36019	0.06923	0.47953	-0.044
Mof_H 	H 	0.37019	0.10724	0.50981	0.051
Mof_C 	C 	0.33945	0.06175	0.40465	0.031
Mof_H 	H 	0.33451	0.09447	0.37912	0.021
Mof_N 	N 	0.32519	0.01401	0.36485	-0.192
Mof_C 	C 	0.33197	0.97306	0.39786	0.018
Mof_H 	H 	0.32172	0.93576	0.36604	0
Mof_C 	C 	0.35136	0.97834	0.47369	-0.05
Mof_H 	H 	0.3552	0.94478	0.49921	0.049
Mof_C 	C 	0.28926	0.10612	0.74934	-0.043
Mof_C 	C 	0.24229	0.10876	0.72442	-0.046
Mof_H 	H 	0.20548	0.07237	0.70288	0.032
Mof_C 	C 	0.24294	0.1596	0.72595	0.028
Mof_H 	H 	0.2065	0.1612	0.7077	-0.001
Mof_N 	N 	0.28892	0.20694	0.75022	-0.201
Mof_C 	C 	0.33552	0.20614	0.77283	0.031
Mof_H 	H 	0.37184	0.2443	0.79126	0.008
Mof_C 	C 	0.33656	0.15608	0.77283	-0.036
Mof_H 	H 	0.37397	0.15643	0.79189	0.053
Mof_O 	O 	0.43345	0.05738	0.75005	-0.347
Mof_O 	O 	0.35464	0.99354	0.64436	-0.366
Mof_O 	O 	0.33836	0.05666	0.74602	-0.364
Mof_C 	C 	0.58027	0.23989	0.00051	-0.058
Mof_C 	C 	0.60926	0.21056	0.00311	0.001
Mof_C 	C 	0.52327	0.21248	0.01795	0.004
Mof_C 	C 	0.58151	0.15417	0.02341	-0.087
Mof_C 	C 	0.49559	0.15623	0.03922	-0.09
Mof_C 	C 	0.52466	0.12677	0.0423	0.088
Mof_C 	C 	0.49583	0.06663	0.06586	-0.206
Mof_O 	O 	0.57337	0.33641	0.94421	-0.179
Mof_C 	C 	0.64701	0.55279	0.69135	0.239
Mof_C 	C 	0.66261	0.57938	0.61948	-0.23
Mof_H 	H 	0.67587	0.56035	0.57651	0.084
Mof_C 	C 	0.66022	0.62688	0.59716	0.245
Mof_C 	C 	0.77231	0.71855	0.73765	0.254
Mof_C 	C 	0.64631	0.49843	0.70255	-0.037
Mof_C 	C 	0.66557	0.48725	0.77114	-0.036
Mof_H 	H 	0.67815	0.51625	0.81854	0.056
Mof_C 	C 	0.67148	0.43966	0.7773	0.032
Mof_H 	H 	0.68794	0.43234	0.8294	0.022
Mof_N 	N 	0.6582	0.40356	0.71745	-0.194
Mof_C 	C 	0.63729	0.41212	0.65158	0.028
Mof_H 	H 	0.62651	0.38292	0.60478	0.004
Mof_C 	C 	0.63089	0.45908	0.64298	-0.046
Mof_H 	H 	0.6147	0.46484	0.58949	0.038
Mof_C 	C 	0.67099	0.64681	0.51552	-0.042
Mof_C 	C 	0.65856	0.61025	0.45293	-0.049
Mof_H 	H 	0.6382	0.5656	0.46141	0.035
Mof_C 	C 	0.67248	0.63152	0.37805	0.029
Mof_H 	H 	0.66359	0.60333	0.33044	0.001
Mof_N 	N 	0.69787	0.68746	0.36496	-0.199
Mof_C 	C 	0.70927	0.72362	0.42413	0.026
Mof_H 	H 	0.72973	0.76794	0.41288	0.006
Mof_C 	C 	0.69587	0.70417	0.49963	-0.037
Mof_H 	H 	0.70641	0.73407	0.54557	0.05
Mof_C 	C 	0.82758	0.72075	0.7348	-0.045
Mof_C 	C 	0.8789	0.77066	0.7438	-0.043
Mof_H 	H 	0.88129	0.81036	0.75286	0.034
Mof_C 	C 	0.92884	0.76949	0.74435	0.03
Mof_H 	H 	0.96791	0.80779	0.75259	0.014
Mof_N 	N 	0.92857	0.72045	0.73744	-0.186
Mof_C 	C 	0.87984	0.67139	0.73035	0.03
Mof_H 	H 	0.88033	0.63261	0.72772	0.009
Mof_C 	C 	0.82898	0.67068	0.72797	-0.035
Mof_H 	H 	0.79091	0.63091	0.72209	0.052
Mof_O 	O 	0.63556	0.57486	0.74809	-0.352
Mof_O 	O 	0.65106	0.65566	0.64593	-0.365
Mof_O 	O 	0.7295	0.67076	0.74808	-0.374
Mof_O 	O 	0.66575	0.32905	0.90608	-0.211
Mof_C 	C 	0.76623	0.99921	0.25898	-0.259
Mof_H 	H 	0.80365	0.99888	0.27549	0.088
Mof_Fe	Fe	0.65195	0.99987	0.2354	1.131
Mof_C 	C 	0.00508	0.7683	0.2545	-0.292
Mof_H 	H 	0.0048	0.80694	0.26011	0.084
Mof_Fe	Fe	0.00516	0.65239	0.24404	1.091
Mof_C 	C 	0.23936	0.23556	0.24665	-0.246
Mof_H 	H 	0.20031	0.19684	0.24104	0.084
Mof_Fe	Fe	0.35532	0.35119	0.25455	1.152
Mof_C 	C 	0.24148	0.00089	0.75673	-0.225
Mof_H 	H 	0.20265	0.00083	0.76357	0.083
Mof_Fe	Fe	0.35699	0.99986	0.75298	1.127
Mof_C 	C 	0.00593	0.23563	0.73222	-0.293
Mof_H 	H 	0.00737	0.1985	0.71798	0.086
Mof_Fe	Fe	0.00413	0.34902	0.75707	1.094
Mof_C 	C 	0.76762	0.7666	0.72999	-0.245
Mof_H 	H 	0.80488	0.80531	0.71676	0.086
Mof_Fe	Fe	0.65391	0.65115	0.75398	1.155
Mof_Ag	Ag	0.67183	0.33474	0.2143	0.672
Mof_S 	S 	0.48568	0.22922	0.39539	0.241
Mof_Ag	Ag	0.33745	0.66685	0.26948	0.688
Mof_S 	S 	0.33502	0.7373	0.03422	0.235
Mof_Ag	Ag	0.33668	0.66556	0.78479	0.697
Mof_S 	S 	0.36182	0.67598	0.51968	0.241
Mof_Ag	Ag	0.67189	0.335	0.72243	0.661
Mof_S 	S 	0.61633	0.3125	0.97595	0.248
Mof_Ag	Ag	0.72245	0.00143	0.73558	0.737
Mof_Ag	Ag	0.00446	0.72199	0.74482	0.643
Mof_Ag	Ag	0.28591	0.28054	0.75271	0.717
Mof_Ag	Ag	0.28786	0.00238	0.25463	0.732
Mof_Ag	Ag	0.00356	0.27859	0.25635	0.647
Mof_Ag	Ag	0.72347	0.72043	0.25424	0.72
Mof_H 	H 	0.4383	0.1264	0.30639	0.027
Mof_H 	H 	0.56562	0.20974	0.47703	0.029
Mof_H 	H 	0.45603	0.0478	0.30643	0.044
Mof_H 	H 	0.58502	0.13209	0.47545	0.047
Mof_H 	H 	0.56493	0.042	0.43284	0.076
Mof_H 	H 	0.5466	0.0319	0.33309	0.082
Mof_H 	H 	0.49335	0.99672	0.40516	0.06
Mof_H 	H 	0.2989	0.76475	0.17409	0.033
Mof_H 	H 	0.43654	0.84476	0.01716	0.037
Mof_H 	H 	0.34075	0.84829	0.25651	0.043
Mof_H 	H 	0.48008	0.92962	0.09612	0.052
Mof_H 	H 	0.44485	0.98375	0.19733	0.057
Mof_H 	H 	0.48441	0.95785	0.24721	0.077
Mof_H 	H 	0.41716	0.94255	0.28293	0.059
Mof_H 	H 	0.3547	0.57286	0.57312	0.03
Mof_H 	H 	0.4475	0.70035	0.40589	0.024
Mof_H 	H 	0.40501	0.52412	0.53632	0.05
Mof_H 	H 	0.49811	0.6518	0.3687	0.047
Mof_H 	H 	0.48008	0.54504	0.36535	0.074
Mof_H 	H 	0.47257	0.51653	0.46009	0.076
Mof_H 	H 	0.53197	0.5836	0.43773	0.075
Mof_H 	H 	0.65332	0.23139	0.98969	0.034
Mof_H 	H 	0.50049	0.23483	0.01611	0.032
Mof_H 	H 	0.60437	0.13192	0.02502	0.05
Mof_H 	H 	0.45164	0.13582	0.0534	0.05
Mof_H 	H 	0.51745	0.06164	0.11617	0.072
Mof_H 	H 	0.49694	0.04078	0.01806	0.077
Mof_H 	H 	0.45164	0.05128	0.08151	0.073
Mof_O 	O 	0.32991	0.6566	0.60736	-0.212
_end
