data_functionalizedCrystal
_audit_creation_method	'EQeq! by Chris Wilmer'
_symmetry_space_group_name_H-M	'P1'
_symmetry_Int_Tables_number	1
_symmetry_cell_setting	triclinic
loop_
_symmetry_equiv_pos_as_xyz
  x,y,z
_cell_length_a	22.741
_cell_length_b	22.741
_cell_length_c	30.38
_cell_angle_alpha	90
_cell_angle_beta	90
_cell_angle_gamma	120
loop_
_atom_site_label
_atom_site_type_symbol
_atom_site_fract_x
_atom_site_fract_y
_atom_site_fract_z
_atom_site_charge
Mof_Cu	Cu	0.8263	0.294	0.1194	0.484
Mof_Cu	Cu	0.81998	0.43126	0.13015	0.877
Mof_Cu	Cu	0.67635	0.27839	0.13264	0.874
Mof_Cu	Cu	0.10599	0.51049	0.17683	0.903
Mof_N 	N 	0.7308	0.4254	0.1293	-0.248
Mof_N 	N 	0.6733	0.3649	0.1318	-0.238
Mof_N 	N 	0.6444	0.4433	0.1377	-0.302
Mof_N 	N 	0.6853	0.1954	0.1342	-0.25
Mof_N 	N 	0.7492	0.2033	0.1327	-0.273
Mof_N 	N 	0.6782	0.0975	0.1483	-0.314
Mof_N 	N 	0.9108	0.3772	0.1363	-0.258
Mof_N 	N 	0.9084	0.4358	0.1366	-0.253
Mof_N 	N 	0.011	0.4617	0.1569	-0.308
Mof_O 	O 	0.7755	0.3335	0.1498	-0.72
Mof_H 	H 	0.7795	0.3321	0.1783	0.194
Mof_O 	O 	0.8588	0.5136	0.095	-0.436
Mof_O 	O 	0.8573	0.458	0.0362	-0.321
Mof_O 	O 	0.9767	0.6827	0.8902	-0.37
Mof_O 	O 	0.9713	0.5856	0.8998	-0.404
Mof_O 	O 	0.5954	0.2328	0.0959	-0.417
Mof_O 	O 	0.668	0.2605	0.0411	-0.313
Mof_O 	O 	0.4767	0.1308	0.8759	-0.403
Mof_O 	O 	0.5781	0.149	0.896	-0.334
Mof_C 	C 	0.7599	0.5481	0.1323	-0.834
Mof_H 	H 	0.8016	0.5594	0.147	0.262
Mof_H 	H 	0.7386	0.57	0.1469	0.256
Mof_H 	H 	0.7692	0.563	0.1023	0.277
Mof_C 	C 	0.7134	0.4726	0.1335	0.298
Mof_C 	C 	0.6216	0.3772	0.1356	0.276
Mof_C 	C 	0.5465	0.3217	0.1407	-0.77
Mof_H 	H 	0.5231	0.3389	0.158	0.244
Mof_H 	H 	0.5439	0.2829	0.1552	0.238
Mof_H 	H 	0.5258	0.3086	0.1122	0.259
Mof_C 	C 	0.5688	0.102	0.1537	-0.837
Mof_H 	H 	0.5588	0.1367	0.1622	0.255
Mof_H 	H 	0.5553	0.0688	0.1767	0.259
Mof_H 	H 	0.5443	0.0804	0.1272	0.271
Mof_C 	C 	0.643	0.1329	0.1456	0.303
Mof_C 	C 	0.7419	0.1416	0.1411	0.344
Mof_C 	C 	0.7978	0.1267	0.1421	-0.92
Mof_H 	H 	0.7877	0.0914	0.1632	0.292
Mof_H 	H 	0.8391	0.1669	0.1503	0.274
Mof_H 	H 	0.803	0.112	0.1135	0.304
Mof_C 	C 	0.9967	0.3433	0.1556	-0.722
Mof_H 	H 	0.9583	0.2981	0.1567	0.214
Mof_H 	H 	0.0216	0.3531	0.1827	0.218
Mof_H 	H 	0.0256	0.3467	0.1315	0.236
Mof_C 	C 	0.9723	0.3936	0.1491	0.276
Mof_C 	C 	0.9692	0.4848	0.1479	0.31
Mof_C 	C 	0.9902	0.5586	0.1516	-0.784
Mof_H 	H 	0.9519	0.5628	0.1604	0.242
Mof_H 	H 	0.0066	0.5803	0.1236	0.256
Mof_H 	H 	0.0255	0.5799	0.1732	0.245
Mof_C 	C 	0.8709	0.5099	0.0549	0.368
Mof_C 	C 	0.9019	0.5754	0.0298	-0.128
Mof_C 	C 	0.9161	0.6352	0.0503	0.037
Mof_H 	H 	0.9079	0.6354	0.0803	0.011
Mof_C 	C 	0.943	0.6956	0.0261	-0.111
Mof_H 	H 	0.9491	0.7352	0.0393	0.059
Mof_C 	C 	0.9604	0.6959	0.9816	0.031
Mof_H 	H 	0.98	0.7358	0.9653	0.023
Mof_C 	C 	0.9477	0.6353	0.9627	-0.108
Mof_C 	C 	0.9198	0.5772	0.9852	0.046
Mof_H 	H 	0.9119	0.5375	0.9714	0.034
Mof_C 	C 	0.9644	0.628	0.9127	0.356
Mof_C 	C 	0.609	0.235	0.0548	0.326
Mof_C 	C 	0.5492	0.2041	0.0227	-0.112
Mof_C 	C 	0.4868	0.1907	0.0353	0.036
Mof_H 	H 	0.4801	0.201	0.0639	0.011
Mof_C 	C 	0.4325	0.1616	0.006	-0.113
Mof_H 	H 	0.3888	0.15	0.0148	0.058
Mof_C 	C 	0.4465	0.1505	0.9624	0.031
Mof_H 	H 	0.4119	0.1339	0.9416	0.019
Mof_C 	C 	0.5102	0.1636	0.95	-0.112
Mof_C 	C 	0.5619	0.193	0.98	0.04
Mof_H 	H 	0.606	0.2055	0.9715	0.037
Mof_C 	C 	0.5242	0.1471	0.9044	0.32
Mof_C 	C 	0.0532	0.4989	0.2579	0.307
Mof_C 	C 	0.0258	0.5192	0.2973	-0.092
Mof_C 	C 	0.0234	0.5772	0.2956	0.01
Mof_H 	H 	0.0369	0.6033	0.2701	0.025
Mof_O 	O 	0.08	0.546	0.228	-0.4
Mof_O 	O 	0.0472	0.4423	0.2554	-0.323
Mof_O 	O 	0.8757	0.2573	0.0869	-0.32
Mof_Cu	Cu	0.8287	0.2895	0.136	0.448
Mof_Cu	Cu	0.706	0.5323	0.78607	0.486
Mof_Cu	Cu	0.56874	0.38872	0.79682	0.878
Mof_Cu	Cu	0.72161	0.39796	0.79931	0.875
Mof_Cu	Cu	0.48951	0.5955	0.8435	0.905
Mof_N 	N 	0.5746	0.3054	0.79597	-0.247
Mof_N 	N 	0.6351	0.3084	0.79847	-0.237
Mof_N 	N 	0.5567	0.2011	0.80437	-0.301
Mof_N 	N 	0.8046	0.4899	0.80087	-0.249
Mof_N 	N 	0.7967	0.5459	0.79937	-0.272
Mof_N 	N 	0.9025	0.5807	0.81497	-0.311
Mof_N 	N 	0.6228	0.5336	0.80297	-0.26
Mof_N 	N 	0.5642	0.4726	0.80327	-0.255
Mof_N 	N 	0.5383	0.5493	0.82357	-0.307
Mof_O 	O 	0.6665	0.442	0.81647	-0.72
Mof_H 	H 	0.6679	0.4474	0.84497	0.194
Mof_O 	O 	0.4864	0.3452	0.76167	-0.438
Mof_O 	O 	0.542	0.3993	0.70287	-0.322
Mof_O 	O 	0.3173	0.294	0.55687	-0.374
Mof_O 	O 	0.4144	0.3857	0.56647	-0.407
Mof_O 	O 	0.7672	0.3626	0.76257	-0.416
Mof_O 	O 	0.7395	0.4075	0.70777	-0.312
Mof_O 	O 	0.8692	0.3459	0.54257	-0.403
Mof_O 	O 	0.851	0.4291	0.56267	-0.333
Mof_C 	C 	0.4519	0.2118	0.79897	-0.83
Mof_H 	H 	0.4406	0.2422	0.81367	0.259
Mof_H 	H 	0.43	0.1686	0.81357	0.254
Mof_H 	H 	0.437	0.2062	0.76897	0.275
Mof_C 	C 	0.5274	0.2408	0.80017	0.297
Mof_C 	C 	0.6228	0.2444	0.80227	0.277
Mof_C 	C 	0.6783	0.2248	0.80737	-0.771
Mof_H 	H 	0.6611	0.1842	0.82467	0.245
Mof_H 	H 	0.7171	0.261	0.82187	0.239
Mof_H 	H 	0.6914	0.2172	0.77887	0.259
Mof_C 	C 	0.898	0.4668	0.82037	-0.848
Mof_H 	H 	0.8633	0.4221	0.82887	0.26
Mof_H 	H 	0.9312	0.4865	0.84337	0.266
Mof_H 	H 	0.9196	0.4639	0.79387	0.278
Mof_C 	C 	0.8671	0.5101	0.81227	0.307
Mof_C 	C 	0.8584	0.6003	0.80777	0.348
Mof_C 	C 	0.8733	0.6711	0.80877	-0.927
Mof_H 	H 	0.9086	0.6963	0.82987	0.297
Mof_H 	H 	0.8331	0.6722	0.81697	0.276
Mof_H 	H 	0.888	0.691	0.78017	0.31
Mof_C 	C 	0.6567	0.6534	0.82227	-0.793
Mof_H 	H 	0.7019	0.6602	0.82337	0.234
Mof_H 	H 	0.6469	0.6685	0.84937	0.244
Mof_H 	H 	0.6533	0.6789	0.79817	0.263
Mof_C 	C 	0.6064	0.5787	0.81577	0.286
Mof_C 	C 	0.5152	0.4844	0.81457	0.32
Mof_C 	C 	0.4414	0.4316	0.81827	-0.856
Mof_H 	H 	0.4372	0.3891	0.82707	0.261
Mof_H 	H 	0.4197	0.4263	0.79027	0.282
Mof_H 	H 	0.4201	0.4456	0.83987	0.271
Mof_C 	C 	0.4901	0.361	0.72157	0.368
Mof_C 	C 	0.4246	0.3265	0.69647	-0.13
Mof_C 	C 	0.3648	0.2809	0.71697	0.037
Mof_H 	H 	0.3646	0.2725	0.74697	0.009
Mof_C 	C 	0.3044	0.2474	0.69277	-0.114
Mof_H 	H 	0.2648	0.2139	0.70597	0.056
Mof_C 	C 	0.3041	0.2645	0.64827	0.031
Mof_H 	H 	0.2642	0.2442	0.63197	0.019
Mof_C 	C 	0.3647	0.3124	0.62937	-0.111
Mof_C 	C 	0.4228	0.3426	0.65187	0.047
Mof_H 	H 	0.4625	0.3744	0.63807	0.033
Mof_C 	C 	0.372	0.3364	0.57937	0.357
Mof_C 	C 	0.765	0.374	0.72147	0.327
Mof_C 	C 	0.7959	0.3451	0.68937	-0.112
Mof_C 	C 	0.8093	0.2961	0.70197	0.037
Mof_H 	H 	0.799	0.2791	0.73057	0.012
Mof_C 	C 	0.8384	0.2709	0.67267	-0.113
Mof_H 	H 	0.85	0.2388	0.68147	0.059
Mof_C 	C 	0.8495	0.296	0.62907	0.033
Mof_H 	H 	0.8661	0.278	0.60827	0.019
Mof_C 	C 	0.8364	0.3466	0.61667	-0.111
Mof_C 	C 	0.807	0.3689	0.64667	0.041
Mof_H 	H 	0.7945	0.4005	0.63817	0.037
Mof_C 	C 	0.8529	0.3771	0.57107	0.321
Mof_C 	C 	0.5011	0.5543	0.92457	0.308
Mof_C 	C 	0.4808	0.5066	0.96397	-0.093
Mof_C 	C 	0.4228	0.4462	0.96227	0.008
Mof_H 	H 	0.3967	0.4336	0.93677	0.026
Mof_O 	O 	0.454	0.534	0.89467	-0.401
Mof_O 	O 	0.5577	0.6049	0.92207	-0.322
Mof_O 	O 	0.7427	0.6184	0.75357	-0.321
Mof_Cu	Cu	0.7105	0.5392	0.80267	0.447
Mof_Cu	Cu	0.4677	0.1737	0.45273	0.486
Mof_Cu	Cu	0.61128	0.18002	0.46348	0.878
Mof_Cu	Cu	0.60204	0.32365	0.46597	0.875
Mof_Cu	Cu	0.4045	0.89401	0.51016	0.905
Mof_N 	N 	0.6946	0.2692	0.46263	-0.247
Mof_N 	N 	0.6916	0.3267	0.46513	-0.237
Mof_N 	N 	0.7989	0.3556	0.47103	-0.301
Mof_N 	N 	0.5101	0.3147	0.46753	-0.249
Mof_N 	N 	0.4541	0.2508	0.46603	-0.272
Mof_N 	N 	0.4193	0.3218	0.48163	-0.312
Mof_N 	N 	0.4664	0.0892	0.46963	-0.263
Mof_N 	N 	0.5274	0.0916	0.46993	-0.258
Mof_N 	N 	0.4507	0.989	0.49023	-0.306
Mof_O 	O 	0.558	0.2245	0.48313	-0.72
Mof_H 	H 	0.5526	0.2205	0.51163	0.193
Mof_O 	O 	0.6548	0.1412	0.42833	-0.439
Mof_O 	O 	0.6007	0.1427	0.36953	-0.323
Mof_O 	O 	0.706	0.0233	0.22353	-0.376
Mof_O 	O 	0.6143	0.0287	0.23313	-0.41
Mof_O 	O 	0.6374	0.4046	0.42923	-0.416
Mof_O 	O 	0.5925	0.332	0.37443	-0.313
Mof_O 	O 	0.6541	0.5233	0.20923	-0.403
Mof_O 	O 	0.5709	0.4219	0.22933	-0.334
Mof_C 	C 	0.7882	0.2401	0.46563	-0.829
Mof_H 	H 	0.7578	0.1984	0.48033	0.258
Mof_H 	H 	0.8314	0.2614	0.48023	0.253
Mof_H 	H 	0.7938	0.2308	0.43563	0.275
Mof_C 	C 	0.7592	0.2866	0.46683	0.296
Mof_C 	C 	0.7556	0.3784	0.46893	0.277
Mof_C 	C 	0.7752	0.4535	0.47403	-0.772
Mof_H 	H 	0.8158	0.4769	0.49133	0.245
Mof_H 	H 	0.739	0.4561	0.48853	0.239
Mof_H 	H 	0.7828	0.4742	0.44553	0.26
Mof_C 	C 	0.5332	0.4312	0.48703	-0.844
Mof_H 	H 	0.5779	0.4412	0.49553	0.258
Mof_H 	H 	0.5135	0.4447	0.51003	0.263
Mof_H 	H 	0.5361	0.4557	0.46053	0.275
Mof_C 	C 	0.4899	0.357	0.47893	0.305
Mof_C 	C 	0.3997	0.2581	0.47443	0.343
Mof_C 	C 	0.3289	0.2022	0.47543	-0.915
Mof_H 	H 	0.3037	0.2123	0.49653	0.29
Mof_H 	H 	0.3278	0.1609	0.48363	0.27
Mof_H 	H 	0.309	0.197	0.44683	0.303
Mof_C 	C 	0.3466	0.0033	0.48893	-0.857
Mof_H 	H 	0.3398	0.0417	0.49003	0.25
Mof_H 	H 	0.3315	0.9784	0.51603	0.267
Mof_H 	H 	0.3211	0.9744	0.46483	0.285
Mof_C 	C 	0.4213	0.0277	0.48243	0.294
Mof_C 	C 	0.5156	0.0308	0.48123	0.33
Mof_C 	C 	0.5684	0.0098	0.48493	-0.929
Mof_H 	H 	0.6109	0.0481	0.49373	0.281
Mof_H 	H 	0.5737	0.9934	0.45693	0.31
Mof_H 	H 	0.5544	0.9745	0.50653	0.297
Mof_C 	C 	0.639	0.1291	0.38823	0.368
Mof_C 	C 	0.6735	0.0981	0.36313	-0.131
Mof_C 	C 	0.7191	0.0839	0.38363	0.038
Mof_H 	H 	0.7275	0.0921	0.41363	0.008
Mof_C 	C 	0.7526	0.057	0.35943	-0.115
Mof_H 	H 	0.7861	0.0509	0.37263	0.057
Mof_C 	C 	0.7355	0.0396	0.31493	0.032
Mof_H 	H 	0.7558	0.02	0.29863	0.019
Mof_C 	C 	0.6876	0.0523	0.29603	-0.112
Mof_C 	C 	0.6574	0.0802	0.31853	0.048
Mof_H 	H 	0.6256	0.0881	0.30473	0.032
Mof_C 	C 	0.6636	0.0356	0.24603	0.358
Mof_C 	C 	0.626	0.391	0.38813	0.327
Mof_C 	C 	0.6549	0.4508	0.35603	-0.112
Mof_C 	C 	0.7039	0.5132	0.36863	0.038
Mof_H 	H 	0.7209	0.5199	0.39723	0.012
Mof_C 	C 	0.7291	0.5675	0.33933	-0.113
Mof_H 	H 	0.7612	0.6112	0.34813	0.06
Mof_C 	C 	0.704	0.5535	0.29573	0.033
Mof_H 	H 	0.722	0.5881	0.27493	0.02
Mof_C 	C 	0.6534	0.4898	0.28333	-0.111
Mof_C 	C 	0.6311	0.4381	0.31333	0.041
Mof_H 	H 	0.5995	0.394	0.30483	0.037
Mof_C 	C 	0.6229	0.4758	0.23773	0.321
Mof_C 	C 	0.4457	0.9468	0.59123	0.308
Mof_C 	C 	0.4934	0.9742	0.63063	-0.086
Mof_C 	C 	0.5538	0.9766	0.62893	0.018
Mof_H 	H 	0.5664	0.9631	0.60343	0.024
Mof_O 	O 	0.466	0.92	0.56133	-0.401
Mof_O 	O 	0.3951	0.9528	0.58873	-0.32
Mof_O 	O 	0.3816	0.1243	0.42023	-0.324
Mof_Cu	Cu	0.4608	0.1713	0.46933	0.447
Mof_Cu	Cu	0.294	0.8263	0.8806	0.486
Mof_Cu	Cu	0.43126	0.81998	0.86985	0.878
Mof_Cu	Cu	0.27839	0.67635	0.86736	0.875
Mof_Cu	Cu	0.51049	0.10599	0.82317	0.904
Mof_N 	N 	0.4254	0.7308	0.8707	-0.247
Mof_N 	N 	0.3649	0.6733	0.8682	-0.237
Mof_N 	N 	0.4433	0.6444	0.8623	-0.301
Mof_N 	N 	0.1954	0.6853	0.8658	-0.249
Mof_N 	N 	0.2033	0.7492	0.8673	-0.272
Mof_N 	N 	0.0975	0.6782	0.8517	-0.313
Mof_N 	N 	0.3772	0.9108	0.8637	-0.257
Mof_N 	N 	0.4358	0.9084	0.8634	-0.252
Mof_N 	N 	0.4617	0.011	0.8431	-0.308
Mof_O 	O 	0.3335	0.7755	0.8502	-0.72
Mof_H 	H 	0.3321	0.7795	0.8217	0.194
Mof_O 	O 	0.5136	0.8588	0.905	-0.436
Mof_O 	O 	0.458	0.8573	0.9638	-0.321
Mof_O 	O 	0.6827	0.9767	0.1098	-0.37
Mof_O 	O 	0.5856	0.9713	0.1002	-0.404
Mof_O 	O 	0.2328	0.5954	0.9041	-0.417
Mof_O 	O 	0.2605	0.668	0.9589	-0.313
Mof_O 	O 	0.1308	0.4767	0.1241	-0.403
Mof_O 	O 	0.149	0.5781	0.104	-0.334
Mof_C 	C 	0.5481	0.7599	0.8677	-0.834
Mof_H 	H 	0.5594	0.8016	0.853	0.262
Mof_H 	H 	0.57	0.7386	0.8531	0.256
Mof_H 	H 	0.563	0.7692	0.8977	0.277
Mof_C 	C 	0.4726	0.7134	0.8665	0.298
Mof_C 	C 	0.3772	0.6216	0.8644	0.276
Mof_C 	C 	0.3217	0.5465	0.8593	-0.77
Mof_H 	H 	0.3389	0.5231	0.842	0.244
Mof_H 	H 	0.2829	0.5439	0.8448	0.238
Mof_H 	H 	0.3086	0.5258	0.8878	0.259
Mof_C 	C 	0.102	0.5688	0.8463	-0.837
Mof_H 	H 	0.1367	0.5588	0.8378	0.255
Mof_H 	H 	0.0688	0.5553	0.8233	0.259
Mof_H 	H 	0.0804	0.5443	0.8728	0.271
Mof_C 	C 	0.1329	0.643	0.8544	0.303
Mof_C 	C 	0.1416	0.7419	0.8589	0.344
Mof_C 	C 	0.1267	0.7978	0.8579	-0.92
Mof_H 	H 	0.0914	0.7877	0.8368	0.292
Mof_H 	H 	0.1669	0.8391	0.8497	0.274
Mof_H 	H 	0.112	0.803	0.8865	0.304
Mof_C 	C 	0.3433	0.9967	0.8444	-0.722
Mof_H 	H 	0.2981	0.9583	0.8433	0.214
Mof_H 	H 	0.3531	0.0216	0.8173	0.218
Mof_H 	H 	0.3467	0.0256	0.8685	0.236
Mof_C 	C 	0.3936	0.9723	0.8509	0.276
Mof_C 	C 	0.4848	0.9692	0.8521	0.31
Mof_C 	C 	0.5586	0.9902	0.8484	-0.784
Mof_H 	H 	0.5628	0.9519	0.8396	0.242
Mof_H 	H 	0.5803	0.0066	0.8764	0.256
Mof_H 	H 	0.5799	0.0255	0.8268	0.245
Mof_C 	C 	0.5099	0.8709	0.9451	0.367
Mof_C 	C 	0.5754	0.9019	0.9702	-0.127
Mof_C 	C 	0.6352	0.9161	0.9497	0.036
Mof_H 	H 	0.6354	0.9079	0.9197	0.011
Mof_C 	C 	0.6956	0.943	0.9739	-0.11
Mof_H 	H 	0.7352	0.9491	0.9607	0.059
Mof_C 	C 	0.6959	0.9604	0.0184	0.03
Mof_H 	H 	0.7358	0.98	0.0347	0.023
Mof_C 	C 	0.6353	0.9477	0.0373	-0.107
Mof_C 	C 	0.5772	0.9198	0.0148	0.045
Mof_H 	H 	0.5375	0.9119	0.0286	0.034
Mof_C 	C 	0.628	0.9644	0.0873	0.356
Mof_C 	C 	0.235	0.609	0.9452	0.326
Mof_C 	C 	0.2041	0.5492	0.9773	-0.112
Mof_C 	C 	0.1907	0.4868	0.9647	0.036
Mof_H 	H 	0.201	0.4801	0.9361	0.012
Mof_C 	C 	0.1616	0.4325	0.994	-0.112
Mof_H 	H 	0.15	0.3888	0.9852	0.057
Mof_C 	C 	0.1505	0.4465	0.0376	0.031
Mof_H 	H 	0.1339	0.4119	0.0584	0.019
Mof_C 	C 	0.1636	0.5102	0.05	-0.111
Mof_C 	C 	0.193	0.5619	0.02	0.039
Mof_H 	H 	0.2055	0.606	0.0285	0.037
Mof_C 	C 	0.1471	0.5242	0.0956	0.32
Mof_C 	C 	0.4989	0.0532	0.7421	0.307
Mof_C 	C 	0.5192	0.0258	0.7027	-0.092
Mof_C 	C 	0.5772	0.0234	0.7044	0.01
Mof_H 	H 	0.6033	0.0369	0.7299	0.025
Mof_O 	O 	0.546	0.08	0.772	-0.4
Mof_O 	O 	0.4423	0.0472	0.7446	-0.323
Mof_O 	O 	0.2573	0.8757	0.9131	-0.32
Mof_Cu	Cu	0.2895	0.8287	0.864	0.448
Mof_Cu	Cu	0.5323	0.706	0.21393	0.486
Mof_Cu	Cu	0.38872	0.56874	0.20318	0.878
Mof_Cu	Cu	0.39796	0.72161	0.20069	0.875
Mof_Cu	Cu	0.5955	0.48951	0.1565	0.905
Mof_N 	N 	0.3054	0.5746	0.20403	-0.247
Mof_N 	N 	0.3084	0.6351	0.20153	-0.237
Mof_N 	N 	0.2011	0.5567	0.19563	-0.301
Mof_N 	N 	0.4899	0.8046	0.19913	-0.249
Mof_N 	N 	0.5459	0.7967	0.20063	-0.272
Mof_N 	N 	0.5807	0.9025	0.18503	-0.311
Mof_N 	N 	0.5336	0.6228	0.19703	-0.26
Mof_N 	N 	0.4726	0.5642	0.19673	-0.255
Mof_N 	N 	0.5493	0.5383	0.17643	-0.307
Mof_O 	O 	0.442	0.6665	0.18353	-0.72
Mof_H 	H 	0.4474	0.6679	0.15503	0.194
Mof_O 	O 	0.3452	0.4864	0.23833	-0.438
Mof_O 	O 	0.3993	0.542	0.29713	-0.322
Mof_O 	O 	0.294	0.3173	0.44313	-0.374
Mof_O 	O 	0.3857	0.4144	0.43353	-0.407
Mof_O 	O 	0.3626	0.7672	0.23743	-0.416
Mof_O 	O 	0.4075	0.7395	0.29223	-0.312
Mof_O 	O 	0.3459	0.8692	0.45743	-0.403
Mof_O 	O 	0.4291	0.851	0.43733	-0.333
Mof_C 	C 	0.2118	0.4519	0.20103	-0.83
Mof_H 	H 	0.2422	0.4406	0.18633	0.259
Mof_H 	H 	0.1686	0.43	0.18643	0.254
Mof_H 	H 	0.2062	0.437	0.23103	0.275
Mof_C 	C 	0.2408	0.5274	0.19983	0.297
Mof_C 	C 	0.2444	0.6228	0.19773	0.277
Mof_C 	C 	0.2248	0.6783	0.19263	-0.771
Mof_H 	H 	0.1842	0.6611	0.17533	0.245
Mof_H 	H 	0.261	0.7171	0.17813	0.239
Mof_H 	H 	0.2172	0.6914	0.22113	0.259
Mof_C 	C 	0.4668	0.898	0.17963	-0.848
Mof_H 	H 	0.4221	0.8633	0.17113	0.26
Mof_H 	H 	0.4865	0.9312	0.15663	0.266
Mof_H 	H 	0.4639	0.9196	0.20613	0.278
Mof_C 	C 	0.5101	0.8671	0.18773	0.307
Mof_C 	C 	0.6003	0.8584	0.19223	0.348
Mof_C 	C 	0.6711	0.8733	0.19123	-0.927
Mof_H 	H 	0.6963	0.9086	0.17013	0.297
Mof_H 	H 	0.6722	0.8331	0.18303	0.276
Mof_H 	H 	0.691	0.888	0.21983	0.31
Mof_C 	C 	0.6534	0.6567	0.17773	-0.793
Mof_H 	H 	0.6602	0.7019	0.17663	0.234
Mof_H 	H 	0.6685	0.6469	0.15063	0.244
Mof_H 	H 	0.6789	0.6533	0.20183	0.263
Mof_C 	C 	0.5787	0.6064	0.18423	0.286
Mof_C 	C 	0.4844	0.5152	0.18543	0.32
Mof_C 	C 	0.4316	0.4414	0.18173	-0.856
Mof_H 	H 	0.3891	0.4372	0.17293	0.261
Mof_H 	H 	0.4263	0.4197	0.20973	0.282
Mof_H 	H 	0.4456	0.4201	0.16013	0.271
Mof_C 	C 	0.361	0.4901	0.27843	0.368
Mof_C 	C 	0.3265	0.4246	0.30353	-0.13
Mof_C 	C 	0.2809	0.3648	0.28303	0.037
Mof_H 	H 	0.2725	0.3646	0.25303	0.009
Mof_C 	C 	0.2474	0.3044	0.30723	-0.114
Mof_H 	H 	0.2139	0.2648	0.29403	0.056
Mof_C 	C 	0.2645	0.3041	0.35173	0.031
Mof_H 	H 	0.2442	0.2642	0.36803	0.019
Mof_C 	C 	0.3124	0.3647	0.37063	-0.111
Mof_C 	C 	0.3426	0.4228	0.34813	0.047
Mof_H 	H 	0.3744	0.4625	0.36193	0.033
Mof_C 	C 	0.3364	0.372	0.42063	0.357
Mof_C 	C 	0.374	0.765	0.27853	0.327
Mof_C 	C 	0.3451	0.7959	0.31063	-0.112
Mof_C 	C 	0.2961	0.8093	0.29803	0.037
Mof_H 	H 	0.2791	0.799	0.26943	0.012
Mof_C 	C 	0.2709	0.8384	0.32733	-0.113
Mof_H 	H 	0.2388	0.85	0.31853	0.059
Mof_C 	C 	0.296	0.8495	0.37093	0.033
Mof_H 	H 	0.278	0.8661	0.39173	0.019
Mof_C 	C 	0.3466	0.8364	0.38333	-0.111
Mof_C 	C 	0.3689	0.807	0.35333	0.041
Mof_H 	H 	0.4005	0.7945	0.36183	0.037
Mof_C 	C 	0.3771	0.8529	0.42893	0.321
Mof_C 	C 	0.5543	0.5011	0.07543	0.308
Mof_C 	C 	0.5066	0.4808	0.03603	-0.093
Mof_C 	C 	0.4462	0.4228	0.03773	0.008
Mof_H 	H 	0.4336	0.3967	0.06323	0.026
Mof_O 	O 	0.534	0.454	0.10533	-0.401
Mof_O 	O 	0.6049	0.5577	0.07793	-0.322
Mof_O 	O 	0.6184	0.7427	0.24643	-0.321
Mof_Cu	Cu	0.5392	0.7105	0.19733	0.447
Mof_Cu	Cu	0.1737	0.4677	0.54727	0.486
Mof_Cu	Cu	0.18002	0.61128	0.53652	0.878
Mof_Cu	Cu	0.32365	0.60204	0.53403	0.875
Mof_Cu	Cu	0.89401	0.4045	0.48984	0.905
Mof_N 	N 	0.2692	0.6946	0.53737	-0.247
Mof_N 	N 	0.3267	0.6916	0.53487	-0.237
Mof_N 	N 	0.3556	0.7989	0.52897	-0.301
Mof_N 	N 	0.3147	0.5101	0.53247	-0.249
Mof_N 	N 	0.2508	0.4541	0.53397	-0.272
Mof_N 	N 	0.3218	0.4193	0.51837	-0.312
Mof_N 	N 	0.0892	0.4664	0.53037	-0.263
Mof_N 	N 	0.0916	0.5274	0.53007	-0.258
Mof_N 	N 	0.989	0.4507	0.50977	-0.306
Mof_O 	O 	0.2245	0.558	0.51687	-0.72
Mof_H 	H 	0.2205	0.5526	0.48837	0.193
Mof_O 	O 	0.1412	0.6548	0.57167	-0.439
Mof_O 	O 	0.1427	0.6007	0.63047	-0.323
Mof_O 	O 	0.0233	0.706	0.77647	-0.376
Mof_O 	O 	0.0287	0.6143	0.76687	-0.41
Mof_O 	O 	0.4046	0.6374	0.57077	-0.416
Mof_O 	O 	0.332	0.5925	0.62557	-0.313
Mof_O 	O 	0.5233	0.6541	0.79077	-0.403
Mof_O 	O 	0.4219	0.5709	0.77067	-0.334
Mof_C 	C 	0.2401	0.7882	0.53437	-0.829
Mof_H 	H 	0.1984	0.7578	0.51967	0.258
Mof_H 	H 	0.2614	0.8314	0.51977	0.253
Mof_H 	H 	0.2308	0.7938	0.56437	0.275
Mof_C 	C 	0.2866	0.7592	0.53317	0.296
Mof_C 	C 	0.3784	0.7556	0.53107	0.277
Mof_C 	C 	0.4535	0.7752	0.52597	-0.772
Mof_H 	H 	0.4769	0.8158	0.50867	0.245
Mof_H 	H 	0.4561	0.739	0.51147	0.239
Mof_H 	H 	0.4742	0.7828	0.55447	0.26
Mof_C 	C 	0.4312	0.5332	0.51297	-0.844
Mof_H 	H 	0.4412	0.5779	0.50447	0.258
Mof_H 	H 	0.4447	0.5135	0.48997	0.263
Mof_H 	H 	0.4557	0.5361	0.53947	0.275
Mof_C 	C 	0.357	0.4899	0.52107	0.305
Mof_C 	C 	0.2581	0.3997	0.52557	0.343
Mof_C 	C 	0.2022	0.3289	0.52457	-0.915
Mof_H 	H 	0.2123	0.3037	0.50347	0.29
Mof_H 	H 	0.1609	0.3278	0.51637	0.27
Mof_H 	H 	0.197	0.309	0.55317	0.303
Mof_C 	C 	0.0033	0.3466	0.51107	-0.857
Mof_H 	H 	0.0417	0.3398	0.50997	0.25
Mof_H 	H 	0.9784	0.3315	0.48397	0.267
Mof_H 	H 	0.9744	0.3211	0.53517	0.285
Mof_C 	C 	0.0277	0.4213	0.51757	0.294
Mof_C 	C 	0.0308	0.5156	0.51877	0.33
Mof_C 	C 	0.0098	0.5684	0.51507	-0.929
Mof_H 	H 	0.0481	0.6109	0.50627	0.281
Mof_H 	H 	0.9934	0.5737	0.54307	0.31
Mof_H 	H 	0.9745	0.5544	0.49347	0.297
Mof_C 	C 	0.1291	0.639	0.61177	0.368
Mof_C 	C 	0.0981	0.6735	0.63687	-0.131
Mof_C 	C 	0.0839	0.7191	0.61637	0.038
Mof_H 	H 	0.0921	0.7275	0.58637	0.008
Mof_C 	C 	0.057	0.7526	0.64057	-0.115
Mof_H 	H 	0.0509	0.7861	0.62737	0.057
Mof_C 	C 	0.0396	0.7355	0.68507	0.032
Mof_H 	H 	0.02	0.7558	0.70137	0.019
Mof_C 	C 	0.0523	0.6876	0.70397	-0.112
Mof_C 	C 	0.0802	0.6574	0.68147	0.048
Mof_H 	H 	0.0881	0.6256	0.69527	0.032
Mof_C 	C 	0.0356	0.6636	0.75397	0.358
Mof_C 	C 	0.391	0.626	0.61187	0.327
Mof_C 	C 	0.4508	0.6549	0.64397	-0.112
Mof_C 	C 	0.5132	0.7039	0.63137	0.038
Mof_H 	H 	0.5199	0.7209	0.60277	0.012
Mof_C 	C 	0.5675	0.7291	0.66067	-0.113
Mof_H 	H 	0.6112	0.7612	0.65187	0.06
Mof_C 	C 	0.5535	0.704	0.70427	0.033
Mof_H 	H 	0.5881	0.722	0.72507	0.02
Mof_C 	C 	0.4898	0.6534	0.71667	-0.111
Mof_C 	C 	0.4381	0.6311	0.68667	0.041
Mof_H 	H 	0.394	0.5995	0.69517	0.037
Mof_C 	C 	0.4758	0.6229	0.76227	0.321
Mof_C 	C 	0.9468	0.4457	0.40877	0.308
Mof_C 	C 	0.9742	0.4934	0.36937	-0.086
Mof_C 	C 	0.9766	0.5538	0.37107	0.018
Mof_H 	H 	0.9631	0.5664	0.39657	0.024
Mof_O 	O 	0.92	0.466	0.43867	-0.401
Mof_O 	O 	0.9528	0.3951	0.41127	-0.32
Mof_O 	O 	0.1243	0.3816	0.57977	-0.324
Mof_Cu	Cu	0.1713	0.4608	0.53067	0.447
Mof_Cu	Cu	0.63663	3.71059e-33	0.16667	0.896
Mof_Cu	Cu	6.41975e-17	0.63663	0.83333	0.896
Mof_Cu	Cu	0.36337	0.36337	0.5	0.899
Mof_C 	C 	1.23105e-17	0.5991	0.33333	-0.102
Mof_H 	H 	7.91546e-17	0.64	0.33333	0.051
Mof_C 	C 	4.57325e-17	0.476	0.33333	0.006
Mof_H 	H 	4.57325e-17	0.4351	0.33333	0.042
Mof_C 	C 	0.4009	0.4009	-0	-0.091
Mof_H 	H 	0.36	0.36	-0	0.048
Mof_C 	C 	0.524	0.524	-0	0.016
Mof_H 	H 	0.5649	0.5649	-0	0.041
Mof_C 	C 	0.5991	0	0.66667	-0.102
Mof_H 	H 	0.64	0	0.66667	0.051
Mof_C 	C 	0.476	0	0.66667	0.006
Mof_H 	H 	0.4351	0	0.66667	0.042
_end
