# CIF file generated by openbabel 3.1.0, see https://openbabel.org
data_I
_chemical_name_common 'image0'
_cell_length_a 10.2496
_cell_length_b 13.4583
_cell_length_c 16.2422
_cell_angle_alpha 90
_cell_angle_beta 95.72
_cell_angle_gamma 90
_space_group_name_H-M_alt 'P 1'
_space_group_name_Hall 'P 1'
loop_
    _symmetry_equiv_pos_as_xyz
    x,y,z
loop_
    _atom_site_label
    _atom_site_type_symbol
    _atom_site_fract_x
    _atom_site_fract_y
    _atom_site_fract_z
    _atom_site_occupancy
    Zn1      Zn       0.12411    0.53153    0.45508    1.000
    Zn2      Zn       0.97833    0.70608    0.56400    1.000
    Br1      Br       0.97081    0.85521    0.49194    1.000
    C1       C        0.38127    0.68391    0.64135    1.000
    C2       C        0.38463    0.75343    0.70511    1.000
    H1       H        0.30650    0.77820    0.72140    1.000
    C3       C        0.50282    0.78611    0.74461    1.000
    C4       C        0.61985    0.74911    0.71999    1.000
    H2       H        0.69960    0.77120    0.74590    1.000
    C5       C        0.61738    0.67906    0.65662    1.000
    C6       C        0.49846    0.64622    0.61837    1.000
    H3       H        0.49700    0.59850    0.57690    1.000
    C7       C        0.25295    0.65277    0.59696    1.000
    C8       C        0.50141    0.85991    0.81453    1.000
    C9       C        0.74264    0.63949    0.62785    1.000
    O1       O        0.25785    0.59663    0.53491    1.000
    O2       O        0.15135    0.68432    0.62476    1.000
    O3       O        0.39304    0.88872    0.83277    1.000
    O4       O        0.61188    0.88770    0.85001    1.000
    O5       O        0.84322    0.69311    0.64190    1.000
    O6       O        0.73561    0.55792    0.59133    1.000
    O7       O        0.95046    0.59003    0.49313    1.000
    Zn3      Zn       0.37589    0.03153    0.04492    1.000
    Zn4      Zn       0.52167    0.20608    0.93600    1.000
    Br2      Br       0.52919    0.35521    0.00806    1.000
    C10      C        0.11873    0.18391    0.85865    1.000
    C11      C        0.11537    0.25343    0.79489    1.000
    H4       H        0.19350    0.27820    0.77860    1.000
    C12      C        0.99718    0.28611    0.75539    1.000
    C13      C        0.88015    0.24911    0.78001    1.000
    H5       H        0.80040    0.27120    0.75410    1.000
    C14      C        0.88262    0.17906    0.84338    1.000
    C15      C        0.00154    0.14622    0.88163    1.000
    H6       H        0.00300    0.09850    0.92310    1.000
    C16      C        0.24705    0.15277    0.90304    1.000
    C17      C        0.99859    0.35991    0.68547    1.000
    C18      C        0.75736    0.13949    0.87215    1.000
    O8       O        0.24215    0.09663    0.96509    1.000
    O9       O        0.34865    0.18432    0.87524    1.000
    O10      O        0.10696    0.38872    0.66723    1.000
    O11      O        0.88812    0.38770    0.64999    1.000
    O12      O        0.65678    0.19311    0.85810    1.000
    O13      O        0.76439    0.05792    0.90867    1.000
    O14      O        0.54954    0.09003    0.00687    1.000
    Zn5      Zn       0.87589    0.46847    0.54492    1.000
    Zn6      Zn       0.02167    0.29392    0.43600    1.000
    Br3      Br       0.02919    0.14479    0.50806    1.000
    C19      C        0.61873    0.31609    0.35865    1.000
    C20      C        0.61537    0.24657    0.29489    1.000
    H7       H        0.69350    0.22180    0.27860    1.000
    C21      C        0.49718    0.21389    0.25539    1.000
    C22      C        0.38015    0.25089    0.28001    1.000
    H8       H        0.30040    0.22880    0.25410    1.000
    C23      C        0.38262    0.32094    0.34338    1.000
    C24      C        0.50154    0.35378    0.38163    1.000
    H9       H        0.50300    0.40150    0.42310    1.000
    C25      C        0.74705    0.34723    0.40304    1.000
    C26      C        0.49859    0.14009    0.18547    1.000
    C27      C        0.25736    0.36051    0.37215    1.000
    O15      O        0.74215    0.40337    0.46509    1.000
    O16      O        0.84865    0.31568    0.37524    1.000
    O17      O        0.60696    0.11128    0.16723    1.000
    O18      O        0.38812    0.11230    0.14999    1.000
    O19      O        0.15678    0.30689    0.35810    1.000
    O20      O        0.26439    0.44208    0.40867    1.000
    O21      O        0.04954    0.40997    0.50687    1.000
    Zn7      Zn       0.62411    0.96847    0.95508    1.000
    Zn8      Zn       0.47833    0.79392    0.06400    1.000
    Br4      Br       0.47081    0.64479    0.99194    1.000
    C28      C        0.88127    0.81609    0.14135    1.000
    C29      C        0.88463    0.74657    0.20511    1.000
    H10      H        0.80650    0.72180    0.22140    1.000
    C30      C        0.00282    0.71389    0.24461    1.000
    C31      C        0.11985    0.75089    0.21999    1.000
    H11      H        0.19960    0.72880    0.24590    1.000
    C32      C        0.11738    0.82094    0.15662    1.000
    C33      C        0.99846    0.85378    0.11837    1.000
    H12      H        0.99700    0.90150    0.07690    1.000
    C34      C        0.75295    0.84723    0.09696    1.000
    C35      C        0.00141    0.64009    0.31453    1.000
    C36      C        0.24264    0.86051    0.12785    1.000
    O22      O        0.75785    0.90337    0.03491    1.000
    O23      O        0.65135    0.81568    0.12476    1.000
    O24      O        0.89304    0.61128    0.33277    1.000
    O25      O        0.11188    0.61230    0.35001    1.000
    O26      O        0.34322    0.80689    0.14190    1.000
    O27      O        0.23561    0.94208    0.09133    1.000
    O28      O        0.45046    0.90997    0.99313    1.000
