data_functionalizedCrystal
_audit_creation_method	'EQeq! by Chris Wilmer'
_symmetry_space_group_name_H-M	'P1'
_symmetry_Int_Tables_number	1
_symmetry_cell_setting	triclinic
loop_
_symmetry_equiv_pos_as_xyz
  x,y,z
_cell_length_a	8.7383
_cell_length_b	18.1604
_cell_length_c	6.7072
_cell_angle_alpha	90
_cell_angle_beta	90
_cell_angle_gamma	90
loop_
_atom_site_label
_atom_site_type_symbol
_atom_site_fract_x
_atom_site_fract_y
_atom_site_fract_z
_atom_site_charge
Mof_Dy	Dy	0.74415	0.60554	0.40591	2.465
Mof_O 	O 	0.7215	0.6541	0.7373	-0.479
Mof_O 	O 	0.8541	0.51034	0.2238	-0.547
Mof_O 	O 	0.6541	0.50168	0.5936	-0.597
Mof_O 	O 	0.10311	0.78412	0.4082	-0.58
Mof_C 	C 	0.9867	0.7533	0.3431	0.75
Mof_H 	H 	0.9295	0.7779	0.2472	-0.185
Mof_C 	C 	0.5289	0.47807	0.6467	0.745
Mof_H 	H 	0.446	0.5017	0.5879	-0.238
Mof_C 	C 	0.984	0.4959	0.1625	0.683
Mof_H 	H 	0.0553	0.5338	0.1704	-0.167
Mof_C 	C 	0.7381	0.62219	0.9018	0.304
Mof_H 	H 	0.7392	0.571	0.8996	-0.15
Mof_O 	O 	0.0302	0.43759	0.0925	-0.387
Mof_O 	O 	0.4939	0.42954	0.762	-0.612
Mof_O 	O 	0.94174	0.69171	0.3978	-0.578
Mof_O 	O 	0.753	0.6518	0.0656	-0.307
Mof_Dy	Dy	0.25585	0.39446	0.90591	2.07
Mof_O 	O 	0.2785	0.3459	0.2373	-0.378
Mof_O 	O 	0.1459	0.48966	0.7238	-0.6
Mof_O 	O 	0.3459	0.49832	0.0936	-0.453
Mof_O 	O 	0.89689	0.21588	0.9082	-0.564
Mof_C 	C 	0.0133	0.2467	0.8431	0.683
Mof_H 	H 	0.0705	0.2221	0.7472	-0.181
Mof_C 	C 	0.4711	0.52193	0.1467	0.711
Mof_H 	H 	0.554	0.4983	0.0879	-0.152
Mof_C 	C 	0.016	0.5041	0.6625	0.665
Mof_H 	H 	0.9447	0.4662	0.6704	-0.201
Mof_C 	C 	0.2619	0.37781	0.4018	0.586
Mof_H 	H 	0.2608	0.429	0.3996	-0.161
Mof_O 	O 	0.9698	0.56241	0.5925	-0.534
Mof_O 	O 	0.5061	0.57046	0.262	-0.569
Mof_O 	O 	0.05826	0.30829	0.8978	-0.584
Mof_O 	O 	0.247	0.3482	0.5656	-0.465
Mof_Dy	Dy	0.24415	0.89446	0.40591	2.462
Mof_O 	O 	0.2215	0.8459	0.7373	-0.477
Mof_O 	O 	0.3541	0.98966	0.2238	-0.548
Mof_O 	O 	0.1541	0.99832	0.5936	-0.581
Mof_O 	O 	0.60311	0.71588	0.4082	-0.579
Mof_C 	C 	0.4867	0.7467	0.3431	0.749
Mof_H 	H 	0.4295	0.7221	0.2472	-0.183
Mof_C 	C 	0.0289	0.02193	0.6467	0.693
Mof_H 	H 	0.946	0.9983	0.5879	-0.218
Mof_C 	C 	0.484	0.0041	0.1625	0.687
Mof_H 	H 	0.5553	0.9662	0.1704	-0.169
Mof_C 	C 	0.2381	0.87781	0.9018	0.293
Mof_H 	H 	0.2392	0.929	0.8996	-0.147
Mof_O 	O 	0.5302	0.06241	0.0925	-0.389
Mof_O 	O 	0.9939	0.07046	0.762	-0.587
Mof_O 	O 	0.44174	0.80829	0.3978	-0.577
Mof_O 	O 	0.253	0.8482	0.0656	-0.3
Mof_Dy	Dy	0.75585	0.10554	0.90591	2.084
Mof_O 	O 	0.7785	0.1541	0.2373	-0.381
Mof_O 	O 	0.6459	0.01034	0.7238	-0.607
Mof_O 	O 	0.8459	0.00168	0.0936	-0.447
Mof_O 	O 	0.39689	0.28412	0.9082	-0.58
Mof_C 	C 	0.5133	0.2533	0.8431	0.708
Mof_H 	H 	0.5705	0.2779	0.7472	-0.185
Mof_C 	C 	0.9711	0.97807	0.1467	0.69
Mof_H 	H 	0.054	0.0017	0.0879	-0.147
Mof_C 	C 	0.516	0.9959	0.6625	0.697
Mof_H 	H 	0.4447	0.0338	0.6704	-0.22
Mof_C 	C 	0.7619	0.12219	0.4018	0.59
Mof_H 	H 	0.7608	0.071	0.3996	-0.162
Mof_O 	O 	0.4698	0.93759	0.5925	-0.548
Mof_O 	O 	0.0061	0.92954	0.262	-0.561
Mof_O 	O 	0.55826	0.19171	0.8978	-0.588
Mof_O 	O 	0.747	0.1518	0.5656	-0.465
_end
