data_functionalizedCrystal
_audit_creation_method	'EQeq! by Chris Wilmer'
_symmetry_space_group_name_H-M	'P1'
_symmetry_Int_Tables_number	1
_symmetry_cell_setting	triclinic
loop_
_symmetry_equiv_pos_as_xyz
  x,y,z
_cell_length_a	16.318
_cell_length_b	16.318
_cell_length_c	6.508
_cell_angle_alpha	90
_cell_angle_beta	90
_cell_angle_gamma	90
loop_
_atom_site_label
_atom_site_type_symbol
_atom_site_fract_x
_atom_site_fract_y
_atom_site_fract_z
_atom_site_charge
Mof_C 	C 	0.6022	0.7846	0.3616	0.274
Mof_C 	C 	0.5422	0.754	0.2102	-0.001
Mof_N 	N 	0.5686	0.7141	0.0375	-0.178
Mof_O 	O 	0.67686	0.76715	0.3268	-0.269
Mof_O 	O 	0.5793	0.8253	0.5171	-0.183
Mof_C 	C 	0.3978	0.2154	0.3616	0.274
Mof_C 	C 	0.4578	0.246	0.2102	0.001
Mof_N 	N 	0.4314	0.2859	0.0375	-0.177
Mof_O 	O 	0.32314	0.23285	0.3268	-0.268
Mof_O 	O 	0.4207	0.1747	0.5171	-0.182
Mof_C 	C 	0.7154	0.1022	0.8616	0.319
Mof_C 	C 	0.746	0.0422	0.7102	0.011
Mof_N 	N 	0.7859	0.0686	0.5375	-0.15
Mof_O 	O 	0.73285	0.17686	0.8268	-0.26
Mof_O 	O 	0.6747	0.0793	0.0171	-0.219
Mof_C 	C 	0.2846	0.8978	0.8616	0.323
Mof_C 	C 	0.254	0.9578	0.7102	-0.009
Mof_N 	N 	0.2141	0.9314	0.5375	-0.15
Mof_O 	O 	0.26715	0.82314	0.8268	-0.262
Mof_O 	O 	0.3253	0.9207	0.0171	-0.228
Mof_Cd	Cd	0.70538	0.29462	-0	0.432
Mof_C 	C 	0.5	0.6916	0.9378	0.237
Mof_C 	C 	0.5	0.6416	0.7429	-0.228
Mof_C 	C 	0.5	0.3084	0.9378	0.236
Mof_C 	C 	0.5	0.3584	0.7429	-0.227
Mof_H 	H 	0.56485	0.61932	0.70941	0.081
Mof_H 	H 	0.47754	0.68108	0.6098	0.093
Mof_H 	H 	0.45761	0.58661	0.76217	0.077
Mof_H 	H 	0.56485	0.36132	0.67818	0.084
Mof_H 	H 	0.47754	0.42307	0.77778	0.076
Mof_H 	H 	0.45761	0.3286	0.62542	0.091
Mof_C 	C 	0.7846	0.6022	0.6384	0.277
Mof_C 	C 	0.754	0.5422	0.7898	0.006
Mof_N 	N 	0.7141	0.5686	0.9625	-0.113
Mof_O 	O 	0.76715	0.67686	0.6732	-0.26
Mof_O 	O 	0.8253	0.5793	0.4829	-0.192
Mof_C 	C 	0.2154	0.3978	0.6384	0.276
Mof_C 	C 	0.246	0.4578	0.7898	0.007
Mof_N 	N 	0.2859	0.4314	0.9625	-0.112
Mof_O 	O 	0.23285	0.32314	0.6732	-0.26
Mof_O 	O 	0.1747	0.4207	0.4829	-0.19
Mof_C 	C 	0.1022	0.7154	0.1384	0.222
Mof_C 	C 	0.0422	0.746	0.2898	0.017
Mof_N 	N 	0.0686	0.7859	0.4625	-0.152
Mof_O 	O 	0.17686	0.73285	0.1732	-0.263
Mof_O 	O 	0.0793	0.6747	0.9829	-0.141
Mof_C 	C 	0.8978	0.2846	0.1384	0.227
Mof_C 	C 	0.9578	0.254	0.2898	-0.007
Mof_N 	N 	0.9314	0.2141	0.4625	-0.152
Mof_O 	O 	0.82314	0.26715	0.1732	-0.265
Mof_O 	O 	0.9207	0.3253	0.9829	-0.152
Mof_Cd	Cd	0.29462	0.70538	-0	0.431
Mof_C 	C 	0.6916	0.5	0.0622	0.101
Mof_C 	C 	0.6416	0.5	0.2571	-0.185
Mof_C 	C 	0.3084	0.5	0.0622	0.099
Mof_C 	C 	0.3584	0.5	0.2571	-0.184
Mof_H 	H 	0.61932	0.56485	0.29059	0.064
Mof_H 	H 	0.68108	0.47754	0.3902	0.082
Mof_H 	H 	0.58661	0.45761	0.23783	0.056
Mof_H 	H 	0.36132	0.56485	0.32182	0.069
Mof_H 	H 	0.42307	0.47754	0.22222	0.052
Mof_H 	H 	0.3286	0.45761	0.37458	0.079
Mof_C 	C 	0.2846	0.1022	0.8616	0.319
Mof_C 	C 	0.254	0.0422	0.7102	0.011
Mof_N 	N 	0.2141	0.0686	0.5375	-0.15
Mof_O 	O 	0.26715	0.17686	0.8268	-0.26
Mof_O 	O 	0.3253	0.0793	0.0171	-0.22
Mof_C 	C 	0.7154	0.8978	0.8616	0.323
Mof_C 	C 	0.746	0.9578	0.7102	-0.008
Mof_N 	N 	0.7859	0.9314	0.5375	-0.15
Mof_O 	O 	0.73285	0.82314	0.8268	-0.262
Mof_O 	O 	0.6747	0.9207	0.0171	-0.227
Mof_C 	C 	0.6022	0.2154	0.3616	0.275
Mof_C 	C 	0.5422	0.246	0.2102	0.001
Mof_N 	N 	0.5686	0.2859	0.0375	-0.177
Mof_O 	O 	0.67686	0.23285	0.3268	-0.268
Mof_O 	O 	0.5793	0.1747	0.5171	-0.181
Mof_C 	C 	0.3978	0.7846	0.3616	0.273
Mof_C 	C 	0.4578	0.754	0.2102	-0.001
Mof_N 	N 	0.4314	0.7141	0.0375	-0.177
Mof_O 	O 	0.32314	0.76715	0.3268	-0.268
Mof_O 	O 	0.4207	0.8253	0.5171	-0.184
Mof_Cd	Cd	0.79462	0.20538	0.5	0.471
Mof_C 	C 	0.1916	0	0.4378	0.173
Mof_C 	C 	0.1416	0	0.2429	-0.189
Mof_C 	C 	0.8084	0	0.4378	0.17
Mof_C 	C 	0.8584	0	0.2429	-0.187
Mof_H 	H 	0.11932	0.06485	0.20941	0.063
Mof_H 	H 	0.18108	0.97754	0.1098	0.068
Mof_H 	H 	0.08661	0.95761	0.26217	0.055
Mof_H 	H 	0.86132	0.06485	0.17818	0.063
Mof_H 	H 	0.92307	0.97754	0.27778	0.048
Mof_H 	H 	0.8286	0.95761	0.12542	0.065
Mof_C 	C 	0.1022	0.2846	0.1384	0.222
Mof_C 	C 	0.0422	0.254	0.2898	0.016
Mof_N 	N 	0.0686	0.2141	0.4625	-0.152
Mof_O 	O 	0.17686	0.26715	0.1732	-0.263
Mof_O 	O 	0.0793	0.3253	0.9829	-0.142
Mof_C 	C 	0.8978	0.7154	0.1384	0.227
Mof_C 	C 	0.9578	0.746	0.2898	-0.007
Mof_N 	N 	0.9314	0.7859	0.4625	-0.152
Mof_O 	O 	0.82314	0.73285	0.1732	-0.265
Mof_O 	O 	0.9207	0.6747	0.9829	-0.151
Mof_C 	C 	0.2154	0.6022	0.6384	0.277
Mof_C 	C 	0.246	0.5422	0.7898	0.008
Mof_N 	N 	0.2859	0.5686	0.9625	-0.112
Mof_O 	O 	0.23285	0.67686	0.6732	-0.259
Mof_O 	O 	0.1747	0.5793	0.4829	-0.189
Mof_C 	C 	0.7846	0.3978	0.6384	0.275
Mof_C 	C 	0.754	0.4578	0.7898	0.006
Mof_N 	N 	0.7141	0.4314	0.9625	-0.112
Mof_O 	O 	0.76715	0.32314	0.6732	-0.26
Mof_O 	O 	0.8253	0.4207	0.4829	-0.193
Mof_Cd	Cd	0.20538	0.79462	0.5	0.471
Mof_C 	C 	-9.80186e-34	0.1916	0.5622	0.175
Mof_C 	C 	4.77387e-33	0.1416	0.7571	-0.191
Mof_C 	C 	-8.26367e-33	0.8084	0.5622	0.173
Mof_C 	C 	4.77387e-33	0.8584	0.7571	-0.19
Mof_H 	H 	0.06485	0.11932	0.79059	0.078
Mof_H 	H 	0.97754	0.18108	0.8902	0.09
Mof_H 	H 	0.95761	0.08661	0.73783	0.064
Mof_H 	H 	0.06485	0.86132	0.82182	0.082
Mof_H 	H 	0.97754	0.92307	0.72222	0.058
Mof_H 	H 	0.95761	0.8286	0.87458	0.087
Mof_Cd	Cd	0.79462	0.79462	0.5	0.471
Mof_Cd	Cd	0.20538	0.20538	0.5	0.471
Mof_Cd	Cd	0.29462	0.29462	-0	0.432
Mof_Cd	Cd	0.70538	0.70538	-0	0.431
_end
