data_functionalizedCrystal
_audit_creation_method	'EQeq! by Chris Wilmer'
_symmetry_space_group_name_H-M	'P1'
_symmetry_Int_Tables_number	1
_symmetry_cell_setting	triclinic
loop_
_symmetry_equiv_pos_as_xyz
  x,y,z
_cell_length_a	19.4017
_cell_length_b	19.4017
_cell_length_c	19.4017
_cell_angle_alpha	84.9869
_cell_angle_beta	84.9869
_cell_angle_gamma	84.9869
loop_
_atom_site_label
_atom_site_type_symbol
_atom_site_fract_x
_atom_site_fract_y
_atom_site_fract_z
_atom_site_charge
Mof_Cu	Cu	0.36536	0.77219	0.77219	0.916
Mof_Cu	Cu	0.48975	0.80025	0.80025	0.908
Mof_Cu	Cu	0.80025	0.80025	0.48975	0.908
Mof_Cu	Cu	0.80025	0.48975	0.80025	0.909
Mof_Cu	Cu	0.77219	0.77219	0.36536	0.917
Mof_Cu	Cu	0.77219	0.36536	0.77219	0.917
Mof_H 	H 	0.7753	0.3923	0.2429	0.074
Mof_H 	H 	0.8032	0.4563	0.0178	0.042
Mof_H 	H 	0.2429	0.7753	0.3923	0.074
Mof_H 	H 	0.1024	0.2427	0.724	0.06
Mof_H 	H 	0.8017	0.5966	0.5966	0.076
Mof_H 	H 	0.7623	0.1963	0.1963	0.067
Mof_H 	H 	0.415	0.1336	0.8052	0.061
Mof_H 	H 	0.8052	0.415	0.1336	0.061
Mof_H 	H 	0.4563	0.8032	0.0178	0.042
Mof_H 	H 	0.2731	0.7502	0.9786	0.052
Mof_H 	H 	0.9786	0.2731	0.7502	0.052
Mof_H 	H 	0.724	0.2427	0.1024	0.06
Mof_H 	H 	0.1336	0.8052	0.415	0.061
Mof_H 	H 	0.1024	0.724	0.2427	0.06
Mof_H 	H 	0.5966	0.5966	0.8017	0.076
Mof_H 	H 	0.7753	0.2429	0.3923	0.074
Mof_H 	H 	0.3923	0.2429	0.7753	0.074
Mof_H 	H 	0.2429	0.3923	0.7753	0.074
Mof_H 	H 	0.2427	0.724	0.1024	0.06
Mof_H 	H 	0.5487	0.7754	0.3957	0.079
Mof_H 	H 	0.0178	0.4563	0.8032	0.042
Mof_H 	H 	0.7754	0.3957	0.5487	0.079
Mof_H 	H 	0.724	0.1024	0.2427	0.06
Mof_H 	H 	0.3957	0.7754	0.5487	0.079
Mof_H 	H 	0.7754	0.5487	0.3957	0.079
Mof_H 	H 	0.1963	0.7623	0.1963	0.067
Mof_H 	H 	0.5966	0.8017	0.5966	0.076
Mof_H 	H 	0.0178	0.8032	0.4563	0.042
Mof_H 	H 	0.8032	0.0178	0.4563	0.042
Mof_H 	H 	0.2731	0.9786	0.7502	0.052
Mof_H 	H 	0.1336	0.415	0.8052	0.061
Mof_H 	H 	0.1963	0.1963	0.7623	0.067
Mof_H 	H 	0.7502	0.2731	0.9786	0.052
Mof_H 	H 	0.8052	0.1336	0.415	0.061
Mof_H 	H 	0.3957	0.5487	0.7754	0.079
Mof_H 	H 	0.7502	0.9786	0.2731	0.052
Mof_H 	H 	0.2427	0.1024	0.724	0.06
Mof_H 	H 	0.9786	0.7502	0.2731	0.052
Mof_H 	H 	0.4563	0.0178	0.8032	0.042
Mof_H 	H 	0.415	0.8052	0.1336	0.061
Mof_H 	H 	0.3923	0.7753	0.2429	0.074
Mof_H 	H 	0.5487	0.3957	0.7754	0.079
Mof_C 	C 	0.5341	0.4421	0.7802	-0.085
Mof_C 	C 	0.3868	0.102	0.7909	-0.088
Mof_C 	C 	0.7802	0.5341	0.4421	-0.085
Mof_C 	C 	0.2058	0.7708	0.2998	0.046
Mof_C 	C 	0.7919	0.0334	0.4118	0.008
Mof_C 	C 	0.5341	0.7802	0.4421	-0.085
Mof_C 	C 	0.2282	0.2282	0.7672	-0.107
Mof_C 	C 	0.7879	0.4909	0.5823	-0.012
Mof_C 	C 	0.7566	0.0115	0.3037	-0.004
Mof_C 	C 	0.0856	0.746	0.2822	-0.088
Mof_C 	C 	0.7818	0.9131	0.3871	0.328
Mof_C 	C 	0.2822	0.746	0.0856	-0.088
Mof_C 	C 	0.9131	0.3871	0.7818	0.328
Mof_C 	C 	0.102	0.7909	0.3868	-0.088
Mof_C 	C 	0.7745	0.42	0.42	-0.028
Mof_C 	C 	0.9131	0.7818	0.3871	0.328
Mof_C 	C 	0.3822	0.7721	0.3822	-0.022
Mof_C 	C 	0.7702	0.3233	0.1265	0.037
Mof_C 	C 	0.7722	0.3289	0.3289	0.069
Mof_C 	C 	0.7902	0.46	0.6607	0.302
Mof_C 	C 	0.465	0.465	0.7799	0.065
Mof_C 	C 	0.7902	0.6607	0.46	0.302
Mof_C 	C 	0.46	0.7902	0.6607	0.302
Mof_C 	C 	0.7802	0.4421	0.5341	-0.085
Mof_C 	C 	0.773	0.2577	0.3456	-0.118
Mof_C 	C 	0.4909	0.5823	0.7879	-0.012
Mof_C 	C 	0.2998	0.2058	0.7708	0.046
Mof_C 	C 	0.2822	0.0856	0.746	-0.088
Mof_C 	C 	0.3868	0.7909	0.102	-0.088
Mof_C 	C 	0.7799	0.465	0.465	0.065
Mof_C 	C 	0.7919	0.4118	0.0334	0.008
Mof_C 	C 	0.7672	0.2282	0.2282	-0.107
Mof_C 	C 	0.565	0.7944	0.565	-0.039
Mof_C 	C 	0.7708	0.2058	0.2998	0.046
Mof_C 	C 	0.42	0.7745	0.42	-0.028
Mof_C 	C 	0.4118	0.7919	0.0334	0.008
Mof_C 	C 	0.565	0.565	0.7944	-0.039
Mof_C 	C 	0.2577	0.3456	0.773	-0.118
Mof_C 	C 	0.42	0.42	0.7745	-0.028
Mof_C 	C 	0.3871	0.7818	0.9131	0.328
Mof_C 	C 	0.3289	0.7722	0.3289	0.069
Mof_C 	C 	0.7909	0.102	0.3868	-0.088
Mof_C 	C 	0.9914	0.7751	0.3662	-0.066
Mof_C 	C 	0.46	0.6607	0.7902	0.302
Mof_C 	C 	0.0115	0.7566	0.3037	-0.004
Mof_C 	C 	0.4421	0.5341	0.7802	-0.085
Mof_C 	C 	0.0856	0.2822	0.746	-0.088
Mof_C 	C 	0.7944	0.565	0.565	-0.039
Mof_C 	C 	0.0334	0.4118	0.7919	0.008
Mof_C 	C 	0.5823	0.4909	0.7879	-0.012
Mof_C 	C 	0.746	0.2822	0.0856	-0.088
Mof_C 	C 	0.9914	0.3662	0.7751	-0.066
Mof_C 	C 	0.3456	0.2577	0.773	-0.118
Mof_C 	C 	0.3289	0.3289	0.7722	0.069
Mof_C 	C 	0.2282	0.7672	0.2282	-0.107
Mof_C 	C 	0.3233	0.7702	0.1265	0.037
Mof_C 	C 	0.3662	0.7751	0.9914	-0.066
Mof_C 	C 	0.3037	0.0115	0.7566	-0.004
Mof_C 	C 	0.2058	0.2998	0.7708	0.046
Mof_C 	C 	0.7909	0.3868	0.102	-0.088
Mof_C 	C 	0.3822	0.3822	0.7721	-0.022
Mof_C 	C 	0.6607	0.46	0.7902	0.302
Mof_C 	C 	0.2577	0.773	0.3456	-0.118
Mof_C 	C 	0.3037	0.7566	0.0115	-0.004
Mof_C 	C 	0.7708	0.2998	0.2058	0.046
Mof_C 	C 	0.3456	0.773	0.2577	-0.118
Mof_C 	C 	0.102	0.3868	0.7909	-0.088
Mof_C 	C 	0.6607	0.7902	0.46	0.302
Mof_C 	C 	0.7721	0.3822	0.3822	-0.022
Mof_C 	C 	0.4118	0.0334	0.7919	0.008
Mof_C 	C 	0.2998	0.7708	0.2058	0.046
Mof_C 	C 	0.3662	0.9914	0.7751	-0.066
Mof_C 	C 	0.4421	0.7802	0.5341	-0.085
Mof_C 	C 	0.465	0.7799	0.465	0.065
Mof_C 	C 	0.4909	0.7879	0.5823	-0.012
Mof_C 	C 	0.0115	0.3037	0.7566	-0.004
Mof_C 	C 	0.1265	0.3233	0.7702	0.037
Mof_C 	C 	0.7751	0.3662	0.9914	-0.066
Mof_C 	C 	0.7818	0.3871	0.9131	0.328
Mof_C 	C 	0.746	0.0856	0.2822	-0.088
Mof_C 	C 	0.7751	0.9914	0.3662	-0.066
Mof_C 	C 	0.7702	0.1265	0.3233	0.037
Mof_C 	C 	0.3233	0.1265	0.7702	0.037
Mof_C 	C 	0.773	0.3456	0.2577	-0.118
Mof_C 	C 	0.3871	0.9131	0.7818	0.328
Mof_C 	C 	0.5823	0.7879	0.4909	-0.012
Mof_C 	C 	0.1265	0.7702	0.3233	0.037
Mof_C 	C 	0.7879	0.5823	0.4909	-0.012
Mof_C 	C 	0.7566	0.3037	0.0115	-0.004
Mof_C 	C 	0.0334	0.7919	0.4118	0.008
Mof_O 	O 	0.87162	0.76832	0.34492	-0.401
Mof_O 	O 	0.87162	0.34492	0.76832	-0.401
Mof_O 	O 	0.34492	0.87162	0.76832	-0.401
Mof_O 	O 	0.4007	0.7783	0.6788	-0.412
Mof_O 	O 	0.70056	0.80456	0.51096	-0.373
Mof_O 	O 	0.79343	0.45163	0.89433	-0.395
Mof_O 	O 	0.6788	0.4007	0.7783	-0.412
Mof_O 	O 	0.70056	0.51096	0.80456	-0.373
Mof_O 	O 	0.34492	0.76832	0.87162	-0.401
Mof_O 	O 	0.76832	0.34492	0.87162	-0.401
Mof_O 	O 	0.45163	0.79343	0.89433	-0.395
Mof_O 	O 	0.80456	0.70056	0.51096	-0.373
Mof_O 	O 	0.79343	0.89433	0.45163	-0.395
Mof_O 	O 	0.76832	0.87162	0.34492	-0.401
Mof_O 	O 	0.51096	0.70056	0.80456	-0.373
Mof_O 	O 	0.6788	0.7783	0.4007	-0.412
Mof_O 	O 	0.89433	0.45163	0.79343	-0.395
Mof_O 	O 	0.51096	0.80456	0.70056	-0.373
Mof_O 	O 	0.4007	0.6788	0.7783	-0.412
Mof_O 	O 	0.7783	0.6788	0.4007	-0.412
Mof_O 	O 	0.89433	0.79343	0.45163	-0.395
Mof_O 	O 	0.7783	0.4007	0.6788	-0.412
Mof_O 	O 	0.80456	0.51096	0.70056	-0.373
Mof_O 	O 	0.45163	0.89433	0.79343	-0.395
_end
