data_functionalizedCrystal
_audit_creation_method	'EQeq! by Chris Wilmer'
_symmetry_space_group_name_H-M	'P1'
_symmetry_Int_Tables_number	1
_symmetry_cell_setting	triclinic
loop_
_symmetry_equiv_pos_as_xyz
  x,y,z
_cell_length_a	10.2541
_cell_length_b	10.8657
_cell_length_c	10.986
_cell_angle_alpha	83.309
_cell_angle_beta	91.74
_cell_angle_gamma	61.657
loop_
_atom_site_label
_atom_site_type_symbol
_atom_site_fract_x
_atom_site_fract_y
_atom_site_fract_z
_atom_site_charge
Mof_Co	Co	0.0982	0.8831	0.25679	1.155
Mof_Co	Co	0.9535	0.8767	0.99792	1.123
Mof_Co	Co	0.834	0.0426	0.46798	1.124
Mof_C 	C 	0.679	0.9387	0.2835	0.047
Mof_C 	C 	0.689	0.9171	0.1602	0.084
Mof_C 	C 	0.603	0.8694	0.1022	-0.148
Mof_H 	H 	0.6134	0.8526	0.021	0.074
Mof_C 	C 	0.503	0.8478	0.1691	0.037
Mof_H 	H 	0.4397	0.8203	0.1325	0.002
Mof_C 	C 	0.496	0.8676	0.2935	-0.089
Mof_C 	C 	0.581	0.9137	0.3518	-0.058
Mof_H 	H 	0.5727	0.9277	0.4338	0.059
Mof_C 	C 	0.395	0.833	0.3645	0.315
Mof_C 	C 	0.1029	0.2696	0.2168	0.04
Mof_C 	C 	0.117	0.2348	0.3443	0.08
Mof_C 	C 	0.118	0.326	0.4242	-0.145
Mof_H 	H 	0.1269	0.3025	0.5093	0.078
Mof_C 	C 	0.104	0.4532	0.369	0.04
Mof_H 	H 	0.1047	0.517	0.4186	0.027
Mof_C 	C 	0.091	0.4887	0.2409	-0.096
Mof_C 	C 	0.0898	0.3974	0.1625	-0.059
Mof_H 	H 	0.0808	0.4209	0.0774	0.062
Mof_C 	C 	0.077	0.6276	0.1899	0.372
Mof_N 	N 	0.78	0.9784	0.3158	-0.216
Mof_N 	N 	0.848	0.9847	0.2157	-0.179
Mof_N 	N 	0.796	0.9468	0.1219	-0.22
Mof_N 	N 	0.1057	0.1594	0.1682	-0.225
Mof_N 	N 	0.1204	0.0653	0.2642	-0.197
Mof_N 	N 	0.1277	0.1053	0.3733	-0.215
Mof_O 	O 	0.1112	0.908	0.0748	-0.736
Mof_H 	H 	0.2144	0.8702	0.0588	0.168
Mof_O 	O 	0.054	0.8908	0.4308	-0.708
Mof_H 	H 	0.1198	0.7963	0.475	0.139
Mof_O 	O 	0.374	0.8626	0.4755	-0.425
Mof_O 	O 	0.326	0.775	0.3144	-0.412
Mof_O 	O 	0.037	0.6696	0.0738	-0.447
Mof_O 	O 	0.086	0.6988	0.2654	-0.449
Mof_Co	Co	0.9018	0.1169	0.74321	1.154
Mof_Co	Co	0.0465	0.1233	0.00208	1.122
Mof_Co	Co	0.166	0.9574	0.53202	1.123
Mof_C 	C 	0.321	0.0613	0.7165	0.046
Mof_C 	C 	0.311	0.0829	0.8398	0.084
Mof_C 	C 	0.397	0.1306	0.8978	-0.148
Mof_H 	H 	0.3866	0.1474	0.979	0.074
Mof_C 	C 	0.497	0.1522	0.8309	0.037
Mof_H 	H 	0.5603	0.1797	0.8675	0.002
Mof_C 	C 	0.504	0.1324	0.7065	-0.089
Mof_C 	C 	0.419	0.0863	0.6482	-0.058
Mof_H 	H 	0.4273	0.0723	0.5662	0.059
Mof_C 	C 	0.605	0.167	0.6355	0.315
Mof_C 	C 	0.8971	0.7304	0.7832	0.04
Mof_C 	C 	0.883	0.7652	0.6557	0.08
Mof_C 	C 	0.882	0.674	0.5758	-0.145
Mof_H 	H 	0.8731	0.6975	0.4907	0.078
Mof_C 	C 	0.896	0.5468	0.631	0.04
Mof_H 	H 	0.8953	0.483	0.5814	0.027
Mof_C 	C 	0.909	0.5113	0.7591	-0.096
Mof_C 	C 	0.9102	0.6026	0.8375	-0.059
Mof_H 	H 	0.9192	0.5791	0.9226	0.062
Mof_C 	C 	0.923	0.3724	0.8101	0.372
Mof_N 	N 	0.22	0.0216	0.6842	-0.216
Mof_N 	N 	0.152	0.0153	0.7843	-0.179
Mof_N 	N 	0.204	0.0532	0.8781	-0.22
Mof_N 	N 	0.8943	0.8406	0.8318	-0.225
Mof_N 	N 	0.8796	0.9347	0.7358	-0.197
Mof_N 	N 	0.8723	0.8947	0.6267	-0.215
Mof_O 	O 	0.8888	0.092	0.9252	-0.736
Mof_H 	H 	0.7856	0.1298	0.9412	0.168
Mof_O 	O 	0.946	0.1092	0.5692	-0.708
Mof_H 	H 	0.8802	0.2037	0.525	0.139
Mof_O 	O 	0.626	0.1374	0.5245	-0.425
Mof_O 	O 	0.674	0.225	0.6856	-0.412
Mof_O 	O 	0.963	0.3304	0.9262	-0.447
Mof_O 	O 	0.914	0.3012	0.7346	-0.449
_end
