# CIF file generated by openbabel 3.1.0, see https://openbabel.org
data_I
_chemical_name_common 'image0'
_cell_length_a 21.187
_cell_length_b 21.187
_cell_length_c 21.9
_cell_angle_alpha 90
_cell_angle_beta 90
_cell_angle_gamma 120
_space_group_name_H-M_alt 'P 1'
_space_group_name_Hall 'P 1'
loop_
    _symmetry_equiv_pos_as_xyz
    x,y,z
loop_
    _atom_site_label
    _atom_site_type_symbol
    _atom_site_fract_x
    _atom_site_fract_y
    _atom_site_fract_z
    _atom_site_occupancy
    Cu1      Cu       0.46954    0.53956    0.00938    1.000
    C1       C        0.40550    0.40270    0.06821    1.000
    C2       C        0.34920    0.34290    0.10711    1.000
    C3       C        0.31320    0.35800    0.15293    1.000
    H1       H        0.32340    0.40550    0.15970    1.000
    C4       C        0.26220    0.30150    0.18829    1.000
    C5       C        0.24510    0.23110    0.17650    1.000
    H2       H        0.20940    0.19340    0.19960    1.000
    C6       C        0.27990    0.21510    0.13091    1.000
    C7       C        0.33300    0.27190    0.09693    1.000
    H3       H        0.35810    0.26220    0.06690    1.000
    C8       C        0.29650    0.11940    0.07910    1.000
    C9       C        0.25550    0.03870    0.08330    1.000
    C10      C        0.26850    0.99070    0.05220    1.000
    H4       H        0.30590    0.00650    0.02370    1.000
    C11      C        0.22410    0.91790    0.06470    1.000
    H5       H        0.23110    0.88370    0.04390    1.000
    C12      C        0.17020    0.89500    0.10690    1.000
    H6       H        0.14150    0.84540    0.11500    1.000
    C13      C        0.15720    0.94410    0.13820    1.000
    H7       H        0.12010    0.92840    0.16690    1.000
    C14      C        0.20140    0.01730    0.12540    1.000
    C15      C        0.20230    0.08080    0.15200    1.000
    H8       H        0.15610    0.07880    0.14570    1.000
    H9       H        0.21210    0.08360    0.19550    1.000
    C16      C        0.22770    0.31650    0.24147    1.000
    N1       N        0.26011    0.14207    0.12055    1.000
    O1       O        0.45055    0.38973    0.04255    1.000
    O2       O        0.24721    0.38122    0.25328    1.000
    O3       O        0.40133    0.45866    0.06189    1.000
    O4       O        0.18067    0.26144    0.27088    1.000
    O5       O        0.34970    0.15680    0.05084    1.000
    H10      H        0.34700    0.13870    0.09100    1.000
    H11      H        0.29490    0.13530    0.03800    1.000
    O6       O        0.17040    0.08100    0.19050    1.000
    Cu2      Cu       0.13621    0.87289    0.34271    1.000
    C17      C        0.07217    0.73603    0.40154    1.000
    C18      C        0.01587    0.67623    0.44044    1.000
    C19      C        0.97987    0.69133    0.48626    1.000
    H12      H        0.99007    0.73883    0.49303    1.000
    C20      C        0.92887    0.63483    0.52162    1.000
    C21      C        0.91177    0.56443    0.50983    1.000
    H13      H        0.87607    0.52673    0.53293    1.000
    C22      C        0.94657    0.54843    0.46424    1.000
    C23      C        0.99967    0.60523    0.43026    1.000
    H14      H        0.02477    0.59553    0.40023    1.000
    C24      C        0.96317    0.45273    0.41243    1.000
    C25      C        0.92217    0.37203    0.41663    1.000
    C26      C        0.93517    0.32403    0.38553    1.000
    H15      H        0.97257    0.33983    0.35703    1.000
    C27      C        0.89077    0.25123    0.39803    1.000
    H16      H        0.89777    0.21703    0.37723    1.000
    C28      C        0.83687    0.22833    0.44023    1.000
    H17      H        0.80817    0.17873    0.44833    1.000
    C29      C        0.82387    0.27743    0.47153    1.000
    H18      H        0.78677    0.26173    0.50023    1.000
    C30      C        0.86807    0.35063    0.45873    1.000
    C31      C        0.86897    0.41413    0.48533    1.000
    H19      H        0.82277    0.41213    0.47903    1.000
    H20      H        0.87877    0.41693    0.52883    1.000
    C32      C        0.89437    0.64983    0.57480    1.000
    N2       N        0.92678    0.47540    0.45388    1.000
    O7       O        0.11722    0.72306    0.37588    1.000
    O8       O        0.91388    0.71455    0.58661    1.000
    O9       O        0.06800    0.79199    0.39522    1.000
    O10      O        0.84734    0.59477    0.60421    1.000
    O11      O        0.01637    0.49013    0.38417    1.000
    H21      H        0.01367    0.47203    0.42433    1.000
    H22      H        0.96157    0.46863    0.37133    1.000
    O12      O        0.83707    0.41433    0.52383    1.000
    Cu3      Cu       0.80287    0.20623    0.67605    1.000
    C33      C        0.73883    0.06937    0.73488    1.000
    C34      C        0.68253    0.00957    0.77378    1.000
    C35      C        0.64653    0.02467    0.81960    1.000
    H23      H        0.65673    0.07217    0.82637    1.000
    C36      C        0.59553    0.96817    0.85496    1.000
    C37      C        0.57843    0.89777    0.84317    1.000
    H24      H        0.54273    0.86007    0.86627    1.000
    C38      C        0.61323    0.88177    0.79758    1.000
    C39      C        0.66633    0.93857    0.76360    1.000
    H25      H        0.69143    0.92887    0.73357    1.000
    C40      C        0.62983    0.78607    0.74577    1.000
    C41      C        0.58883    0.70537    0.74997    1.000
    C42      C        0.60183    0.65737    0.71887    1.000
    H26      H        0.63923    0.67317    0.69037    1.000
    C43      C        0.55743    0.58457    0.73137    1.000
    H27      H        0.56443    0.55037    0.71057    1.000
    C44      C        0.50353    0.56167    0.77357    1.000
    H28      H        0.47483    0.51207    0.78167    1.000
    C45      C        0.49053    0.61077    0.80487    1.000
    H29      H        0.45343    0.59507    0.83357    1.000
    C46      C        0.53473    0.68397    0.79207    1.000
    C47      C        0.53563    0.74747    0.81867    1.000
    H30      H        0.48943    0.74547    0.81237    1.000
    H31      H        0.54543    0.75027    0.86217    1.000
    C48      C        0.56103    0.98317    0.90814    1.000
    N3       N        0.59344    0.80874    0.78722    1.000
    O13      O        0.78388    0.05640    0.70922    1.000
    O14      O        0.58054    0.04789    0.91995    1.000
    O15      O        0.73466    0.12533    0.72856    1.000
    O16      O        0.51400    0.92811    0.93755    1.000
    O17      O        0.68303    0.82347    0.71751    1.000
    H32      H        0.68033    0.80537    0.75767    1.000
    H33      H        0.62823    0.80197    0.70467    1.000
    O18      O        0.50373    0.74767    0.85717    1.000
    Cu4      Cu       0.46044    0.92998    0.00938    1.000
    C49      C        0.59730    0.00280    0.06821    1.000
    C50      C        0.65710    0.00630    0.10711    1.000
    C51      C        0.64200    0.95520    0.15293    1.000
    H34      H        0.59450    0.91790    0.15970    1.000
    C52      C        0.69850    0.96070    0.18829    1.000
    C53      C        0.76890    0.01400    0.17650    1.000
    H35      H        0.80660    0.01600    0.19960    1.000
    C54      C        0.78490    0.06480    0.13091    1.000
    C55      C        0.72810    0.06110    0.09693    1.000
    H36      H        0.73780    0.09590    0.06690    1.000
    C56      C        0.88060    0.17710    0.07910    1.000
    C57      C        0.96130    0.21680    0.08330    1.000
    C58      C        0.00930    0.27780    0.05220    1.000
    H37      H        0.99350    0.29940    0.02370    1.000
    C59      C        0.08210    0.30620    0.06470    1.000
    H38      H        0.11630    0.34740    0.04390    1.000
    C60      C        0.10500    0.27520    0.10690    1.000
    H39      H        0.15460    0.29610    0.11500    1.000
    C61      C        0.05590    0.21310    0.13820    1.000
    H40      H        0.07160    0.19170    0.16690    1.000
    C62      C        0.98270    0.18410    0.12540    1.000
    C63      C        0.91920    0.12150    0.15200    1.000
    H41      H        0.92120    0.07730    0.14570    1.000
    H42      H        0.91640    0.12850    0.19550    1.000
    C64      C        0.68350    0.91120    0.24147    1.000
    N4       N        0.85793    0.11804    0.12055    1.000
    O19      O        0.61027    0.06082    0.04255    1.000
    O20      O        0.61878    0.86599    0.25328    1.000
    O21      O        0.54134    0.94267    0.06189    1.000
    O22      O        0.73856    0.91923    0.27088    1.000
    O23      O        0.84320    0.19290    0.05084    1.000
    H43      H        0.86130    0.20830    0.09100    1.000
    H44      H        0.86470    0.15960    0.03800    1.000
    O24      O        0.91900    0.08940    0.19050    1.000
    Cu5      Cu       0.12711    0.26331    0.34271    1.000
    C65      C        0.26397    0.33613    0.40154    1.000
    C66      C        0.32377    0.33963    0.44044    1.000
    C67      C        0.30867    0.28853    0.48626    1.000
    H45      H        0.26117    0.25123    0.49303    1.000
    C68      C        0.36517    0.29403    0.52162    1.000
    C69      C        0.43557    0.34733    0.50983    1.000
    H46      H        0.47327    0.34933    0.53293    1.000
    C70      C        0.45157    0.39813    0.46424    1.000
    C71      C        0.39477    0.39443    0.43026    1.000
    H47      H        0.40447    0.42923    0.40023    1.000
    C72      C        0.54727    0.51043    0.41243    1.000
    C73      C        0.62797    0.55013    0.41663    1.000
    C74      C        0.67597    0.61113    0.38553    1.000
    H48      H        0.66017    0.63273    0.35703    1.000
    C75      C        0.74877    0.63953    0.39803    1.000
    H49      H        0.78297    0.68073    0.37723    1.000
    C76      C        0.77167    0.60853    0.44023    1.000
    H50      H        0.82127    0.62943    0.44833    1.000
    C77      C        0.72257    0.54643    0.47153    1.000
    H51      H        0.73827    0.52503    0.50023    1.000
    C78      C        0.64937    0.51743    0.45873    1.000
    C79      C        0.58587    0.45483    0.48533    1.000
    H52      H        0.58787    0.41063    0.47903    1.000
    H53      H        0.58307    0.46183    0.52883    1.000
    C80      C        0.35017    0.24453    0.57480    1.000
    N5       N        0.52460    0.45137    0.45388    1.000
    O25      O        0.27694    0.39415    0.37588    1.000
    O26      O        0.28545    0.19932    0.58661    1.000
    O27      O        0.20801    0.27600    0.39522    1.000
    O28      O        0.40523    0.25256    0.60421    1.000
    O29      O        0.50987    0.52623    0.38417    1.000
    H54      H        0.52797    0.54163    0.42433    1.000
    H55      H        0.53137    0.49293    0.37133    1.000
    O30      O        0.58567    0.42273    0.52383    1.000
    Cu6      Cu       0.79377    0.59665    0.67605    1.000
    C81      C        0.93063    0.66947    0.73488    1.000
    C82      C        0.99043    0.67297    0.77378    1.000
    C83      C        0.97533    0.62187    0.81960    1.000
    H56      H        0.92783    0.58457    0.82637    1.000
    C84      C        0.03183    0.62737    0.85496    1.000
    C85      C        0.10223    0.68067    0.84317    1.000
    H57      H        0.13993    0.68267    0.86627    1.000
    C86      C        0.11823    0.73147    0.79758    1.000
    C87      C        0.06143    0.72777    0.76360    1.000
    H58      H        0.07113    0.76257    0.73357    1.000
    C88      C        0.21393    0.84377    0.74577    1.000
    C89      C        0.29463    0.88347    0.74997    1.000
    C90      C        0.34263    0.94447    0.71887    1.000
    H59      H        0.32683    0.96607    0.69037    1.000
    C91      C        0.41543    0.97287    0.73137    1.000
    H60      H        0.44963    0.01407    0.71057    1.000
    C92      C        0.43833    0.94187    0.77357    1.000
    H61      H        0.48793    0.96277    0.78167    1.000
    C93      C        0.38923    0.87977    0.80487    1.000
    H62      H        0.40493    0.85837    0.83357    1.000
    C94      C        0.31603    0.85077    0.79207    1.000
    C95      C        0.25253    0.78817    0.81867    1.000
    H63      H        0.25453    0.74397    0.81237    1.000
    H64      H        0.24973    0.79517    0.86217    1.000
    C96      C        0.01683    0.57787    0.90814    1.000
    N6       N        0.19126    0.78471    0.78722    1.000
    O31      O        0.94360    0.72749    0.70922    1.000
    O32      O        0.95211    0.53266    0.91995    1.000
    O33      O        0.87467    0.60934    0.72856    1.000
    O34      O        0.07189    0.58590    0.93755    1.000
    O35      O        0.17653    0.85957    0.71751    1.000
    H65      H        0.19463    0.87497    0.75767    1.000
    H66      H        0.19803    0.82627    0.70467    1.000
    O36      O        0.25233    0.75607    0.85717    1.000
    Cu7      Cu       0.07002    0.53046    0.00938    1.000
    C97      C        0.99720    0.59450    0.06821    1.000
    C98      C        0.99370    0.65080    0.10711    1.000
    C99      C        0.04480    0.68680    0.15293    1.000
    H67      H        0.08210    0.67660    0.15970    1.000
    C100     C        0.03930    0.73780    0.18829    1.000
    C101     C        0.98600    0.75490    0.17650    1.000
    H68      H        0.98400    0.79060    0.19960    1.000
    C102     C        0.93520    0.72010    0.13091    1.000
    C103     C        0.93890    0.66700    0.09693    1.000
    H69      H        0.90410    0.64190    0.06690    1.000
    C104     C        0.82290    0.70350    0.07910    1.000
    C105     C        0.78320    0.74450    0.08330    1.000
    C106     C        0.72220    0.73150    0.05220    1.000
    H70      H        0.70060    0.69410    0.02370    1.000
    C107     C        0.69380    0.77590    0.06470    1.000
    H71      H        0.65260    0.76890    0.04390    1.000
    C108     C        0.72480    0.82980    0.10690    1.000
    H72      H        0.70390    0.85850    0.11500    1.000
    C109     C        0.78690    0.84280    0.13820    1.000
    H73      H        0.80830    0.87990    0.16690    1.000
    C110     C        0.81590    0.79860    0.12540    1.000
    C111     C        0.87850    0.79770    0.15200    1.000
    H74      H        0.92270    0.84390    0.14570    1.000
    H75      H        0.87150    0.78790    0.19550    1.000
    C112     C        0.08880    0.77230    0.24147    1.000
    N7       N        0.88196    0.73989    0.12055    1.000
    O37      O        0.93918    0.54945    0.04255    1.000
    O38      O        0.13401    0.75279    0.25328    1.000
    O39      O        0.05733    0.59867    0.06189    1.000
    O40      O        0.08077    0.81933    0.27088    1.000
    O41      O        0.80710    0.65030    0.05084    1.000
    H76      H        0.79170    0.65300    0.09100    1.000
    H77      H        0.84040    0.70510    0.03800    1.000
    O42      O        0.91060    0.82960    0.19050    1.000
    Cu8      Cu       0.73669    0.86379    0.34271    1.000
    C113     C        0.66387    0.92783    0.40154    1.000
    C114     C        0.66037    0.98413    0.44044    1.000
    C115     C        0.71147    0.02013    0.48626    1.000
    H78      H        0.74877    0.00993    0.49303    1.000
    C116     C        0.70597    0.07113    0.52162    1.000
    C117     C        0.65267    0.08823    0.50983    1.000
    H79      H        0.65067    0.12393    0.53293    1.000
    C118     C        0.60187    0.05343    0.46424    1.000
    C119     C        0.60557    0.00033    0.43026    1.000
    H80      H        0.57077    0.97523    0.40023    1.000
    C120     C        0.48957    0.03683    0.41243    1.000
    C121     C        0.44987    0.07783    0.41663    1.000
    C122     C        0.38887    0.06483    0.38553    1.000
    H81      H        0.36727    0.02743    0.35703    1.000
    C123     C        0.36047    0.10923    0.39803    1.000
    H82      H        0.31927    0.10223    0.37723    1.000
    C124     C        0.39147    0.16313    0.44023    1.000
    H83      H        0.37057    0.19183    0.44833    1.000
    C125     C        0.45357    0.17613    0.47153    1.000
    H84      H        0.47497    0.21323    0.50023    1.000
    C126     C        0.48257    0.13193    0.45873    1.000
    C127     C        0.54517    0.13103    0.48533    1.000
    H85      H        0.58937    0.17723    0.47903    1.000
    H86      H        0.53817    0.12123    0.52883    1.000
    C128     C        0.75547    0.10563    0.57480    1.000
    N8       N        0.54863    0.07322    0.45388    1.000
    O43      O        0.60585    0.88278    0.37588    1.000
    O44      O        0.80068    0.08612    0.58661    1.000
    O45      O        0.72400    0.93200    0.39522    1.000
    O46      O        0.74744    0.15266    0.60421    1.000
    O47      O        0.47377    0.98363    0.38417    1.000
    H87      H        0.45837    0.98633    0.42433    1.000
    H88      H        0.50707    0.03843    0.37133    1.000
    O48      O        0.57727    0.16293    0.52383    1.000
    Cu9      Cu       0.40335    0.19713    0.67605    1.000
    C129     C        0.33053    0.26117    0.73488    1.000
    C130     C        0.32703    0.31747    0.77378    1.000
    C131     C        0.37813    0.35347    0.81960    1.000
    H89      H        0.41543    0.34327    0.82637    1.000
    C132     C        0.37263    0.40447    0.85496    1.000
    C133     C        0.31933    0.42157    0.84317    1.000
    H90      H        0.31733    0.45727    0.86627    1.000
    C134     C        0.26853    0.38677    0.79758    1.000
    C135     C        0.27223    0.33367    0.76360    1.000
    H91      H        0.23743    0.30857    0.73357    1.000
    C136     C        0.15623    0.37017    0.74577    1.000
    C137     C        0.11653    0.41117    0.74997    1.000
    C138     C        0.05553    0.39817    0.71887    1.000
    H92      H        0.03393    0.36077    0.69037    1.000
    C139     C        0.02713    0.44257    0.73137    1.000
    H93      H        0.98593    0.43557    0.71057    1.000
    C140     C        0.05813    0.49647    0.77357    1.000
    H94      H        0.03723    0.52517    0.78167    1.000
    C141     C        0.12023    0.50947    0.80487    1.000
    H95      H        0.14163    0.54657    0.83357    1.000
    C142     C        0.14923    0.46527    0.79207    1.000
    C143     C        0.21183    0.46437    0.81867    1.000
    H96      H        0.25603    0.51057    0.81237    1.000
    H97      H        0.20483    0.45457    0.86217    1.000
    C144     C        0.42213    0.43897    0.90814    1.000
    N9       N        0.21529    0.40656    0.78722    1.000
    O49      O        0.27251    0.21612    0.70922    1.000
    O50      O        0.46734    0.41946    0.91995    1.000
    O51      O        0.39066    0.26534    0.72856    1.000
    O52      O        0.41410    0.48600    0.93755    1.000
    O53      O        0.14043    0.31697    0.71751    1.000
    H98      H        0.12503    0.31967    0.75767    1.000
    H99      H        0.17373    0.37177    0.70467    1.000
    O54      O        0.24393    0.49627    0.85717    1.000
    Cu10     Cu       0.53046    0.46044    0.99062    1.000
    C145     C        0.59450    0.59730    0.93179    1.000
    C146     C        0.65080    0.65710    0.89289    1.000
    C147     C        0.68680    0.64200    0.84707    1.000
    H100     H        0.67660    0.59450    0.84030    1.000
    C148     C        0.73780    0.69850    0.81171    1.000
    C149     C        0.75490    0.76890    0.82350    1.000
    H101     H        0.79060    0.80660    0.80040    1.000
    C150     C        0.72010    0.78490    0.86909    1.000
    C151     C        0.66700    0.72810    0.90307    1.000
    H102     H        0.64190    0.73780    0.93310    1.000
    C152     C        0.70350    0.88060    0.92090    1.000
    C153     C        0.74450    0.96130    0.91670    1.000
    C154     C        0.73150    0.00930    0.94780    1.000
    H103     H        0.69410    0.99350    0.97630    1.000
    C155     C        0.77590    0.08210    0.93530    1.000
    H104     H        0.76890    0.11630    0.95610    1.000
    C156     C        0.82980    0.10500    0.89310    1.000
    H105     H        0.85850    0.15460    0.88500    1.000
    C157     C        0.84280    0.05590    0.86180    1.000
    H106     H        0.87990    0.07160    0.83310    1.000
    C158     C        0.79860    0.98270    0.87460    1.000
    C159     C        0.79770    0.91920    0.84800    1.000
    H107     H        0.84390    0.92120    0.85430    1.000
    H108     H        0.78790    0.91640    0.80450    1.000
    C160     C        0.77230    0.68350    0.75853    1.000
    N10      N        0.73989    0.85793    0.87945    1.000
    O55      O        0.54945    0.61027    0.95745    1.000
    O56      O        0.75279    0.61878    0.74672    1.000
    O57      O        0.59867    0.54134    0.93811    1.000
    O58      O        0.81933    0.73856    0.72912    1.000
    O59      O        0.65030    0.84320    0.94916    1.000
    H109     H        0.65300    0.86130    0.90900    1.000
    H110     H        0.70510    0.86470    0.96200    1.000
    O60      O        0.82960    0.91900    0.80950    1.000
    Cu11     Cu       0.19713    0.79377    0.32395    1.000
    C161     C        0.26117    0.93063    0.26512    1.000
    C162     C        0.31747    0.99043    0.22622    1.000
    C163     C        0.35347    0.97533    0.18040    1.000
    H111     H        0.34327    0.92783    0.17363    1.000
    C164     C        0.40447    0.03183    0.14504    1.000
    C165     C        0.42157    0.10223    0.15683    1.000
    H112     H        0.45727    0.13993    0.13373    1.000
    C166     C        0.38677    0.11823    0.20242    1.000
    C167     C        0.33367    0.06143    0.23640    1.000
    H113     H        0.30857    0.07113    0.26643    1.000
    C168     C        0.37017    0.21393    0.25423    1.000
    C169     C        0.41117    0.29463    0.25003    1.000
    C170     C        0.39817    0.34263    0.28113    1.000
    H114     H        0.36077    0.32683    0.30963    1.000
    C171     C        0.44257    0.41543    0.26863    1.000
    H115     H        0.43557    0.44963    0.28943    1.000
    C172     C        0.49647    0.43833    0.22643    1.000
    H116     H        0.52517    0.48793    0.21833    1.000
    C173     C        0.50947    0.38923    0.19513    1.000
    H117     H        0.54657    0.40493    0.16643    1.000
    C174     C        0.46527    0.31603    0.20793    1.000
    C175     C        0.46437    0.25253    0.18133    1.000
    H118     H        0.51057    0.25453    0.18763    1.000
    H119     H        0.45457    0.24973    0.13783    1.000
    C176     C        0.43897    0.01683    0.09186    1.000
    N11      N        0.40656    0.19126    0.21278    1.000
    O61      O        0.21612    0.94360    0.29078    1.000
    O62      O        0.41946    0.95211    0.08005    1.000
    O63      O        0.26534    0.87467    0.27144    1.000
    O64      O        0.48600    0.07189    0.06245    1.000
    O65      O        0.31697    0.17653    0.28249    1.000
    H120     H        0.31967    0.19463    0.24233    1.000
    H121     H        0.37177    0.19803    0.29533    1.000
    O66      O        0.49627    0.25233    0.14283    1.000
    Cu12     Cu       0.86379    0.12711    0.65729    1.000
    C177     C        0.92783    0.26397    0.59846    1.000
    C178     C        0.98413    0.32377    0.55956    1.000
    C179     C        0.02013    0.30867    0.51374    1.000
    H122     H        0.00993    0.26117    0.50697    1.000
    C180     C        0.07113    0.36517    0.47838    1.000
    C181     C        0.08823    0.43557    0.49017    1.000
    H123     H        0.12393    0.47327    0.46707    1.000
    C182     C        0.05343    0.45157    0.53576    1.000
    C183     C        0.00033    0.39477    0.56974    1.000
    H124     H        0.97523    0.40447    0.59977    1.000
    C184     C        0.03683    0.54727    0.58757    1.000
    C185     C        0.07783    0.62797    0.58337    1.000
    C186     C        0.06483    0.67597    0.61447    1.000
    H125     H        0.02743    0.66017    0.64297    1.000
    C187     C        0.10923    0.74877    0.60197    1.000
    H126     H        0.10223    0.78297    0.62277    1.000
    C188     C        0.16313    0.77167    0.55977    1.000
    H127     H        0.19183    0.82127    0.55167    1.000
    C189     C        0.17613    0.72257    0.52847    1.000
    H128     H        0.21323    0.73827    0.49977    1.000
    C190     C        0.13193    0.64937    0.54127    1.000
    C191     C        0.13103    0.58587    0.51467    1.000
    H129     H        0.17723    0.58787    0.52097    1.000
    H130     H        0.12123    0.58307    0.47117    1.000
    C192     C        0.10563    0.35017    0.42520    1.000
    N12      N        0.07322    0.52460    0.54612    1.000
    O67      O        0.88278    0.27694    0.62412    1.000
    O68      O        0.08612    0.28545    0.41339    1.000
    O69      O        0.93200    0.20801    0.60478    1.000
    O70      O        0.15266    0.40523    0.39579    1.000
    O71      O        0.98363    0.50987    0.61583    1.000
    H131     H        0.98633    0.52797    0.57567    1.000
    H132     H        0.03843    0.53137    0.62867    1.000
    O72      O        0.16293    0.58567    0.47617    1.000
    Cu13     Cu       0.53956    0.07002    0.99062    1.000
    C193     C        0.40270    0.99720    0.93179    1.000
    C194     C        0.34290    0.99370    0.89289    1.000
    C195     C        0.35800    0.04480    0.84707    1.000
    H133     H        0.40550    0.08210    0.84030    1.000
    C196     C        0.30150    0.03930    0.81171    1.000
    C197     C        0.23110    0.98600    0.82350    1.000
    H134     H        0.19340    0.98400    0.80040    1.000
    C198     C        0.21510    0.93520    0.86909    1.000
    C199     C        0.27190    0.93890    0.90307    1.000
    H135     H        0.26220    0.90410    0.93310    1.000
    C200     C        0.11940    0.82290    0.92090    1.000
    C201     C        0.03870    0.78320    0.91670    1.000
    C202     C        0.99070    0.72220    0.94780    1.000
    H136     H        0.00650    0.70060    0.97630    1.000
    C203     C        0.91790    0.69380    0.93530    1.000
    H137     H        0.88370    0.65260    0.95610    1.000
    C204     C        0.89500    0.72480    0.89310    1.000
    H138     H        0.84540    0.70390    0.88500    1.000
    C205     C        0.94410    0.78690    0.86180    1.000
    H139     H        0.92840    0.80830    0.83310    1.000
    C206     C        0.01730    0.81590    0.87460    1.000
    C207     C        0.08080    0.87850    0.84800    1.000
    H140     H        0.07880    0.92270    0.85430    1.000
    H141     H        0.08360    0.87150    0.80450    1.000
    C208     C        0.31650    0.08880    0.75853    1.000
    N13      N        0.14207    0.88196    0.87945    1.000
    O73      O        0.38973    0.93918    0.95745    1.000
    O74      O        0.38122    0.13401    0.74672    1.000
    O75      O        0.45866    0.05733    0.93811    1.000
    O76      O        0.26144    0.08077    0.72912    1.000
    O77      O        0.15680    0.80710    0.94916    1.000
    H142     H        0.13870    0.79170    0.90900    1.000
    H143     H        0.13530    0.84040    0.96200    1.000
    O78      O        0.08100    0.91060    0.80950    1.000
    Cu14     Cu       0.20623    0.40335    0.32395    1.000
    C209     C        0.06937    0.33053    0.26512    1.000
    C210     C        0.00957    0.32703    0.22622    1.000
    C211     C        0.02467    0.37813    0.18040    1.000
    H144     H        0.07217    0.41543    0.17363    1.000
    C212     C        0.96817    0.37263    0.14504    1.000
    C213     C        0.89777    0.31933    0.15683    1.000
    H145     H        0.86007    0.31733    0.13373    1.000
    C214     C        0.88177    0.26853    0.20242    1.000
    C215     C        0.93857    0.27223    0.23640    1.000
    H146     H        0.92887    0.23743    0.26643    1.000
    C216     C        0.78607    0.15623    0.25423    1.000
    C217     C        0.70537    0.11653    0.25003    1.000
    C218     C        0.65737    0.05553    0.28113    1.000
    H147     H        0.67317    0.03393    0.30963    1.000
    C219     C        0.58457    0.02713    0.26863    1.000
    H148     H        0.55037    0.98593    0.28943    1.000
    C220     C        0.56167    0.05813    0.22643    1.000
    H149     H        0.51207    0.03723    0.21833    1.000
    C221     C        0.61077    0.12023    0.19513    1.000
    H150     H        0.59507    0.14163    0.16643    1.000
    C222     C        0.68397    0.14923    0.20793    1.000
    C223     C        0.74747    0.21183    0.18133    1.000
    H151     H        0.74547    0.25603    0.18763    1.000
    H152     H        0.75027    0.20483    0.13783    1.000
    C224     C        0.98317    0.42213    0.09186    1.000
    N14      N        0.80874    0.21529    0.21278    1.000
    O79      O        0.05640    0.27251    0.29078    1.000
    O80      O        0.04789    0.46734    0.08005    1.000
    O81      O        0.12533    0.39066    0.27144    1.000
    O82      O        0.92811    0.41410    0.06245    1.000
    O83      O        0.82347    0.14043    0.28249    1.000
    H153     H        0.80537    0.12503    0.24233    1.000
    H154     H        0.80197    0.17373    0.29533    1.000
    O84      O        0.74767    0.24393    0.14283    1.000
    Cu15     Cu       0.87289    0.73669    0.65729    1.000
    C225     C        0.73603    0.66387    0.59846    1.000
    C226     C        0.67623    0.66037    0.55956    1.000
    C227     C        0.69133    0.71147    0.51374    1.000
    H155     H        0.73883    0.74877    0.50697    1.000
    C228     C        0.63483    0.70597    0.47838    1.000
    C229     C        0.56443    0.65267    0.49017    1.000
    H156     H        0.52673    0.65067    0.46707    1.000
    C230     C        0.54843    0.60187    0.53576    1.000
    C231     C        0.60523    0.60557    0.56974    1.000
    H157     H        0.59553    0.57077    0.59977    1.000
    C232     C        0.45273    0.48957    0.58757    1.000
    C233     C        0.37203    0.44987    0.58337    1.000
    C234     C        0.32403    0.38887    0.61447    1.000
    H158     H        0.33983    0.36727    0.64297    1.000
    C235     C        0.25123    0.36047    0.60197    1.000
    H159     H        0.21703    0.31927    0.62277    1.000
    C236     C        0.22833    0.39147    0.55977    1.000
    H160     H        0.17873    0.37057    0.55167    1.000
    C237     C        0.27743    0.45357    0.52847    1.000
    H161     H        0.26173    0.47497    0.49977    1.000
    C238     C        0.35063    0.48257    0.54127    1.000
    C239     C        0.41413    0.54517    0.51467    1.000
    H162     H        0.41213    0.58937    0.52097    1.000
    H163     H        0.41693    0.53817    0.47117    1.000
    C240     C        0.64983    0.75547    0.42520    1.000
    N15      N        0.47540    0.54863    0.54612    1.000
    O85      O        0.72306    0.60585    0.62412    1.000
    O86      O        0.71455    0.80068    0.41339    1.000
    O87      O        0.79199    0.72400    0.60478    1.000
    O88      O        0.59477    0.74744    0.39579    1.000
    O89      O        0.49013    0.47377    0.61583    1.000
    H164     H        0.47203    0.45837    0.57567    1.000
    H165     H        0.46863    0.50707    0.62867    1.000
    O90      O        0.41433    0.57727    0.47617    1.000
    Cu16     Cu       0.92998    0.46954    0.99062    1.000
    C241     C        0.00280    0.40550    0.93179    1.000
    C242     C        0.00630    0.34920    0.89289    1.000
    C243     C        0.95520    0.31320    0.84707    1.000
    H166     H        0.91790    0.32340    0.84030    1.000
    C244     C        0.96070    0.26220    0.81171    1.000
    C245     C        0.01400    0.24510    0.82350    1.000
    H167     H        0.01600    0.20940    0.80040    1.000
    C246     C        0.06480    0.27990    0.86909    1.000
    C247     C        0.06110    0.33300    0.90307    1.000
    H168     H        0.09590    0.35810    0.93310    1.000
    C248     C        0.17710    0.29650    0.92090    1.000
    C249     C        0.21680    0.25550    0.91670    1.000
    C250     C        0.27780    0.26850    0.94780    1.000
    H169     H        0.29940    0.30590    0.97630    1.000
    C251     C        0.30620    0.22410    0.93530    1.000
    H170     H        0.34740    0.23110    0.95610    1.000
    C252     C        0.27520    0.17020    0.89310    1.000
    H171     H        0.29610    0.14150    0.88500    1.000
    C253     C        0.21310    0.15720    0.86180    1.000
    H172     H        0.19170    0.12010    0.83310    1.000
    C254     C        0.18410    0.20140    0.87460    1.000
    C255     C        0.12150    0.20230    0.84800    1.000
    H173     H        0.07730    0.15610    0.85430    1.000
    H174     H        0.12850    0.21210    0.80450    1.000
    C256     C        0.91120    0.22770    0.75853    1.000
    N16      N        0.11804    0.26011    0.87945    1.000
    O91      O        0.06082    0.45055    0.95745    1.000
    O92      O        0.86599    0.24721    0.74672    1.000
    O93      O        0.94267    0.40133    0.93811    1.000
    O94      O        0.91923    0.18067    0.72912    1.000
    O95      O        0.19290    0.34970    0.94916    1.000
    H175     H        0.20830    0.34700    0.90900    1.000
    H176     H        0.15960    0.29490    0.96200    1.000
    O96      O        0.08940    0.17040    0.80950    1.000
    Cu17     Cu       0.59665    0.80287    0.32395    1.000
    C257     C        0.66947    0.73883    0.26512    1.000
    C258     C        0.67297    0.68253    0.22622    1.000
    C259     C        0.62187    0.64653    0.18040    1.000
    H177     H        0.58457    0.65673    0.17363    1.000
    C260     C        0.62737    0.59553    0.14504    1.000
    C261     C        0.68067    0.57843    0.15683    1.000
    H178     H        0.68267    0.54273    0.13373    1.000
    C262     C        0.73147    0.61323    0.20242    1.000
    C263     C        0.72777    0.66633    0.23640    1.000
    H179     H        0.76257    0.69143    0.26643    1.000
    C264     C        0.84377    0.62983    0.25423    1.000
    C265     C        0.88347    0.58883    0.25003    1.000
    C266     C        0.94447    0.60183    0.28113    1.000
    H180     H        0.96607    0.63923    0.30963    1.000
    C267     C        0.97287    0.55743    0.26863    1.000
    H181     H        0.01407    0.56443    0.28943    1.000
    C268     C        0.94187    0.50353    0.22643    1.000
    H182     H        0.96277    0.47483    0.21833    1.000
    C269     C        0.87977    0.49053    0.19513    1.000
    H183     H        0.85837    0.45343    0.16643    1.000
    C270     C        0.85077    0.53473    0.20793    1.000
    C271     C        0.78817    0.53563    0.18133    1.000
    H184     H        0.74397    0.48943    0.18763    1.000
    H185     H        0.79517    0.54543    0.13783    1.000
    C272     C        0.57787    0.56103    0.09186    1.000
    N17      N        0.78471    0.59344    0.21278    1.000
    O97      O        0.72749    0.78388    0.29078    1.000
    O98      O        0.53266    0.58054    0.08005    1.000
    O99      O        0.60934    0.73466    0.27144    1.000
    O100     O        0.58590    0.51400    0.06245    1.000
    O101     O        0.85957    0.68303    0.28249    1.000
    H186     H        0.87497    0.68033    0.24233    1.000
    H187     H        0.82627    0.62823    0.29533    1.000
    O102     O        0.75607    0.50373    0.14283    1.000
    Cu18     Cu       0.26331    0.13621    0.65729    1.000
    C273     C        0.33613    0.07217    0.59846    1.000
    C274     C        0.33963    0.01587    0.55956    1.000
    C275     C        0.28853    0.97987    0.51374    1.000
    H188     H        0.25123    0.99007    0.50697    1.000
    C276     C        0.29403    0.92887    0.47838    1.000
    C277     C        0.34733    0.91177    0.49017    1.000
    H189     H        0.34933    0.87607    0.46707    1.000
    C278     C        0.39813    0.94657    0.53576    1.000
    C279     C        0.39443    0.99967    0.56974    1.000
    H190     H        0.42923    0.02477    0.59977    1.000
    C280     C        0.51043    0.96317    0.58757    1.000
    C281     C        0.55013    0.92217    0.58337    1.000
    C282     C        0.61113    0.93517    0.61447    1.000
    H191     H        0.63273    0.97257    0.64297    1.000
    C283     C        0.63953    0.89077    0.60197    1.000
    H192     H        0.68073    0.89777    0.62277    1.000
    C284     C        0.60853    0.83687    0.55977    1.000
    H193     H        0.62943    0.80817    0.55167    1.000
    C285     C        0.54643    0.82387    0.52847    1.000
    H194     H        0.52503    0.78677    0.49977    1.000
    C286     C        0.51743    0.86807    0.54127    1.000
    C287     C        0.45483    0.86897    0.51467    1.000
    H195     H        0.41063    0.82277    0.52097    1.000
    H196     H        0.46183    0.87877    0.47117    1.000
    C288     C        0.24453    0.89437    0.42520    1.000
    N18      N        0.45137    0.92678    0.54612    1.000
    O103     O        0.39415    0.11722    0.62412    1.000
    O104     O        0.19932    0.91388    0.41339    1.000
    O105     O        0.27600    0.06800    0.60478    1.000
    O106     O        0.25256    0.84734    0.39579    1.000
    O107     O        0.52623    0.01637    0.61583    1.000
    H197     H        0.54163    0.01367    0.57567    1.000
    H198     H        0.49293    0.96157    0.62867    1.000
    O108     O        0.42273    0.83707    0.47617    1.000
