# CIF file generated by openbabel 3.1.0, see https://openbabel.org
data_I
_chemical_name_common 'image0'
_cell_length_a 7.413
_cell_length_b 23.889
_cell_length_c 7.467
_cell_angle_alpha 90
_cell_angle_beta 92.224
_cell_angle_gamma 90
_space_group_name_H-M_alt 'P 1'
_space_group_name_Hall 'P 1'
loop_
    _symmetry_equiv_pos_as_xyz
    x,y,z
loop_
    _atom_site_label
    _atom_site_type_symbol
    _atom_site_fract_x
    _atom_site_fract_y
    _atom_site_fract_z
    _atom_site_occupancy
    O1       O        0.53180    0.24248    0.66210    1.000
    C1       C        0.61330    0.19626    0.68030    1.000
    O2       O        0.72160    0.17713    0.57090    1.000
    C2       C        0.57860    0.16042    0.84500    1.000
    H1       H        0.65540    0.12760    0.84360    1.000
    H2       H        0.45410    0.14780    0.83910    1.000
    C3       C        0.61460    0.19209    0.02080    1.000
    O3       O        0.73230    0.17264    0.12920    1.000
    O4       O        0.52420    0.23563    0.04830    1.000
    Mn1      Mn       0.36503    0.28479    0.85513    1.000
    N1       N        0.57550    0.35443    0.90090    1.000
    C4       C        0.54430    0.40010    0.99470    1.000
    H3       H        0.43110    0.40480    0.04190    1.000
    C5       C        0.67490    0.44140    0.02580    1.000
    H4       H        0.64760    0.47240    0.09500    1.000
    C6       C        0.84220    0.43710    0.95610    1.000
    C7       C        0.87140    0.39050    0.86590    1.000
    H5       H        0.98380    0.38470    0.81780    1.000
    C8       C        0.74060    0.35050    0.84180    1.000
    H6       H        0.77000    0.31830    0.77930    1.000
    C9       C        0.98830    0.47860    0.96910    1.000
    H7       H        0.08940    0.46630    0.91050    1.000
    O5       O        0.96820    0.74248    0.83790    1.000
    C10      C        0.88670    0.69626    0.81970    1.000
    O6       O        0.77840    0.67713    0.92910    1.000
    C11      C        0.92140    0.66042    0.65500    1.000
    H8       H        0.84460    0.62760    0.65640    1.000
    H9       H        0.04590    0.64780    0.66090    1.000
    C12      C        0.88540    0.69209    0.47920    1.000
    O7       O        0.76770    0.67264    0.37080    1.000
    O8       O        0.97580    0.73563    0.45170    1.000
    Mn2      Mn       0.13497    0.78479    0.64487    1.000
    N2       N        0.92450    0.85443    0.59910    1.000
    C13      C        0.95570    0.90010    0.50530    1.000
    H10      H        0.06890    0.90480    0.45810    1.000
    C14      C        0.82510    0.94140    0.47420    1.000
    H11      H        0.85240    0.97240    0.40500    1.000
    C15      C        0.65780    0.93710    0.54390    1.000
    C16      C        0.62860    0.89050    0.63410    1.000
    H12      H        0.51620    0.88470    0.68220    1.000
    C17      C        0.75940    0.85050    0.65820    1.000
    H13      H        0.73000    0.81830    0.72070    1.000
    C18      C        0.51170    0.97860    0.53090    1.000
    H14      H        0.41060    0.96630    0.58950    1.000
    O9       O        0.46820    0.75752    0.33790    1.000
    C19      C        0.38670    0.80374    0.31970    1.000
    O10      O        0.27840    0.82287    0.42910    1.000
    C20      C        0.42140    0.83958    0.15500    1.000
    H15      H        0.34460    0.87240    0.15640    1.000
    H16      H        0.54590    0.85220    0.16090    1.000
    C21      C        0.38540    0.80791    0.97920    1.000
    O11      O        0.26770    0.82736    0.87080    1.000
    O12      O        0.47580    0.76437    0.95170    1.000
    Mn3      Mn       0.63497    0.71521    0.14487    1.000
    N3       N        0.42450    0.64557    0.09910    1.000
    C22      C        0.45570    0.59990    0.00530    1.000
    H17      H        0.56890    0.59520    0.95810    1.000
    C23      C        0.32510    0.55860    0.97420    1.000
    H18      H        0.35240    0.52760    0.90500    1.000
    C24      C        0.15780    0.56290    0.04390    1.000
    C25      C        0.12860    0.60950    0.13410    1.000
    H19      H        0.01620    0.61530    0.18220    1.000
    C26      C        0.25940    0.64950    0.15820    1.000
    H20      H        0.23000    0.68170    0.22070    1.000
    C27      C        0.01170    0.52140    0.03090    1.000
    H21      H        0.91060    0.53370    0.08950    1.000
    O13      O        0.03180    0.25752    0.16210    1.000
    C28      C        0.11330    0.30374    0.18030    1.000
    O14      O        0.22160    0.32287    0.07090    1.000
    C29      C        0.07860    0.33958    0.34500    1.000
    H22      H        0.15540    0.37240    0.34360    1.000
    H23      H        0.95410    0.35220    0.33910    1.000
    C30      C        0.11460    0.30791    0.52080    1.000
    O15      O        0.23230    0.32736    0.62920    1.000
    O16      O        0.02420    0.26437    0.54830    1.000
    Mn4      Mn       0.86503    0.21521    0.35513    1.000
    N4       N        0.07550    0.14557    0.40090    1.000
    C31      C        0.04430    0.09990    0.49470    1.000
    H24      H        0.93110    0.09520    0.54190    1.000
    C32      C        0.17490    0.05860    0.52580    1.000
    H25      H        0.14760    0.02760    0.59500    1.000
    C33      C        0.34220    0.06290    0.45610    1.000
    C34      C        0.37140    0.10950    0.36590    1.000
    H26      H        0.48380    0.11530    0.31780    1.000
    C35      C        0.24060    0.14950    0.34180    1.000
    H27      H        0.27000    0.18170    0.27930    1.000
    C36      C        0.48830    0.02140    0.46910    1.000
    H28      H        0.58940    0.03370    0.41050    1.000
