data_functionalizedCrystal
_audit_creation_method	'EQeq! by Chris Wilmer'
_symmetry_space_group_name_H-M	'P1'
_symmetry_Int_Tables_number	1
_symmetry_cell_setting	triclinic
loop_
_symmetry_equiv_pos_as_xyz
  x,y,z
_cell_length_a	35.252
_cell_length_b	39.509
_cell_length_c	8.153
_cell_angle_alpha	90
_cell_angle_beta	90
_cell_angle_gamma	90
loop_
_atom_site_label
_atom_site_type_symbol
_atom_site_fract_x
_atom_site_fract_y
_atom_site_fract_z
_atom_site_charge
Mof_Zn	Zn	0.9978	0.31863	0.37808	1.164
Mof_I 	I 	0.99795	0.32247	0.06645	-0.357
Mof_I 	I 	0.93484	0.30927	0.51727	-0.383
Mof_I 	I 	0.29334	0.21146	0.623	-0.383
Mof_N 	N 	0.1382	0.2237	0.7733	-0.139
Mof_N 	N 	0.1392	0.1955	0.5145	-0.135
Mof_N 	N 	0.1847	0.1816	0.7192	-0.15
Mof_C 	C 	0.1681	0.2051	0.8143	0.119
Mof_C 	C 	0.1252	0.2176	0.6227	0.091
Mof_C 	C 	0.1699	0.1779	0.5734	0.084
Mof_N 	N 	0.2176	0.2267	0.2818	-0.247
Mof_C 	C 	0.1841	0.24	0.2386	0.03
Mof_H 	H 	0.1717	0.255	0.3124	0.007
Mof_C 	C 	0.1668	0.2326	0.0904	-0.042
Mof_H 	H 	0.1427	0.2421	0.0657	0.069
Mof_C 	C 	0.1846	0.2115	0.977	-0.033
Mof_C 	C 	0.2191	0.197	0.0273	-0.008
Mof_H 	H 	0.2315	0.1813	0.9567	0.03
Mof_C 	C 	0.2354	0.2047	0.1754	0.009
Mof_H 	H 	0.2591	0.195	0.2047	0.009
Mof_N 	N 	0.0361	0.2826	0.4556	-0.279
Mof_C 	C 	0.0458	0.2805	0.6131	0.078
Mof_H 	H 	0.0319	0.2936	0.6902	-0.017
Mof_C 	C 	0.0745	0.2605	0.6697	-0.144
Mof_H 	H 	0.0813	0.2609	0.7823	0.085
Mof_C 	C 	0.0932	0.2399	0.5628	0.071
Mof_C 	C 	0.0821	0.24	0.3997	-0.13
Mof_H 	H 	0.0936	0.2249	0.3236	0.099
Mof_C 	C 	0.0546	0.2621	0.3491	0.073
Mof_H 	H 	0.0482	0.2631	0.236	-0.012
Mof_N 	N 	0.226	0.10859	0.2563	-0.271
Mof_C 	C 	0.1916	0.1195	0.2209	0.086
Mof_H 	H 	0.1799	0.1111	0.1243	-0.014
Mof_C 	C 	0.1713	0.1425	0.3148	-0.13
Mof_H 	H 	0.1472	0.1506	0.2808	0.095
Mof_C 	C 	0.1877	0.1531	0.4594	0.061
Mof_C 	C 	0.2239	0.1418	0.5003	-0.13
Mof_H 	H 	0.236	0.1491	0.5981	0.091
Mof_C 	C 	0.2418	0.1193	0.3932	0.074
Mof_H 	H 	0.2665	0.1114	0.4203	-0.003
Mof_Zn	Zn	0.9978	0.81863	0.87808	1.159
Mof_I 	I 	0.99795	0.82247	0.56645	-0.38
Mof_I 	I 	0.93484	0.80927	0.01727	-0.358
Mof_I 	I 	0.29334	0.71146	0.123	-0.357
Mof_N 	N 	0.1382	0.7237	0.2733	-0.129
Mof_N 	N 	0.1392	0.6955	0.0145	-0.13
Mof_N 	N 	0.1847	0.6816	0.2192	-0.15
Mof_C 	C 	0.1681	0.7051	0.3143	0.102
Mof_C 	C 	0.1252	0.7176	0.1227	0.083
Mof_C 	C 	0.1699	0.6779	0.0734	0.127
Mof_N 	N 	0.2176	0.7267	0.7818	-0.265
Mof_C 	C 	0.1841	0.74	0.7386	0.059
Mof_H 	H 	0.1717	0.755	0.8124	-0.01
Mof_C 	C 	0.1668	0.7326	0.5904	-0.106
Mof_H 	H 	0.1427	0.7421	0.5657	0.084
Mof_C 	C 	0.1846	0.7115	0.477	0.048
Mof_C 	C 	0.2191	0.697	0.5273	-0.106
Mof_H 	H 	0.2315	0.6813	0.4567	0.075
Mof_C 	C 	0.2354	0.7047	0.6754	0.053
Mof_H 	H 	0.2591	0.695	0.7047	-0.013
Mof_N 	N 	0.0361	0.7826	0.9556	-0.303
Mof_C 	C 	0.0458	0.7805	0.1131	0.125
Mof_H 	H 	0.0319	0.7936	0.1902	-0.026
Mof_C 	C 	0.0745	0.7605	0.1697	-0.183
Mof_H 	H 	0.0813	0.7609	0.2823	0.104
Mof_C 	C 	0.0932	0.7399	0.0628	0.124
Mof_C 	C 	0.0821	0.74	0.8997	-0.188
Mof_H 	H 	0.0936	0.7249	0.8236	0.113
Mof_C 	C 	0.0546	0.7621	0.8491	0.095
Mof_H 	H 	0.0482	0.7631	0.736	-0.023
Mof_N 	N 	0.226	0.60859	0.7563	-0.255
Mof_C 	C 	0.1916	0.6195	0.7209	0.055
Mof_H 	H 	0.1799	0.6111	0.6243	-0.008
Mof_C 	C 	0.1713	0.6425	0.8148	-0.08
Mof_H 	H 	0.1472	0.6506	0.7808	0.074
Mof_C 	C 	0.1877	0.6531	0.9594	-0.028
Mof_C 	C 	0.2239	0.6418	0.0003	-0.023
Mof_H 	H 	0.236	0.6491	0.0981	0.059
Mof_C 	C 	0.2418	0.6193	0.8932	0.005
Mof_H 	H 	0.2665	0.6114	0.9203	0.013
Mof_Zn	Zn	0.4978	0.31863	0.87808	1.156
Mof_I 	I 	0.49795	0.32247	0.56645	-0.389
Mof_I 	I 	0.43484	0.30927	0.01727	-0.361
Mof_I 	I 	0.79334	0.21146	0.123	-0.357
Mof_N 	N 	0.6382	0.2237	0.2733	-0.129
Mof_N 	N 	0.6392	0.1955	0.0145	-0.13
Mof_N 	N 	0.6847	0.1816	0.2192	-0.15
Mof_C 	C 	0.6681	0.2051	0.3143	0.102
Mof_C 	C 	0.6252	0.2176	0.1227	0.083
Mof_C 	C 	0.6699	0.1779	0.0734	0.126
Mof_N 	N 	0.7176	0.2267	0.7818	-0.265
Mof_C 	C 	0.6841	0.24	0.7386	0.059
Mof_H 	H 	0.6717	0.255	0.8124	-0.01
Mof_C 	C 	0.6668	0.2326	0.5904	-0.106
Mof_H 	H 	0.6427	0.2421	0.5657	0.084
Mof_C 	C 	0.6846	0.2115	0.477	0.048
Mof_C 	C 	0.7191	0.197	0.5273	-0.106
Mof_H 	H 	0.7315	0.1813	0.4567	0.075
Mof_C 	C 	0.7354	0.2047	0.6754	0.053
Mof_H 	H 	0.7591	0.195	0.7047	-0.012
Mof_N 	N 	0.5361	0.2826	0.9556	-0.301
Mof_C 	C 	0.5458	0.2805	0.1131	0.125
Mof_H 	H 	0.5319	0.2936	0.1902	-0.024
Mof_C 	C 	0.5745	0.2605	0.1697	-0.182
Mof_H 	H 	0.5813	0.2609	0.2823	0.104
Mof_C 	C 	0.5932	0.2399	0.0628	0.123
Mof_C 	C 	0.5821	0.24	0.8997	-0.188
Mof_H 	H 	0.5936	0.2249	0.8236	0.113
Mof_C 	C 	0.5546	0.2621	0.8491	0.095
Mof_H 	H 	0.5482	0.2631	0.736	-0.021
Mof_N 	N 	0.726	0.10859	0.7563	-0.255
Mof_C 	C 	0.6916	0.1195	0.7209	0.055
Mof_H 	H 	0.6799	0.1111	0.6243	-0.008
Mof_C 	C 	0.6713	0.1425	0.8148	-0.08
Mof_H 	H 	0.6472	0.1506	0.7808	0.074
Mof_C 	C 	0.6877	0.1531	0.9594	-0.027
Mof_C 	C 	0.7239	0.1418	0.0003	-0.023
Mof_H 	H 	0.736	0.1491	0.0981	0.06
Mof_C 	C 	0.7418	0.1193	0.8932	0.005
Mof_H 	H 	0.7665	0.1114	0.9203	0.013
Mof_Zn	Zn	0.4978	0.81863	0.37808	1.163
Mof_I 	I 	0.49795	0.82247	0.06645	-0.365
Mof_I 	I 	0.43484	0.80927	0.51727	-0.384
Mof_I 	I 	0.79334	0.71146	0.623	-0.382
Mof_N 	N 	0.6382	0.7237	0.7733	-0.138
Mof_N 	N 	0.6392	0.6955	0.5145	-0.134
Mof_N 	N 	0.6847	0.6816	0.7192	-0.149
Mof_C 	C 	0.6681	0.7051	0.8143	0.12
Mof_C 	C 	0.6252	0.7176	0.6227	0.092
Mof_C 	C 	0.6699	0.6779	0.5734	0.084
Mof_N 	N 	0.7176	0.7267	0.2818	-0.247
Mof_C 	C 	0.6841	0.74	0.2386	0.03
Mof_H 	H 	0.6717	0.755	0.3124	0.007
Mof_C 	C 	0.6668	0.7326	0.0904	-0.042
Mof_H 	H 	0.6427	0.7421	0.0657	0.069
Mof_C 	C 	0.6846	0.7115	0.977	-0.033
Mof_C 	C 	0.7191	0.697	0.0273	-0.008
Mof_H 	H 	0.7315	0.6813	0.9567	0.03
Mof_C 	C 	0.7354	0.7047	0.1754	0.009
Mof_H 	H 	0.7591	0.695	0.2047	0.009
Mof_N 	N 	0.5361	0.7826	0.4556	-0.276
Mof_C 	C 	0.5458	0.7805	0.6131	0.078
Mof_H 	H 	0.5319	0.7936	0.6902	-0.015
Mof_C 	C 	0.5745	0.7605	0.6697	-0.143
Mof_H 	H 	0.5813	0.7609	0.7823	0.086
Mof_C 	C 	0.5932	0.7399	0.5628	0.07
Mof_C 	C 	0.5821	0.74	0.3997	-0.129
Mof_H 	H 	0.5936	0.7249	0.3236	0.098
Mof_C 	C 	0.5546	0.7621	0.3491	0.073
Mof_H 	H 	0.5482	0.7631	0.236	-0.01
Mof_N 	N 	0.726	0.60859	0.2563	-0.271
Mof_C 	C 	0.6916	0.6195	0.2209	0.086
Mof_H 	H 	0.6799	0.6111	0.1243	-0.014
Mof_C 	C 	0.6713	0.6425	0.3148	-0.13
Mof_H 	H 	0.6472	0.6506	0.2808	0.095
Mof_C 	C 	0.6877	0.6531	0.4594	0.061
Mof_C 	C 	0.7239	0.6418	0.5003	-0.13
Mof_H 	H 	0.736	0.6491	0.5981	0.091
Mof_C 	C 	0.7418	0.6193	0.3932	0.074
Mof_H 	H 	0.7665	0.6114	0.4203	-0.003
Mof_Zn	Zn	0.0022	0.68137	0.37808	1.161
Mof_I 	I 	0.00205	0.67753	0.06645	-0.374
Mof_I 	I 	0.06516	0.69073	0.51727	-0.387
Mof_I 	I 	0.70666	0.78854	0.623	-0.382
Mof_N 	N 	0.8618	0.7763	0.7733	-0.138
Mof_N 	N 	0.8608	0.8045	0.5145	-0.134
Mof_N 	N 	0.8153	0.8184	0.7192	-0.149
Mof_C 	C 	0.8319	0.7949	0.8143	0.12
Mof_C 	C 	0.8748	0.7824	0.6227	0.092
Mof_C 	C 	0.8301	0.8221	0.5734	0.084
Mof_N 	N 	0.7824	0.7733	0.2818	-0.247
Mof_C 	C 	0.8159	0.76	0.2386	0.03
Mof_H 	H 	0.8283	0.745	0.3124	0.007
Mof_C 	C 	0.8332	0.7674	0.0904	-0.042
Mof_H 	H 	0.8573	0.7579	0.0657	0.069
Mof_C 	C 	0.8154	0.7885	0.977	-0.033
Mof_C 	C 	0.7809	0.803	0.0273	-0.008
Mof_H 	H 	0.7685	0.8187	0.9567	0.03
Mof_C 	C 	0.7646	0.7953	0.1754	0.009
Mof_H 	H 	0.7409	0.805	0.2047	0.009
Mof_N 	N 	0.9639	0.7174	0.4556	-0.274
Mof_C 	C 	0.9542	0.7195	0.6131	0.078
Mof_H 	H 	0.9681	0.7064	0.6902	-0.012
Mof_C 	C 	0.9255	0.7395	0.6697	-0.142
Mof_H 	H 	0.9187	0.7391	0.7823	0.086
Mof_C 	C 	0.9068	0.7601	0.5628	0.07
Mof_C 	C 	0.9179	0.76	0.3997	-0.128
Mof_H 	H 	0.9064	0.7751	0.3236	0.098
Mof_C 	C 	0.9454	0.7379	0.3491	0.073
Mof_H 	H 	0.9518	0.7369	0.236	-0.008
Mof_N 	N 	0.774	0.89141	0.2563	-0.271
Mof_C 	C 	0.8084	0.8805	0.2209	0.086
Mof_H 	H 	0.8201	0.8889	0.1243	-0.013
Mof_C 	C 	0.8287	0.8575	0.3148	-0.13
Mof_H 	H 	0.8528	0.8494	0.2808	0.095
Mof_C 	C 	0.8123	0.8469	0.4594	0.061
Mof_C 	C 	0.7761	0.8582	0.5003	-0.13
Mof_H 	H 	0.764	0.8509	0.5981	0.091
Mof_C 	C 	0.7582	0.8807	0.3932	0.074
Mof_H 	H 	0.7335	0.8886	0.4203	-0.003
Mof_Zn	Zn	0.0022	0.18137	0.87808	1.154
Mof_I 	I 	0.00205	0.17753	0.56645	-0.398
Mof_I 	I 	0.06516	0.19073	0.01727	-0.363
Mof_I 	I 	0.70666	0.28854	0.123	-0.358
Mof_N 	N 	0.8618	0.2763	0.2733	-0.129
Mof_N 	N 	0.8608	0.3045	0.0145	-0.13
Mof_N 	N 	0.8153	0.3184	0.2192	-0.15
Mof_C 	C 	0.8319	0.2949	0.3143	0.102
Mof_C 	C 	0.8748	0.2824	0.1227	0.083
Mof_C 	C 	0.8301	0.3221	0.0734	0.127
Mof_N 	N 	0.7824	0.2733	0.7818	-0.265
Mof_C 	C 	0.8159	0.26	0.7386	0.059
Mof_H 	H 	0.8283	0.245	0.8124	-0.01
Mof_C 	C 	0.8332	0.2674	0.5904	-0.106
Mof_H 	H 	0.8573	0.2579	0.5657	0.084
Mof_C 	C 	0.8154	0.2885	0.477	0.048
Mof_C 	C 	0.7809	0.303	0.5273	-0.106
Mof_H 	H 	0.7685	0.3187	0.4567	0.075
Mof_C 	C 	0.7646	0.2953	0.6754	0.053
Mof_H 	H 	0.7409	0.305	0.7047	-0.013
Mof_N 	N 	0.9639	0.2174	0.9556	-0.299
Mof_C 	C 	0.9542	0.2195	0.1131	0.125
Mof_H 	H 	0.9681	0.2064	0.1902	-0.021
Mof_C 	C 	0.9255	0.2395	0.1697	-0.181
Mof_H 	H 	0.9187	0.2391	0.2823	0.105
Mof_C 	C 	0.9068	0.2601	0.0628	0.123
Mof_C 	C 	0.9179	0.26	0.8997	-0.187
Mof_H 	H 	0.9064	0.2751	0.8236	0.113
Mof_C 	C 	0.9454	0.2379	0.8491	0.096
Mof_H 	H 	0.9518	0.2369	0.736	-0.019
Mof_N 	N 	0.774	0.39141	0.7563	-0.255
Mof_C 	C 	0.8084	0.3805	0.7209	0.055
Mof_H 	H 	0.8201	0.3889	0.6243	-0.008
Mof_C 	C 	0.8287	0.3575	0.8148	-0.08
Mof_H 	H 	0.8528	0.3494	0.7808	0.074
Mof_C 	C 	0.8123	0.3469	0.9594	-0.027
Mof_C 	C 	0.7761	0.3582	0.0003	-0.023
Mof_H 	H 	0.764	0.3509	0.0981	0.059
Mof_C 	C 	0.7582	0.3807	0.8932	0.005
Mof_H 	H 	0.7335	0.3886	0.9203	0.013
Mof_Zn	Zn	0.5022	0.68137	0.87808	1.156
Mof_I 	I 	0.50205	0.67753	0.56645	-0.389
Mof_I 	I 	0.56516	0.69073	0.01727	-0.361
Mof_I 	I 	0.20666	0.78854	0.123	-0.358
Mof_N 	N 	0.3618	0.7763	0.2733	-0.129
Mof_N 	N 	0.3608	0.8045	0.0145	-0.13
Mof_N 	N 	0.3153	0.8184	0.2192	-0.15
Mof_C 	C 	0.3319	0.7949	0.3143	0.102
Mof_C 	C 	0.3748	0.7824	0.1227	0.083
Mof_C 	C 	0.3301	0.8221	0.0734	0.127
Mof_N 	N 	0.2824	0.7733	0.7818	-0.265
Mof_C 	C 	0.3159	0.76	0.7386	0.059
Mof_H 	H 	0.3283	0.745	0.8124	-0.01
Mof_C 	C 	0.3332	0.7674	0.5904	-0.106
Mof_H 	H 	0.3573	0.7579	0.5657	0.084
Mof_C 	C 	0.3154	0.7885	0.477	0.048
Mof_C 	C 	0.2809	0.803	0.5273	-0.106
Mof_H 	H 	0.2685	0.8187	0.4567	0.075
Mof_C 	C 	0.2646	0.7953	0.6754	0.053
Mof_H 	H 	0.2409	0.805	0.7047	-0.013
Mof_N 	N 	0.4639	0.7174	0.9556	-0.301
Mof_C 	C 	0.4542	0.7195	0.1131	0.125
Mof_H 	H 	0.4681	0.7064	0.1902	-0.024
Mof_C 	C 	0.4255	0.7395	0.1697	-0.182
Mof_H 	H 	0.4187	0.7391	0.2823	0.104
Mof_C 	C 	0.4068	0.7601	0.0628	0.123
Mof_C 	C 	0.4179	0.76	0.8997	-0.188
Mof_H 	H 	0.4064	0.7751	0.8236	0.113
Mof_C 	C 	0.4454	0.7379	0.8491	0.096
Mof_H 	H 	0.4518	0.7369	0.736	-0.021
Mof_N 	N 	0.274	0.89141	0.7563	-0.255
Mof_C 	C 	0.3084	0.8805	0.7209	0.055
Mof_H 	H 	0.3201	0.8889	0.6243	-0.008
Mof_C 	C 	0.3287	0.8575	0.8148	-0.08
Mof_H 	H 	0.3528	0.8494	0.7808	0.074
Mof_C 	C 	0.3123	0.8469	0.9594	-0.028
Mof_C 	C 	0.2761	0.8582	0.0003	-0.022
Mof_H 	H 	0.264	0.8509	0.0981	0.059
Mof_C 	C 	0.2582	0.8807	0.8932	0.005
Mof_H 	H 	0.2335	0.8886	0.9203	0.013
Mof_Zn	Zn	0.5022	0.18137	0.37808	1.163
Mof_I 	I 	0.50205	0.17753	0.06645	-0.365
Mof_I 	I 	0.56516	0.19073	0.51727	-0.384
Mof_I 	I 	0.20666	0.28854	0.623	-0.382
Mof_N 	N 	0.3618	0.2763	0.7733	-0.138
Mof_N 	N 	0.3608	0.3045	0.5145	-0.134
Mof_N 	N 	0.3153	0.3184	0.7192	-0.149
Mof_C 	C 	0.3319	0.2949	0.8143	0.12
Mof_C 	C 	0.3748	0.2824	0.6227	0.092
Mof_C 	C 	0.3301	0.3221	0.5734	0.084
Mof_N 	N 	0.2824	0.2733	0.2818	-0.247
Mof_C 	C 	0.3159	0.26	0.2386	0.03
Mof_H 	H 	0.3283	0.245	0.3124	0.007
Mof_C 	C 	0.3332	0.2674	0.0904	-0.042
Mof_H 	H 	0.3573	0.2579	0.0657	0.069
Mof_C 	C 	0.3154	0.2885	0.977	-0.033
Mof_C 	C 	0.2809	0.303	0.0273	-0.008
Mof_H 	H 	0.2685	0.3187	0.9567	0.03
Mof_C 	C 	0.2646	0.2953	0.1754	0.009
Mof_H 	H 	0.2409	0.305	0.2047	0.009
Mof_N 	N 	0.4639	0.2174	0.4556	-0.276
Mof_C 	C 	0.4542	0.2195	0.6131	0.078
Mof_H 	H 	0.4681	0.2064	0.6902	-0.015
Mof_C 	C 	0.4255	0.2395	0.6697	-0.143
Mof_H 	H 	0.4187	0.2391	0.7823	0.086
Mof_C 	C 	0.4068	0.2601	0.5628	0.07
Mof_C 	C 	0.4179	0.26	0.3997	-0.129
Mof_H 	H 	0.4064	0.2751	0.3236	0.098
Mof_C 	C 	0.4454	0.2379	0.3491	0.073
Mof_H 	H 	0.4518	0.2369	0.236	-0.01
Mof_N 	N 	0.274	0.39141	0.2563	-0.271
Mof_C 	C 	0.3084	0.3805	0.2209	0.087
Mof_H 	H 	0.3201	0.3889	0.1243	-0.014
Mof_C 	C 	0.3287	0.3575	0.3148	-0.13
Mof_H 	H 	0.3528	0.3494	0.2808	0.095
Mof_C 	C 	0.3123	0.3469	0.4594	0.061
Mof_C 	C 	0.2761	0.3582	0.5003	-0.13
Mof_H 	H 	0.264	0.3509	0.5981	0.091
Mof_C 	C 	0.2582	0.3807	0.3932	0.074
Mof_H 	H 	0.2335	0.3886	0.4203	-0.003
Mof_Zn	Zn	0.2478	0.93137	0.62808	1.163
Mof_I 	I 	0.24795	0.92753	0.31645	-0.373
Mof_I 	I 	0.18484	0.94073	0.76727	-0.392
Mof_I 	I 	0.54334	0.03854	0.873	-0.394
Mof_N 	N 	0.3882	0.0263	0.0233	-0.122
Mof_N 	N 	0.3892	0.0545	0.7645	-0.131
Mof_N 	N 	0.4347	0.0684	0.9692	-0.157
Mof_C 	C 	0.4181	0.0449	0.0643	0.118
Mof_C 	C 	0.3752	0.0324	0.8727	0.07
Mof_C 	C 	0.4199	0.0721	0.8234	0.082
Mof_N 	N 	0.4676	0.0233	0.5318	-0.259
Mof_C 	C 	0.4341	0.01	0.4886	0.047
Mof_H 	H 	0.4217	0.995	0.5624	0.005
Mof_C 	C 	0.4168	0.0174	0.3404	-0.095
Mof_H 	H 	0.3927	0.0079	0.3157	0.081
Mof_C 	C 	0.4346	0.0385	0.227	0.041
Mof_C 	C 	0.4691	0.053	0.2773	-0.1
Mof_H 	H 	0.4815	0.0687	0.2067	0.076
Mof_C 	C 	0.4854	0.0453	0.4254	0.051
Mof_H 	H 	0.5091	0.055	0.4547	-0.008
Mof_N 	N 	0.2861	0.9674	0.7056	-0.284
Mof_C 	C 	0.2958	0.9695	0.8631	0.105
Mof_H 	H 	0.2819	0.9564	0.9402	-0.025
Mof_C 	C 	0.3245	0.9895	0.9197	-0.194
Mof_H 	H 	0.3313	0.9891	0.0323	0.123
Mof_C 	C 	0.3432	0.0101	0.8128	0.094
Mof_C 	C 	0.3321	0.01	0.6497	-0.155
Mof_H 	H 	0.3436	0.0251	0.5736	0.106
Mof_C 	C 	0.3046	0.9879	0.5991	0.092
Mof_H 	H 	0.2982	0.9869	0.486	-0.015
Mof_N 	N 	0.476	0.14141	0.5063	-0.272
Mof_C 	C 	0.4416	0.1305	0.4709	0.085
Mof_H 	H 	0.4299	0.1389	0.3743	-0.016
Mof_C 	C 	0.4213	0.1075	0.5648	-0.13
Mof_H 	H 	0.3972	0.0994	0.5308	0.094
Mof_C 	C 	0.4377	0.0969	0.7094	0.06
Mof_C 	C 	0.4739	0.1082	0.7503	-0.131
Mof_H 	H 	0.486	0.1009	0.8481	0.087
Mof_C 	C 	0.4918	0.1307	0.6432	0.072
Mof_H 	H 	0.5165	0.1386	0.6703	-0.005
Mof_Zn	Zn	0.2478	0.43137	0.12808	1.167
Mof_I 	I 	0.24795	0.42753	0.81645	-0.397
Mof_I 	I 	0.18484	0.44073	0.26727	-0.374
Mof_I 	I 	0.54334	0.53854	0.373	-0.375
Mof_N 	N 	0.3882	0.5263	0.5233	-0.132
Mof_N 	N 	0.3892	0.5545	0.2645	-0.132
Mof_N 	N 	0.4347	0.5684	0.4692	-0.148
Mof_C 	C 	0.4181	0.5449	0.5643	0.108
Mof_C 	C 	0.3752	0.5324	0.3727	0.09
Mof_C 	C 	0.4199	0.5721	0.3234	0.094
Mof_N 	N 	0.4676	0.5233	0.0318	-0.225
Mof_C 	C 	0.4341	0.51	0.9886	-0.022
Mof_H 	H 	0.4217	0.495	0.0624	0.037
Mof_C 	C 	0.4168	0.5174	0.8404	-0.061
Mof_H 	H 	0.3927	0.5079	0.8157	0.065
Mof_C 	C 	0.4346	0.5385	0.727	0.021
Mof_C 	C 	0.4691	0.553	0.7773	-0.08
Mof_H 	H 	0.4815	0.5687	0.7067	0.064
Mof_C 	C 	0.4854	0.5453	0.9254	0.017
Mof_H 	H 	0.5091	0.555	0.9547	-0.005
Mof_N 	N 	0.2861	0.4674	0.2056	-0.283
Mof_C 	C 	0.2958	0.4695	0.3631	0.086
Mof_H 	H 	0.2819	0.4564	0.4402	-0.013
Mof_C 	C 	0.3245	0.4895	0.4197	-0.154
Mof_H 	H 	0.3313	0.4891	0.5323	0.094
Mof_C 	C 	0.3432	0.5101	0.3128	0.086
Mof_C 	C 	0.3321	0.51	0.1497	-0.157
Mof_H 	H 	0.3436	0.5251	0.0736	0.115
Mof_C 	C 	0.3046	0.4879	0.0991	0.122
Mof_H 	H 	0.2982	0.4869	0.986	-0.041
Mof_N 	N 	0.476	0.64141	0.0063	-0.244
Mof_C 	C 	0.4416	0.6305	0.9709	0.011
Mof_H 	H 	0.4299	0.6389	0.8743	0.001
Mof_C 	C 	0.4213	0.6075	0.0648	-0.066
Mof_H 	H 	0.3972	0.5994	0.0308	0.081
Mof_C 	C 	0.4377	0.5969	0.2094	0.037
Mof_C 	C 	0.4739	0.6082	0.2503	-0.108
Mof_H 	H 	0.486	0.6009	0.3481	0.084
Mof_C 	C 	0.4918	0.6307	0.1432	0.064
Mof_H 	H 	0.5165	0.6386	0.1703	0.002
Mof_Zn	Zn	0.7478	0.93137	0.12808	1.167
Mof_I 	I 	0.74795	0.92753	0.81645	-0.395
Mof_I 	I 	0.68484	0.94073	0.26727	-0.373
Mof_I 	I 	0.04334	0.03854	0.373	-0.384
Mof_N 	N 	0.8882	0.0263	0.5233	-0.133
Mof_N 	N 	0.8892	0.0545	0.2645	-0.132
Mof_N 	N 	0.9347	0.0684	0.4692	-0.147
Mof_C 	C 	0.9181	0.0449	0.5643	0.108
Mof_C 	C 	0.8752	0.0324	0.3727	0.09
Mof_C 	C 	0.9199	0.0721	0.3234	0.093
Mof_N 	N 	0.9676	0.0233	0.0318	-0.225
Mof_C 	C 	0.9341	0.01	0.9886	-0.031
Mof_H 	H 	0.9217	0.995	0.0624	0.044
Mof_C 	C 	0.9168	0.0174	0.8404	-0.059
Mof_H 	H 	0.8927	0.0079	0.8157	0.063
Mof_C 	C 	0.9346	0.0385	0.727	0.023
Mof_C 	C 	0.9691	0.053	0.7773	-0.088
Mof_H 	H 	0.9815	0.0687	0.7067	0.069
Mof_C 	C 	0.9854	0.0453	0.9254	0.035
Mof_H 	H 	0.0091	0.055	0.9547	-0.017
Mof_N 	N 	0.7861	0.9674	0.2056	-0.283
Mof_C 	C 	0.7958	0.9695	0.3631	0.084
Mof_H 	H 	0.7819	0.9564	0.4402	-0.012
Mof_C 	C 	0.8245	0.9895	0.4197	-0.146
Mof_H 	H 	0.8313	0.9891	0.5323	0.093
Mof_C 	C 	0.8432	0.0101	0.3128	0.081
Mof_C 	C 	0.8321	0.01	0.1497	-0.164
Mof_H 	H 	0.8436	0.0251	0.0736	0.117
Mof_C 	C 	0.8046	0.9879	0.0991	0.13
Mof_H 	H 	0.7982	0.9869	0.986	-0.042
Mof_N 	N 	0.976	0.14141	0.0063	-0.245
Mof_C 	C 	0.9416	0.1305	0.9709	0.014
Mof_H 	H 	0.9299	0.1389	0.8743	0.001
Mof_C 	C 	0.9213	0.1075	0.0648	-0.069
Mof_H 	H 	0.8972	0.0994	0.0308	0.082
Mof_C 	C 	0.9377	0.0969	0.2094	0.042
Mof_C 	C 	0.9739	0.1082	0.2503	-0.118
Mof_H 	H 	0.986	0.1009	0.3481	0.09
Mof_C 	C 	0.9918	0.1307	0.1432	0.084
Mof_H 	H 	0.0165	0.1386	0.1703	-0.009
Mof_Zn	Zn	0.7478	0.43137	0.62808	1.163
Mof_I 	I 	0.74795	0.42753	0.31645	-0.375
Mof_I 	I 	0.68484	0.44073	0.76727	-0.394
Mof_I 	I 	0.04334	0.53854	0.873	-0.396
Mof_N 	N 	0.8882	0.5263	0.0233	-0.12
Mof_N 	N 	0.8892	0.5545	0.7645	-0.131
Mof_N 	N 	0.9347	0.5684	0.9692	-0.155
Mof_C 	C 	0.9181	0.5449	0.0643	0.117
Mof_C 	C 	0.8752	0.5324	0.8727	0.07
Mof_C 	C 	0.9199	0.5721	0.8234	0.081
Mof_N 	N 	0.9676	0.5233	0.5318	-0.262
Mof_C 	C 	0.9341	0.51	0.4886	0.062
Mof_H 	H 	0.9217	0.495	0.5624	-0.004
Mof_C 	C 	0.9168	0.5174	0.3404	-0.105
Mof_H 	H 	0.8927	0.5079	0.3157	0.085
Mof_C 	C 	0.9346	0.5385	0.227	0.05
Mof_C 	C 	0.9691	0.553	0.2773	-0.112
Mof_H 	H 	0.9815	0.5687	0.2067	0.083
Mof_C 	C 	0.9854	0.5453	0.4254	0.073
Mof_H 	H 	0.0091	0.555	0.4547	-0.02
Mof_N 	N 	0.7861	0.4674	0.7056	-0.284
Mof_C 	C 	0.7958	0.4695	0.8631	0.106
Mof_H 	H 	0.7819	0.4564	0.9402	-0.026
Mof_C 	C 	0.8245	0.4895	0.9197	-0.201
Mof_H 	H 	0.8313	0.4891	0.0323	0.123
Mof_C 	C 	0.8432	0.5101	0.8128	0.099
Mof_C 	C 	0.8321	0.51	0.6497	-0.148
Mof_H 	H 	0.8436	0.5251	0.5736	0.104
Mof_C 	C 	0.8046	0.4879	0.5991	0.084
Mof_H 	H 	0.7982	0.4869	0.486	-0.014
Mof_N 	N 	0.976	0.64141	0.5063	-0.274
Mof_C 	C 	0.9416	0.6305	0.4709	0.088
Mof_H 	H 	0.9299	0.6389	0.3743	-0.016
Mof_C 	C 	0.9213	0.6075	0.5648	-0.134
Mof_H 	H 	0.8972	0.5994	0.5308	0.095
Mof_C 	C 	0.9377	0.5969	0.7094	0.065
Mof_C 	C 	0.9739	0.6082	0.7503	-0.14
Mof_H 	H 	0.986	0.6009	0.8481	0.093
Mof_C 	C 	0.9918	0.6307	0.6432	0.092
Mof_H 	H 	0.0165	0.6386	0.6703	-0.016
Mof_Zn	Zn	0.2522	0.56863	0.62808	1.163
Mof_I 	I 	0.25205	0.57247	0.31645	-0.374
Mof_I 	I 	0.31516	0.55927	0.76727	-0.394
Mof_I 	I 	0.95666	0.46146	0.873	-0.383
Mof_N 	N 	0.1118	0.4737	0.0233	-0.121
Mof_N 	N 	0.1108	0.4455	0.7645	-0.131
Mof_N 	N 	0.0653	0.4316	0.9692	-0.157
Mof_C 	C 	0.0819	0.4551	0.0643	0.119
Mof_C 	C 	0.1248	0.4676	0.8727	0.07
Mof_C 	C 	0.0801	0.4279	0.8234	0.083
Mof_N 	N 	0.0324	0.4767	0.5318	-0.258
Mof_C 	C 	0.0659	0.49	0.4886	0.056
Mof_H 	H 	0.0783	0.505	0.5624	-0.002
Mof_C 	C 	0.0832	0.4826	0.3404	-0.098
Mof_H 	H 	0.1073	0.4921	0.3157	0.083
Mof_C 	C 	0.0654	0.4615	0.227	0.039
Mof_C 	C 	0.0309	0.447	0.2773	-0.092
Mof_H 	H 	0.0185	0.4313	0.2067	0.071
Mof_C 	C 	0.0146	0.4547	0.4254	0.033
Mof_H 	H 	0.9909	0.445	0.4547	0.005
Mof_N 	N 	0.2139	0.5326	0.7056	-0.284
Mof_C 	C 	0.2042	0.5305	0.8631	0.106
Mof_H 	H 	0.2181	0.5436	0.9402	-0.026
Mof_C 	C 	0.1755	0.5105	0.9197	-0.202
Mof_H 	H 	0.1687	0.5109	0.0323	0.123
Mof_C 	C 	0.1568	0.4899	0.8128	0.099
Mof_C 	C 	0.1679	0.49	0.6497	-0.148
Mof_H 	H 	0.1564	0.4749	0.5736	0.104
Mof_C 	C 	0.1954	0.5121	0.5991	0.084
Mof_H 	H 	0.2018	0.5131	0.486	-0.015
Mof_N 	N 	0.024	0.35859	0.5063	-0.271
Mof_C 	C 	0.0584	0.3695	0.4709	0.083
Mof_H 	H 	0.0701	0.3611	0.3743	-0.017
Mof_C 	C 	0.0787	0.3925	0.5648	-0.127
Mof_H 	H 	0.1028	0.4006	0.5308	0.093
Mof_C 	C 	0.0623	0.4031	0.7094	0.055
Mof_C 	C 	0.0261	0.3918	0.7503	-0.121
Mof_H 	H 	0.014	0.3991	0.8481	0.081
Mof_C 	C 	0.0082	0.3693	0.6432	0.053
Mof_H 	H 	0.9835	0.3614	0.6703	0.007
Mof_Zn	Zn	0.2522	0.06863	0.12808	1.166
Mof_I 	I 	0.25205	0.07247	0.81645	-0.398
Mof_I 	I 	0.31516	0.05927	0.26727	-0.376
Mof_I 	I 	0.95666	0.96146	0.373	-0.364
Mof_N 	N 	0.1118	0.9737	0.5233	-0.131
Mof_N 	N 	0.1108	0.9455	0.2645	-0.132
Mof_N 	N 	0.0653	0.9316	0.4692	-0.148
Mof_C 	C 	0.0819	0.9551	0.5643	0.109
Mof_C 	C 	0.1248	0.9676	0.3727	0.09
Mof_C 	C 	0.0801	0.9279	0.3234	0.095
Mof_N 	N 	0.0324	0.9767	0.0318	-0.224
Mof_C 	C 	0.0659	0.99	0.9886	-0.012
Mof_H 	H 	0.0783	0.005	0.0624	0.029
Mof_C 	C 	0.0832	0.9826	0.8404	-0.064
Mof_H 	H 	0.1073	0.9921	0.8157	0.068
Mof_C 	C 	0.0654	0.9615	0.727	0.019
Mof_C 	C 	0.0309	0.947	0.7773	-0.072
Mof_H 	H 	0.0185	0.9313	0.7067	0.059
Mof_C 	C 	0.0146	0.9547	0.9254	-0.001
Mof_H 	H 	0.9909	0.945	0.9547	0.007
Mof_N 	N 	0.2139	0.0326	0.2056	-0.283
Mof_C 	C 	0.2042	0.0305	0.3631	0.087
Mof_H 	H 	0.2181	0.0436	0.4402	-0.015
Mof_C 	C 	0.1755	0.0105	0.4197	-0.162
Mof_H 	H 	0.1687	0.0109	0.5323	0.095
Mof_C 	C 	0.1568	0.9899	0.3128	0.091
Mof_C 	C 	0.1679	0.99	0.1497	-0.15
Mof_H 	H 	0.1564	0.9749	0.0736	0.114
Mof_C 	C 	0.1954	0.0121	0.0991	0.115
Mof_H 	H 	0.2018	0.0131	0.986	-0.04
Mof_N 	N 	0.024	0.85859	0.0063	-0.242
Mof_C 	C 	0.0584	0.8695	0.9709	0.008
Mof_H 	H 	0.0701	0.8611	0.8743	0.001
Mof_C 	C 	0.0787	0.8925	0.0648	-0.062
Mof_H 	H 	0.1028	0.9006	0.0308	0.08
Mof_C 	C 	0.0623	0.9031	0.2094	0.032
Mof_C 	C 	0.0261	0.8918	0.2503	-0.099
Mof_H 	H 	0.014	0.8991	0.3481	0.078
Mof_C 	C 	0.0082	0.8693	0.1432	0.044
Mof_H 	H 	0.9835	0.8614	0.1703	0.014
Mof_Zn	Zn	0.7522	0.56863	0.12808	1.167
Mof_I 	I 	0.75205	0.57247	0.81645	-0.397
Mof_I 	I 	0.81516	0.55927	0.26727	-0.374
Mof_I 	I 	0.45666	0.46146	0.373	-0.375
Mof_N 	N 	0.6118	0.4737	0.5233	-0.132
Mof_N 	N 	0.6108	0.4455	0.2645	-0.132
Mof_N 	N 	0.5653	0.4316	0.4692	-0.148
Mof_C 	C 	0.5819	0.4551	0.5643	0.108
Mof_C 	C 	0.6248	0.4676	0.3727	0.09
Mof_C 	C 	0.5801	0.4279	0.3234	0.094
Mof_N 	N 	0.5324	0.4767	0.0318	-0.225
Mof_C 	C 	0.5659	0.49	0.9886	-0.022
Mof_H 	H 	0.5783	0.505	0.0624	0.037
Mof_C 	C 	0.5832	0.4826	0.8404	-0.061
Mof_H 	H 	0.6073	0.4921	0.8157	0.065
Mof_C 	C 	0.5654	0.4615	0.727	0.021
Mof_C 	C 	0.5309	0.447	0.7773	-0.08
Mof_H 	H 	0.5185	0.4313	0.7067	0.064
Mof_C 	C 	0.5146	0.4547	0.9254	0.017
Mof_H 	H 	0.4909	0.445	0.9547	-0.005
Mof_N 	N 	0.7139	0.5326	0.2056	-0.283
Mof_C 	C 	0.7042	0.5305	0.3631	0.086
Mof_H 	H 	0.7181	0.5436	0.4402	-0.014
Mof_C 	C 	0.6755	0.5105	0.4197	-0.154
Mof_H 	H 	0.6687	0.5109	0.5323	0.094
Mof_C 	C 	0.6568	0.4899	0.3128	0.086
Mof_C 	C 	0.6679	0.49	0.1497	-0.157
Mof_H 	H 	0.6564	0.4749	0.0736	0.115
Mof_C 	C 	0.6954	0.5121	0.0991	0.122
Mof_H 	H 	0.7018	0.5131	0.986	-0.041
Mof_N 	N 	0.524	0.35859	0.0063	-0.244
Mof_C 	C 	0.5584	0.3695	0.9709	0.011
Mof_H 	H 	0.5701	0.3611	0.8743	0.001
Mof_C 	C 	0.5787	0.3925	0.0648	-0.066
Mof_H 	H 	0.6028	0.4006	0.0308	0.081
Mof_C 	C 	0.5623	0.4031	0.2094	0.037
Mof_C 	C 	0.5261	0.3918	0.2503	-0.108
Mof_H 	H 	0.514	0.3991	0.3481	0.084
Mof_C 	C 	0.5082	0.3693	0.1432	0.064
Mof_H 	H 	0.4835	0.3614	0.1703	0.002
Mof_Zn	Zn	0.7522	0.06863	0.62808	1.162
Mof_I 	I 	0.75205	0.07247	0.31645	-0.376
Mof_I 	I 	0.81516	0.05927	0.76727	-0.395
Mof_I 	I 	0.45666	0.96146	0.873	-0.386
Mof_N 	N 	0.6118	0.9737	0.0233	-0.119
Mof_N 	N 	0.6108	0.9455	0.7645	-0.131
Mof_N 	N 	0.5653	0.9316	0.9692	-0.156
Mof_C 	C 	0.5819	0.9551	0.0643	0.117
Mof_C 	C 	0.6248	0.9676	0.8727	0.07
Mof_C 	C 	0.5801	0.9279	0.8234	0.083
Mof_N 	N 	0.5324	0.9767	0.5318	-0.261
Mof_C 	C 	0.5659	0.99	0.4886	0.071
Mof_H 	H 	0.5783	0.005	0.5624	-0.011
Mof_C 	C 	0.5832	0.9826	0.3404	-0.107
Mof_H 	H 	0.6073	0.9921	0.3157	0.088
Mof_C 	C 	0.5654	0.9615	0.227	0.048
Mof_C 	C 	0.5309	0.947	0.2773	-0.104
Mof_H 	H 	0.5185	0.9313	0.2067	0.078
Mof_C 	C 	0.5146	0.9547	0.4254	0.055
Mof_H 	H 	0.4909	0.945	0.4547	-0.008
Mof_N 	N 	0.7139	0.0326	0.7056	-0.283
Mof_C 	C 	0.7042	0.0305	0.8631	0.108
Mof_H 	H 	0.7181	0.0436	0.9402	-0.027
Mof_C 	C 	0.6755	0.0105	0.9197	-0.209
Mof_H 	H 	0.6687	0.0109	0.0323	0.124
Mof_C 	C 	0.6568	0.9899	0.8128	0.103
Mof_C 	C 	0.6679	0.99	0.6497	-0.141
Mof_H 	H 	0.6564	0.9749	0.5736	0.103
Mof_C 	C 	0.6954	0.0121	0.5991	0.076
Mof_H 	H 	0.7018	0.0131	0.486	-0.014
Mof_N 	N 	0.524	0.85859	0.5063	-0.272
Mof_C 	C 	0.5584	0.8695	0.4709	0.085
Mof_H 	H 	0.5701	0.8611	0.3743	-0.016
Mof_C 	C 	0.5787	0.8925	0.5648	-0.13
Mof_H 	H 	0.6028	0.9006	0.5308	0.094
Mof_C 	C 	0.5623	0.9031	0.7094	0.06
Mof_C 	C 	0.5261	0.8918	0.7503	-0.13
Mof_H 	H 	0.514	0.8991	0.8481	0.087
Mof_C 	C 	0.5082	0.8693	0.6432	0.072
Mof_H 	H 	0.4835	0.8614	0.6703	-0.005
Mof_Zn	Zn	0.25	0.25	0.4632	1.164
Mof_Zn	Zn	0.25	0.75	0.9632	1.155
Mof_Zn	Zn	0.75	0.75	0.4632	1.164
Mof_Zn	Zn	0.75	0.25	0.9632	1.155
Mof_Zn	Zn	0.5	-2.22307e-33	0.7132	1.162
Mof_Zn	Zn	0.5	0.5	0.2132	1.165
Mof_Zn	Zn	-3.82769e-33	0.5	0.7132	1.162
Mof_Zn	Zn	1.84877e-34	0	0.2132	1.161
_end
