data_functionalizedCrystal
_audit_creation_method	'EQeq! by Chris Wilmer'
_symmetry_space_group_name_H-M	'P1'
_symmetry_Int_Tables_number	1
_symmetry_cell_setting	triclinic
loop_
_symmetry_equiv_pos_as_xyz
  x,y,z
_cell_length_a	15.414
_cell_length_b	11.877
_cell_length_c	24.154
_cell_angle_alpha	90
_cell_angle_beta	90
_cell_angle_gamma	90
loop_
_atom_site_label
_atom_site_type_symbol
_atom_site_fract_x
_atom_site_fract_y
_atom_site_fract_z
_atom_site_charge
Mof_Co	Co	0.55003	0.35951	0.62469	1.191
Mof_O 	O 	0.4283	0.5463	0.56845	-0.427
Mof_O 	O 	0.4691	0.481	0.65159	-0.419
Mof_O 	O 	0.356	0.9015	0.79954	-0.308
Mof_O 	O 	0.4458	0.7596	0.80559	-0.367
Mof_O 	O 	0.3944	0.5474	0.44396	-0.481
Mof_O 	O 	0.3334	0.7013	0.41325	-0.368
Mof_O 	O 	0.0558	0.8416	0.5005	-0.423
Mof_O 	O 	0.0288	0.7584	0.58232	-0.463
Mof_C 	C 	0.3819	0.6455	0.6477	-0.104
Mof_C 	C 	0.402	0.6808	0.7	0.041
Mof_H 	H 	0.4433	0.6415	0.7203	0.056
Mof_C 	C 	0.3622	0.774	0.7235	-0.078
Mof_C 	C 	0.2995	0.8301	0.6935	0.024
Mof_H 	H 	0.2726	0.8931	0.7086	0.056
Mof_C 	C 	0.2761	0.7936	0.6412	-0.087
Mof_H 	H 	0.2328	0.831	0.6217	0.074
Mof_C 	C 	0.3169	0.702	0.6179	0.031
Mof_H 	H 	0.3015	0.6777	0.5826	0.038
Mof_C 	C 	0.4298	0.5501	0.6202	0.379
Mof_C 	C 	0.3894	0.8154	0.7795	0.313
Mof_C 	C 	0.2545	0.5978	0.4796	-0.13
Mof_C 	C 	0.1956	0.6831	0.4878	0.069
Mof_H 	H 	0.2045	0.7523	0.4707	0.037
Mof_C 	C 	0.123	0.668	0.5211	-0.139
Mof_C 	C 	0.1076	0.5616	0.5424	0.061
Mof_H 	H 	0.0581	0.5486	0.5635	0.015
Mof_C 	C 	0.1649	0.475	0.5326	-0.127
Mof_H 	H 	0.1536	0.4037	0.5467	0.076
Mof_C 	C 	0.2396	0.4935	0.5018	0.059
Mof_H 	H 	0.2791	0.4355	0.4962	0.028
Mof_C 	C 	0.3312	0.6181	0.4445	0.341
Mof_C 	C 	0.0626	0.7632	0.5347	0.391
Mof_Co	Co	0.94997	0.64049	0.12469	1.216
Mof_O 	O 	0.0717	0.4537	0.06845	-0.454
Mof_O 	O 	0.0309	0.519	0.15159	-0.453
Mof_O 	O 	0.144	0.0985	0.29954	-0.343
Mof_O 	O 	0.0542	0.2404	0.30559	-0.398
Mof_O 	O 	0.1056	0.4526	0.94396	-0.483
Mof_O 	O 	0.1666	0.2987	0.91325	-0.376
Mof_O 	O 	0.4442	0.1584	0.0005	-0.444
Mof_O 	O 	0.4712	0.2416	0.08232	-0.439
Mof_C 	C 	0.1181	0.3545	0.1477	-0.13
Mof_C 	C 	0.098	0.3192	0.2	0.056
Mof_H 	H 	0.0567	0.3585	0.2203	0.037
Mof_C 	C 	0.1378	0.226	0.2235	-0.107
Mof_C 	C 	0.2005	0.1699	0.1935	0.039
Mof_H 	H 	0.2274	0.1069	0.2086	0.033
Mof_C 	C 	0.2239	0.2064	0.1412	-0.111
Mof_H 	H 	0.2672	0.169	0.1217	0.071
Mof_C 	C 	0.1831	0.298	0.1179	0.045
Mof_H 	H 	0.1985	0.3223	0.0826	0.025
Mof_C 	C 	0.0702	0.4499	0.1202	0.385
Mof_C 	C 	0.1106	0.1846	0.2795	0.322
Mof_C 	C 	0.2455	0.4022	0.9796	-0.053
Mof_C 	C 	0.3044	0.3169	0.9878	0.066
Mof_H 	H 	0.2955	0.2477	0.9707	0.038
Mof_C 	C 	0.377	0.332	0.0211	-0.135
Mof_C 	C 	0.3924	0.4384	0.0424	0.018
Mof_H 	H 	0.4419	0.4514	0.0635	0.043
Mof_C 	C 	0.3351	0.525	0.0326	-0.044
Mof_H 	H 	0.3464	0.5963	0.0467	0.048
Mof_C 	C 	0.2604	0.5065	0.0018	-0.08
Mof_H 	H 	0.2209	0.5645	0.9962	0.096
Mof_C 	C 	0.1688	0.3819	0.9445	0.319
Mof_C 	C 	0.4374	0.2368	0.0347	0.39
Mof_Co	Co	0.44997	0.85951	0.87531	1.192
Mof_O 	O 	0.5717	0.0463	0.93155	-0.419
Mof_O 	O 	0.5309	0.981	0.84841	-0.373
Mof_O 	O 	0.644	0.4015	0.70046	-0.315
Mof_O 	O 	0.5542	0.2596	0.69441	-0.373
Mof_O 	O 	0.6056	0.0474	0.05604	-0.51
Mof_O 	O 	0.6666	0.2013	0.08675	-0.381
Mof_O 	O 	0.9442	0.3416	0.9995	-0.37
Mof_O 	O 	0.9712	0.2584	0.91768	-0.4
Mof_C 	C 	0.6181	0.1455	0.8523	-0.089
Mof_C 	C 	0.598	0.1808	0.8	0.027
Mof_H 	H 	0.5567	0.1415	0.7797	0.05
Mof_C 	C 	0.6378	0.274	0.7765	-0.076
Mof_C 	C 	0.7005	0.3301	0.8065	0.018
Mof_H 	H 	0.7274	0.3931	0.7914	0.054
Mof_C 	C 	0.7239	0.2936	0.8588	-0.079
Mof_H 	H 	0.7672	0.331	0.8783	0.069
Mof_C 	C 	0.6831	0.202	0.8821	0.016
Mof_H 	H 	0.6985	0.1777	0.9174	0.044
Mof_C 	C 	0.5702	0.0501	0.8798	0.319
Mof_C 	C 	0.6106	0.3154	0.7205	0.312
Mof_C 	C 	0.7455	0.0978	0.0204	-0.245
Mof_C 	C 	0.8044	0.1831	0.0122	0.074
Mof_H 	H 	0.7955	0.2523	0.0293	0.032
Mof_C 	C 	0.877	0.168	0.9789	-0.1
Mof_C 	C 	0.8924	0.0616	0.9576	0.037
Mof_H 	H 	0.9419	0.0486	0.9365	0.047
Mof_C 	C 	0.8351	0.975	0.9674	-0.133
Mof_H 	H 	0.8464	0.9037	0.9533	0.106
Mof_C 	C 	0.7604	0.9935	0.9982	0.24
Mof_H 	H 	0.7209	0.9355	0.0038	-0.04
Mof_C 	C 	0.6688	0.1181	0.0555	0.378
Mof_C 	C 	0.9374	0.2632	0.9653	0.382
Mof_Co	Co	0.05003	0.14049	0.37531	1.163
Mof_O 	O 	0.9283	0.9537	0.43155	-0.394
Mof_O 	O 	0.9691	0.019	0.34841	-0.422
Mof_O 	O 	0.856	0.5985	0.20046	-0.305
Mof_O 	O 	0.9458	0.7404	0.19441	-0.338
Mof_O 	O 	0.8944	0.9526	0.55604	-0.431
Mof_O 	O 	0.8334	0.7987	0.58675	-0.354
Mof_O 	O 	0.5558	0.6584	0.4995	-0.42
Mof_O 	O 	0.5288	0.7416	0.41768	-0.433
Mof_C 	C 	0.8819	0.8545	0.3523	-0.096
Mof_C 	C 	0.902	0.8192	0.3	0.042
Mof_H 	H 	0.9433	0.8585	0.2797	0.077
Mof_C 	C 	0.8622	0.726	0.2765	-0.066
Mof_C 	C 	0.7995	0.6699	0.3065	0.023
Mof_H 	H 	0.7726	0.6069	0.2914	0.054
Mof_C 	C 	0.7761	0.7064	0.3588	-0.081
Mof_H 	H 	0.7328	0.669	0.3783	0.07
Mof_C 	C 	0.8169	0.798	0.3821	0.033
Mof_H 	H 	0.8015	0.8223	0.4174	0.042
Mof_C 	C 	0.9298	0.9499	0.3798	0.418
Mof_C 	C 	0.8894	0.6846	0.2205	0.312
Mof_C 	C 	0.7545	0.9022	0.5204	-0.073
Mof_C 	C 	0.6956	0.8169	0.5122	0.058
Mof_H 	H 	0.7045	0.7477	0.5293	0.043
Mof_C 	C 	0.623	0.832	0.4789	-0.138
Mof_C 	C 	0.6076	0.9384	0.4576	0.125
Mof_H 	H 	0.5581	0.9514	0.4365	0.023
Mof_C 	C 	0.6649	0.025	0.4674	-0.172
Mof_H 	H 	0.6536	0.0963	0.4533	0.092
Mof_C 	C 	0.7396	0.0065	0.4982	0.012
Mof_H 	H 	0.7791	0.0645	0.5038	0.037
Mof_C 	C 	0.8312	0.8819	0.5555	0.322
Mof_C 	C 	0.5626	0.7368	0.4653	0.397
Mof_Co	Co	0.44997	0.64049	0.37531	1.191
Mof_O 	O 	0.5717	0.4537	0.43155	-0.43
Mof_O 	O 	0.5309	0.519	0.34841	-0.42
Mof_O 	O 	0.644	0.0985	0.20046	-0.326
Mof_O 	O 	0.5542	0.2404	0.19441	-0.37
Mof_O 	O 	0.6056	0.4526	0.55604	-0.479
Mof_O 	O 	0.6666	0.2987	0.58675	-0.372
Mof_O 	O 	0.9442	0.1584	0.4995	-0.395
Mof_O 	O 	0.9712	0.2416	0.41768	-0.401
Mof_C 	C 	0.6181	0.3545	0.3523	-0.108
Mof_C 	C 	0.598	0.3192	0.3	0.045
Mof_H 	H 	0.5567	0.3585	0.2797	0.054
Mof_C 	C 	0.6378	0.226	0.2765	-0.087
Mof_C 	C 	0.7005	0.1699	0.3065	0.029
Mof_H 	H 	0.7274	0.1069	0.2914	0.043
Mof_C 	C 	0.7239	0.2064	0.3588	-0.094
Mof_H 	H 	0.7672	0.169	0.3783	0.069
Mof_C 	C 	0.6831	0.298	0.3821	0.034
Mof_H 	H 	0.6985	0.3223	0.4174	0.035
Mof_C 	C 	0.5702	0.4499	0.3798	0.379
Mof_C 	C 	0.6106	0.1846	0.2205	0.317
Mof_C 	C 	0.7455	0.4022	0.5204	-0.12
Mof_C 	C 	0.8044	0.3169	0.5122	0.063
Mof_H 	H 	0.7955	0.2477	0.5293	0.039
Mof_C 	C 	0.877	0.332	0.4789	-0.114
Mof_C 	C 	0.8924	0.4384	0.4576	0.054
Mof_H 	H 	0.9419	0.4514	0.4365	0.051
Mof_C 	C 	0.8351	0.525	0.4674	-0.105
Mof_H 	H 	0.8464	0.5963	0.4533	0.083
Mof_C 	C 	0.7604	0.5065	0.4982	0.054
Mof_H 	H 	0.7209	0.5645	0.5038	0.032
Mof_C 	C 	0.6688	0.3819	0.5555	0.34
Mof_C 	C 	0.9374	0.2368	0.4653	0.385
Mof_Co	Co	0.05003	0.35951	0.87531	1.164
Mof_O 	O 	0.9283	0.5463	0.93155	-0.39
Mof_O 	O 	0.9691	0.481	0.84841	-0.383
Mof_O 	O 	0.856	0.9015	0.70046	-0.295
Mof_O 	O 	0.9458	0.7596	0.69441	-0.341
Mof_O 	O 	0.8944	0.5474	0.05604	-0.466
Mof_O 	O 	0.8334	0.7013	0.08675	-0.365
Mof_O 	O 	0.5558	0.8416	0.9995	-0.387
Mof_O 	O 	0.5288	0.7584	0.91768	-0.43
Mof_C 	C 	0.8819	0.6455	0.8523	-0.08
Mof_C 	C 	0.902	0.6808	0.8	0.028
Mof_H 	H 	0.9433	0.6415	0.7797	0.074
Mof_C 	C 	0.8622	0.774	0.7765	-0.057
Mof_C 	C 	0.7995	0.8301	0.8065	0.013
Mof_H 	H 	0.7726	0.8931	0.7914	0.065
Mof_C 	C 	0.7761	0.7936	0.8588	-0.069
Mof_H 	H 	0.7328	0.831	0.8783	0.071
Mof_C 	C 	0.8169	0.702	0.8821	0.018
Mof_H 	H 	0.8015	0.6777	0.9174	0.049
Mof_C 	C 	0.9298	0.5501	0.8798	0.368
Mof_C 	C 	0.8894	0.8154	0.7205	0.307
Mof_C 	C 	0.7545	0.5978	0.0204	-0.198
Mof_C 	C 	0.6956	0.6831	0.0122	0.067
Mof_H 	H 	0.7045	0.7523	0.0293	0.037
Mof_C 	C 	0.623	0.668	0.9789	-0.121
Mof_C 	C 	0.6076	0.5616	0.9576	0.101
Mof_H 	H 	0.5581	0.5486	0.9365	0.021
Mof_C 	C 	0.6649	0.475	0.9674	-0.192
Mof_H 	H 	0.6536	0.4037	0.9533	0.113
Mof_C 	C 	0.7396	0.4935	0.9982	0.197
Mof_H 	H 	0.7791	0.4355	0.0038	-0.037
Mof_C 	C 	0.8312	0.6181	0.0555	0.36
Mof_C 	C 	0.5626	0.7632	0.9653	0.39
Mof_Co	Co	0.55003	0.14049	0.12469	1.189
Mof_O 	O 	0.4283	0.9537	0.06845	-0.428
Mof_O 	O 	0.4691	0.019	0.15159	-0.466
Mof_O 	O 	0.356	0.5985	0.29954	-0.32
Mof_O 	O 	0.4458	0.7404	0.30559	-0.364
Mof_O 	O 	0.3944	0.9526	0.94396	-0.441
Mof_O 	O 	0.3334	0.7987	0.91325	-0.358
Mof_O 	O 	0.0558	0.6584	0.0005	-0.455
Mof_O 	O 	0.0288	0.7416	0.08232	-0.466
Mof_C 	C 	0.3819	0.8545	0.1477	-0.121
Mof_C 	C 	0.402	0.8192	0.2	0.057
Mof_H 	H 	0.4433	0.8585	0.2203	0.06
Mof_C 	C 	0.3622	0.726	0.2235	-0.088
Mof_C 	C 	0.2995	0.6699	0.1935	0.035
Mof_H 	H 	0.2726	0.6069	0.2086	0.044
Mof_C 	C 	0.2761	0.7064	0.1412	-0.101
Mof_H 	H 	0.2328	0.669	0.1217	0.073
Mof_C 	C 	0.3169	0.798	0.1179	0.048
Mof_H 	H 	0.3015	0.8223	0.0826	0.03
Mof_C 	C 	0.4298	0.9499	0.1202	0.436
Mof_C 	C 	0.3894	0.6846	0.2795	0.318
Mof_C 	C 	0.2545	0.9022	0.9796	-0
Mof_C 	C 	0.1956	0.8169	0.9878	0.058
Mof_H 	H 	0.2045	0.7477	0.9707	0.043
Mof_C 	C 	0.123	0.832	0.0211	-0.157
Mof_C 	C 	0.1076	0.9384	0.0424	0.095
Mof_H 	H 	0.0581	0.9514	0.0635	0.016
Mof_C 	C 	0.1649	0.025	0.0326	-0.117
Mof_H 	H 	0.1536	0.0963	0.0467	0.058
Mof_C 	C 	0.2396	0.0065	0.0018	-0.127
Mof_H 	H 	0.2791	0.0645	0.9962	0.101
Mof_C 	C 	0.3312	0.8819	0.9445	0.301
Mof_C 	C 	0.0626	0.7368	0.0347	0.398
Mof_Co	Co	0.94997	0.85951	0.62469	1.216
Mof_O 	O 	0.0717	0.0463	0.56845	-0.447
Mof_O 	O 	0.0309	0.981	0.65159	-0.4
Mof_O 	O 	0.144	0.4015	0.79954	-0.331
Mof_O 	O 	0.0542	0.2596	0.80559	-0.401
Mof_O 	O 	0.1056	0.0474	0.44396	-0.519
Mof_O 	O 	0.1666	0.2013	0.41325	-0.387
Mof_O 	O 	0.4442	0.3416	0.5005	-0.421
Mof_O 	O 	0.4712	0.2584	0.58232	-0.438
Mof_C 	C 	0.1181	0.1455	0.6477	-0.109
Mof_C 	C 	0.098	0.1808	0.7	0.038
Mof_H 	H 	0.0567	0.1415	0.7203	0.033
Mof_C 	C 	0.1378	0.274	0.7235	-0.096
Mof_C 	C 	0.2005	0.3301	0.6935	0.027
Mof_H 	H 	0.2274	0.3931	0.7086	0.045
Mof_C 	C 	0.2239	0.2936	0.6412	-0.096
Mof_H 	H 	0.2672	0.331	0.6217	0.071
Mof_C 	C 	0.1831	0.202	0.6179	0.026
Mof_H 	H 	0.1985	0.1777	0.5826	0.033
Mof_C 	C 	0.0702	0.0501	0.6202	0.319
Mof_C 	C 	0.1106	0.3154	0.7795	0.317
Mof_C 	C 	0.2455	0.0978	0.4796	-0.185
Mof_C 	C 	0.3044	0.1831	0.4878	0.078
Mof_H 	H 	0.2955	0.2523	0.4707	0.031
Mof_C 	C 	0.377	0.168	0.5211	-0.12
Mof_C 	C 	0.3924	0.0616	0.5424	-0.01
Mof_H 	H 	0.4419	0.0486	0.5635	0.042
Mof_C 	C 	0.3351	0.975	0.5326	-0.061
Mof_H 	H 	0.3464	0.9037	0.5467	0.068
Mof_C 	C 	0.2604	0.9935	0.5018	0.112
Mof_H 	H 	0.2209	0.9355	0.4962	0.023
Mof_C 	C 	0.1688	0.1181	0.4445	0.359
Mof_C 	C 	0.4374	0.2632	0.5347	0.386
Mof_Co	Co	0.5	0.5	0.5	1.198
Mof_Co	Co	-0	0.5	-0	1.157
Mof_Co	Co	0.5	0	-0	1.166
Mof_Co	Co	2.93769e-33	0	0.5	1.147
_end
