# CIF file generated by openbabel 3.1.0, see https://openbabel.org
data_I
_chemical_name_common 'CESYEF01_clean'
_cell_length_a 3.6519
_cell_length_b 12.1512
_cell_length_c 15.07
_cell_angle_alpha 90
_cell_angle_beta 90.982
_cell_angle_gamma 90
_space_group_name_H-M_alt 'P 1'
_space_group_name_Hall 'P 1'
loop_
    _symmetry_equiv_pos_as_xyz
    x,y,z
loop_
    _atom_site_label
    _atom_site_type_symbol
    _atom_site_fract_x
    _atom_site_fract_y
    _atom_site_fract_z
    _atom_site_occupancy
    Ag1      Ag       0.39560    0.42607    0.92452    1.000
    Ag2      Ag       0.60440    0.92607    0.57548    1.000
    Ag3      Ag       0.60440    0.57393    0.07548    1.000
    Ag4      Ag       0.39560    0.07393    0.42452    1.000
    H1       H        0.07020    0.59360    0.74450    1.000
    H2       H        0.30500    0.69270    0.62920    1.000
    H3       H        0.41020    0.95440    0.77820    1.000
    H4       H        0.17310    0.86400    0.89840    1.000
    H5       H        0.92980    0.09360    0.75550    1.000
    H6       H        0.69500    0.19270    0.87080    1.000
    H7       H        0.58980    0.45440    0.72180    1.000
    H8       H        0.82690    0.36400    0.60160    1.000
    H9       H        0.92980    0.40640    0.25550    1.000
    H10      H        0.69500    0.30730    0.37080    1.000
    H11      H        0.58980    0.04560    0.22180    1.000
    H12      H        0.82690    0.13600    0.10160    1.000
    H13      H        0.07020    0.90640    0.24450    1.000
    H14      H        0.30500    0.80730    0.12920    1.000
    H15      H        0.41020    0.54560    0.27820    1.000
    H16      H        0.17310    0.63600    0.39840    1.000
    C1       C        0.93100    0.65910    0.91140    1.000
    C2       C        0.09500    0.71760    0.83540    1.000
    C3       C        0.13900    0.66830    0.75320    1.000
    C4       C        0.28000    0.72760    0.68520    1.000
    C5       C        0.34000    0.87950    0.77190    1.000
    C6       C        0.19900    0.82650    0.84360    1.000
    C7       C        0.06900    0.15910    0.58860    1.000
    C8       C        0.90500    0.21760    0.66460    1.000
    C9       C        0.86100    0.16830    0.74680    1.000
    C10      C        0.72000    0.22760    0.81480    1.000
    C11      C        0.66000    0.37950    0.72810    1.000
    C12      C        0.80100    0.32650    0.65640    1.000
    C13      C        0.06900    0.34090    0.08860    1.000
    C14      C        0.90500    0.28240    0.16460    1.000
    C15      C        0.86100    0.33170    0.24680    1.000
    C16      C        0.72000    0.27240    0.31480    1.000
    C17      C        0.66000    0.12050    0.22810    1.000
    C18      C        0.80100    0.17350    0.15640    1.000
    C19      C        0.93100    0.84090    0.41140    1.000
    C20      C        0.09500    0.78240    0.33540    1.000
    C21      C        0.13900    0.83170    0.25320    1.000
    C22      C        0.28000    0.77240    0.18520    1.000
    C23      C        0.34000    0.62050    0.27190    1.000
    C24      C        0.19900    0.67350    0.34360    1.000
    N1       N        0.38300    0.83070    0.69310    1.000
    N2       N        0.61700    0.33070    0.80690    1.000
    N3       N        0.61700    0.16930    0.30690    1.000
    N4       N        0.38300    0.66930    0.19310    1.000
    O1       O        0.88400    0.55380    0.89850    1.000
    O2       O        0.83100    0.71110    0.97740    1.000
    O3       O        0.11600    0.05380    0.60150    1.000
    O4       O        0.16900    0.21110    0.52260    1.000
    O5       O        0.11600    0.44620    0.10150    1.000
    O6       O        0.16900    0.28890    0.02260    1.000
    O7       O        0.88400    0.94620    0.39850    1.000
    O8       O        0.83100    0.78890    0.47740    1.000
