data_functionalizedCrystal
_audit_creation_method	'EQeq! by Chris Wilmer'
_symmetry_space_group_name_H-M	'P1'
_symmetry_Int_Tables_number	1
_symmetry_cell_setting	triclinic
loop_
_symmetry_equiv_pos_as_xyz
  x,y,z
_cell_length_a	21.435
_cell_length_b	21.435
_cell_length_c	11.382
_cell_angle_alpha	90
_cell_angle_beta	90
_cell_angle_gamma	90
loop_
_atom_site_label
_atom_site_type_symbol
_atom_site_fract_x
_atom_site_fract_y
_atom_site_fract_z
_atom_site_charge
Mof_O 	O 	0.2987	0.87622	0.9207	-0.45
Mof_N 	N 	0.2024	0.0032	0.09	-0.219
Mof_C 	C 	0.176	0.0529	0.0379	-0.022
Mof_H 	H 	0.1828	0.0589	0.9581	0.042
Mof_C 	C 	0.1395	0.0952	0.0969	-0.085
Mof_H 	H 	0.1227	0.1294	0.0579	0.042
Mof_C 	C 	0.1278	0.0859	0.2162	0.024
Mof_C 	C 	0.1556	0.0346	0.2712	-0.121
Mof_H 	H 	0.1497	0.0273	0.3509	0.06
Mof_C 	C 	0.192	0.9952	0.2043	0.061
Mof_H 	H 	0.2102	0.9611	0.2411	-0.019
Mof_C 	C 	0.2934	0.8162	0.9314	0.471
Mof_C 	C 	0.3413	0.7813	0.8582	-0.937
Mof_H 	H 	0.3506	0.8048	0.7887	0.298
Mof_H 	H 	0.3249	0.7412	0.8364	0.302
Mof_H 	H 	0.3788	0.7756	0.9033	0.302
Mof_O 	O 	0.2013	0.62378	0.9207	-0.451
Mof_N 	N 	0.2976	0.4968	0.09	-0.222
Mof_C 	C 	0.324	0.4471	0.0379	-0.023
Mof_H 	H 	0.3172	0.4411	0.9581	0.042
Mof_C 	C 	0.3605	0.4048	0.0969	-0.086
Mof_H 	H 	0.3773	0.3706	0.0579	0.041
Mof_C 	C 	0.3722	0.4141	0.2162	0.024
Mof_C 	C 	0.3444	0.4654	0.2712	-0.125
Mof_H 	H 	0.3503	0.4727	0.3509	0.061
Mof_C 	C 	0.308	0.5048	0.2043	0.066
Mof_H 	H 	0.2898	0.5389	0.2411	-0.02
Mof_C 	C 	0.2066	0.6838	0.9314	0.47
Mof_C 	C 	0.1587	0.7187	0.8582	-0.936
Mof_H 	H 	0.1494	0.6952	0.7887	0.297
Mof_H 	H 	0.1751	0.7588	0.8364	0.302
Mof_H 	H 	0.1212	0.7244	0.9033	0.302
Mof_O 	O 	0.62378	0.2987	0.4207	-0.453
Mof_N 	N 	0.4968	0.2024	0.59	-0.234
Mof_C 	C 	0.4471	0.176	0.5379	0.071
Mof_H 	H 	0.4411	0.1828	0.4581	-0.018
Mof_C 	C 	0.4048	0.1395	0.5969	-0.134
Mof_H 	H 	0.3706	0.1227	0.5579	0.068
Mof_C 	C 	0.4141	0.1278	0.7162	0.043
Mof_C 	C 	0.4654	0.1556	0.7712	-0.137
Mof_H 	H 	0.4727	0.1497	0.8509	0.072
Mof_C 	C 	0.5048	0.192	0.7043	0.08
Mof_H 	H 	0.5389	0.2102	0.7411	-0.021
Mof_C 	C 	0.6838	0.2934	0.4314	0.408
Mof_C 	C 	0.7187	0.3413	0.3582	-0.865
Mof_H 	H 	0.6952	0.3506	0.2887	0.273
Mof_H 	H 	0.7588	0.3249	0.3364	0.274
Mof_H 	H 	0.7244	0.3788	0.4033	0.27
Mof_O 	O 	0.87622	0.2013	0.4207	-0.453
Mof_N 	N 	0.0032	0.2976	0.59	-0.233
Mof_C 	C 	0.0529	0.324	0.5379	0.07
Mof_H 	H 	0.0589	0.3172	0.4581	-0.018
Mof_C 	C 	0.0952	0.3605	0.5969	-0.132
Mof_H 	H 	0.1294	0.3773	0.5579	0.067
Mof_C 	C 	0.0859	0.3722	0.7162	0.041
Mof_C 	C 	0.0346	0.3444	0.7712	-0.134
Mof_H 	H 	0.0273	0.3503	0.8509	0.071
Mof_C 	C 	0.9952	0.308	0.7043	0.076
Mof_H 	H 	0.9611	0.2898	0.7411	-0.02
Mof_C 	C 	0.8162	0.2066	0.4314	0.408
Mof_C 	C 	0.7813	0.1587	0.3582	-0.865
Mof_H 	H 	0.8048	0.1494	0.2887	0.273
Mof_H 	H 	0.7412	0.1751	0.3364	0.274
Mof_H 	H 	0.7756	0.1212	0.4033	0.27
Mof_O 	O 	0.2013	0.87622	0.0793	-0.464
Mof_N 	N 	0.2976	0.0032	0.91	-0.242
Mof_C 	C 	0.324	0.0529	0.9621	0.168
Mof_H 	H 	0.3172	0.0589	0.0419	-0.074
Mof_C 	C 	0.3605	0.0952	0.9031	-0.192
Mof_H 	H 	0.3773	0.1294	0.9421	0.1
Mof_C 	C 	0.3722	0.0859	0.7838	0.079
Mof_C 	C 	0.3444	0.0346	0.7288	-0.16
Mof_H 	H 	0.3503	0.0273	0.6491	0.074
Mof_C 	C 	0.308	0.9952	0.7957	0.091
Mof_H 	H 	0.2898	0.9611	0.7589	-0.025
Mof_C 	C 	0.2066	0.8162	0.0686	0.415
Mof_C 	C 	0.1587	0.7813	0.1418	-0.869
Mof_H 	H 	0.1494	0.8048	0.2113	0.275
Mof_H 	H 	0.1751	0.7412	0.1636	0.273
Mof_H 	H 	0.1212	0.7756	0.0967	0.262
Mof_O 	O 	0.2987	0.62378	0.0793	-0.464
Mof_N 	N 	0.2024	0.4968	0.91	-0.244
Mof_C 	C 	0.176	0.4471	0.9621	0.17
Mof_H 	H 	0.1828	0.4411	0.0419	-0.075
Mof_C 	C 	0.1395	0.4048	0.9031	-0.194
Mof_H 	H 	0.1227	0.3706	0.9421	0.1
Mof_C 	C 	0.1278	0.4141	0.7838	0.081
Mof_C 	C 	0.1556	0.4654	0.7288	-0.163
Mof_H 	H 	0.1497	0.4727	0.6491	0.075
Mof_C 	C 	0.192	0.5048	0.7957	0.095
Mof_H 	H 	0.2102	0.5389	0.7589	-0.026
Mof_C 	C 	0.2934	0.6838	0.0686	0.415
Mof_C 	C 	0.3413	0.7187	0.1418	-0.87
Mof_H 	H 	0.3506	0.6952	0.2113	0.275
Mof_H 	H 	0.3249	0.7588	0.1636	0.273
Mof_H 	H 	0.3788	0.7244	0.0967	0.262
Mof_O 	O 	0.87622	0.2987	0.5793	-0.452
Mof_N 	N 	0.0032	0.2024	0.41	-0.235
Mof_C 	C 	0.0529	0.176	0.4621	0.075
Mof_H 	H 	0.0589	0.1828	0.5419	-0.017
Mof_C 	C 	0.0952	0.1395	0.4031	-0.146
Mof_H 	H 	0.1294	0.1227	0.4421	0.074
Mof_C 	C 	0.0859	0.1278	0.2838	0.061
Mof_C 	C 	0.0346	0.1556	0.2288	-0.147
Mof_H 	H 	0.0273	0.1497	0.1491	0.063
Mof_C 	C 	0.9952	0.192	0.2957	0.076
Mof_H 	H 	0.9611	0.2102	0.2589	-0.026
Mof_C 	C 	0.8162	0.2934	0.5686	0.41
Mof_C 	C 	0.7813	0.3413	0.6418	-0.874
Mof_H 	H 	0.8048	0.3506	0.7113	0.28
Mof_H 	H 	0.7412	0.3249	0.6636	0.277
Mof_H 	H 	0.7756	0.3788	0.5967	0.274
Mof_O 	O 	0.62378	0.2013	0.5793	-0.452
Mof_N 	N 	0.4968	0.2976	0.41	-0.237
Mof_C 	C 	0.4471	0.324	0.4621	0.076
Mof_H 	H 	0.4411	0.3172	0.5419	-0.017
Mof_C 	C 	0.4048	0.3605	0.4031	-0.147
Mof_H 	H 	0.3706	0.3773	0.4421	0.074
Mof_C 	C 	0.4141	0.3722	0.2838	0.062
Mof_C 	C 	0.4654	0.3444	0.2288	-0.152
Mof_H 	H 	0.4727	0.3503	0.1491	0.064
Mof_C 	C 	0.5048	0.308	0.2957	0.081
Mof_H 	H 	0.5389	0.2898	0.2589	-0.028
Mof_C 	C 	0.6838	0.2066	0.5686	0.41
Mof_C 	C 	0.7187	0.1587	0.6418	-0.874
Mof_H 	H 	0.6952	0.1494	0.7113	0.28
Mof_H 	H 	0.7588	0.1751	0.6636	0.276
Mof_H 	H 	0.7244	0.1212	0.5967	0.274
Mof_Cu	Cu	0.25	0.93806	-0	0.873
Mof_C 	C 	0.25	0.7854	-0	-0.323
Mof_Cu	Cu	0.25	0.56194	-0	0.873
Mof_C 	C 	0.25	0.7146	-0	-0.323
Mof_Cu	Cu	0.56194	0.25	0.5	0.889
Mof_C 	C 	0.7146	0.25	0.5	-0.279
Mof_Cu	Cu	0.93806	0.25	0.5	0.888
Mof_C 	C 	0.7854	0.25	0.5	-0.279
Mof_O 	O 	0.7013	0.12378	0.0793	-0.464
Mof_N 	N 	0.7976	0.9968	0.91	-0.242
Mof_C 	C 	0.824	0.9471	0.9621	0.168
Mof_H 	H 	0.8172	0.9411	0.0419	-0.074
Mof_C 	C 	0.8605	0.9048	0.9031	-0.192
Mof_H 	H 	0.8773	0.8706	0.9421	0.1
Mof_C 	C 	0.8722	0.9141	0.7838	0.079
Mof_C 	C 	0.8444	0.9654	0.7288	-0.158
Mof_H 	H 	0.8503	0.9727	0.6491	0.074
Mof_C 	C 	0.808	0.0048	0.7957	0.089
Mof_H 	H 	0.7898	0.0389	0.7589	-0.025
Mof_C 	C 	0.7066	0.1838	0.0686	0.415
Mof_C 	C 	0.6587	0.2187	0.1418	-0.87
Mof_H 	H 	0.6494	0.1952	0.2113	0.275
Mof_H 	H 	0.6751	0.2588	0.1636	0.273
Mof_H 	H 	0.6212	0.2244	0.0967	0.262
Mof_O 	O 	0.7987	0.37622	0.0793	-0.464
Mof_N 	N 	0.7024	0.5032	0.91	-0.244
Mof_C 	C 	0.676	0.5529	0.9621	0.17
Mof_H 	H 	0.6828	0.5589	0.0419	-0.075
Mof_C 	C 	0.6395	0.5952	0.9031	-0.193
Mof_H 	H 	0.6227	0.6294	0.9421	0.1
Mof_C 	C 	0.6278	0.5859	0.7838	0.081
Mof_C 	C 	0.6556	0.5346	0.7288	-0.163
Mof_H 	H 	0.6497	0.5273	0.6491	0.075
Mof_C 	C 	0.692	0.4952	0.7957	0.094
Mof_H 	H 	0.7102	0.4611	0.7589	-0.026
Mof_C 	C 	0.7934	0.3162	0.0686	0.415
Mof_C 	C 	0.8413	0.2813	0.1418	-0.87
Mof_H 	H 	0.8506	0.3048	0.2113	0.275
Mof_H 	H 	0.8249	0.2412	0.1636	0.273
Mof_H 	H 	0.8788	0.2756	0.0967	0.262
Mof_O 	O 	0.37622	0.7013	0.5793	-0.452
Mof_N 	N 	0.5032	0.7976	0.41	-0.237
Mof_C 	C 	0.5529	0.824	0.4621	0.076
Mof_H 	H 	0.5589	0.8172	0.5419	-0.017
Mof_C 	C 	0.5952	0.8605	0.4031	-0.148
Mof_H 	H 	0.6294	0.8773	0.4421	0.074
Mof_C 	C 	0.5859	0.8722	0.2838	0.063
Mof_C 	C 	0.5346	0.8444	0.2288	-0.152
Mof_H 	H 	0.5273	0.8503	0.1491	0.064
Mof_C 	C 	0.4952	0.808	0.2957	0.081
Mof_H 	H 	0.4611	0.7898	0.2589	-0.028
Mof_C 	C 	0.3162	0.7066	0.5686	0.41
Mof_C 	C 	0.2813	0.6587	0.6418	-0.874
Mof_H 	H 	0.3048	0.6494	0.7113	0.28
Mof_H 	H 	0.2412	0.6751	0.6636	0.277
Mof_H 	H 	0.2756	0.6212	0.5967	0.274
Mof_O 	O 	0.12378	0.7987	0.5793	-0.453
Mof_N 	N 	0.9968	0.7024	0.41	-0.235
Mof_C 	C 	0.9471	0.676	0.4621	0.075
Mof_H 	H 	0.9411	0.6828	0.5419	-0.017
Mof_C 	C 	0.9048	0.6395	0.4031	-0.146
Mof_H 	H 	0.8706	0.6227	0.4421	0.073
Mof_C 	C 	0.9141	0.6278	0.2838	0.061
Mof_C 	C 	0.9654	0.6556	0.2288	-0.149
Mof_H 	H 	0.9727	0.6497	0.1491	0.063
Mof_C 	C 	0.0048	0.692	0.2957	0.078
Mof_H 	H 	0.0389	0.7102	0.2589	-0.027
Mof_C 	C 	0.1838	0.7934	0.5686	0.41
Mof_C 	C 	0.2187	0.8413	0.6418	-0.874
Mof_H 	H 	0.1952	0.8506	0.7113	0.28
Mof_H 	H 	0.2588	0.8249	0.6636	0.276
Mof_H 	H 	0.2244	0.8788	0.5967	0.274
Mof_O 	O 	0.7987	0.12378	0.9207	-0.451
Mof_N 	N 	0.7024	0.9968	0.09	-0.221
Mof_C 	C 	0.676	0.9471	0.0379	-0.023
Mof_H 	H 	0.6828	0.9411	0.9581	0.041
Mof_C 	C 	0.6395	0.9048	0.0969	-0.086
Mof_H 	H 	0.6227	0.8706	0.0579	0.041
Mof_C 	C 	0.6278	0.9141	0.2162	0.023
Mof_C 	C 	0.6556	0.9654	0.2712	-0.122
Mof_H 	H 	0.6497	0.9727	0.3509	0.06
Mof_C 	C 	0.692	0.0048	0.2043	0.063
Mof_H 	H 	0.7102	0.0389	0.2411	-0.019
Mof_C 	C 	0.7934	0.1838	0.9314	0.47
Mof_C 	C 	0.8413	0.2187	0.8582	-0.936
Mof_H 	H 	0.8506	0.1952	0.7887	0.297
Mof_H 	H 	0.8249	0.2588	0.8364	0.302
Mof_H 	H 	0.8788	0.2244	0.9033	0.302
Mof_O 	O 	0.7013	0.37622	0.9207	-0.451
Mof_N 	N 	0.7976	0.5032	0.09	-0.222
Mof_C 	C 	0.824	0.5529	0.0379	-0.023
Mof_H 	H 	0.8172	0.5589	0.9581	0.041
Mof_C 	C 	0.8605	0.5952	0.0969	-0.087
Mof_H 	H 	0.8773	0.6294	0.0579	0.041
Mof_C 	C 	0.8722	0.5859	0.2162	0.024
Mof_C 	C 	0.8444	0.5346	0.2712	-0.125
Mof_H 	H 	0.8503	0.5273	0.3509	0.061
Mof_C 	C 	0.808	0.4952	0.2043	0.066
Mof_H 	H 	0.7898	0.4611	0.2411	-0.02
Mof_C 	C 	0.7066	0.3162	0.9314	0.471
Mof_C 	C 	0.6587	0.2813	0.8582	-0.937
Mof_H 	H 	0.6494	0.3048	0.7887	0.298
Mof_H 	H 	0.6751	0.2412	0.8364	0.302
Mof_H 	H 	0.6212	0.2756	0.9033	0.302
Mof_O 	O 	0.12378	0.7013	0.4207	-0.453
Mof_N 	N 	0.9968	0.7976	0.59	-0.232
Mof_C 	C 	0.9471	0.824	0.5379	0.07
Mof_H 	H 	0.9411	0.8172	0.4581	-0.018
Mof_C 	C 	0.9048	0.8605	0.5969	-0.132
Mof_H 	H 	0.8706	0.8773	0.5579	0.067
Mof_C 	C 	0.9141	0.8722	0.7162	0.041
Mof_C 	C 	0.9654	0.8444	0.7712	-0.132
Mof_H 	H 	0.9727	0.8503	0.8509	0.071
Mof_C 	C 	0.0048	0.808	0.7043	0.074
Mof_H 	H 	0.0389	0.7898	0.7411	-0.019
Mof_C 	C 	0.1838	0.7066	0.4314	0.408
Mof_C 	C 	0.2187	0.6587	0.3582	-0.865
Mof_H 	H 	0.1952	0.6494	0.2887	0.273
Mof_H 	H 	0.2588	0.6751	0.3364	0.274
Mof_H 	H 	0.2244	0.6212	0.4033	0.27
Mof_O 	O 	0.37622	0.7987	0.4207	-0.453
Mof_N 	N 	0.5032	0.7024	0.59	-0.234
Mof_C 	C 	0.5529	0.676	0.5379	0.071
Mof_H 	H 	0.5589	0.6828	0.4581	-0.018
Mof_C 	C 	0.5952	0.6395	0.5969	-0.133
Mof_H 	H 	0.6294	0.6227	0.5579	0.068
Mof_C 	C 	0.5859	0.6278	0.7162	0.042
Mof_C 	C 	0.5346	0.6556	0.7712	-0.137
Mof_H 	H 	0.5273	0.6497	0.8509	0.072
Mof_C 	C 	0.4952	0.692	0.7043	0.079
Mof_H 	H 	0.4611	0.7102	0.7411	-0.021
Mof_C 	C 	0.3162	0.7934	0.4314	0.408
Mof_C 	C 	0.2813	0.8413	0.3582	-0.865
Mof_H 	H 	0.3048	0.8506	0.2887	0.273
Mof_H 	H 	0.2412	0.8249	0.3364	0.274
Mof_H 	H 	0.2756	0.8788	0.4033	0.27
Mof_Cu	Cu	0.75	0.06194	-0	0.873
Mof_C 	C 	0.75	0.2146	-0	-0.323
Mof_Cu	Cu	0.75	0.43806	-0	0.873
Mof_C 	C 	0.75	0.2854	-0	-0.323
Mof_Cu	Cu	0.43806	0.75	0.5	0.889
Mof_C 	C 	0.2854	0.75	0.5	-0.279
Mof_Cu	Cu	0.06194	0.75	0.5	0.888
Mof_C 	C 	0.2146	0.75	0.5	-0.279
_end
