data_functionalizedCrystal
_audit_creation_method	'EQeq! by Chris Wilmer'
_symmetry_space_group_name_H-M	'P1'
_symmetry_Int_Tables_number	1
_symmetry_cell_setting	triclinic
loop_
_symmetry_equiv_pos_as_xyz
  x,y,z
_cell_length_a	11.3356
_cell_length_b	12.1513
_cell_length_c	12.8611
_cell_angle_alpha	87.543
_cell_angle_beta	68.761
_cell_angle_gamma	71.799
loop_
_atom_site_label
_atom_site_type_symbol
_atom_site_fract_x
_atom_site_fract_y
_atom_site_fract_z
_atom_site_charge
Mof_Cd	Cd	0.65252	0.21755	0.70992	0.424
Mof_Cd	Cd	0.34748	0.78245	0.29008	0.424
Mof_H 	H 	0.5863	0.9838	0.7828	0.012
Mof_H 	H 	0.4237	0.914	0.9012	0.1
Mof_H 	H 	0.2351	0.231	0.0617	0.096
Mof_H 	H 	0.4009	0.2931	0.939	0.001
Mof_H 	H 	0.1366	0.0834	0.13	0.091
Mof_H 	H 	0.2369	0.9565	0.1078	0.1
Mof_H 	H 	0.0615	0.8822	0.1294	0.063
Mof_H 	H 	0.9625	0.0099	0.153	0.055
Mof_H 	H 	0.0034	0.1502	0.0174	0.056
Mof_H 	H 	0.1286	0.1137	0.9054	0.053
Mof_H 	H 	0.8798	0.9873	0.3762	0.136
Mof_H 	H 	0.9559	0.9032	0.4439	0.14
Mof_H 	H 	0.7855	0.8243	0.5194	0.044
Mof_H 	H 	0.8177	0.8216	0.3902	0.036
Mof_H 	H 	0.56	0.8917	0.6348	0.051
Mof_H 	H 	0.6616	0.0087	0.3301	0.052
Mof_H 	H 	0.6924	0.4396	0.9771	0.149
Mof_H 	H 	0.7469	0.5014	0.8695	0.142
Mof_H 	H 	0.89	0.3004	0.9328	0.027
Mof_H 	H 	0.9457	0.3518	0.8187	0.029
Mof_H 	H 	0.8872	0.3786	0.0975	0.044
Mof_H 	H 	0.0154	0.5314	0.8203	0.043
Mof_H 	H 	0.5523	0.2221	0.5075	0.004
Mof_H 	H 	0.4118	0.3324	0.4258	0.108
Mof_H 	H 	0.2723	0.5773	0.676	0.102
Mof_H 	H 	0.4168	0.4605	0.7518	0.005
Mof_H 	H 	0.2855	0.5651	0.4163	0.103
Mof_H 	H 	0.1838	0.6204	0.5355	0.1
Mof_H 	H 	0.1102	0.41	0.6159	0.049
Mof_H 	H 	0.0072	0.5358	0.6359	0.05
Mof_H 	H 	0.0005	0.6521	0.482	0.059
Mof_H 	H 	0.0995	0.6034	0.3598	0.059
Mof_H 	H 	0.4137	0.0162	0.2172	0.012
Mof_H 	H 	0.5763	0.086	0.0988	0.1
Mof_H 	H 	0.7649	0.769	0.9383	0.096
Mof_H 	H 	0.5991	0.7069	0.061	0.001
Mof_H 	H 	0.8634	0.9166	0.87	0.091
Mof_H 	H 	0.7631	0.0435	0.8922	0.1
Mof_H 	H 	0.9385	0.1178	0.8706	0.063
Mof_H 	H 	0.0375	0.9901	0.847	0.055
Mof_H 	H 	0.9966	0.8498	0.9826	0.056
Mof_H 	H 	0.8714	0.8863	0.0946	0.053
Mof_H 	H 	0.1202	0.0127	0.6238	0.136
Mof_H 	H 	0.0441	0.0968	0.5561	0.14
Mof_H 	H 	0.2145	0.1757	0.4806	0.044
Mof_H 	H 	0.1823	0.1784	0.6098	0.036
Mof_H 	H 	0.44	0.1083	0.3652	0.051
Mof_H 	H 	0.3384	0.9913	0.6699	0.052
Mof_H 	H 	0.3076	0.5604	0.0229	0.149
Mof_H 	H 	0.2531	0.4986	0.1305	0.142
Mof_H 	H 	0.11	0.6996	0.0672	0.027
Mof_H 	H 	0.0543	0.6482	0.1813	0.029
Mof_H 	H 	0.1128	0.6214	0.9025	0.044
Mof_H 	H 	0.9846	0.4686	0.1797	0.043
Mof_H 	H 	0.4477	0.7779	0.4925	0.004
Mof_H 	H 	0.5882	0.6676	0.5742	0.108
Mof_H 	H 	0.7277	0.4227	0.324	0.102
Mof_H 	H 	0.5832	0.5395	0.2482	0.005
Mof_H 	H 	0.7145	0.4349	0.5837	0.103
Mof_H 	H 	0.8162	0.3796	0.4645	0.1
Mof_H 	H 	0.8898	0.59	0.3841	0.049
Mof_H 	H 	0.9928	0.4642	0.3641	0.05
Mof_H 	H 	0.9995	0.3479	0.518	0.059
Mof_H 	H 	0.9005	0.3966	0.6402	0.059
Mof_C 	C 	0.514	0.0344	0.83892	0.093
Mof_C 	C 	0.4165	0.9917	0.90995	-0.185
Mof_C 	C 	0.3081	0.0653	0.99421	0.153
Mof_C 	C 	0.3049	0.1794	0.0047	-0.194
Mof_C 	C 	0.405	0.2162	0.9309	0.102
Mof_C 	C 	0.1984	0.0224	0.072	-0.19
Mof_C 	C 	0.0206	0.948	0.09481	-0.072
Mof_C 	C 	0.061	0.0868	0.96066	-0.069
Mof_C 	C 	0.8066	0.0437	0.54229	0.366
Mof_C 	C 	0.8684	0.9507	0.4461	-0.331
Mof_C 	C 	0.781	0.8727	0.458	-0.031
Mof_C 	C 	0.6358	0.93851	0.479	0.03
Mof_C 	C 	0.5366	0.9352	0.5799	-0.059
Mof_C 	C 	0.5972	0.0047	0.3987	-0.059
Mof_C 	C 	0.7036	0.3589	0.8362	0.374
Mof_C 	C 	0.7527	0.4261	0.8995	-0.363
Mof_C 	C 	0.8868	0.3723	0.8964	0.016
Mof_C 	C 	0.9427	0.4422	0.9497	0.006
Mof_C 	C 	0.9333	0.4272	0.0567	-0.057
Mof_C 	C 	0.0093	0.5176	0.8935	-0.056
Mof_C 	C 	0.4954	0.2949	0.5418	0.116
Mof_C 	C 	0.4111	0.3607	0.4922	-0.211
Mof_C 	C 	0.325	0.4692	0.54136	0.177
Mof_C 	C 	0.3289	0.5051	0.6398	-0.212
Mof_C 	C 	0.4163	0.4343	0.6851	0.111
Mof_C 	C 	0.2325	0.54772	0.4893	-0.209
Mof_C 	C 	0.0537	0.46674	0.58423	-0.059
Mof_C 	C 	0.047	0.58244	0.43118	-0.075
Mof_C 	C 	0.486	0.9656	0.16108	0.093
Mof_C 	C 	0.5835	0.0083	0.09005	-0.185
Mof_C 	C 	0.6919	0.9347	0.00579	0.153
Mof_C 	C 	0.6951	0.8206	0.9953	-0.194
Mof_C 	C 	0.595	0.7838	0.0691	0.102
Mof_C 	C 	0.8016	0.9776	0.928	-0.19
Mof_C 	C 	0.9794	0.052	0.90519	-0.072
Mof_C 	C 	0.939	0.9132	0.03934	-0.069
Mof_C 	C 	0.1934	0.9563	0.45771	0.366
Mof_C 	C 	0.1316	0.0493	0.5539	-0.331
Mof_C 	C 	0.219	0.1273	0.542	-0.031
Mof_C 	C 	0.3642	0.06149	0.521	0.03
Mof_C 	C 	0.4634	0.0648	0.4201	-0.059
Mof_C 	C 	0.4028	0.9953	0.6013	-0.059
Mof_C 	C 	0.2964	0.6411	0.1638	0.374
Mof_C 	C 	0.2473	0.5739	0.1005	-0.363
Mof_C 	C 	0.1132	0.6277	0.1036	0.016
Mof_C 	C 	0.0573	0.5578	0.0503	0.006
Mof_C 	C 	0.0667	0.5728	0.9433	-0.057
Mof_C 	C 	0.9907	0.4824	0.1065	-0.056
Mof_C 	C 	0.5046	0.7051	0.4582	0.116
Mof_C 	C 	0.5889	0.6393	0.5078	-0.211
Mof_C 	C 	0.675	0.5308	0.45864	0.177
Mof_C 	C 	0.6711	0.4949	0.3602	-0.212
Mof_C 	C 	0.5837	0.5657	0.3149	0.111
Mof_C 	C 	0.7675	0.45228	0.5107	-0.209
Mof_C 	C 	0.9463	0.53326	0.41577	-0.059
Mof_C 	C 	0.953	0.41756	0.56882	-0.075
Mof_N 	N 	0.50845	0.14565	0.84753	-0.163
Mof_N 	N 	0.12526	0.98783	0.01228	-0.07
Mof_N 	N 	0.50036	0.32983	0.63717	-0.168
Mof_N 	N 	0.13626	0.49615	0.47663	-0.069
Mof_N 	N 	0.49155	0.85435	0.15247	-0.163
Mof_N 	N 	0.87474	0.01217	0.98772	-0.07
Mof_N 	N 	0.49964	0.67017	0.36283	-0.168
Mof_N 	N 	0.86374	0.50385	0.52337	-0.069
Mof_O 	O 	0.78035	0.14934	0.52195	-0.306
Mof_O 	O 	0.77837	0.01522	0.64137	-0.298
Mof_O 	O 	0.78211	0.26228	0.78443	-0.316
Mof_O 	O 	0.58955	0.40211	0.83308	-0.305
Mof_O 	O 	0.21965	0.85066	0.47805	-0.306
Mof_O 	O 	0.22163	0.98478	0.35863	-0.298
Mof_O 	O 	0.21789	0.73772	0.21557	-0.316
Mof_O 	O 	0.41045	0.59789	0.16692	-0.305
_end
