# CIF file generated by openbabel 3.1.0, see https://openbabel.org
data_I
_chemical_name_common 'image0'
_cell_length_a 13.741
_cell_length_b 13.972
_cell_length_c 8.8045
_cell_angle_alpha 90
_cell_angle_beta 113.76
_cell_angle_gamma 90
_space_group_name_H-M_alt 'P 1'
_space_group_name_Hall 'P 1'
loop_
    _symmetry_equiv_pos_as_xyz
    x,y,z
loop_
    _atom_site_label
    _atom_site_type_symbol
    _atom_site_fract_x
    _atom_site_fract_y
    _atom_site_fract_z
    _atom_site_occupancy
    O1       O        0.09191    0.57699    0.11564    1.000
    O2       O        0.10206    0.52614    0.88489    1.000
    O3       O        0.18938    0.62701    0.73276    1.000
    H1       H        0.14720    0.58690    0.73790    1.000
    C1       C        0.12089    0.58576    0.00100    1.000
    C2       C        0.18695    0.67077    0.99850    1.000
    C3       C        0.22013    0.73456    0.13040    1.000
    H2       H        0.20020    0.72440    0.21820    1.000
    C4       C        0.21766    0.68704    0.86640    1.000
    O4       O        0.59191    0.07699    0.11564    1.000
    O5       O        0.60206    0.02614    0.88489    1.000
    O6       O        0.68938    0.12701    0.73276    1.000
    H3       H        0.64720    0.08690    0.73790    1.000
    C5       C        0.62089    0.08576    0.00100    1.000
    C6       C        0.68695    0.17077    0.99850    1.000
    C7       C        0.72013    0.23456    0.13040    1.000
    H4       H        0.70020    0.22440    0.21820    1.000
    C8       C        0.71766    0.18704    0.86640    1.000
    O7       O        0.90809    0.57699    0.38436    1.000
    O8       O        0.89794    0.52614    0.61511    1.000
    O9       O        0.81062    0.62701    0.76724    1.000
    H5       H        0.85280    0.58690    0.76210    1.000
    C9       C        0.87911    0.58576    0.49900    1.000
    C10      C        0.81305    0.67077    0.50150    1.000
    C11      C        0.77987    0.73456    0.36960    1.000
    H6       H        0.79980    0.72440    0.28180    1.000
    C12      C        0.78234    0.68704    0.63360    1.000
    O10      O        0.40809    0.07699    0.38436    1.000
    O11      O        0.39794    0.02614    0.61511    1.000
    O12      O        0.31062    0.12701    0.76724    1.000
    H7       H        0.35280    0.08690    0.76210    1.000
    C13      C        0.37911    0.08576    0.49900    1.000
    C14      C        0.31305    0.17077    0.50150    1.000
    C15      C        0.27987    0.23456    0.36960    1.000
    H8       H        0.29980    0.22440    0.28180    1.000
    C16      C        0.28234    0.18704    0.63360    1.000
    O13      O        0.90809    0.42301    0.88436    1.000
    O14      O        0.89794    0.47386    0.11511    1.000
    O15      O        0.81062    0.37299    0.26724    1.000
    H9       H        0.85280    0.41310    0.26210    1.000
    C17      C        0.87911    0.41424    0.99900    1.000
    C18      C        0.81305    0.32923    0.00150    1.000
    C19      C        0.77987    0.26544    0.86960    1.000
    H10      H        0.79980    0.27560    0.78180    1.000
    C20      C        0.78234    0.31296    0.13360    1.000
    O16      O        0.40809    0.92301    0.88436    1.000
    O17      O        0.39794    0.97386    0.11511    1.000
    O18      O        0.31062    0.87299    0.26724    1.000
    H11      H        0.35280    0.91310    0.26210    1.000
    C21      C        0.37911    0.91424    0.99900    1.000
    C22      C        0.31305    0.82923    0.00150    1.000
    C23      C        0.27987    0.76544    0.86960    1.000
    H12      H        0.29980    0.77560    0.78180    1.000
    C24      C        0.28234    0.81296    0.13360    1.000
    O19      O        0.09191    0.42301    0.61564    1.000
    O20      O        0.10206    0.47386    0.38489    1.000
    O21      O        0.18938    0.37299    0.23276    1.000
    H13      H        0.14720    0.41310    0.23790    1.000
    C25      C        0.12089    0.41424    0.50100    1.000
    C26      C        0.18695    0.32923    0.49850    1.000
    C27      C        0.22013    0.26544    0.63040    1.000
    H14      H        0.20020    0.27560    0.71820    1.000
    C28      C        0.21766    0.31296    0.36640    1.000
    O22      O        0.59191    0.92301    0.61564    1.000
    O23      O        0.60206    0.97386    0.38489    1.000
    O24      O        0.68938    0.87299    0.23276    1.000
    H15      H        0.64720    0.91310    0.23790    1.000
    C29      C        0.62089    0.91424    0.50100    1.000
    C30      C        0.68695    0.82923    0.49850    1.000
    C31      C        0.72013    0.76544    0.63040    1.000
    H16      H        0.70020    0.77560    0.71820    1.000
    C32      C        0.71766    0.81296    0.36640    1.000
    Mg1      Mg       0.00000    0.57780    0.25000    1.000
    Mg2      Mg       0.50000    0.07780    0.25000    1.000
    Mg3      Mg       0.00000    0.42220    0.75000    1.000
    Mg4      Mg       0.50000    0.92220    0.75000    1.000
