data_functionalizedCrystal
_audit_creation_method	'EQeq! by Chris Wilmer'
_symmetry_space_group_name_H-M	'P1'
_symmetry_Int_Tables_number	1
_symmetry_cell_setting	triclinic
loop_
_symmetry_equiv_pos_as_xyz
  x,y,z
_cell_length_a	35.7968
_cell_length_b	35.7968
_cell_length_c	15.045
_cell_angle_alpha	90
_cell_angle_beta	90
_cell_angle_gamma	120
loop_
_atom_site_label
_atom_site_type_symbol
_atom_site_fract_x
_atom_site_fract_y
_atom_site_fract_z
_atom_site_charge
Mof_O 	O 	0.55771	0.51916	0.58	-0.412
Mof_O 	O 	0.56398	0.51357	0.432	-0.413
Mof_C 	C 	0.5784	0.52155	0.5085	0.376
Mof_C 	C 	0.62527	0.53587	0.5215	-0.159
Mof_C 	C 	0.65237	0.5434	0.4553	0.119
Mof_H 	H 	0.6418	0.5384	0.3974	0.003
Mof_C 	C 	0.6956	0.5582	0.4683	-0.199
Mof_H 	H 	0.7131	0.562	0.4196	0.114
Mof_C 	C 	0.71307	0.56744	0.5501	0.141
Mof_C 	C 	0.68572	0.5584	0.6227	-0.176
Mof_H 	H 	0.6967	0.5629	0.6802	0.091
Mof_C 	C 	0.64122	0.54242	0.6086	0.084
Mof_H 	H 	0.6227	0.5363	0.6566	0.016
Mof_C 	C 	0.75992	0.58742	0.569	-0.081
Mof_C 	C 	0.77994	0.62609	0.6167	-0.045
Mof_H 	H 	0.7639	0.639	0.6318	0.046
Mof_H 	H 	0.7259	0.4956	0.6063	0.117
Mof_O 	O 	0.22438	0.85249	0.91333	-0.412
Mof_O 	O 	0.23065	0.8469	0.76533	-0.413
Mof_C 	C 	0.24507	0.85488	0.84183	0.376
Mof_C 	C 	0.29194	0.8692	0.85483	-0.159
Mof_C 	C 	0.31904	0.87673	0.78863	0.119
Mof_H 	H 	0.30847	0.87173	0.73073	0.003
Mof_C 	C 	0.36227	0.89153	0.80163	-0.199
Mof_H 	H 	0.37977	0.89533	0.75293	0.114
Mof_C 	C 	0.37974	0.90077	0.88343	0.141
Mof_C 	C 	0.35239	0.89173	0.95603	-0.175
Mof_H 	H 	0.36337	0.89623	0.01353	0.091
Mof_C 	C 	0.30789	0.87575	0.94193	0.084
Mof_H 	H 	0.28937	0.86963	0.98993	0.016
Mof_C 	C 	0.42659	0.92075	0.90233	-0.08
Mof_C 	C 	0.44661	0.95942	0.95003	-0.044
Mof_H 	H 	0.43057	0.97233	0.96513	0.047
Mof_H 	H 	0.39257	0.82893	0.93963	0.118
Mof_O 	O 	0.89104	0.18583	0.24667	-0.411
Mof_O 	O 	0.89731	0.18024	0.09867	-0.412
Mof_C 	C 	0.91173	0.18822	0.17517	0.377
Mof_C 	C 	0.9586	0.20254	0.18817	-0.158
Mof_C 	C 	0.9857	0.21007	0.12197	0.12
Mof_H 	H 	0.97513	0.20507	0.06407	0.004
Mof_C 	C 	0.02893	0.22487	0.13497	-0.198
Mof_H 	H 	0.04643	0.22867	0.08627	0.115
Mof_C 	C 	0.0464	0.23411	0.21677	0.142
Mof_C 	C 	0.01905	0.22507	0.28937	-0.175
Mof_H 	H 	0.03003	0.22957	0.34687	0.092
Mof_C 	C 	0.97455	0.20909	0.27527	0.086
Mof_H 	H 	0.95603	0.20297	0.32327	0.017
Mof_C 	C 	0.09325	0.25409	0.23567	-0.08
Mof_C 	C 	0.11327	0.29276	0.28337	-0.044
Mof_H 	H 	0.09723	0.30567	0.29847	0.047
Mof_H 	H 	0.05923	0.16227	0.27297	0.118
Mof_O 	O 	0.48084	0.03855	0.58	-0.411
Mof_O 	O 	0.48643	0.05041	0.432	-0.412
Mof_C 	C 	0.47845	0.05685	0.5085	0.377
Mof_C 	C 	0.46413	0.0894	0.5215	-0.158
Mof_C 	C 	0.4566	0.10897	0.4553	0.12
Mof_H 	H 	0.4616	0.1034	0.3974	0.004
Mof_C 	C 	0.4418	0.1374	0.4683	-0.198
Mof_H 	H 	0.438	0.1511	0.4196	0.115
Mof_C 	C 	0.43256	0.14563	0.5501	0.142
Mof_C 	C 	0.4416	0.12732	0.6227	-0.175
Mof_H 	H 	0.4371	0.1338	0.6802	0.092
Mof_C 	C 	0.45758	0.0988	0.6086	0.085
Mof_H 	H 	0.4637	0.0864	0.6566	0.017
Mof_C 	C 	0.41258	0.1725	0.569	-0.08
Mof_C 	C 	0.37391	0.15385	0.6167	-0.044
Mof_H 	H 	0.361	0.1249	0.6318	0.047
Mof_H 	H 	0.5044	0.2303	0.6063	0.118
Mof_O 	O 	0.14751	0.37188	0.91333	-0.411
Mof_O 	O 	0.1531	0.38374	0.76533	-0.412
Mof_C 	C 	0.14512	0.39018	0.84183	0.377
Mof_C 	C 	0.1308	0.42273	0.85483	-0.158
Mof_C 	C 	0.12327	0.4423	0.78863	0.12
Mof_H 	H 	0.12827	0.43673	0.73073	0.004
Mof_C 	C 	0.10847	0.47073	0.80163	-0.198
Mof_H 	H 	0.10467	0.48443	0.75293	0.115
Mof_C 	C 	0.09923	0.47896	0.88343	0.142
Mof_C 	C 	0.10827	0.46065	0.95603	-0.174
Mof_H 	H 	0.10377	0.46713	0.01353	0.092
Mof_C 	C 	0.12425	0.43213	0.94193	0.085
Mof_H 	H 	0.13037	0.41973	0.98993	0.017
Mof_C 	C 	0.07925	0.50583	0.90233	-0.08
Mof_C 	C 	0.04058	0.48718	0.95003	-0.044
Mof_H 	H 	0.02767	0.45823	0.96513	0.047
Mof_H 	H 	0.17107	0.56363	0.93963	0.118
Mof_O 	O 	0.81417	0.70522	0.24667	-0.411
Mof_O 	O 	0.81976	0.71708	0.09867	-0.412
Mof_C 	C 	0.81178	0.72352	0.17517	0.377
Mof_C 	C 	0.79746	0.75607	0.18817	-0.158
Mof_C 	C 	0.78993	0.77564	0.12197	0.12
Mof_H 	H 	0.79493	0.77007	0.06407	0.004
Mof_C 	C 	0.77513	0.80407	0.13497	-0.198
Mof_H 	H 	0.77133	0.81777	0.08627	0.115
Mof_C 	C 	0.76589	0.8123	0.21677	0.142
Mof_C 	C 	0.77493	0.79399	0.28937	-0.175
Mof_H 	H 	0.77043	0.80047	0.34687	0.092
Mof_C 	C 	0.79091	0.76547	0.27527	0.085
Mof_H 	H 	0.79703	0.75307	0.32327	0.017
Mof_C 	C 	0.74591	0.83917	0.23567	-0.08
Mof_C 	C 	0.70724	0.82052	0.28337	-0.043
Mof_H 	H 	0.69433	0.79157	0.29847	0.047
Mof_H 	H 	0.83773	0.89697	0.27297	0.118
Mof_O 	O 	0.96145	0.44229	0.58	-0.411
Mof_O 	O 	0.94959	0.43602	0.432	-0.412
Mof_C 	C 	0.94315	0.4216	0.5085	0.377
Mof_C 	C 	0.9106	0.37473	0.5215	-0.158
Mof_C 	C 	0.89103	0.34763	0.4553	0.12
Mof_H 	H 	0.8966	0.3582	0.3974	0.004
Mof_C 	C 	0.8626	0.3044	0.4683	-0.198
Mof_H 	H 	0.8489	0.2869	0.4196	0.115
Mof_C 	C 	0.85437	0.28693	0.5501	0.142
Mof_C 	C 	0.87268	0.31428	0.6227	-0.175
Mof_H 	H 	0.8662	0.3033	0.6802	0.092
Mof_C 	C 	0.9012	0.35878	0.6086	0.085
Mof_H 	H 	0.9136	0.3773	0.6566	0.017
Mof_C 	C 	0.8275	0.24008	0.569	-0.08
Mof_C 	C 	0.84615	0.22006	0.6167	-0.043
Mof_H 	H 	0.8751	0.2361	0.6318	0.047
Mof_H 	H 	0.7697	0.2741	0.6063	0.117
Mof_O 	O 	0.62812	0.77562	0.91333	-0.411
Mof_O 	O 	0.61626	0.76935	0.76533	-0.412
Mof_C 	C 	0.60982	0.75493	0.84183	0.377
Mof_C 	C 	0.57727	0.70806	0.85483	-0.158
Mof_C 	C 	0.5577	0.68096	0.78863	0.12
Mof_H 	H 	0.56327	0.69153	0.73073	0.004
Mof_C 	C 	0.52927	0.63773	0.80163	-0.198
Mof_H 	H 	0.51557	0.62023	0.75293	0.115
Mof_C 	C 	0.52104	0.62026	0.88343	0.142
Mof_C 	C 	0.53935	0.64761	0.95603	-0.174
Mof_H 	H 	0.53287	0.63663	0.01353	0.092
Mof_C 	C 	0.56787	0.69211	0.94193	0.085
Mof_H 	H 	0.58027	0.71063	0.98993	0.017
Mof_C 	C 	0.49417	0.57341	0.90233	-0.08
Mof_C 	C 	0.51282	0.55339	0.95003	-0.044
Mof_H 	H 	0.54177	0.56943	0.96513	0.047
Mof_H 	H 	0.43637	0.60743	0.93963	0.118
Mof_O 	O 	0.29478	0.10896	0.24667	-0.411
Mof_O 	O 	0.28292	0.10269	0.09867	-0.412
Mof_C 	C 	0.27648	0.08827	0.17517	0.377
Mof_C 	C 	0.24393	0.0414	0.18817	-0.158
Mof_C 	C 	0.22436	0.0143	0.12197	0.12
Mof_H 	H 	0.22993	0.02487	0.06407	0.004
Mof_C 	C 	0.19593	0.97107	0.13497	-0.198
Mof_H 	H 	0.18223	0.95357	0.08627	0.115
Mof_C 	C 	0.1877	0.9536	0.21677	0.142
Mof_C 	C 	0.20601	0.98095	0.28937	-0.175
Mof_H 	H 	0.19953	0.96997	0.34687	0.092
Mof_C 	C 	0.23453	0.02545	0.27527	0.085
Mof_H 	H 	0.24693	0.04397	0.32327	0.017
Mof_C 	C 	0.16083	0.90675	0.23567	-0.08
Mof_C 	C 	0.17948	0.88673	0.28337	-0.044
Mof_H 	H 	0.20843	0.90277	0.29847	0.047
Mof_H 	H 	0.10303	0.94077	0.27297	0.118
Mof_O 	O 	0.51916	0.55771	0.42	-0.411
Mof_O 	O 	0.51357	0.56398	0.568	-0.412
Mof_C 	C 	0.52155	0.5784	0.4915	0.377
Mof_C 	C 	0.53587	0.62527	0.4785	-0.158
Mof_C 	C 	0.5434	0.65237	0.5447	0.12
Mof_H 	H 	0.5384	0.6418	0.6026	0.004
Mof_C 	C 	0.5582	0.6956	0.5317	-0.198
Mof_H 	H 	0.562	0.7131	0.5804	0.115
Mof_C 	C 	0.56744	0.71307	0.4499	0.142
Mof_C 	C 	0.5584	0.68572	0.3773	-0.175
Mof_H 	H 	0.5629	0.6967	0.3198	0.092
Mof_C 	C 	0.54242	0.64122	0.3914	0.085
Mof_H 	H 	0.5363	0.6227	0.3434	0.017
Mof_C 	C 	0.58742	0.75992	0.431	-0.08
Mof_C 	C 	0.62609	0.77994	0.3833	-0.044
Mof_H 	H 	0.639	0.7639	0.3682	0.047
Mof_H 	H 	0.4956	0.7259	0.3937	0.118
Mof_O 	O 	0.18583	0.89104	0.75333	-0.411
Mof_O 	O 	0.18024	0.89731	0.90133	-0.412
Mof_C 	C 	0.18822	0.91173	0.82483	0.377
Mof_C 	C 	0.20254	0.9586	0.81183	-0.158
Mof_C 	C 	0.21007	0.9857	0.87803	0.12
Mof_H 	H 	0.20507	0.97513	0.93593	0.004
Mof_C 	C 	0.22487	0.02893	0.86503	-0.198
Mof_H 	H 	0.22867	0.04643	0.91373	0.115
Mof_C 	C 	0.23411	0.0464	0.78323	0.142
Mof_C 	C 	0.22507	0.01905	0.71063	-0.175
Mof_H 	H 	0.22957	0.03003	0.65313	0.092
Mof_C 	C 	0.20909	0.97455	0.72473	0.086
Mof_H 	H 	0.20297	0.95603	0.67673	0.017
Mof_C 	C 	0.25409	0.09325	0.76433	-0.08
Mof_C 	C 	0.29276	0.11327	0.71663	-0.044
Mof_H 	H 	0.30567	0.09723	0.70153	0.047
Mof_H 	H 	0.16227	0.05923	0.72703	0.118
Mof_O 	O 	0.85249	0.22438	0.08667	-0.411
Mof_O 	O 	0.8469	0.23065	0.23467	-0.412
Mof_C 	C 	0.85488	0.24507	0.15817	0.377
Mof_C 	C 	0.8692	0.29194	0.14517	-0.158
Mof_C 	C 	0.87673	0.31904	0.21137	0.12
Mof_H 	H 	0.87173	0.30847	0.26927	0.004
Mof_C 	C 	0.89153	0.36227	0.19837	-0.198
Mof_H 	H 	0.89533	0.37977	0.24707	0.115
Mof_C 	C 	0.90077	0.37974	0.11657	0.142
Mof_C 	C 	0.89173	0.35239	0.04397	-0.174
Mof_H 	H 	0.89623	0.36337	0.98647	0.092
Mof_C 	C 	0.87575	0.30789	0.05807	0.085
Mof_H 	H 	0.86963	0.28937	0.01007	0.017
Mof_C 	C 	0.92075	0.42659	0.09767	-0.08
Mof_C 	C 	0.95942	0.44661	0.04997	-0.044
Mof_H 	H 	0.97233	0.43057	0.03487	0.047
Mof_H 	H 	0.82893	0.39257	0.06037	0.118
Mof_O 	O 	0.03855	0.48084	0.42	-0.411
Mof_O 	O 	0.05041	0.48643	0.568	-0.412
Mof_C 	C 	0.05685	0.47845	0.4915	0.377
Mof_C 	C 	0.0894	0.46413	0.4785	-0.158
Mof_C 	C 	0.10897	0.4566	0.5447	0.12
Mof_H 	H 	0.1034	0.4616	0.6026	0.004
Mof_C 	C 	0.1374	0.4418	0.5317	-0.198
Mof_H 	H 	0.1511	0.438	0.5804	0.115
Mof_C 	C 	0.14563	0.43256	0.4499	0.142
Mof_C 	C 	0.12732	0.4416	0.3773	-0.175
Mof_H 	H 	0.1338	0.4371	0.3198	0.092
Mof_C 	C 	0.0988	0.45758	0.3914	0.085
Mof_H 	H 	0.0864	0.4637	0.3434	0.017
Mof_C 	C 	0.1725	0.41258	0.431	-0.08
Mof_C 	C 	0.15385	0.37391	0.3833	-0.044
Mof_H 	H 	0.1249	0.361	0.3682	0.047
Mof_H 	H 	0.2303	0.5044	0.3937	0.118
Mof_O 	O 	0.70522	0.81417	0.75333	-0.411
Mof_O 	O 	0.71708	0.81976	0.90133	-0.412
Mof_C 	C 	0.72352	0.81178	0.82483	0.377
Mof_C 	C 	0.75607	0.79746	0.81183	-0.158
Mof_C 	C 	0.77564	0.78993	0.87803	0.12
Mof_H 	H 	0.77007	0.79493	0.93593	0.004
Mof_C 	C 	0.80407	0.77513	0.86503	-0.198
Mof_H 	H 	0.81777	0.77133	0.91373	0.115
Mof_C 	C 	0.8123	0.76589	0.78323	0.142
Mof_C 	C 	0.79399	0.77493	0.71063	-0.175
Mof_H 	H 	0.80047	0.77043	0.65313	0.092
Mof_C 	C 	0.76547	0.79091	0.72473	0.085
Mof_H 	H 	0.75307	0.79703	0.67673	0.017
Mof_C 	C 	0.83917	0.74591	0.76433	-0.08
Mof_C 	C 	0.82052	0.70724	0.71663	-0.043
Mof_H 	H 	0.79157	0.69433	0.70153	0.047
Mof_H 	H 	0.89697	0.83773	0.72703	0.118
Mof_O 	O 	0.37188	0.14751	0.08667	-0.411
Mof_O 	O 	0.38374	0.1531	0.23467	-0.412
Mof_C 	C 	0.39018	0.14512	0.15817	0.377
Mof_C 	C 	0.42273	0.1308	0.14517	-0.158
Mof_C 	C 	0.4423	0.12327	0.21137	0.12
Mof_H 	H 	0.43673	0.12827	0.26927	0.004
Mof_C 	C 	0.47073	0.10847	0.19837	-0.198
Mof_H 	H 	0.48443	0.10467	0.24707	0.115
Mof_C 	C 	0.47896	0.09923	0.11657	0.142
Mof_C 	C 	0.46065	0.10827	0.04397	-0.174
Mof_H 	H 	0.46713	0.10377	0.98647	0.092
Mof_C 	C 	0.43213	0.12425	0.05807	0.085
Mof_H 	H 	0.41973	0.13037	0.01007	0.017
Mof_C 	C 	0.50583	0.07925	0.09767	-0.08
Mof_C 	C 	0.48718	0.04058	0.04997	-0.044
Mof_H 	H 	0.45823	0.02767	0.03487	0.047
Mof_H 	H 	0.56363	0.17107	0.06037	0.118
Mof_O 	O 	0.44229	0.96145	0.42	-0.411
Mof_O 	O 	0.43602	0.94959	0.568	-0.412
Mof_C 	C 	0.4216	0.94315	0.4915	0.377
Mof_C 	C 	0.37473	0.9106	0.4785	-0.158
Mof_C 	C 	0.34763	0.89103	0.5447	0.12
Mof_H 	H 	0.3582	0.8966	0.6026	0.004
Mof_C 	C 	0.3044	0.8626	0.5317	-0.198
Mof_H 	H 	0.2869	0.8489	0.5804	0.115
Mof_C 	C 	0.28693	0.85437	0.4499	0.142
Mof_C 	C 	0.31428	0.87268	0.3773	-0.175
Mof_H 	H 	0.3033	0.8662	0.3198	0.092
Mof_C 	C 	0.35878	0.9012	0.3914	0.085
Mof_H 	H 	0.3773	0.9136	0.3434	0.017
Mof_C 	C 	0.24008	0.8275	0.431	-0.08
Mof_C 	C 	0.22006	0.84615	0.3833	-0.043
Mof_H 	H 	0.2361	0.8751	0.3682	0.047
Mof_H 	H 	0.2741	0.7697	0.3937	0.117
Mof_O 	O 	0.10896	0.29478	0.75333	-0.411
Mof_O 	O 	0.10269	0.28292	0.90133	-0.412
Mof_C 	C 	0.08827	0.27648	0.82483	0.377
Mof_C 	C 	0.0414	0.24393	0.81183	-0.158
Mof_C 	C 	0.0143	0.22436	0.87803	0.12
Mof_H 	H 	0.02487	0.22993	0.93593	0.004
Mof_C 	C 	0.97107	0.19593	0.86503	-0.198
Mof_H 	H 	0.95357	0.18223	0.91373	0.115
Mof_C 	C 	0.9536	0.1877	0.78323	0.142
Mof_C 	C 	0.98095	0.20601	0.71063	-0.175
Mof_H 	H 	0.96997	0.19953	0.65313	0.092
Mof_C 	C 	0.02545	0.23453	0.72473	0.085
Mof_H 	H 	0.04397	0.24693	0.67673	0.017
Mof_C 	C 	0.90675	0.16083	0.76433	-0.08
Mof_C 	C 	0.88673	0.17948	0.71663	-0.044
Mof_H 	H 	0.90277	0.20843	0.70153	0.047
Mof_H 	H 	0.94077	0.10303	0.72703	0.118
Mof_O 	O 	0.77562	0.62812	0.08667	-0.411
Mof_O 	O 	0.76935	0.61626	0.23467	-0.412
Mof_C 	C 	0.75493	0.60982	0.15817	0.377
Mof_C 	C 	0.70806	0.57727	0.14517	-0.158
Mof_C 	C 	0.68096	0.5577	0.21137	0.12
Mof_H 	H 	0.69153	0.56327	0.26927	0.004
Mof_C 	C 	0.63773	0.52927	0.19837	-0.198
Mof_H 	H 	0.62023	0.51557	0.24707	0.115
Mof_C 	C 	0.62026	0.52104	0.11657	0.142
Mof_C 	C 	0.64761	0.53935	0.04397	-0.174
Mof_H 	H 	0.63663	0.53287	0.98647	0.092
Mof_C 	C 	0.69211	0.56787	0.05807	0.085
Mof_H 	H 	0.71063	0.58027	0.01007	0.017
Mof_C 	C 	0.57341	0.49417	0.09767	-0.08
Mof_C 	C 	0.55339	0.51282	0.04997	-0.044
Mof_H 	H 	0.56943	0.54177	0.03487	0.047
Mof_H 	H 	0.60743	0.43637	0.06037	0.118
Mof_O 	O 	0.44229	0.48084	0.42	-0.411
Mof_O 	O 	0.43602	0.48643	0.568	-0.412
Mof_C 	C 	0.4216	0.47845	0.4915	0.377
Mof_C 	C 	0.37473	0.46413	0.4785	-0.158
Mof_C 	C 	0.34763	0.4566	0.5447	0.12
Mof_H 	H 	0.3582	0.4616	0.6026	0.004
Mof_C 	C 	0.3044	0.4418	0.5317	-0.198
Mof_H 	H 	0.2869	0.438	0.5804	0.115
Mof_C 	C 	0.28693	0.43256	0.4499	0.142
Mof_C 	C 	0.31428	0.4416	0.3773	-0.175
Mof_H 	H 	0.3033	0.4371	0.3198	0.092
Mof_C 	C 	0.35878	0.45758	0.3914	0.085
Mof_H 	H 	0.3773	0.4637	0.3434	0.017
Mof_C 	C 	0.24008	0.41258	0.431	-0.08
Mof_C 	C 	0.22006	0.37391	0.3833	-0.044
Mof_H 	H 	0.2361	0.361	0.3682	0.047
Mof_H 	H 	0.2741	0.5044	0.3937	0.118
Mof_O 	O 	0.10896	0.81417	0.75333	-0.411
Mof_O 	O 	0.10269	0.81976	0.90133	-0.412
Mof_C 	C 	0.08827	0.81178	0.82483	0.377
Mof_C 	C 	0.0414	0.79746	0.81183	-0.158
Mof_C 	C 	0.0143	0.78993	0.87803	0.12
Mof_H 	H 	0.02487	0.79493	0.93593	0.004
Mof_C 	C 	0.97107	0.77513	0.86503	-0.198
Mof_H 	H 	0.95357	0.77133	0.91373	0.115
Mof_C 	C 	0.9536	0.76589	0.78323	0.142
Mof_C 	C 	0.98095	0.77493	0.71063	-0.175
Mof_H 	H 	0.96997	0.77043	0.65313	0.092
Mof_C 	C 	0.02545	0.79091	0.72473	0.086
Mof_H 	H 	0.04397	0.79703	0.67673	0.017
Mof_C 	C 	0.90675	0.74591	0.76433	-0.08
Mof_C 	C 	0.88673	0.70724	0.71663	-0.044
Mof_H 	H 	0.90277	0.69433	0.70153	0.047
Mof_H 	H 	0.94077	0.83773	0.72703	0.118
Mof_O 	O 	0.77562	0.14751	0.08667	-0.411
Mof_O 	O 	0.76935	0.1531	0.23467	-0.412
Mof_C 	C 	0.75493	0.14512	0.15817	0.377
Mof_C 	C 	0.70806	0.1308	0.14517	-0.158
Mof_C 	C 	0.68096	0.12327	0.21137	0.12
Mof_H 	H 	0.69153	0.12827	0.26927	0.004
Mof_C 	C 	0.63773	0.10847	0.19837	-0.198
Mof_H 	H 	0.62023	0.10467	0.24707	0.115
Mof_C 	C 	0.62026	0.09923	0.11657	0.142
Mof_C 	C 	0.64761	0.10827	0.04397	-0.174
Mof_H 	H 	0.63663	0.10377	0.98647	0.092
Mof_C 	C 	0.69211	0.12425	0.05807	0.085
Mof_H 	H 	0.71063	0.13037	0.01007	0.017
Mof_C 	C 	0.57341	0.07925	0.09767	-0.08
Mof_C 	C 	0.55339	0.04058	0.04997	-0.044
Mof_H 	H 	0.56943	0.02767	0.03487	0.047
Mof_H 	H 	0.60743	0.17107	0.06037	0.118
Mof_O 	O 	0.51916	0.96145	0.42	-0.411
Mof_O 	O 	0.51357	0.94959	0.568	-0.412
Mof_C 	C 	0.52155	0.94315	0.4915	0.377
Mof_C 	C 	0.53587	0.9106	0.4785	-0.158
Mof_C 	C 	0.5434	0.89103	0.5447	0.12
Mof_H 	H 	0.5384	0.8966	0.6026	0.004
Mof_C 	C 	0.5582	0.8626	0.5317	-0.198
Mof_H 	H 	0.562	0.8489	0.5804	0.115
Mof_C 	C 	0.56744	0.85437	0.4499	0.142
Mof_C 	C 	0.5584	0.87268	0.3773	-0.175
Mof_H 	H 	0.5629	0.8662	0.3198	0.092
Mof_C 	C 	0.54242	0.9012	0.3914	0.085
Mof_H 	H 	0.5363	0.9136	0.3434	0.017
Mof_C 	C 	0.58742	0.8275	0.431	-0.08
Mof_C 	C 	0.62609	0.84615	0.3833	-0.044
Mof_H 	H 	0.639	0.8751	0.3682	0.047
Mof_H 	H 	0.4956	0.7697	0.3937	0.118
Mof_O 	O 	0.18583	0.29478	0.75333	-0.411
Mof_O 	O 	0.18024	0.28292	0.90133	-0.412
Mof_C 	C 	0.18822	0.27648	0.82483	0.377
Mof_C 	C 	0.20254	0.24393	0.81183	-0.158
Mof_C 	C 	0.21007	0.22436	0.87803	0.12
Mof_H 	H 	0.20507	0.22993	0.93593	0.004
Mof_C 	C 	0.22487	0.19593	0.86503	-0.198
Mof_H 	H 	0.22867	0.18223	0.91373	0.115
Mof_C 	C 	0.23411	0.1877	0.78323	0.142
Mof_C 	C 	0.22507	0.20601	0.71063	-0.175
Mof_H 	H 	0.22957	0.19953	0.65313	0.092
Mof_C 	C 	0.20909	0.23453	0.72473	0.085
Mof_H 	H 	0.20297	0.24693	0.67673	0.017
Mof_C 	C 	0.25409	0.16083	0.76433	-0.08
Mof_C 	C 	0.29276	0.17948	0.71663	-0.043
Mof_H 	H 	0.30567	0.20843	0.70153	0.047
Mof_H 	H 	0.16227	0.10303	0.72703	0.118
Mof_O 	O 	0.85249	0.62812	0.08667	-0.411
Mof_O 	O 	0.8469	0.61626	0.23467	-0.412
Mof_C 	C 	0.85488	0.60982	0.15817	0.377
Mof_C 	C 	0.8692	0.57727	0.14517	-0.158
Mof_C 	C 	0.87673	0.5577	0.21137	0.12
Mof_H 	H 	0.87173	0.56327	0.26927	0.004
Mof_C 	C 	0.89153	0.52927	0.19837	-0.198
Mof_H 	H 	0.89533	0.51557	0.24707	0.115
Mof_C 	C 	0.90077	0.52104	0.11657	0.142
Mof_C 	C 	0.89173	0.53935	0.04397	-0.174
Mof_H 	H 	0.89623	0.53287	0.98647	0.092
Mof_C 	C 	0.87575	0.56787	0.05807	0.085
Mof_H 	H 	0.86963	0.58027	0.01007	0.017
Mof_C 	C 	0.92075	0.49417	0.09767	-0.08
Mof_C 	C 	0.95942	0.51282	0.04997	-0.044
Mof_H 	H 	0.97233	0.54177	0.03487	0.047
Mof_H 	H 	0.82893	0.43637	0.06037	0.118
Mof_O 	O 	0.03855	0.55771	0.42	-0.411
Mof_O 	O 	0.05041	0.56398	0.568	-0.412
Mof_C 	C 	0.05685	0.5784	0.4915	0.377
Mof_C 	C 	0.0894	0.62527	0.4785	-0.158
Mof_C 	C 	0.10897	0.65237	0.5447	0.12
Mof_H 	H 	0.1034	0.6418	0.6026	0.004
Mof_C 	C 	0.1374	0.6956	0.5317	-0.198
Mof_H 	H 	0.1511	0.7131	0.5804	0.115
Mof_C 	C 	0.14563	0.71307	0.4499	0.142
Mof_C 	C 	0.12732	0.68572	0.3773	-0.175
Mof_H 	H 	0.1338	0.6967	0.3198	0.092
Mof_C 	C 	0.0988	0.64122	0.3914	0.085
Mof_H 	H 	0.0864	0.6227	0.3434	0.017
Mof_C 	C 	0.1725	0.75992	0.431	-0.08
Mof_C 	C 	0.15385	0.77994	0.3833	-0.043
Mof_H 	H 	0.1249	0.7639	0.3682	0.047
Mof_H 	H 	0.2303	0.7259	0.3937	0.117
Mof_O 	O 	0.70522	0.89104	0.75333	-0.411
Mof_O 	O 	0.71708	0.89731	0.90133	-0.412
Mof_C 	C 	0.72352	0.91173	0.82483	0.377
Mof_C 	C 	0.75607	0.9586	0.81183	-0.158
Mof_C 	C 	0.77564	0.9857	0.87803	0.12
Mof_H 	H 	0.77007	0.97513	0.93593	0.004
Mof_C 	C 	0.80407	0.02893	0.86503	-0.198
Mof_H 	H 	0.81777	0.04643	0.91373	0.115
Mof_C 	C 	0.8123	0.0464	0.78323	0.142
Mof_C 	C 	0.79399	0.01905	0.71063	-0.175
Mof_H 	H 	0.80047	0.03003	0.65313	0.092
Mof_C 	C 	0.76547	0.97455	0.72473	0.085
Mof_H 	H 	0.75307	0.95603	0.67673	0.017
Mof_C 	C 	0.83917	0.09325	0.76433	-0.08
Mof_C 	C 	0.82052	0.11327	0.71663	-0.044
Mof_H 	H 	0.79157	0.09723	0.70153	0.047
Mof_H 	H 	0.89697	0.05923	0.72703	0.118
Mof_O 	O 	0.37188	0.22438	0.08667	-0.411
Mof_O 	O 	0.38374	0.23065	0.23467	-0.412
Mof_C 	C 	0.39018	0.24507	0.15817	0.377
Mof_C 	C 	0.42273	0.29194	0.14517	-0.158
Mof_C 	C 	0.4423	0.31904	0.21137	0.12
Mof_H 	H 	0.43673	0.30847	0.26927	0.004
Mof_C 	C 	0.47073	0.36227	0.19837	-0.198
Mof_H 	H 	0.48443	0.37977	0.24707	0.115
Mof_C 	C 	0.47896	0.37974	0.11657	0.142
Mof_C 	C 	0.46065	0.35239	0.04397	-0.174
Mof_H 	H 	0.46713	0.36337	0.98647	0.092
Mof_C 	C 	0.43213	0.30789	0.05807	0.085
Mof_H 	H 	0.41973	0.28937	0.01007	0.017
Mof_C 	C 	0.50583	0.42659	0.09767	-0.08
Mof_C 	C 	0.48718	0.44661	0.04997	-0.044
Mof_H 	H 	0.45823	0.43057	0.03487	0.047
Mof_H 	H 	0.56363	0.39257	0.06037	0.118
Mof_O 	O 	0.48084	0.44229	0.58	-0.411
Mof_O 	O 	0.48643	0.43602	0.432	-0.412
Mof_C 	C 	0.47845	0.4216	0.5085	0.377
Mof_C 	C 	0.46413	0.37473	0.5215	-0.158
Mof_C 	C 	0.4566	0.34763	0.4553	0.12
Mof_H 	H 	0.4616	0.3582	0.3974	0.004
Mof_C 	C 	0.4418	0.3044	0.4683	-0.198
Mof_H 	H 	0.438	0.2869	0.4196	0.115
Mof_C 	C 	0.43256	0.28693	0.5501	0.142
Mof_C 	C 	0.4416	0.31428	0.6227	-0.175
Mof_H 	H 	0.4371	0.3033	0.6802	0.092
Mof_C 	C 	0.45758	0.35878	0.6086	0.085
Mof_H 	H 	0.4637	0.3773	0.6566	0.017
Mof_C 	C 	0.41258	0.24008	0.569	-0.08
Mof_C 	C 	0.37391	0.22006	0.6167	-0.044
Mof_H 	H 	0.361	0.2361	0.6318	0.047
Mof_H 	H 	0.5044	0.2741	0.6063	0.118
Mof_O 	O 	0.14751	0.77562	0.91333	-0.411
Mof_O 	O 	0.1531	0.76935	0.76533	-0.412
Mof_C 	C 	0.14512	0.75493	0.84183	0.377
Mof_C 	C 	0.1308	0.70806	0.85483	-0.158
Mof_C 	C 	0.12327	0.68096	0.78863	0.12
Mof_H 	H 	0.12827	0.69153	0.73073	0.004
Mof_C 	C 	0.10847	0.63773	0.80163	-0.198
Mof_H 	H 	0.10467	0.62023	0.75293	0.115
Mof_C 	C 	0.09923	0.62026	0.88343	0.142
Mof_C 	C 	0.10827	0.64761	0.95603	-0.174
Mof_H 	H 	0.10377	0.63663	0.01353	0.092
Mof_C 	C 	0.12425	0.69211	0.94193	0.085
Mof_H 	H 	0.13037	0.71063	0.98993	0.017
Mof_C 	C 	0.07925	0.57341	0.90233	-0.08
Mof_C 	C 	0.04058	0.55339	0.95003	-0.044
Mof_H 	H 	0.02767	0.56943	0.96513	0.047
Mof_H 	H 	0.17107	0.60743	0.93963	0.118
Mof_O 	O 	0.81417	0.10896	0.24667	-0.411
Mof_O 	O 	0.81976	0.10269	0.09867	-0.412
Mof_C 	C 	0.81178	0.08827	0.17517	0.377
Mof_C 	C 	0.79746	0.0414	0.18817	-0.158
Mof_C 	C 	0.78993	0.0143	0.12197	0.12
Mof_H 	H 	0.79493	0.02487	0.06407	0.004
Mof_C 	C 	0.77513	0.97107	0.13497	-0.198
Mof_H 	H 	0.77133	0.95357	0.08627	0.115
Mof_C 	C 	0.76589	0.9536	0.21677	0.142
Mof_C 	C 	0.77493	0.98095	0.28937	-0.175
Mof_H 	H 	0.77043	0.96997	0.34687	0.092
Mof_C 	C 	0.79091	0.02545	0.27527	0.086
Mof_H 	H 	0.79703	0.04397	0.32327	0.017
Mof_C 	C 	0.74591	0.90675	0.23567	-0.08
Mof_C 	C 	0.70724	0.88673	0.28337	-0.044
Mof_H 	H 	0.69433	0.90277	0.29847	0.047
Mof_H 	H 	0.83773	0.94077	0.27297	0.118
Mof_O 	O 	0.96145	0.51916	0.58	-0.411
Mof_O 	O 	0.94959	0.51357	0.432	-0.412
Mof_C 	C 	0.94315	0.52155	0.5085	0.377
Mof_C 	C 	0.9106	0.53587	0.5215	-0.158
Mof_C 	C 	0.89103	0.5434	0.4553	0.12
Mof_H 	H 	0.8966	0.5384	0.3974	0.004
Mof_C 	C 	0.8626	0.5582	0.4683	-0.198
Mof_H 	H 	0.8489	0.562	0.4196	0.115
Mof_C 	C 	0.85437	0.56744	0.5501	0.142
Mof_C 	C 	0.87268	0.5584	0.6227	-0.175
Mof_H 	H 	0.8662	0.5629	0.6802	0.092
Mof_C 	C 	0.9012	0.54242	0.6086	0.085
Mof_H 	H 	0.9136	0.5363	0.6566	0.017
Mof_C 	C 	0.8275	0.58742	0.569	-0.08
Mof_C 	C 	0.84615	0.62609	0.6167	-0.044
Mof_H 	H 	0.8751	0.639	0.6318	0.047
Mof_H 	H 	0.7697	0.4956	0.6063	0.118
Mof_O 	O 	0.62812	0.85249	0.91333	-0.411
Mof_O 	O 	0.61626	0.8469	0.76533	-0.412
Mof_C 	C 	0.60982	0.85488	0.84183	0.377
Mof_C 	C 	0.57727	0.8692	0.85483	-0.158
Mof_C 	C 	0.5577	0.87673	0.78863	0.12
Mof_H 	H 	0.56327	0.87173	0.73073	0.004
Mof_C 	C 	0.52927	0.89153	0.80163	-0.198
Mof_H 	H 	0.51557	0.89533	0.75293	0.115
Mof_C 	C 	0.52104	0.90077	0.88343	0.142
Mof_C 	C 	0.53935	0.89173	0.95603	-0.174
Mof_H 	H 	0.53287	0.89623	0.01353	0.092
Mof_C 	C 	0.56787	0.87575	0.94193	0.085
Mof_H 	H 	0.58027	0.86963	0.98993	0.017
Mof_C 	C 	0.49417	0.92075	0.90233	-0.08
Mof_C 	C 	0.51282	0.95942	0.95003	-0.044
Mof_H 	H 	0.54177	0.97233	0.96513	0.047
Mof_H 	H 	0.43637	0.82893	0.93963	0.118
Mof_O 	O 	0.29478	0.18583	0.24667	-0.411
Mof_O 	O 	0.28292	0.18024	0.09867	-0.412
Mof_C 	C 	0.27648	0.18822	0.17517	0.377
Mof_C 	C 	0.24393	0.20254	0.18817	-0.158
Mof_C 	C 	0.22436	0.21007	0.12197	0.12
Mof_H 	H 	0.22993	0.20507	0.06407	0.004
Mof_C 	C 	0.19593	0.22487	0.13497	-0.198
Mof_H 	H 	0.18223	0.22867	0.08627	0.115
Mof_C 	C 	0.1877	0.23411	0.21677	0.142
Mof_C 	C 	0.20601	0.22507	0.28937	-0.175
Mof_H 	H 	0.19953	0.22957	0.34687	0.092
Mof_C 	C 	0.23453	0.20909	0.27527	0.085
Mof_H 	H 	0.24693	0.20297	0.32327	0.017
Mof_C 	C 	0.16083	0.25409	0.23567	-0.08
Mof_C 	C 	0.17948	0.29276	0.28337	-0.043
Mof_H 	H 	0.20843	0.30567	0.29847	0.047
Mof_H 	H 	0.10303	0.16227	0.27297	0.118
Mof_O 	O 	0.55771	0.03855	0.58	-0.411
Mof_O 	O 	0.56398	0.05041	0.432	-0.412
Mof_C 	C 	0.5784	0.05685	0.5085	0.377
Mof_C 	C 	0.62527	0.0894	0.5215	-0.158
Mof_C 	C 	0.65237	0.10897	0.4553	0.12
Mof_H 	H 	0.6418	0.1034	0.3974	0.004
Mof_C 	C 	0.6956	0.1374	0.4683	-0.198
Mof_H 	H 	0.7131	0.1511	0.4196	0.115
Mof_C 	C 	0.71307	0.14563	0.5501	0.142
Mof_C 	C 	0.68572	0.12732	0.6227	-0.175
Mof_H 	H 	0.6967	0.1338	0.6802	0.092
Mof_C 	C 	0.64122	0.0988	0.6086	0.085
Mof_H 	H 	0.6227	0.0864	0.6566	0.017
Mof_C 	C 	0.75992	0.1725	0.569	-0.08
Mof_C 	C 	0.77994	0.15385	0.6167	-0.043
Mof_H 	H 	0.7639	0.1249	0.6318	0.047
Mof_H 	H 	0.7259	0.2303	0.6063	0.117
Mof_O 	O 	0.22438	0.37188	0.91333	-0.411
Mof_O 	O 	0.23065	0.38374	0.76533	-0.412
Mof_C 	C 	0.24507	0.39018	0.84183	0.377
Mof_C 	C 	0.29194	0.42273	0.85483	-0.158
Mof_C 	C 	0.31904	0.4423	0.78863	0.12
Mof_H 	H 	0.30847	0.43673	0.73073	0.004
Mof_C 	C 	0.36227	0.47073	0.80163	-0.198
Mof_H 	H 	0.37977	0.48443	0.75293	0.115
Mof_C 	C 	0.37974	0.47896	0.88343	0.142
Mof_C 	C 	0.35239	0.46065	0.95603	-0.174
Mof_H 	H 	0.36337	0.46713	0.01353	0.092
Mof_C 	C 	0.30789	0.43213	0.94193	0.085
Mof_H 	H 	0.28937	0.41973	0.98993	0.017
Mof_C 	C 	0.42659	0.50583	0.90233	-0.08
Mof_C 	C 	0.44661	0.48718	0.95003	-0.044
Mof_H 	H 	0.43057	0.45823	0.96513	0.047
Mof_H 	H 	0.39257	0.56363	0.93963	0.118
Mof_O 	O 	0.89104	0.70522	0.24667	-0.411
Mof_O 	O 	0.89731	0.71708	0.09867	-0.412
Mof_C 	C 	0.91173	0.72352	0.17517	0.377
Mof_C 	C 	0.9586	0.75607	0.18817	-0.158
Mof_C 	C 	0.9857	0.77564	0.12197	0.12
Mof_H 	H 	0.97513	0.77007	0.06407	0.004
Mof_C 	C 	0.02893	0.80407	0.13497	-0.198
Mof_H 	H 	0.04643	0.81777	0.08627	0.115
Mof_C 	C 	0.0464	0.8123	0.21677	0.142
Mof_C 	C 	0.01905	0.79399	0.28937	-0.175
Mof_H 	H 	0.03003	0.80047	0.34687	0.092
Mof_C 	C 	0.97455	0.76547	0.27527	0.085
Mof_H 	H 	0.95603	0.75307	0.32327	0.017
Mof_C 	C 	0.09325	0.83917	0.23567	-0.08
Mof_C 	C 	0.11327	0.82052	0.28337	-0.044
Mof_H 	H 	0.09723	0.79157	0.29847	0.047
Mof_H 	H 	0.05923	0.89697	0.27297	0.118
Mof_Cu	Cu	0.50328	0.49672	0.41356	0.903
Mof_Cu	Cu	0.16995	0.83005	0.74689	0.903
Mof_Cu	Cu	0.83661	0.16339	0.08023	0.903
Mof_Cu	Cu	0.50328	0.00656	0.41356	0.903
Mof_Cu	Cu	0.16995	0.33989	0.74689	0.903
Mof_Cu	Cu	0.83661	0.67323	0.08023	0.903
Mof_Cu	Cu	0.99344	0.49672	0.41356	0.903
Mof_Cu	Cu	0.66011	0.83005	0.74689	0.903
Mof_Cu	Cu	0.32677	0.16339	0.08023	0.903
Mof_Cu	Cu	0.49672	0.50328	0.58644	0.903
Mof_Cu	Cu	0.16339	0.83661	0.91977	0.903
Mof_Cu	Cu	0.83005	0.16995	0.25311	0.903
Mof_Cu	Cu	0.00656	0.50328	0.58644	0.903
Mof_Cu	Cu	0.67323	0.83661	0.91977	0.903
Mof_Cu	Cu	0.33989	0.16995	0.25311	0.903
Mof_Cu	Cu	0.49672	0.99344	0.58644	0.903
Mof_Cu	Cu	0.16339	0.32677	0.91977	0.903
Mof_Cu	Cu	0.83005	0.66011	0.25311	0.903
Mof_O 	O 	0.76517	0.53034	0.4994	-0.164
Mof_C 	C 	0.82295	0.6459	0.6424	0.005
Mof_C 	C 	0.78458	0.56917	0.5451	0.129
Mof_C 	C 	0.74665	0.4933	0.5698	-0.272
Mof_H 	H 	0.73295	0.4659	0.54	0.121
Mof_O 	O 	0.43184	0.86367	0.83273	-0.164
Mof_C 	C 	0.48962	0.97923	0.97573	0.005
Mof_C 	C 	0.45125	0.9025	0.87843	0.129
Mof_C 	C 	0.41332	0.82663	0.90313	-0.272
Mof_H 	H 	0.39962	0.79923	0.87333	0.122
Mof_O 	O 	0.0985	0.19701	0.16607	-0.164
Mof_C 	C 	0.15628	0.31257	0.30907	0.005
Mof_C 	C 	0.11792	0.23584	0.21177	0.129
Mof_C 	C 	0.07998	0.15997	0.23647	-0.272
Mof_H 	H 	0.06628	0.13257	0.20667	0.122
Mof_O 	O 	0.46966	0.23483	0.4994	-0.164
Mof_C 	C 	0.3541	0.17705	0.6424	0.005
Mof_C 	C 	0.43083	0.21542	0.5451	0.129
Mof_C 	C 	0.5067	0.25335	0.5698	-0.272
Mof_H 	H 	0.5341	0.26705	0.54	0.121
Mof_O 	O 	0.13633	0.56816	0.83273	-0.164
Mof_C 	C 	0.02077	0.51038	0.97573	0.005
Mof_C 	C 	0.0975	0.54875	0.87843	0.129
Mof_C 	C 	0.17337	0.58668	0.90313	-0.272
Mof_H 	H 	0.20077	0.60038	0.87333	0.122
Mof_O 	O 	0.80299	0.9015	0.16607	-0.164
Mof_C 	C 	0.68743	0.84372	0.30907	0.005
Mof_C 	C 	0.76416	0.88208	0.21177	0.129
Mof_C 	C 	0.84003	0.92002	0.23647	-0.272
Mof_H 	H 	0.86743	0.93372	0.20667	0.122
Mof_O 	O 	0.76517	0.23483	0.4994	-0.164
Mof_C 	C 	0.82295	0.17705	0.6424	0.004
Mof_C 	C 	0.78458	0.21542	0.5451	0.129
Mof_C 	C 	0.74665	0.25335	0.5698	-0.272
Mof_H 	H 	0.73295	0.26705	0.54	0.121
Mof_O 	O 	0.43184	0.56816	0.83273	-0.164
Mof_C 	C 	0.48962	0.51038	0.97573	0.005
Mof_C 	C 	0.45125	0.54875	0.87843	0.129
Mof_C 	C 	0.41332	0.58668	0.90313	-0.272
Mof_H 	H 	0.39962	0.60038	0.87333	0.122
Mof_O 	O 	0.0985	0.9015	0.16607	-0.164
Mof_C 	C 	0.15628	0.84372	0.30907	0.005
Mof_C 	C 	0.11792	0.88208	0.21177	0.129
Mof_C 	C 	0.07998	0.92002	0.23647	-0.272
Mof_H 	H 	0.06628	0.93372	0.20667	0.122
Mof_O 	O 	0.53034	0.76517	0.5006	-0.164
Mof_C 	C 	0.6459	0.82295	0.3576	0.005
Mof_C 	C 	0.56917	0.78458	0.4549	0.129
Mof_C 	C 	0.4933	0.74665	0.4302	-0.272
Mof_H 	H 	0.4659	0.73295	0.46	0.121
Mof_O 	O 	0.19701	0.0985	0.83393	-0.164
Mof_C 	C 	0.31257	0.15628	0.69093	0.005
Mof_C 	C 	0.23584	0.11792	0.78823	0.129
Mof_C 	C 	0.15997	0.07998	0.76353	-0.272
Mof_H 	H 	0.13257	0.06628	0.79333	0.122
Mof_O 	O 	0.86367	0.43184	0.16727	-0.164
Mof_C 	C 	0.97923	0.48962	0.02427	0.005
Mof_C 	C 	0.9025	0.45125	0.12157	0.129
Mof_C 	C 	0.82663	0.41332	0.09687	-0.272
Mof_H 	H 	0.79923	0.39962	0.12667	0.122
Mof_O 	O 	0.23483	0.46966	0.5006	-0.164
Mof_C 	C 	0.17705	0.3541	0.3576	0.005
Mof_C 	C 	0.21542	0.43083	0.4549	0.129
Mof_C 	C 	0.25335	0.5067	0.4302	-0.272
Mof_H 	H 	0.26705	0.5341	0.46	0.121
Mof_O 	O 	0.9015	0.80299	0.83393	-0.164
Mof_C 	C 	0.84372	0.68743	0.69093	0.005
Mof_C 	C 	0.88208	0.76416	0.78823	0.129
Mof_C 	C 	0.92002	0.84003	0.76353	-0.272
Mof_H 	H 	0.93372	0.86743	0.79333	0.122
Mof_O 	O 	0.56816	0.13633	0.16727	-0.164
Mof_C 	C 	0.51038	0.02077	0.02427	0.005
Mof_C 	C 	0.54875	0.0975	0.12157	0.129
Mof_C 	C 	0.58668	0.17337	0.09687	-0.272
Mof_H 	H 	0.60038	0.20077	0.12667	0.122
Mof_O 	O 	0.23483	0.76517	0.5006	-0.164
Mof_C 	C 	0.17705	0.82295	0.3576	0.004
Mof_C 	C 	0.21542	0.78458	0.4549	0.129
Mof_C 	C 	0.25335	0.74665	0.4302	-0.272
Mof_H 	H 	0.26705	0.73295	0.46	0.121
Mof_O 	O 	0.9015	0.0985	0.83393	-0.164
Mof_C 	C 	0.84372	0.15628	0.69093	0.005
Mof_C 	C 	0.88208	0.11792	0.78823	0.129
Mof_C 	C 	0.92002	0.07998	0.76353	-0.272
Mof_H 	H 	0.93372	0.06628	0.79333	0.122
Mof_O 	O 	0.56816	0.43184	0.16727	-0.164
Mof_C 	C 	0.51038	0.48962	0.02427	0.005
Mof_C 	C 	0.54875	0.45125	0.12157	0.129
Mof_C 	C 	0.58668	0.41332	0.09687	-0.272
Mof_H 	H 	0.60038	0.39962	0.12667	0.122
_end
