data_functionalizedCrystal
_audit_creation_method	'EQeq! by Chris Wilmer'
_symmetry_space_group_name_H-M	'P1'
_symmetry_Int_Tables_number	1
_symmetry_cell_setting	triclinic
loop_
_symmetry_equiv_pos_as_xyz
  x,y,z
_cell_length_a	5.3968
_cell_length_b	11.4886
_cell_length_c	13.4233
_cell_angle_alpha	90.67
_cell_angle_beta	94.9
_cell_angle_gamma	91.238
loop_
_atom_site_label
_atom_site_type_symbol
_atom_site_fract_x
_atom_site_fract_y
_atom_site_fract_z
_atom_site_charge
Mof_Li	Li	0.6873	0.9879	0.935	3.798
Mof_Li	Li	0.3057	0.4861	0.5597	3.676
Mof_Li	Li	0.3127	0.0121	0.065	3.799
Mof_Li	Li	0.6943	0.5139	0.4403	3.677
Mof_H 	H 	0.0679	0.1845	0.655	-0.092
Mof_H 	H 	0.995	0.0452	0.7688	-0.107
Mof_H 	H 	0.4131	0.2043	0.8464	-0.142
Mof_H 	H 	0.4598	0.3458	0.7297	-0.168
Mof_H 	H 	0.5573	0.7334	0.8678	-0.135
Mof_H 	H 	0.5955	0.5929	0.7486	-0.08
Mof_H 	H 	0.9504	0.6645	0.6142	-0.179
Mof_H 	H 	0.884	0.8002	0.7341	-0.116
Mof_H 	H 	0.9321	0.8155	0.345	-0.092
Mof_H 	H 	0.005	0.9548	0.2312	-0.107
Mof_H 	H 	0.5869	0.7957	0.1536	-0.142
Mof_H 	H 	0.5402	0.6542	0.2703	-0.168
Mof_H 	H 	0.4427	0.2666	0.1322	-0.135
Mof_H 	H 	0.4045	0.4071	0.2514	-0.08
Mof_H 	H 	0.0496	0.3355	0.3858	-0.179
Mof_H 	H 	0.116	0.1998	0.2659	-0.116
Mof_C 	C 	0.8246	0.3739	0.6025	1.057
Mof_C 	C 	0.7728	0.2824	0.6792	-0.459
Mof_C 	C 	0.9319	0.1903	0.6927	0.143
Mof_C 	C 	0.8879	0.1075	0.7622	-0.085
Mof_C 	C 	0.5463	0.1999	0.807	-0.027
Mof_C 	C 	0.5737	0.2862	0.7373	0.146
Mof_C 	C 	0.1658	0.8706	0.897	1.147
Mof_C 	C 	0.2127	0.7826	0.8158	-0.49
Mof_C 	C 	0.4293	0.7195	0.8179	0.146
Mof_C 	C 	0.4515	0.6362	0.7451	-0.055
Mof_C 	C 	0.0721	0.6771	0.6668	-0.036
Mof_C 	C 	0.0319	0.7597	0.738	0.148
Mof_C 	C 	0.1754	0.6261	0.3975	1.057
Mof_C 	C 	0.2272	0.7176	0.3208	-0.459
Mof_C 	C 	0.0681	0.8097	0.3073	0.143
Mof_C 	C 	0.1121	0.8925	0.2378	-0.085
Mof_C 	C 	0.4537	0.8001	0.193	-0.027
Mof_C 	C 	0.4263	0.7138	0.2627	0.146
Mof_C 	C 	0.8342	0.1294	0.103	1.147
Mof_C 	C 	0.7873	0.2174	0.1842	-0.49
Mof_C 	C 	0.5707	0.2805	0.1821	0.146
Mof_C 	C 	0.5485	0.3638	0.2549	-0.055
Mof_C 	C 	0.9279	0.3229	0.3332	-0.036
Mof_C 	C 	0.9681	0.2403	0.262	0.148
Mof_N 	N 	0.6999	0.1109	0.8211	-0.604
Mof_N 	N 	0.2785	0.6134	0.6692	-0.603
Mof_N 	N 	0.3001	0.8891	0.1789	-0.604
Mof_N 	N 	0.7215	0.3866	0.3308	-0.603
Mof_O 	O 	0.0382	0.3798	0.5753	-1.445
Mof_O 	O 	0.6463	0.4375	0.5711	-1.91
Mof_O 	O 	0.946	0.8876	0.9115	-1.526
Mof_O 	O 	0.3533	0.9203	0.9429	-2.003
Mof_O 	O 	0.9618	0.6202	0.4247	-1.445
Mof_O 	O 	0.3537	0.5625	0.4289	-1.91
Mof_O 	O 	0.054	0.1124	0.0885	-1.526
Mof_O 	O 	0.6467	0.0797	0.0571	-2.003
_end
