data_functionalizedCrystal
_audit_creation_method	'EQeq! by Chris Wilmer'
_symmetry_space_group_name_H-M	'P1'
_symmetry_Int_Tables_number	1
_symmetry_cell_setting	triclinic
loop_
_symmetry_equiv_pos_as_xyz
  x,y,z
_cell_length_a	28.612
_cell_length_b	9.3899
_cell_length_c	9.2741
_cell_angle_alpha	90
_cell_angle_beta	92.657
_cell_angle_gamma	90
loop_
_atom_site_label
_atom_site_type_symbol
_atom_site_fract_x
_atom_site_fract_y
_atom_site_fract_z
_atom_site_charge
Mof_Cu	Cu	0.30754	0.66933	0.12004	0.891
Mof_C 	C 	0.3806	0.9883	0.8978	-0.257
Mof_H 	H 	0.373	0.0774	0.8569	0.141
Mof_C 	C 	0.3473	0.9111	0.9632	0.15
Mof_H 	H 	0.3168	0.9485	0.9644	-0.021
Mof_C 	C 	0.4349	0.804	0.9574	-0.247
Mof_H 	H 	0.4649	0.7635	0.9566	0.116
Mof_N 	N 	0.35573	0.7845	0.026	-0.248
Mof_C 	C 	0.4261	0.9351	0.8916	0.235
Mof_C 	C 	0.3993	0.7335	0.0238	0.136
Mof_H 	H 	0.406	0.646	0.0693	-0.01
Mof_C 	C 	0.4632	0.0197	0.8196	-0.372
Mof_H 	H 	0.4787	0.0821	0.8917	0.138
Mof_H 	H 	0.448	0.0807	0.7456	0.143
Mof_H 	H 	0.4848	0.87	0.6776	-0.022
Mof_N 	N 	0.27842	0.6061	0.9277	-0.173
Mof_N 	N 	0.24377	0.6551	0.8408	-0.124
Mof_N 	N 	0.24145	0.5795	0.7203	-0.051
Mof_C 	C 	0.2968	0.4981	0.8596	0.015
Mof_N 	N 	0.27503	0.4799	0.731	-0.167
Mof_C 	C 	0.3378	0.4054	0.9008	0.279
Mof_O 	O 	0.3473	0.3184	0.8017	-0.365
Mof_O 	O 	0.35748	0.4203	0.0204	-0.272
Mof_Cu	Cu	0.80754	0.16933	0.12004	0.891
Mof_C 	C 	0.8806	0.4883	0.8978	-0.247
Mof_H 	H 	0.873	0.5774	0.8569	0.136
Mof_C 	C 	0.8473	0.4111	0.9632	0.148
Mof_H 	H 	0.8168	0.4485	0.9644	-0.019
Mof_C 	C 	0.9349	0.304	0.9574	-0.236
Mof_H 	H 	0.9649	0.2635	0.9566	0.115
Mof_N 	N 	0.85573	0.2845	0.026	-0.247
Mof_C 	C 	0.9261	0.4351	0.8916	0.226
Mof_C 	C 	0.8993	0.2335	0.0238	0.128
Mof_H 	H 	0.906	0.146	0.0693	-0.008
Mof_C 	C 	0.9632	0.5197	0.8196	-0.35
Mof_H 	H 	0.9787	0.5821	0.8917	0.133
Mof_H 	H 	0.948	0.5807	0.7456	0.138
Mof_H 	H 	0.9848	0.37	0.6776	-0.008
Mof_N 	N 	0.77842	0.1061	0.9277	-0.171
Mof_N 	N 	0.74377	0.1551	0.8408	-0.123
Mof_N 	N 	0.74145	0.0795	0.7203	-0.051
Mof_C 	C 	0.7968	0.9981	0.8596	0.014
Mof_N 	N 	0.77503	0.9799	0.731	-0.167
Mof_C 	C 	0.8378	0.9054	0.9008	0.275
Mof_O 	O 	0.8473	0.8184	0.8017	-0.364
Mof_O 	O 	0.85748	0.9203	0.0204	-0.269
Mof_Cu	Cu	0.69246	0.66933	0.37996	0.892
Mof_C 	C 	0.6194	0.9883	0.6022	-0.255
Mof_H 	H 	0.627	0.0774	0.6431	0.139
Mof_C 	C 	0.6527	0.9111	0.5368	0.15
Mof_H 	H 	0.6832	0.9485	0.5356	-0.021
Mof_C 	C 	0.5651	0.804	0.5426	-0.244
Mof_H 	H 	0.5351	0.7635	0.5434	0.115
Mof_N 	N 	0.64427	0.7845	0.474	-0.248
Mof_C 	C 	0.5739	0.9351	0.6084	0.234
Mof_C 	C 	0.6007	0.7335	0.4762	0.132
Mof_H 	H 	0.594	0.646	0.4307	-0.009
Mof_C 	C 	0.5368	0.0197	0.6804	-0.372
Mof_H 	H 	0.5213	0.0821	0.6083	0.137
Mof_H 	H 	0.552	0.0807	0.7544	0.144
Mof_H 	H 	0.5152	0.87	0.8224	-0.022
Mof_N 	N 	0.72158	0.6061	0.5723	-0.173
Mof_N 	N 	0.75623	0.6551	0.6592	-0.124
Mof_N 	N 	0.75855	0.5795	0.7797	-0.051
Mof_C 	C 	0.7032	0.4981	0.6404	0.015
Mof_N 	N 	0.72497	0.4799	0.769	-0.167
Mof_C 	C 	0.6622	0.4054	0.5992	0.278
Mof_O 	O 	0.6527	0.3184	0.6983	-0.365
Mof_O 	O 	0.64252	0.4203	0.4796	-0.272
Mof_Cu	Cu	0.19246	0.16933	0.37996	0.892
Mof_C 	C 	0.1194	0.4883	0.6022	-0.247
Mof_H 	H 	0.127	0.5774	0.6431	0.136
Mof_C 	C 	0.1527	0.4111	0.5368	0.146
Mof_H 	H 	0.1832	0.4485	0.5356	-0.019
Mof_C 	C 	0.0651	0.304	0.5426	-0.238
Mof_H 	H 	0.0351	0.2635	0.5434	0.112
Mof_N 	N 	0.14427	0.2845	0.474	-0.247
Mof_C 	C 	0.0739	0.4351	0.6084	0.226
Mof_C 	C 	0.1007	0.2335	0.4762	0.129
Mof_H 	H 	0.094	0.146	0.4307	-0.009
Mof_C 	C 	0.0368	0.5197	0.6804	-0.354
Mof_H 	H 	0.0213	0.5821	0.6083	0.13
Mof_H 	H 	0.052	0.5807	0.7544	0.137
Mof_H 	H 	0.0152	0.37	0.8224	-0.013
Mof_N 	N 	0.22158	0.1061	0.5723	-0.172
Mof_N 	N 	0.25623	0.1551	0.6592	-0.124
Mof_N 	N 	0.25855	0.0795	0.7797	-0.05
Mof_C 	C 	0.2032	0.9981	0.6404	0.015
Mof_N 	N 	0.22497	0.9799	0.769	-0.167
Mof_C 	C 	0.1622	0.9054	0.5992	0.278
Mof_O 	O 	0.1527	0.8184	0.6983	-0.365
Mof_O 	O 	0.14252	0.9203	0.4796	-0.272
Mof_Cu	Cu	0.69246	0.33067	0.87996	0.892
Mof_C 	C 	0.6194	0.0117	0.1022	-0.257
Mof_H 	H 	0.627	0.9226	0.1431	0.141
Mof_C 	C 	0.6527	0.0889	0.0368	0.15
Mof_H 	H 	0.6832	0.0515	0.0356	-0.021
Mof_C 	C 	0.5651	0.196	0.0426	-0.247
Mof_H 	H 	0.5351	0.2365	0.0434	0.116
Mof_N 	N 	0.64427	0.2155	0.974	-0.248
Mof_C 	C 	0.5739	0.0649	0.1084	0.235
Mof_C 	C 	0.6007	0.2665	0.9762	0.135
Mof_H 	H 	0.594	0.354	0.9307	-0.01
Mof_C 	C 	0.5368	0.9803	0.1804	-0.372
Mof_H 	H 	0.5213	0.9179	0.1083	0.138
Mof_H 	H 	0.552	0.9193	0.2544	0.143
Mof_H 	H 	0.5152	0.13	0.3224	-0.022
Mof_N 	N 	0.72158	0.3939	0.0723	-0.173
Mof_N 	N 	0.75623	0.3449	0.1592	-0.124
Mof_N 	N 	0.75855	0.4205	0.2797	-0.051
Mof_C 	C 	0.7032	0.5019	0.1404	0.015
Mof_N 	N 	0.72497	0.5201	0.269	-0.167
Mof_C 	C 	0.6622	0.5946	0.0992	0.279
Mof_O 	O 	0.6527	0.6816	0.1983	-0.365
Mof_O 	O 	0.64252	0.5797	0.9796	-0.273
Mof_Cu	Cu	0.19246	0.83067	0.87996	0.891
Mof_C 	C 	0.1194	0.5117	0.1022	-0.247
Mof_H 	H 	0.127	0.4226	0.1431	0.136
Mof_C 	C 	0.1527	0.5889	0.0368	0.147
Mof_H 	H 	0.1832	0.5515	0.0356	-0.019
Mof_C 	C 	0.0651	0.696	0.0426	-0.236
Mof_H 	H 	0.0351	0.7365	0.0434	0.111
Mof_N 	N 	0.14427	0.7155	0.974	-0.247
Mof_C 	C 	0.0739	0.5649	0.1084	0.225
Mof_C 	C 	0.1007	0.7665	0.9762	0.127
Mof_H 	H 	0.094	0.854	0.9307	-0.009
Mof_C 	C 	0.0368	0.4803	0.1804	-0.354
Mof_H 	H 	0.0213	0.4179	0.1083	0.13
Mof_H 	H 	0.052	0.4193	0.2544	0.137
Mof_H 	H 	0.0152	0.63	0.3224	-0.013
Mof_N 	N 	0.22158	0.8939	0.0723	-0.171
Mof_N 	N 	0.25623	0.8449	0.1592	-0.123
Mof_N 	N 	0.25855	0.9205	0.2797	-0.051
Mof_C 	C 	0.2032	0.0019	0.1404	0.014
Mof_N 	N 	0.22497	0.0201	0.269	-0.167
Mof_C 	C 	0.1622	0.0946	0.0992	0.275
Mof_O 	O 	0.1527	0.1816	0.1983	-0.365
Mof_O 	O 	0.14252	0.0797	0.9796	-0.27
Mof_Cu	Cu	0.30754	0.33067	0.62004	0.892
Mof_C 	C 	0.3806	0.0117	0.3978	-0.255
Mof_H 	H 	0.373	0.9226	0.3569	0.139
Mof_C 	C 	0.3473	0.0889	0.4632	0.15
Mof_H 	H 	0.3168	0.0515	0.4644	-0.021
Mof_C 	C 	0.4349	0.196	0.4574	-0.244
Mof_H 	H 	0.4649	0.2365	0.4566	0.115
Mof_N 	N 	0.35573	0.2155	0.526	-0.248
Mof_C 	C 	0.4261	0.0649	0.3916	0.234
Mof_C 	C 	0.3993	0.2665	0.5238	0.132
Mof_H 	H 	0.406	0.354	0.5693	-0.009
Mof_C 	C 	0.4632	0.9803	0.3196	-0.372
Mof_H 	H 	0.4787	0.9179	0.3917	0.137
Mof_H 	H 	0.448	0.9193	0.2456	0.144
Mof_H 	H 	0.4848	0.13	0.1776	-0.022
Mof_N 	N 	0.27842	0.3939	0.4277	-0.173
Mof_N 	N 	0.24377	0.3449	0.3408	-0.124
Mof_N 	N 	0.24145	0.4205	0.2203	-0.051
Mof_C 	C 	0.2968	0.5019	0.3596	0.015
Mof_N 	N 	0.27503	0.5201	0.231	-0.167
Mof_C 	C 	0.3378	0.5946	0.4008	0.278
Mof_O 	O 	0.3473	0.6816	0.3017	-0.365
Mof_O 	O 	0.35748	0.5797	0.5204	-0.272
Mof_Cu	Cu	0.80754	0.83067	0.62004	0.892
Mof_C 	C 	0.8806	0.5117	0.3978	-0.247
Mof_H 	H 	0.873	0.4226	0.3569	0.136
Mof_C 	C 	0.8473	0.5889	0.4632	0.147
Mof_H 	H 	0.8168	0.5515	0.4644	-0.019
Mof_C 	C 	0.9349	0.696	0.4574	-0.238
Mof_H 	H 	0.9649	0.7365	0.4566	0.115
Mof_N 	N 	0.85573	0.7155	0.526	-0.247
Mof_C 	C 	0.9261	0.5649	0.3916	0.226
Mof_C 	C 	0.8993	0.7665	0.5238	0.13
Mof_H 	H 	0.906	0.854	0.5693	-0.008
Mof_C 	C 	0.9632	0.4803	0.3196	-0.35
Mof_H 	H 	0.9787	0.4179	0.3917	0.133
Mof_H 	H 	0.948	0.4193	0.2456	0.138
Mof_H 	H 	0.9848	0.63	0.1776	-0.007
Mof_N 	N 	0.77842	0.8939	0.4277	-0.172
Mof_N 	N 	0.74377	0.8449	0.3408	-0.124
Mof_N 	N 	0.74145	0.9205	0.2203	-0.05
Mof_C 	C 	0.7968	0.0019	0.3596	0.015
Mof_N 	N 	0.77503	0.0201	0.231	-0.167
Mof_C 	C 	0.8378	0.0946	0.4008	0.278
Mof_O 	O 	0.8473	0.1816	0.3017	-0.365
Mof_O 	O 	0.85748	0.0797	0.5204	-0.271
Mof_C 	C 	0.5	0.9309	0.75	0.169
Mof_C 	C 	-2.8548e-18	0.4309	0.75	0.137
Mof_C 	C 	0.5	0.0691	0.25	0.169
Mof_C 	C 	3.17911e-34	0.5691	0.25	0.136
_end
