data_functionalizedCrystal
_audit_creation_method	'EQeq! by Chris Wilmer'
_symmetry_space_group_name_H-M	'P1'
_symmetry_Int_Tables_number	1
_symmetry_cell_setting	triclinic
loop_
_symmetry_equiv_pos_as_xyz
  x,y,z
_cell_length_a	15.775
_cell_length_b	16.035
_cell_length_c	33.845
_cell_angle_alpha	90
_cell_angle_beta	90
_cell_angle_gamma	90
loop_
_atom_site_label
_atom_site_type_symbol
_atom_site_fract_x
_atom_site_fract_y
_atom_site_fract_z
_atom_site_charge
Mof_O 	O 	0.1579	0.8582	0.2138	-0.333
Mof_O 	O 	0.1383	0.8354	0.2725	-0.332
Mof_O 	O 	0.3286	0.8627	0.2896	-0.28
Mof_O 	O 	0.3536	0.834	0.2233	-0.267
Mof_C 	C 	0.1265	0.875	0.2444	0.432
Mof_C 	C 	0.0676	0.9463	0.2469	-0.108
Mof_C 	C 	0.0341	0.9727	0.211	0.004
Mof_H 	H 	0.0572	0.954	0.1874	0.044
Mof_C 	C 	0.0346	0.9729	0.2834	-0
Mof_H 	H 	0.0576	0.9531	0.3069	0.127
Mof_C 	C 	0.0907	0.992	0.3205	-0.211
Mof_C 	C 	0.216	0.9899	0.3605	-0.153
Mof_H 	H 	0.2744	0.9854	0.3615	0.098
Mof_C 	C 	0.1741	0.9924	0.3972	0.1
Mof_H 	H 	0.2019	0.9966	0.4213	0.023
Mof_C 	C 	0.0497	0.997	0.3576	0.248
Mof_H 	H 	0.9916	0.0074	0.3577	-0.085
Mof_C 	C 	0.3658	0.8723	0.2569	0.3
Mof_C 	C 	0.4345	0.9397	0.2567	-0.097
Mof_C 	C 	0.468	0.9703	0.2916	0.062
Mof_H 	H 	0.4471	0.9506	0.3155	0.028
Mof_C 	C 	0.4676	0.9706	0.2215	0.063
Mof_H 	H 	0.4459	0.9516	0.1976	0.068
Mof_C 	C 	0.4148	0.9833	0.1842	-0.07
Mof_C 	C 	0.3266	0.9792	0.1783	0.032
Mof_H 	H 	0.2933	0.9772	0.201	0.041
Mof_C 	C 	0.2835	0.9779	0.1425	-0.099
Mof_H 	H 	0.2247	0.9761	0.1412	0.076
Mof_C 	C 	0.3343	0.9793	0.1084	0.059
Mof_H 	H 	0.3088	0.9774	0.0837	0.035
Mof_C 	C 	0.4561	0.9817	0.1476	-0.039
Mof_H 	H 	0.515	0.9797	0.1481	0.112
Mof_N 	N 	0.0894	0.988	0.3933	-0.164
Mof_N 	N 	0.419	0.9835	0.1111	-0.108
Mof_C 	C 	0.1804	0.9933	0.3226	0.107
Mof_H 	H 	0.214	0.9961	0.3001	0.013
Mof_O 	O 	0.1579	0.3582	0.7138	-0.326
Mof_O 	O 	0.1383	0.3354	0.7725	-0.324
Mof_O 	O 	0.3286	0.3627	0.7896	-0.275
Mof_O 	O 	0.3536	0.334	0.7233	-0.261
Mof_C 	C 	0.1265	0.375	0.7444	0.409
Mof_C 	C 	0.0676	0.4463	0.7469	-0.057
Mof_C 	C 	0.0341	0.4727	0.711	-0.077
Mof_H 	H 	0.0572	0.454	0.6874	0.067
Mof_C 	C 	0.0346	0.4729	0.7834	-0.081
Mof_H 	H 	0.0576	0.4531	0.8069	0.153
Mof_C 	C 	0.0907	0.492	0.8205	-0.209
Mof_C 	C 	0.216	0.4899	0.8605	-0.151
Mof_H 	H 	0.2744	0.4854	0.8615	0.093
Mof_C 	C 	0.1741	0.4924	0.8972	0.095
Mof_H 	H 	0.2019	0.4966	0.9213	0.019
Mof_C 	C 	0.0497	0.497	0.8576	0.21
Mof_H 	H 	0.9916	0.5074	0.8577	-0.113
Mof_C 	C 	0.3658	0.3723	0.7569	0.278
Mof_C 	C 	0.4345	0.4397	0.7567	-0.035
Mof_C 	C 	0.468	0.4703	0.7916	-0.03
Mof_H 	H 	0.4471	0.4506	0.8155	0.055
Mof_C 	C 	0.4676	0.4706	0.7215	-0.041
Mof_H 	H 	0.4459	0.4516	0.6976	0.118
Mof_C 	C 	0.4148	0.4833	0.6842	-0.101
Mof_C 	C 	0.3266	0.4792	0.6783	0.048
Mof_H 	H 	0.2933	0.4772	0.701	0.034
Mof_C 	C 	0.2835	0.4779	0.6425	-0.111
Mof_H 	H 	0.2247	0.4761	0.6412	0.076
Mof_C 	C 	0.3343	0.4793	0.6084	0.062
Mof_H 	H 	0.3088	0.4774	0.5837	0.029
Mof_C 	C 	0.4561	0.4817	0.6476	-0.062
Mof_H 	H 	0.515	0.4797	0.6481	0.081
Mof_N 	N 	0.0894	0.488	0.8933	-0.164
Mof_N 	N 	0.419	0.4835	0.6111	-0.113
Mof_C 	C 	0.1804	0.4933	0.8226	0.101
Mof_H 	H 	0.214	0.4961	0.8001	0.012
Mof_O 	O 	0.6579	0.8582	0.7138	-0.336
Mof_O 	O 	0.6383	0.8354	0.7725	-0.336
Mof_O 	O 	0.8286	0.8627	0.7896	-0.282
Mof_O 	O 	0.8536	0.834	0.7233	-0.268
Mof_C 	C 	0.6265	0.875	0.7444	0.451
Mof_C 	C 	0.5676	0.9463	0.7469	-0.149
Mof_C 	C 	0.5341	0.9727	0.711	0.071
Mof_H 	H 	0.5572	0.954	0.6874	0.025
Mof_C 	C 	0.5346	0.9729	0.7834	0.065
Mof_H 	H 	0.5576	0.9531	0.8069	0.108
Mof_C 	C 	0.5907	0.992	0.8205	-0.216
Mof_C 	C 	0.716	0.9899	0.8605	-0.158
Mof_H 	H 	0.7744	0.9854	0.8615	0.1
Mof_C 	C 	0.6741	0.9924	0.8972	0.103
Mof_H 	H 	0.7019	0.9966	0.9213	0.022
Mof_C 	C 	0.5497	0.997	0.8576	0.281
Mof_H 	H 	0.4916	0.0074	0.8577	-0.063
Mof_C 	C 	0.8658	0.8723	0.7569	0.316
Mof_C 	C 	0.9345	0.9397	0.7567	-0.14
Mof_C 	C 	0.968	0.9703	0.7916	0.129
Mof_H 	H 	0.9471	0.9506	0.8155	0.008
Mof_C 	C 	0.9676	0.9706	0.7215	0.137
Mof_H 	H 	0.9459	0.9516	0.6976	0.039
Mof_C 	C 	0.9148	0.9833	0.6842	-0.058
Mof_C 	C 	0.8266	0.9792	0.6783	0.026
Mof_H 	H 	0.7933	0.9772	0.701	0.044
Mof_C 	C 	0.7835	0.9779	0.6425	-0.095
Mof_H 	H 	0.7247	0.9761	0.6412	0.077
Mof_C 	C 	0.8343	0.9793	0.6084	0.059
Mof_H 	H 	0.8088	0.9774	0.5837	0.037
Mof_C 	C 	0.9561	0.9817	0.6476	-0.023
Mof_H 	H 	0.015	0.9797	0.6481	0.091
Mof_N 	N 	0.5894	0.988	0.8933	-0.169
Mof_N 	N 	0.919	0.9835	0.6111	-0.106
Mof_C 	C 	0.6804	0.9933	0.8226	0.112
Mof_H 	H 	0.714	0.9961	0.8001	0.012
Mof_O 	O 	0.6579	0.3582	0.2138	-0.33
Mof_O 	O 	0.6383	0.3354	0.2725	-0.329
Mof_O 	O 	0.8286	0.3627	0.2896	-0.278
Mof_O 	O 	0.8536	0.334	0.2233	-0.264
Mof_C 	C 	0.6265	0.375	0.2444	0.428
Mof_C 	C 	0.5676	0.4463	0.2469	-0.097
Mof_C 	C 	0.5341	0.4727	0.211	-0.011
Mof_H 	H 	0.5572	0.454	0.1874	0.049
Mof_C 	C 	0.5346	0.4729	0.2834	-0.016
Mof_H 	H 	0.5576	0.4531	0.3069	0.134
Mof_C 	C 	0.5907	0.492	0.3205	-0.214
Mof_C 	C 	0.716	0.4899	0.3605	-0.155
Mof_H 	H 	0.7744	0.4854	0.3615	0.096
Mof_C 	C 	0.6741	0.4924	0.3972	0.098
Mof_H 	H 	0.7019	0.4966	0.4213	0.019
Mof_C 	C 	0.5497	0.497	0.3576	0.243
Mof_H 	H 	0.4916	0.5074	0.3577	-0.091
Mof_C 	C 	0.8658	0.3723	0.2569	0.295
Mof_C 	C 	0.9345	0.4397	0.2567	-0.082
Mof_C 	C 	0.968	0.4703	0.2916	0.042
Mof_H 	H 	0.9471	0.4506	0.3155	0.034
Mof_C 	C 	0.9676	0.4706	0.2215	0.038
Mof_H 	H 	0.9459	0.4516	0.1976	0.083
Mof_C 	C 	0.9148	0.4833	0.1842	-0.08
Mof_C 	C 	0.8266	0.4792	0.1783	0.036
Mof_H 	H 	0.7933	0.4772	0.201	0.039
Mof_C 	C 	0.7835	0.4779	0.1425	-0.103
Mof_H 	H 	0.7247	0.4761	0.1412	0.076
Mof_C 	C 	0.8343	0.4793	0.1084	0.06
Mof_H 	H 	0.8088	0.4774	0.0837	0.032
Mof_C 	C 	0.9561	0.4817	0.1476	-0.056
Mof_H 	H 	0.015	0.4797	0.1481	0.067
Mof_N 	N 	0.5894	0.488	0.3933	-0.169
Mof_N 	N 	0.919	0.4835	0.1111	-0.108
Mof_C 	C 	0.6804	0.4933	0.3226	0.107
Mof_H 	H 	0.714	0.4961	0.3001	0.012
Mof_O 	O 	0.8421	0.1418	0.2138	-0.328
Mof_O 	O 	0.8617	0.1646	0.2725	-0.327
Mof_O 	O 	0.6714	0.1373	0.2896	-0.27
Mof_O 	O 	0.6464	0.166	0.2233	-0.257
Mof_C 	C 	0.8735	0.125	0.2444	0.424
Mof_C 	C 	0.9324	0.0537	0.2469	-0.088
Mof_C 	C 	0.9659	0.0273	0.211	-0.026
Mof_H 	H 	0.9428	0.046	0.1874	0.053
Mof_C 	C 	0.9654	0.0271	0.2834	-0.032
Mof_H 	H 	0.9424	0.0469	0.3069	0.14
Mof_C 	C 	0.9093	0.008	0.3205	-0.216
Mof_C 	C 	0.784	0.0101	0.3605	-0.156
Mof_H 	H 	0.7256	0.0146	0.3615	0.091
Mof_C 	C 	0.8259	0.0076	0.3972	0.095
Mof_H 	H 	0.7981	0.0034	0.4213	0.015
Mof_C 	C 	0.9503	0.003	0.3576	0.235
Mof_H 	H 	0.0084	0.9926	0.3577	-0.093
Mof_C 	C 	0.6342	0.1277	0.2569	0.256
Mof_C 	C 	0.5655	0.0603	0.2567	0.028
Mof_C 	C 	0.532	0.0297	0.2916	-0.121
Mof_H 	H 	0.5529	0.0494	0.3155	0.082
Mof_C 	C 	0.5324	0.0294	0.2215	-0.147
Mof_H 	H 	0.5541	0.0484	0.1976	0.171
Mof_C 	C 	0.5852	0.0167	0.1842	-0.136
Mof_C 	C 	0.6734	0.0208	0.1783	0.067
Mof_H 	H 	0.7067	0.0228	0.201	0.026
Mof_C 	C 	0.7165	0.0221	0.1425	-0.124
Mof_H 	H 	0.7753	0.0239	0.1412	0.082
Mof_C 	C 	0.6657	0.0207	0.1084	0.066
Mof_H 	H 	0.6912	0.0226	0.0837	0.026
Mof_C 	C 	0.5439	0.0183	0.1476	-0.08
Mof_H 	H 	0.485	0.0203	0.1481	0.049
Mof_N 	N 	0.9106	0.012	0.3933	-0.166
Mof_N 	N 	0.581	0.0165	0.1111	-0.115
Mof_C 	C 	0.8196	0.0067	0.3226	0.104
Mof_H 	H 	0.786	0.0039	0.3001	0.009
Mof_O 	O 	0.8421	0.6418	0.7138	-0.335
Mof_O 	O 	0.8617	0.6646	0.7725	-0.334
Mof_O 	O 	0.6714	0.6373	0.7896	-0.275
Mof_O 	O 	0.6464	0.666	0.7233	-0.261
Mof_C 	C 	0.8735	0.625	0.7444	0.447
Mof_C 	C 	0.9324	0.5537	0.7469	-0.138
Mof_C 	C 	0.9659	0.5273	0.711	0.055
Mof_H 	H 	0.9428	0.546	0.6874	0.029
Mof_C 	C 	0.9654	0.5271	0.7834	0.048
Mof_H 	H 	0.9424	0.5469	0.8069	0.115
Mof_C 	C 	0.9093	0.508	0.8205	-0.219
Mof_C 	C 	0.784	0.5101	0.8605	-0.159
Mof_H 	H 	0.7256	0.5146	0.8615	0.096
Mof_C 	C 	0.8259	0.5076	0.8972	0.1
Mof_H 	H 	0.7981	0.5034	0.9213	0.018
Mof_C 	C 	0.9503	0.503	0.8576	0.275
Mof_H 	H 	0.0084	0.4926	0.8577	-0.067
Mof_C 	C 	0.6342	0.6277	0.7569	0.278
Mof_C 	C 	0.5655	0.5603	0.7567	-0.034
Mof_C 	C 	0.532	0.5297	0.7916	-0.03
Mof_H 	H 	0.5529	0.5494	0.8155	0.055
Mof_C 	C 	0.5324	0.5294	0.7215	-0.043
Mof_H 	H 	0.5541	0.5484	0.6976	0.12
Mof_C 	C 	0.5852	0.5167	0.6842	-0.104
Mof_C 	C 	0.6734	0.5208	0.6783	0.05
Mof_H 	H 	0.7067	0.5228	0.701	0.034
Mof_C 	C 	0.7165	0.5221	0.6425	-0.112
Mof_H 	H 	0.7753	0.5239	0.6412	0.081
Mof_C 	C 	0.6657	0.5207	0.6084	0.064
Mof_H 	H 	0.6912	0.5226	0.5837	0.03
Mof_C 	C 	0.5439	0.5183	0.6476	-0.06
Mof_H 	H 	0.485	0.5203	0.6481	0.082
Mof_N 	N 	0.9106	0.512	0.8933	-0.17
Mof_N 	N 	0.581	0.5165	0.6111	-0.113
Mof_C 	C 	0.8196	0.5067	0.8226	0.11
Mof_H 	H 	0.786	0.5039	0.8001	0.009
Mof_O 	O 	0.3421	0.1418	0.7138	-0.324
Mof_O 	O 	0.3617	0.1646	0.7725	-0.322
Mof_O 	O 	0.1714	0.1373	0.7896	-0.267
Mof_O 	O 	0.1464	0.166	0.7233	-0.254
Mof_C 	C 	0.3735	0.125	0.7444	0.405
Mof_C 	C 	0.4324	0.0537	0.7469	-0.047
Mof_C 	C 	0.4659	0.0273	0.711	-0.092
Mof_H 	H 	0.4428	0.046	0.6874	0.072
Mof_C 	C 	0.4654	0.0271	0.7834	-0.098
Mof_H 	H 	0.4424	0.0469	0.8069	0.16
Mof_C 	C 	0.4093	0.008	0.8205	-0.212
Mof_C 	C 	0.284	0.0101	0.8605	-0.152
Mof_H 	H 	0.2256	0.0146	0.8615	0.088
Mof_C 	C 	0.3259	0.0076	0.8972	0.092
Mof_H 	H 	0.2981	0.0034	0.9213	0.015
Mof_C 	C 	0.4503	0.003	0.8576	0.203
Mof_H 	H 	0.5084	0.9926	0.8577	-0.116
Mof_C 	C 	0.1342	0.1277	0.7569	0.241
Mof_C 	C 	0.0655	0.0603	0.7567	0.072
Mof_C 	C 	0.032	0.0297	0.7916	-0.188
Mof_H 	H 	0.0529	0.0494	0.8155	0.101
Mof_C 	C 	0.0324	0.0294	0.7215	-0.221
Mof_H 	H 	0.0541	0.0484	0.6976	0.207
Mof_C 	C 	0.0852	0.0167	0.6842	-0.166
Mof_C 	C 	0.1734	0.0208	0.6783	0.083
Mof_H 	H 	0.2067	0.0228	0.701	0.02
Mof_C 	C 	0.2165	0.0221	0.6425	-0.136
Mof_H 	H 	0.2753	0.0239	0.6412	0.083
Mof_C 	C 	0.1657	0.0207	0.6084	0.07
Mof_H 	H 	0.1912	0.0226	0.5837	0.022
Mof_C 	C 	0.0439	0.0183	0.6476	-0.072
Mof_H 	H 	0.985	0.0203	0.6481	0.057
Mof_N 	N 	0.4106	0.012	0.8933	-0.164
Mof_N 	N 	0.081	0.0165	0.6111	-0.119
Mof_C 	C 	0.3196	0.0067	0.8226	0.1
Mof_H 	H 	0.286	0.0039	0.8001	0.01
Mof_O 	O 	0.3421	0.6418	0.2138	-0.33
Mof_O 	O 	0.3617	0.6646	0.2725	-0.329
Mof_O 	O 	0.1714	0.6373	0.2896	-0.271
Mof_O 	O 	0.1464	0.666	0.2233	-0.258
Mof_C 	C 	0.3735	0.625	0.2444	0.429
Mof_C 	C 	0.4324	0.5537	0.2469	-0.098
Mof_C 	C 	0.4659	0.5273	0.211	-0.011
Mof_H 	H 	0.4428	0.546	0.1874	0.048
Mof_C 	C 	0.4654	0.5271	0.2834	-0.017
Mof_H 	H 	0.4424	0.5469	0.3069	0.135
Mof_C 	C 	0.4093	0.508	0.3205	-0.216
Mof_C 	C 	0.284	0.5101	0.3605	-0.156
Mof_H 	H 	0.2256	0.5146	0.3615	0.093
Mof_C 	C 	0.3259	0.5076	0.3972	0.098
Mof_H 	H 	0.2981	0.5034	0.4213	0.018
Mof_C 	C 	0.4503	0.503	0.3576	0.244
Mof_H 	H 	0.5084	0.4926	0.3577	-0.09
Mof_C 	C 	0.1342	0.6277	0.2569	0.262
Mof_C 	C 	0.0655	0.5603	0.2567	0.013
Mof_C 	C 	0.032	0.5297	0.2916	-0.102
Mof_H 	H 	0.0529	0.5494	0.3155	0.076
Mof_C 	C 	0.0324	0.5294	0.2215	-0.121
Mof_H 	H 	0.0541	0.5484	0.1976	0.155
Mof_C 	C 	0.0852	0.5167	0.1842	-0.127
Mof_C 	C 	0.1734	0.5208	0.1783	0.062
Mof_H 	H 	0.2067	0.5228	0.201	0.029
Mof_C 	C 	0.2165	0.5221	0.1425	-0.121
Mof_H 	H 	0.2753	0.5239	0.1412	0.081
Mof_C 	C 	0.1657	0.5207	0.1084	0.066
Mof_H 	H 	0.1912	0.5226	0.0837	0.028
Mof_C 	C 	0.0439	0.5183	0.1476	-0.064
Mof_H 	H 	0.985	0.5203	0.1481	0.095
Mof_N 	N 	0.4106	0.512	0.3933	-0.169
Mof_N 	N 	0.081	0.5165	0.1111	-0.115
Mof_C 	C 	0.3196	0.5067	0.3226	0.106
Mof_H 	H 	0.286	0.5039	0.3001	0.01
Mof_O 	O 	0.4079	0.3918	0.4638	-0.331
Mof_O 	O 	0.3883	0.4146	0.5225	-0.33
Mof_O 	O 	0.5786	0.3873	0.5396	-0.274
Mof_O 	O 	0.6036	0.416	0.4733	-0.261
Mof_C 	C 	0.3765	0.375	0.4944	0.428
Mof_C 	C 	0.3176	0.3037	0.4969	-0.098
Mof_C 	C 	0.2841	0.2773	0.461	-0.012
Mof_H 	H 	0.3072	0.296	0.4374	0.047
Mof_C 	C 	0.2846	0.2771	0.5334	-0.017
Mof_H 	H 	0.3076	0.2969	0.5569	0.145
Mof_C 	C 	0.3407	0.258	0.5705	-0.247
Mof_C 	C 	0.466	0.2601	0.6105	-0.171
Mof_H 	H 	0.5244	0.2646	0.6115	0.098
Mof_C 	C 	0.4241	0.2576	0.6472	0.105
Mof_H 	H 	0.4519	0.2534	0.6713	0.014
Mof_C 	C 	0.2997	0.253	0.6076	0.295
Mof_H 	H 	0.2416	0.2426	0.6077	-0.114
Mof_C 	C 	0.6158	0.3777	0.5069	0.277
Mof_C 	C 	0.6845	0.3103	0.5067	-0.029
Mof_C 	C 	0.718	0.2797	0.5416	-0.035
Mof_H 	H 	0.6971	0.2994	0.5655	0.056
Mof_C 	C 	0.7176	0.2794	0.4715	-0.052
Mof_H 	H 	0.6959	0.2984	0.4476	0.134
Mof_C 	C 	0.6648	0.2667	0.4342	-0.131
Mof_C 	C 	0.5766	0.2708	0.4283	0.065
Mof_H 	H 	0.5433	0.2728	0.451	0.027
Mof_C 	C 	0.5335	0.2721	0.3925	-0.124
Mof_H 	H 	0.4747	0.2739	0.3912	0.081
Mof_C 	C 	0.5843	0.2707	0.3584	0.068
Mof_H 	H 	0.5588	0.2726	0.3337	0.026
Mof_C 	C 	0.7061	0.2683	0.3976	-0.027
Mof_H 	H 	0.765	0.2703	0.3981	0.067
Mof_N 	N 	0.3394	0.262	0.6433	-0.18
Mof_N 	N 	0.669	0.2665	0.3611	-0.12
Mof_C 	C 	0.4304	0.2567	0.5726	0.125
Mof_H 	H 	0.464	0.2539	0.5501	0.003
Mof_O 	O 	0.4079	0.8918	0.9638	-0.318
Mof_O 	O 	0.3883	0.9146	0.0225	-0.316
Mof_O 	O 	0.5786	0.8873	0.0396	-0.266
Mof_O 	O 	0.6036	0.916	0.9733	-0.254
Mof_C 	C 	0.3765	0.875	0.9944	0.419
Mof_C 	C 	0.3176	0.8037	0.9969	-0.095
Mof_C 	C 	0.2841	0.7773	0.961	-0.013
Mof_H 	H 	0.3072	0.796	0.9374	0.051
Mof_C 	C 	0.2846	0.7771	0.0334	-0.016
Mof_H 	H 	0.3076	0.7969	0.0569	0.145
Mof_C 	C 	0.3407	0.758	0.0705	-0.248
Mof_C 	C 	0.466	0.7601	0.1105	-0.171
Mof_H 	H 	0.5244	0.7646	0.1115	0.102
Mof_C 	C 	0.4241	0.7576	0.1472	0.107
Mof_H 	H 	0.4519	0.7534	0.1713	0.016
Mof_C 	C 	0.2997	0.753	0.1076	0.299
Mof_H 	H 	0.2416	0.7426	0.1077	-0.116
Mof_C 	C 	0.6158	0.8777	0.0069	0.279
Mof_C 	C 	0.6845	0.8103	0.0067	-0.024
Mof_C 	C 	0.718	0.7797	0.0416	-0.035
Mof_H 	H 	0.6971	0.7994	0.0655	0.06
Mof_C 	C 	0.7176	0.7794	0.9715	-0.055
Mof_H 	H 	0.6959	0.7984	0.9476	0.135
Mof_C 	C 	0.6648	0.7667	0.9342	-0.129
Mof_C 	C 	0.5766	0.7708	0.9283	0.065
Mof_H 	H 	0.5433	0.7728	0.951	0.028
Mof_C 	C 	0.5335	0.7721	0.8925	-0.122
Mof_H 	H 	0.4747	0.7739	0.8912	0.084
Mof_C 	C 	0.5843	0.7707	0.8584	0.069
Mof_H 	H 	0.5588	0.7726	0.8337	0.029
Mof_C 	C 	0.7061	0.7683	0.8976	-0.03
Mof_H 	H 	0.765	0.7703	0.8981	0.069
Mof_N 	N 	0.3394	0.762	0.1433	-0.18
Mof_N 	N 	0.669	0.7665	0.8611	-0.119
Mof_C 	C 	0.4304	0.7567	0.0726	0.127
Mof_H 	H 	0.464	0.7539	0.0501	0.004
Mof_O 	O 	0.9079	0.3918	0.9638	-0.321
Mof_O 	O 	0.8883	0.4146	0.0225	-0.318
Mof_O 	O 	0.0786	0.3873	0.0396	-0.278
Mof_O 	O 	0.1036	0.416	0.9733	-0.264
Mof_C 	C 	0.8765	0.375	0.9944	0.421
Mof_C 	C 	0.8176	0.3037	0.9969	-0.098
Mof_C 	C 	0.7841	0.2773	0.961	-0.013
Mof_H 	H 	0.8072	0.296	0.9374	0.049
Mof_C 	C 	0.7846	0.2771	0.0334	-0.013
Mof_H 	H 	0.8076	0.2969	0.0569	0.116
Mof_C 	C 	0.8407	0.258	0.0705	-0.163
Mof_C 	C 	0.966	0.2601	0.1105	-0.085
Mof_H 	H 	0.0244	0.2646	0.1115	0.057
Mof_C 	C 	0.9241	0.2576	0.1472	0.064
Mof_H 	H 	0.9519	0.2534	0.1713	0.034
Mof_C 	C 	0.7997	0.253	0.1076	0.177
Mof_H 	H 	0.7416	0.2426	0.1077	-0.057
Mof_C 	C 	0.1158	0.3777	0.0069	0.278
Mof_C 	C 	0.1845	0.3103	0.0067	-0.027
Mof_C 	C 	0.218	0.2797	0.0416	-0.037
Mof_H 	H 	0.1971	0.2994	0.0655	0.056
Mof_C 	C 	0.2176	0.2794	0.9715	-0.057
Mof_H 	H 	0.1959	0.2984	0.9476	0.13
Mof_C 	C 	0.1648	0.2667	0.9342	-0.116
Mof_C 	C 	0.0766	0.2708	0.9283	0.077
Mof_H 	H 	0.0433	0.2728	0.951	0.017
Mof_C 	C 	0.0335	0.2721	0.8925	-0.165
Mof_H 	H 	0.9747	0.2739	0.8912	0.108
Mof_C 	C 	0.0843	0.2707	0.8584	0.084
Mof_H 	H 	0.0588	0.2726	0.8337	0.017
Mof_C 	C 	0.2061	0.2683	0.8976	-0.08
Mof_H 	H 	0.265	0.2703	0.8981	0.099
Mof_N 	N 	0.8394	0.262	0.1433	-0.151
Mof_N 	N 	0.169	0.2665	0.8611	-0.115
Mof_C 	C 	0.9304	0.2567	0.0726	0.055
Mof_H 	H 	0.964	0.2539	0.0501	0.034
Mof_O 	O 	0.9079	0.8918	0.4638	-0.311
Mof_O 	O 	0.8883	0.9146	0.5225	-0.312
Mof_O 	O 	0.0786	0.8873	0.5396	-0.268
Mof_O 	O 	0.1036	0.916	0.4733	-0.252
Mof_C 	C 	0.8765	0.875	0.4944	0.42
Mof_C 	C 	0.8176	0.8037	0.4969	-0.09
Mof_C 	C 	0.7841	0.7773	0.461	-0.014
Mof_H 	H 	0.8072	0.796	0.4374	0.053
Mof_C 	C 	0.7846	0.7771	0.5334	-0.017
Mof_H 	H 	0.8076	0.7969	0.5569	0.121
Mof_C 	C 	0.8407	0.758	0.5705	-0.172
Mof_C 	C 	0.966	0.7601	0.6105	-0.091
Mof_H 	H 	0.0244	0.7646	0.6115	0.063
Mof_C 	C 	0.9241	0.7576	0.6472	0.068
Mof_H 	H 	0.9519	0.7534	0.6713	0.034
Mof_C 	C 	0.7997	0.753	0.6076	0.192
Mof_H 	H 	0.7416	0.7426	0.6077	-0.064
Mof_C 	C 	0.1158	0.8777	0.5069	0.275
Mof_C 	C 	0.1845	0.8103	0.5067	-0.027
Mof_C 	C 	0.218	0.7797	0.5416	-0.036
Mof_H 	H 	0.1971	0.7994	0.5655	0.059
Mof_C 	C 	0.2176	0.7794	0.4715	-0.054
Mof_H 	H 	0.1959	0.7984	0.4476	0.13
Mof_C 	C 	0.1648	0.7667	0.4342	-0.116
Mof_C 	C 	0.0766	0.7708	0.4283	0.078
Mof_H 	H 	0.0433	0.7728	0.451	0.019
Mof_C 	C 	0.0335	0.7721	0.3925	-0.163
Mof_H 	H 	0.9747	0.7739	0.3912	0.11
Mof_C 	C 	0.0843	0.7707	0.3584	0.085
Mof_H 	H 	0.0588	0.7726	0.3337	0.02
Mof_C 	C 	0.2061	0.7683	0.3976	-0.077
Mof_H 	H 	0.265	0.7703	0.3981	0.097
Mof_N 	N 	0.8394	0.762	0.6433	-0.154
Mof_N 	N 	0.169	0.7665	0.3611	-0.115
Mof_C 	C 	0.9304	0.7567	0.5726	0.063
Mof_H 	H 	0.964	0.7539	0.5501	0.032
Mof_O 	O 	0.0921	0.1082	0.4638	-0.337
Mof_O 	O 	0.1117	0.0854	0.5225	-0.333
Mof_O 	O 	0.9214	0.1127	0.5396	-0.268
Mof_O 	O 	0.8964	0.084	0.4733	-0.257
Mof_C 	C 	0.1235	0.125	0.4944	0.427
Mof_C 	C 	0.1824	0.1963	0.4969	-0.099
Mof_C 	C 	0.2159	0.2227	0.461	-0.012
Mof_H 	H 	0.1928	0.204	0.4374	0.045
Mof_C 	C 	0.2154	0.2229	0.5334	-0.02
Mof_H 	H 	0.1924	0.2031	0.5569	0.15
Mof_C 	C 	0.1593	0.242	0.5705	-0.261
Mof_C 	C 	0.034	0.2399	0.6105	-0.223
Mof_H 	H 	0.9756	0.2354	0.6115	0.129
Mof_C 	C 	0.0759	0.2424	0.6472	0.129
Mof_H 	H 	0.0481	0.2466	0.6713	0.002
Mof_C 	C 	0.2003	0.247	0.6076	0.299
Mof_H 	H 	0.2584	0.2574	0.6077	-0.12
Mof_C 	C 	0.8842	0.1223	0.5069	0.277
Mof_C 	C 	0.8155	0.1897	0.5067	-0.039
Mof_C 	C 	0.782	0.2203	0.5416	-0.025
Mof_H 	H 	0.8029	0.2006	0.5655	0.052
Mof_C 	C 	0.7824	0.2206	0.4715	-0.031
Mof_H 	H 	0.8041	0.2016	0.4476	0.109
Mof_C 	C 	0.8352	0.2333	0.4342	-0.089
Mof_C 	C 	0.9234	0.2292	0.4283	0.019
Mof_H 	H 	0.9567	0.2272	0.451	0.05
Mof_C 	C 	0.9665	0.2279	0.3925	-0.057
Mof_H 	H 	0.0253	0.2261	0.3912	0.046
Mof_C 	C 	0.9157	0.2293	0.3584	0.039
Mof_H 	H 	0.9412	0.2274	0.3337	0.04
Mof_C 	C 	0.7939	0.2317	0.3976	-0.044
Mof_H 	H 	0.735	0.2297	0.3981	0.065
Mof_N 	N 	0.1606	0.238	0.6433	-0.185
Mof_N 	N 	0.831	0.2335	0.3611	-0.111
Mof_C 	C 	0.0696	0.2433	0.5726	0.153
Mof_H 	H 	0.036	0.2461	0.5501	-0.011
Mof_O 	O 	0.0921	0.6082	0.9638	-0.332
Mof_O 	O 	0.1117	0.5854	0.0225	-0.327
Mof_O 	O 	0.9214	0.6127	0.0396	-0.267
Mof_O 	O 	0.8964	0.584	0.9733	-0.258
Mof_C 	C 	0.1235	0.625	0.9944	0.424
Mof_C 	C 	0.1824	0.6963	0.9969	-0.101
Mof_C 	C 	0.2159	0.7227	0.961	-0.009
Mof_H 	H 	0.1928	0.704	0.9374	0.048
Mof_C 	C 	0.2154	0.7229	0.0334	-0.014
Mof_H 	H 	0.1924	0.7031	0.0569	0.149
Mof_C 	C 	0.1593	0.742	0.0705	-0.26
Mof_C 	C 	0.034	0.7399	0.1105	-0.221
Mof_H 	H 	0.9756	0.7354	0.1115	0.13
Mof_C 	C 	0.0759	0.7424	0.1472	0.13
Mof_H 	H 	0.0481	0.7466	0.1713	0.004
Mof_C 	C 	0.2003	0.747	0.1076	0.303
Mof_H 	H 	0.2584	0.7574	0.1077	-0.121
Mof_C 	C 	0.8842	0.6223	0.0069	0.282
Mof_C 	C 	0.8155	0.6897	0.0067	-0.036
Mof_C 	C 	0.782	0.7203	0.0416	-0.023
Mof_H 	H 	0.8029	0.7006	0.0655	0.055
Mof_C 	C 	0.7824	0.7206	0.9715	-0.033
Mof_H 	H 	0.8041	0.7016	0.9476	0.109
Mof_C 	C 	0.8352	0.7333	0.9342	-0.088
Mof_C 	C 	0.9234	0.7292	0.9283	0.021
Mof_H 	H 	0.9567	0.7272	0.951	0.049
Mof_C 	C 	0.9665	0.7279	0.8925	-0.058
Mof_H 	H 	0.0253	0.7261	0.8912	0.05
Mof_C 	C 	0.9157	0.7293	0.8584	0.041
Mof_H 	H 	0.9412	0.7274	0.8337	0.042
Mof_C 	C 	0.7939	0.7317	0.8976	-0.047
Mof_H 	H 	0.735	0.7297	0.8981	0.067
Mof_N 	N 	0.1606	0.738	0.1433	-0.185
Mof_N 	N 	0.831	0.7335	0.8611	-0.11
Mof_C 	C 	0.0696	0.7433	0.0726	0.154
Mof_H 	H 	0.036	0.7461	0.0501	-0.01
Mof_O 	O 	0.5921	0.1082	0.9638	-0.333
Mof_O 	O 	0.6117	0.0854	0.0225	-0.328
Mof_O 	O 	0.4214	0.1127	0.0396	-0.278
Mof_O 	O 	0.3964	0.084	0.9733	-0.266
Mof_C 	C 	0.6235	0.125	0.9944	0.425
Mof_C 	C 	0.6824	0.1963	0.9969	-0.102
Mof_C 	C 	0.7159	0.2227	0.961	-0.01
Mof_H 	H 	0.6928	0.204	0.9374	0.046
Mof_C 	C 	0.7154	0.2229	0.0334	-0.013
Mof_H 	H 	0.6924	0.2031	0.0569	0.12
Mof_C 	C 	0.6593	0.242	0.0705	-0.177
Mof_C 	C 	0.534	0.2399	0.1105	-0.137
Mof_H 	H 	0.4756	0.2354	0.1115	0.087
Mof_C 	C 	0.5759	0.2424	0.1472	0.087
Mof_H 	H 	0.5481	0.2466	0.1713	0.021
Mof_C 	C 	0.7003	0.247	0.1076	0.181
Mof_H 	H 	0.7584	0.2574	0.1077	-0.062
Mof_C 	C 	0.3842	0.1223	0.0069	0.281
Mof_C 	C 	0.3155	0.1897	0.0067	-0.039
Mof_C 	C 	0.282	0.2203	0.0416	-0.026
Mof_H 	H 	0.3029	0.2006	0.0655	0.051
Mof_C 	C 	0.2824	0.2206	0.9715	-0.034
Mof_H 	H 	0.3041	0.2016	0.9476	0.104
Mof_C 	C 	0.3352	0.2333	0.9342	-0.075
Mof_C 	C 	0.4234	0.2292	0.9283	0.032
Mof_H 	H 	0.4567	0.2272	0.951	0.039
Mof_C 	C 	0.4665	0.2279	0.8925	-0.1
Mof_H 	H 	0.5253	0.2261	0.8912	0.072
Mof_C 	C 	0.4157	0.2293	0.8584	0.056
Mof_H 	H 	0.4412	0.2274	0.8337	0.031
Mof_C 	C 	0.2939	0.2317	0.8976	-0.097
Mof_H 	H 	0.235	0.2297	0.8981	0.097
Mof_N 	N 	0.6606	0.238	0.1433	-0.156
Mof_N 	N 	0.331	0.2335	0.8611	-0.106
Mof_C 	C 	0.5696	0.2433	0.0726	0.083
Mof_H 	H 	0.536	0.2461	0.0501	0.02
Mof_O 	O 	0.5921	0.6082	0.4638	-0.33
Mof_O 	O 	0.6117	0.5854	0.5225	-0.329
Mof_O 	O 	0.4214	0.6127	0.5396	-0.275
Mof_O 	O 	0.3964	0.584	0.4733	-0.262
Mof_C 	C 	0.6235	0.625	0.4944	0.429
Mof_C 	C 	0.6824	0.6963	0.4969	-0.099
Mof_C 	C 	0.7159	0.7227	0.461	-0.007
Mof_H 	H 	0.6928	0.704	0.4374	0.049
Mof_C 	C 	0.7154	0.7229	0.5334	-0.013
Mof_H 	H 	0.6924	0.7031	0.5569	0.123
Mof_C 	C 	0.6593	0.742	0.5705	-0.184
Mof_C 	C 	0.534	0.7399	0.6105	-0.141
Mof_H 	H 	0.4756	0.7354	0.6115	0.091
Mof_C 	C 	0.5759	0.7424	0.6472	0.091
Mof_H 	H 	0.5481	0.7466	0.6713	0.022
Mof_C 	C 	0.7003	0.747	0.6076	0.195
Mof_H 	H 	0.7584	0.7574	0.6077	-0.069
Mof_C 	C 	0.3842	0.6223	0.5069	0.28
Mof_C 	C 	0.3155	0.6897	0.5067	-0.041
Mof_C 	C 	0.282	0.7203	0.5416	-0.023
Mof_H 	H 	0.3029	0.7006	0.5655	0.053
Mof_C 	C 	0.2824	0.7206	0.4715	-0.03
Mof_H 	H 	0.3041	0.7016	0.4476	0.103
Mof_C 	C 	0.3352	0.7333	0.4342	-0.074
Mof_C 	C 	0.4234	0.7292	0.4283	0.033
Mof_H 	H 	0.4567	0.7272	0.451	0.04
Mof_C 	C 	0.4665	0.7279	0.3925	-0.099
Mof_H 	H 	0.5253	0.7261	0.3912	0.076
Mof_C 	C 	0.4157	0.7293	0.3584	0.057
Mof_H 	H 	0.4412	0.7274	0.3337	0.033
Mof_C 	C 	0.2939	0.7317	0.3976	-0.094
Mof_H 	H 	0.235	0.7297	0.3981	0.096
Mof_N 	N 	0.6606	0.738	0.6433	-0.158
Mof_N 	N 	0.331	0.7335	0.3611	-0.106
Mof_C 	C 	0.5696	0.7433	0.5726	0.089
Mof_H 	H 	0.536	0.7461	0.5501	0.018
Mof_Cd	Cd	0.25	0.75	0.30141	0.469
Mof_Cd	Cd	0.25	0.75	0.19969	0.482
Mof_Cd	Cd	0.25	0.25	0.80141	0.467
Mof_Cd	Cd	0.25	0.25	0.69969	0.48
Mof_Cd	Cd	0.75	0.25	0.30141	0.469
Mof_Cd	Cd	0.75	0.25	0.19969	0.481
Mof_Cd	Cd	0.75	0.75	0.80141	0.471
Mof_Cd	Cd	0.75	0.75	0.69969	0.483
Mof_Cd	Cd	0.5	0.5	0.55141	0.469
Mof_Cd	Cd	0.5	0.5	0.44969	0.482
Mof_Cd	Cd	0.5	0	0.05141	0.451
Mof_Cd	Cd	0.5	0	0.94969	0.462
Mof_Cd	Cd	4.43569e-33	0	0.55141	0.435
Mof_Cd	Cd	3.61743e-33	0	0.44969	0.447
Mof_Cd	Cd	1.88786e-33	0.5	0.05141	0.454
Mof_Cd	Cd	7.63957e-33	0.5	0.94969	0.466
_end
