# CIF file generated by openbabel 3.1.0, see https://openbabel.org
data_I
_chemical_name_common 'HIMSAY_clean'
_cell_length_a 11.361
_cell_length_b 12.645
_cell_length_c 14.775
_cell_angle_alpha 90
_cell_angle_beta 90
_cell_angle_gamma 90
_space_group_name_H-M_alt 'P 1'
_space_group_name_Hall 'P 1'
loop_
    _symmetry_equiv_pos_as_xyz
    x,y,z
loop_
    _atom_site_label
    _atom_site_type_symbol
    _atom_site_fract_x
    _atom_site_fract_y
    _atom_site_fract_z
    _atom_site_occupancy
    Zn1      Zn       0.50000    0.00000    0.75000    1.000
    Zn2      Zn       0.50000    0.00000    0.25000    1.000
    H1       H        0.69380    0.71670    0.86300    1.000
    H2       H        0.82960    0.57990    0.86330    1.000
    H3       H        0.70780    0.84880    0.72080    1.000
    H4       H        0.91170    0.84350    0.72200    1.000
    H5       H        0.30620    0.28330    0.86300    1.000
    H6       H        0.17040    0.42010    0.86330    1.000
    H7       H        0.29220    0.15120    0.72080    1.000
    H8       H        0.08830    0.15650    0.72200    1.000
    H9       H        0.30620    0.71670    0.63700    1.000
    H10      H        0.17040    0.57990    0.63670    1.000
    H11      H        0.29220    0.84880    0.77920    1.000
    H12      H        0.08830    0.84350    0.77800    1.000
    H13      H        0.69380    0.28330    0.63700    1.000
    H14      H        0.82960    0.42010    0.63670    1.000
    H15      H        0.70780    0.15120    0.77920    1.000
    H16      H        0.91170    0.15650    0.77800    1.000
    H17      H        0.30620    0.28330    0.13700    1.000
    H18      H        0.17040    0.42010    0.13670    1.000
    H19      H        0.29220    0.15120    0.27920    1.000
    H20      H        0.08830    0.15650    0.27800    1.000
    H21      H        0.69380    0.71670    0.13700    1.000
    H22      H        0.82960    0.57990    0.13670    1.000
    H23      H        0.70780    0.84880    0.27920    1.000
    H24      H        0.91170    0.84350    0.27800    1.000
    H25      H        0.69380    0.28330    0.36300    1.000
    H26      H        0.82960    0.42010    0.36330    1.000
    H27      H        0.70780    0.15120    0.22080    1.000
    H28      H        0.91170    0.15650    0.22200    1.000
    H29      H        0.30620    0.71670    0.36300    1.000
    H30      H        0.17040    0.57990    0.36330    1.000
    H31      H        0.29220    0.84880    0.22080    1.000
    H32      H        0.08830    0.84350    0.22200    1.000
    C1       C        0.53690    0.84800    0.91987    1.000
    C2       C        0.71975    0.68789    0.91896    1.000
    C3       C        0.80113    0.60746    0.91897    1.000
    C4       C        0.91913    0.40893    0.91916    1.000
    C5       C        0.75010    0.91192    0.73337    1.000
    C6       C        0.87180    0.90817    0.73331    1.000
    C7       C        0.46310    0.15200    0.91987    1.000
    C8       C        0.28025    0.31211    0.91896    1.000
    C9       C        0.19887    0.39254    0.91897    1.000
    C10      C        0.08087    0.59107    0.91916    1.000
    C11      C        0.24990    0.08808    0.73337    1.000
    C12      C        0.12820    0.09183    0.73331    1.000
    C13      C        0.46310    0.84800    0.58013    1.000
    C14      C        0.28025    0.68789    0.58104    1.000
    C15      C        0.19887    0.60746    0.58103    1.000
    C16      C        0.08087    0.40893    0.58084    1.000
    C17      C        0.24990    0.91192    0.76663    1.000
    C18      C        0.12820    0.90817    0.76669    1.000
    C19      C        0.53690    0.15200    0.58013    1.000
    C20      C        0.71975    0.31211    0.58104    1.000
    C21      C        0.80113    0.39254    0.58103    1.000
    C22      C        0.91913    0.59107    0.58084    1.000
    C23      C        0.75010    0.08808    0.76663    1.000
    C24      C        0.87180    0.09183    0.76669    1.000
    C25      C        0.46310    0.15200    0.08013    1.000
    C26      C        0.28025    0.31211    0.08104    1.000
    C27      C        0.19887    0.39254    0.08103    1.000
    C28      C        0.08087    0.59107    0.08084    1.000
    C29      C        0.24990    0.08808    0.26663    1.000
    C30      C        0.12820    0.09183    0.26669    1.000
    C31      C        0.53690    0.84800    0.08013    1.000
    C32      C        0.71975    0.68789    0.08104    1.000
    C33      C        0.80113    0.60746    0.08103    1.000
    C34      C        0.91913    0.40893    0.08084    1.000
    C35      C        0.75010    0.91192    0.26663    1.000
    C36      C        0.87180    0.90817    0.26669    1.000
    C37      C        0.53690    0.15200    0.41987    1.000
    C38      C        0.71975    0.31211    0.41896    1.000
    C39      C        0.80113    0.39254    0.41897    1.000
    C40      C        0.91913    0.59107    0.41916    1.000
    C41      C        0.75010    0.08808    0.23337    1.000
    C42      C        0.87180    0.09183    0.23331    1.000
    C43      C        0.46310    0.84800    0.41987    1.000
    C44      C        0.28025    0.68789    0.41896    1.000
    C45      C        0.19887    0.60746    0.41897    1.000
    C46      C        0.08087    0.40893    0.41916    1.000
    C47      C        0.24990    0.91192    0.23337    1.000
    C48      C        0.12820    0.90817    0.23331    1.000
    C49      C        0.93465    0.00000    0.75000    1.000
    C50      C        0.06535    0.00000    0.75000    1.000
    C51      C        0.06535    0.00000    0.25000    1.000
    C52      C        0.93465    0.00000    0.25000    1.000
    C53      C        0.58293    0.80764    0.00000    1.000
    C54      C        0.67443    0.72807    0.00000    1.000
    C55      C        0.84170    0.56580    0.00000    1.000
    C56      C        0.93330    0.47806    0.00000    1.000
    C57      C        0.41707    0.19236    0.00000    1.000
    C58      C        0.32557    0.27193    0.00000    1.000
    C59      C        0.15830    0.43420    0.00000    1.000
    C60      C        0.06670    0.52194    0.00000    1.000
    C61      C        0.41707    0.80764    0.50000    1.000
    C62      C        0.32557    0.72807    0.50000    1.000
    C63      C        0.15830    0.56580    0.50000    1.000
    C64      C        0.06670    0.47806    0.50000    1.000
    C65      C        0.58293    0.19236    0.50000    1.000
    C66      C        0.67443    0.27193    0.50000    1.000
    C67      C        0.84170    0.43420    0.50000    1.000
    C68      C        0.93330    0.52194    0.50000    1.000
    N1       N        0.50048    0.88025    0.85257    1.000
    N2       N        0.90630    0.35832    0.85731    1.000
    N3       N        0.49952    0.11975    0.85257    1.000
    N4       N        0.09370    0.64168    0.85731    1.000
    N5       N        0.49952    0.88025    0.64743    1.000
    N6       N        0.09370    0.35832    0.64269    1.000
    N7       N        0.50048    0.11975    0.64743    1.000
    N8       N        0.90630    0.64168    0.64269    1.000
    N9       N        0.49952    0.11975    0.14743    1.000
    N10      N        0.09370    0.64168    0.14269    1.000
    N11      N        0.50048    0.88025    0.14743    1.000
    N12      N        0.90630    0.35832    0.14269    1.000
    N13      N        0.50048    0.11975    0.35257    1.000
    N14      N        0.90630    0.64168    0.35731    1.000
    N15      N        0.49952    0.88025    0.35257    1.000
    N16      N        0.09370    0.35832    0.35731    1.000
    N17      N        0.68946    0.00000    0.75000    1.000
    N18      N        0.31054    0.00000    0.75000    1.000
    N19      N        0.31054    0.00000    0.25000    1.000
    N20      N        0.68946    0.00000    0.25000    1.000
