# CIF file generated by openbabel 3.1.0, see https://openbabel.org
data_I
_chemical_name_common 'image0'
_cell_length_a 15.482
_cell_length_b 16.212
_cell_length_c 19.631
_cell_angle_alpha 93.931
_cell_angle_beta 103.836
_cell_angle_gamma 106.406
_space_group_name_H-M_alt 'P 1'
_space_group_name_Hall 'P 1'
loop_
    _symmetry_equiv_pos_as_xyz
    x,y,z
loop_
    _atom_site_label
    _atom_site_type_symbol
    _atom_site_fract_x
    _atom_site_fract_y
    _atom_site_fract_z
    _atom_site_occupancy
    Cd1      Cd       0.07736    0.08852    0.19578    1.000
    Cd2      Cd       0.67644    0.55165    0.34865    1.000
    C1       C        0.92260    0.95510    0.22820    1.000
    C2       C        0.82230    0.89990    0.21960    1.000
    C3       C        0.75120    0.91520    0.17250    1.000
    H1       H        0.76360    0.96400    0.14980    1.000
    C4       C        0.65980    0.85970    0.15720    1.000
    C5       C        0.64270    0.78330    0.18700    1.000
    H2       H        0.58320    0.74300    0.17440    1.000
    C6       C        0.71540    0.76790    0.23560    1.000
    C7       C        0.80520    0.82620    0.25360    1.000
    H3       H        0.85310    0.81650    0.28760    1.000
    C8       C        0.58230    0.87680    0.10210    1.000
    C9       C        0.69940    0.68560    0.26970    1.000
    C10      C        0.19330    0.23420    0.27550    1.000
    C11      C        0.25720    0.31670    0.32390    1.000
    C12      C        0.24090    0.34210    0.38610    1.000
    H4       H        0.18770    0.30930    0.39730    1.000
    C13      C        0.30020    0.41430    0.43310    1.000
    C14      C        0.37660    0.46340    0.41660    1.000
    H5       H        0.41410    0.51430    0.44670    1.000
    C15      C        0.40100    0.43990    0.35530    1.000
    C16      C        0.34370    0.36270    0.30860    1.000
    H6       H        0.36100    0.34270    0.27000    1.000
    C17      C        0.49040    0.48860    0.34170    1.000
    C18      C        0.29100    0.43290    0.50880    1.000
    C19      C        0.59120    0.88340    0.91510    1.000
    H7       H        0.57250    0.84400    0.94510    1.000
    C20      C        0.63730    0.86280    0.86900    1.000
    H8       H        0.65100    0.81050    0.86840    1.000
    C21      C        0.66310    0.91800    0.82400    1.000
    H9       H        0.69320    0.90350    0.79150    1.000
    C22      C        0.64480    0.99470    0.82650    1.000
    C23      C        0.59820    0.01430    0.87180    1.000
    H10      H        0.58350    0.06610    0.87110    1.000
    C24      C        0.67130    0.05910    0.77540    1.000
    H11      H        0.66210    0.11370    0.78990    1.000
    H12      H        0.73670    0.07030    0.77710    1.000
    C25      C        0.64030    0.07310    0.64630    1.000
    H13      H        0.69820    0.06780    0.63870    1.000
    H14      H        0.64600    0.13410    0.65700    1.000
    C26      C        0.55480    0.02580    0.58200    1.000
    H15      H        0.54970    0.96460    0.57560    1.000
    H16      H        0.49810    0.03060    0.59230    1.000
    C27      C        0.11530    0.08400    0.04760    1.000
    H17      H        0.10730    0.13850    0.05350    1.000
    C28      C        0.13930    0.05880    0.98870    1.000
    H18      H        0.14400    0.09540    0.95440    1.000
    C29      C        0.15650    0.98100    0.97890    1.000
    H19      H        0.17430    0.96420    0.93940    1.000
    C30      C        0.14580    0.92890    0.03140    1.000
    C31      C        0.11860    0.95650    0.08700    1.000
    H20      H        0.11000    0.91990    0.12090    1.000
    C32      C        0.16780    0.84320    0.02380    1.000
    H21      H        0.20050    0.84330    0.98740    1.000
    H22      H        0.20920    0.83870    0.06810    1.000
    C33      C        0.10050    0.68400    0.98340    1.000
    H23      H        0.16100    0.68330    0.01130    1.000
    H24      H        0.09970    0.67880    0.93370    1.000
    C34      C        0.02090    0.60760    0.99620    1.000
    H25      H        0.01560    0.61610    0.04420    1.000
    H26      H        0.96120    0.60180    0.96310    1.000
    N1       N        0.10330    0.03280    0.09620    1.000
    N2       N        0.08290    0.76590    0.00510    1.000
    H27      H        0.05950    0.75970    0.04240    1.000
    H28      H        0.04010    0.77520    0.96990    1.000
    N3       N        0.57160    0.96010    0.91890    1.000
    N4       N        0.61290    0.02330    0.70200    1.000
    H29      H        0.61470    0.96950    0.69220    1.000
    H30      H        0.55400    0.01980    0.70020    1.000
    O1       O        0.93650    0.01650    0.19460    1.000
    O2       O        0.98850    0.93860    0.27210    1.000
    O3       O        0.12600    0.19170    0.29500    1.000
    O4       O        0.21300    0.21280    0.21960    1.000
    O5       O        0.59520    0.95400    0.08910    1.000
    O6       O        0.51050    0.81410    0.07630    1.000
    O7       O        0.52680    0.45140    0.30520    1.000
    O8       O        0.32880    0.50820    0.54180    1.000
    O9       O        0.25120    0.36930    0.53500    1.000
    O10      O        0.75710    0.67960    0.32010    1.000
    O11      O        0.62600    0.62640    0.24420    1.000
    O12      O        0.53180    0.56640    0.37460    1.000
    C35      C        0.56300    0.06180    0.51270    1.000
    H31      H        0.56940    0.12280    0.51720    1.000
    H32      H        0.61740    0.05270    0.50260    1.000
    C36      C        0.05320    0.52660    0.98320    1.000
    H33      H        0.05600    0.52110    0.93480    1.000
    H34      H        0.11360    0.53260    0.01410    1.000
    C37      C        0.48970    0.00980    0.55260    1.000
    H35      H        0.47150    0.96760    0.58270    1.000
    H36      H        0.47190    0.06010    0.56380    1.000
    C38      C        0.59680    0.03360    0.56730    1.000
    H37      H        0.61700    0.07750    0.53840    1.000
    H38      H        0.61660    0.98390    0.55580    1.000
    C39      C        0.02400    0.56260    0.03570    1.000
    H39      H        0.08440    0.55580    0.05600    1.000
    H40      H        0.01360    0.60490    0.06660    1.000
    C40      C        0.02640    0.59350    0.96380    1.000
    H41      H        0.96590    0.60060    0.94300    1.000
    H42      H        0.03900    0.55390    0.93100    1.000
    H43      H        0.12550    0.69360    0.94280    1.000
    H44      H        0.15080    0.67890    0.02150    1.000
    H45      H        0.70760    0.08710    0.65540    1.000
    H46      H        0.62700    0.12770    0.65260    1.000
    Cd3      Cd       0.92264    0.91148    0.80422    1.000
    Cd4      Cd       0.32356    0.44835    0.65135    1.000
    C41      C        0.07740    0.04490    0.77180    1.000
    C42      C        0.17770    0.10010    0.78040    1.000
    C43      C        0.24880    0.08480    0.82750    1.000
    H47      H        0.23640    0.03600    0.85020    1.000
    C44      C        0.34020    0.14030    0.84280    1.000
    C45      C        0.35730    0.21670    0.81300    1.000
    H48      H        0.41680    0.25700    0.82560    1.000
    C46      C        0.28460    0.23210    0.76440    1.000
    C47      C        0.19480    0.17380    0.74640    1.000
    H49      H        0.14690    0.18350    0.71240    1.000
    C48      C        0.41770    0.12320    0.89790    1.000
    C49      C        0.30060    0.31440    0.73030    1.000
    C50      C        0.80670    0.76580    0.72450    1.000
    C51      C        0.74280    0.68330    0.67610    1.000
    C52      C        0.75910    0.65790    0.61390    1.000
    H50      H        0.81230    0.69070    0.60270    1.000
    C53      C        0.69980    0.58570    0.56690    1.000
    C54      C        0.62340    0.53660    0.58340    1.000
    H51      H        0.58590    0.48570    0.55330    1.000
    C55      C        0.59900    0.56010    0.64470    1.000
    C56      C        0.65630    0.63730    0.69140    1.000
    H52      H        0.63900    0.65730    0.73000    1.000
    C57      C        0.50960    0.51140    0.65830    1.000
    C58      C        0.70900    0.56710    0.49120    1.000
    C59      C        0.40880    0.11660    0.08490    1.000
    H53      H        0.42750    0.15600    0.05490    1.000
    C60      C        0.36270    0.13720    0.13100    1.000
    H54      H        0.34900    0.18950    0.13160    1.000
    C61      C        0.33690    0.08200    0.17600    1.000
    H55      H        0.30680    0.09650    0.20850    1.000
    C62      C        0.35520    0.00530    0.17350    1.000
    C63      C        0.40180    0.98570    0.12820    1.000
    H56      H        0.41650    0.93390    0.12890    1.000
    C64      C        0.32870    0.94090    0.22460    1.000
    H57      H        0.33790    0.88630    0.21010    1.000
    H58      H        0.26330    0.92970    0.22290    1.000
    C65      C        0.35970    0.92690    0.35370    1.000
    H59      H        0.30180    0.93220    0.36130    1.000
    H60      H        0.35400    0.86590    0.34300    1.000
    C66      C        0.44520    0.97420    0.41800    1.000
    H61      H        0.45030    0.03540    0.42440    1.000
    H62      H        0.50190    0.96940    0.40770    1.000
    C67      C        0.88470    0.91600    0.95240    1.000
    H63      H        0.89270    0.86150    0.94650    1.000
    C68      C        0.86070    0.94120    0.01130    1.000
    H64      H        0.85600    0.90460    0.04560    1.000
    C69      C        0.84350    0.01900    0.02110    1.000
    H65      H        0.82570    0.03580    0.06060    1.000
    C70      C        0.85420    0.07110    0.96860    1.000
    C71      C        0.88140    0.04350    0.91300    1.000
    H66      H        0.89000    0.08010    0.87910    1.000
    C72      C        0.83220    0.15680    0.97620    1.000
    H67      H        0.79950    0.15670    0.01260    1.000
    H68      H        0.79080    0.16130    0.93190    1.000
    C73      C        0.89950    0.31600    0.01660    1.000
    H69      H        0.83900    0.31670    0.98870    1.000
    H70      H        0.90030    0.32120    0.06630    1.000
    C74      C        0.97910    0.39240    0.00380    1.000
    H71      H        0.98440    0.38390    0.95580    1.000
    H72      H        0.03880    0.39820    0.03690    1.000
    N5       N        0.89670    0.96720    0.90380    1.000
    N6       N        0.91710    0.23410    0.99490    1.000
    H73      H        0.94050    0.24030    0.95760    1.000
    H74      H        0.95990    0.22480    0.03010    1.000
    N7       N        0.42840    0.03990    0.08110    1.000
    N8       N        0.38710    0.97670    0.29800    1.000
    H75      H        0.38530    0.03050    0.30780    1.000
    H76      H        0.44600    0.98020    0.29980    1.000
    O13      O        0.06350    0.98350    0.80540    1.000
    O14      O        0.01150    0.06140    0.72790    1.000
    O15      O        0.87400    0.80830    0.70500    1.000
    O16      O        0.78700    0.78720    0.78040    1.000
    O17      O        0.40480    0.04600    0.91090    1.000
    O18      O        0.48950    0.18590    0.92370    1.000
    O19      O        0.47320    0.54860    0.69480    1.000
    O20      O        0.67120    0.49180    0.45820    1.000
    O21      O        0.74880    0.63070    0.46500    1.000
    O22      O        0.24290    0.32040    0.67990    1.000
    O23      O        0.37400    0.37360    0.75580    1.000
    O24      O        0.46820    0.43360    0.62540    1.000
    C75      C        0.43700    0.93820    0.48730    1.000
    H77      H        0.43060    0.87720    0.48280    1.000
    H78      H        0.38260    0.94730    0.49740    1.000
    C76      C        0.94680    0.47340    0.01680    1.000
    H79      H        0.94400    0.47890    0.06520    1.000
    H80      H        0.88640    0.46740    0.98590    1.000
    C77      C        0.51030    0.99020    0.44740    1.000
    H81      H        0.52850    0.03240    0.41730    1.000
    H82      H        0.52810    0.93990    0.43620    1.000
    C78      C        0.40320    0.96640    0.43270    1.000
    H83      H        0.38300    0.92250    0.46160    1.000
    H84      H        0.38340    0.01610    0.44420    1.000
    C79      C        0.97600    0.43740    0.96430    1.000
    H85      H        0.91560    0.44420    0.94400    1.000
    H86      H        0.98640    0.39510    0.93340    1.000
    C80      C        0.97360    0.40650    0.03620    1.000
    H87      H        0.03410    0.39940    0.05700    1.000
    H88      H        0.96100    0.44610    0.06900    1.000
    H89      H        0.87450    0.30640    0.05720    1.000
    H90      H        0.84920    0.32110    0.97850    1.000
    H91      H        0.29240    0.91290    0.34460    1.000
    H92      H        0.37300    0.87230    0.34740    1.000
    Cd5      Cd       0.50000    0.00000    0.00000    1.000
