data_functionalizedCrystal
_audit_creation_method	'EQeq! by Chris Wilmer'
_symmetry_space_group_name_H-M	'P1'
_symmetry_Int_Tables_number	1
_symmetry_cell_setting	triclinic
loop_
_symmetry_equiv_pos_as_xyz
  x,y,z
_cell_length_a	7.6111
_cell_length_b	14.2391
_cell_length_c	14.2391
_cell_angle_alpha	61.5578
_cell_angle_beta	74.4986
_cell_angle_gamma	74.4986
loop_
_atom_site_label
_atom_site_type_symbol
_atom_site_fract_x
_atom_site_fract_y
_atom_site_fract_z
_atom_site_charge
Mof_Cd	Cd	0.5	0	-0	0.38
Mof_Cd	Cd	-0	0	-0	0.365
Mof_H 	H 	0.3071	0.4165	0.9981	0.01
Mof_H 	H 	0.1929	0.0019	0.5835	0.112
Mof_H 	H 	0.2217	0.5835	0.0019	0.126
Mof_H 	H 	0.2783	0.9981	0.4165	0.017
Mof_H 	H 	0.6929	0.5835	0.0019	0.124
Mof_H 	H 	0.8071	0.9981	0.4165	0.021
Mof_H 	H 	0.7783	0.4165	0.9981	0.009
Mof_H 	H 	0.7217	0.0019	0.5835	0.118
Mof_C 	C 	0.1813	0.4504	0.9988	0.172
Mof_C 	C 	0.3187	0.0012	0.5496	-0.221
Mof_C 	C 	0.1305	0.5496	0.0012	-0.259
Mof_C 	C 	0.3695	0.9988	0.4504	0.146
Mof_C 	C 	0.8187	0.5496	0.0012	-0.244
Mof_C 	C 	0.6813	0.9988	0.4504	0.145
Mof_C 	C 	0.8695	0.4504	0.9988	0.181
Mof_C 	C 	0.6305	0.0012	0.5496	-0.218
Mof_C 	C 	0.1062	0.2904	0.9972	0.164
Mof_C 	C 	0.0516	0.3997	0.9971	-0.134
Mof_C 	C 	0.3938	0.0028	0.7096	0.086
Mof_C 	C 	0.4484	0.0029	0.6003	0.121
Mof_C 	C 	0.8938	0.7096	0.0028	0.089
Mof_C 	C 	0.9484	0.6003	0.0029	0.153
Mof_C 	C 	0.6062	0.9972	0.2904	0.168
Mof_C 	C 	0.5516	0.9971	0.3997	-0.103
Mof_N 	N 	0.26573	0.14597	0.99597	-0.042
Mof_N 	N 	0.27805	0.23665	0.99805	-0.078
Mof_N 	N 	0.23427	0.00403	0.85403	-0.045
Mof_N 	N 	0.22195	0.00195	0.76335	-0.073
Mof_N 	N 	0.90767	0.85403	0.00403	-0.035
Mof_N 	N 	0.01275	0.76335	0.00195	-0.081
Mof_N 	N 	0.59233	0.99597	0.14597	-0.041
Mof_N 	N 	0.48725	0.99805	0.23665	-0.079
Mof_N 	N 	0.73427	0.85403	0.00403	-0.042
Mof_N 	N 	0.72195	0.76335	0.00195	-0.071
Mof_N 	N 	0.76573	0.99597	0.14597	-0.038
Mof_N 	N 	0.77805	0.99805	0.23665	-0.076
Mof_N 	N 	0.09233	0.14597	0.99597	-0.048
Mof_N 	N 	0.98725	0.23665	0.99805	-0.068
Mof_N 	N 	0.40767	0.00403	0.85403	-0.043
Mof_N 	N 	0.51275	0.00195	0.76335	-0.07
Mof_Cl	Cl	0.25	0.87655	0.12345	-0.304
Mof_Cl	Cl	0.75	0.12345	0.87655	-0.294
_end
