# CIF file generated by openbabel 3.1.0, see https://openbabel.org
data_I
_chemical_name_common 'image0'
_cell_length_a 12.355
_cell_length_b 33.452
_cell_length_c 12.952
_cell_angle_alpha 90
_cell_angle_beta 97.63
_cell_angle_gamma 90
_space_group_name_H-M_alt 'P 1'
_space_group_name_Hall 'P 1'
loop_
    _symmetry_equiv_pos_as_xyz
    x,y,z
loop_
    _atom_site_label
    _atom_site_type_symbol
    _atom_site_fract_x
    _atom_site_fract_y
    _atom_site_fract_z
    _atom_site_occupancy
    Mn1      Mn       0.79230    0.06795    0.39752    1.000
    N1       N        0.61090    0.13092    0.30780    1.000
    O1       O        0.96640    0.05510    0.40290    1.000
    O2       O        0.72110    0.01273    0.34870    1.000
    N2       N        0.79290    0.08652    0.22790    1.000
    N3       N        0.63450    0.10029    0.37630    1.000
    N4       N        0.74060    0.12017    0.18940    1.000
    C1       C        0.82310    0.06754    0.14510    1.000
    O3       O        0.92060    0.02624    0.61780    1.000
    O4       O        0.79530    0.06960    0.55910    1.000
    O5       O        0.93800    0.11949    0.41260    1.000
    C2       C        0.70140    0.14795    0.26080    1.000
    H1       H        0.67700    0.17280    0.22320    1.000
    H2       H        0.76160    0.15490    0.31620    1.000
    C3       C        0.76430    0.97961    0.37160    1.000
    C4       C        0.00000    0.09088    0.40160    1.000
    C5       C        0.28530    0.07079    0.34360    1.000
    H3       H        0.32610    0.04850    0.32450    1.000
    C6       C        0.53750    0.08850    0.40140    1.000
    C7       C        0.50300    0.13858    0.28930    1.000
    C8       C        0.83470    0.06039    0.74100    1.000
    C9       C        0.45260    0.11209    0.34880    1.000
    C10      C        0.78870    0.08900    0.05360    1.000
    C11      C        0.33620    0.10776    0.35740    1.000
    C12      C        0.70320    0.94259    0.33420    1.000
    C13      C        0.73610    0.12286    0.08430    1.000
    C14      C        0.11640    0.09769    0.38460    1.000
    C15      C        0.85310    0.05111    0.62930    1.000
    C16      C        0.80550    0.07887    0.94600    1.000
    C17      C        0.16340    0.13518    0.39660    1.000
    H4       H        0.12150    0.15750    0.41340    1.000
    N5       N        0.43730    0.78493    0.17290    1.000
    C18      C        0.88270    0.02849    0.15740    1.000
    H5       H        0.93210    0.02630    0.10440    1.000
    H6       H        0.83000    0.00650    0.14890    1.000
    H7       H        0.92510    0.02710    0.22680    1.000
    C19      C        0.68170    0.15645    0.02210    1.000
    H8       H        0.71880    0.18160    0.04370    1.000
    H9       H        0.60510    0.15810    0.03380    1.000
    H10      H        0.68560    0.15180    0.94800    1.000
    C20      C        0.50440    0.83902    0.24870    1.000
    C21      C        0.27270    0.13997    0.38370    1.000
    H11      H        0.30500    0.16570    0.39290    1.000
    C22      C        0.57680    0.87473    0.27520    1.000
    C23      C        0.53070    0.05402    0.47330    1.000
    H12      H        0.52610    0.02910    0.43330    1.000
    H13      H        0.46550    0.05680    0.50840    1.000
    H14      H        0.59590    0.05350    0.52530    1.000
    N6       N        0.36860    0.79405    0.24750    1.000
    C24      C        0.41400    0.82623    0.29300    1.000
    C25      C        0.51770    0.81177    0.17200    1.000
    C26      C        0.73310    0.07000    0.76630    1.000
    H15      H        0.67120    0.06950    0.71430    1.000
    C27      C        0.45600    0.16865    0.21250    1.000
    H16      H        0.49070    0.19460    0.22910    1.000
    H17      H        0.37730    0.17090    0.21490    1.000
    H18      H        0.46870    0.16040    0.14250    1.000
    C28      C        0.58360    0.90240    0.21060    1.000
    H19      H        0.54650    0.89990    0.14180    1.000
    C29      C        0.92130    0.05490    0.82200    1.000
    H20      H        0.98880    0.04410    0.80750    1.000
    C30      C        0.36930    0.84505    0.38440    1.000
    H21      H        0.37180    0.87420    0.37830    1.000
    H22      H        0.41340    0.83670    0.44930    1.000
    H23      H        0.29350    0.83650    0.38490    1.000
    C31      C        0.60650    0.80933    0.10000    1.000
    H24      H        0.66680    0.79270    0.13260    1.000
    H25      H        0.63360    0.83620    0.08820    1.000
    H26      H        0.57570    0.79750    0.03330    1.000
    C32      C        0.17700    0.06535    0.35690    1.000
    H27      H        0.14430    0.03970    0.34710    1.000
    C33      C        0.90770    0.06530    0.92320    1.000
    H28      H        0.96750    0.06330    0.97720    1.000
    C34      C        0.72150    0.08040    0.86810    1.000
    H29      H        0.65200    0.08890    0.88340    1.000
    O6       O        0.85570    0.97420    0.42380    1.000
    C35      C        0.71050    0.90750    0.39720    1.000
    H30      H        0.76730    0.90550    0.45400    1.000
    C36      C        0.63120    0.87380    0.37640    1.000
    H31      H        0.61940    0.85410    0.42640    1.000
    C37      C        0.64480    0.93670    0.23850    1.000
    H32      H        0.64580    0.95720    0.18780    1.000
    C38      C        0.68820    0.87280    0.31260    1.000
    H33      H        0.72210    0.84730    0.32120    1.000
    C39      C        0.75260    0.90730    0.33820    1.000
    H34      H        0.82930    0.90530    0.35770    1.000
    C40      C        0.79280    0.04020    0.90820    1.000
    H35      H        0.77220    0.01930    0.95110    1.000
    C41      C        0.81930    0.11080    0.87240    1.000
    H36      H        0.81540    0.13800    0.89280    1.000
    C42      C        0.59260    0.94668    0.29260    1.000
    H37      H        0.56050    0.97250    0.28500    1.000
    C43      C        0.52980    0.91260    0.26230    1.000
    H38      H        0.45540    0.91540    0.23310    1.000
    C44      C        0.83760    0.10140    0.77500    1.000
    H39      H        0.85250    0.12200    0.72840    1.000
    C45      C        0.81090    0.03250    0.80540    1.000
    H40      H        0.80570    0.00570    0.78120    1.000
    Mn2      Mn       0.20770    0.56795    0.60248    1.000
    N7       N        0.38910    0.63092    0.69220    1.000
    O7       O        0.03360    0.55510    0.59710    1.000
    O8       O        0.27890    0.51273    0.65130    1.000
    N8       N        0.20710    0.58652    0.77210    1.000
    N9       N        0.36550    0.60029    0.62370    1.000
    N10      N        0.25940    0.62017    0.81060    1.000
    C46      C        0.17690    0.56754    0.85490    1.000
    O9       O        0.07940    0.52624    0.38220    1.000
    O10      O        0.20470    0.56960    0.44090    1.000
    O11      O        0.06200    0.61949    0.58740    1.000
    C47      C        0.29860    0.64795    0.73920    1.000
    H41      H        0.32300    0.67280    0.77680    1.000
    H42      H        0.23840    0.65490    0.68380    1.000
    C48      C        0.23570    0.47961    0.62840    1.000
    C49      C        0.00000    0.59088    0.59840    1.000
    C50      C        0.71470    0.57079    0.65640    1.000
    H43      H        0.67390    0.54850    0.67550    1.000
    C51      C        0.46250    0.58850    0.59860    1.000
    C52      C        0.49700    0.63858    0.71070    1.000
    C53      C        0.16530    0.56039    0.25900    1.000
    C54      C        0.54740    0.61209    0.65120    1.000
    C55      C        0.21130    0.58900    0.94640    1.000
    C56      C        0.66380    0.60776    0.64260    1.000
    C57      C        0.29680    0.44259    0.66580    1.000
    C58      C        0.26390    0.62286    0.91570    1.000
    C59      C        0.88360    0.59769    0.61540    1.000
    C60      C        0.14690    0.55111    0.37070    1.000
    C61      C        0.19450    0.57887    0.05400    1.000
    C62      C        0.83660    0.63518    0.60340    1.000
    H44      H        0.87850    0.65750    0.58660    1.000
    N11      N        0.56270    0.28493    0.82710    1.000
    C63      C        0.11730    0.52849    0.84260    1.000
    H45      H        0.06790    0.52630    0.89560    1.000
    H46      H        0.17000    0.50650    0.85110    1.000
    H47      H        0.07490    0.52710    0.77320    1.000
    C64      C        0.31830    0.65645    0.97790    1.000
    H48      H        0.28120    0.68160    0.95630    1.000
    H49      H        0.39490    0.65810    0.96620    1.000
    H50      H        0.31440    0.65180    0.05200    1.000
    C65      C        0.49560    0.33902    0.75130    1.000
    C66      C        0.72730    0.63997    0.61630    1.000
    H51      H        0.69500    0.66570    0.60710    1.000
    C67      C        0.42320    0.37473    0.72480    1.000
    C68      C        0.46930    0.55402    0.52670    1.000
    H52      H        0.47390    0.52910    0.56670    1.000
    H53      H        0.53450    0.55680    0.49160    1.000
    H54      H        0.40410    0.55350    0.47470    1.000
    N12      N        0.63140    0.29405    0.75250    1.000
    C69      C        0.58600    0.32623    0.70700    1.000
    C70      C        0.48230    0.31177    0.82800    1.000
    C71      C        0.26690    0.57000    0.23370    1.000
    H55      H        0.32880    0.56950    0.28570    1.000
    C72      C        0.54400    0.66865    0.78750    1.000
    H56      H        0.50930    0.69460    0.77090    1.000
    H57      H        0.62270    0.67090    0.78510    1.000
    H58      H        0.53130    0.66040    0.85750    1.000
    C73      C        0.41640    0.40240    0.78940    1.000
    H59      H        0.45350    0.39990    0.85820    1.000
    C74      C        0.07870    0.55490    0.17800    1.000
    H60      H        0.01120    0.54410    0.19250    1.000
    C75      C        0.63070    0.34505    0.61560    1.000
    H61      H        0.62820    0.37420    0.62170    1.000
    H62      H        0.58660    0.33670    0.55070    1.000
    H63      H        0.70650    0.33650    0.61510    1.000
    C76      C        0.39350    0.30933    0.90000    1.000
    H64      H        0.33320    0.29270    0.86740    1.000
    H65      H        0.36640    0.33620    0.91180    1.000
    H66      H        0.42430    0.29750    0.96670    1.000
    C77      C        0.82300    0.56535    0.64310    1.000
    H67      H        0.85570    0.53970    0.65290    1.000
    C78      C        0.09230    0.56530    0.07680    1.000
    H68      H        0.03250    0.56330    0.02280    1.000
    C79      C        0.27850    0.58040    0.13190    1.000
    H69      H        0.34800    0.58890    0.11660    1.000
    O12      O        0.14430    0.47420    0.57620    1.000
    C80      C        0.28950    0.40750    0.60280    1.000
    H70      H        0.23270    0.40550    0.54600    1.000
    C81      C        0.36880    0.37380    0.62360    1.000
    H71      H        0.38060    0.35410    0.57360    1.000
    C82      C        0.35520    0.43670    0.76150    1.000
    H72      H        0.35420    0.45720    0.81220    1.000
    C83      C        0.31180    0.37280    0.68740    1.000
    H73      H        0.27790    0.34730    0.67880    1.000
    C84      C        0.24740    0.40730    0.66180    1.000
    H74      H        0.17070    0.40530    0.64230    1.000
    C85      C        0.20720    0.54020    0.09180    1.000
    H75      H        0.22780    0.51930    0.04890    1.000
    C86      C        0.18070    0.61080    0.12760    1.000
    H76      H        0.18460    0.63800    0.10720    1.000
    C87      C        0.40740    0.44668    0.70740    1.000
    H77      H        0.43950    0.47250    0.71500    1.000
    C88      C        0.47020    0.41260    0.73770    1.000
    H78      H        0.54460    0.41540    0.76690    1.000
    C89      C        0.16240    0.60140    0.22500    1.000
    H79      H        0.14750    0.62200    0.27160    1.000
    C90      C        0.18910    0.53250    0.19460    1.000
    H80      H        0.19430    0.50570    0.21880    1.000
    Mn3      Mn       0.20770    0.93205    0.60248    1.000
    N13      N        0.38910    0.86908    0.69220    1.000
    O13      O        0.03360    0.94490    0.59710    1.000
    O14      O        0.27890    0.98727    0.65130    1.000
    N14      N        0.20710    0.91348    0.77210    1.000
    N15      N        0.36550    0.89971    0.62370    1.000
    N16      N        0.25940    0.87983    0.81060    1.000
    C91      C        0.17690    0.93246    0.85490    1.000
    O15      O        0.07940    0.97376    0.38220    1.000
    O16      O        0.20470    0.93040    0.44090    1.000
    O17      O        0.06200    0.88051    0.58740    1.000
    C92      C        0.29860    0.85205    0.73920    1.000
    H81      H        0.32300    0.82720    0.77680    1.000
    H82      H        0.23840    0.84510    0.68380    1.000
    C93      C        0.23570    0.02039    0.62840    1.000
    C94      C        0.00000    0.90912    0.59840    1.000
    C95      C        0.71470    0.92921    0.65640    1.000
    H83      H        0.67390    0.95150    0.67550    1.000
    C96      C        0.46250    0.91150    0.59860    1.000
    C97      C        0.49700    0.86142    0.71070    1.000
    C98      C        0.16530    0.93961    0.25900    1.000
    C99      C        0.54740    0.88791    0.65120    1.000
    C100     C        0.21130    0.91100    0.94640    1.000
    C101     C        0.66380    0.89224    0.64260    1.000
    C102     C        0.29680    0.05741    0.66580    1.000
    C103     C        0.26390    0.87714    0.91570    1.000
    C104     C        0.88360    0.90231    0.61540    1.000
    C105     C        0.14690    0.94889    0.37070    1.000
    C106     C        0.19450    0.92113    0.05400    1.000
    C107     C        0.83660    0.86482    0.60340    1.000
    H84      H        0.87850    0.84250    0.58660    1.000
    N17      N        0.56270    0.21507    0.82710    1.000
    C108     C        0.11730    0.97151    0.84260    1.000
    H85      H        0.06790    0.97370    0.89560    1.000
    H86      H        0.17000    0.99350    0.85110    1.000
    H87      H        0.07490    0.97290    0.77320    1.000
    C109     C        0.31830    0.84355    0.97790    1.000
    H88      H        0.28120    0.81840    0.95630    1.000
    H89      H        0.39490    0.84190    0.96620    1.000
    H90      H        0.31440    0.84820    0.05200    1.000
    C110     C        0.49560    0.16098    0.75130    1.000
    C111     C        0.72730    0.86003    0.61630    1.000
    H91      H        0.69500    0.83430    0.60710    1.000
    C112     C        0.42320    0.12527    0.72480    1.000
    C113     C        0.46930    0.94598    0.52670    1.000
    H92      H        0.47390    0.97090    0.56670    1.000
    H93      H        0.53450    0.94320    0.49160    1.000
    H94      H        0.40410    0.94650    0.47470    1.000
    N18      N        0.63140    0.20595    0.75250    1.000
    C114     C        0.58600    0.17377    0.70700    1.000
    C115     C        0.48230    0.18823    0.82800    1.000
    C116     C        0.26690    0.93000    0.23370    1.000
    H95      H        0.32880    0.93050    0.28570    1.000
    C117     C        0.54400    0.83135    0.78750    1.000
    H96      H        0.50930    0.80540    0.77090    1.000
    H97      H        0.62270    0.82910    0.78510    1.000
    H98      H        0.53130    0.83960    0.85750    1.000
    C118     C        0.41640    0.09760    0.78940    1.000
    H99      H        0.45350    0.10010    0.85820    1.000
    C119     C        0.07870    0.94510    0.17800    1.000
    H100     H        0.01120    0.95590    0.19250    1.000
    C120     C        0.63070    0.15495    0.61560    1.000
    H101     H        0.62820    0.12580    0.62170    1.000
    H102     H        0.58660    0.16330    0.55070    1.000
    H103     H        0.70650    0.16350    0.61510    1.000
    C121     C        0.39350    0.19067    0.90000    1.000
    H104     H        0.33320    0.20730    0.86740    1.000
    H105     H        0.36640    0.16380    0.91180    1.000
    H106     H        0.42430    0.20250    0.96670    1.000
    C122     C        0.82300    0.93465    0.64310    1.000
    H107     H        0.85570    0.96030    0.65290    1.000
    C123     C        0.09230    0.93470    0.07680    1.000
    H108     H        0.03250    0.93670    0.02280    1.000
    C124     C        0.27850    0.91960    0.13190    1.000
    H109     H        0.34800    0.91110    0.11660    1.000
    O18      O        0.14430    0.02580    0.57620    1.000
    C125     C        0.28950    0.09250    0.60280    1.000
    H110     H        0.23270    0.09450    0.54600    1.000
    C126     C        0.36880    0.12620    0.62360    1.000
    H111     H        0.38060    0.14590    0.57360    1.000
    C127     C        0.35520    0.06330    0.76150    1.000
    H112     H        0.35420    0.04280    0.81220    1.000
    C128     C        0.31180    0.12720    0.68740    1.000
    H113     H        0.27790    0.15270    0.67880    1.000
    C129     C        0.24740    0.09270    0.66180    1.000
    H114     H        0.17070    0.09470    0.64230    1.000
    C130     C        0.20720    0.95980    0.09180    1.000
    H115     H        0.22780    0.98070    0.04890    1.000
    C131     C        0.18070    0.88920    0.12760    1.000
    H116     H        0.18460    0.86200    0.10720    1.000
    C132     C        0.40740    0.05332    0.70740    1.000
    H117     H        0.43950    0.02750    0.71500    1.000
    C133     C        0.47020    0.08740    0.73770    1.000
    H118     H        0.54460    0.08460    0.76690    1.000
    C134     C        0.16240    0.89860    0.22500    1.000
    H119     H        0.14750    0.87800    0.27160    1.000
    C135     C        0.18910    0.96750    0.19460    1.000
    H120     H        0.19430    0.99430    0.21880    1.000
    Mn4      Mn       0.79230    0.43205    0.39752    1.000
    N19      N        0.61090    0.36908    0.30780    1.000
    O19      O        0.96640    0.44490    0.40290    1.000
    O20      O        0.72110    0.48727    0.34870    1.000
    N20      N        0.79290    0.41348    0.22790    1.000
    N21      N        0.63450    0.39971    0.37630    1.000
    N22      N        0.74060    0.37983    0.18940    1.000
    C136     C        0.82310    0.43246    0.14510    1.000
    O21      O        0.92060    0.47376    0.61780    1.000
    O22      O        0.79530    0.43040    0.55910    1.000
    O23      O        0.93800    0.38051    0.41260    1.000
    C137     C        0.70140    0.35205    0.26080    1.000
    H121     H        0.67700    0.32720    0.22320    1.000
    H122     H        0.76160    0.34510    0.31620    1.000
    C138     C        0.76430    0.52039    0.37160    1.000
    C139     C        0.00000    0.40912    0.40160    1.000
    C140     C        0.28530    0.42921    0.34360    1.000
    H123     H        0.32610    0.45150    0.32450    1.000
    C141     C        0.53750    0.41150    0.40140    1.000
    C142     C        0.50300    0.36142    0.28930    1.000
    C143     C        0.83470    0.43961    0.74100    1.000
    C144     C        0.45260    0.38791    0.34880    1.000
    C145     C        0.78870    0.41100    0.05360    1.000
    C146     C        0.33620    0.39224    0.35740    1.000
    C147     C        0.70320    0.55741    0.33420    1.000
    C148     C        0.73610    0.37714    0.08430    1.000
    C149     C        0.11640    0.40231    0.38460    1.000
    C150     C        0.85310    0.44889    0.62930    1.000
    C151     C        0.80550    0.42113    0.94600    1.000
    C152     C        0.16340    0.36482    0.39660    1.000
    H124     H        0.12150    0.34250    0.41340    1.000
    N23      N        0.43730    0.71507    0.17290    1.000
    C153     C        0.88270    0.47151    0.15740    1.000
    H125     H        0.93210    0.47370    0.10440    1.000
    H126     H        0.83000    0.49350    0.14890    1.000
    H127     H        0.92510    0.47290    0.22680    1.000
    C154     C        0.68170    0.34355    0.02210    1.000
    H128     H        0.71880    0.31840    0.04370    1.000
    H129     H        0.60510    0.34190    0.03380    1.000
    H130     H        0.68560    0.34820    0.94800    1.000
    C155     C        0.50440    0.66098    0.24870    1.000
    C156     C        0.27270    0.36003    0.38370    1.000
    H131     H        0.30500    0.33430    0.39290    1.000
    C157     C        0.57680    0.62527    0.27520    1.000
    C158     C        0.53070    0.44598    0.47330    1.000
    H132     H        0.52610    0.47090    0.43330    1.000
    H133     H        0.46550    0.44320    0.50840    1.000
    H134     H        0.59590    0.44650    0.52530    1.000
    N24      N        0.36860    0.70595    0.24750    1.000
    C159     C        0.41400    0.67377    0.29300    1.000
    C160     C        0.51770    0.68823    0.17200    1.000
    C161     C        0.73310    0.43000    0.76630    1.000
    H135     H        0.67120    0.43050    0.71430    1.000
    C162     C        0.45600    0.33135    0.21250    1.000
    H136     H        0.49070    0.30540    0.22910    1.000
    H137     H        0.37730    0.32910    0.21490    1.000
    H138     H        0.46870    0.33960    0.14250    1.000
    C163     C        0.58360    0.59760    0.21060    1.000
    H139     H        0.54650    0.60010    0.14180    1.000
    C164     C        0.92130    0.44510    0.82200    1.000
    H140     H        0.98880    0.45590    0.80750    1.000
    C165     C        0.36930    0.65495    0.38440    1.000
    H141     H        0.37180    0.62580    0.37830    1.000
    H142     H        0.41340    0.66330    0.44930    1.000
    H143     H        0.29350    0.66350    0.38490    1.000
    C166     C        0.60650    0.69067    0.10000    1.000
    H144     H        0.66680    0.70730    0.13260    1.000
    H145     H        0.63360    0.66380    0.08820    1.000
    H146     H        0.57570    0.70250    0.03330    1.000
    C167     C        0.17700    0.43465    0.35690    1.000
    H147     H        0.14430    0.46030    0.34710    1.000
    C168     C        0.90770    0.43470    0.92320    1.000
    H148     H        0.96750    0.43670    0.97720    1.000
    C169     C        0.72150    0.41960    0.86810    1.000
    H149     H        0.65200    0.41110    0.88340    1.000
    O24      O        0.85570    0.52580    0.42380    1.000
    C170     C        0.71050    0.59250    0.39720    1.000
    H150     H        0.76730    0.59450    0.45400    1.000
    C171     C        0.63120    0.62620    0.37640    1.000
    H151     H        0.61940    0.64590    0.42640    1.000
    C172     C        0.64480    0.56330    0.23850    1.000
    H152     H        0.64580    0.54280    0.18780    1.000
    C173     C        0.68820    0.62720    0.31260    1.000
    H153     H        0.72210    0.65270    0.32120    1.000
    C174     C        0.75260    0.59270    0.33820    1.000
    H154     H        0.82930    0.59470    0.35770    1.000
    C175     C        0.79280    0.45980    0.90820    1.000
    H155     H        0.77220    0.48070    0.95110    1.000
    C176     C        0.81930    0.38920    0.87240    1.000
    H156     H        0.81540    0.36200    0.89280    1.000
    C177     C        0.59260    0.55332    0.29260    1.000
    H157     H        0.56050    0.52750    0.28500    1.000
    C178     C        0.52980    0.58740    0.26230    1.000
    H158     H        0.45540    0.58460    0.23310    1.000
    C179     C        0.83760    0.39860    0.77500    1.000
    H159     H        0.85250    0.37800    0.72840    1.000
    C180     C        0.81090    0.46750    0.80540    1.000
    H160     H        0.80570    0.49430    0.78120    1.000
    Mn5      Mn       0.00000    0.00000    0.50000    1.000
    Mn6      Mn       0.00000    0.50000    0.50000    1.000
    C181     C        0.41230    0.75000    0.10600    1.000
    H161     H        0.33440    0.75000    0.07590    1.000
    H162     H        0.45760    0.75000    0.04840    1.000
    Mn7      Mn       0.23316    0.75000    0.28068    1.000
    Cl1      Cl       0.13400    0.75000    0.09830    1.000
    C182     C        0.58770    0.25000    0.89400    1.000
    H163     H        0.66560    0.25000    0.92410    1.000
    H164     H        0.54240    0.25000    0.95160    1.000
    Mn8      Mn       0.76684    0.25000    0.71932    1.000
    Cl2      Cl       0.86600    0.25000    0.90170    1.000
