# CIF file generated by openbabel 3.1.0, see https://openbabel.org
data_I
_chemical_name_common 'image0'
_cell_length_a 28.028
_cell_length_b 28.028
_cell_length_c 25.567
_cell_angle_alpha 90
_cell_angle_beta 90
_cell_angle_gamma 120
_space_group_name_H-M_alt 'P 1'
_space_group_name_Hall 'P 1'
loop_
    _symmetry_equiv_pos_as_xyz
    x,y,z
loop_
    _atom_site_label
    _atom_site_type_symbol
    _atom_site_fract_x
    _atom_site_fract_y
    _atom_site_fract_z
    _atom_site_occupancy
    Cs1      Cs       0.37265    0.05491    0.98078    1.000
    P1       P        0.38488    0.18762    0.00420    1.000
    O1       O        0.37230    0.03650    0.09895    1.000
    C1       C        0.32620    0.19170    0.99960    1.000
    P2       P        0.33022    0.25556    0.99492    1.000
    O2       O        0.34020    0.98570    0.19731    1.000
    C2       C        0.43480    0.25580    0.00370    1.000
    P3       P        0.41497    0.30617    0.00013    1.000
    C3       C        0.26710    0.13830    0.99940    1.000
    C4       C        0.24310    0.11790    0.95660    1.000
    H1       H        0.20860    0.08690    0.96150    1.000
    C5       C        0.24070    0.11590    0.05320    1.000
    C6       C        0.18450    0.06730    0.05180    1.000
    H2       H        0.17650    0.04850    0.08490    1.000
    H3       H        0.18240    0.04270    0.02460    1.000
    H4       H        0.15830    0.07900    0.04520    1.000
    C7       C        0.23250    0.15770    0.07930    1.000
    H5       H        0.19610    0.14070    0.09380    1.000
    H6       H        0.23700    0.18520    0.05440    1.000
    H7       H        0.25920    0.17450    0.10680    1.000
    C8       C        0.27000    0.09300    0.07930    1.000
    H8       H        0.25090    0.07490    0.11080    1.000
    H9       H        0.30650    0.12200    0.08790    1.000
    H10      H        0.27240    0.06690    0.05670    1.000
    C9       C        0.25700    0.13170    0.89880    1.000
    C10      C        0.22690    0.08010    0.86870    1.000
    H11      H        0.18810    0.06450    0.87410    1.000
    H12      H        0.23810    0.05450    0.88020    1.000
    H13      H        0.23510    0.08770    0.83220    1.000
    C11      C        0.24330    0.17380    0.88210    1.000
    H14      H        0.20450    0.15960    0.88610    1.000
    H15      H        0.25350    0.18310    0.84610    1.000
    H16      H        0.26310    0.20620    0.90340    1.000
    C12      C        0.31950    0.15480    0.88320    1.000
    H17      H        0.32340    0.15920    0.84590    1.000
    H18      H        0.33090    0.12930    0.89440    1.000
    H19      H        0.34200    0.18970    0.89980    1.000
    C13      C        0.37140    0.06560    0.14360    1.000
    H20      H        0.36320    0.09410    0.13330    1.000
    H21      H        0.40730    0.08330    0.16020    1.000
    C14      C        0.32920    0.02760    0.18110    1.000
    H22      H        0.32870    0.04820    0.21140    1.000
    H23      H        0.29320    0.01100    0.16480    1.000
    C15      C        0.34200    0.95660    0.15220    1.000
    H24      H        0.30600    0.93800    0.13560    1.000
    H25      H        0.35110    0.92880    0.16260    1.000
    C16      C        0.38340    0.99480    0.11440    1.000
    H26      H        0.41970    0.01140    0.13020    1.000
    H27      H        0.38350    0.97430    0.08380    1.000
    C17      C        0.47110    0.00970    0.92260    1.000
    H28      H        0.47470    0.99200    0.89190    1.000
    H29      H        0.43490    0.00540    0.92360    1.000
    H30      H        0.47660    0.99310    0.95320    1.000
    C18      C        0.51590    0.12910    0.03640    1.000
    H31      H        0.54310    0.16070    0.05510    1.000
    H32      H        0.50430    0.09660    0.05720    1.000
    H33      H        0.48470    0.13350    0.02900    1.000
    O3       O        0.48700    0.07390    0.97260    1.000
    C19      C        0.51440    0.07110    0.92130    1.000
    H34      H        0.51050    0.09130    0.89240    1.000
    H35      H        0.55210    0.07910    0.92510    1.000
    C20      C        0.54050    0.12340    0.98520    1.000
    H36      H        0.55080    0.15380    0.96130    1.000
    H37      H        0.57040    0.11580    0.98990    1.000
    C21      C        0.51500    0.03200    0.96400    1.000
    C22      C        0.53790    0.09250    0.01900    1.000
    Cs2      Cs       0.34630    0.05513    0.97953    1.000
    H38      H        0.47250    0.98100    0.90320    1.000
    H39      H        0.47700    0.03900    0.89930    1.000
    H40      H        0.43570    0.99510    0.93890    1.000
    H41      H        0.55160    0.05830    0.95130    1.000
    H42      H        0.51680    0.00300    0.98440    1.000
    H43      H        0.54460    0.07390    0.04800    1.000
    H44      H        0.56980    0.11050    0.99660    1.000
    H45      H        0.54190    0.15720    0.05930    1.000
    H46      H        0.48160    0.10750    0.05450    1.000
    H47      H        0.51000    0.14590    0.00620    1.000
    O4       O        0.48490    0.05670    0.99070    1.000
    Cs3      Cs       0.03932    0.38824    0.31411    1.000
    P4       P        0.05155    0.52095    0.33753    1.000
    O5       O        0.03897    0.36983    0.43228    1.000
    C23      C        0.99287    0.52503    0.33293    1.000
    P5       P        0.99689    0.58889    0.32825    1.000
    O6       O        0.00687    0.31903    0.53064    1.000
    C24      C        0.10147    0.58913    0.33703    1.000
    P6       P        0.08164    0.63950    0.33346    1.000
    C25      C        0.93377    0.47163    0.33273    1.000
    C26      C        0.90977    0.45123    0.28993    1.000
    H48      H        0.87527    0.42023    0.29483    1.000
    C27      C        0.90737    0.44923    0.38653    1.000
    C28      C        0.85117    0.40063    0.38513    1.000
    H49      H        0.84317    0.38183    0.41823    1.000
    H50      H        0.84907    0.37603    0.35793    1.000
    H51      H        0.82497    0.41233    0.37853    1.000
    C29      C        0.89917    0.49103    0.41263    1.000
    H52      H        0.86277    0.47403    0.42713    1.000
    H53      H        0.90367    0.51853    0.38773    1.000
    H54      H        0.92587    0.50783    0.44013    1.000
    C30      C        0.93667    0.42633    0.41263    1.000
    H55      H        0.91757    0.40823    0.44413    1.000
    H56      H        0.97317    0.45533    0.42123    1.000
    H57      H        0.93907    0.40023    0.39003    1.000
    C31      C        0.92367    0.46503    0.23213    1.000
    C32      C        0.89357    0.41343    0.20203    1.000
    H58      H        0.85477    0.39783    0.20743    1.000
    H59      H        0.90477    0.38783    0.21353    1.000
    H60      H        0.90177    0.42103    0.16553    1.000
    C33      C        0.90997    0.50713    0.21543    1.000
    H61      H        0.87117    0.49293    0.21943    1.000
    H62      H        0.92017    0.51643    0.17943    1.000
    H63      H        0.92977    0.53953    0.23673    1.000
    C34      C        0.98617    0.48813    0.21653    1.000
    H64      H        0.99007    0.49253    0.17923    1.000
    H65      H        0.99757    0.46263    0.22773    1.000
    H66      H        0.00867    0.52303    0.23313    1.000
    C35      C        0.03807    0.39893    0.47693    1.000
    H67      H        0.02987    0.42743    0.46663    1.000
    H68      H        0.07397    0.41663    0.49353    1.000
    C36      C        0.99587    0.36093    0.51443    1.000
    H69      H        0.99537    0.38153    0.54473    1.000
    H70      H        0.95987    0.34433    0.49813    1.000
    C37      C        0.00867    0.28993    0.48553    1.000
    H71      H        0.97267    0.27133    0.46893    1.000
    H72      H        0.01777    0.26213    0.49593    1.000
    C38      C        0.05007    0.32813    0.44773    1.000
    H73      H        0.08637    0.34473    0.46353    1.000
    H74      H        0.05017    0.30763    0.41713    1.000
    C39      C        0.13777    0.34303    0.25593    1.000
    H75      H        0.14137    0.32533    0.22523    1.000
    H76      H        0.10157    0.33873    0.25693    1.000
    H77      H        0.14327    0.32643    0.28653    1.000
    C40      C        0.18257    0.46243    0.36973    1.000
    H78      H        0.20977    0.49403    0.38843    1.000
    H79      H        0.17097    0.42993    0.39053    1.000
    H80      H        0.15137    0.46683    0.36233    1.000
    O7       O        0.15367    0.40723    0.30593    1.000
    C41      C        0.18107    0.40443    0.25463    1.000
    H81      H        0.17717    0.42463    0.22573    1.000
    H82      H        0.21877    0.41243    0.25843    1.000
    C42      C        0.20717    0.45673    0.31853    1.000
    H83      H        0.21747    0.48713    0.29463    1.000
    H84      H        0.23707    0.44913    0.32323    1.000
    C43      C        0.18167    0.36533    0.29733    1.000
    C44      C        0.20457    0.42583    0.35233    1.000
    Cs4      Cs       0.01297    0.38846    0.31286    1.000
    H85      H        0.13917    0.31433    0.23653    1.000
    H86      H        0.14367    0.37233    0.23263    1.000
    H87      H        0.10237    0.32843    0.27223    1.000
    H88      H        0.21827    0.39163    0.28463    1.000
    H89      H        0.18347    0.33633    0.31773    1.000
    H90      H        0.21127    0.40723    0.38133    1.000
    H91      H        0.23647    0.44383    0.32993    1.000
    H92      H        0.20857    0.49053    0.39263    1.000
    H93      H        0.14827    0.44083    0.38783    1.000
    H94      H        0.17667    0.47923    0.33953    1.000
    O8       O        0.15157    0.39003    0.32403    1.000
    Cs5      Cs       0.70598    0.72157    0.64745    1.000
    P7       P        0.71821    0.85429    0.67087    1.000
    O9       O        0.70563    0.70317    0.76562    1.000
    C45      C        0.65953    0.85837    0.66627    1.000
    P8       P        0.66355    0.92223    0.66159    1.000
    O10      O        0.67353    0.65237    0.86398    1.000
    C46      C        0.76813    0.92247    0.67037    1.000
    P9       P        0.74830    0.97284    0.66680    1.000
    C47      C        0.60043    0.80497    0.66607    1.000
    C48      C        0.57643    0.78457    0.62327    1.000
    H95      H        0.54193    0.75357    0.62817    1.000
    C49      C        0.57403    0.78257    0.71987    1.000
    C50      C        0.51783    0.73397    0.71847    1.000
    H96      H        0.50983    0.71517    0.75157    1.000
    H97      H        0.51573    0.70937    0.69127    1.000
    H98      H        0.49163    0.74567    0.71187    1.000
    C51      C        0.56583    0.82437    0.74597    1.000
    H99      H        0.52943    0.80737    0.76047    1.000
    H100     H        0.57033    0.85187    0.72107    1.000
    H101     H        0.59253    0.84117    0.77347    1.000
    C52      C        0.60333    0.75967    0.74597    1.000
    H102     H        0.58423    0.74157    0.77747    1.000
    H103     H        0.63983    0.78867    0.75457    1.000
    H104     H        0.60573    0.73357    0.72337    1.000
    C53      C        0.59033    0.79837    0.56547    1.000
    C54      C        0.56023    0.74677    0.53537    1.000
    H105     H        0.52143    0.73117    0.54077    1.000
    H106     H        0.57143    0.72117    0.54687    1.000
    H107     H        0.56843    0.75437    0.49887    1.000
    C55      C        0.57663    0.84047    0.54877    1.000
    H108     H        0.53783    0.82627    0.55277    1.000
    H109     H        0.58683    0.84977    0.51277    1.000
    H110     H        0.59643    0.87287    0.57007    1.000
    C56      C        0.65283    0.82147    0.54987    1.000
    H111     H        0.65673    0.82587    0.51257    1.000
    H112     H        0.66423    0.79597    0.56107    1.000
    H113     H        0.67533    0.85637    0.56647    1.000
    C57      C        0.70473    0.73227    0.81027    1.000
    H114     H        0.69653    0.76077    0.79997    1.000
    H115     H        0.74063    0.74997    0.82687    1.000
    C58      C        0.66253    0.69427    0.84777    1.000
    H116     H        0.66203    0.71487    0.87807    1.000
    H117     H        0.62653    0.67767    0.83147    1.000
    C59      C        0.67533    0.62327    0.81887    1.000
    H118     H        0.63933    0.60467    0.80227    1.000
    H119     H        0.68443    0.59547    0.82927    1.000
    C60      C        0.71673    0.66147    0.78107    1.000
    H120     H        0.75303    0.67807    0.79687    1.000
    H121     H        0.71683    0.64097    0.75047    1.000
    C61      C        0.80443    0.67637    0.58927    1.000
    H122     H        0.80803    0.65867    0.55857    1.000
    H123     H        0.76823    0.67207    0.59027    1.000
    H124     H        0.80993    0.65977    0.61987    1.000
    C62      C        0.84923    0.79577    0.70307    1.000
    H125     H        0.87643    0.82737    0.72177    1.000
    H126     H        0.83763    0.76327    0.72387    1.000
    H127     H        0.81803    0.80017    0.69567    1.000
    O11      O        0.82033    0.74057    0.63927    1.000
    C63      C        0.84773    0.73777    0.58797    1.000
    H128     H        0.84383    0.75797    0.55907    1.000
    H129     H        0.88543    0.74577    0.59177    1.000
    C64      C        0.87383    0.79007    0.65187    1.000
    H130     H        0.88413    0.82047    0.62797    1.000
    H131     H        0.90373    0.78247    0.65657    1.000
    C65      C        0.84833    0.69867    0.63067    1.000
    C66      C        0.87123    0.75917    0.68567    1.000
    Cs6      Cs       0.67963    0.72180    0.64620    1.000
    H132     H        0.80583    0.64767    0.56987    1.000
    H133     H        0.81033    0.70567    0.56597    1.000
    H134     H        0.76903    0.66177    0.60557    1.000
    H135     H        0.88493    0.72497    0.61797    1.000
    H136     H        0.85013    0.66967    0.65107    1.000
    H137     H        0.87793    0.74057    0.71467    1.000
    H138     H        0.90313    0.77717    0.66327    1.000
    H139     H        0.87523    0.82387    0.72597    1.000
    H140     H        0.81493    0.77417    0.72117    1.000
    H141     H        0.84333    0.81257    0.67287    1.000
    O12      O        0.81823    0.72337    0.65737    1.000
    Cs7      Cs       0.94509    0.31774    0.98078    1.000
    P10      P        0.81238    0.19726    0.00420    1.000
    O13      O        0.96350    0.33580    0.09895    1.000
    C67      C        0.80830    0.13450    0.99960    1.000
    P11      P        0.74444    0.07466    0.99492    1.000
    O14      O        0.01430    0.35450    0.19731    1.000
    C68      C        0.74420    0.17900    0.00370    1.000
    P12      P        0.69383    0.10880    0.00013    1.000
    C69      C        0.86170    0.12880    0.99940    1.000
    C70      C        0.88210    0.12520    0.95660    1.000
    H142     H        0.91310    0.12170    0.96150    1.000
    C71      C        0.88410    0.12480    0.05320    1.000
    C72      C        0.93270    0.11720    0.05180    1.000
    H143     H        0.95150    0.12800    0.08490    1.000
    H144     H        0.95730    0.13970    0.02460    1.000
    H145     H        0.92100    0.07930    0.04520    1.000
    C73      C        0.84230    0.07480    0.07930    1.000
    H146     H        0.85930    0.05540    0.09380    1.000
    H147     H        0.81480    0.05180    0.05440    1.000
    H148     H        0.82550    0.08470    0.10680    1.000
    C74      C        0.90700    0.17700    0.07930    1.000
    H149     H        0.92510    0.17600    0.11080    1.000
    H150     H        0.87800    0.18450    0.08790    1.000
    H151     H        0.93310    0.20550    0.05670    1.000
    C75      C        0.86830    0.12530    0.89880    1.000
    C76      C        0.91990    0.14680    0.86870    1.000
    H152     H        0.93550    0.12360    0.87410    1.000
    H153     H        0.94550    0.18360    0.88020    1.000
    H154     H        0.91230    0.14740    0.83220    1.000
    C77      C        0.82620    0.06950    0.88210    1.000
    H155     H        0.84040    0.04490    0.88610    1.000
    H156     H        0.81690    0.07040    0.84610    1.000
    H157     H        0.79380    0.05690    0.90340    1.000
    C78      C        0.84520    0.16470    0.88320    1.000
    H158     H        0.84080    0.16420    0.84590    1.000
    H159     H        0.87070    0.20160    0.89440    1.000
    H160     H        0.81030    0.15230    0.89980    1.000
    C79      C        0.93440    0.30580    0.14360    1.000
    H161     H        0.90590    0.26910    0.13330    1.000
    H162     H        0.91670    0.32400    0.16020    1.000
    C80      C        0.97240    0.30160    0.18110    1.000
    H163     H        0.95180    0.28050    0.21140    1.000
    H164     H        0.98900    0.28220    0.16480    1.000
    C81      C        0.04340    0.38540    0.15220    1.000
    H165     H        0.06200    0.36800    0.13560    1.000
    H166     H        0.07120    0.42230    0.16260    1.000
    C82      C        0.00520    0.38860    0.11440    1.000
    H167     H        0.98860    0.40830    0.13020    1.000
    H168     H        0.02570    0.40920    0.08380    1.000
    C83      C        0.99030    0.46140    0.92260    1.000
    H169     H        0.00800    0.48270    0.89190    1.000
    H170     H        0.99460    0.42950    0.92360    1.000
    H171     H        0.00690    0.48350    0.95320    1.000
    C84      C        0.87090    0.38680    0.03640    1.000
    H172     H        0.83930    0.38240    0.05510    1.000
    H173     H        0.90340    0.40770    0.05720    1.000
    H174     H        0.86650    0.35120    0.02900    1.000
    O15      O        0.92610    0.41310    0.97260    1.000
    C85      C        0.92890    0.44330    0.92130    1.000
    H175     H        0.90870    0.41920    0.89240    1.000
    H176     H        0.92090    0.47300    0.92510    1.000
    C86      C        0.87660    0.41710    0.98520    1.000
    H177     H        0.84620    0.39700    0.96130    1.000
    H178     H        0.88420    0.45460    0.98990    1.000
    C87      C        0.96800    0.48300    0.96400    1.000
    C88      C        0.90750    0.44540    0.01900    1.000
    Cs8      Cs       0.94487    0.29117    0.97953    1.000
    H179     H        0.01900    0.49150    0.90320    1.000
    H180     H        0.96100    0.43800    0.89930    1.000
    H181     H        0.00490    0.44060    0.93890    1.000
    H182     H        0.94170    0.49330    0.95130    1.000
    H183     H        0.99700    0.51380    0.98440    1.000
    H184     H        0.92610    0.47070    0.04800    1.000
    H185     H        0.88950    0.45930    0.99660    1.000
    H186     H        0.84280    0.38470    0.05930    1.000
    H187     H        0.89250    0.37410    0.05450    1.000
    H188     H        0.85410    0.36410    0.00620    1.000
    O16      O        0.94330    0.42820    0.99070    1.000
    Cs9      Cs       0.61176    0.65108    0.31411    1.000
    P13      P        0.47905    0.53059    0.33753    1.000
    O17      O        0.63017    0.66913    0.43228    1.000
    C89      C        0.47497    0.46783    0.33293    1.000
    P14      P        0.41111    0.40799    0.32825    1.000
    O18      O        0.68097    0.68783    0.53064    1.000
    C90      C        0.41087    0.51233    0.33703    1.000
    P15      P        0.36050    0.44213    0.33346    1.000
    C91      C        0.52837    0.46213    0.33273    1.000
    C92      C        0.54877    0.45853    0.28993    1.000
    H189     H        0.57977    0.45503    0.29483    1.000
    C93      C        0.55077    0.45813    0.38653    1.000
    C94      C        0.59937    0.45053    0.38513    1.000
    H190     H        0.61817    0.46133    0.41823    1.000
    H191     H        0.62397    0.47303    0.35793    1.000
    H192     H        0.58767    0.41263    0.37853    1.000
    C95      C        0.50897    0.40813    0.41263    1.000
    H193     H        0.52597    0.38873    0.42713    1.000
    H194     H        0.48147    0.38513    0.38773    1.000
    H195     H        0.49217    0.41803    0.44013    1.000
    C96      C        0.57367    0.51033    0.41263    1.000
    H196     H        0.59177    0.50933    0.44413    1.000
    H197     H        0.54467    0.51783    0.42123    1.000
    H198     H        0.59977    0.53883    0.39003    1.000
    C97      C        0.53497    0.45863    0.23213    1.000
    C98      C        0.58657    0.48013    0.20203    1.000
    H199     H        0.60217    0.45693    0.20743    1.000
    H200     H        0.61217    0.51693    0.21353    1.000
    H201     H        0.57897    0.48073    0.16553    1.000
    C99      C        0.49287    0.40283    0.21543    1.000
    H202     H        0.50707    0.37823    0.21943    1.000
    H203     H        0.48357    0.40373    0.17943    1.000
    H204     H        0.46047    0.39023    0.23673    1.000
    C100     C        0.51187    0.49803    0.21653    1.000
    H205     H        0.50747    0.49753    0.17923    1.000
    H206     H        0.53737    0.53493    0.22773    1.000
    H207     H        0.47697    0.48563    0.23313    1.000
    C101     C        0.60107    0.63913    0.47693    1.000
    H208     H        0.57257    0.60243    0.46663    1.000
    H209     H        0.58337    0.65733    0.49353    1.000
    C102     C        0.63907    0.63493    0.51443    1.000
    H210     H        0.61847    0.61383    0.54473    1.000
    H211     H        0.65567    0.61553    0.49813    1.000
    C103     C        0.71007    0.71873    0.48553    1.000
    H212     H        0.72867    0.70133    0.46893    1.000
    H213     H        0.73787    0.75563    0.49593    1.000
    C104     C        0.67187    0.72193    0.44773    1.000
    H214     H        0.65527    0.74163    0.46353    1.000
    H215     H        0.69237    0.74253    0.41713    1.000
    C105     C        0.65697    0.79473    0.25593    1.000
    H216     H        0.67467    0.81603    0.22523    1.000
    H217     H        0.66127    0.76283    0.25693    1.000
    H218     H        0.67357    0.81683    0.28653    1.000
    C106     C        0.53757    0.72013    0.36973    1.000
    H219     H        0.50597    0.71573    0.38843    1.000
    H220     H        0.57007    0.74103    0.39053    1.000
    H221     H        0.53317    0.68453    0.36233    1.000
    O19      O        0.59277    0.74643    0.30593    1.000
    C107     C        0.59557    0.77663    0.25463    1.000
    H222     H        0.57537    0.75253    0.22573    1.000
    H223     H        0.58757    0.80633    0.25843    1.000
    C108     C        0.54327    0.75043    0.31853    1.000
    H224     H        0.51287    0.73033    0.29463    1.000
    H225     H        0.55087    0.78793    0.32323    1.000
    C109     C        0.63467    0.81633    0.29733    1.000
    C110     C        0.57417    0.77873    0.35233    1.000
    Cs10     Cs       0.61154    0.62450    0.31286    1.000
    H226     H        0.68567    0.82483    0.23653    1.000
    H227     H        0.62767    0.77133    0.23263    1.000
    H228     H        0.67157    0.77393    0.27223    1.000
    H229     H        0.60837    0.82663    0.28463    1.000
    H230     H        0.66367    0.84713    0.31773    1.000
    H231     H        0.59277    0.80403    0.38133    1.000
    H232     H        0.55617    0.79263    0.32993    1.000
    H233     H        0.50947    0.71803    0.39263    1.000
    H234     H        0.55917    0.70743    0.38783    1.000
    H235     H        0.52077    0.69743    0.33953    1.000
    O20      O        0.60997    0.76153    0.32403    1.000
    Cs11     Cs       0.27843    0.98441    0.64745    1.000
    P16      P        0.14571    0.86393    0.67087    1.000
    O21      O        0.29683    0.00247    0.76562    1.000
    C111     C        0.14163    0.80117    0.66627    1.000
    P17      P        0.07777    0.74133    0.66159    1.000
    O22      O        0.34763    0.02117    0.86398    1.000
    C112     C        0.07753    0.84567    0.67037    1.000
    P18      P        0.02716    0.77547    0.66680    1.000
    C113     C        0.19503    0.79547    0.66607    1.000
    C114     C        0.21543    0.79187    0.62327    1.000
    H236     H        0.24643    0.78837    0.62817    1.000
    C115     C        0.21743    0.79147    0.71987    1.000
    C116     C        0.26603    0.78387    0.71847    1.000
    H237     H        0.28483    0.79467    0.75157    1.000
    H238     H        0.29063    0.80637    0.69127    1.000
    H239     H        0.25433    0.74597    0.71187    1.000
    C117     C        0.17563    0.74147    0.74597    1.000
    H240     H        0.19263    0.72207    0.76047    1.000
    H241     H        0.14813    0.71847    0.72107    1.000
    H242     H        0.15883    0.75137    0.77347    1.000
    C118     C        0.24033    0.84367    0.74597    1.000
    H243     H        0.25843    0.84267    0.77747    1.000
    H244     H        0.21133    0.85117    0.75457    1.000
    H245     H        0.26643    0.87217    0.72337    1.000
    C119     C        0.20163    0.79197    0.56547    1.000
    C120     C        0.25323    0.81347    0.53537    1.000
    H246     H        0.26883    0.79027    0.54077    1.000
    H247     H        0.27883    0.85027    0.54687    1.000
    H248     H        0.24563    0.81407    0.49887    1.000
    C121     C        0.15953    0.73617    0.54877    1.000
    H249     H        0.17373    0.71157    0.55277    1.000
    H250     H        0.15023    0.73707    0.51277    1.000
    H251     H        0.12713    0.72357    0.57007    1.000
    C122     C        0.17853    0.83137    0.54987    1.000
    H252     H        0.17413    0.83087    0.51257    1.000
    H253     H        0.20403    0.86827    0.56107    1.000
    H254     H        0.14363    0.81897    0.56647    1.000
    C123     C        0.26773    0.97247    0.81027    1.000
    H255     H        0.23923    0.93577    0.79997    1.000
    H256     H        0.25003    0.99067    0.82687    1.000
    C124     C        0.30573    0.96827    0.84777    1.000
    H257     H        0.28513    0.94717    0.87807    1.000
    H258     H        0.32233    0.94887    0.83147    1.000
    C125     C        0.37673    0.05207    0.81887    1.000
    H259     H        0.39533    0.03467    0.80227    1.000
    H260     H        0.40453    0.08897    0.82927    1.000
    C126     C        0.33853    0.05527    0.78107    1.000
    H261     H        0.32193    0.07497    0.79687    1.000
    H262     H        0.35903    0.07587    0.75047    1.000
    C127     C        0.32363    0.12807    0.58927    1.000
    H263     H        0.34133    0.14937    0.55857    1.000
    H264     H        0.32793    0.09617    0.59027    1.000
    H265     H        0.34023    0.15017    0.61987    1.000
    C128     C        0.20423    0.05347    0.70307    1.000
    H266     H        0.17263    0.04907    0.72177    1.000
    H267     H        0.23673    0.07437    0.72387    1.000
    H268     H        0.19983    0.01787    0.69567    1.000
    O23      O        0.25943    0.07977    0.63927    1.000
    C129     C        0.26223    0.10997    0.58797    1.000
    H269     H        0.24203    0.08587    0.55907    1.000
    H270     H        0.25423    0.13967    0.59177    1.000
    C130     C        0.20993    0.08377    0.65187    1.000
    H271     H        0.17953    0.06367    0.62797    1.000
    H272     H        0.21753    0.12127    0.65657    1.000
    C131     C        0.30133    0.14967    0.63067    1.000
    C132     C        0.24083    0.11207    0.68567    1.000
    Cs12     Cs       0.27820    0.95784    0.64620    1.000
    H273     H        0.35233    0.15817    0.56987    1.000
    H274     H        0.29433    0.10467    0.56597    1.000
    H275     H        0.33823    0.10727    0.60557    1.000
    H276     H        0.27503    0.15997    0.61797    1.000
    H277     H        0.33033    0.18047    0.65107    1.000
    H278     H        0.25943    0.13737    0.71467    1.000
    H279     H        0.22283    0.12597    0.66327    1.000
    H280     H        0.17613    0.05137    0.72597    1.000
    H281     H        0.22583    0.04077    0.72117    1.000
    H282     H        0.18743    0.03077    0.67287    1.000
    O24      O        0.27663    0.09487    0.65737    1.000
    Cs13     Cs       0.68226    0.62735    0.98078    1.000
    P19      P        0.80274    0.61512    0.00420    1.000
    O25      O        0.66420    0.62770    0.09895    1.000
    C133     C        0.86550    0.67380    0.99960    1.000
    P20      P        0.92534    0.66978    0.99492    1.000
    O26      O        0.64550    0.65980    0.19731    1.000
    C134     C        0.82100    0.56520    0.00370    1.000
    P21      P        0.89120    0.58503    0.00013    1.000
    C135     C        0.87120    0.73290    0.99940    1.000
    C136     C        0.87480    0.75690    0.95660    1.000
    H283     H        0.87830    0.79140    0.96150    1.000
    C137     C        0.87520    0.75930    0.05320    1.000
    C138     C        0.88280    0.81550    0.05180    1.000
    H284     H        0.87200    0.82350    0.08490    1.000
    H285     H        0.86030    0.81760    0.02460    1.000
    H286     H        0.92070    0.84170    0.04520    1.000
    C139     C        0.92520    0.76750    0.07930    1.000
    H287     H        0.94460    0.80390    0.09380    1.000
    H288     H        0.94820    0.76300    0.05440    1.000
    H289     H        0.91530    0.74080    0.10680    1.000
    C140     C        0.82300    0.73000    0.07930    1.000
    H290     H        0.82400    0.74910    0.11080    1.000
    H291     H        0.81550    0.69350    0.08790    1.000
    H292     H        0.79450    0.72760    0.05670    1.000
    C141     C        0.87470    0.74300    0.89880    1.000
    C142     C        0.85320    0.77310    0.86870    1.000
    H293     H        0.87640    0.81190    0.87410    1.000
    H294     H        0.81640    0.76190    0.88020    1.000
    H295     H        0.85260    0.76490    0.83220    1.000
    C143     C        0.93050    0.75670    0.88210    1.000
    H296     H        0.95510    0.79550    0.88610    1.000
    H297     H        0.92960    0.74650    0.84610    1.000
    H298     H        0.94310    0.73690    0.90340    1.000
    C144     C        0.83530    0.68050    0.88320    1.000
    H299     H        0.83580    0.67660    0.84590    1.000
    H300     H        0.79840    0.66910    0.89440    1.000
    H301     H        0.84770    0.65800    0.89980    1.000
    C145     C        0.69420    0.62860    0.14360    1.000
    H302     H        0.73090    0.63680    0.13330    1.000
    H303     H        0.67600    0.59270    0.16020    1.000
    C146     C        0.69840    0.67080    0.18110    1.000
    H304     H        0.71950    0.67130    0.21140    1.000
    H305     H        0.71780    0.70680    0.16480    1.000
    C147     C        0.61460    0.65800    0.15220    1.000
    H306     H        0.63200    0.69400    0.13560    1.000
    H307     H        0.57770    0.64890    0.16260    1.000
    C148     C        0.61140    0.61660    0.11440    1.000
    H308     H        0.59170    0.58030    0.13020    1.000
    H309     H        0.59080    0.61650    0.08380    1.000
    C149     C        0.53860    0.52890    0.92260    1.000
    H310     H        0.51730    0.52530    0.89190    1.000
    H311     H        0.57050    0.56510    0.92360    1.000
    H312     H        0.51650    0.52340    0.95320    1.000
    C150     C        0.61320    0.48410    0.03640    1.000
    H313     H        0.61760    0.45690    0.05510    1.000
    H314     H        0.59230    0.49570    0.05720    1.000
    H315     H        0.64880    0.51530    0.02900    1.000
    O27      O        0.58690    0.51300    0.97260    1.000
    C151     C        0.55670    0.48560    0.92130    1.000
    H316     H        0.58080    0.48950    0.89240    1.000
    H317     H        0.52700    0.44790    0.92510    1.000
    C152     C        0.58290    0.45950    0.98520    1.000
    H318     H        0.60300    0.44920    0.96130    1.000
    H319     H        0.54540    0.42960    0.98990    1.000
    C153     C        0.51700    0.48500    0.96400    1.000
    C154     C        0.55460    0.46210    0.01900    1.000
    Cs14     Cs       0.70883    0.65370    0.97953    1.000
    H320     H        0.50850    0.52750    0.90320    1.000
    H321     H        0.56200    0.52300    0.89930    1.000
    H322     H        0.55940    0.56430    0.93890    1.000
    H323     H        0.50670    0.44840    0.95130    1.000
    H324     H        0.48620    0.48320    0.98440    1.000
    H325     H        0.52930    0.45540    0.04800    1.000
    H326     H        0.54070    0.43020    0.99660    1.000
    H327     H        0.61530    0.45810    0.05930    1.000
    H328     H        0.62590    0.51840    0.05450    1.000
    H329     H        0.63590    0.49000    0.00620    1.000
    O28      O        0.57180    0.51510    0.99070    1.000
    Cs15     Cs       0.34892    0.96068    0.31411    1.000
    P22      P        0.46941    0.94845    0.33753    1.000
    O29      O        0.33087    0.96103    0.43228    1.000
    C155     C        0.53217    0.00713    0.33293    1.000
    P23      P        0.59201    0.00311    0.32825    1.000
    O30      O        0.31217    0.99313    0.53064    1.000
    C156     C        0.48767    0.89853    0.33703    1.000
    P24      P        0.55787    0.91836    0.33346    1.000
    C157     C        0.53787    0.06623    0.33273    1.000
    C158     C        0.54147    0.09023    0.28993    1.000
    H330     H        0.54497    0.12473    0.29483    1.000
    C159     C        0.54187    0.09263    0.38653    1.000
    C160     C        0.54947    0.14883    0.38513    1.000
    H331     H        0.53867    0.15683    0.41823    1.000
    H332     H        0.52697    0.15093    0.35793    1.000
    H333     H        0.58737    0.17503    0.37853    1.000
    C161     C        0.59187    0.10083    0.41263    1.000
    H334     H        0.61127    0.13723    0.42713    1.000
    H335     H        0.61487    0.09633    0.38773    1.000
    H336     H        0.58197    0.07413    0.44013    1.000
    C162     C        0.48967    0.06333    0.41263    1.000
    H337     H        0.49067    0.08243    0.44413    1.000
    H338     H        0.48217    0.02683    0.42123    1.000
    H339     H        0.46117    0.06093    0.39003    1.000
    C163     C        0.54137    0.07633    0.23213    1.000
    C164     C        0.51987    0.10643    0.20203    1.000
    H340     H        0.54307    0.14523    0.20743    1.000
    H341     H        0.48307    0.09523    0.21353    1.000
    H342     H        0.51927    0.09823    0.16553    1.000
    C165     C        0.59717    0.09003    0.21543    1.000
    H343     H        0.62177    0.12883    0.21943    1.000
    H344     H        0.59627    0.07983    0.17943    1.000
    H345     H        0.60977    0.07023    0.23673    1.000
    C166     C        0.50197    0.01383    0.21653    1.000
    H346     H        0.50247    0.00993    0.17923    1.000
    H347     H        0.46507    0.00243    0.22773    1.000
    H348     H        0.51437    0.99133    0.23313    1.000
    C167     C        0.36087    0.96193    0.47693    1.000
    H349     H        0.39757    0.97013    0.46663    1.000
    H350     H        0.34267    0.92603    0.49353    1.000
    C168     C        0.36507    0.00413    0.51443    1.000
    H351     H        0.38617    0.00463    0.54473    1.000
    H352     H        0.38447    0.04013    0.49813    1.000
    C169     C        0.28127    0.99133    0.48553    1.000
    H353     H        0.29867    0.02733    0.46893    1.000
    H354     H        0.24437    0.98223    0.49593    1.000
    C170     C        0.27807    0.94993    0.44773    1.000
    H355     H        0.25837    0.91363    0.46353    1.000
    H356     H        0.25747    0.94983    0.41713    1.000
    C171     C        0.20527    0.86223    0.25593    1.000
    H357     H        0.18397    0.85863    0.22523    1.000
    H358     H        0.23717    0.89843    0.25693    1.000
    H359     H        0.18317    0.85673    0.28653    1.000
    C172     C        0.27987    0.81743    0.36973    1.000
    H360     H        0.28427    0.79023    0.38843    1.000
    H361     H        0.25897    0.82903    0.39053    1.000
    H362     H        0.31547    0.84863    0.36233    1.000
    O31      O        0.25357    0.84633    0.30593    1.000
    C173     C        0.22337    0.81893    0.25463    1.000
    H363     H        0.24747    0.82283    0.22573    1.000
    H364     H        0.19367    0.78123    0.25843    1.000
    C174     C        0.24957    0.79283    0.31853    1.000
    H365     H        0.26967    0.78253    0.29463    1.000
    H366     H        0.21207    0.76293    0.32323    1.000
    C175     C        0.18367    0.81833    0.29733    1.000
    C176     C        0.22127    0.79543    0.35233    1.000
    Cs16     Cs       0.37550    0.98703    0.31286    1.000
    H367     H        0.17517    0.86083    0.23653    1.000
    H368     H        0.22867    0.85633    0.23263    1.000
    H369     H        0.22607    0.89763    0.27223    1.000
    H370     H        0.17337    0.78173    0.28463    1.000
    H371     H        0.15287    0.81653    0.31773    1.000
    H372     H        0.19597    0.78873    0.38133    1.000
    H373     H        0.20737    0.76353    0.32993    1.000
    H374     H        0.28197    0.79143    0.39263    1.000
    H375     H        0.29257    0.85173    0.38783    1.000
    H376     H        0.30257    0.82333    0.33953    1.000
    O32      O        0.23847    0.84843    0.32403    1.000
    Cs17     Cs       0.01559    0.29402    0.64745    1.000
    P25      P        0.13607    0.28179    0.67087    1.000
    O33      O        0.99753    0.29437    0.76562    1.000
    C177     C        0.19883    0.34047    0.66627    1.000
    P26      P        0.25867    0.33645    0.66159    1.000
    O34      O        0.97883    0.32647    0.86398    1.000
    C178     C        0.15433    0.23187    0.67037    1.000
    P27      P        0.22453    0.25170    0.66680    1.000
    C179     C        0.20453    0.39957    0.66607    1.000
    C180     C        0.20813    0.42357    0.62327    1.000
    H377     H        0.21163    0.45807    0.62817    1.000
    C181     C        0.20853    0.42597    0.71987    1.000
    C182     C        0.21613    0.48217    0.71847    1.000
    H378     H        0.20533    0.49017    0.75157    1.000
    H379     H        0.19363    0.48427    0.69127    1.000
    H380     H        0.25403    0.50837    0.71187    1.000
    C183     C        0.25853    0.43417    0.74597    1.000
    H381     H        0.27793    0.47057    0.76047    1.000
    H382     H        0.28153    0.42967    0.72107    1.000
    H383     H        0.24863    0.40747    0.77347    1.000
    C184     C        0.15633    0.39667    0.74597    1.000
    H384     H        0.15733    0.41577    0.77747    1.000
    H385     H        0.14883    0.36017    0.75457    1.000
    H386     H        0.12783    0.39427    0.72337    1.000
    C185     C        0.20803    0.40967    0.56547    1.000
    C186     C        0.18653    0.43977    0.53537    1.000
    H387     H        0.20973    0.47857    0.54077    1.000
    H388     H        0.14973    0.42857    0.54687    1.000
    H389     H        0.18593    0.43157    0.49887    1.000
    C187     C        0.26383    0.42337    0.54877    1.000
    H390     H        0.28843    0.46217    0.55277    1.000
    H391     H        0.26293    0.41317    0.51277    1.000
    H392     H        0.27643    0.40357    0.57007    1.000
    C188     C        0.16863    0.34717    0.54987    1.000
    H393     H        0.16913    0.34327    0.51257    1.000
    H394     H        0.13173    0.33577    0.56107    1.000
    H395     H        0.18103    0.32467    0.56647    1.000
    C189     C        0.02753    0.29527    0.81027    1.000
    H396     H        0.06423    0.30347    0.79997    1.000
    H397     H        0.00933    0.25937    0.82687    1.000
    C190     C        0.03173    0.33747    0.84777    1.000
    H398     H        0.05283    0.33797    0.87807    1.000
    H399     H        0.05113    0.37347    0.83147    1.000
    C191     C        0.94793    0.32467    0.81887    1.000
    H400     H        0.96533    0.36067    0.80227    1.000
    H401     H        0.91103    0.31557    0.82927    1.000
    C192     C        0.94473    0.28327    0.78107    1.000
    H402     H        0.92503    0.24697    0.79687    1.000
    H403     H        0.92413    0.28317    0.75047    1.000
    C193     C        0.87193    0.19557    0.58927    1.000
    H404     H        0.85063    0.19197    0.55857    1.000
    H405     H        0.90383    0.23177    0.59027    1.000
    H406     H        0.84983    0.19007    0.61987    1.000
    C194     C        0.94653    0.15077    0.70307    1.000
    H407     H        0.95093    0.12357    0.72177    1.000
    H408     H        0.92563    0.16237    0.72387    1.000
    H409     H        0.98213    0.18197    0.69567    1.000
    O35      O        0.92023    0.17967    0.63927    1.000
    C195     C        0.89003    0.15227    0.58797    1.000
    H410     H        0.91413    0.15617    0.55907    1.000
    H411     H        0.86033    0.11457    0.59177    1.000
    C196     C        0.91623    0.12617    0.65187    1.000
    H412     H        0.93633    0.11587    0.62797    1.000
    H413     H        0.87873    0.09627    0.65657    1.000
    C197     C        0.85033    0.15167    0.63067    1.000
    C198     C        0.88793    0.12877    0.68567    1.000
    Cs18     Cs       0.04216    0.32037    0.64620    1.000
    H414     H        0.84183    0.19417    0.56987    1.000
    H415     H        0.89533    0.18967    0.56597    1.000
    H416     H        0.89273    0.23097    0.60557    1.000
    H417     H        0.84003    0.11507    0.61797    1.000
    H418     H        0.81953    0.14987    0.65107    1.000
    H419     H        0.86263    0.12207    0.71467    1.000
    H420     H        0.87403    0.09687    0.66327    1.000
    H421     H        0.94863    0.12477    0.72597    1.000
    H422     H        0.95923    0.18507    0.72117    1.000
    H423     H        0.96923    0.15667    0.67287    1.000
    O36      O        0.90513    0.18177    0.65737    1.000
    Cs19     Cs       0.62735    0.94509    0.01922    1.000
    P28      P        0.61512    0.81238    0.99580    1.000
    O37      O        0.62770    0.96350    0.90105    1.000
    C199     C        0.67380    0.80830    0.00040    1.000
    P29      P        0.66978    0.74444    0.00508    1.000
    O38      O        0.65980    0.01430    0.80269    1.000
    C200     C        0.56520    0.74420    0.99630    1.000
    P30      P        0.58503    0.69383    0.99987    1.000
    C201     C        0.73290    0.86170    0.00060    1.000
    C202     C        0.75690    0.88210    0.04340    1.000
    H424     H        0.79140    0.91310    0.03850    1.000
    C203     C        0.75930    0.88410    0.94680    1.000
    C204     C        0.81550    0.93270    0.94820    1.000
    H425     H        0.82350    0.95150    0.91510    1.000
    H426     H        0.81760    0.95730    0.97540    1.000
    H427     H        0.84170    0.92100    0.95480    1.000
    C205     C        0.76750    0.84230    0.92070    1.000
    H428     H        0.80390    0.85930    0.90620    1.000
    H429     H        0.76300    0.81480    0.94560    1.000
    H430     H        0.74080    0.82550    0.89320    1.000
    C206     C        0.73000    0.90700    0.92070    1.000
    H431     H        0.74910    0.92510    0.88920    1.000
    H432     H        0.69350    0.87800    0.91210    1.000
    H433     H        0.72760    0.93310    0.94330    1.000
    C207     C        0.74300    0.86830    0.10120    1.000
    C208     C        0.77310    0.91990    0.13130    1.000
    H434     H        0.81190    0.93550    0.12590    1.000
    H435     H        0.76190    0.94550    0.11980    1.000
    H436     H        0.76490    0.91230    0.16780    1.000
    C209     C        0.75670    0.82620    0.11790    1.000
    H437     H        0.79550    0.84040    0.11390    1.000
    H438     H        0.74650    0.81690    0.15390    1.000
    H439     H        0.73690    0.79380    0.09660    1.000
    C210     C        0.68050    0.84520    0.11680    1.000
    H440     H        0.67660    0.84080    0.15410    1.000
    H441     H        0.66910    0.87070    0.10560    1.000
    H442     H        0.65800    0.81030    0.10020    1.000
    C211     C        0.62860    0.93440    0.85640    1.000
    H443     H        0.63680    0.90590    0.86670    1.000
    H444     H        0.59270    0.91670    0.83980    1.000
    C212     C        0.67080    0.97240    0.81890    1.000
    H445     H        0.67130    0.95180    0.78860    1.000
    H446     H        0.70680    0.98900    0.83520    1.000
    C213     C        0.65800    0.04340    0.84780    1.000
    H447     H        0.69400    0.06200    0.86440    1.000
    H448     H        0.64890    0.07120    0.83740    1.000
    C214     C        0.61660    0.00520    0.88560    1.000
    H449     H        0.58030    0.98860    0.86980    1.000
    H450     H        0.61650    0.02570    0.91620    1.000
    C215     C        0.52890    0.99030    0.07740    1.000
    H451     H        0.52530    0.00800    0.10810    1.000
    H452     H        0.56510    0.99460    0.07640    1.000
    H453     H        0.52340    0.00690    0.04680    1.000
    C216     C        0.48410    0.87090    0.96360    1.000
    H454     H        0.45690    0.83930    0.94490    1.000
    H455     H        0.49570    0.90340    0.94280    1.000
    H456     H        0.51530    0.86650    0.97100    1.000
    O39      O        0.51300    0.92610    0.02740    1.000
    C217     C        0.48560    0.92890    0.07870    1.000
    H457     H        0.48950    0.90870    0.10760    1.000
    H458     H        0.44790    0.92090    0.07490    1.000
    C218     C        0.45950    0.87660    0.01480    1.000
    H459     H        0.44920    0.84620    0.03870    1.000
    H460     H        0.42960    0.88420    0.01010    1.000
    C219     C        0.48500    0.96800    0.03600    1.000
    C220     C        0.46210    0.90750    0.98100    1.000
    Cs20     Cs       0.65370    0.94487    0.02047    1.000
    H461     H        0.52750    0.01900    0.09680    1.000
    H462     H        0.52300    0.96100    0.10070    1.000
    H463     H        0.56430    0.00490    0.06110    1.000
    H464     H        0.44840    0.94170    0.04870    1.000
    H465     H        0.48320    0.99700    0.01560    1.000
    H466     H        0.45540    0.92610    0.95200    1.000
    H467     H        0.43020    0.88950    0.00340    1.000
    H468     H        0.45810    0.84280    0.94070    1.000
    H469     H        0.51840    0.89250    0.94550    1.000
    H470     H        0.49000    0.85410    0.99380    1.000
    O40      O        0.51510    0.94330    0.00930    1.000
    Cs21     Cs       0.29402    0.27843    0.35255    1.000
    P31      P        0.28179    0.14571    0.32913    1.000
    O41      O        0.29437    0.29683    0.23438    1.000
    C221     C        0.34047    0.14163    0.33373    1.000
    P32      P        0.33645    0.07777    0.33841    1.000
    O42      O        0.32647    0.34763    0.13602    1.000
    C222     C        0.23187    0.07753    0.32963    1.000
    P33      P        0.25170    0.02716    0.33320    1.000
    C223     C        0.39957    0.19503    0.33393    1.000
    C224     C        0.42357    0.21543    0.37673    1.000
    H471     H        0.45807    0.24643    0.37183    1.000
    C225     C        0.42597    0.21743    0.28013    1.000
    C226     C        0.48217    0.26603    0.28153    1.000
    H472     H        0.49017    0.28483    0.24843    1.000
    H473     H        0.48427    0.29063    0.30873    1.000
    H474     H        0.50837    0.25433    0.28813    1.000
    C227     C        0.43417    0.17563    0.25403    1.000
    H475     H        0.47057    0.19263    0.23953    1.000
    H476     H        0.42967    0.14813    0.27893    1.000
    H477     H        0.40747    0.15883    0.22653    1.000
    C228     C        0.39667    0.24033    0.25403    1.000
    H478     H        0.41577    0.25843    0.22253    1.000
    H479     H        0.36017    0.21133    0.24543    1.000
    H480     H        0.39427    0.26643    0.27663    1.000
    C229     C        0.40967    0.20163    0.43453    1.000
    C230     C        0.43977    0.25323    0.46463    1.000
    H481     H        0.47857    0.26883    0.45923    1.000
    H482     H        0.42857    0.27883    0.45313    1.000
    H483     H        0.43157    0.24563    0.50113    1.000
    C231     C        0.42337    0.15953    0.45123    1.000
    H484     H        0.46217    0.17373    0.44723    1.000
    H485     H        0.41317    0.15023    0.48723    1.000
    H486     H        0.40357    0.12713    0.42993    1.000
    C232     C        0.34717    0.17853    0.45013    1.000
    H487     H        0.34327    0.17413    0.48743    1.000
    H488     H        0.33577    0.20403    0.43893    1.000
    H489     H        0.32467    0.14363    0.43353    1.000
    C233     C        0.29527    0.26773    0.18973    1.000
    H490     H        0.30347    0.23923    0.20003    1.000
    H491     H        0.25937    0.25003    0.17313    1.000
    C234     C        0.33747    0.30573    0.15223    1.000
    H492     H        0.33797    0.28513    0.12193    1.000
    H493     H        0.37347    0.32233    0.16853    1.000
    C235     C        0.32467    0.37673    0.18113    1.000
    H494     H        0.36067    0.39533    0.19773    1.000
    H495     H        0.31557    0.40453    0.17073    1.000
    C236     C        0.28327    0.33853    0.21893    1.000
    H496     H        0.24697    0.32193    0.20313    1.000
    H497     H        0.28317    0.35903    0.24953    1.000
    C237     C        0.19557    0.32363    0.41073    1.000
    H498     H        0.19197    0.34133    0.44143    1.000
    H499     H        0.23177    0.32793    0.40973    1.000
    H500     H        0.19007    0.34023    0.38013    1.000
    C238     C        0.15077    0.20423    0.29693    1.000
    H501     H        0.12357    0.17263    0.27823    1.000
    H502     H        0.16237    0.23673    0.27613    1.000
    H503     H        0.18197    0.19983    0.30433    1.000
    O43      O        0.17967    0.25943    0.36073    1.000
    C239     C        0.15227    0.26223    0.41203    1.000
    H504     H        0.15617    0.24203    0.44093    1.000
    H505     H        0.11457    0.25423    0.40823    1.000
    C240     C        0.12617    0.20993    0.34813    1.000
    H506     H        0.11587    0.17953    0.37203    1.000
    H507     H        0.09627    0.21753    0.34343    1.000
    C241     C        0.15167    0.30133    0.36933    1.000
    C242     C        0.12877    0.24083    0.31433    1.000
    Cs22     Cs       0.32037    0.27820    0.35380    1.000
    H508     H        0.19417    0.35233    0.43013    1.000
    H509     H        0.18967    0.29433    0.43403    1.000
    H510     H        0.23097    0.33823    0.39443    1.000
    H511     H        0.11507    0.27503    0.38203    1.000
    H512     H        0.14987    0.33033    0.34893    1.000
    H513     H        0.12207    0.25943    0.28533    1.000
    H514     H        0.09687    0.22283    0.33673    1.000
    H515     H        0.12477    0.17613    0.27403    1.000
    H516     H        0.18507    0.22583    0.27883    1.000
    H517     H        0.15667    0.18743    0.32713    1.000
    O44      O        0.18177    0.27663    0.34263    1.000
    Cs23     Cs       0.96068    0.61176    0.68589    1.000
    P34      P        0.94845    0.47905    0.66247    1.000
    O45      O        0.96103    0.63017    0.56772    1.000
    C243     C        0.00713    0.47497    0.66707    1.000
    P35      P        0.00311    0.41111    0.67175    1.000
    O46      O        0.99313    0.68097    0.46936    1.000
    C244     C        0.89853    0.41087    0.66297    1.000
    P36      P        0.91836    0.36050    0.66654    1.000
    C245     C        0.06623    0.52837    0.66727    1.000
    C246     C        0.09023    0.54877    0.71007    1.000
    H518     H        0.12473    0.57977    0.70517    1.000
    C247     C        0.09263    0.55077    0.61347    1.000
    C248     C        0.14883    0.59937    0.61487    1.000
    H519     H        0.15683    0.61817    0.58177    1.000
    H520     H        0.15093    0.62397    0.64207    1.000
    H521     H        0.17503    0.58767    0.62147    1.000
    C249     C        0.10083    0.50897    0.58737    1.000
    H522     H        0.13723    0.52597    0.57287    1.000
    H523     H        0.09633    0.48147    0.61227    1.000
    H524     H        0.07413    0.49217    0.55987    1.000
    C250     C        0.06333    0.57367    0.58737    1.000
    H525     H        0.08243    0.59177    0.55587    1.000
    H526     H        0.02683    0.54467    0.57877    1.000
    H527     H        0.06093    0.59977    0.60997    1.000
    C251     C        0.07633    0.53497    0.76787    1.000
    C252     C        0.10643    0.58657    0.79797    1.000
    H528     H        0.14523    0.60217    0.79257    1.000
    H529     H        0.09523    0.61217    0.78647    1.000
    H530     H        0.09823    0.57897    0.83447    1.000
    C253     C        0.09003    0.49287    0.78457    1.000
    H531     H        0.12883    0.50707    0.78057    1.000
    H532     H        0.07983    0.48357    0.82057    1.000
    H533     H        0.07023    0.46047    0.76327    1.000
    C254     C        0.01383    0.51187    0.78347    1.000
    H534     H        0.00993    0.50747    0.82077    1.000
    H535     H        0.00243    0.53737    0.77227    1.000
    H536     H        0.99133    0.47697    0.76687    1.000
    C255     C        0.96193    0.60107    0.52307    1.000
    H537     H        0.97013    0.57257    0.53337    1.000
    H538     H        0.92603    0.58337    0.50647    1.000
    C256     C        0.00413    0.63907    0.48557    1.000
    H539     H        0.00463    0.61847    0.45527    1.000
    H540     H        0.04013    0.65567    0.50187    1.000
    C257     C        0.99133    0.71007    0.51447    1.000
    H541     H        0.02733    0.72867    0.53107    1.000
    H542     H        0.98223    0.73787    0.50407    1.000
    C258     C        0.94993    0.67187    0.55227    1.000
    H543     H        0.91363    0.65527    0.53647    1.000
    H544     H        0.94983    0.69237    0.58287    1.000
    C259     C        0.86223    0.65697    0.74407    1.000
    H545     H        0.85863    0.67467    0.77477    1.000
    H546     H        0.89843    0.66127    0.74307    1.000
    H547     H        0.85673    0.67357    0.71347    1.000
    C260     C        0.81743    0.53757    0.63027    1.000
    H548     H        0.79023    0.50597    0.61157    1.000
    H549     H        0.82903    0.57007    0.60947    1.000
    H550     H        0.84863    0.53317    0.63767    1.000
    O47      O        0.84633    0.59277    0.69407    1.000
    C261     C        0.81893    0.59557    0.74537    1.000
    H551     H        0.82283    0.57537    0.77427    1.000
    H552     H        0.78123    0.58757    0.74157    1.000
    C262     C        0.79283    0.54327    0.68147    1.000
    H553     H        0.78253    0.51287    0.70537    1.000
    H554     H        0.76293    0.55087    0.67677    1.000
    C263     C        0.81833    0.63467    0.70267    1.000
    C264     C        0.79543    0.57417    0.64767    1.000
    Cs24     Cs       0.98703    0.61154    0.68714    1.000
    H555     H        0.86083    0.68567    0.76347    1.000
    H556     H        0.85633    0.62767    0.76737    1.000
    H557     H        0.89763    0.67157    0.72777    1.000
    H558     H        0.78173    0.60837    0.71537    1.000
    H559     H        0.81653    0.66367    0.68227    1.000
    H560     H        0.78873    0.59277    0.61867    1.000
    H561     H        0.76353    0.55617    0.67007    1.000
    H562     H        0.79143    0.50947    0.60737    1.000
    H563     H        0.85173    0.55917    0.61217    1.000
    H564     H        0.82333    0.52077    0.66047    1.000
    O48      O        0.84843    0.60997    0.67597    1.000
    Cs25     Cs       0.05491    0.68226    0.01922    1.000
    P37      P        0.18762    0.80274    0.99580    1.000
    O49      O        0.03650    0.66420    0.90105    1.000
    C265     C        0.19170    0.86550    0.00040    1.000
    P38      P        0.25556    0.92534    0.00508    1.000
    O50      O        0.98570    0.64550    0.80269    1.000
    C266     C        0.25580    0.82100    0.99630    1.000
    P39      P        0.30617    0.89120    0.99987    1.000
    C267     C        0.13830    0.87120    0.00060    1.000
    C268     C        0.11790    0.87480    0.04340    1.000
    H565     H        0.08690    0.87830    0.03850    1.000
    C269     C        0.11590    0.87520    0.94680    1.000
    C270     C        0.06730    0.88280    0.94820    1.000
    H566     H        0.04850    0.87200    0.91510    1.000
    H567     H        0.04270    0.86030    0.97540    1.000
    H568     H        0.07900    0.92070    0.95480    1.000
    C271     C        0.15770    0.92520    0.92070    1.000
    H569     H        0.14070    0.94460    0.90620    1.000
    H570     H        0.18520    0.94820    0.94560    1.000
    H571     H        0.17450    0.91530    0.89320    1.000
    C272     C        0.09300    0.82300    0.92070    1.000
    H572     H        0.07490    0.82400    0.88920    1.000
    H573     H        0.12200    0.81550    0.91210    1.000
    H574     H        0.06690    0.79450    0.94330    1.000
    C273     C        0.13170    0.87470    0.10120    1.000
    C274     C        0.08010    0.85320    0.13130    1.000
    H575     H        0.06450    0.87640    0.12590    1.000
    H576     H        0.05450    0.81640    0.11980    1.000
    H577     H        0.08770    0.85260    0.16780    1.000
    C275     C        0.17380    0.93050    0.11790    1.000
    H578     H        0.15960    0.95510    0.11390    1.000
    H579     H        0.18310    0.92960    0.15390    1.000
    H580     H        0.20620    0.94310    0.09660    1.000
    C276     C        0.15480    0.83530    0.11680    1.000
    H581     H        0.15920    0.83580    0.15410    1.000
    H582     H        0.12930    0.79840    0.10560    1.000
    H583     H        0.18970    0.84770    0.10020    1.000
    C277     C        0.06560    0.69420    0.85640    1.000
    H584     H        0.09410    0.73090    0.86670    1.000
    H585     H        0.08330    0.67600    0.83980    1.000
    C278     C        0.02760    0.69840    0.81890    1.000
    H586     H        0.04820    0.71950    0.78860    1.000
    H587     H        0.01100    0.71780    0.83520    1.000
    C279     C        0.95660    0.61460    0.84780    1.000
    H588     H        0.93800    0.63200    0.86440    1.000
    H589     H        0.92880    0.57770    0.83740    1.000
    C280     C        0.99480    0.61140    0.88560    1.000
    H590     H        0.01140    0.59170    0.86980    1.000
    H591     H        0.97430    0.59080    0.91620    1.000
    C281     C        0.00970    0.53860    0.07740    1.000
    H592     H        0.99200    0.51730    0.10810    1.000
    H593     H        0.00540    0.57050    0.07640    1.000
    H594     H        0.99310    0.51650    0.04680    1.000
    C282     C        0.12910    0.61320    0.96360    1.000
    H595     H        0.16070    0.61760    0.94490    1.000
    H596     H        0.09660    0.59230    0.94280    1.000
    H597     H        0.13350    0.64880    0.97100    1.000
    O51      O        0.07390    0.58690    0.02740    1.000
    C283     C        0.07110    0.55670    0.07870    1.000
    H598     H        0.09130    0.58080    0.10760    1.000
    H599     H        0.07910    0.52700    0.07490    1.000
    C284     C        0.12340    0.58290    0.01480    1.000
    H600     H        0.15380    0.60300    0.03870    1.000
    H601     H        0.11580    0.54540    0.01010    1.000
    C285     C        0.03200    0.51700    0.03600    1.000
    C286     C        0.09250    0.55460    0.98100    1.000
    Cs26     Cs       0.05513    0.70883    0.02047    1.000
    H602     H        0.98100    0.50850    0.09680    1.000
    H603     H        0.03900    0.56200    0.10070    1.000
    H604     H        0.99510    0.55940    0.06110    1.000
    H605     H        0.05830    0.50670    0.04870    1.000
    H606     H        0.00300    0.48620    0.01560    1.000
    H607     H        0.07390    0.52930    0.95200    1.000
    H608     H        0.11050    0.54070    0.00340    1.000
    H609     H        0.15720    0.61530    0.94070    1.000
    H610     H        0.10750    0.62590    0.94550    1.000
    H611     H        0.14590    0.63590    0.99380    1.000
    O52      O        0.05670    0.57180    0.00930    1.000
    Cs27     Cs       0.72157    0.01559    0.35255    1.000
    P40      P        0.85429    0.13607    0.32913    1.000
    O53      O        0.70317    0.99753    0.23438    1.000
    C287     C        0.85837    0.19883    0.33373    1.000
    P41      P        0.92223    0.25867    0.33841    1.000
    O54      O        0.65237    0.97883    0.13602    1.000
    C288     C        0.92247    0.15433    0.32963    1.000
    P42      P        0.97284    0.22453    0.33320    1.000
    C289     C        0.80497    0.20453    0.33393    1.000
    C290     C        0.78457    0.20813    0.37673    1.000
    H612     H        0.75357    0.21163    0.37183    1.000
    C291     C        0.78257    0.20853    0.28013    1.000
    C292     C        0.73397    0.21613    0.28153    1.000
    H613     H        0.71517    0.20533    0.24843    1.000
    H614     H        0.70937    0.19363    0.30873    1.000
    H615     H        0.74567    0.25403    0.28813    1.000
    C293     C        0.82437    0.25853    0.25403    1.000
    H616     H        0.80737    0.27793    0.23953    1.000
    H617     H        0.85187    0.28153    0.27893    1.000
    H618     H        0.84117    0.24863    0.22653    1.000
    C294     C        0.75967    0.15633    0.25403    1.000
    H619     H        0.74157    0.15733    0.22253    1.000
    H620     H        0.78867    0.14883    0.24543    1.000
    H621     H        0.73357    0.12783    0.27663    1.000
    C295     C        0.79837    0.20803    0.43453    1.000
    C296     C        0.74677    0.18653    0.46463    1.000
    H622     H        0.73117    0.20973    0.45923    1.000
    H623     H        0.72117    0.14973    0.45313    1.000
    H624     H        0.75437    0.18593    0.50113    1.000
    C297     C        0.84047    0.26383    0.45123    1.000
    H625     H        0.82627    0.28843    0.44723    1.000
    H626     H        0.84977    0.26293    0.48723    1.000
    H627     H        0.87287    0.27643    0.42993    1.000
    C298     C        0.82147    0.16863    0.45013    1.000
    H628     H        0.82587    0.16913    0.48743    1.000
    H629     H        0.79597    0.13173    0.43893    1.000
    H630     H        0.85637    0.18103    0.43353    1.000
    C299     C        0.73227    0.02753    0.18973    1.000
    H631     H        0.76077    0.06423    0.20003    1.000
    H632     H        0.74997    0.00933    0.17313    1.000
    C300     C        0.69427    0.03173    0.15223    1.000
    H633     H        0.71487    0.05283    0.12193    1.000
    H634     H        0.67767    0.05113    0.16853    1.000
    C301     C        0.62327    0.94793    0.18113    1.000
    H635     H        0.60467    0.96533    0.19773    1.000
    H636     H        0.59547    0.91103    0.17073    1.000
    C302     C        0.66147    0.94473    0.21893    1.000
    H637     H        0.67807    0.92503    0.20313    1.000
    H638     H        0.64097    0.92413    0.24953    1.000
    C303     C        0.67637    0.87193    0.41073    1.000
    H639     H        0.65867    0.85063    0.44143    1.000
    H640     H        0.67207    0.90383    0.40973    1.000
    H641     H        0.65977    0.84983    0.38013    1.000
    C304     C        0.79577    0.94653    0.29693    1.000
    H642     H        0.82737    0.95093    0.27823    1.000
    H643     H        0.76327    0.92563    0.27613    1.000
    H644     H        0.80017    0.98213    0.30433    1.000
    O55      O        0.74057    0.92023    0.36073    1.000
    C305     C        0.73777    0.89003    0.41203    1.000
    H645     H        0.75797    0.91413    0.44093    1.000
    H646     H        0.74577    0.86033    0.40823    1.000
    C306     C        0.79007    0.91623    0.34813    1.000
    H647     H        0.82047    0.93633    0.37203    1.000
    H648     H        0.78247    0.87873    0.34343    1.000
    C307     C        0.69867    0.85033    0.36933    1.000
    C308     C        0.75917    0.88793    0.31433    1.000
    Cs28     Cs       0.72180    0.04216    0.35380    1.000
    H649     H        0.64767    0.84183    0.43013    1.000
    H650     H        0.70567    0.89533    0.43403    1.000
    H651     H        0.66177    0.89273    0.39443    1.000
    H652     H        0.72497    0.84003    0.38203    1.000
    H653     H        0.66967    0.81953    0.34893    1.000
    H654     H        0.74057    0.86263    0.28533    1.000
    H655     H        0.77717    0.87403    0.33673    1.000
    H656     H        0.82387    0.94863    0.27403    1.000
    H657     H        0.77417    0.95923    0.27883    1.000
    H658     H        0.81257    0.96923    0.32713    1.000
    O56      O        0.72337    0.90513    0.34263    1.000
    Cs29     Cs       0.38824    0.34892    0.68589    1.000
    P43      P        0.52095    0.46941    0.66247    1.000
    O57      O        0.36983    0.33087    0.56772    1.000
    C309     C        0.52503    0.53217    0.66707    1.000
    P44      P        0.58889    0.59201    0.67175    1.000
    O58      O        0.31903    0.31217    0.46936    1.000
    C310     C        0.58913    0.48767    0.66297    1.000
    P45      P        0.63950    0.55787    0.66654    1.000
    C311     C        0.47163    0.53787    0.66727    1.000
    C312     C        0.45123    0.54147    0.71007    1.000
    H659     H        0.42023    0.54497    0.70517    1.000
    C313     C        0.44923    0.54187    0.61347    1.000
    C314     C        0.40063    0.54947    0.61487    1.000
    H660     H        0.38183    0.53867    0.58177    1.000
    H661     H        0.37603    0.52697    0.64207    1.000
    H662     H        0.41233    0.58737    0.62147    1.000
    C315     C        0.49103    0.59187    0.58737    1.000
    H663     H        0.47403    0.61127    0.57287    1.000
    H664     H        0.51853    0.61487    0.61227    1.000
    H665     H        0.50783    0.58197    0.55987    1.000
    C316     C        0.42633    0.48967    0.58737    1.000
    H666     H        0.40823    0.49067    0.55587    1.000
    H667     H        0.45533    0.48217    0.57877    1.000
    H668     H        0.40023    0.46117    0.60997    1.000
    C317     C        0.46503    0.54137    0.76787    1.000
    C318     C        0.41343    0.51987    0.79797    1.000
    H669     H        0.39783    0.54307    0.79257    1.000
    H670     H        0.38783    0.48307    0.78647    1.000
    H671     H        0.42103    0.51927    0.83447    1.000
    C319     C        0.50713    0.59717    0.78457    1.000
    H672     H        0.49293    0.62177    0.78057    1.000
    H673     H        0.51643    0.59627    0.82057    1.000
    H674     H        0.53953    0.60977    0.76327    1.000
    C320     C        0.48813    0.50197    0.78347    1.000
    H675     H        0.49253    0.50247    0.82077    1.000
    H676     H        0.46263    0.46507    0.77227    1.000
    H677     H        0.52303    0.51437    0.76687    1.000
    C321     C        0.39893    0.36087    0.52307    1.000
    H678     H        0.42743    0.39757    0.53337    1.000
    H679     H        0.41663    0.34267    0.50647    1.000
    C322     C        0.36093    0.36507    0.48557    1.000
    H680     H        0.38153    0.38617    0.45527    1.000
    H681     H        0.34433    0.38447    0.50187    1.000
    C323     C        0.28993    0.28127    0.51447    1.000
    H682     H        0.27133    0.29867    0.53107    1.000
    H683     H        0.26213    0.24437    0.50407    1.000
    C324     C        0.32813    0.27807    0.55227    1.000
    H684     H        0.34473    0.25837    0.53647    1.000
    H685     H        0.30763    0.25747    0.58287    1.000
    C325     C        0.34303    0.20527    0.74407    1.000
    H686     H        0.32533    0.18397    0.77477    1.000
    H687     H        0.33873    0.23717    0.74307    1.000
    H688     H        0.32643    0.18317    0.71347    1.000
    C326     C        0.46243    0.27987    0.63027    1.000
    H689     H        0.49403    0.28427    0.61157    1.000
    H690     H        0.42993    0.25897    0.60947    1.000
    H691     H        0.46683    0.31547    0.63767    1.000
    O59      O        0.40723    0.25357    0.69407    1.000
    C327     C        0.40443    0.22337    0.74537    1.000
    H692     H        0.42463    0.24747    0.77427    1.000
    H693     H        0.41243    0.19367    0.74157    1.000
    C328     C        0.45673    0.24957    0.68147    1.000
    H694     H        0.48713    0.26967    0.70537    1.000
    H695     H        0.44913    0.21207    0.67677    1.000
    C329     C        0.36533    0.18367    0.70267    1.000
    C330     C        0.42583    0.22127    0.64767    1.000
    Cs30     Cs       0.38846    0.37550    0.68714    1.000
    H696     H        0.31433    0.17517    0.76347    1.000
    H697     H        0.37233    0.22867    0.76737    1.000
    H698     H        0.32843    0.22607    0.72777    1.000
    H699     H        0.39163    0.17337    0.71537    1.000
    H700     H        0.33633    0.15287    0.68227    1.000
    H701     H        0.40723    0.19597    0.61867    1.000
    H702     H        0.44383    0.20737    0.67007    1.000
    H703     H        0.49053    0.28197    0.60737    1.000
    H704     H        0.44083    0.29257    0.61217    1.000
    H705     H        0.47923    0.30257    0.66047    1.000
    O60      O        0.39003    0.23847    0.67597    1.000
    Cs31     Cs       0.31774    0.37265    0.01922    1.000
    P46      P        0.19726    0.38488    0.99580    1.000
    O61      O        0.33580    0.37230    0.90105    1.000
    C331     C        0.13450    0.32620    0.00040    1.000
    P47      P        0.07466    0.33022    0.00508    1.000
    O62      O        0.35450    0.34020    0.80269    1.000
    C332     C        0.17900    0.43480    0.99630    1.000
    P48      P        0.10880    0.41497    0.99987    1.000
    C333     C        0.12880    0.26710    0.00060    1.000
    C334     C        0.12520    0.24310    0.04340    1.000
    H706     H        0.12170    0.20860    0.03850    1.000
    C335     C        0.12480    0.24070    0.94680    1.000
    C336     C        0.11720    0.18450    0.94820    1.000
    H707     H        0.12800    0.17650    0.91510    1.000
    H708     H        0.13970    0.18240    0.97540    1.000
    H709     H        0.07930    0.15830    0.95480    1.000
    C337     C        0.07480    0.23250    0.92070    1.000
    H710     H        0.05540    0.19610    0.90620    1.000
    H711     H        0.05180    0.23700    0.94560    1.000
    H712     H        0.08470    0.25920    0.89320    1.000
    C338     C        0.17700    0.27000    0.92070    1.000
    H713     H        0.17600    0.25090    0.88920    1.000
    H714     H        0.18450    0.30650    0.91210    1.000
    H715     H        0.20550    0.27240    0.94330    1.000
    C339     C        0.12530    0.25700    0.10120    1.000
    C340     C        0.14680    0.22690    0.13130    1.000
    H716     H        0.12360    0.18810    0.12590    1.000
    H717     H        0.18360    0.23810    0.11980    1.000
    H718     H        0.14740    0.23510    0.16780    1.000
    C341     C        0.06950    0.24330    0.11790    1.000
    H719     H        0.04490    0.20450    0.11390    1.000
    H720     H        0.07040    0.25350    0.15390    1.000
    H721     H        0.05690    0.26310    0.09660    1.000
    C342     C        0.16470    0.31950    0.11680    1.000
    H722     H        0.16420    0.32340    0.15410    1.000
    H723     H        0.20160    0.33090    0.10560    1.000
    H724     H        0.15230    0.34200    0.10020    1.000
    C343     C        0.30580    0.37140    0.85640    1.000
    H725     H        0.26910    0.36320    0.86670    1.000
    H726     H        0.32400    0.40730    0.83980    1.000
    C344     C        0.30160    0.32920    0.81890    1.000
    H727     H        0.28050    0.32870    0.78860    1.000
    H728     H        0.28220    0.29320    0.83520    1.000
    C345     C        0.38540    0.34200    0.84780    1.000
    H729     H        0.36800    0.30600    0.86440    1.000
    H730     H        0.42230    0.35110    0.83740    1.000
    C346     C        0.38860    0.38340    0.88560    1.000
    H731     H        0.40830    0.41970    0.86980    1.000
    H732     H        0.40920    0.38350    0.91620    1.000
    C347     C        0.46140    0.47110    0.07740    1.000
    H733     H        0.48270    0.47470    0.10810    1.000
    H734     H        0.42950    0.43490    0.07640    1.000
    H735     H        0.48350    0.47660    0.04680    1.000
    C348     C        0.38680    0.51590    0.96360    1.000
    H736     H        0.38240    0.54310    0.94490    1.000
    H737     H        0.40770    0.50430    0.94280    1.000
    H738     H        0.35120    0.48470    0.97100    1.000
    O63      O        0.41310    0.48700    0.02740    1.000
    C349     C        0.44330    0.51440    0.07870    1.000
    H739     H        0.41920    0.51050    0.10760    1.000
    H740     H        0.47300    0.55210    0.07490    1.000
    C350     C        0.41710    0.54050    0.01480    1.000
    H741     H        0.39700    0.55080    0.03870    1.000
    H742     H        0.45460    0.57040    0.01010    1.000
    C351     C        0.48300    0.51500    0.03600    1.000
    C352     C        0.44540    0.53790    0.98100    1.000
    Cs32     Cs       0.29117    0.34630    0.02047    1.000
    H743     H        0.49150    0.47250    0.09680    1.000
    H744     H        0.43800    0.47700    0.10070    1.000
    H745     H        0.44060    0.43570    0.06110    1.000
    H746     H        0.49330    0.55160    0.04870    1.000
    H747     H        0.51380    0.51680    0.01560    1.000
    H748     H        0.47070    0.54460    0.95200    1.000
    H749     H        0.45930    0.56980    0.00340    1.000
    H750     H        0.38470    0.54190    0.94070    1.000
    H751     H        0.37410    0.48160    0.94550    1.000
    H752     H        0.36410    0.51000    0.99380    1.000
    O64      O        0.42820    0.48490    0.00930    1.000
    Cs33     Cs       0.98441    0.70598    0.35255    1.000
    P49      P        0.86393    0.71821    0.32913    1.000
    O65      O        0.00247    0.70563    0.23438    1.000
    C353     C        0.80117    0.65953    0.33373    1.000
    P50      P        0.74133    0.66355    0.33841    1.000
    O66      O        0.02117    0.67353    0.13602    1.000
    C354     C        0.84567    0.76813    0.32963    1.000
    P51      P        0.77547    0.74830    0.33320    1.000
    C355     C        0.79547    0.60043    0.33393    1.000
    C356     C        0.79187    0.57643    0.37673    1.000
    H753     H        0.78837    0.54193    0.37183    1.000
    C357     C        0.79147    0.57403    0.28013    1.000
    C358     C        0.78387    0.51783    0.28153    1.000
    H754     H        0.79467    0.50983    0.24843    1.000
    H755     H        0.80637    0.51573    0.30873    1.000
    H756     H        0.74597    0.49163    0.28813    1.000
    C359     C        0.74147    0.56583    0.25403    1.000
    H757     H        0.72207    0.52943    0.23953    1.000
    H758     H        0.71847    0.57033    0.27893    1.000
    H759     H        0.75137    0.59253    0.22653    1.000
    C360     C        0.84367    0.60333    0.25403    1.000
    H760     H        0.84267    0.58423    0.22253    1.000
    H761     H        0.85117    0.63983    0.24543    1.000
    H762     H        0.87217    0.60573    0.27663    1.000
    C361     C        0.79197    0.59033    0.43453    1.000
    C362     C        0.81347    0.56023    0.46463    1.000
    H763     H        0.79027    0.52143    0.45923    1.000
    H764     H        0.85027    0.57143    0.45313    1.000
    H765     H        0.81407    0.56843    0.50113    1.000
    C363     C        0.73617    0.57663    0.45123    1.000
    H766     H        0.71157    0.53783    0.44723    1.000
    H767     H        0.73707    0.58683    0.48723    1.000
    H768     H        0.72357    0.59643    0.42993    1.000
    C364     C        0.83137    0.65283    0.45013    1.000
    H769     H        0.83087    0.65673    0.48743    1.000
    H770     H        0.86827    0.66423    0.43893    1.000
    H771     H        0.81897    0.67533    0.43353    1.000
    C365     C        0.97247    0.70473    0.18973    1.000
    H772     H        0.93577    0.69653    0.20003    1.000
    H773     H        0.99067    0.74063    0.17313    1.000
    C366     C        0.96827    0.66253    0.15223    1.000
    H774     H        0.94717    0.66203    0.12193    1.000
    H775     H        0.94887    0.62653    0.16853    1.000
    C367     C        0.05207    0.67533    0.18113    1.000
    H776     H        0.03467    0.63933    0.19773    1.000
    H777     H        0.08897    0.68443    0.17073    1.000
    C368     C        0.05527    0.71673    0.21893    1.000
    H778     H        0.07497    0.75303    0.20313    1.000
    H779     H        0.07587    0.71683    0.24953    1.000
    C369     C        0.12807    0.80443    0.41073    1.000
    H780     H        0.14937    0.80803    0.44143    1.000
    H781     H        0.09617    0.76823    0.40973    1.000
    H782     H        0.15017    0.80993    0.38013    1.000
    C370     C        0.05347    0.84923    0.29693    1.000
    H783     H        0.04907    0.87643    0.27823    1.000
    H784     H        0.07437    0.83763    0.27613    1.000
    H785     H        0.01787    0.81803    0.30433    1.000
    O67      O        0.07977    0.82033    0.36073    1.000
    C371     C        0.10997    0.84773    0.41203    1.000
    H786     H        0.08587    0.84383    0.44093    1.000
    H787     H        0.13967    0.88543    0.40823    1.000
    C372     C        0.08377    0.87383    0.34813    1.000
    H788     H        0.06367    0.88413    0.37203    1.000
    H789     H        0.12127    0.90373    0.34343    1.000
    C373     C        0.14967    0.84833    0.36933    1.000
    C374     C        0.11207    0.87123    0.31433    1.000
    Cs34     Cs       0.95784    0.67963    0.35380    1.000
    H790     H        0.15817    0.80583    0.43013    1.000
    H791     H        0.10467    0.81033    0.43403    1.000
    H792     H        0.10727    0.76903    0.39443    1.000
    H793     H        0.15997    0.88493    0.38203    1.000
    H794     H        0.18047    0.85013    0.34893    1.000
    H795     H        0.13737    0.87793    0.28533    1.000
    H796     H        0.12597    0.90313    0.33673    1.000
    H797     H        0.05137    0.87523    0.27403    1.000
    H798     H        0.04077    0.81493    0.27883    1.000
    H799     H        0.03077    0.84333    0.32713    1.000
    O68      O        0.09487    0.81823    0.34263    1.000
    Cs35     Cs       0.65108    0.03932    0.68589    1.000
    P52      P        0.53059    0.05155    0.66247    1.000
    O69      O        0.66913    0.03897    0.56772    1.000
    C375     C        0.46783    0.99287    0.66707    1.000
    P53      P        0.40799    0.99689    0.67175    1.000
    O70      O        0.68783    0.00687    0.46936    1.000
    C376     C        0.51233    0.10147    0.66297    1.000
    P54      P        0.44213    0.08164    0.66654    1.000
    C377     C        0.46213    0.93377    0.66727    1.000
    C378     C        0.45853    0.90977    0.71007    1.000
    H800     H        0.45503    0.87527    0.70517    1.000
    C379     C        0.45813    0.90737    0.61347    1.000
    C380     C        0.45053    0.85117    0.61487    1.000
    H801     H        0.46133    0.84317    0.58177    1.000
    H802     H        0.47303    0.84907    0.64207    1.000
    H803     H        0.41263    0.82497    0.62147    1.000
    C381     C        0.40813    0.89917    0.58737    1.000
    H804     H        0.38873    0.86277    0.57287    1.000
    H805     H        0.38513    0.90367    0.61227    1.000
    H806     H        0.41803    0.92587    0.55987    1.000
    C382     C        0.51033    0.93667    0.58737    1.000
    H807     H        0.50933    0.91757    0.55587    1.000
    H808     H        0.51783    0.97317    0.57877    1.000
    H809     H        0.53883    0.93907    0.60997    1.000
    C383     C        0.45863    0.92367    0.76787    1.000
    C384     C        0.48013    0.89357    0.79797    1.000
    H810     H        0.45693    0.85477    0.79257    1.000
    H811     H        0.51693    0.90477    0.78647    1.000
    H812     H        0.48073    0.90177    0.83447    1.000
    C385     C        0.40283    0.90997    0.78457    1.000
    H813     H        0.37823    0.87117    0.78057    1.000
    H814     H        0.40373    0.92017    0.82057    1.000
    H815     H        0.39023    0.92977    0.76327    1.000
    C386     C        0.49803    0.98617    0.78347    1.000
    H816     H        0.49753    0.99007    0.82077    1.000
    H817     H        0.53493    0.99757    0.77227    1.000
    H818     H        0.48563    0.00867    0.76687    1.000
    C387     C        0.63913    0.03807    0.52307    1.000
    H819     H        0.60243    0.02987    0.53337    1.000
    H820     H        0.65733    0.07397    0.50647    1.000
    C388     C        0.63493    0.99587    0.48557    1.000
    H821     H        0.61383    0.99537    0.45527    1.000
    H822     H        0.61553    0.95987    0.50187    1.000
    C389     C        0.71873    0.00867    0.51447    1.000
    H823     H        0.70133    0.97267    0.53107    1.000
    H824     H        0.75563    0.01777    0.50407    1.000
    C390     C        0.72193    0.05007    0.55227    1.000
    H825     H        0.74163    0.08637    0.53647    1.000
    H826     H        0.74253    0.05017    0.58287    1.000
    C391     C        0.79473    0.13777    0.74407    1.000
    H827     H        0.81603    0.14137    0.77477    1.000
    H828     H        0.76283    0.10157    0.74307    1.000
    H829     H        0.81683    0.14327    0.71347    1.000
    C392     C        0.72013    0.18257    0.63027    1.000
    H830     H        0.71573    0.20977    0.61157    1.000
    H831     H        0.74103    0.17097    0.60947    1.000
    H832     H        0.68453    0.15137    0.63767    1.000
    O71      O        0.74643    0.15367    0.69407    1.000
    C393     C        0.77663    0.18107    0.74537    1.000
    H833     H        0.75253    0.17717    0.77427    1.000
    H834     H        0.80633    0.21877    0.74157    1.000
    C394     C        0.75043    0.20717    0.68147    1.000
    H835     H        0.73033    0.21747    0.70537    1.000
    H836     H        0.78793    0.23707    0.67677    1.000
    C395     C        0.81633    0.18167    0.70267    1.000
    C396     C        0.77873    0.20457    0.64767    1.000
    Cs36     Cs       0.62450    0.01297    0.68714    1.000
    H837     H        0.82483    0.13917    0.76347    1.000
    H838     H        0.77133    0.14367    0.76737    1.000
    H839     H        0.77393    0.10237    0.72777    1.000
    H840     H        0.82663    0.21827    0.71537    1.000
    H841     H        0.84713    0.18347    0.68227    1.000
    H842     H        0.80403    0.21127    0.61867    1.000
    H843     H        0.79263    0.23647    0.67007    1.000
    H844     H        0.71803    0.20857    0.60737    1.000
    H845     H        0.70743    0.14827    0.61217    1.000
    H846     H        0.69743    0.17667    0.66047    1.000
    O72      O        0.76153    0.15157    0.67597    1.000
