data_functionalizedCrystal
_audit_creation_method	'EQeq! by Chris Wilmer'
_symmetry_space_group_name_H-M	'P1'
_symmetry_Int_Tables_number	1
_symmetry_cell_setting	triclinic
loop_
_symmetry_equiv_pos_as_xyz
  x,y,z
_cell_length_a	6.9362
_cell_length_b	7.4559
_cell_length_c	8.2797
_cell_angle_alpha	90.342
_cell_angle_beta	109.848
_cell_angle_gamma	93.161
loop_
_atom_site_label
_atom_site_type_symbol
_atom_site_fract_x
_atom_site_fract_y
_atom_site_fract_z
_atom_site_charge
Mof_Co	Co	-4.88827e-17	0	0.5	1.039
Mof_Co	Co	0.5	0.5	0.5	1.155
Mof_H 	H 	0.5759	0.7088	0.9601	0.099
Mof_H 	H 	0.4241	0.2912	0.0399	-0.02
Mof_C 	C 	0.6477	0.7589	0.2845	0.297
Mof_C 	C 	0.5807	0.8919	0.1426	0.113
Mof_C 	C 	0.536	0.0677	0.1667	-0.278
Mof_C 	C 	0.5754	0.1563	0.3404	0.404
Mof_C 	C 	0.5451	0.8259	0.9762	-0.123
Mof_C 	C 	0.3523	0.2411	0.7155	0.407
Mof_C 	C 	0.4193	0.1081	0.8574	-0.282
Mof_C 	C 	0.464	0.9323	0.8333	0.109
Mof_C 	C 	0.4246	0.8437	0.6596	0.31
Mof_C 	C 	0.4549	0.1741	0.0238	0.147
Mof_O 	O 	0.8306	0.7675	0.3881	-0.326
Mof_O 	O 	0.5125	0.6424	0.2877	-0.402
Mof_O 	O 	0.7355	0.1283	0.4622	-0.428
Mof_O 	O 	0.443	0.262	0.3501	-0.455
Mof_O 	O 	0.1694	0.2325	0.6119	-0.529
Mof_O 	O 	0.4875	0.3576	0.7123	-0.427
Mof_O 	O 	0.2645	0.8717	0.5378	-0.432
Mof_O 	O 	0.557	0.738	0.6499	-0.378
_end
