# CIF file generated by openbabel 3.1.0, see https://openbabel.org
data_I
_chemical_name_common 'image0'
_cell_length_a 13.741
_cell_length_b 12.356
_cell_length_c 20.729
_cell_angle_alpha 90
_cell_angle_beta 101.45
_cell_angle_gamma 90
_space_group_name_H-M_alt 'P 1'
_space_group_name_Hall 'P 1'
loop_
    _symmetry_equiv_pos_as_xyz
    x,y,z
loop_
    _atom_site_label
    _atom_site_type_symbol
    _atom_site_fract_x
    _atom_site_fract_y
    _atom_site_fract_z
    _atom_site_occupancy
    Na1      Na       0.27120    0.24050    0.31200    1.000
    Na2      Na       0.09440    0.10300    0.72570    1.000
    Na3      Na       0.05700    0.88880    0.46810    1.000
    Na4      Na       0.18410    0.28560    0.48330    1.000
    S1       S        0.23330    0.04750    0.39470    1.000
    S2       S        0.16240    0.82870    0.71210    1.000
    S3       S        0.25620    0.23990    0.63980    1.000
    O1       O        0.49860    0.71360    0.53470    1.000
    O2       O        0.13500    0.01350    0.40200    1.000
    O3       O        0.26190    0.15270    0.42140    1.000
    O4       O        0.24050    0.04090    0.32470    1.000
    O5       O        0.55750    0.71290    0.66360    1.000
    O6       O        0.13830    0.93620    0.69040    1.000
    O7       O        0.16050    0.80810    0.78140    1.000
    O8       O        0.09700    0.75210    0.67100    1.000
    O9       O        0.60720    0.51790    0.66550    1.000
    O10      O        0.23760    0.20620    0.70320    1.000
    O11      O        0.17840    0.30820    0.60490    1.000
    O12      O        0.27120    0.14990    0.59880    1.000
    C1       C        0.43930    0.79430    0.50500    1.000
    C2       C        0.38840    0.77360    0.44010    1.000
    C3       C        0.32640    0.85270    0.40770    1.000
    C4       C        0.31580    0.95220    0.43590    1.000
    C5       C        0.36640    0.97000    0.50150    1.000
    C6       C        0.42640    0.89210    0.53530    1.000
    C7       C        0.47410    0.91100    0.60780    1.000
    C8       C        0.46900    0.74360    0.67730    1.000
    C9       C        0.42410    0.83750    0.65280    1.000
    C10      C        0.33110    0.86900    0.66390    1.000
    C11      C        0.28360    0.79850    0.70160    1.000
    C12      C        0.32700    0.70520    0.72620    1.000
    C13      C        0.42060    0.67440    0.71810    1.000
    C14      C        0.46760    0.57230    0.74710    1.000
    C15      C        0.52860    0.45010    0.66320    1.000
    C16      C        0.45480    0.47470    0.70160    1.000
    C17      C        0.37310    0.40660    0.69390    1.000
    C18      C        0.36550    0.31650    0.65460    1.000
    C19      C        0.44220    0.29000    0.62030    1.000
    C20      C        0.52460    0.35720    0.62700    1.000
    C21      C        0.39070    0.66230    0.40900    1.000
    O13      O        0.10210    0.01530    0.55930    1.000
    O14      O        0.08540    0.22460    0.28110    1.000
    O15      O        0.20510    0.41870    0.33410    1.000
    O16      O        0.96570    0.81060    0.55030    1.000
    O17      O        0.99000    0.21000    0.63250    1.000
    Na5      Na       0.72880    0.74050    0.18800    1.000
    Na6      Na       0.90560    0.60300    0.77430    1.000
    Na7      Na       0.94300    0.38880    0.03190    1.000
    Na8      Na       0.81590    0.78560    0.01670    1.000
    S4       S        0.76670    0.54750    0.10530    1.000
    S5       S        0.83760    0.32870    0.78790    1.000
    S6       S        0.74380    0.73990    0.86020    1.000
    O18      O        0.50140    0.21360    0.96530    1.000
    O19      O        0.86500    0.51350    0.09800    1.000
    O20      O        0.73810    0.65270    0.07860    1.000
    O21      O        0.75950    0.54090    0.17530    1.000
    O22      O        0.44250    0.21290    0.83640    1.000
    O23      O        0.86170    0.43620    0.80960    1.000
    O24      O        0.83950    0.30810    0.71860    1.000
    O25      O        0.90300    0.25210    0.82900    1.000
    O26      O        0.39280    0.01790    0.83450    1.000
    O27      O        0.76240    0.70620    0.79680    1.000
    O28      O        0.82160    0.80820    0.89510    1.000
    O29      O        0.72880    0.64990    0.90120    1.000
    C22      C        0.56070    0.29430    0.99500    1.000
    C23      C        0.61160    0.27360    0.05990    1.000
    C24      C        0.67360    0.35270    0.09230    1.000
    C25      C        0.68420    0.45220    0.06410    1.000
    C26      C        0.63360    0.47000    0.99850    1.000
    C27      C        0.57360    0.39210    0.96470    1.000
    C28      C        0.52590    0.41100    0.89220    1.000
    C29      C        0.53100    0.24360    0.82270    1.000
    C30      C        0.57590    0.33750    0.84720    1.000
    C31      C        0.66890    0.36900    0.83610    1.000
    C32      C        0.71640    0.29850    0.79840    1.000
    C33      C        0.67300    0.20520    0.77380    1.000
    C34      C        0.57940    0.17440    0.78190    1.000
    C35      C        0.53240    0.07230    0.75290    1.000
    C36      C        0.47140    0.95010    0.83680    1.000
    C37      C        0.54520    0.97470    0.79840    1.000
    C38      C        0.62690    0.90660    0.80610    1.000
    C39      C        0.63450    0.81650    0.84540    1.000
    C40      C        0.55780    0.79000    0.87970    1.000
    C41      C        0.47540    0.85720    0.87300    1.000
    C42      C        0.60930    0.16230    0.09100    1.000
    O30      O        0.89790    0.51530    0.94070    1.000
    O31      O        0.91460    0.72460    0.21890    1.000
    O32      O        0.79490    0.91870    0.16590    1.000
    O33      O        0.03430    0.31060    0.94970    1.000
    O34      O        0.01000    0.71000    0.86750    1.000
    Na9      Na       0.72880    0.75950    0.68800    1.000
    Na10     Na       0.90560    0.89700    0.27430    1.000
    Na11     Na       0.94300    0.11120    0.53190    1.000
    Na12     Na       0.81590    0.71440    0.51670    1.000
    S7       S        0.76670    0.95250    0.60530    1.000
    S8       S        0.83760    0.17130    0.28790    1.000
    S9       S        0.74380    0.76010    0.36020    1.000
    O35      O        0.50140    0.28640    0.46530    1.000
    O36      O        0.86500    0.98650    0.59800    1.000
    O37      O        0.73810    0.84730    0.57860    1.000
    O38      O        0.75950    0.95910    0.67530    1.000
    O39      O        0.44250    0.28710    0.33640    1.000
    O40      O        0.86170    0.06380    0.30960    1.000
    O41      O        0.83950    0.19190    0.21860    1.000
    O42      O        0.90300    0.24790    0.32900    1.000
    O43      O        0.39280    0.48210    0.33450    1.000
    O44      O        0.76240    0.79380    0.29680    1.000
    O45      O        0.82160    0.69180    0.39510    1.000
    O46      O        0.72880    0.85010    0.40120    1.000
    C43      C        0.56070    0.20570    0.49500    1.000
    C44      C        0.61160    0.22640    0.55990    1.000
    C45      C        0.67360    0.14730    0.59230    1.000
    C46      C        0.68420    0.04780    0.56410    1.000
    C47      C        0.63360    0.03000    0.49850    1.000
    C48      C        0.57360    0.10790    0.46470    1.000
    C49      C        0.52590    0.08900    0.39220    1.000
    C50      C        0.53100    0.25640    0.32270    1.000
    C51      C        0.57590    0.16250    0.34720    1.000
    C52      C        0.66890    0.13100    0.33610    1.000
    C53      C        0.71640    0.20150    0.29840    1.000
    C54      C        0.67300    0.29480    0.27380    1.000
    C55      C        0.57940    0.32560    0.28190    1.000
    C56      C        0.53240    0.42770    0.25290    1.000
    C57      C        0.47140    0.54990    0.33680    1.000
    C58      C        0.54520    0.52530    0.29840    1.000
    C59      C        0.62690    0.59340    0.30610    1.000
    C60      C        0.63450    0.68350    0.34540    1.000
    C61      C        0.55780    0.71000    0.37970    1.000
    C62      C        0.47540    0.64280    0.37300    1.000
    C63      C        0.60930    0.33770    0.59100    1.000
    O47      O        0.89790    0.98470    0.44070    1.000
    O48      O        0.91460    0.77540    0.71890    1.000
    O49      O        0.79490    0.58130    0.66590    1.000
    O50      O        0.03430    0.18940    0.44970    1.000
    O51      O        0.01000    0.79000    0.36750    1.000
    Na13     Na       0.27120    0.25950    0.81200    1.000
    Na14     Na       0.09440    0.39700    0.22570    1.000
    Na15     Na       0.05700    0.61120    0.96810    1.000
    Na16     Na       0.18410    0.21440    0.98330    1.000
    S10      S        0.23330    0.45250    0.89470    1.000
    S11      S        0.16240    0.67130    0.21210    1.000
    S12      S        0.25620    0.26010    0.13980    1.000
    O52      O        0.49860    0.78640    0.03470    1.000
    O53      O        0.13500    0.48650    0.90200    1.000
    O54      O        0.26190    0.34730    0.92140    1.000
    O55      O        0.24050    0.45910    0.82470    1.000
    O56      O        0.55750    0.78710    0.16360    1.000
    O57      O        0.13830    0.56380    0.19040    1.000
    O58      O        0.16050    0.69190    0.28140    1.000
    O59      O        0.09700    0.74790    0.17100    1.000
    O60      O        0.60720    0.98210    0.16550    1.000
    O61      O        0.23760    0.29380    0.20320    1.000
    O62      O        0.17840    0.19180    0.10490    1.000
    O63      O        0.27120    0.35010    0.09880    1.000
    C64      C        0.43930    0.70570    0.00500    1.000
    C65      C        0.38840    0.72640    0.94010    1.000
    C66      C        0.32640    0.64730    0.90770    1.000
    C67      C        0.31580    0.54780    0.93590    1.000
    C68      C        0.36640    0.53000    0.00150    1.000
    C69      C        0.42640    0.60790    0.03530    1.000
    C70      C        0.47410    0.58900    0.10780    1.000
    C71      C        0.46900    0.75640    0.17730    1.000
    C72      C        0.42410    0.66250    0.15280    1.000
    C73      C        0.33110    0.63100    0.16390    1.000
    C74      C        0.28360    0.70150    0.20160    1.000
    C75      C        0.32700    0.79480    0.22620    1.000
    C76      C        0.42060    0.82560    0.21810    1.000
    C77      C        0.46760    0.92770    0.24710    1.000
    C78      C        0.52860    0.04990    0.16320    1.000
    C79      C        0.45480    0.02530    0.20160    1.000
    C80      C        0.37310    0.09340    0.19390    1.000
    C81      C        0.36550    0.18350    0.15460    1.000
    C82      C        0.44220    0.21000    0.12030    1.000
    C83      C        0.52460    0.14280    0.12700    1.000
    C84      C        0.39070    0.83770    0.90900    1.000
    O64      O        0.10210    0.48470    0.05930    1.000
    O65      O        0.08540    0.27540    0.78110    1.000
    O66      O        0.20510    0.08130    0.83410    1.000
    O67      O        0.96570    0.68940    0.05030    1.000
    O68      O        0.99000    0.29000    0.13250    1.000
