data_functionalizedCrystal
_audit_creation_method	'EQeq! by Chris Wilmer'
_symmetry_space_group_name_H-M	'P1'
_symmetry_Int_Tables_number	1
_symmetry_cell_setting	triclinic
loop_
_symmetry_equiv_pos_as_xyz
  x,y,z
_cell_length_a	27.653
_cell_length_b	27.653
_cell_length_c	22.9284
_cell_angle_alpha	90
_cell_angle_beta	90
_cell_angle_gamma	120
loop_
_atom_site_label
_atom_site_type_symbol
_atom_site_fract_x
_atom_site_fract_y
_atom_site_fract_z
_atom_site_charge
Mof_Zn	Zn	0.54781	0.88152	0.29966	1.192
Mof_Zn	Zn	0.54782	0.66634	0.29966	1.187
Mof_N 	N 	0.4059	0.5131	0.3293	-0.296
Mof_N 	N 	0.4869	0.5945	0.3301	-0.3
Mof_C 	C 	0.5595	0.6676	0.1665	0.209
Mof_N 	N 	0.5288	0.666	0.2168	-0.26
Mof_C 	C 	0.4795	0.6653	0.198	-0.038
Mof_H 	H 	0.4513	0.6642	0.2226	-0.042
Mof_C 	C 	0.4798	0.6665	0.1361	-0.009
Mof_H 	H 	0.4518	0.6663	0.112	-0.042
Mof_N 	N 	0.5292	0.6679	0.1166	-0.25
Mof_C 	C 	0.4439	0.5568	0.3001	0.1
Mof_H 	H 	0.4404	0.5609	0.2594	-0.062
Mof_N 	N 	0.7129	0.7219	0.3429	-0.281
Mof_N 	N 	0.6205	0.6762	0.3237	-0.275
Mof_C 	C 	0.6382	0.6379	0.3273	0.046
Mof_C 	C 	0.4762	0.5728	0.3858	0.059
Mof_C 	C 	0.4263	0.5221	0.3847	0.05
Mof_C 	C 	0.6954	0.6658	0.3393	0.07
Mof_C 	C 	0.6674	0.7249	0.3335	0.036
Mof_H 	H 	0.6679	0.7594	0.3337	0.052
Mof_C 	C 	0.405	0.4909	0.4361	-0.149
Mof_H 	H 	0.3703	0.4569	0.4365	0.043
Mof_C 	C 	0.5083	0.5946	0.4361	-0.165
Mof_H 	H 	0.5423	0.6293	0.4357	0.045
Mof_C 	C 	0.4368	0.5117	0.4862	0.067
Mof_C 	C 	0.4885	0.5636	0.4859	0.091
Mof_C 	C 	0.4969	0.7239	0.3611	-0.075
Mof_N 	N 	0.5344	0.7235	0.3229	0.187
Mof_N 	N 	0.5346	0.806	0.326	-0.025
Mof_C 	C 	0.4965	0.7745	0.3636	-0.035
Mof_C 	C 	0.4113	0.4814	0.5474	-0.415
Mof_H 	H 	0.3745	0.4778	0.5531	0.138
Mof_H 	H 	0.4363	0.5037	0.5791	0.131
Mof_H 	H 	0.4076	0.4443	0.5473	0.142
Mof_C 	C 	0.6072	0.5793	0.3213	-0.172
Mof_H 	H 	0.5682	0.5599	0.3137	0.071
Mof_C 	C 	0.726	0.6388	0.3458	-0.205
Mof_H 	H 	0.7648	0.6584	0.3544	0.082
Mof_C 	C 	0.6375	0.5518	0.3273	0.087
Mof_C 	C 	0.6957	0.5809	0.3389	0.131
Mof_C 	C 	0.6097	0.6609	0.1663	-0.263
Mof_H 	H 	0.6435	0.6976	0.1695	0.145
Mof_H 	H 	0.6109	0.643	0.1299	0.076
Mof_H 	H 	0.6078	0.6376	0.1994	0.138
Mof_C 	C 	0.5495	0.7746	0.3037	1.03
Mof_C 	C 	0.6155	0.4915	0.3234	-0.429
Mof_H 	H 	0.575	0.4724	0.3174	0.129
Mof_H 	H 	0.6237	0.4782	0.3596	0.13
Mof_H 	H 	0.633	0.4835	0.2905	0.131
Mof_C 	C 	0.6038	0.8021	0.2557	-5.486
Mof_H 	H 	0.6391	0.8227	0.2772	4.974
Mof_H 	H 	0.5999	0.8276	0.229	1.639
Mof_H 	H 	0.6039	0.7719	0.2333	1.704
Mof_C 	C 	0.5702	0.7602	0.3895	0.168
Mof_C 	C 	0.5698	0.8103	0.3895	-0.026
Mof_C 	C 	0.5865	0.8439	0.439	-0.989
Mof_H 	H 	0.5863	0.8781	0.439	0.373
Mof_C 	C 	0.6036	0.8273	0.4884	0.545
Mof_C 	C 	0.6039	0.7773	0.4885	0.693
Mof_C 	C 	0.5873	0.7437	0.439	-1.229
Mof_H 	H 	0.5875	0.7095	0.439	0.452
Mof_C 	C 	0.4901	0.6686	0.168	-0.363
Mof_H 	H 	0.4565	0.6316	0.1656	0.122
Mof_H 	H 	0.4911	0.6913	0.1347	0.132
Mof_H 	H 	0.4895	0.6869	0.2043	0.149
Mof_C 	C 	0.5369	0.6628	0.167	0.134
Mof_N 	N 	0.5692	0.6658	0.2165	-0.252
Mof_C 	C 	0.6219	0.6756	0.1965	-0.146
Mof_H 	H 	0.6517	0.6794	0.2204	0.029
Mof_C 	C 	0.6223	0.6786	0.1347	-0.014
Mof_H 	H 	0.6524	0.6848	0.1099	-0.006
Mof_N 	N 	0.5697	0.6707	0.1164	-0.27
Mof_N 	N 	0.5477	0.7355	0.3345	-0.629
Mof_N 	N 	0.5473	0.8161	0.332	-0.385
Mof_C 	C 	0.7158	0.5423	0.3395	-0.487
Mof_H 	H 	0.7565	0.5627	0.3353	0.144
Mof_H 	H 	0.699	0.516	0.3071	0.148
Mof_H 	H 	0.7056	0.5218	0.3765	0.152
Mof_O 	O 	0.6655	0.8329	0.3973	-5.481
Mof_C 	C 	0.618	0.764	0.537	-0.195
Mof_C 	C 	0.619	0.85	0.54	-0.124
Mof_C 	C 	0.693	0.8467	0.516	0.007
Mof_C 	C 	0.6319	0.8158	0.429	3.814
Mof_N 	N 	0.6315	0.8161	0.4804	-1.516
Mof_C 	C 	0.5158	0.5854	0.5477	-0.442
Mof_H 	H 	0.5534	0.5904	0.5481	0.151
Mof_H 	H 	0.4929	0.5582	0.5776	0.141
Mof_H 	H 	0.518	0.6213	0.5558	0.147
Mof_Zn	Zn	0.21448	0.21485	0.63299	1.193
Mof_Zn	Zn	0.21449	0.99967	0.63299	1.188
Mof_N 	N 	0.07257	0.84643	0.66263	-0.295
Mof_N 	N 	0.15357	0.92783	0.66343	-0.298
Mof_C 	C 	0.22617	0.00093	0.49983	0.21
Mof_N 	N 	0.19547	0.99933	0.55013	-0.259
Mof_C 	C 	0.14617	0.99863	0.53133	-0.04
Mof_H 	H 	0.11797	0.99753	0.55593	-0.04
Mof_C 	C 	0.14647	0.99983	0.46943	-0.005
Mof_H 	H 	0.11847	0.99963	0.44533	-0.042
Mof_N 	N 	0.19587	0.00123	0.44993	-0.249
Mof_C 	C 	0.11057	0.89013	0.63343	0.101
Mof_H 	H 	0.10707	0.89423	0.59273	-0.061
Mof_N 	N 	0.37957	0.05523	0.67623	-0.282
Mof_N 	N 	0.28717	0.00953	0.65703	-0.275
Mof_C 	C 	0.30487	0.97123	0.66063	0.048
Mof_C 	C 	0.14287	0.90613	0.71913	0.061
Mof_C 	C 	0.09297	0.85543	0.71803	0.052
Mof_C 	C 	0.36207	0.99913	0.67263	0.072
Mof_C 	C 	0.33407	0.05823	0.66683	0.036
Mof_H 	H 	0.33457	0.09273	0.66703	0.052
Mof_C 	C 	0.07167	0.82423	0.76943	-0.149
Mof_H 	H 	0.03697	0.79023	0.76983	0.044
Mof_C 	C 	0.17497	0.92793	0.76943	-0.166
Mof_H 	H 	0.20897	0.96263	0.76903	0.047
Mof_C 	C 	0.10347	0.84503	0.81953	0.068
Mof_C 	C 	0.15517	0.89693	0.81923	0.093
Mof_C 	C 	0.16357	0.05723	0.69443	-0.076
Mof_N 	N 	0.20107	0.05683	0.65623	0.188
Mof_N 	N 	0.20127	0.13933	0.65933	-0.025
Mof_C 	C 	0.16317	0.10783	0.69693	-0.035
Mof_C 	C 	0.07797	0.81473	0.88073	-0.42
Mof_H 	H 	0.04117	0.81113	0.88643	0.142
Mof_H 	H 	0.10297	0.83703	0.91243	0.134
Mof_H 	H 	0.07427	0.77763	0.88063	0.145
Mof_C 	C 	0.27387	0.91263	0.65463	-0.173
Mof_H 	H 	0.23487	0.89323	0.64703	0.071
Mof_C 	C 	0.39267	0.97213	0.67913	-0.206
Mof_H 	H 	0.43147	0.99173	0.68773	0.083
Mof_C 	C 	0.30417	0.88513	0.66063	0.087
Mof_C 	C 	0.36237	0.91423	0.67223	0.131
Mof_C 	C 	0.27637	0.99423	0.49963	-0.263
Mof_H 	H 	0.31017	0.03093	0.50283	0.145
Mof_H 	H 	0.27757	0.97633	0.46323	0.075
Mof_H 	H 	0.27447	0.97093	0.53273	0.139
Mof_C 	C 	0.21617	0.10793	0.63703	1.03
Mof_C 	C 	0.28217	0.82483	0.65673	-0.429
Mof_H 	H 	0.24167	0.80573	0.65073	0.129
Mof_H 	H 	0.29037	0.81153	0.69293	0.13
Mof_H 	H 	0.29967	0.81683	0.62383	0.131
Mof_C 	C 	0.27047	0.13543	0.58903	-5.487
Mof_H 	H 	0.30577	0.15603	0.61053	4.974
Mof_H 	H 	0.26657	0.16093	0.56233	1.639
Mof_H 	H 	0.27057	0.10523	0.56663	1.704
Mof_C 	C 	0.23687	0.09353	0.72283	0.169
Mof_C 	C 	0.23647	0.14363	0.72283	-0.026
Mof_C 	C 	0.25317	0.17723	0.77233	-0.989
Mof_H 	H 	0.25297	0.21143	0.77233	0.373
Mof_C 	C 	0.27027	0.16063	0.82173	0.544
Mof_C 	C 	0.27057	0.11063	0.82183	0.693
Mof_C 	C 	0.25397	0.07703	0.77233	-1.23
Mof_H 	H 	0.25417	0.04283	0.77233	0.451
Mof_C 	C 	0.15677	0.00193	0.50133	-0.364
Mof_H 	H 	0.12317	0.96493	0.49893	0.122
Mof_H 	H 	0.15777	0.02463	0.46803	0.131
Mof_H 	H 	0.15617	0.02023	0.53763	0.15
Mof_C 	C 	0.20357	0.99613	0.50033	0.133
Mof_N 	N 	0.23587	0.99913	0.54983	-0.251
Mof_C 	C 	0.28857	0.00893	0.52983	-0.149
Mof_H 	H 	0.31837	0.01273	0.55373	0.029
Mof_C 	C 	0.28897	0.01193	0.46803	-0.011
Mof_H 	H 	0.31907	0.01813	0.44323	-0.007
Mof_N 	N 	0.23637	0.00403	0.44973	-0.27
Mof_N 	N 	0.21437	0.06883	0.66783	-0.631
Mof_N 	N 	0.21397	0.14943	0.66533	-0.385
Mof_C 	C 	0.38247	0.87563	0.67283	-0.488
Mof_H 	H 	0.42317	0.89603	0.66863	0.144
Mof_H 	H 	0.36567	0.84933	0.64043	0.148
Mof_H 	H 	0.37227	0.85513	0.70983	0.152
Mof_O 	O 	0.33217	0.16623	0.73063	-5.48
Mof_C 	C 	0.28467	0.09733	0.87033	-0.196
Mof_C 	C 	0.28567	0.18333	0.87333	-0.124
Mof_C 	C 	0.35967	0.18003	0.84933	0.007
Mof_C 	C 	0.29857	0.14913	0.76233	3.813
Mof_N 	N 	0.29817	0.14943	0.81373	-1.516
Mof_C 	C 	0.18247	0.91873	0.88103	-0.447
Mof_H 	H 	0.22007	0.92373	0.88143	0.154
Mof_H 	H 	0.15957	0.89153	0.91093	0.144
Mof_H 	H 	0.18467	0.95463	0.88913	0.15
Mof_Zn	Zn	0.88114	0.54819	0.96633	1.193
Mof_Zn	Zn	0.88115	0.33301	0.96633	1.184
Mof_N 	N 	0.73923	0.17977	0.99597	-0.3
Mof_N 	N 	0.82023	0.26117	0.99677	-0.304
Mof_C 	C 	0.89283	0.33427	0.83317	0.21
Mof_N 	N 	0.86213	0.33267	0.88347	-0.261
Mof_C 	C 	0.81283	0.33197	0.86467	-0.039
Mof_H 	H 	0.78463	0.33087	0.88927	-0.043
Mof_C 	C 	0.81313	0.33317	0.80277	-0.005
Mof_H 	H 	0.78513	0.33297	0.77867	-0.041
Mof_N 	N 	0.86253	0.33457	0.78327	-0.249
Mof_C 	C 	0.77723	0.22347	0.96677	0.099
Mof_H 	H 	0.77373	0.22757	0.92607	-0.061
Mof_N 	N 	0.04623	0.38857	0.00957	-0.282
Mof_N 	N 	0.95383	0.34287	0.99037	-0.276
Mof_C 	C 	0.97153	0.30457	0.99397	0.044
Mof_C 	C 	0.80953	0.23947	0.05247	0.066
Mof_C 	C 	0.75963	0.18877	0.05137	0.057
Mof_C 	C 	0.02873	0.33247	0.00597	0.072
Mof_C 	C 	0.00073	0.39157	0.00017	0.038
Mof_H 	H 	0.00123	0.42607	0.00037	0.048
Mof_C 	C 	0.73833	0.15757	0.10277	-0.151
Mof_H 	H 	0.70363	0.12357	0.10317	0.046
Mof_C 	C 	0.84163	0.26127	0.10277	-0.167
Mof_H 	H 	0.87563	0.29597	0.10237	0.047
Mof_C 	C 	0.77013	0.17837	0.15287	0.068
Mof_C 	C 	0.82183	0.23027	0.15257	0.091
Mof_C 	C 	0.83023	0.39057	0.02777	-0.084
Mof_N 	N 	0.86773	0.39017	0.98957	0.299
Mof_N 	N 	0.86793	0.47267	0.99267	-0.024
Mof_C 	C 	0.82983	0.44117	0.03027	-0.028
Mof_C 	C 	0.74463	0.14807	0.21407	-0.416
Mof_H 	H 	0.70783	0.14447	0.21977	0.139
Mof_H 	H 	0.76963	0.17037	0.24577	0.131
Mof_H 	H 	0.74093	0.11097	0.21397	0.143
Mof_C 	C 	0.94053	0.24597	0.98797	-0.177
Mof_H 	H 	0.90153	0.22657	0.98037	0.071
Mof_C 	C 	0.05933	0.30547	0.01247	-0.207
Mof_H 	H 	0.09813	0.32507	0.02107	0.082
Mof_C 	C 	0.97083	0.21847	0.99397	0.092
Mof_C 	C 	0.02903	0.24757	0.00557	0.132
Mof_C 	C 	0.94303	0.32757	0.83297	-0.261
Mof_H 	H 	0.97683	0.36427	0.83617	0.144
Mof_H 	H 	0.94423	0.30967	0.79657	0.076
Mof_H 	H 	0.94113	0.30427	0.86607	0.137
Mof_C 	C 	0.88283	0.44127	0.97037	1.006
Mof_C 	C 	0.94883	0.15817	0.99007	-0.468
Mof_H 	H 	0.90833	0.13907	0.98407	0.137
Mof_H 	H 	0.95703	0.14487	0.02627	0.149
Mof_H 	H 	0.96633	0.15017	0.95717	0.138
Mof_C 	C 	0.93713	0.46877	0.92237	-5.339
Mof_H 	H 	0.97243	0.48937	0.94387	4.831
Mof_H 	H 	0.93323	0.49427	0.89567	1.595
Mof_H 	H 	0.93723	0.43857	0.89997	1.657
Mof_C 	C 	0.90353	0.42687	0.05617	0.21
Mof_C 	C 	0.90313	0.47697	0.05617	-0.036
Mof_C 	C 	0.91983	0.51057	0.10567	-0.957
Mof_H 	H 	0.91963	0.54477	0.10567	0.363
Mof_C 	C 	0.93693	0.49397	0.15507	0.527
Mof_C 	C 	0.93723	0.44397	0.15517	0.695
Mof_C 	C 	0.92063	0.41037	0.10567	-1.229
Mof_H 	H 	0.92083	0.37617	0.10567	0.453
Mof_C 	C 	0.82343	0.33527	0.83467	-0.361
Mof_H 	H 	0.78983	0.29827	0.83227	0.121
Mof_H 	H 	0.82443	0.35797	0.80137	0.13
Mof_H 	H 	0.82283	0.35357	0.87097	0.148
Mof_C 	C 	0.87023	0.32947	0.83367	0.134
Mof_N 	N 	0.90253	0.33247	0.88317	-0.252
Mof_C 	C 	0.95523	0.34227	0.86317	-0.145
Mof_H 	H 	0.98503	0.34607	0.88707	0.028
Mof_C 	C 	0.95563	0.34527	0.80137	-0.015
Mof_H 	H 	0.98573	0.35147	0.77657	-0.007
Mof_N 	N 	0.90303	0.33737	0.78307	-0.27
Mof_N 	N 	0.88103	0.40217	0.00117	-0.742
Mof_N 	N 	0.88063	0.48277	0.99867	-0.384
Mof_C 	C 	0.04913	0.20897	0.00617	-0.494
Mof_H 	H 	0.08983	0.22937	0.00197	0.145
Mof_H 	H 	0.03233	0.18267	0.97377	0.152
Mof_H 	H 	0.03893	0.18847	0.04317	0.152
Mof_O 	O 	0.99883	0.49957	0.06397	-5.322
Mof_C 	C 	0.95133	0.43067	0.20367	-0.196
Mof_C 	C 	0.95233	0.51667	0.20667	-0.118
Mof_C 	C 	0.02633	0.51337	0.18267	0.004
Mof_C 	C 	0.96523	0.48247	0.09567	3.71
Mof_N 	N 	0.96483	0.48277	0.14707	-1.483
Mof_C 	C 	0.84913	0.25207	0.21437	-0.443
Mof_H 	H 	0.88673	0.25707	0.21477	0.151
Mof_H 	H 	0.82623	0.22487	0.24427	0.141
Mof_H 	H 	0.85133	0.28797	0.22247	0.147
Mof_Zn	Zn	0.11848	0.66629	0.29966	1.193
Mof_Zn	Zn	0.33366	0.88148	0.29966	1.188
Mof_N 	N 	0.4869	0.8928	0.3293	-0.296
Mof_N 	N 	0.4055	0.8924	0.3301	-0.299
Mof_C 	C 	0.3324	0.8919	0.1665	0.211
Mof_N 	N 	0.334	0.8628	0.2168	-0.259
Mof_C 	C 	0.3347	0.8142	0.198	-0.037
Mof_H 	H 	0.3358	0.7871	0.2226	-0.041
Mof_C 	C 	0.3335	0.8133	0.1361	-0.008
Mof_H 	H 	0.3337	0.7855	0.112	-0.041
Mof_N 	N 	0.3321	0.8613	0.1166	-0.249
Mof_C 	C 	0.4432	0.8871	0.3001	0.1
Mof_H 	H 	0.4391	0.8795	0.2594	-0.061
Mof_N 	N 	0.2781	0.991	0.3429	-0.282
Mof_N 	N 	0.3238	0.9443	0.3237	-0.275
Mof_C 	C 	0.3621	0.0003	0.3273	0.049
Mof_C 	C 	0.4272	0.9034	0.3858	0.06
Mof_C 	C 	0.4779	0.9042	0.3847	0.051
Mof_C 	C 	0.3342	0.0296	0.3393	0.071
Mof_C 	C 	0.2751	0.9425	0.3335	0.036
Mof_H 	H 	0.2406	0.9085	0.3337	0.052
Mof_C 	C 	0.5091	0.9141	0.4361	-0.149
Mof_H 	H 	0.5431	0.9134	0.4365	0.043
Mof_C 	C 	0.4054	0.9137	0.4361	-0.165
Mof_H 	H 	0.3707	0.913	0.4357	0.045
Mof_C 	C 	0.4883	0.9251	0.4862	0.067
Mof_C 	C 	0.4364	0.9249	0.4859	0.091
Mof_C 	C 	0.2761	0.773	0.3611	-0.075
Mof_N 	N 	0.2765	0.8109	0.3229	0.188
Mof_N 	N 	0.194	0.7286	0.326	-0.026
Mof_C 	C 	0.2255	0.722	0.3636	-0.035
Mof_C 	C 	0.5186	0.9299	0.5474	-0.415
Mof_H 	H 	0.5222	0.8967	0.5531	0.138
Mof_H 	H 	0.4963	0.9326	0.5791	0.131
Mof_H 	H 	0.5557	0.9633	0.5473	0.142
Mof_C 	C 	0.4207	0.0279	0.3213	-0.173
Mof_H 	H 	0.4401	0.0083	0.3137	0.072
Mof_C 	C 	0.3612	0.0872	0.3458	-0.205
Mof_H 	H 	0.3416	0.1064	0.3544	0.082
Mof_C 	C 	0.4482	0.0857	0.3273	0.087
Mof_C 	C 	0.4191	0.1148	0.3389	0.131
Mof_C 	C 	0.3391	0.9488	0.1663	-0.261
Mof_H 	H 	0.3024	0.9459	0.1695	0.144
Mof_H 	H 	0.357	0.9679	0.1299	0.076
Mof_H 	H 	0.3624	0.9702	0.1994	0.137
Mof_C 	C 	0.2254	0.7749	0.3037	1.024
Mof_C 	C 	0.5085	0.124	0.3234	-0.429
Mof_H 	H 	0.5276	0.1026	0.3174	0.129
Mof_H 	H 	0.5218	0.1455	0.3596	0.13
Mof_H 	H 	0.5165	0.1495	0.2905	0.131
Mof_C 	C 	0.1979	0.8017	0.2557	-5.452
Mof_H 	H 	0.1773	0.8164	0.2772	4.94
Mof_H 	H 	0.1724	0.7723	0.229	1.629
Mof_H 	H 	0.2281	0.832	0.2333	1.694
Mof_C 	C 	0.2398	0.81	0.3895	0.169
Mof_C 	C 	0.1897	0.7595	0.3895	-0.026
Mof_C 	C 	0.1561	0.7426	0.439	-0.984
Mof_H 	H 	0.1219	0.7082	0.439	0.371
Mof_C 	C 	0.1727	0.7763	0.4884	0.542
Mof_C 	C 	0.2227	0.8266	0.4885	0.691
Mof_C 	C 	0.2563	0.8436	0.439	-1.224
Mof_H 	H 	0.2905	0.878	0.439	0.45
Mof_C 	C 	0.3314	0.8215	0.168	-0.362
Mof_H 	H 	0.3684	0.8249	0.1656	0.122
Mof_H 	H 	0.3087	0.7998	0.1347	0.132
Mof_H 	H 	0.3131	0.8026	0.2043	0.148
Mof_C 	C 	0.3372	0.8741	0.167	0.133
Mof_N 	N 	0.3342	0.9034	0.2165	-0.252
Mof_C 	C 	0.3244	0.9463	0.1965	-0.145
Mof_H 	H 	0.3206	0.9723	0.2204	0.028
Mof_C 	C 	0.3214	0.9437	0.1347	-0.015
Mof_H 	H 	0.3152	0.9676	0.1099	-0.007
Mof_N 	N 	0.3293	0.899	0.1164	-0.27
Mof_N 	N 	0.2645	0.8122	0.3345	-0.629
Mof_N 	N 	0.1839	0.7312	0.332	-0.383
Mof_C 	C 	0.4577	0.1735	0.3395	-0.487
Mof_H 	H 	0.4373	0.1938	0.3353	0.144
Mof_H 	H 	0.484	0.183	0.3071	0.148
Mof_H 	H 	0.4782	0.1838	0.3765	0.152
Mof_O 	O 	0.1671	0.8326	0.3973	-5.444
Mof_C 	C 	0.236	0.854	0.537	-0.195
Mof_C 	C 	0.15	0.769	0.54	-0.124
Mof_C 	C 	0.1533	0.8463	0.516	0.007
Mof_C 	C 	0.1842	0.8161	0.429	3.789
Mof_N 	N 	0.1839	0.8154	0.4804	-1.508
Mof_C 	C 	0.4146	0.9304	0.5477	-0.442
Mof_H 	H 	0.4096	0.963	0.5481	0.151
Mof_H 	H 	0.4418	0.9347	0.5776	0.141
Mof_H 	H 	0.3787	0.8967	0.5558	0.147
Mof_Zn	Zn	0.78515	0.99962	0.63299	1.194
Mof_Zn	Zn	0.00033	0.21481	0.63299	1.188
Mof_N 	N 	0.15357	0.22613	0.66263	-0.295
Mof_N 	N 	0.07217	0.22573	0.66343	-0.299
Mof_C 	C 	0.99907	0.22523	0.49983	0.21
Mof_N 	N 	0.00067	0.19613	0.55013	-0.259
Mof_C 	C 	0.00137	0.14753	0.53133	-0.04
Mof_H 	H 	0.00247	0.12043	0.55593	-0.04
Mof_C 	C 	0.00017	0.14663	0.46943	-0.005
Mof_H 	H 	0.00037	0.11883	0.44533	-0.041
Mof_N 	N 	0.99877	0.19463	0.44993	-0.249
Mof_C 	C 	0.10987	0.22043	0.63343	0.101
Mof_H 	H 	0.10577	0.21283	0.59273	-0.061
Mof_N 	N 	0.94477	0.32433	0.67623	-0.282
Mof_N 	N 	0.99047	0.27763	0.65703	-0.275
Mof_C 	C 	0.02877	0.33363	0.66063	0.048
Mof_C 	C 	0.09387	0.23673	0.71913	0.061
Mof_C 	C 	0.14457	0.23753	0.71803	0.051
Mof_C 	C 	0.00087	0.36293	0.67263	0.072
Mof_C 	C 	0.94177	0.27583	0.66683	0.036
Mof_H 	H 	0.90727	0.24183	0.66703	0.052
Mof_C 	C 	0.17577	0.24743	0.76943	-0.148
Mof_H 	H 	0.20977	0.24673	0.76983	0.043
Mof_C 	C 	0.07207	0.24703	0.76943	-0.166
Mof_H 	H 	0.03737	0.24633	0.76903	0.047
Mof_C 	C 	0.15497	0.25843	0.81953	0.066
Mof_C 	C 	0.10307	0.25823	0.81923	0.093
Mof_C 	C 	0.94277	0.10633	0.69443	-0.077
Mof_N 	N 	0.94317	0.14423	0.65623	0.19
Mof_N 	N 	0.86067	0.06193	0.65933	-0.026
Mof_C 	C 	0.89217	0.05533	0.69693	-0.037
Mof_C 	C 	0.18527	0.26323	0.88073	-0.415
Mof_H 	H 	0.18887	0.23003	0.88643	0.138
Mof_H 	H 	0.16297	0.26593	0.91243	0.131
Mof_H 	H 	0.22237	0.29663	0.88063	0.142
Mof_C 	C 	0.08737	0.36123	0.65463	-0.173
Mof_H 	H 	0.10677	0.34163	0.64703	0.071
Mof_C 	C 	0.02787	0.42053	0.67913	-0.206
Mof_H 	H 	0.00827	0.43973	0.68773	0.083
Mof_C 	C 	0.11487	0.41903	0.66063	0.087
Mof_C 	C 	0.08577	0.44813	0.67223	0.131
Mof_C 	C 	0.00577	0.28213	0.49963	-0.264
Mof_H 	H 	0.96907	0.27923	0.50283	0.145
Mof_H 	H 	0.02367	0.30123	0.46323	0.075
Mof_H 	H 	0.02907	0.30353	0.53273	0.139
Mof_C 	C 	0.89207	0.10823	0.63703	1.025
Mof_C 	C 	0.17517	0.45733	0.65673	-0.429
Mof_H 	H 	0.19427	0.43593	0.65073	0.129
Mof_H 	H 	0.18847	0.47883	0.69293	0.13
Mof_H 	H 	0.18317	0.48283	0.62383	0.131
Mof_C 	C 	0.86457	0.13503	0.58903	-5.452
Mof_H 	H 	0.84397	0.14973	0.61053	4.94
Mof_H 	H 	0.83907	0.10563	0.56233	1.629
Mof_H 	H 	0.89477	0.16533	0.56663	1.694
Mof_C 	C 	0.90647	0.14333	0.72283	0.169
Mof_C 	C 	0.85637	0.09283	0.72283	-0.027
Mof_C 	C 	0.82277	0.07593	0.77233	-0.984
Mof_H 	H 	0.78857	0.04153	0.77233	0.37
Mof_C 	C 	0.83937	0.10963	0.82173	0.541
Mof_C 	C 	0.88937	0.15993	0.82183	0.69
Mof_C 	C 	0.92297	0.17693	0.77233	-1.224
Mof_H 	H 	0.95717	0.21133	0.77233	0.449
Mof_C 	C 	0.99807	0.15483	0.50133	-0.363
Mof_H 	H 	0.03507	0.15823	0.49893	0.122
Mof_H 	H 	0.97537	0.13313	0.46803	0.131
Mof_H 	H 	0.97977	0.13593	0.53763	0.15
Mof_C 	C 	0.00387	0.20743	0.50033	0.133
Mof_N 	N 	0.00087	0.23673	0.54983	-0.251
Mof_C 	C 	0.99107	0.27963	0.52983	-0.148
Mof_H 	H 	0.98727	0.30563	0.55373	0.029
Mof_C 	C 	0.98807	0.27703	0.46803	-0.01
Mof_H 	H 	0.98187	0.30093	0.44323	-0.007
Mof_N 	N 	0.99597	0.23233	0.44973	-0.27
Mof_N 	N 	0.93117	0.14553	0.66783	-0.632
Mof_N 	N 	0.85057	0.06453	0.66533	-0.383
Mof_C 	C 	0.12437	0.50683	0.67283	-0.488
Mof_H 	H 	0.10397	0.52713	0.66863	0.144
Mof_H 	H 	0.15067	0.51633	0.64043	0.148
Mof_H 	H 	0.14487	0.51713	0.70983	0.152
Mof_O 	O 	0.83377	0.16593	0.73063	-5.443
Mof_C 	C 	0.90267	0.18733	0.87033	-0.196
Mof_C 	C 	0.81667	0.10233	0.87333	-0.125
Mof_C 	C 	0.81997	0.17963	0.84933	0.007
Mof_C 	C 	0.85087	0.14943	0.76233	3.789
Mof_N 	N 	0.85057	0.14873	0.81373	-1.508
Mof_C 	C 	0.08127	0.26373	0.88103	-0.445
Mof_H 	H 	0.07627	0.29633	0.88143	0.153
Mof_H 	H 	0.10847	0.26803	0.91093	0.142
Mof_H 	H 	0.04537	0.23003	0.88913	0.149
Mof_Zn	Zn	0.45181	0.33296	0.96633	1.193
Mof_Zn	Zn	0.66699	0.54815	0.96633	1.187
Mof_N 	N 	0.82023	0.55947	0.99597	-0.298
Mof_N 	N 	0.73883	0.55907	0.99677	-0.3
Mof_C 	C 	0.66573	0.55857	0.83317	0.21
Mof_N 	N 	0.66733	0.52947	0.88347	-0.26
Mof_C 	C 	0.66803	0.48087	0.86467	-0.038
Mof_H 	H 	0.66913	0.45377	0.88927	-0.042
Mof_C 	C 	0.66683	0.47997	0.80277	-0.007
Mof_H 	H 	0.66703	0.45217	0.77867	-0.041
Mof_N 	N 	0.66543	0.52797	0.78327	-0.249
Mof_C 	C 	0.77653	0.55377	0.96677	0.1
Mof_H 	H 	0.77243	0.54617	0.92607	-0.061
Mof_N 	N 	0.61143	0.65767	0.00957	-0.281
Mof_N 	N 	0.65713	0.61097	0.99037	-0.274
Mof_C 	C 	0.69543	0.66697	0.99397	0.047
Mof_C 	C 	0.76053	0.57007	0.05247	0.061
Mof_C 	C 	0.81123	0.57087	0.05137	0.055
Mof_C 	C 	0.66753	0.69627	0.00597	0.07
Mof_C 	C 	0.60843	0.60917	0.00017	0.037
Mof_H 	H 	0.57393	0.57517	0.00037	0.053
Mof_C 	C 	0.84243	0.58077	0.10277	-0.151
Mof_H 	H 	0.87643	0.58007	0.10317	0.045
Mof_C 	C 	0.73873	0.58037	0.10277	-0.165
Mof_H 	H 	0.70403	0.57967	0.10237	0.045
Mof_C 	C 	0.82163	0.59177	0.15287	0.068
Mof_C 	C 	0.76973	0.59157	0.15257	0.09
Mof_C 	C 	0.60943	0.43967	0.02777	-0.077
Mof_N 	N 	0.60983	0.47757	0.98957	0.214
Mof_N 	N 	0.52733	0.39527	0.99267	-0.023
Mof_C 	C 	0.55883	0.38867	0.03027	-0.033
Mof_C 	C 	0.85193	0.59657	0.21407	-0.416
Mof_H 	H 	0.85553	0.56337	0.21977	0.139
Mof_H 	H 	0.82963	0.59927	0.24577	0.132
Mof_H 	H 	0.88903	0.62997	0.21397	0.143
Mof_C 	C 	0.75403	0.69457	0.98797	-0.173
Mof_H 	H 	0.77343	0.67497	0.98037	0.071
Mof_C 	C 	0.69453	0.75387	0.01247	-0.205
Mof_H 	H 	0.67493	0.77307	0.02107	0.082
Mof_C 	C 	0.78153	0.75237	0.99397	0.088
Mof_C 	C 	0.75243	0.78147	0.00557	0.131
Mof_C 	C 	0.67243	0.61547	0.83297	-0.263
Mof_H 	H 	0.63573	0.61257	0.83617	0.145
Mof_H 	H 	0.69033	0.63457	0.79657	0.076
Mof_H 	H 	0.69573	0.63687	0.86607	0.138
Mof_C 	C 	0.55873	0.44157	0.97037	1.033
Mof_C 	C 	0.84183	0.79067	0.99007	-0.431
Mof_H 	H 	0.86093	0.76927	0.98407	0.129
Mof_H 	H 	0.85513	0.81217	0.02627	0.131
Mof_H 	H 	0.84983	0.81617	0.95717	0.131
Mof_C 	C 	0.53123	0.46837	0.92237	-5.502
Mof_H 	H 	0.51063	0.48307	0.94387	4.99
Mof_H 	H 	0.50573	0.43897	0.89567	1.644
Mof_H 	H 	0.56143	0.49867	0.89997	1.709
Mof_C 	C 	0.57313	0.47667	0.05617	0.178
Mof_C 	C 	0.52303	0.42617	0.05617	-0.029
Mof_C 	C 	0.48943	0.40927	0.10567	-0.99
Mof_H 	H 	0.45523	0.37487	0.10567	0.374
Mof_C 	C 	0.50603	0.44297	0.15507	0.544
Mof_C 	C 	0.55603	0.49327	0.15517	0.698
Mof_C 	C 	0.58963	0.51027	0.10567	-1.239
Mof_H 	H 	0.62383	0.54467	0.10567	0.456
Mof_C 	C 	0.66473	0.48817	0.83467	-0.363
Mof_H 	H 	0.70173	0.49157	0.83227	0.122
Mof_H 	H 	0.64203	0.46647	0.80137	0.132
Mof_H 	H 	0.64643	0.46927	0.87097	0.149
Mof_C 	C 	0.67053	0.54077	0.83367	0.134
Mof_N 	N 	0.66753	0.57007	0.88317	-0.252
Mof_C 	C 	0.65773	0.61297	0.86317	-0.146
Mof_H 	H 	0.65393	0.63897	0.88707	0.029
Mof_C 	C 	0.65473	0.61037	0.80137	-0.013
Mof_H 	H 	0.64853	0.63427	0.77657	-0.006
Mof_N 	N 	0.66263	0.56567	0.78307	-0.27
Mof_N 	N 	0.59783	0.47887	0.00117	-0.658
Mof_N 	N 	0.51723	0.39787	0.99867	-0.388
Mof_C 	C 	0.79103	0.84017	0.00617	-0.489
Mof_H 	H 	0.77063	0.86047	0.00197	0.144
Mof_H 	H 	0.81733	0.84967	0.97377	0.148
Mof_H 	H 	0.81153	0.85047	0.04317	0.152
Mof_O 	O 	0.50043	0.49927	0.06397	-5.498
Mof_C 	C 	0.56933	0.52067	0.20367	-0.197
Mof_C 	C 	0.48333	0.43567	0.20667	-0.123
Mof_C 	C 	0.48663	0.51297	0.18267	0.007
Mof_C 	C 	0.51753	0.48277	0.09567	3.825
Mof_N 	N 	0.51723	0.48207	0.14707	-1.52
Mof_C 	C 	0.74793	0.59707	0.21437	-0.441
Mof_H 	H 	0.74293	0.62967	0.21477	0.151
Mof_H 	H 	0.77513	0.60137	0.24427	0.14
Mof_H 	H 	0.71203	0.56337	0.22247	0.147
Mof_Zn	Zn	0.33371	0.45219	0.29966	1.193
Mof_Zn	Zn	0.11852	0.45218	0.29966	1.188
Mof_N 	N 	0.1072	0.5941	0.3293	-0.296
Mof_N 	N 	0.1076	0.5131	0.3301	-0.299
Mof_C 	C 	0.1081	0.4405	0.1665	0.211
Mof_N 	N 	0.1372	0.4712	0.2168	-0.259
Mof_C 	C 	0.1858	0.5205	0.198	-0.037
Mof_H 	H 	0.2129	0.5487	0.2226	-0.041
Mof_C 	C 	0.1867	0.5202	0.1361	-0.008
Mof_H 	H 	0.2145	0.5482	0.112	-0.041
Mof_N 	N 	0.1387	0.4708	0.1166	-0.249
Mof_C 	C 	0.1129	0.5561	0.3001	0.1
Mof_H 	H 	0.1205	0.5596	0.2594	-0.061
Mof_N 	N 	0.009	0.2871	0.3429	-0.282
Mof_N 	N 	0.0557	0.3795	0.3237	-0.275
Mof_C 	C 	0.9997	0.3618	0.3273	0.049
Mof_C 	C 	0.0966	0.5238	0.3858	0.06
Mof_C 	C 	0.0958	0.5737	0.3847	0.051
Mof_C 	C 	0.9704	0.3046	0.3393	0.071
Mof_C 	C 	0.0575	0.3326	0.3335	0.036
Mof_H 	H 	0.0915	0.3321	0.3337	0.052
Mof_C 	C 	0.0859	0.595	0.4361	-0.149
Mof_H 	H 	0.0866	0.6297	0.4365	0.043
Mof_C 	C 	0.0863	0.4917	0.4361	-0.165
Mof_H 	H 	0.087	0.4577	0.4357	0.045
Mof_C 	C 	0.0749	0.5632	0.4862	0.067
Mof_C 	C 	0.0751	0.5115	0.4859	0.091
Mof_C 	C 	0.227	0.5031	0.3611	-0.075
Mof_N 	N 	0.1891	0.4656	0.3229	0.187
Mof_N 	N 	0.2714	0.4654	0.326	-0.025
Mof_C 	C 	0.278	0.5035	0.3636	-0.035
Mof_C 	C 	0.0701	0.5887	0.5474	-0.415
Mof_H 	H 	0.1033	0.6255	0.5531	0.138
Mof_H 	H 	0.0674	0.5637	0.5791	0.131
Mof_H 	H 	0.0367	0.5924	0.5473	0.142
Mof_C 	C 	0.9721	0.3928	0.3213	-0.173
Mof_H 	H 	0.9917	0.4318	0.3137	0.072
Mof_C 	C 	0.9128	0.274	0.3458	-0.205
Mof_H 	H 	0.8936	0.2352	0.3544	0.082
Mof_C 	C 	0.9143	0.3625	0.3273	0.088
Mof_C 	C 	0.8852	0.3043	0.3389	0.131
Mof_C 	C 	0.0512	0.3903	0.1663	-0.262
Mof_H 	H 	0.0541	0.3565	0.1695	0.144
Mof_H 	H 	0.0321	0.3891	0.1299	0.076
Mof_H 	H 	0.0298	0.3922	0.1994	0.137
Mof_C 	C 	0.2251	0.4505	0.3037	1.029
Mof_C 	C 	0.876	0.3845	0.3234	-0.429
Mof_H 	H 	0.8974	0.425	0.3174	0.13
Mof_H 	H 	0.8545	0.3763	0.3596	0.13
Mof_H 	H 	0.8505	0.367	0.2905	0.131
Mof_C 	C 	0.1983	0.3962	0.2557	-5.479
Mof_H 	H 	0.1836	0.3609	0.2772	4.967
Mof_H 	H 	0.2277	0.4001	0.229	1.637
Mof_H 	H 	0.168	0.3961	0.2333	1.702
Mof_C 	C 	0.19	0.4298	0.3895	0.169
Mof_C 	C 	0.2405	0.4302	0.3895	-0.026
Mof_C 	C 	0.2574	0.4135	0.439	-0.988
Mof_H 	H 	0.2918	0.4137	0.439	0.373
Mof_C 	C 	0.2237	0.3964	0.4884	0.544
Mof_C 	C 	0.1734	0.3961	0.4885	0.692
Mof_C 	C 	0.1564	0.4127	0.439	-1.228
Mof_H 	H 	0.122	0.4125	0.439	0.452
Mof_C 	C 	0.1785	0.5099	0.168	-0.362
Mof_H 	H 	0.1751	0.5435	0.1656	0.122
Mof_H 	H 	0.2002	0.5089	0.1347	0.132
Mof_H 	H 	0.1974	0.5105	0.2043	0.148
Mof_C 	C 	0.1259	0.4631	0.167	0.133
Mof_N 	N 	0.0966	0.4308	0.2165	-0.252
Mof_C 	C 	0.0537	0.3781	0.1965	-0.145
Mof_H 	H 	0.0277	0.3483	0.2204	0.028
Mof_C 	C 	0.0563	0.3777	0.1347	-0.015
Mof_H 	H 	0.0324	0.3476	0.1099	-0.006
Mof_N 	N 	0.101	0.4303	0.1164	-0.27
Mof_N 	N 	0.1878	0.4523	0.3345	-0.629
Mof_N 	N 	0.2688	0.4527	0.332	-0.385
Mof_C 	C 	0.8265	0.2842	0.3395	-0.487
Mof_H 	H 	0.8062	0.2435	0.3353	0.144
Mof_H 	H 	0.817	0.301	0.3071	0.148
Mof_H 	H 	0.8162	0.2944	0.3765	0.152
Mof_O 	O 	0.1674	0.3345	0.3973	-5.473
Mof_C 	C 	0.146	0.382	0.537	-0.195
Mof_C 	C 	0.231	0.381	0.54	-0.124
Mof_C 	C 	0.1537	0.307	0.516	0.007
Mof_C 	C 	0.1839	0.3681	0.429	3.809
Mof_N 	N 	0.1846	0.3685	0.4804	-1.514
Mof_C 	C 	0.0696	0.4842	0.5477	-0.442
Mof_H 	H 	0.037	0.4466	0.5481	0.151
Mof_H 	H 	0.0653	0.5071	0.5776	0.141
Mof_H 	H 	0.1033	0.482	0.5558	0.147
Mof_Zn	Zn	0.00038	0.78552	0.63299	1.194
Mof_Zn	Zn	0.78519	0.78551	0.63299	1.188
Mof_N 	N 	0.77387	0.92743	0.66263	-0.295
Mof_N 	N 	0.77427	0.84643	0.66343	-0.299
Mof_C 	C 	0.77477	0.77383	0.49983	0.21
Mof_N 	N 	0.80387	0.80453	0.55013	-0.259
Mof_C 	C 	0.85247	0.85383	0.53133	-0.038
Mof_H 	H 	0.87957	0.88203	0.55593	-0.041
Mof_C 	C 	0.85337	0.85353	0.46943	-0.007
Mof_H 	H 	0.88117	0.88153	0.44533	-0.041
Mof_N 	N 	0.80537	0.80413	0.44993	-0.249
Mof_C 	C 	0.77957	0.88943	0.63343	0.101
Mof_H 	H 	0.78717	0.89293	0.59273	-0.061
Mof_N 	N 	0.67567	0.62043	0.67623	-0.28
Mof_N 	N 	0.72237	0.71283	0.65703	-0.274
Mof_C 	C 	0.66637	0.69513	0.66063	0.047
Mof_C 	C 	0.76327	0.85713	0.71913	0.06
Mof_C 	C 	0.76247	0.90703	0.71803	0.052
Mof_C 	C 	0.63707	0.63793	0.67263	0.07
Mof_C 	C 	0.72417	0.66593	0.66683	0.036
Mof_H 	H 	0.75817	0.66543	0.66703	0.052
Mof_C 	C 	0.75257	0.92833	0.76943	-0.15
Mof_H 	H 	0.75327	0.96303	0.76983	0.045
Mof_C 	C 	0.75297	0.82503	0.76943	-0.164
Mof_H 	H 	0.75367	0.79103	0.76903	0.045
Mof_C 	C 	0.74157	0.89653	0.81953	0.068
Mof_C 	C 	0.74177	0.84483	0.81923	0.09
Mof_C 	C 	0.89367	0.83643	0.69443	-0.075
Mof_N 	N 	0.85577	0.79893	0.65623	0.187
Mof_N 	N 	0.93807	0.79873	0.65933	-0.025
Mof_C 	C 	0.94467	0.83683	0.69693	-0.036
Mof_C 	C 	0.73677	0.92203	0.88073	-0.418
Mof_H 	H 	0.76997	0.95883	0.88643	0.141
Mof_H 	H 	0.73407	0.89703	0.91243	0.133
Mof_H 	H 	0.70337	0.92573	0.88063	0.144
Mof_C 	C 	0.63877	0.72613	0.65463	-0.172
Mof_H 	H 	0.65837	0.76513	0.64703	0.071
Mof_C 	C 	0.57947	0.60733	0.67913	-0.205
Mof_H 	H 	0.56027	0.56853	0.68773	0.082
Mof_C 	C 	0.58097	0.69583	0.66063	0.087
Mof_C 	C 	0.55187	0.63763	0.67223	0.131
Mof_C 	C 	0.71787	0.72363	0.49963	-0.263
Mof_H 	H 	0.72077	0.68983	0.50283	0.145
Mof_H 	H 	0.69877	0.72243	0.46323	0.076
Mof_H 	H 	0.69647	0.72553	0.53273	0.138
Mof_C 	C 	0.89177	0.78383	0.63703	1.029
Mof_C 	C 	0.54267	0.71783	0.65673	-0.429
Mof_H 	H 	0.56407	0.75833	0.65073	0.129
Mof_H 	H 	0.52117	0.70963	0.69293	0.13
Mof_H 	H 	0.51717	0.70033	0.62383	0.131
Mof_C 	C 	0.86497	0.72953	0.58903	-5.479
Mof_H 	H 	0.85027	0.69423	0.61053	4.967
Mof_H 	H 	0.89437	0.73343	0.56233	1.637
Mof_H 	H 	0.83467	0.72943	0.56663	1.702
Mof_C 	C 	0.85667	0.76313	0.72283	0.169
Mof_C 	C 	0.90717	0.76353	0.72283	-0.027
Mof_C 	C 	0.92407	0.74683	0.77233	-0.988
Mof_H 	H 	0.95847	0.74703	0.77233	0.372
Mof_C 	C 	0.89037	0.72973	0.82173	0.544
Mof_C 	C 	0.84007	0.72943	0.82183	0.692
Mof_C 	C 	0.82307	0.74603	0.77233	-1.228
Mof_H 	H 	0.78867	0.74583	0.77233	0.452
Mof_C 	C 	0.84517	0.84323	0.50133	-0.363
Mof_H 	H 	0.84177	0.87683	0.49893	0.122
Mof_H 	H 	0.86687	0.84223	0.46803	0.132
Mof_H 	H 	0.86407	0.84383	0.53763	0.149
Mof_C 	C 	0.79257	0.79643	0.50033	0.133
Mof_N 	N 	0.76327	0.76413	0.54983	-0.252
Mof_C 	C 	0.72037	0.71143	0.52983	-0.146
Mof_H 	H 	0.69437	0.68163	0.55373	0.029
Mof_C 	C 	0.72297	0.71103	0.46803	-0.014
Mof_H 	H 	0.69907	0.68093	0.44323	-0.006
Mof_N 	N 	0.76767	0.76363	0.44973	-0.27
Mof_N 	N 	0.85447	0.78563	0.66783	-0.629
Mof_N 	N 	0.93547	0.78603	0.66533	-0.385
Mof_C 	C 	0.49317	0.61753	0.67283	-0.487
Mof_H 	H 	0.47287	0.57683	0.66863	0.144
Mof_H 	H 	0.48367	0.63433	0.64043	0.148
Mof_H 	H 	0.48287	0.62773	0.70983	0.152
Mof_O 	O 	0.83407	0.66783	0.73063	-5.473
Mof_C 	C 	0.81267	0.71533	0.87033	-0.195
Mof_C 	C 	0.89767	0.71433	0.87333	-0.124
Mof_C 	C 	0.82037	0.64033	0.84933	0.007
Mof_C 	C 	0.85057	0.70143	0.76233	3.808
Mof_N 	N 	0.85127	0.70183	0.81373	-1.514
Mof_C 	C 	0.73627	0.81753	0.88103	-0.441
Mof_H 	H 	0.70367	0.77993	0.88143	0.151
Mof_H 	H 	0.73197	0.84043	0.91093	0.141
Mof_H 	H 	0.76997	0.81533	0.88913	0.147
Mof_Zn	Zn	0.66704	0.11886	0.96633	1.192
Mof_Zn	Zn	0.45185	0.11885	0.96633	1.185
Mof_N 	N 	0.44053	0.26077	0.99597	-0.297
Mof_N 	N 	0.44093	0.17977	0.99677	-0.302
Mof_C 	C 	0.44143	0.10717	0.83317	0.21
Mof_N 	N 	0.47053	0.13787	0.88347	-0.261
Mof_C 	C 	0.51913	0.18717	0.86467	-0.039
Mof_H 	H 	0.54623	0.21537	0.88927	-0.042
Mof_C 	C 	0.52003	0.18687	0.80277	-0.006
Mof_H 	H 	0.54783	0.21487	0.77867	-0.041
Mof_N 	N 	0.47203	0.13747	0.78327	-0.249
Mof_C 	C 	0.44623	0.22277	0.96677	0.1
Mof_H 	H 	0.45383	0.22627	0.92607	-0.061
Mof_N 	N 	0.34233	0.95377	0.00957	-0.281
Mof_N 	N 	0.38903	0.04617	0.99037	-0.274
Mof_C 	C 	0.33303	0.02847	0.99397	0.048
Mof_C 	C 	0.42993	0.19047	0.05247	0.063
Mof_C 	C 	0.42913	0.24037	0.05137	0.052
Mof_C 	C 	0.30373	0.97127	0.00597	0.068
Mof_C 	C 	0.39083	0.99927	0.00017	0.033
Mof_H 	H 	0.42483	0.99877	0.00037	0.049
Mof_C 	C 	0.41923	0.26167	0.10277	-0.149
Mof_H 	H 	0.41993	0.29637	0.10317	0.043
Mof_C 	C 	0.41963	0.15837	0.10277	-0.166
Mof_H 	H 	0.42033	0.12437	0.10237	0.047
Mof_C 	C 	0.40823	0.22987	0.15287	0.066
Mof_C 	C 	0.40843	0.17817	0.15257	0.092
Mof_C 	C 	0.56033	0.16977	0.02777	-0.083
Mof_N 	N 	0.52243	0.13227	0.98957	0.282
Mof_N 	N 	0.60473	0.13207	0.99267	-0.025
Mof_C 	C 	0.61133	0.17017	0.03027	-0.027
Mof_C 	C 	0.40343	0.25537	0.21407	-0.415
Mof_H 	H 	0.43663	0.29217	0.21977	0.138
Mof_H 	H 	0.40073	0.23037	0.24577	0.131
Mof_H 	H 	0.37003	0.25907	0.21397	0.142
Mof_C 	C 	0.30543	0.05947	0.98797	-0.173
Mof_H 	H 	0.32503	0.09847	0.98037	0.07
Mof_C 	C 	0.24613	0.94067	0.01247	-0.212
Mof_H 	H 	0.22693	0.90187	0.02107	0.083
Mof_C 	C 	0.24763	0.02917	0.99397	0.085
Mof_C 	C 	0.21853	0.97097	0.00557	0.139
Mof_C 	C 	0.38453	0.05697	0.83297	-0.261
Mof_H 	H 	0.38743	0.02317	0.83617	0.144
Mof_H 	H 	0.36543	0.05577	0.79657	0.076
Mof_H 	H 	0.36313	0.05887	0.86607	0.137
Mof_C 	C 	0.55843	0.11717	0.97037	1.007
Mof_C 	C 	0.20933	0.05117	0.99007	-0.432
Mof_H 	H 	0.23073	0.09167	0.98407	0.13
Mof_H 	H 	0.18783	0.04297	0.02627	0.132
Mof_H 	H 	0.18383	0.03367	0.95717	0.129
Mof_C 	C 	0.53163	0.06287	0.92237	-5.352
Mof_H 	H 	0.51693	0.02757	0.94387	4.843
Mof_H 	H 	0.56103	0.06677	0.89567	1.599
Mof_H 	H 	0.50133	0.06277	0.89997	1.661
Mof_C 	C 	0.52333	0.09647	0.05617	0.204
Mof_C 	C 	0.57383	0.09687	0.05617	-0.033
Mof_C 	C 	0.59073	0.08017	0.10567	-0.961
Mof_H 	H 	0.62513	0.08037	0.10567	0.365
Mof_C 	C 	0.55703	0.06307	0.15507	0.529
Mof_C 	C 	0.50673	0.06277	0.15517	0.694
Mof_C 	C 	0.48973	0.07937	0.10567	-1.227
Mof_H 	H 	0.45533	0.07917	0.10567	0.452
Mof_C 	C 	0.51183	0.17657	0.83467	-0.361
Mof_H 	H 	0.50843	0.21017	0.83227	0.121
Mof_H 	H 	0.53353	0.17557	0.80137	0.131
Mof_H 	H 	0.53073	0.17717	0.87097	0.148
Mof_C 	C 	0.45923	0.12977	0.83367	0.134
Mof_N 	N 	0.42993	0.09747	0.88317	-0.252
Mof_C 	C 	0.38703	0.04477	0.86317	-0.146
Mof_H 	H 	0.36103	0.01497	0.88707	0.028
Mof_C 	C 	0.38963	0.04437	0.80137	-0.014
Mof_H 	H 	0.36573	0.01427	0.77657	-0.007
Mof_N 	N 	0.43433	0.09697	0.78307	-0.27
Mof_N 	N 	0.52113	0.11897	0.00117	-0.724
Mof_N 	N 	0.60213	0.11937	0.99867	-0.384
Mof_C 	C 	0.15983	0.95087	0.00617	-0.53
Mof_H 	H 	0.13953	0.91017	0.00197	0.152
Mof_H 	H 	0.15033	0.96767	0.97377	0.168
Mof_H 	H 	0.14953	0.96107	0.04317	0.161
Mof_O 	O 	0.50073	0.00117	0.06397	-5.335
Mof_C 	C 	0.47933	0.04867	0.20367	-0.196
Mof_C 	C 	0.56433	0.04767	0.20667	-0.119
Mof_C 	C 	0.48703	0.97367	0.18267	0.004
Mof_C 	C 	0.51723	0.03477	0.09567	3.719
Mof_N 	N 	0.51793	0.03517	0.14707	-1.485
Mof_C 	C 	0.40293	0.15087	0.21437	-0.443
Mof_H 	H 	0.37033	0.11327	0.21477	0.152
Mof_H 	H 	0.39863	0.17377	0.24427	0.141
Mof_H 	H 	0.43663	0.14867	0.22247	0.147
Mof_Zn	Zn	0.45219	0.11848	0.70034	1.193
Mof_Zn	Zn	0.45218	0.33366	0.70034	1.188
Mof_N 	N 	0.5941	0.4869	0.6707	-0.295
Mof_N 	N 	0.5131	0.4055	0.6699	-0.299
Mof_C 	C 	0.4405	0.3324	0.8335	0.21
Mof_N 	N 	0.4712	0.334	0.7832	-0.259
Mof_C 	C 	0.5205	0.3347	0.802	-0.037
Mof_H 	H 	0.5487	0.3358	0.7774	-0.041
Mof_C 	C 	0.5202	0.3335	0.8639	-0.008
Mof_H 	H 	0.5482	0.3337	0.888	-0.041
Mof_N 	N 	0.4708	0.3321	0.8834	-0.249
Mof_C 	C 	0.5561	0.4432	0.6999	0.101
Mof_H 	H 	0.5596	0.4391	0.7406	-0.061
Mof_N 	N 	0.2871	0.2781	0.6571	-0.28
Mof_N 	N 	0.3795	0.3238	0.6763	-0.274
Mof_C 	C 	0.3618	0.3621	0.6727	0.047
Mof_C 	C 	0.5238	0.4272	0.6142	0.06
Mof_C 	C 	0.5737	0.4779	0.6153	0.051
Mof_C 	C 	0.3046	0.3342	0.6607	0.07
Mof_C 	C 	0.3326	0.2751	0.6665	0.036
Mof_H 	H 	0.3321	0.2406	0.6663	0.052
Mof_C 	C 	0.595	0.5091	0.5639	-0.149
Mof_H 	H 	0.6297	0.5431	0.5635	0.043
Mof_C 	C 	0.4917	0.4054	0.5639	-0.165
Mof_H 	H 	0.4577	0.3707	0.5643	0.045
Mof_C 	C 	0.5632	0.4883	0.5138	0.067
Mof_C 	C 	0.5115	0.4364	0.5141	0.091
Mof_C 	C 	0.5031	0.2761	0.6389	-0.075
Mof_N 	N 	0.4656	0.2765	0.6771	0.187
Mof_N 	N 	0.4654	0.194	0.674	-0.025
Mof_C 	C 	0.5035	0.2255	0.6364	-0.035
Mof_C 	C 	0.5887	0.5186	0.4526	-0.415
Mof_H 	H 	0.6255	0.5222	0.4469	0.138
Mof_H 	H 	0.5637	0.4963	0.4209	0.131
Mof_H 	H 	0.5924	0.5557	0.4527	0.142
Mof_C 	C 	0.3928	0.4207	0.6787	-0.172
Mof_H 	H 	0.4318	0.4401	0.6863	0.071
Mof_C 	C 	0.274	0.3612	0.6542	-0.205
Mof_H 	H 	0.2352	0.3416	0.6456	0.082
Mof_C 	C 	0.3625	0.4482	0.6727	0.087
Mof_C 	C 	0.3043	0.4191	0.6611	0.131
Mof_C 	C 	0.3903	0.3391	0.8337	-0.263
Mof_H 	H 	0.3565	0.3024	0.8305	0.145
Mof_H 	H 	0.3891	0.357	0.8701	0.076
Mof_H 	H 	0.3922	0.3624	0.8006	0.138
Mof_C 	C 	0.4505	0.2254	0.6963	1.03
Mof_C 	C 	0.3845	0.5085	0.6766	-0.429
Mof_H 	H 	0.425	0.5276	0.6826	0.129
Mof_H 	H 	0.3763	0.5218	0.6404	0.13
Mof_H 	H 	0.367	0.5165	0.7095	0.131
Mof_C 	C 	0.3962	0.1979	0.7443	-5.486
Mof_H 	H 	0.3609	0.1773	0.7228	4.974
Mof_H 	H 	0.4001	0.1724	0.771	1.639
Mof_H 	H 	0.3961	0.2281	0.7667	1.704
Mof_C 	C 	0.4298	0.2398	0.6105	0.168
Mof_C 	C 	0.4302	0.1897	0.6105	-0.026
Mof_C 	C 	0.4135	0.1561	0.561	-0.989
Mof_H 	H 	0.4137	0.1219	0.561	0.373
Mof_C 	C 	0.3964	0.1727	0.5116	0.545
Mof_C 	C 	0.3961	0.2227	0.5115	0.693
Mof_C 	C 	0.4127	0.2563	0.561	-1.229
Mof_H 	H 	0.4125	0.2905	0.561	0.452
Mof_C 	C 	0.5099	0.3314	0.832	-0.363
Mof_H 	H 	0.5435	0.3684	0.8344	0.122
Mof_H 	H 	0.5089	0.3087	0.8653	0.132
Mof_H 	H 	0.5105	0.3131	0.7957	0.149
Mof_C 	C 	0.4631	0.3372	0.833	0.134
Mof_N 	N 	0.4308	0.3342	0.7835	-0.252
Mof_C 	C 	0.3781	0.3244	0.8035	-0.146
Mof_H 	H 	0.3483	0.3206	0.7796	0.029
Mof_C 	C 	0.3777	0.3214	0.8653	-0.014
Mof_H 	H 	0.3476	0.3152	0.8901	-0.006
Mof_N 	N 	0.4303	0.3293	0.8836	-0.27
Mof_N 	N 	0.4523	0.2645	0.6655	-0.629
Mof_N 	N 	0.4527	0.1839	0.668	-0.385
Mof_C 	C 	0.2842	0.4577	0.6605	-0.487
Mof_H 	H 	0.2435	0.4373	0.6647	0.144
Mof_H 	H 	0.301	0.484	0.6929	0.148
Mof_H 	H 	0.2944	0.4782	0.6235	0.152
Mof_O 	O 	0.3345	0.1671	0.6027	-5.481
Mof_C 	C 	0.382	0.236	0.463	-0.195
Mof_C 	C 	0.381	0.15	0.46	-0.124
Mof_C 	C 	0.307	0.1533	0.484	0.007
Mof_C 	C 	0.3681	0.1842	0.571	3.814
Mof_N 	N 	0.3685	0.1839	0.5196	-1.516
Mof_C 	C 	0.4842	0.4146	0.4523	-0.442
Mof_H 	H 	0.4466	0.4096	0.4519	0.151
Mof_H 	H 	0.5071	0.4418	0.4224	0.141
Mof_H 	H 	0.482	0.3787	0.4442	0.147
Mof_Zn	Zn	0.11886	0.45181	0.03367	1.193
Mof_Zn	Zn	0.11885	0.66699	0.03367	1.184
Mof_N 	N 	0.26077	0.82023	0.00403	-0.3
Mof_N 	N 	0.17977	0.73883	0.00323	-0.304
Mof_C 	C 	0.10717	0.66573	0.16683	0.21
Mof_N 	N 	0.13787	0.66733	0.11653	-0.261
Mof_C 	C 	0.18717	0.66803	0.13533	-0.039
Mof_H 	H 	0.21537	0.66913	0.11073	-0.043
Mof_C 	C 	0.18687	0.66683	0.19723	-0.005
Mof_H 	H 	0.21487	0.66703	0.22133	-0.041
Mof_N 	N 	0.13747	0.66543	0.21673	-0.249
Mof_C 	C 	0.22277	0.77653	0.03323	0.099
Mof_H 	H 	0.22627	0.77243	0.07393	-0.061
Mof_N 	N 	0.95377	0.61143	0.99043	-0.282
Mof_N 	N 	0.04617	0.65713	0.00963	-0.276
Mof_C 	C 	0.02847	0.69543	0.00603	0.044
Mof_C 	C 	0.19047	0.76053	0.94753	0.066
Mof_C 	C 	0.24037	0.81123	0.94863	0.057
Mof_C 	C 	0.97127	0.66753	0.99403	0.072
Mof_C 	C 	0.99927	0.60843	0.99983	0.038
Mof_H 	H 	0.99877	0.57393	0.99963	0.048
Mof_C 	C 	0.26167	0.84243	0.89723	-0.151
Mof_H 	H 	0.29637	0.87643	0.89683	0.046
Mof_C 	C 	0.15837	0.73873	0.89723	-0.167
Mof_H 	H 	0.12437	0.70403	0.89763	0.047
Mof_C 	C 	0.22987	0.82163	0.84713	0.068
Mof_C 	C 	0.17817	0.76973	0.84743	0.091
Mof_C 	C 	0.16977	0.60943	0.97223	-0.084
Mof_N 	N 	0.13227	0.60983	0.01043	0.299
Mof_N 	N 	0.13207	0.52733	0.00733	-0.024
Mof_C 	C 	0.17017	0.55883	0.96973	-0.028
Mof_C 	C 	0.25537	0.85193	0.78593	-0.416
Mof_H 	H 	0.29217	0.85553	0.78023	0.139
Mof_H 	H 	0.23037	0.82963	0.75423	0.131
Mof_H 	H 	0.25907	0.88903	0.78603	0.143
Mof_C 	C 	0.05947	0.75403	0.01203	-0.177
Mof_H 	H 	0.09847	0.77343	0.01963	0.071
Mof_C 	C 	0.94067	0.69453	0.98753	-0.207
Mof_H 	H 	0.90187	0.67493	0.97893	0.082
Mof_C 	C 	0.02917	0.78153	0.00603	0.092
Mof_C 	C 	0.97097	0.75243	0.99443	0.132
Mof_C 	C 	0.05697	0.67243	0.16703	-0.261
Mof_H 	H 	0.02317	0.63573	0.16383	0.144
Mof_H 	H 	0.05577	0.69033	0.20343	0.076
Mof_H 	H 	0.05887	0.69573	0.13393	0.137
Mof_C 	C 	0.11717	0.55873	0.02963	1.006
Mof_C 	C 	0.05117	0.84183	0.00993	-0.468
Mof_H 	H 	0.09167	0.86093	0.01593	0.137
Mof_H 	H 	0.04297	0.85513	0.97373	0.149
Mof_H 	H 	0.03367	0.84983	0.04283	0.138
Mof_C 	C 	0.06287	0.53123	0.07763	-5.339
Mof_H 	H 	0.02757	0.51063	0.05613	4.831
Mof_H 	H 	0.06677	0.50573	0.10433	1.595
Mof_H 	H 	0.06277	0.56143	0.10003	1.657
Mof_C 	C 	0.09647	0.57313	0.94383	0.21
Mof_C 	C 	0.09687	0.52303	0.94383	-0.036
Mof_C 	C 	0.08017	0.48943	0.89433	-0.957
Mof_H 	H 	0.08037	0.45523	0.89433	0.363
Mof_C 	C 	0.06307	0.50603	0.84493	0.527
Mof_C 	C 	0.06277	0.55603	0.84483	0.695
Mof_C 	C 	0.07937	0.58963	0.89433	-1.229
Mof_H 	H 	0.07917	0.62383	0.89433	0.453
Mof_C 	C 	0.17657	0.66473	0.16533	-0.361
Mof_H 	H 	0.21017	0.70173	0.16773	0.121
Mof_H 	H 	0.17557	0.64203	0.19863	0.13
Mof_H 	H 	0.17717	0.64643	0.12903	0.148
Mof_C 	C 	0.12977	0.67053	0.16633	0.134
Mof_N 	N 	0.09747	0.66753	0.11683	-0.252
Mof_C 	C 	0.04477	0.65773	0.13683	-0.145
Mof_H 	H 	0.01497	0.65393	0.11293	0.028
Mof_C 	C 	0.04437	0.65473	0.19863	-0.015
Mof_H 	H 	0.01427	0.64853	0.22343	-0.007
Mof_N 	N 	0.09697	0.66263	0.21693	-0.27
Mof_N 	N 	0.11897	0.59783	0.99883	-0.742
Mof_N 	N 	0.11937	0.51723	0.00133	-0.384
Mof_C 	C 	0.95087	0.79103	0.99383	-0.494
Mof_H 	H 	0.91017	0.77063	0.99803	0.145
Mof_H 	H 	0.96767	0.81733	0.02623	0.152
Mof_H 	H 	0.96107	0.81153	0.95683	0.152
Mof_O 	O 	0.00117	0.50043	0.93603	-5.322
Mof_C 	C 	0.04867	0.56933	0.79633	-0.196
Mof_C 	C 	0.04767	0.48333	0.79333	-0.118
Mof_C 	C 	0.97367	0.48663	0.81733	0.004
Mof_C 	C 	0.03477	0.51753	0.90433	3.71
Mof_N 	N 	0.03517	0.51723	0.85293	-1.483
Mof_C 	C 	0.15087	0.74793	0.78563	-0.443
Mof_H 	H 	0.11327	0.74293	0.78523	0.151
Mof_H 	H 	0.17377	0.77513	0.75573	0.141
Mof_H 	H 	0.14867	0.71203	0.77753	0.147
Mof_Zn	Zn	0.78552	0.78515	0.36701	1.193
Mof_Zn	Zn	0.78551	0.00033	0.36701	1.188
Mof_N 	N 	0.92743	0.15357	0.33737	-0.295
Mof_N 	N 	0.84643	0.07217	0.33657	-0.298
Mof_C 	C 	0.77383	0.99907	0.50017	0.21
Mof_N 	N 	0.80453	0.00067	0.44987	-0.259
Mof_C 	C 	0.85383	0.00137	0.46867	-0.04
Mof_H 	H 	0.88203	0.00247	0.44407	-0.04
Mof_C 	C 	0.85353	0.00017	0.53057	-0.005
Mof_H 	H 	0.88153	0.00037	0.55467	-0.042
Mof_N 	N 	0.80413	0.99877	0.55007	-0.249
Mof_C 	C 	0.88943	0.10987	0.36657	0.101
Mof_H 	H 	0.89293	0.10577	0.40727	-0.061
Mof_N 	N 	0.62043	0.94477	0.32377	-0.282
Mof_N 	N 	0.71283	0.99047	0.34297	-0.275
Mof_C 	C 	0.69513	0.02877	0.33937	0.048
Mof_C 	C 	0.85713	0.09387	0.28087	0.061
Mof_C 	C 	0.90703	0.14457	0.28197	0.052
Mof_C 	C 	0.63793	0.00087	0.32737	0.072
Mof_C 	C 	0.66593	0.94177	0.33317	0.036
Mof_H 	H 	0.66543	0.90727	0.33297	0.052
Mof_C 	C 	0.92833	0.17577	0.23057	-0.149
Mof_H 	H 	0.96303	0.20977	0.23017	0.044
Mof_C 	C 	0.82503	0.07207	0.23057	-0.166
Mof_H 	H 	0.79103	0.03737	0.23097	0.047
Mof_C 	C 	0.89653	0.15497	0.18047	0.068
Mof_C 	C 	0.84483	0.10307	0.18077	0.093
Mof_C 	C 	0.83643	0.94277	0.30557	-0.076
Mof_N 	N 	0.79893	0.94317	0.34377	0.188
Mof_N 	N 	0.79873	0.86067	0.34067	-0.025
Mof_C 	C 	0.83683	0.89217	0.30307	-0.035
Mof_C 	C 	0.92203	0.18527	0.11927	-0.42
Mof_H 	H 	0.95883	0.18887	0.11357	0.142
Mof_H 	H 	0.89703	0.16297	0.08757	0.134
Mof_H 	H 	0.92573	0.22237	0.11937	0.145
Mof_C 	C 	0.72613	0.08737	0.34537	-0.173
Mof_H 	H 	0.76513	0.10677	0.35297	0.071
Mof_C 	C 	0.60733	0.02787	0.32087	-0.206
Mof_H 	H 	0.56853	0.00827	0.31227	0.083
Mof_C 	C 	0.69583	0.11487	0.33937	0.087
Mof_C 	C 	0.63763	0.08577	0.32777	0.131
Mof_C 	C 	0.72363	0.00577	0.50037	-0.263
Mof_H 	H 	0.68983	0.96907	0.49717	0.145
Mof_H 	H 	0.72243	0.02367	0.53677	0.075
Mof_H 	H 	0.72553	0.02907	0.46727	0.139
Mof_C 	C 	0.78383	0.89207	0.36297	1.03
Mof_C 	C 	0.71783	0.17517	0.34327	-0.429
Mof_H 	H 	0.75833	0.19427	0.34927	0.129
Mof_H 	H 	0.70963	0.18847	0.30707	0.13
Mof_H 	H 	0.70033	0.18317	0.37617	0.131
Mof_C 	C 	0.72953	0.86457	0.41097	-5.487
Mof_H 	H 	0.69423	0.84397	0.38947	4.974
Mof_H 	H 	0.73343	0.83907	0.43767	1.639
Mof_H 	H 	0.72943	0.89477	0.43337	1.704
Mof_C 	C 	0.76313	0.90647	0.27717	0.169
Mof_C 	C 	0.76353	0.85637	0.27717	-0.026
Mof_C 	C 	0.74683	0.82277	0.22767	-0.989
Mof_H 	H 	0.74703	0.78857	0.22767	0.373
Mof_C 	C 	0.72973	0.83937	0.17827	0.544
Mof_C 	C 	0.72943	0.88937	0.17817	0.693
Mof_C 	C 	0.74603	0.92297	0.22767	-1.23
Mof_H 	H 	0.74583	0.95717	0.22767	0.451
Mof_C 	C 	0.84323	0.99807	0.49867	-0.364
Mof_H 	H 	0.87683	0.03507	0.50107	0.122
Mof_H 	H 	0.84223	0.97537	0.53197	0.131
Mof_H 	H 	0.84383	0.97977	0.46237	0.15
Mof_C 	C 	0.79643	0.00387	0.49967	0.133
Mof_N 	N 	0.76413	0.00087	0.45017	-0.251
Mof_C 	C 	0.71143	0.99107	0.47017	-0.149
Mof_H 	H 	0.68163	0.98727	0.44627	0.029
Mof_C 	C 	0.71103	0.98807	0.53197	-0.011
Mof_H 	H 	0.68093	0.98187	0.55677	-0.007
Mof_N 	N 	0.76363	0.99597	0.55027	-0.27
Mof_N 	N 	0.78563	0.93117	0.33217	-0.631
Mof_N 	N 	0.78603	0.85057	0.33467	-0.385
Mof_C 	C 	0.61753	0.12437	0.32717	-0.488
Mof_H 	H 	0.57683	0.10397	0.33137	0.144
Mof_H 	H 	0.63433	0.15067	0.35957	0.148
Mof_H 	H 	0.62773	0.14487	0.29017	0.152
Mof_O 	O 	0.66783	0.83377	0.26937	-5.48
Mof_C 	C 	0.71533	0.90267	0.12967	-0.196
Mof_C 	C 	0.71433	0.81667	0.12667	-0.124
Mof_C 	C 	0.64033	0.81997	0.15067	0.007
Mof_C 	C 	0.70143	0.85087	0.23767	3.813
Mof_N 	N 	0.70183	0.85057	0.18627	-1.516
Mof_C 	C 	0.81753	0.08127	0.11897	-0.447
Mof_H 	H 	0.77993	0.07627	0.11857	0.154
Mof_H 	H 	0.84043	0.10847	0.08907	0.144
Mof_H 	H 	0.81533	0.04537	0.11087	0.15
Mof_Zn	Zn	0.88152	0.33371	0.70034	1.193
Mof_Zn	Zn	0.66634	0.11852	0.70034	1.188
Mof_N 	N 	0.5131	0.1072	0.6707	-0.296
Mof_N 	N 	0.5945	0.1076	0.6699	-0.299
Mof_C 	C 	0.6676	0.1081	0.8335	0.211
Mof_N 	N 	0.666	0.1372	0.7832	-0.259
Mof_C 	C 	0.6653	0.1858	0.802	-0.037
Mof_H 	H 	0.6642	0.2129	0.7774	-0.041
Mof_C 	C 	0.6665	0.1867	0.8639	-0.008
Mof_H 	H 	0.6663	0.2145	0.888	-0.041
Mof_N 	N 	0.6679	0.1387	0.8834	-0.249
Mof_C 	C 	0.5568	0.1129	0.6999	0.1
Mof_H 	H 	0.5609	0.1205	0.7406	-0.061
Mof_N 	N 	0.7219	0.009	0.6571	-0.282
Mof_N 	N 	0.6762	0.0557	0.6763	-0.275
Mof_C 	C 	0.6379	0.9997	0.6727	0.049
Mof_C 	C 	0.5728	0.0966	0.6142	0.06
Mof_C 	C 	0.5221	0.0958	0.6153	0.051
Mof_C 	C 	0.6658	0.9704	0.6607	0.071
Mof_C 	C 	0.7249	0.0575	0.6665	0.036
Mof_H 	H 	0.7594	0.0915	0.6663	0.052
Mof_C 	C 	0.4909	0.0859	0.5639	-0.149
Mof_H 	H 	0.4569	0.0866	0.5635	0.043
Mof_C 	C 	0.5946	0.0863	0.5639	-0.165
Mof_H 	H 	0.6293	0.087	0.5643	0.045
Mof_C 	C 	0.5117	0.0749	0.5138	0.067
Mof_C 	C 	0.5636	0.0751	0.5141	0.091
Mof_C 	C 	0.7239	0.227	0.6389	-0.075
Mof_N 	N 	0.7235	0.1891	0.6771	0.188
Mof_N 	N 	0.806	0.2714	0.674	-0.026
Mof_C 	C 	0.7745	0.278	0.6364	-0.035
Mof_C 	C 	0.4814	0.0701	0.4526	-0.415
Mof_H 	H 	0.4778	0.1033	0.4469	0.138
Mof_H 	H 	0.5037	0.0674	0.4209	0.131
Mof_H 	H 	0.4443	0.0367	0.4527	0.142
Mof_C 	C 	0.5793	0.9721	0.6787	-0.173
Mof_H 	H 	0.5599	0.9917	0.6863	0.072
Mof_C 	C 	0.6388	0.9128	0.6542	-0.205
Mof_H 	H 	0.6584	0.8936	0.6456	0.082
Mof_C 	C 	0.5518	0.9143	0.6727	0.087
Mof_C 	C 	0.5809	0.8852	0.6611	0.131
Mof_C 	C 	0.6609	0.0512	0.8337	-0.261
Mof_H 	H 	0.6976	0.0541	0.8305	0.144
Mof_H 	H 	0.643	0.0321	0.8701	0.076
Mof_H 	H 	0.6376	0.0298	0.8006	0.137
Mof_C 	C 	0.7746	0.2251	0.6963	1.024
Mof_C 	C 	0.4915	0.876	0.6766	-0.429
Mof_H 	H 	0.4724	0.8974	0.6826	0.129
Mof_H 	H 	0.4782	0.8545	0.6404	0.13
Mof_H 	H 	0.4835	0.8505	0.7095	0.131
Mof_C 	C 	0.8021	0.1983	0.7443	-5.452
Mof_H 	H 	0.8227	0.1836	0.7228	4.94
Mof_H 	H 	0.8276	0.2277	0.771	1.629
Mof_H 	H 	0.7719	0.168	0.7667	1.694
Mof_C 	C 	0.7602	0.19	0.6105	0.169
Mof_C 	C 	0.8103	0.2405	0.6105	-0.026
Mof_C 	C 	0.8439	0.2574	0.561	-0.984
Mof_H 	H 	0.8781	0.2918	0.561	0.371
Mof_C 	C 	0.8273	0.2237	0.5116	0.542
Mof_C 	C 	0.7773	0.1734	0.5115	0.691
Mof_C 	C 	0.7437	0.1564	0.561	-1.224
Mof_H 	H 	0.7095	0.122	0.561	0.45
Mof_C 	C 	0.6686	0.1785	0.832	-0.362
Mof_H 	H 	0.6316	0.1751	0.8344	0.122
Mof_H 	H 	0.6913	0.2002	0.8653	0.132
Mof_H 	H 	0.6869	0.1974	0.7957	0.148
Mof_C 	C 	0.6628	0.1259	0.833	0.133
Mof_N 	N 	0.6658	0.0966	0.7835	-0.252
Mof_C 	C 	0.6756	0.0537	0.8035	-0.145
Mof_H 	H 	0.6794	0.0277	0.7796	0.028
Mof_C 	C 	0.6786	0.0563	0.8653	-0.015
Mof_H 	H 	0.6848	0.0324	0.8901	-0.007
Mof_N 	N 	0.6707	0.101	0.8836	-0.27
Mof_N 	N 	0.7355	0.1878	0.6655	-0.629
Mof_N 	N 	0.8161	0.2688	0.668	-0.383
Mof_C 	C 	0.5423	0.8265	0.6605	-0.487
Mof_H 	H 	0.5627	0.8062	0.6647	0.144
Mof_H 	H 	0.516	0.817	0.6929	0.148
Mof_H 	H 	0.5218	0.8162	0.6235	0.152
Mof_O 	O 	0.8329	0.1674	0.6027	-5.444
Mof_C 	C 	0.764	0.146	0.463	-0.195
Mof_C 	C 	0.85	0.231	0.46	-0.124
Mof_C 	C 	0.8467	0.1537	0.484	0.007
Mof_C 	C 	0.8158	0.1839	0.571	3.789
Mof_N 	N 	0.8161	0.1846	0.5196	-1.508
Mof_C 	C 	0.5854	0.0696	0.4523	-0.442
Mof_H 	H 	0.5904	0.037	0.4519	0.151
Mof_H 	H 	0.5582	0.0653	0.4224	0.141
Mof_H 	H 	0.6213	0.1033	0.4442	0.147
Mof_Zn	Zn	0.54819	0.66704	0.03367	1.193
Mof_Zn	Zn	0.33301	0.45185	0.03367	1.187
Mof_N 	N 	0.17977	0.44053	0.00403	-0.298
Mof_N 	N 	0.26117	0.44093	0.00323	-0.3
Mof_C 	C 	0.33427	0.44143	0.16683	0.21
Mof_N 	N 	0.33267	0.47053	0.11653	-0.26
Mof_C 	C 	0.33197	0.51913	0.13533	-0.038
Mof_H 	H 	0.33087	0.54623	0.11073	-0.042
Mof_C 	C 	0.33317	0.52003	0.19723	-0.007
Mof_H 	H 	0.33297	0.54783	0.22133	-0.041
Mof_N 	N 	0.33457	0.47203	0.21673	-0.249
Mof_C 	C 	0.22347	0.44623	0.03323	0.1
Mof_H 	H 	0.22757	0.45383	0.07393	-0.061
Mof_N 	N 	0.38857	0.34233	0.99043	-0.281
Mof_N 	N 	0.34287	0.38903	0.00963	-0.274
Mof_C 	C 	0.30457	0.33303	0.00603	0.047
Mof_C 	C 	0.23947	0.42993	0.94753	0.061
Mof_C 	C 	0.18877	0.42913	0.94863	0.055
Mof_C 	C 	0.33247	0.30373	0.99403	0.07
Mof_C 	C 	0.39157	0.39083	0.99983	0.037
Mof_H 	H 	0.42607	0.42483	0.99963	0.053
Mof_C 	C 	0.15757	0.41923	0.89723	-0.151
Mof_H 	H 	0.12357	0.41993	0.89683	0.045
Mof_C 	C 	0.26127	0.41963	0.89723	-0.165
Mof_H 	H 	0.29597	0.42033	0.89763	0.045
Mof_C 	C 	0.17837	0.40823	0.84713	0.068
Mof_C 	C 	0.23027	0.40843	0.84743	0.09
Mof_C 	C 	0.39057	0.56033	0.97223	-0.077
Mof_N 	N 	0.39017	0.52243	0.01043	0.214
Mof_N 	N 	0.47267	0.60473	0.00733	-0.023
Mof_C 	C 	0.44117	0.61133	0.96973	-0.033
Mof_C 	C 	0.14807	0.40343	0.78593	-0.416
Mof_H 	H 	0.14447	0.43663	0.78023	0.139
Mof_H 	H 	0.17037	0.40073	0.75423	0.132
Mof_H 	H 	0.11097	0.37003	0.78603	0.143
Mof_C 	C 	0.24597	0.30543	0.01203	-0.173
Mof_H 	H 	0.22657	0.32503	0.01963	0.071
Mof_C 	C 	0.30547	0.24613	0.98753	-0.205
Mof_H 	H 	0.32507	0.22693	0.97893	0.082
Mof_C 	C 	0.21847	0.24763	0.00603	0.088
Mof_C 	C 	0.24757	0.21853	0.99443	0.131
Mof_C 	C 	0.32757	0.38453	0.16703	-0.263
Mof_H 	H 	0.36427	0.38743	0.16383	0.145
Mof_H 	H 	0.30967	0.36543	0.20343	0.076
Mof_H 	H 	0.30427	0.36313	0.13393	0.138
Mof_C 	C 	0.44127	0.55843	0.02963	1.033
Mof_C 	C 	0.15817	0.20933	0.00993	-0.431
Mof_H 	H 	0.13907	0.23073	0.01593	0.129
Mof_H 	H 	0.14487	0.18783	0.97373	0.131
Mof_H 	H 	0.15017	0.18383	0.04283	0.131
Mof_C 	C 	0.46877	0.53163	0.07763	-5.502
Mof_H 	H 	0.48937	0.51693	0.05613	4.99
Mof_H 	H 	0.49427	0.56103	0.10433	1.644
Mof_H 	H 	0.43857	0.50133	0.10003	1.709
Mof_C 	C 	0.42687	0.52333	0.94383	0.178
Mof_C 	C 	0.47697	0.57383	0.94383	-0.029
Mof_C 	C 	0.51057	0.59073	0.89433	-0.99
Mof_H 	H 	0.54477	0.62513	0.89433	0.374
Mof_C 	C 	0.49397	0.55703	0.84493	0.544
Mof_C 	C 	0.44397	0.50673	0.84483	0.698
Mof_C 	C 	0.41037	0.48973	0.89433	-1.239
Mof_H 	H 	0.37617	0.45533	0.89433	0.456
Mof_C 	C 	0.33527	0.51183	0.16533	-0.363
Mof_H 	H 	0.29827	0.50843	0.16773	0.122
Mof_H 	H 	0.35797	0.53353	0.19863	0.132
Mof_H 	H 	0.35357	0.53073	0.12903	0.149
Mof_C 	C 	0.32947	0.45923	0.16633	0.134
Mof_N 	N 	0.33247	0.42993	0.11683	-0.252
Mof_C 	C 	0.34227	0.38703	0.13683	-0.146
Mof_H 	H 	0.34607	0.36103	0.11293	0.029
Mof_C 	C 	0.34527	0.38963	0.19863	-0.013
Mof_H 	H 	0.35147	0.36573	0.22343	-0.006
Mof_N 	N 	0.33737	0.43433	0.21693	-0.27
Mof_N 	N 	0.40217	0.52113	0.99883	-0.658
Mof_N 	N 	0.48277	0.60213	0.00133	-0.388
Mof_C 	C 	0.20897	0.15983	0.99383	-0.489
Mof_H 	H 	0.22937	0.13953	0.99803	0.144
Mof_H 	H 	0.18267	0.15033	0.02623	0.148
Mof_H 	H 	0.18847	0.14953	0.95683	0.152
Mof_O 	O 	0.49957	0.50073	0.93603	-5.498
Mof_C 	C 	0.43067	0.47933	0.79633	-0.197
Mof_C 	C 	0.51667	0.56433	0.79333	-0.123
Mof_C 	C 	0.51337	0.48703	0.81733	0.007
Mof_C 	C 	0.48247	0.51723	0.90433	3.825
Mof_N 	N 	0.48277	0.51793	0.85293	-1.52
Mof_C 	C 	0.25207	0.40293	0.78563	-0.441
Mof_H 	H 	0.25707	0.37033	0.78523	0.151
Mof_H 	H 	0.22487	0.39863	0.75573	0.14
Mof_H 	H 	0.28797	0.43663	0.77753	0.147
Mof_Zn	Zn	0.21485	0.00038	0.36701	1.194
Mof_Zn	Zn	0.99967	0.78519	0.36701	1.188
Mof_N 	N 	0.84643	0.77387	0.33737	-0.295
Mof_N 	N 	0.92783	0.77427	0.33657	-0.299
Mof_C 	C 	0.00093	0.77477	0.50017	0.21
Mof_N 	N 	0.99933	0.80387	0.44987	-0.259
Mof_C 	C 	0.99863	0.85247	0.46867	-0.04
Mof_H 	H 	0.99753	0.87957	0.44407	-0.04
Mof_C 	C 	0.99983	0.85337	0.53057	-0.005
Mof_H 	H 	0.99963	0.88117	0.55467	-0.041
Mof_N 	N 	0.00123	0.80537	0.55007	-0.249
Mof_C 	C 	0.89013	0.77957	0.36657	0.101
Mof_H 	H 	0.89423	0.78717	0.40727	-0.061
Mof_N 	N 	0.05523	0.67567	0.32377	-0.282
Mof_N 	N 	0.00953	0.72237	0.34297	-0.275
Mof_C 	C 	0.97123	0.66637	0.33937	0.048
Mof_C 	C 	0.90613	0.76327	0.28087	0.061
Mof_C 	C 	0.85543	0.76247	0.28197	0.051
Mof_C 	C 	0.99913	0.63707	0.32737	0.072
Mof_C 	C 	0.05823	0.72417	0.33317	0.036
Mof_H 	H 	0.09273	0.75817	0.33297	0.052
Mof_C 	C 	0.82423	0.75257	0.23057	-0.148
Mof_H 	H 	0.79023	0.75327	0.23017	0.043
Mof_C 	C 	0.92793	0.75297	0.23057	-0.166
Mof_H 	H 	0.96263	0.75367	0.23097	0.047
Mof_C 	C 	0.84503	0.74157	0.18047	0.066
Mof_C 	C 	0.89693	0.74177	0.18077	0.093
Mof_C 	C 	0.05723	0.89367	0.30557	-0.077
Mof_N 	N 	0.05683	0.85577	0.34377	0.19
Mof_N 	N 	0.13933	0.93807	0.34067	-0.026
Mof_C 	C 	0.10783	0.94467	0.30307	-0.037
Mof_C 	C 	0.81473	0.73677	0.11927	-0.415
Mof_H 	H 	0.81113	0.76997	0.11357	0.138
Mof_H 	H 	0.83703	0.73407	0.08757	0.131
Mof_H 	H 	0.77763	0.70337	0.11937	0.142
Mof_C 	C 	0.91263	0.63877	0.34537	-0.173
Mof_H 	H 	0.89323	0.65837	0.35297	0.071
Mof_C 	C 	0.97213	0.57947	0.32087	-0.206
Mof_H 	H 	0.99173	0.56027	0.31227	0.083
Mof_C 	C 	0.88513	0.58097	0.33937	0.087
Mof_C 	C 	0.91423	0.55187	0.32777	0.131
Mof_C 	C 	0.99423	0.71787	0.50037	-0.264
Mof_H 	H 	0.03093	0.72077	0.49717	0.145
Mof_H 	H 	0.97633	0.69877	0.53677	0.075
Mof_H 	H 	0.97093	0.69647	0.46727	0.139
Mof_C 	C 	0.10793	0.89177	0.36297	1.025
Mof_C 	C 	0.82483	0.54267	0.34327	-0.429
Mof_H 	H 	0.80573	0.56407	0.34927	0.129
Mof_H 	H 	0.81153	0.52117	0.30707	0.13
Mof_H 	H 	0.81683	0.51717	0.37617	0.131
Mof_C 	C 	0.13543	0.86497	0.41097	-5.452
Mof_H 	H 	0.15603	0.85027	0.38947	4.94
Mof_H 	H 	0.16093	0.89437	0.43767	1.629
Mof_H 	H 	0.10523	0.83467	0.43337	1.694
Mof_C 	C 	0.09353	0.85667	0.27717	0.169
Mof_C 	C 	0.14363	0.90717	0.27717	-0.027
Mof_C 	C 	0.17723	0.92407	0.22767	-0.984
Mof_H 	H 	0.21143	0.95847	0.22767	0.37
Mof_C 	C 	0.16063	0.89037	0.17827	0.541
Mof_C 	C 	0.11063	0.84007	0.17817	0.69
Mof_C 	C 	0.07703	0.82307	0.22767	-1.224
Mof_H 	H 	0.04283	0.78867	0.22767	0.449
Mof_C 	C 	0.00193	0.84517	0.49867	-0.363
Mof_H 	H 	0.96493	0.84177	0.50107	0.122
Mof_H 	H 	0.02463	0.86687	0.53197	0.131
Mof_H 	H 	0.02023	0.86407	0.46237	0.15
Mof_C 	C 	0.99613	0.79257	0.49967	0.133
Mof_N 	N 	0.99913	0.76327	0.45017	-0.251
Mof_C 	C 	0.00893	0.72037	0.47017	-0.148
Mof_H 	H 	0.01273	0.69437	0.44627	0.029
Mof_C 	C 	0.01193	0.72297	0.53197	-0.01
Mof_H 	H 	0.01813	0.69907	0.55677	-0.007
Mof_N 	N 	0.00403	0.76767	0.55027	-0.27
Mof_N 	N 	0.06883	0.85447	0.33217	-0.632
Mof_N 	N 	0.14943	0.93547	0.33467	-0.383
Mof_C 	C 	0.87563	0.49317	0.32717	-0.488
Mof_H 	H 	0.89603	0.47287	0.33137	0.144
Mof_H 	H 	0.84933	0.48367	0.35957	0.148
Mof_H 	H 	0.85513	0.48287	0.29017	0.152
Mof_O 	O 	0.16623	0.83407	0.26937	-5.443
Mof_C 	C 	0.09733	0.81267	0.12967	-0.196
Mof_C 	C 	0.18333	0.89767	0.12667	-0.125
Mof_C 	C 	0.18003	0.82037	0.15067	0.007
Mof_C 	C 	0.14913	0.85057	0.23767	3.789
Mof_N 	N 	0.14943	0.85127	0.18627	-1.508
Mof_C 	C 	0.91873	0.73627	0.11897	-0.445
Mof_H 	H 	0.92373	0.70367	0.11857	0.153
Mof_H 	H 	0.89153	0.73197	0.08907	0.142
Mof_H 	H 	0.95463	0.76997	0.11087	0.149
Mof_Zn	Zn	0.66629	0.54781	0.70034	1.193
Mof_Zn	Zn	0.88148	0.54782	0.70034	1.188
Mof_N 	N 	0.8928	0.4059	0.6707	-0.296
Mof_N 	N 	0.8924	0.4869	0.6699	-0.299
Mof_C 	C 	0.8919	0.5595	0.8335	0.211
Mof_N 	N 	0.8628	0.5288	0.7832	-0.259
Mof_C 	C 	0.8142	0.4795	0.802	-0.037
Mof_H 	H 	0.7871	0.4513	0.7774	-0.041
Mof_C 	C 	0.8133	0.4798	0.8639	-0.008
Mof_H 	H 	0.7855	0.4518	0.888	-0.041
Mof_N 	N 	0.8613	0.5292	0.8834	-0.249
Mof_C 	C 	0.8871	0.4439	0.6999	0.1
Mof_H 	H 	0.8795	0.4404	0.7406	-0.061
Mof_N 	N 	0.991	0.7129	0.6571	-0.282
Mof_N 	N 	0.9443	0.6205	0.6763	-0.275
Mof_C 	C 	0.0003	0.6382	0.6727	0.049
Mof_C 	C 	0.9034	0.4762	0.6142	0.06
Mof_C 	C 	0.9042	0.4263	0.6153	0.051
Mof_C 	C 	0.0296	0.6954	0.6607	0.071
Mof_C 	C 	0.9425	0.6674	0.6665	0.036
Mof_H 	H 	0.9085	0.6679	0.6663	0.052
Mof_C 	C 	0.9141	0.405	0.5639	-0.149
Mof_H 	H 	0.9134	0.3703	0.5635	0.043
Mof_C 	C 	0.9137	0.5083	0.5639	-0.165
Mof_H 	H 	0.913	0.5423	0.5643	0.045
Mof_C 	C 	0.9251	0.4368	0.5138	0.067
Mof_C 	C 	0.9249	0.4885	0.5141	0.091
Mof_C 	C 	0.773	0.4969	0.6389	-0.075
Mof_N 	N 	0.8109	0.5344	0.6771	0.187
Mof_N 	N 	0.7286	0.5346	0.674	-0.025
Mof_C 	C 	0.722	0.4965	0.6364	-0.035
Mof_C 	C 	0.9299	0.4113	0.4526	-0.415
Mof_H 	H 	0.8967	0.3745	0.4469	0.138
Mof_H 	H 	0.9326	0.4363	0.4209	0.131
Mof_H 	H 	0.9633	0.4076	0.4527	0.142
Mof_C 	C 	0.0279	0.6072	0.6787	-0.173
Mof_H 	H 	0.0083	0.5682	0.6863	0.072
Mof_C 	C 	0.0872	0.726	0.6542	-0.205
Mof_H 	H 	0.1064	0.7648	0.6456	0.082
Mof_C 	C 	0.0857	0.6375	0.6727	0.088
Mof_C 	C 	0.1148	0.6957	0.6611	0.131
Mof_C 	C 	0.9488	0.6097	0.8337	-0.262
Mof_H 	H 	0.9459	0.6435	0.8305	0.144
Mof_H 	H 	0.9679	0.6109	0.8701	0.076
Mof_H 	H 	0.9702	0.6078	0.8006	0.137
Mof_C 	C 	0.7749	0.5495	0.6963	1.029
Mof_C 	C 	0.124	0.6155	0.6766	-0.429
Mof_H 	H 	0.1026	0.575	0.6826	0.13
Mof_H 	H 	0.1455	0.6237	0.6404	0.13
Mof_H 	H 	0.1495	0.633	0.7095	0.131
Mof_C 	C 	0.8017	0.6038	0.7443	-5.479
Mof_H 	H 	0.8164	0.6391	0.7228	4.967
Mof_H 	H 	0.7723	0.5999	0.771	1.637
Mof_H 	H 	0.832	0.6039	0.7667	1.702
Mof_C 	C 	0.81	0.5702	0.6105	0.169
Mof_C 	C 	0.7595	0.5698	0.6105	-0.026
Mof_C 	C 	0.7426	0.5865	0.561	-0.988
Mof_H 	H 	0.7082	0.5863	0.561	0.373
Mof_C 	C 	0.7763	0.6036	0.5116	0.544
Mof_C 	C 	0.8266	0.6039	0.5115	0.692
Mof_C 	C 	0.8436	0.5873	0.561	-1.228
Mof_H 	H 	0.878	0.5875	0.561	0.452
Mof_C 	C 	0.8215	0.4901	0.832	-0.362
Mof_H 	H 	0.8249	0.4565	0.8344	0.122
Mof_H 	H 	0.7998	0.4911	0.8653	0.132
Mof_H 	H 	0.8026	0.4895	0.7957	0.148
Mof_C 	C 	0.8741	0.5369	0.833	0.133
Mof_N 	N 	0.9034	0.5692	0.7835	-0.252
Mof_C 	C 	0.9463	0.6219	0.8035	-0.145
Mof_H 	H 	0.9723	0.6517	0.7796	0.028
Mof_C 	C 	0.9437	0.6223	0.8653	-0.015
Mof_H 	H 	0.9676	0.6524	0.8901	-0.006
Mof_N 	N 	0.899	0.5697	0.8836	-0.27
Mof_N 	N 	0.8122	0.5477	0.6655	-0.629
Mof_N 	N 	0.7312	0.5473	0.668	-0.385
Mof_C 	C 	0.1735	0.7158	0.6605	-0.487
Mof_H 	H 	0.1938	0.7565	0.6647	0.144
Mof_H 	H 	0.183	0.699	0.6929	0.148
Mof_H 	H 	0.1838	0.7056	0.6235	0.152
Mof_O 	O 	0.8326	0.6655	0.6027	-5.473
Mof_C 	C 	0.854	0.618	0.463	-0.195
Mof_C 	C 	0.769	0.619	0.46	-0.124
Mof_C 	C 	0.8463	0.693	0.484	0.007
Mof_C 	C 	0.8161	0.6319	0.571	3.809
Mof_N 	N 	0.8154	0.6315	0.5196	-1.514
Mof_C 	C 	0.9304	0.5158	0.4523	-0.442
Mof_H 	H 	0.963	0.5534	0.4519	0.151
Mof_H 	H 	0.9347	0.4929	0.4224	0.141
Mof_H 	H 	0.8967	0.518	0.4442	0.147
Mof_Zn	Zn	0.33296	0.88114	0.03367	1.192
Mof_Zn	Zn	0.54815	0.88115	0.03367	1.185
Mof_N 	N 	0.55947	0.73923	0.00403	-0.297
Mof_N 	N 	0.55907	0.82023	0.00323	-0.302
Mof_C 	C 	0.55857	0.89283	0.16683	0.21
Mof_N 	N 	0.52947	0.86213	0.11653	-0.261
Mof_C 	C 	0.48087	0.81283	0.13533	-0.039
Mof_H 	H 	0.45377	0.78463	0.11073	-0.042
Mof_C 	C 	0.47997	0.81313	0.19723	-0.006
Mof_H 	H 	0.45217	0.78513	0.22133	-0.041
Mof_N 	N 	0.52797	0.86253	0.21673	-0.249
Mof_C 	C 	0.55377	0.77723	0.03323	0.1
Mof_H 	H 	0.54617	0.77373	0.07393	-0.061
Mof_N 	N 	0.65767	0.04623	0.99043	-0.281
Mof_N 	N 	0.61097	0.95383	0.00963	-0.274
Mof_C 	C 	0.66697	0.97153	0.00603	0.048
Mof_C 	C 	0.57007	0.80953	0.94753	0.063
Mof_C 	C 	0.57087	0.75963	0.94863	0.052
Mof_C 	C 	0.69627	0.02873	0.99403	0.068
Mof_C 	C 	0.60917	0.00073	0.99983	0.033
Mof_H 	H 	0.57517	0.00123	0.99963	0.049
Mof_C 	C 	0.58077	0.73833	0.89723	-0.149
Mof_H 	H 	0.58007	0.70363	0.89683	0.043
Mof_C 	C 	0.58037	0.84163	0.89723	-0.166
Mof_H 	H 	0.57967	0.87563	0.89763	0.047
Mof_C 	C 	0.59177	0.77013	0.84713	0.066
Mof_C 	C 	0.59157	0.82183	0.84743	0.092
Mof_C 	C 	0.43967	0.83023	0.97223	-0.083
Mof_N 	N 	0.47757	0.86773	0.01043	0.282
Mof_N 	N 	0.39527	0.86793	0.00733	-0.025
Mof_C 	C 	0.38867	0.82983	0.96973	-0.027
Mof_C 	C 	0.59657	0.74463	0.78593	-0.415
Mof_H 	H 	0.56337	0.70783	0.78023	0.138
Mof_H 	H 	0.59927	0.76963	0.75423	0.131
Mof_H 	H 	0.62997	0.74093	0.78603	0.142
Mof_C 	C 	0.69457	0.94053	0.01203	-0.173
Mof_H 	H 	0.67497	0.90153	0.01963	0.07
Mof_C 	C 	0.75387	0.05933	0.98753	-0.212
Mof_H 	H 	0.77307	0.09813	0.97893	0.083
Mof_C 	C 	0.75237	0.97083	0.00603	0.085
Mof_C 	C 	0.78147	0.02903	0.99443	0.139
Mof_C 	C 	0.61547	0.94303	0.16703	-0.261
Mof_H 	H 	0.61257	0.97683	0.16383	0.144
Mof_H 	H 	0.63457	0.94423	0.20343	0.076
Mof_H 	H 	0.63687	0.94113	0.13393	0.137
Mof_C 	C 	0.44157	0.88283	0.02963	1.007
Mof_C 	C 	0.79067	0.94883	0.00993	-0.432
Mof_H 	H 	0.76927	0.90833	0.01593	0.13
Mof_H 	H 	0.81217	0.95703	0.97373	0.132
Mof_H 	H 	0.81617	0.96633	0.04283	0.129
Mof_C 	C 	0.46837	0.93713	0.07763	-5.352
Mof_H 	H 	0.48307	0.97243	0.05613	4.843
Mof_H 	H 	0.43897	0.93323	0.10433	1.599
Mof_H 	H 	0.49867	0.93723	0.10003	1.661
Mof_C 	C 	0.47667	0.90353	0.94383	0.204
Mof_C 	C 	0.42617	0.90313	0.94383	-0.033
Mof_C 	C 	0.40927	0.91983	0.89433	-0.961
Mof_H 	H 	0.37487	0.91963	0.89433	0.365
Mof_C 	C 	0.44297	0.93693	0.84493	0.529
Mof_C 	C 	0.49327	0.93723	0.84483	0.694
Mof_C 	C 	0.51027	0.92063	0.89433	-1.227
Mof_H 	H 	0.54467	0.92083	0.89433	0.452
Mof_C 	C 	0.48817	0.82343	0.16533	-0.361
Mof_H 	H 	0.49157	0.78983	0.16773	0.121
Mof_H 	H 	0.46647	0.82443	0.19863	0.131
Mof_H 	H 	0.46927	0.82283	0.12903	0.148
Mof_C 	C 	0.54077	0.87023	0.16633	0.134
Mof_N 	N 	0.57007	0.90253	0.11683	-0.252
Mof_C 	C 	0.61297	0.95523	0.13683	-0.146
Mof_H 	H 	0.63897	0.98503	0.11293	0.028
Mof_C 	C 	0.61037	0.95563	0.19863	-0.014
Mof_H 	H 	0.63427	0.98573	0.22343	-0.007
Mof_N 	N 	0.56567	0.90303	0.21693	-0.27
Mof_N 	N 	0.47887	0.88103	0.99883	-0.724
Mof_N 	N 	0.39787	0.88063	0.00133	-0.384
Mof_C 	C 	0.84017	0.04913	0.99383	-0.53
Mof_H 	H 	0.86047	0.08983	0.99803	0.152
Mof_H 	H 	0.84967	0.03233	0.02623	0.168
Mof_H 	H 	0.85047	0.03893	0.95683	0.161
Mof_O 	O 	0.49927	0.99883	0.93603	-5.335
Mof_C 	C 	0.52067	0.95133	0.79633	-0.196
Mof_C 	C 	0.43567	0.95233	0.79333	-0.119
Mof_C 	C 	0.51297	0.02633	0.81733	0.004
Mof_C 	C 	0.48277	0.96523	0.90433	3.719
Mof_N 	N 	0.48207	0.96483	0.85293	-1.485
Mof_C 	C 	0.59707	0.84913	0.78563	-0.443
Mof_H 	H 	0.62967	0.88673	0.78523	0.152
Mof_H 	H 	0.60137	0.82623	0.75573	0.141
Mof_H 	H 	0.56337	0.85133	0.77753	0.147
Mof_Zn	Zn	0.99962	0.21448	0.36701	1.194
Mof_Zn	Zn	0.21481	0.21449	0.36701	1.188
Mof_N 	N 	0.22613	0.07257	0.33737	-0.295
Mof_N 	N 	0.22573	0.15357	0.33657	-0.299
Mof_C 	C 	0.22523	0.22617	0.50017	0.21
Mof_N 	N 	0.19613	0.19547	0.44987	-0.259
Mof_C 	C 	0.14753	0.14617	0.46867	-0.038
Mof_H 	H 	0.12043	0.11797	0.44407	-0.041
Mof_C 	C 	0.14663	0.14647	0.53057	-0.007
Mof_H 	H 	0.11883	0.11847	0.55467	-0.041
Mof_N 	N 	0.19463	0.19587	0.55007	-0.249
Mof_C 	C 	0.22043	0.11057	0.36657	0.101
Mof_H 	H 	0.21283	0.10707	0.40727	-0.061
Mof_N 	N 	0.32433	0.37957	0.32377	-0.28
Mof_N 	N 	0.27763	0.28717	0.34297	-0.274
Mof_C 	C 	0.33363	0.30487	0.33937	0.047
Mof_C 	C 	0.23673	0.14287	0.28087	0.06
Mof_C 	C 	0.23753	0.09297	0.28197	0.052
Mof_C 	C 	0.36293	0.36207	0.32737	0.07
Mof_C 	C 	0.27583	0.33407	0.33317	0.036
Mof_H 	H 	0.24183	0.33457	0.33297	0.052
Mof_C 	C 	0.24743	0.07167	0.23057	-0.15
Mof_H 	H 	0.24673	0.03697	0.23017	0.045
Mof_C 	C 	0.24703	0.17497	0.23057	-0.164
Mof_H 	H 	0.24633	0.20897	0.23097	0.045
Mof_C 	C 	0.25843	0.10347	0.18047	0.068
Mof_C 	C 	0.25823	0.15517	0.18077	0.09
Mof_C 	C 	0.10633	0.16357	0.30557	-0.075
Mof_N 	N 	0.14423	0.20107	0.34377	0.187
Mof_N 	N 	0.06193	0.20127	0.34067	-0.025
Mof_C 	C 	0.05533	0.16317	0.30307	-0.036
Mof_C 	C 	0.26323	0.07797	0.11927	-0.418
Mof_H 	H 	0.23003	0.04117	0.11357	0.141
Mof_H 	H 	0.26593	0.10297	0.08757	0.133
Mof_H 	H 	0.29663	0.07427	0.11937	0.144
Mof_C 	C 	0.36123	0.27387	0.34537	-0.172
Mof_H 	H 	0.34163	0.23487	0.35297	0.071
Mof_C 	C 	0.42053	0.39267	0.32087	-0.205
Mof_H 	H 	0.43973	0.43147	0.31227	0.082
Mof_C 	C 	0.41903	0.30417	0.33937	0.087
Mof_C 	C 	0.44813	0.36237	0.32777	0.131
Mof_C 	C 	0.28213	0.27637	0.50037	-0.263
Mof_H 	H 	0.27923	0.31017	0.49717	0.145
Mof_H 	H 	0.30123	0.27757	0.53677	0.076
Mof_H 	H 	0.30353	0.27447	0.46727	0.138
Mof_C 	C 	0.10823	0.21617	0.36297	1.029
Mof_C 	C 	0.45733	0.28217	0.34327	-0.429
Mof_H 	H 	0.43593	0.24167	0.34927	0.129
Mof_H 	H 	0.47883	0.29037	0.30707	0.13
Mof_H 	H 	0.48283	0.29967	0.37617	0.131
Mof_C 	C 	0.13503	0.27047	0.41097	-5.479
Mof_H 	H 	0.14973	0.30577	0.38947	4.967
Mof_H 	H 	0.10563	0.26657	0.43767	1.637
Mof_H 	H 	0.16533	0.27057	0.43337	1.702
Mof_C 	C 	0.14333	0.23687	0.27717	0.169
Mof_C 	C 	0.09283	0.23647	0.27717	-0.027
Mof_C 	C 	0.07593	0.25317	0.22767	-0.988
Mof_H 	H 	0.04153	0.25297	0.22767	0.372
Mof_C 	C 	0.10963	0.27027	0.17827	0.544
Mof_C 	C 	0.15993	0.27057	0.17817	0.692
Mof_C 	C 	0.17693	0.25397	0.22767	-1.228
Mof_H 	H 	0.21133	0.25417	0.22767	0.452
Mof_C 	C 	0.15483	0.15677	0.49867	-0.363
Mof_H 	H 	0.15823	0.12317	0.50107	0.122
Mof_H 	H 	0.13313	0.15777	0.53197	0.132
Mof_H 	H 	0.13593	0.15617	0.46237	0.149
Mof_C 	C 	0.20743	0.20357	0.49967	0.133
Mof_N 	N 	0.23673	0.23587	0.45017	-0.252
Mof_C 	C 	0.27963	0.28857	0.47017	-0.146
Mof_H 	H 	0.30563	0.31837	0.44627	0.029
Mof_C 	C 	0.27703	0.28897	0.53197	-0.014
Mof_H 	H 	0.30093	0.31907	0.55677	-0.006
Mof_N 	N 	0.23233	0.23637	0.55027	-0.27
Mof_N 	N 	0.14553	0.21437	0.33217	-0.629
Mof_N 	N 	0.06453	0.21397	0.33467	-0.385
Mof_C 	C 	0.50683	0.38247	0.32717	-0.487
Mof_H 	H 	0.52713	0.42317	0.33137	0.144
Mof_H 	H 	0.51633	0.36567	0.35957	0.148
Mof_H 	H 	0.51713	0.37227	0.29017	0.152
Mof_O 	O 	0.16593	0.33217	0.26937	-5.473
Mof_C 	C 	0.18733	0.28467	0.12967	-0.195
Mof_C 	C 	0.10233	0.28567	0.12667	-0.124
Mof_C 	C 	0.17963	0.35967	0.15067	0.007
Mof_C 	C 	0.14943	0.29857	0.23767	3.808
Mof_N 	N 	0.14873	0.29817	0.18627	-1.514
Mof_C 	C 	0.26373	0.18247	0.11897	-0.441
Mof_H 	H 	0.29633	0.22007	0.11857	0.151
Mof_H 	H 	0.26803	0.15957	0.08907	0.141
Mof_H 	H 	0.23003	0.18467	0.11087	0.147
_end
