# CIF file generated by openbabel 3.1.0, see https://openbabel.org
data_I
_chemical_name_common 'image0'
_cell_length_a 7.434
_cell_length_b 11.927
_cell_length_c 13.255
_cell_angle_alpha 90
_cell_angle_beta 90
_cell_angle_gamma 90
_space_group_name_H-M_alt 'P 1'
_space_group_name_Hall 'P 1'
loop_
    _symmetry_equiv_pos_as_xyz
    x,y,z
loop_
    _atom_site_label
    _atom_site_type_symbol
    _atom_site_fract_x
    _atom_site_fract_y
    _atom_site_fract_z
    _atom_site_occupancy
    N1       N        0.90970    0.40750    0.04060    1.000
    C1       C        0.86300    0.44910    0.95200    1.000
    C2       C        0.04610    0.45790    0.08710    1.000
    N2       N        0.85600    0.87740    0.74120    1.000
    C3       C        0.90090    0.91380    0.81500    1.000
    N3       N        0.09030    0.90750    0.95940    1.000
    C4       C        0.13700    0.94910    0.04800    1.000
    C5       C        0.95390    0.95790    0.91290    1.000
    N4       N        0.14400    0.37740    0.25880    1.000
    C6       C        0.09910    0.41380    0.18500    1.000
    N5       N        0.09030    0.59250    0.95940    1.000
    C7       C        0.13700    0.55090    0.04800    1.000
    C8       C        0.95390    0.54210    0.91290    1.000
    N6       N        0.14400    0.12260    0.25880    1.000
    C9       C        0.09910    0.08620    0.18500    1.000
    N7       N        0.90970    0.09250    0.04060    1.000
    C10      C        0.86300    0.05090    0.95200    1.000
    C11      C        0.04610    0.04210    0.08710    1.000
    N8       N        0.85600    0.62260    0.74120    1.000
    C12      C        0.90090    0.58620    0.81500    1.000
    Ag1      Ag       0.76617    0.75000    0.60999    1.000
    Ag2      Ag       0.23383    0.25000    0.39001    1.000
    N9       N        0.64400    0.12260    0.24120    1.000
    C13      C        0.59910    0.08620    0.31500    1.000
    N10      N        0.59030    0.59250    0.54060    1.000
    C14      C        0.63700    0.55090    0.45200    1.000
    C15      C        0.45390    0.54210    0.58710    1.000
    N11      N        0.35600    0.62260    0.75880    1.000
    C16      C        0.40090    0.58620    0.68500    1.000
    N12      N        0.40970    0.09250    0.45940    1.000
    C17      C        0.36300    0.05090    0.54800    1.000
    C18      C        0.54610    0.04210    0.41290    1.000
    N13      N        0.35600    0.87740    0.75880    1.000
    C19      C        0.40090    0.91380    0.68500    1.000
    N14      N        0.40970    0.40750    0.45940    1.000
    C20      C        0.36300    0.44910    0.54800    1.000
    C21      C        0.54610    0.45790    0.41290    1.000
    N15      N        0.64400    0.37740    0.24120    1.000
    C22      C        0.59910    0.41380    0.31500    1.000
    N16      N        0.59030    0.90750    0.54060    1.000
    C23      C        0.63700    0.94910    0.45200    1.000
    C24      C        0.45390    0.95790    0.58710    1.000
    Ag3      Ag       0.73383    0.25000    0.10999    1.000
    Ag4      Ag       0.26617    0.75000    0.89001    1.000
