# CIF file generated by openbabel 3.1.0, see https://openbabel.org
data_I
_chemical_name_common 'image0'
_cell_length_a 23.112
_cell_length_b 6.9534
_cell_length_c 22.638
_cell_angle_alpha 90
_cell_angle_beta 90
_cell_angle_gamma 90
_space_group_name_H-M_alt 'P 1'
_space_group_name_Hall 'P 1'
loop_
    _symmetry_equiv_pos_as_xyz
    x,y,z
loop_
    _atom_site_label
    _atom_site_type_symbol
    _atom_site_fract_x
    _atom_site_fract_y
    _atom_site_fract_z
    _atom_site_occupancy
    Ca1      Ca       0.46847    0.93570    0.50113    1.000
    Ca2      Ca       0.45707    0.56320    0.99093    1.000
    P1       P        0.41484    0.43750    0.52588    1.000
    P2       P        0.46557    0.91840    0.34265    1.000
    P3       P        0.40479    0.06400    0.96294    1.000
    O1       O        0.45130    0.61190    0.51480    1.000
    O2       O        0.45080    0.25860    0.51350    1.000
    O3       O        0.39110    0.44290    0.59080    1.000
    H1       H        0.38030    0.33220    0.60080    1.000
    O4       O        0.35070    0.30270    0.30160    1.000
    H2       H        0.34660    0.26150    0.26690    1.000
    O5       O        0.25300    0.31790    0.29680    1.000
    O6       O        0.19080    0.58170    0.55680    1.000
    H3       H        0.15690    0.59490    0.56940    1.000
    O7       O        0.14510    0.56150    0.46930    1.000
    O8       O        0.43410    0.91360    0.40160    1.000
    O9       O        0.52340    0.81090    0.33990    1.000
    O10      O        0.47400    0.13610    0.32870    1.000
    H4       H        0.47630    0.15150    0.29190    1.000
    O11      O        0.41610    0.58660    0.08700    1.000
    O12      O        0.48230    0.46280    0.14660    1.000
    O13      O        0.23940    0.81890    0.30030    1.000
    H5       H        0.20310    0.81130    0.30060    1.000
    O14      O        0.23010    0.68520    0.20910    1.000
    O15      O        0.44000    0.23460    0.98090    1.000
    O16      O        0.44150    0.88390    0.97320    1.000
    O17      O        0.38320    0.07740    0.89740    1.000
    H6       H        0.41000    0.12030    0.87600    1.000
    O18      O        0.24500    0.17320    0.18980    1.000
    H7       H        0.24950    0.15600    0.22620    1.000
    O19      O        0.34210    0.20570    0.18640    1.000
    O20      O        0.17620    0.92610    0.93230    1.000
    H8       H        0.14160    0.91600    0.92130    1.000
    O21      O        0.13460    0.95080    0.02140    1.000
    C1       C        0.34970    0.44020    0.48130    1.000
    C2       C        0.35180    0.39210    0.42140    1.000
    H9       H        0.38730    0.35500    0.40380    1.000
    C3       C        0.30100    0.39870    0.38750    1.000
    C4       C        0.30050    0.33800    0.32420    1.000
    C5       C        0.24850    0.45000    0.41360    1.000
    H10      H        0.21410    0.45090    0.39060    1.000
    C6       C        0.24620    0.49980    0.47290    1.000
    C7       C        0.18960    0.55170    0.49890    1.000
    C8       C        0.29750    0.49600    0.50620    1.000
    H11      H        0.29640    0.53260    0.54660    1.000
    C9       C        0.41930    0.81900    0.28580    1.000
    C10      C        0.44410    0.73600    0.23600    1.000
    H12      H        0.48510    0.72950    0.23280    1.000
    C11      C        0.41040    0.66300    0.19150    1.000
    C12      C        0.44160    0.56900    0.13840    1.000
    C13      C        0.35080    0.67290    0.19460    1.000
    H13      H        0.32750    0.62650    0.16310    1.000
    C14      C        0.32450    0.75600    0.24680    1.000
    C15      C        0.25960    0.74800    0.24980    1.000
    C16      C        0.35940    0.82500    0.29030    1.000
    H14      H        0.34230    0.87740    0.32490    1.000
    C17      C        0.33930    0.05410    0.00470    1.000
    C18      C        0.34120    0.09810    0.06450    1.000
    H15      H        0.37760    0.12760    0.08180    1.000
    C19      C        0.29200    0.10100    0.10010    1.000
    C20      C        0.29540    0.16600    0.16320    1.000
    C21      C        0.23930    0.04890    0.07490    1.000
    H16      H        0.20540    0.04600    0.09870    1.000
    C22      C        0.23560    0.00080    0.01480    1.000
    C23      C        0.17790    0.95730    0.99130    1.000
    C24      C        0.28590    0.00750    0.98030    1.000
    H17      H        0.28340    0.97950    0.93930    1.000
    Ca3      Ca       0.53153    0.06430    0.00113    1.000
    Ca4      Ca       0.54293    0.43680    0.49093    1.000
    P4       P        0.58516    0.56250    0.02588    1.000
    P5       P        0.53443    0.08160    0.84265    1.000
    P6       P        0.59521    0.93600    0.46294    1.000
    O22      O        0.54870    0.38810    0.01480    1.000
    O23      O        0.54920    0.74140    0.01350    1.000
    O24      O        0.60890    0.55710    0.09080    1.000
    H18      H        0.61970    0.66780    0.10080    1.000
    O25      O        0.64930    0.69730    0.80160    1.000
    H19      H        0.65340    0.73850    0.76690    1.000
    O26      O        0.74700    0.68210    0.79680    1.000
    O27      O        0.80920    0.41830    0.05680    1.000
    H20      H        0.84310    0.40510    0.06940    1.000
    O28      O        0.85490    0.43850    0.96930    1.000
    O29      O        0.56590    0.08640    0.90160    1.000
    O30      O        0.47660    0.18910    0.83990    1.000
    O31      O        0.52600    0.86390    0.82870    1.000
    H21      H        0.52370    0.84850    0.79190    1.000
    O32      O        0.58390    0.41340    0.58700    1.000
    O33      O        0.51770    0.53720    0.64660    1.000
    O34      O        0.76060    0.18110    0.80030    1.000
    H22      H        0.79690    0.18870    0.80060    1.000
    O35      O        0.76990    0.31480    0.70910    1.000
    O36      O        0.56000    0.76540    0.48090    1.000
    O37      O        0.55850    0.11610    0.47320    1.000
    O38      O        0.61680    0.92260    0.39740    1.000
    H23      H        0.59000    0.87970    0.37600    1.000
    O39      O        0.75500    0.82680    0.68980    1.000
    H24      H        0.75050    0.84400    0.72620    1.000
    O40      O        0.65790    0.79430    0.68640    1.000
    O41      O        0.82380    0.07390    0.43230    1.000
    H25      H        0.85840    0.08400    0.42130    1.000
    O42      O        0.86540    0.04920    0.52140    1.000
    C25      C        0.65030    0.55980    0.98130    1.000
    C26      C        0.64820    0.60790    0.92140    1.000
    H26      H        0.61270    0.64500    0.90380    1.000
    C27      C        0.69900    0.60130    0.88750    1.000
    C28      C        0.69950    0.66200    0.82420    1.000
    C29      C        0.75150    0.55000    0.91360    1.000
    H27      H        0.78590    0.54910    0.89060    1.000
    C30      C        0.75380    0.50020    0.97290    1.000
    C31      C        0.81040    0.44830    0.99890    1.000
    C32      C        0.70250    0.50400    0.00620    1.000
    H28      H        0.70360    0.46740    0.04660    1.000
    C33      C        0.58070    0.18100    0.78580    1.000
    C34      C        0.55590    0.26400    0.73600    1.000
    H29      H        0.51490    0.27050    0.73280    1.000
    C35      C        0.58960    0.33700    0.69150    1.000
    C36      C        0.55840    0.43100    0.63840    1.000
    C37      C        0.64920    0.32710    0.69460    1.000
    H30      H        0.67250    0.37350    0.66310    1.000
    C38      C        0.67550    0.24400    0.74680    1.000
    C39      C        0.74040    0.25200    0.74980    1.000
    C40      C        0.64060    0.17500    0.79030    1.000
    H31      H        0.65770    0.12260    0.82490    1.000
    C41      C        0.66070    0.94590    0.50470    1.000
    C42      C        0.65880    0.90190    0.56450    1.000
    H32      H        0.62240    0.87240    0.58180    1.000
    C43      C        0.70800    0.89900    0.60010    1.000
    C44      C        0.70460    0.83400    0.66320    1.000
    C45      C        0.76070    0.95110    0.57490    1.000
    H33      H        0.79460    0.95400    0.59870    1.000
    C46      C        0.76440    0.99920    0.51480    1.000
    C47      C        0.82210    0.04270    0.49130    1.000
    C48      C        0.71410    0.99250    0.48030    1.000
    H34      H        0.71660    0.02050    0.43930    1.000
    Ca5      Ca       0.96847    0.06430    0.50113    1.000
    Ca6      Ca       0.95707    0.43680    0.99093    1.000
    P7       P        0.91484    0.56250    0.52588    1.000
    P8       P        0.96557    0.08160    0.34265    1.000
    P9       P        0.90479    0.93600    0.96294    1.000
    O43      O        0.95130    0.38810    0.51480    1.000
    O44      O        0.95080    0.74140    0.51350    1.000
    O45      O        0.89110    0.55710    0.59080    1.000
    H35      H        0.88030    0.66780    0.60080    1.000
    O46      O        0.85070    0.69730    0.30160    1.000
    H36      H        0.84660    0.73850    0.26690    1.000
    O47      O        0.75300    0.68210    0.29680    1.000
    O48      O        0.69080    0.41830    0.55680    1.000
    H37      H        0.65690    0.40510    0.56940    1.000
    O49      O        0.64510    0.43850    0.46930    1.000
    O50      O        0.93410    0.08640    0.40160    1.000
    O51      O        0.02340    0.18910    0.33990    1.000
    O52      O        0.97400    0.86390    0.32870    1.000
    H38      H        0.97630    0.84850    0.29190    1.000
    O53      O        0.91610    0.41340    0.08700    1.000
    O54      O        0.98230    0.53720    0.14660    1.000
    O55      O        0.73940    0.18110    0.30030    1.000
    H39      H        0.70310    0.18870    0.30060    1.000
    O56      O        0.73010    0.31480    0.20910    1.000
    O57      O        0.94000    0.76540    0.98090    1.000
    O58      O        0.94150    0.11610    0.97320    1.000
    O59      O        0.88320    0.92260    0.89740    1.000
    H40      H        0.91000    0.87970    0.87600    1.000
    O60      O        0.74500    0.82680    0.18980    1.000
    H41      H        0.74950    0.84400    0.22620    1.000
    O61      O        0.84210    0.79430    0.18640    1.000
    O62      O        0.67620    0.07390    0.93230    1.000
    H42      H        0.64160    0.08400    0.92130    1.000
    O63      O        0.63460    0.04920    0.02140    1.000
    C49      C        0.84970    0.55980    0.48130    1.000
    C50      C        0.85180    0.60790    0.42140    1.000
    H43      H        0.88730    0.64500    0.40380    1.000
    C51      C        0.80100    0.60130    0.38750    1.000
    C52      C        0.80050    0.66200    0.32420    1.000
    C53      C        0.74850    0.55000    0.41360    1.000
    H44      H        0.71410    0.54910    0.39060    1.000
    C54      C        0.74620    0.50020    0.47290    1.000
    C55      C        0.68960    0.44830    0.49890    1.000
    C56      C        0.79750    0.50400    0.50620    1.000
    H45      H        0.79640    0.46740    0.54660    1.000
    C57      C        0.91930    0.18100    0.28580    1.000
    C58      C        0.94410    0.26400    0.23600    1.000
    H46      H        0.98510    0.27050    0.23280    1.000
    C59      C        0.91040    0.33700    0.19150    1.000
    C60      C        0.94160    0.43100    0.13840    1.000
    C61      C        0.85080    0.32710    0.19460    1.000
    H47      H        0.82750    0.37350    0.16310    1.000
    C62      C        0.82450    0.24400    0.24680    1.000
    C63      C        0.75960    0.25200    0.24980    1.000
    C64      C        0.85940    0.17500    0.29030    1.000
    H48      H        0.84230    0.12260    0.32490    1.000
    C65      C        0.83930    0.94590    0.00470    1.000
    C66      C        0.84120    0.90190    0.06450    1.000
    H49      H        0.87760    0.87240    0.08180    1.000
    C67      C        0.79200    0.89900    0.10010    1.000
    C68      C        0.79540    0.83400    0.16320    1.000
    C69      C        0.73930    0.95110    0.07490    1.000
    H50      H        0.70540    0.95400    0.09870    1.000
    C70      C        0.73560    0.99920    0.01480    1.000
    C71      C        0.67790    0.04270    0.99130    1.000
    C72      C        0.78590    0.99250    0.98030    1.000
    H51      H        0.78340    0.02050    0.93930    1.000
    Ca7      Ca       0.03153    0.93570    0.00113    1.000
    Ca8      Ca       0.04293    0.56320    0.49093    1.000
    P10      P        0.08516    0.43750    0.02588    1.000
    P11      P        0.03443    0.91840    0.84265    1.000
    P12      P        0.09521    0.06400    0.46294    1.000
    O64      O        0.04870    0.61190    0.01480    1.000
    O65      O        0.04920    0.25860    0.01350    1.000
    O66      O        0.10890    0.44290    0.09080    1.000
    H52      H        0.11970    0.33220    0.10080    1.000
    O67      O        0.14930    0.30270    0.80160    1.000
    H53      H        0.15340    0.26150    0.76690    1.000
    O68      O        0.24700    0.31790    0.79680    1.000
    O69      O        0.30920    0.58170    0.05680    1.000
    H54      H        0.34310    0.59490    0.06940    1.000
    O70      O        0.35490    0.56150    0.96930    1.000
    O71      O        0.06590    0.91360    0.90160    1.000
    O72      O        0.97660    0.81090    0.83990    1.000
    O73      O        0.02600    0.13610    0.82870    1.000
    H55      H        0.02370    0.15150    0.79190    1.000
    O74      O        0.08390    0.58660    0.58700    1.000
    O75      O        0.01770    0.46280    0.64660    1.000
    O76      O        0.26060    0.81890    0.80030    1.000
    H56      H        0.29690    0.81130    0.80060    1.000
    O77      O        0.26990    0.68520    0.70910    1.000
    O78      O        0.06000    0.23460    0.48090    1.000
    O79      O        0.05850    0.88390    0.47320    1.000
    O80      O        0.11680    0.07740    0.39740    1.000
    H57      H        0.09000    0.12030    0.37600    1.000
    O81      O        0.25500    0.17320    0.68980    1.000
    H58      H        0.25050    0.15600    0.72620    1.000
    O82      O        0.15790    0.20570    0.68640    1.000
    O83      O        0.32380    0.92610    0.43230    1.000
    H59      H        0.35840    0.91600    0.42130    1.000
    O84      O        0.36540    0.95080    0.52140    1.000
    C73      C        0.15030    0.44020    0.98130    1.000
    C74      C        0.14820    0.39210    0.92140    1.000
    H60      H        0.11270    0.35500    0.90380    1.000
    C75      C        0.19900    0.39870    0.88750    1.000
    C76      C        0.19950    0.33800    0.82420    1.000
    C77      C        0.25150    0.45000    0.91360    1.000
    H61      H        0.28590    0.45090    0.89060    1.000
    C78      C        0.25380    0.49980    0.97290    1.000
    C79      C        0.31040    0.55170    0.99890    1.000
    C80      C        0.20250    0.49600    0.00620    1.000
    H62      H        0.20360    0.53260    0.04660    1.000
    C81      C        0.08070    0.81900    0.78580    1.000
    C82      C        0.05590    0.73600    0.73600    1.000
    H63      H        0.01490    0.72950    0.73280    1.000
    C83      C        0.08960    0.66300    0.69150    1.000
    C84      C        0.05840    0.56900    0.63840    1.000
    C85      C        0.14920    0.67290    0.69460    1.000
    H64      H        0.17250    0.62650    0.66310    1.000
    C86      C        0.17550    0.75600    0.74680    1.000
    C87      C        0.24040    0.74800    0.74980    1.000
    C88      C        0.14060    0.82500    0.79030    1.000
    H65      H        0.15770    0.87740    0.82490    1.000
    C89      C        0.16070    0.05410    0.50470    1.000
    C90      C        0.15880    0.09810    0.56450    1.000
    H66      H        0.12240    0.12760    0.58180    1.000
    C91      C        0.20800    0.10100    0.60010    1.000
    C92      C        0.20460    0.16600    0.66320    1.000
    C93      C        0.26070    0.04890    0.57490    1.000
    H67      H        0.29460    0.04600    0.59870    1.000
    C94      C        0.26440    0.00080    0.51480    1.000
    C95      C        0.32210    0.95730    0.49130    1.000
    C96      C        0.21410    0.00750    0.48030    1.000
    H68      H        0.21660    0.97950    0.43930    1.000
