# CIF file generated by openbabel 3.1.0, see https://openbabel.org
data_I
_chemical_name_common 'image0'
_cell_length_a 6.5685
_cell_length_b 16.4032
_cell_length_c 13.1796
_cell_angle_alpha 90
_cell_angle_beta 90
_cell_angle_gamma 90
_space_group_name_H-M_alt 'P 1'
_space_group_name_Hall 'P 1'
loop_
    _symmetry_equiv_pos_as_xyz
    x,y,z
loop_
    _atom_site_label
    _atom_site_type_symbol
    _atom_site_fract_x
    _atom_site_fract_y
    _atom_site_fract_z
    _atom_site_occupancy
    O1       O        0.17030    0.16798    0.83950    1.000
    C1       C        0.80510    0.02940    0.95770    1.000
    O2       O        0.67030    0.66798    0.33950    1.000
    C2       C        0.30510    0.52940    0.45770    1.000
    O3       O        0.82970    0.33202    0.83950    1.000
    C3       C        0.19490    0.47060    0.95770    1.000
    O4       O        0.32970    0.83202    0.33950    1.000
    C4       C        0.69490    0.97060    0.45770    1.000
    O5       O        0.82970    0.66798    0.16050    1.000
    C5       C        0.19490    0.52940    0.04230    1.000
    O6       O        0.32970    0.16798    0.66050    1.000
    C6       C        0.69490    0.02940    0.54230    1.000
    O7       O        0.17030    0.83202    0.16050    1.000
    C7       C        0.80510    0.97060    0.04230    1.000
    O8       O        0.67030    0.33202    0.66050    1.000
    C8       C        0.30510    0.47060    0.54230    1.000
    O9       O        0.82970    0.83202    0.16050    1.000
    C9       C        0.19490    0.97060    0.04230    1.000
    O10      O        0.32970    0.33202    0.66050    1.000
    C10      C        0.69490    0.47060    0.54230    1.000
    O11      O        0.17030    0.66798    0.16050    1.000
    C11      C        0.80510    0.52940    0.04230    1.000
    O12      O        0.67030    0.16798    0.66050    1.000
    C12      C        0.30510    0.02940    0.54230    1.000
    O13      O        0.17030    0.33202    0.83950    1.000
    C13      C        0.80510    0.47060    0.95770    1.000
    O14      O        0.67030    0.83202    0.33950    1.000
    C14      C        0.30510    0.97060    0.45770    1.000
    O15      O        0.82970    0.16798    0.83950    1.000
    C15      C        0.19490    0.02940    0.95770    1.000
    O16      O        0.32970    0.66798    0.33950    1.000
    C16      C        0.69490    0.52940    0.45770    1.000
    Al1      Al       0.25000    0.25000    0.75000    1.000
    Al2      Al       0.75000    0.25000    0.75000    1.000
    Al3      Al       0.75000    0.75000    0.25000    1.000
    Al4      Al       0.25000    0.75000    0.25000    1.000
    F1       F        0.00000    0.25000    0.69460    1.000
    F2       F        0.50000    0.75000    0.19460    1.000
    F3       F        0.00000    0.75000    0.30540    1.000
    F4       F        0.50000    0.25000    0.80540    1.000
    C17      C        0.00000    0.06320    0.94390    1.000
    C18      C        0.00000    0.13880    0.86860    1.000
    C19      C        0.50000    0.56320    0.44390    1.000
    C20      C        0.50000    0.63880    0.36860    1.000
    C21      C        0.00000    0.43680    0.94390    1.000
    C22      C        0.00000    0.36120    0.86860    1.000
    C23      C        0.50000    0.93680    0.44390    1.000
    C24      C        0.50000    0.86120    0.36860    1.000
    C25      C        0.00000    0.56320    0.05610    1.000
    C26      C        0.00000    0.63880    0.13140    1.000
    C27      C        0.50000    0.06320    0.55610    1.000
    C28      C        0.50000    0.13880    0.63140    1.000
    C29      C        0.00000    0.93680    0.05610    1.000
    C30      C        0.00000    0.86120    0.13140    1.000
    C31      C        0.50000    0.43680    0.55610    1.000
    C32      C        0.50000    0.36120    0.63140    1.000
