# CIF file generated by openbabel 3.1.0, see https://openbabel.org
data_I
_chemical_name_common 'image0'
_cell_length_a 10.587
_cell_length_b 11.487
_cell_length_c 13.372
_cell_angle_alpha 69.301
_cell_angle_beta 79.25
_cell_angle_gamma 63.14
_space_group_name_H-M_alt 'P 1'
_space_group_name_Hall 'P 1'
loop_
    _symmetry_equiv_pos_as_xyz
    x,y,z
loop_
    _atom_site_label
    _atom_site_type_symbol
    _atom_site_fract_x
    _atom_site_fract_y
    _atom_site_fract_z
    _atom_site_occupancy
    U1       U        0.62533    0.71279    0.83466    1.000
    Gd1      Gd       0.60381    0.22774    0.75457    1.000
    C1       C        0.00180    0.34220    0.84990    1.000
    C2       C        0.11340    0.31320    0.90640    1.000
    H1       H        0.09740    0.36100    0.95430    1.000
    C3       C        0.24750    0.21690    0.89550    1.000
    C4       C        0.26930    0.14130    0.82630    1.000
    C5       C        0.15250    0.16360    0.77680    1.000
    H2       H        0.16450    0.10740    0.73670    1.000
    C6       C        0.01940    0.26570    0.78450    1.000
    C7       C        0.62380    0.99980    0.44980    1.000
    H3       H        0.70930    0.99890    0.41620    1.000
    C8       C        0.61530    0.87580    0.50370    1.000
    C9       C        0.49020    0.87520    0.55580    1.000
    C10      C        0.86420    0.46450    0.85340    1.000
    C11      C        0.36030    0.19690    0.95710    1.000
    C12      C        0.41000    0.03730    0.80310    1.000
    C13      C        0.90010    0.29140    0.72410    1.000
    C14      C        0.46860    0.74970    0.61940    1.000
    C15      C        0.74310    0.74570    0.50340    1.000
    O1       O        0.85250    0.53570    0.90960    1.000
    O2       O        0.76390    0.49570    0.79890    1.000
    O3       O        0.82480    0.22950    0.76750    1.000
    O4       O        0.88930    0.36400    0.62540    1.000
    O5       O        0.41920    0.91790    0.82330    1.000
    O6       O        0.50760    0.07120    0.76210    1.000
    O7       O        0.47940    0.17970    0.92010    1.000
    O8       O        0.32240    0.20040    0.05370    1.000
    O9       O        0.50380    0.69660    0.71630    1.000
    O10      O        0.41420    0.70450    0.57770    1.000
    O11      O        0.73290    0.63460    0.53230    1.000
    O12      O        0.86100    0.74820    0.47700    1.000
    U2       U        0.37467    0.28721    0.16534    1.000
    Gd2      Gd       0.39619    0.77226    0.24543    1.000
    C16      C        0.99820    0.65780    0.15010    1.000
    C17      C        0.88660    0.68680    0.09360    1.000
    H4       H        0.90260    0.63900    0.04570    1.000
    C18      C        0.75250    0.78310    0.10450    1.000
    C19      C        0.73070    0.85870    0.17370    1.000
    C20      C        0.84750    0.83640    0.22320    1.000
    H5       H        0.83550    0.89260    0.26330    1.000
    C21      C        0.98060    0.73430    0.21550    1.000
    C22      C        0.37620    0.00020    0.55020    1.000
    H6       H        0.29070    0.00110    0.58380    1.000
    C23      C        0.38470    0.12420    0.49630    1.000
    C24      C        0.50980    0.12480    0.44420    1.000
    C25      C        0.13580    0.53550    0.14660    1.000
    C26      C        0.63970    0.80310    0.04290    1.000
    C27      C        0.59000    0.96270    0.19690    1.000
    C28      C        0.09990    0.70860    0.27590    1.000
    C29      C        0.53140    0.25030    0.38060    1.000
    C30      C        0.25690    0.25430    0.49660    1.000
    O13      O        0.14750    0.46430    0.09040    1.000
    O14      O        0.23610    0.50430    0.20110    1.000
    O15      O        0.17520    0.77050    0.23250    1.000
    O16      O        0.11070    0.63600    0.37460    1.000
    O17      O        0.58080    0.08210    0.17670    1.000
    O18      O        0.49240    0.92880    0.23790    1.000
    O19      O        0.52060    0.82030    0.07990    1.000
    O20      O        0.67760    0.79960    0.94630    1.000
    O21      O        0.49620    0.30340    0.28370    1.000
    O22      O        0.58580    0.29550    0.42230    1.000
    O23      O        0.26710    0.36540    0.46770    1.000
    O24      O        0.13900    0.25180    0.52300    1.000
    U3       U        0.00000    0.50000    0.50000    1.000
