data_functionalizedCrystal
_audit_creation_method	'EQeq! by Chris Wilmer'
_symmetry_space_group_name_H-M	'P1'
_symmetry_Int_Tables_number	1
_symmetry_cell_setting	triclinic
loop_
_symmetry_equiv_pos_as_xyz
  x,y,z
_cell_length_a	18.698
_cell_length_b	19.292
_cell_length_c	19.383
_cell_angle_alpha	90
_cell_angle_beta	91.045
_cell_angle_gamma	90
loop_
_atom_site_label
_atom_site_type_symbol
_atom_site_fract_x
_atom_site_fract_y
_atom_site_fract_z
_atom_site_charge
Mof_O 	O 	0.1807	0.0382	0.582	-0.391
Mof_O 	O 	0.2763	0.0019	0.6421	-0.297
Mof_C 	C 	0.2124	0.0162	0.6408	0.29
Mof_C 	C 	0.1674	0.006	0.7021	-0.069
Mof_C 	C 	0.0928	0.0042	0.6917	-0.044
Mof_H 	H 	0.0729	0.0115	0.648	0.042
Mof_Fe	Fe	0.72948	0.98591	0.47907	0.87
Mof_Fe	Fe	0.22984	0.52276	0.51696	0.864
Mof_Fe	Fe	0.86962	0.86663	0.45568	0.64
Mof_Fe	Fe	0.36756	0.55582	0.63798	0.642
Mof_O 	O 	0.7786	0.9724	0.5714	-0.369
Mof_O 	O 	0.731	0.0269	0.8197	-0.365
Mof_O 	O 	0.8243	0.023	0.894	-0.366
Mof_O 	O 	0.3201	0.5846	0.5381	-0.402
Mof_O 	O 	0.2244	0.6423	0.5021	-0.292
Mof_O 	O 	0.7704	0.821	0.4795	-0.374
Mof_O 	O 	0.1452	0.991	0.9454	-0.315
Mof_O 	O 	0.7185	0.5699	0.4603	-0.377
Mof_O 	O 	0.2578	0.903	0.5213	-0.31
Mof_O 	O 	0.6775	0.8954	0.4795	-0.377
Mof_O 	O 	0.2522	0.9774	0.9028	-0.296
Mof_O 	O 	0.6171	0.5432	0.4037	-0.354
Mof_O 	O 	0.8807	0.9141	0.5517	-0.353
Mof_O 	O 	0.3607	0.9484	0.4903	-0.301
Mof_C 	C 	0.2906	0.6408	0.5155	0.301
Mof_C 	C 	0.4526	0.7475	0.4796	0.011
Mof_C 	C 	0.8669	0.9703	0.6594	-0.093
Mof_C 	C 	0.9677	0.9867	0.7371	-0.004
Mof_C 	C 	0.8476	0.0052	0.7766	-0.089
Mof_C 	C 	0.6303	0.6557	0.4503	-0.092
Mof_C 	C 	0.8212	0.9883	0.711	0.032
Mof_H 	H 	0.7721	0.9892	0.7022	0.045
Mof_C 	C 	0.3507	0.8251	0.4956	-0.051
Mof_C 	C 	0.6541	0.7763	0.4719	-0.087
Mof_C 	C 	0.0795	0.9882	0.8143	-0.045
Mof_H 	H 	0.0503	0.9851	0.8525	0.069
Mof_C 	C 	0.8396	0.9515	0.5891	0.363
Mof_C 	C 	0.7067	0.8367	0.4779	0.382
Mof_C 	C 	0.5319	0.7354	0.4694	-0.003
Mof_C 	C 	0.4063	0.6938	0.4932	-0.033
Mof_H 	H 	0.4251	0.6492	0.4946	0.045
Mof_C 	C 	0.3362	0.7012	0.5045	-0.076
Mof_C 	C 	0.1857	0.9842	0.8942	0.292
Mof_C 	C 	0.5806	0.7883	0.4775	-0.02
Mof_H 	H 	0.5644	0.8329	0.4868	0.059
Mof_C 	C 	0.9416	0.9683	0.674	-0.021
Mof_H 	H 	0.9728	0.9543	0.64	0.048
Mof_C 	C 	0.1544	0.9899	0.8244	-0.053
Mof_C 	C 	0.3078	0.7688	0.505	-0
Mof_H 	H 	0.2592	0.7752	0.5119	0.06
Mof_C 	C 	0.0484	0.991	0.7487	0.019
Mof_C 	C 	0.7961	0.0202	0.8342	0.366
Mof_C 	C 	0.6789	0.71	0.4605	0.028
Mof_H 	H 	0.7278	0.7014	0.4595	0.043
Mof_C 	C 	0.9209	0.0047	0.7883	-0.019
Mof_H 	H 	0.9389	0.0168	0.8316	0.056
Mof_C 	C 	0.4218	0.8147	0.4822	-0.044
Mof_H 	H 	0.4508	0.8531	0.4746	0.065
Mof_C 	C 	0.557	0.6686	0.4535	-0.018
Mof_H 	H 	0.5246	0.6329	0.4452	0.047
Mof_C 	C 	0.3217	0.8962	0.5021	0.283
Mof_C 	C 	0.6595	0.584	0.4373	0.379
Mof_C 	C 	0.1966	0.9978	0.7655	0.002
Mof_H 	H 	0.2461	0.9973	0.7706	0.059
Mof_O 	O 	0.8193	0.5382	0.918	-0.39
Mof_O 	O 	0.7237	0.5019	0.8579	-0.296
Mof_C 	C 	0.7876	0.5162	0.8592	0.29
Mof_C 	C 	0.8326	0.506	0.7979	-0.069
Mof_C 	C 	0.9072	0.5042	0.8083	-0.039
Mof_H 	H 	0.9271	0.5115	0.852	0.04
Mof_Fe	Fe	0.27052	0.48591	0.02093	0.869
Mof_Fe	Fe	0.77016	0.02276	0.98304	0.86
Mof_Fe	Fe	0.13038	0.36663	0.04432	0.639
Mof_Fe	Fe	0.63244	0.05582	0.86202	0.64
Mof_O 	O 	0.2214	0.4724	0.9286	-0.368
Mof_O 	O 	0.269	0.5269	0.6803	-0.364
Mof_O 	O 	0.1757	0.523	0.606	-0.365
Mof_O 	O 	0.6799	0.0846	0.9619	-0.403
Mof_O 	O 	0.7756	0.1423	0.9979	-0.294
Mof_O 	O 	0.2296	0.321	0.0205	-0.374
Mof_O 	O 	0.8548	0.491	0.5546	-0.319
Mof_O 	O 	0.2815	0.0699	0.0397	-0.375
Mof_O 	O 	0.7422	0.403	0.9787	-0.309
Mof_O 	O 	0.3225	0.3954	0.0205	-0.377
Mof_O 	O 	0.7478	0.4774	0.5972	-0.298
Mof_O 	O 	0.3829	0.0432	0.0963	-0.352
Mof_O 	O 	0.1193	0.4141	0.9483	-0.352
Mof_O 	O 	0.6393	0.4484	0.0097	-0.299
Mof_C 	C 	0.7094	0.1408	0.9845	0.302
Mof_C 	C 	0.5474	0.2475	0.0204	0.011
Mof_C 	C 	0.1331	0.4703	0.8406	-0.091
Mof_C 	C 	0.0323	0.4867	0.7629	0.001
Mof_C 	C 	0.1524	0.5052	0.7234	-0.086
Mof_C 	C 	0.3697	0.1557	0.0497	-0.092
Mof_C 	C 	0.1788	0.4883	0.789	0.028
Mof_H 	H 	0.2279	0.4892	0.7978	0.046
Mof_C 	C 	0.6493	0.3251	0.0044	-0.046
Mof_C 	C 	0.3459	0.2763	0.0281	-0.087
Mof_C 	C 	0.9205	0.4882	0.6857	-0.043
Mof_H 	H 	0.9497	0.4851	0.6475	0.066
Mof_C 	C 	0.1604	0.4515	0.9109	0.362
Mof_C 	C 	0.2933	0.3367	0.0221	0.382
Mof_C 	C 	0.4681	0.2354	0.0306	-0.002
Mof_C 	C 	0.5937	0.1938	0.0068	-0.03
Mof_H 	H 	0.5749	0.1492	0.0054	0.045
Mof_C 	C 	0.6638	0.2012	0.9955	-0.079
Mof_C 	C 	0.8143	0.4842	0.6058	0.293
Mof_C 	C 	0.4194	0.2883	0.0225	-0.02
Mof_H 	H 	0.4356	0.3329	0.0132	0.059
Mof_C 	C 	0.0584	0.4683	0.826	-0.024
Mof_H 	H 	0.0272	0.4543	0.86	0.05
Mof_C 	C 	0.8456	0.4899	0.6756	-0.055
Mof_C 	C 	0.6922	0.2688	0.995	-0.003
Mof_H 	H 	0.7408	0.2752	0.9881	0.06
Mof_C 	C 	0.9516	0.491	0.7513	0.012
Mof_C 	C 	0.2039	0.5202	0.6658	0.365
Mof_C 	C 	0.3211	0.21	0.0395	0.028
Mof_H 	H 	0.2722	0.2014	0.0405	0.043
Mof_C 	C 	0.0791	0.5047	0.7117	-0.022
Mof_H 	H 	0.0611	0.5168	0.6684	0.058
Mof_C 	C 	0.5782	0.3147	0.0178	-0.045
Mof_H 	H 	0.5492	0.3531	0.0254	0.066
Mof_C 	C 	0.443	0.1686	0.0465	-0.018
Mof_H 	H 	0.4754	0.1329	0.0548	0.048
Mof_C 	C 	0.6783	0.3962	0.9979	0.28
Mof_C 	C 	0.3405	0.084	0.0627	0.379
Mof_C 	C 	0.8034	0.4978	0.7345	0.002
Mof_H 	H 	0.7539	0.4973	0.7294	0.059
Mof_O 	O 	0.8193	0.9618	0.418	-0.39
Mof_O 	O 	0.7237	0.9981	0.3579	-0.296
Mof_C 	C 	0.7876	0.9838	0.3592	0.29
Mof_C 	C 	0.8326	0.994	0.2979	-0.069
Mof_C 	C 	0.9072	0.9958	0.3083	-0.044
Mof_H 	H 	0.9271	0.9885	0.352	0.042
Mof_Fe	Fe	0.27052	0.01409	0.52093	0.87
Mof_Fe	Fe	0.77016	0.47724	0.48304	0.864
Mof_Fe	Fe	0.13038	0.13337	0.54432	0.64
Mof_Fe	Fe	0.63244	0.44418	0.36202	0.642
Mof_O 	O 	0.2214	0.0276	0.4286	-0.369
Mof_O 	O 	0.269	0.9731	0.1803	-0.365
Mof_O 	O 	0.1757	0.977	0.106	-0.366
Mof_O 	O 	0.6799	0.4154	0.4619	-0.402
Mof_O 	O 	0.7756	0.3577	0.4979	-0.292
Mof_O 	O 	0.2296	0.179	0.5205	-0.374
Mof_O 	O 	0.8548	0.009	0.0546	-0.315
Mof_O 	O 	0.2815	0.4301	0.5397	-0.377
Mof_O 	O 	0.7422	0.097	0.4787	-0.31
Mof_O 	O 	0.3225	0.1046	0.5205	-0.377
Mof_O 	O 	0.7478	0.0226	0.0972	-0.296
Mof_O 	O 	0.3829	0.4568	0.5963	-0.354
Mof_O 	O 	0.1193	0.0859	0.4483	-0.353
Mof_O 	O 	0.6393	0.0516	0.5097	-0.301
Mof_C 	C 	0.7094	0.3592	0.4845	0.301
Mof_C 	C 	0.5474	0.2525	0.5204	0.011
Mof_C 	C 	0.1331	0.0297	0.3406	-0.093
Mof_C 	C 	0.0323	0.0133	0.2629	-0.004
Mof_C 	C 	0.1524	0.9948	0.2234	-0.089
Mof_C 	C 	0.3697	0.3443	0.5497	-0.092
Mof_C 	C 	0.1788	0.0117	0.289	0.032
Mof_H 	H 	0.2279	0.0108	0.2978	0.045
Mof_C 	C 	0.6493	0.1749	0.5044	-0.051
Mof_C 	C 	0.3459	0.2237	0.5281	-0.087
Mof_C 	C 	0.9205	0.0118	0.1857	-0.045
Mof_H 	H 	0.9497	0.0149	0.1475	0.069
Mof_C 	C 	0.1604	0.0485	0.4109	0.363
Mof_C 	C 	0.2933	0.1633	0.5221	0.382
Mof_C 	C 	0.4681	0.2646	0.5306	-0.003
Mof_C 	C 	0.5937	0.3062	0.5068	-0.033
Mof_H 	H 	0.5749	0.3508	0.5054	0.045
Mof_C 	C 	0.6638	0.2988	0.4955	-0.076
Mof_C 	C 	0.8143	0.0158	0.1058	0.292
Mof_C 	C 	0.4194	0.2117	0.5225	-0.02
Mof_H 	H 	0.4356	0.1671	0.5132	0.059
Mof_C 	C 	0.0584	0.0317	0.326	-0.021
Mof_H 	H 	0.0272	0.0457	0.36	0.048
Mof_C 	C 	0.8456	0.0101	0.1756	-0.053
Mof_C 	C 	0.6922	0.2312	0.495	-0
Mof_H 	H 	0.7408	0.2248	0.4881	0.06
Mof_C 	C 	0.9516	0.009	0.2513	0.019
Mof_C 	C 	0.2039	0.9798	0.1658	0.366
Mof_C 	C 	0.3211	0.29	0.5395	0.028
Mof_H 	H 	0.2722	0.2986	0.5405	0.043
Mof_C 	C 	0.0791	0.9953	0.2117	-0.019
Mof_H 	H 	0.0611	0.9832	0.1684	0.056
Mof_C 	C 	0.5782	0.1853	0.5178	-0.044
Mof_H 	H 	0.5492	0.1469	0.5254	0.065
Mof_C 	C 	0.443	0.3314	0.5465	-0.018
Mof_H 	H 	0.4754	0.3671	0.5548	0.047
Mof_C 	C 	0.6783	0.1038	0.4979	0.283
Mof_C 	C 	0.3405	0.416	0.5627	0.379
Mof_C 	C 	0.8034	0.0022	0.2345	0.002
Mof_H 	H 	0.7539	0.0027	0.2294	0.059
Mof_O 	O 	0.1807	0.4618	0.082	-0.39
Mof_O 	O 	0.2763	0.4981	0.1421	-0.296
Mof_C 	C 	0.2124	0.4838	0.1408	0.29
Mof_C 	C 	0.1674	0.494	0.2021	-0.069
Mof_C 	C 	0.0928	0.4958	0.1917	-0.039
Mof_H 	H 	0.0729	0.4885	0.148	0.04
Mof_Fe	Fe	0.72948	0.51409	0.97907	0.869
Mof_Fe	Fe	0.22984	0.97724	0.01696	0.86
Mof_Fe	Fe	0.86962	0.63337	0.95568	0.639
Mof_Fe	Fe	0.36756	0.94418	0.13798	0.64
Mof_O 	O 	0.7786	0.5276	0.0714	-0.368
Mof_O 	O 	0.731	0.4731	0.3197	-0.364
Mof_O 	O 	0.8243	0.477	0.394	-0.365
Mof_O 	O 	0.3201	0.9154	0.0381	-0.403
Mof_O 	O 	0.2244	0.8577	0.0021	-0.294
Mof_O 	O 	0.7704	0.679	0.9795	-0.374
Mof_O 	O 	0.1452	0.509	0.4454	-0.319
Mof_O 	O 	0.7185	0.9301	0.9603	-0.375
Mof_O 	O 	0.2578	0.597	0.0213	-0.309
Mof_O 	O 	0.6775	0.6046	0.9795	-0.377
Mof_O 	O 	0.2522	0.5226	0.4028	-0.298
Mof_O 	O 	0.6171	0.9568	0.9037	-0.352
Mof_O 	O 	0.8807	0.5859	0.0517	-0.352
Mof_O 	O 	0.3607	0.5516	0.9903	-0.299
Mof_C 	C 	0.2906	0.8592	0.0155	0.302
Mof_C 	C 	0.4526	0.7525	0.9796	0.011
Mof_C 	C 	0.8669	0.5297	0.1594	-0.091
Mof_C 	C 	0.9677	0.5133	0.2371	0.001
Mof_C 	C 	0.8476	0.4948	0.2766	-0.086
Mof_C 	C 	0.6303	0.8443	0.9503	-0.092
Mof_C 	C 	0.8212	0.5117	0.211	0.028
Mof_H 	H 	0.7721	0.5108	0.2022	0.046
Mof_C 	C 	0.3507	0.6749	0.9956	-0.046
Mof_C 	C 	0.6541	0.7237	0.9719	-0.087
Mof_C 	C 	0.0795	0.5118	0.3143	-0.043
Mof_H 	H 	0.0503	0.5149	0.3525	0.066
Mof_C 	C 	0.8396	0.5485	0.0891	0.362
Mof_C 	C 	0.7067	0.6633	0.9779	0.382
Mof_C 	C 	0.5319	0.7646	0.9694	-0.002
Mof_C 	C 	0.4063	0.8062	0.9932	-0.03
Mof_H 	H 	0.4251	0.8508	0.9946	0.045
Mof_C 	C 	0.3362	0.7988	0.0045	-0.079
Mof_C 	C 	0.1857	0.5158	0.3942	0.293
Mof_C 	C 	0.5806	0.7117	0.9775	-0.02
Mof_H 	H 	0.5644	0.6671	0.9868	0.059
Mof_C 	C 	0.9416	0.5317	0.174	-0.024
Mof_H 	H 	0.9728	0.5457	0.14	0.05
Mof_C 	C 	0.1544	0.5101	0.3244	-0.055
Mof_C 	C 	0.3078	0.7312	0.005	-0.003
Mof_H 	H 	0.2592	0.7248	0.0119	0.06
Mof_C 	C 	0.0484	0.509	0.2487	0.012
Mof_C 	C 	0.7961	0.4798	0.3342	0.365
Mof_C 	C 	0.6789	0.79	0.9605	0.028
Mof_H 	H 	0.7278	0.7986	0.9595	0.043
Mof_C 	C 	0.9209	0.4953	0.2883	-0.022
Mof_H 	H 	0.9389	0.4832	0.3316	0.058
Mof_C 	C 	0.4218	0.6853	0.9822	-0.045
Mof_H 	H 	0.4508	0.6469	0.9746	0.066
Mof_C 	C 	0.557	0.8314	0.9535	-0.018
Mof_H 	H 	0.5246	0.8671	0.9452	0.048
Mof_C 	C 	0.3217	0.6038	0.0021	0.28
Mof_C 	C 	0.6595	0.916	0.9373	0.379
Mof_C 	C 	0.1966	0.5022	0.2655	0.002
Mof_H 	H 	0.2461	0.5027	0.2706	0.059
_end
