# CIF file generated by openbabel 3.1.0, see https://openbabel.org
data_I
_chemical_name_common 'MEJQOJ_clean'
_cell_length_a 8.9454
_cell_length_b 10.6981
_cell_length_c 18.4474
_cell_angle_alpha 90
_cell_angle_beta 90
_cell_angle_gamma 90
_space_group_name_H-M_alt 'P 1'
_space_group_name_Hall 'P 1'
loop_
    _symmetry_equiv_pos_as_xyz
    x,y,z
loop_
    _atom_site_label
    _atom_site_type_symbol
    _atom_site_fract_x
    _atom_site_fract_y
    _atom_site_fract_z
    _atom_site_occupancy
    Zn1      Zn       0.13167    0.01460    0.60247    1.000
    Zn2      Zn       0.63167    0.98540    0.39753    1.000
    Zn3      Zn       0.13167    0.48540    0.10247    1.000
    Zn4      Zn       0.63167    0.51460    0.89753    1.000
    H1       H        0.82700    0.95800    0.52800    1.000
    H2       H        0.23620    0.35860    0.40310    1.000
    H3       H        0.84250    0.30020    0.27170    1.000
    H4       H        0.75170    0.20110    0.30740    1.000
    H5       H        0.96320    0.67440    0.70620    1.000
    H6       H        0.85120    0.53100    0.78020    1.000
    H7       H        0.58770    0.78610    0.86030    1.000
    H8       H        0.69420    0.93700    0.78890    1.000
    H9       H        0.32700    0.04200    0.47200    1.000
    H10      H        0.73620    0.64140    0.59690    1.000
    H11      H        0.34250    0.69980    0.72830    1.000
    H12      H        0.25170    0.79890    0.69260    1.000
    H13      H        0.46320    0.32560    0.29380    1.000
    H14      H        0.35120    0.46900    0.21980    1.000
    H15      H        0.08770    0.21390    0.13970    1.000
    H16      H        0.19420    0.06300    0.21110    1.000
    H17      H        0.82700    0.54200    0.02800    1.000
    H18      H        0.23620    0.14140    0.90310    1.000
    H19      H        0.84250    0.19980    0.77170    1.000
    H20      H        0.75170    0.29890    0.80740    1.000
    H21      H        0.96320    0.82560    0.20620    1.000
    H22      H        0.85120    0.96900    0.28020    1.000
    H23      H        0.58770    0.71390    0.36030    1.000
    H24      H        0.69420    0.56300    0.28890    1.000
    H25      H        0.32700    0.45800    0.97200    1.000
    H26      H        0.73620    0.85860    0.09690    1.000
    H27      H        0.34250    0.80020    0.22830    1.000
    H28      H        0.25170    0.70110    0.19260    1.000
    H29      H        0.46320    0.17440    0.79380    1.000
    H30      H        0.35120    0.03100    0.71980    1.000
    H31      H        0.08770    0.28610    0.63970    1.000
    H32      H        0.19420    0.43700    0.71110    1.000
    C1       C        0.87450    0.01980    0.50100    1.000
    C2       C        0.15580    0.30410    0.40790    1.000
    C3       C        0.93310    0.23800    0.35900    1.000
    C4       C        0.92200    0.15360    0.41840    1.000
    C5       C        0.03570    0.15640    0.46840    1.000
    C6       C        0.92070    0.92230    0.69480    1.000
    C7       C        0.88860    0.69990    0.73810    1.000
    C8       C        0.84750    0.82220    0.74060    1.000
    C9       C        0.82050    0.61390    0.78240    1.000
    C10      C        0.66580    0.76410    0.82950    1.000
    C11      C        0.72900    0.85510    0.78710    1.000
    C12      C        0.37450    0.98020    0.49900    1.000
    C13      C        0.65580    0.69590    0.59210    1.000
    C14      C        0.43310    0.76200    0.64100    1.000
    C15      C        0.42200    0.84640    0.58160    1.000
    C16      C        0.53570    0.84360    0.53160    1.000
    C17      C        0.42070    0.07770    0.30520    1.000
    C18      C        0.38860    0.30010    0.26190    1.000
    C19      C        0.34750    0.17780    0.25940    1.000
    C20      C        0.32050    0.38610    0.21760    1.000
    C21      C        0.16580    0.23590    0.17050    1.000
    C22      C        0.22900    0.14490    0.21290    1.000
    C23      C        0.87450    0.48020    0.00100    1.000
    C24      C        0.15580    0.19590    0.90790    1.000
    C25      C        0.93310    0.26200    0.85900    1.000
    C26      C        0.92200    0.34640    0.91840    1.000
    C27      C        0.03570    0.34360    0.96840    1.000
    C28      C        0.92070    0.57770    0.19480    1.000
    C29      C        0.88860    0.80010    0.23810    1.000
    C30      C        0.84750    0.67780    0.24060    1.000
    C31      C        0.82050    0.88610    0.28240    1.000
    C32      C        0.66580    0.73590    0.32950    1.000
    C33      C        0.72900    0.64490    0.28710    1.000
    C34      C        0.37450    0.51980    0.99900    1.000
    C35      C        0.65580    0.80410    0.09210    1.000
    C36      C        0.43310    0.73800    0.14100    1.000
    C37      C        0.42200    0.65360    0.08160    1.000
    C38      C        0.53570    0.65640    0.03160    1.000
    C39      C        0.42070    0.42230    0.80520    1.000
    C40      C        0.38860    0.19990    0.76190    1.000
    C41      C        0.34750    0.32220    0.75940    1.000
    C42      C        0.32050    0.11390    0.71760    1.000
    C43      C        0.16580    0.26410    0.67050    1.000
    C44      C        0.22900    0.35510    0.71290    1.000
    N1       N        0.00610    0.07080    0.52160    1.000
    N2       N        0.16070    0.23080    0.46570    1.000
    N3       N        0.81760    0.06430    0.43940    1.000
    N4       N        0.05270    0.31210    0.35500    1.000
    N5       N        0.83010    0.24760    0.30640    1.000
    N6       N        0.71150    0.64530    0.82870    1.000
    N7       N        0.50610    0.92920    0.47840    1.000
    N8       N        0.66070    0.76920    0.53430    1.000
    N9       N        0.31760    0.93570    0.56060    1.000
    N10      N        0.55270    0.68790    0.64500    1.000
    N11      N        0.33010    0.75240    0.69360    1.000
    N12      N        0.21150    0.35470    0.17130    1.000
    N13      N        0.00610    0.42920    0.02160    1.000
    N14      N        0.16070    0.26920    0.96570    1.000
    N15      N        0.81760    0.43570    0.93940    1.000
    N16      N        0.05270    0.18790    0.85500    1.000
    N17      N        0.83010    0.25240    0.80640    1.000
    N18      N        0.71150    0.85470    0.32870    1.000
    N19      N        0.50610    0.57080    0.97840    1.000
    N20      N        0.66070    0.73080    0.03430    1.000
    N21      N        0.31760    0.56430    0.06060    1.000
    N22      N        0.55270    0.81210    0.14500    1.000
    N23      N        0.33010    0.74760    0.19360    1.000
    N24      N        0.21150    0.14530    0.67130    1.000
    O1       O        0.03860    0.88360    0.66108    1.000
    O2       O        0.87120    0.02740    0.69190    1.000
    O3       O        0.53860    0.11640    0.33892    1.000
    O4       O        0.37120    0.97260    0.30810    1.000
    O5       O        0.03860    0.61640    0.16108    1.000
    O6       O        0.87120    0.47260    0.19190    1.000
    O7       O        0.53860    0.38360    0.83892    1.000
    O8       O        0.37120    0.52740    0.80810    1.000
