# CIF file generated by openbabel 3.1.0, see https://openbabel.org
data_I
_chemical_name_common 'image0'
_cell_length_a 21.336
_cell_length_b 23.766
_cell_length_c 15.808
_cell_angle_alpha 90
_cell_angle_beta 101.568
_cell_angle_gamma 90
_space_group_name_H-M_alt 'P 1'
_space_group_name_Hall 'P 1'
loop_
    _symmetry_equiv_pos_as_xyz
    x,y,z
loop_
    _atom_site_label
    _atom_site_type_symbol
    _atom_site_fract_x
    _atom_site_fract_y
    _atom_site_fract_z
    _atom_site_occupancy
    Zn1      Zn       0.95006    0.98967    0.26580    1.000
    Zn2      Zn       0.02913    0.00973    0.13147    1.000
    O1       O        0.00850    0.03990    0.34740    1.000
    O2       O        0.06350    0.05470    0.24280    1.000
    O3       O        0.40880    0.44130    0.70410    1.000
    O4       O        0.46390    0.42720    0.59690    1.000
    O5       O        0.00720    0.92260    0.29250    1.000
    O6       O        0.06600    0.93600    0.19200    1.000
    O7       O        0.41540    0.55000    0.64830    1.000
    O8       O        0.46990    0.53730    0.54230    1.000
    N1       N        0.22930    0.21060    0.52650    1.000
    N2       N        0.26740    0.22940    0.50240    1.000
    N3       N        0.20700    0.72470    0.39900    1.000
    N4       N        0.26440    0.71870    0.36620    1.000
    C1       C        0.05200    0.06030    0.31780    1.000
    C2       C        0.09500    0.10290    0.37670    1.000
    C3       C        0.09240    0.10960    0.46330    1.000
    H1       H        0.06240    0.08880    0.48750    1.000
    C4       C        0.13380    0.14700    0.51440    1.000
    H2       H        0.13200    0.15160    0.57350    1.000
    C5       C        0.17770    0.17750    0.47890    1.000
    C6       C        0.18030    0.17070    0.39230    1.000
    H3       H        0.21030    0.19160    0.36810    1.000
    C7       C        0.13890    0.13340    0.34120    1.000
    H4       H        0.14070    0.12880    0.28210    1.000
    C8       C        0.30530    0.27230    0.54410    1.000
    C9       C        0.28480    0.31130    0.59820    1.000
    H5       H        0.24430    0.30690    0.61360    1.000
    C10      C        0.32360    0.35670    0.62990    1.000
    H6       H        0.30960    0.38330    0.66690    1.000
    C11      C        0.38290    0.36310    0.60740    1.000
    C12      C        0.40340    0.32410    0.55320    1.000
    H7       H        0.44390    0.32850    0.53780    1.000
    C13      C        0.36460    0.27880    0.52160    1.000
    H8       H        0.37860    0.25210    0.48450    1.000
    C14      C        0.42060    0.41310    0.64620    1.000
    C15      C        0.05000    0.91220    0.26140    1.000
    C16      C        0.09350    0.86110    0.28470    1.000
    C17      C        0.07580    0.82660    0.34700    1.000
    H9       H        0.03740    0.83390    0.36680    1.000
    C18      C        0.11440    0.78150    0.38040    1.000
    H10      H        0.10230    0.75790    0.42290    1.000
    C19      C        0.17060    0.77080    0.35140    1.000
    C20      C        0.18820    0.80520    0.28910    1.000
    H11      H        0.22660    0.79790    0.26930    1.000
    C21      C        0.14970    0.85040    0.25570    1.000
    H12      H        0.16180    0.87400    0.21320    1.000
    C22      C        0.29330    0.67300    0.42490    1.000
    C23      C        0.28740    0.65950    0.50850    1.000
    H13      H        0.25470    0.67650    0.53280    1.000
    C24      C        0.32930    0.62130    0.55670    1.000
    H14      H        0.32520    0.61210    0.61380    1.000
    C25      C        0.37710    0.59640    0.52120    1.000
    C26      C        0.38300    0.60980    0.43760    1.000
    H15      H        0.41560    0.59290    0.41330    1.000
    C27      C        0.34110    0.64810    0.38940    1.000
    H16      H        0.34510    0.65730    0.33230    1.000
    C28      C        0.42500    0.56040    0.57370    1.000
    N5       N        0.87240    0.96980    0.31740    1.000
    C29      C        0.81550    0.96830    0.25670    1.000
    H17      H        0.81600    0.97250    0.19710    1.000
    C30      C        0.75770    0.96080    0.28320    1.000
    H18      H        0.71880    0.95980    0.24170    1.000
    C31      C        0.75700    0.95470    0.37040    1.000
    C32      C        0.81390    0.95620    0.43120    1.000
    H19      H        0.81340    0.95200    0.49080    1.000
    C33      C        0.87170    0.96370    0.40460    1.000
    H20      H        0.91060    0.96460    0.44620    1.000
    C34      C        0.69100    0.95540    0.39560    1.000
    C35      C        0.65510    0.90620    0.38700    1.000
    C36      C        0.59340    0.90660    0.40310    1.000
    H21      H        0.56880    0.87300    0.39730    1.000
    C37      C        0.56760    0.95620    0.42780    1.000
    C38      C        0.60360    0.00540    0.43600    1.000
    H22      H        0.58590    0.03940    0.45330    1.000
    C39      C        0.66520    0.00500    0.42030    1.000
    C40      C        0.68390    0.85160    0.36500    1.000
    H23      H        0.65250    0.82130    0.36350    1.000
    H24      H        0.72190    0.84320    0.40970    1.000
    H25      H        0.69610    0.85490    0.30900    1.000
    C41      C        0.69690    0.06170    0.42000    1.000
    H26      H        0.66910    0.09080    0.43630    1.000
    H27      H        0.70420    0.06960    0.36170    1.000
    H28      H        0.73790    0.06150    0.46100    1.000
    N6       N        0.99100    0.45790    0.45300    1.000
    H29      H        0.97080    0.48830    0.46480    1.000
    C42      C        0.97080    0.41070    0.45280    1.000
    H30      H        0.99620    0.38780    0.49980    1.000
    H31      H        0.97040    0.39190    0.39670    1.000
    C43      C        0.90340    0.42090    0.46720    1.000
    C44      C        0.87390    0.47310    0.45130    1.000
    H32      H        0.89530    0.50300    0.42920    1.000
    C45      C        0.81300    0.48140    0.46790    1.000
    C46      C        0.78160    0.43760    0.50040    1.000
    C47      C        0.81120    0.38550    0.51630    1.000
    C48      C        0.87200    0.37710    0.49970    1.000
    H33      H        0.89220    0.34150    0.51050    1.000
    C49      C        0.77600    0.53430    0.43600    1.000
    H34      H        0.80460    0.56020    0.41270    1.000
    H35      H        0.76120    0.55240    0.48340    1.000
    H36      H        0.73980    0.52460    0.38990    1.000
    C50      C        0.77790    0.34050    0.55400    1.000
    H37      H        0.73580    0.35400    0.56050    1.000
    H38      H        0.80320    0.33000    0.61050    1.000
    H39      H        0.77270    0.30770    0.51570    1.000
    C51      C        0.72140    0.45160    0.52940    1.000
    C52      C        0.66320    0.44690    0.47170    1.000
    H40      H        0.66210    0.43520    0.41400    1.000
    C53      C        0.60660    0.45960    0.49850    1.000
    H41      H        0.56680    0.45640    0.45910    1.000
    N7       N        0.60820    0.47680    0.58290    1.000
    C54      C        0.66650    0.48140    0.64060    1.000
    H42      H        0.66760    0.49320    0.69830    1.000
    C55      C        0.72310    0.46880    0.61380    1.000
    H43      H        0.76280    0.47200    0.65320    1.000
    N8       N        0.49100    0.04210    0.95300    1.000
    H44      H        0.47080    0.01170    0.96480    1.000
    C56      C        0.47080    0.08930    0.95280    1.000
    H45      H        0.49620    0.11220    0.99980    1.000
    H46      H        0.47040    0.10810    0.89670    1.000
    C57      C        0.40340    0.07910    0.96720    1.000
    C58      C        0.37390    0.02690    0.95130    1.000
    H47      H        0.39530    0.99700    0.92920    1.000
    C59      C        0.31300    0.01860    0.96790    1.000
    C60      C        0.28160    0.06240    0.00040    1.000
    C61      C        0.31120    0.11450    0.01630    1.000
    C62      C        0.37200    0.12290    0.99970    1.000
    H48      H        0.39220    0.15850    0.01050    1.000
    C63      C        0.27600    0.96570    0.93600    1.000
    H49      H        0.30460    0.93980    0.91270    1.000
    H50      H        0.26120    0.94760    0.98340    1.000
    H51      H        0.23980    0.97540    0.88990    1.000
    C64      C        0.27790    0.15950    0.05400    1.000
    H52      H        0.23580    0.14600    0.06050    1.000
    H53      H        0.30320    0.17000    0.11050    1.000
    H54      H        0.27270    0.19230    0.01570    1.000
    C65      C        0.22140    0.04840    0.02940    1.000
    C66      C        0.16320    0.05310    0.97170    1.000
    H55      H        0.16210    0.06480    0.91400    1.000
    C67      C        0.10660    0.04040    0.99850    1.000
    H56      H        0.06680    0.04360    0.95910    1.000
    N9       N        0.10820    0.02320    0.08290    1.000
    C68      C        0.16650    0.01860    0.14060    1.000
    H57      H        0.16760    0.00680    0.19830    1.000
    C69      C        0.22310    0.03120    0.11380    1.000
    H58      H        0.26280    0.02800    0.15320    1.000
    Zn3      Zn       0.45006    0.51033    0.76580    1.000
    Zn4      Zn       0.52913    0.49027    0.63147    1.000
    O9       O        0.50850    0.46010    0.84740    1.000
    O10      O        0.56350    0.44530    0.74280    1.000
    O11      O        0.90880    0.05870    0.20410    1.000
    O12      O        0.96390    0.07280    0.09690    1.000
    O13      O        0.50720    0.57740    0.79250    1.000
    O14      O        0.56600    0.56400    0.69200    1.000
    O15      O        0.91540    0.95000    0.14830    1.000
    O16      O        0.96990    0.96270    0.04230    1.000
    N10      N        0.72930    0.28940    0.02650    1.000
    N11      N        0.76740    0.27060    0.00240    1.000
    N12      N        0.70700    0.77530    0.89900    1.000
    N13      N        0.76440    0.78130    0.86620    1.000
    C70      C        0.55200    0.43970    0.81780    1.000
    C71      C        0.59500    0.39710    0.87670    1.000
    C72      C        0.59240    0.39040    0.96330    1.000
    H59      H        0.56240    0.41120    0.98750    1.000
    C73      C        0.63380    0.35300    0.01440    1.000
    H60      H        0.63200    0.34840    0.07350    1.000
    C74      C        0.67770    0.32250    0.97890    1.000
    C75      C        0.68030    0.32930    0.89230    1.000
    H61      H        0.71030    0.30840    0.86810    1.000
    C76      C        0.63890    0.36660    0.84120    1.000
    H62      H        0.64070    0.37120    0.78210    1.000
    C77      C        0.80530    0.22770    0.04410    1.000
    C78      C        0.78480    0.18870    0.09820    1.000
    H63      H        0.74430    0.19310    0.11360    1.000
    C79      C        0.82360    0.14330    0.12990    1.000
    H64      H        0.80960    0.11670    0.16690    1.000
    C80      C        0.88290    0.13690    0.10740    1.000
    C81      C        0.90340    0.17590    0.05320    1.000
    H65      H        0.94390    0.17150    0.03780    1.000
    C82      C        0.86460    0.22120    0.02160    1.000
    H66      H        0.87860    0.24790    0.98450    1.000
    C83      C        0.92060    0.08690    0.14620    1.000
    C84      C        0.55000    0.58780    0.76140    1.000
    C85      C        0.59350    0.63890    0.78470    1.000
    C86      C        0.57580    0.67340    0.84700    1.000
    H67      H        0.53740    0.66610    0.86680    1.000
    C87      C        0.61440    0.71850    0.88040    1.000
    H68      H        0.60230    0.74210    0.92290    1.000
    C88      C        0.67060    0.72920    0.85140    1.000
    C89      C        0.68820    0.69480    0.78910    1.000
    H69      H        0.72660    0.70210    0.76930    1.000
    C90      C        0.64970    0.64960    0.75570    1.000
    H70      H        0.66180    0.62600    0.71320    1.000
    C91      C        0.79330    0.82700    0.92490    1.000
    C92      C        0.78740    0.84050    0.00850    1.000
    H71      H        0.75470    0.82350    0.03280    1.000
    C93      C        0.82930    0.87870    0.05670    1.000
    H72      H        0.82520    0.88790    0.11380    1.000
    C94      C        0.87710    0.90360    0.02120    1.000
    C95      C        0.88300    0.89020    0.93760    1.000
    H73      H        0.91560    0.90710    0.91330    1.000
    C96      C        0.84110    0.85190    0.88940    1.000
    H74      H        0.84510    0.84270    0.83230    1.000
    C97      C        0.92500    0.93960    0.07370    1.000
    N14      N        0.37240    0.53020    0.81740    1.000
    C98      C        0.31550    0.53170    0.75670    1.000
    H75      H        0.31600    0.52750    0.69710    1.000
    C99      C        0.25770    0.53920    0.78320    1.000
    H76      H        0.21880    0.54020    0.74170    1.000
    C100     C        0.25700    0.54530    0.87040    1.000
    C101     C        0.31390    0.54380    0.93120    1.000
    H77      H        0.31340    0.54800    0.99080    1.000
    C102     C        0.37170    0.53630    0.90460    1.000
    H78      H        0.41060    0.53540    0.94620    1.000
    C103     C        0.19100    0.54460    0.89560    1.000
    C104     C        0.15510    0.59380    0.88700    1.000
    C105     C        0.09340    0.59340    0.90310    1.000
    H79      H        0.06880    0.62700    0.89730    1.000
    C106     C        0.06760    0.54380    0.92780    1.000
    C107     C        0.10360    0.49460    0.93600    1.000
    H80      H        0.08590    0.46060    0.95330    1.000
    C108     C        0.16520    0.49500    0.92030    1.000
    C109     C        0.18390    0.64840    0.86500    1.000
    H81      H        0.15250    0.67870    0.86350    1.000
    H82      H        0.22190    0.65680    0.90970    1.000
    H83      H        0.19610    0.64510    0.80900    1.000
    C110     C        0.19690    0.43830    0.92000    1.000
    H84      H        0.16910    0.40920    0.93630    1.000
    H85      H        0.20420    0.43040    0.86170    1.000
    H86      H        0.23790    0.43850    0.96100    1.000
    N15      N        0.49100    0.95790    0.45300    1.000
    H87      H        0.47080    0.98830    0.46480    1.000
    C111     C        0.47080    0.91070    0.45280    1.000
    H88      H        0.49620    0.88780    0.49980    1.000
    H89      H        0.47040    0.89190    0.39670    1.000
    C112     C        0.40340    0.92090    0.46720    1.000
    C113     C        0.37390    0.97310    0.45130    1.000
    H90      H        0.39530    0.00300    0.42920    1.000
    C114     C        0.31300    0.98140    0.46790    1.000
    C115     C        0.28160    0.93760    0.50040    1.000
    C116     C        0.31120    0.88550    0.51630    1.000
    C117     C        0.37200    0.87710    0.49970    1.000
    H91      H        0.39220    0.84150    0.51050    1.000
    C118     C        0.27600    0.03430    0.43600    1.000
    H92      H        0.30460    0.06020    0.41270    1.000
    H93      H        0.26120    0.05240    0.48340    1.000
    H94      H        0.23980    0.02460    0.38990    1.000
    C119     C        0.27790    0.84050    0.55400    1.000
    H95      H        0.23580    0.85400    0.56050    1.000
    H96      H        0.30320    0.83000    0.61050    1.000
    H97      H        0.27270    0.80770    0.51570    1.000
    C120     C        0.22140    0.95160    0.52940    1.000
    C121     C        0.16320    0.94690    0.47170    1.000
    H98      H        0.16210    0.93520    0.41400    1.000
    C122     C        0.10660    0.95960    0.49850    1.000
    H99      H        0.06680    0.95640    0.45910    1.000
    N16      N        0.10820    0.97680    0.58290    1.000
    C123     C        0.16650    0.98140    0.64060    1.000
    H100     H        0.16760    0.99320    0.69830    1.000
    C124     C        0.22310    0.96880    0.61380    1.000
    H101     H        0.26280    0.97200    0.65320    1.000
    Zn5      Zn       0.45006    0.48967    0.26580    1.000
    Zn6      Zn       0.52913    0.50973    0.13147    1.000
    O17      O        0.50850    0.53990    0.34740    1.000
    O18      O        0.56350    0.55470    0.24280    1.000
    O19      O        0.90880    0.94130    0.70410    1.000
    O20      O        0.96390    0.92720    0.59690    1.000
    O21      O        0.50720    0.42260    0.29250    1.000
    O22      O        0.56600    0.43600    0.19200    1.000
    O23      O        0.91540    0.05000    0.64830    1.000
    O24      O        0.96990    0.03730    0.54230    1.000
    N17      N        0.72930    0.71060    0.52650    1.000
    N18      N        0.76740    0.72940    0.50240    1.000
    N19      N        0.70700    0.22470    0.39900    1.000
    N20      N        0.76440    0.21870    0.36620    1.000
    C125     C        0.55200    0.56030    0.31780    1.000
    C126     C        0.59500    0.60290    0.37670    1.000
    C127     C        0.59240    0.60960    0.46330    1.000
    H102     H        0.56240    0.58880    0.48750    1.000
    C128     C        0.63380    0.64700    0.51440    1.000
    H103     H        0.63200    0.65160    0.57350    1.000
    C129     C        0.67770    0.67750    0.47890    1.000
    C130     C        0.68030    0.67070    0.39230    1.000
    H104     H        0.71030    0.69160    0.36810    1.000
    C131     C        0.63890    0.63340    0.34120    1.000
    H105     H        0.64070    0.62880    0.28210    1.000
    C132     C        0.80530    0.77230    0.54410    1.000
    C133     C        0.78480    0.81130    0.59820    1.000
    H106     H        0.74430    0.80690    0.61360    1.000
    C134     C        0.82360    0.85670    0.62990    1.000
    H107     H        0.80960    0.88330    0.66690    1.000
    C135     C        0.88290    0.86310    0.60740    1.000
    C136     C        0.90340    0.82410    0.55320    1.000
    H108     H        0.94390    0.82850    0.53780    1.000
    C137     C        0.86460    0.77880    0.52160    1.000
    H109     H        0.87860    0.75210    0.48450    1.000
    C138     C        0.92060    0.91310    0.64620    1.000
    C139     C        0.55000    0.41220    0.26140    1.000
    C140     C        0.59350    0.36110    0.28470    1.000
    C141     C        0.57580    0.32660    0.34700    1.000
    H110     H        0.53740    0.33390    0.36680    1.000
    C142     C        0.61440    0.28150    0.38040    1.000
    H111     H        0.60230    0.25790    0.42290    1.000
    C143     C        0.67060    0.27080    0.35140    1.000
    C144     C        0.68820    0.30520    0.28910    1.000
    H112     H        0.72660    0.29790    0.26930    1.000
    C145     C        0.64970    0.35040    0.25570    1.000
    H113     H        0.66180    0.37400    0.21320    1.000
    C146     C        0.79330    0.17300    0.42490    1.000
    C147     C        0.78740    0.15950    0.50850    1.000
    H114     H        0.75470    0.17650    0.53280    1.000
    C148     C        0.82930    0.12130    0.55670    1.000
    H115     H        0.82520    0.11210    0.61380    1.000
    C149     C        0.87710    0.09640    0.52120    1.000
    C150     C        0.88300    0.10980    0.43760    1.000
    H116     H        0.91560    0.09290    0.41330    1.000
    C151     C        0.84110    0.14810    0.38940    1.000
    H117     H        0.84510    0.15730    0.33230    1.000
    C152     C        0.92500    0.06040    0.57370    1.000
    N21      N        0.37240    0.46980    0.31740    1.000
    C153     C        0.31550    0.46830    0.25670    1.000
    H118     H        0.31600    0.47250    0.19710    1.000
    C154     C        0.25770    0.46080    0.28320    1.000
    H119     H        0.21880    0.45980    0.24170    1.000
    C155     C        0.25700    0.45470    0.37040    1.000
    C156     C        0.31390    0.45620    0.43120    1.000
    H120     H        0.31340    0.45200    0.49080    1.000
    C157     C        0.37170    0.46370    0.40460    1.000
    H121     H        0.41060    0.46460    0.44620    1.000
    C158     C        0.19100    0.45540    0.39560    1.000
    C159     C        0.15510    0.40620    0.38700    1.000
    C160     C        0.09340    0.40660    0.40310    1.000
    H122     H        0.06880    0.37300    0.39730    1.000
    C161     C        0.06760    0.45620    0.42780    1.000
    C162     C        0.10360    0.50540    0.43600    1.000
    H123     H        0.08590    0.53940    0.45330    1.000
    C163     C        0.16520    0.50500    0.42030    1.000
    C164     C        0.18390    0.35160    0.36500    1.000
    H124     H        0.15250    0.32130    0.36350    1.000
    H125     H        0.22190    0.34320    0.40970    1.000
    H126     H        0.19610    0.35490    0.30900    1.000
    C165     C        0.19690    0.56170    0.42000    1.000
    H127     H        0.16910    0.59080    0.43630    1.000
    H128     H        0.20420    0.56960    0.36170    1.000
    H129     H        0.23790    0.56150    0.46100    1.000
    Zn7      Zn       0.95006    0.01033    0.76580    1.000
    Zn8      Zn       0.02913    0.99027    0.63147    1.000
    O25      O        0.00850    0.96010    0.84740    1.000
    O26      O        0.06350    0.94530    0.74280    1.000
    O27      O        0.40880    0.55870    0.20410    1.000
    O28      O        0.46390    0.57280    0.09690    1.000
    O29      O        0.00720    0.07740    0.79250    1.000
    O30      O        0.06600    0.06400    0.69200    1.000
    O31      O        0.41540    0.45000    0.14830    1.000
    O32      O        0.46990    0.46270    0.04230    1.000
    N22      N        0.22930    0.78940    0.02650    1.000
    N23      N        0.26740    0.77060    0.00240    1.000
    N24      N        0.20700    0.27530    0.89900    1.000
    N25      N        0.26440    0.28130    0.86620    1.000
    C166     C        0.05200    0.93970    0.81780    1.000
    C167     C        0.09500    0.89710    0.87670    1.000
    C168     C        0.09240    0.89040    0.96330    1.000
    H130     H        0.06240    0.91120    0.98750    1.000
    C169     C        0.13380    0.85300    0.01440    1.000
    H131     H        0.13200    0.84840    0.07350    1.000
    C170     C        0.17770    0.82250    0.97890    1.000
    C171     C        0.18030    0.82930    0.89230    1.000
    H132     H        0.21030    0.80840    0.86810    1.000
    C172     C        0.13890    0.86660    0.84120    1.000
    H133     H        0.14070    0.87120    0.78210    1.000
    C173     C        0.30530    0.72770    0.04410    1.000
    C174     C        0.28480    0.68870    0.09820    1.000
    H134     H        0.24430    0.69310    0.11360    1.000
    C175     C        0.32360    0.64330    0.12990    1.000
    H135     H        0.30960    0.61670    0.16690    1.000
    C176     C        0.38290    0.63690    0.10740    1.000
    C177     C        0.40340    0.67590    0.05320    1.000
    H136     H        0.44390    0.67150    0.03780    1.000
    C178     C        0.36460    0.72120    0.02160    1.000
    H137     H        0.37860    0.74790    0.98450    1.000
    C179     C        0.42060    0.58690    0.14620    1.000
    C180     C        0.05000    0.08780    0.76140    1.000
    C181     C        0.09350    0.13890    0.78470    1.000
    C182     C        0.07580    0.17340    0.84700    1.000
    H138     H        0.03740    0.16610    0.86680    1.000
    C183     C        0.11440    0.21850    0.88040    1.000
    H139     H        0.10230    0.24210    0.92290    1.000
    C184     C        0.17060    0.22920    0.85140    1.000
    C185     C        0.18820    0.19480    0.78910    1.000
    H140     H        0.22660    0.20210    0.76930    1.000
    C186     C        0.14970    0.14960    0.75570    1.000
    H141     H        0.16180    0.12600    0.71320    1.000
    C187     C        0.29330    0.32700    0.92490    1.000
    C188     C        0.28740    0.34050    0.00850    1.000
    H142     H        0.25470    0.32350    0.03280    1.000
    C189     C        0.32930    0.37870    0.05670    1.000
    H143     H        0.32520    0.38790    0.11380    1.000
    C190     C        0.37710    0.40360    0.02120    1.000
    C191     C        0.38300    0.39020    0.93760    1.000
    H144     H        0.41560    0.40710    0.91330    1.000
    C192     C        0.34110    0.35190    0.88940    1.000
    H145     H        0.34510    0.34270    0.83230    1.000
    C193     C        0.42500    0.43960    0.07370    1.000
    N26      N        0.87240    0.03020    0.81740    1.000
    C194     C        0.81550    0.03170    0.75670    1.000
    H146     H        0.81600    0.02750    0.69710    1.000
    C195     C        0.75770    0.03920    0.78320    1.000
    H147     H        0.71880    0.04020    0.74170    1.000
    C196     C        0.75700    0.04530    0.87040    1.000
    C197     C        0.81390    0.04380    0.93120    1.000
    H148     H        0.81340    0.04800    0.99080    1.000
    C198     C        0.87170    0.03630    0.90460    1.000
    H149     H        0.91060    0.03540    0.94620    1.000
    C199     C        0.69100    0.04460    0.89560    1.000
    C200     C        0.65510    0.09380    0.88700    1.000
    C201     C        0.59340    0.09340    0.90310    1.000
    H150     H        0.56880    0.12700    0.89730    1.000
    C202     C        0.56760    0.04380    0.92780    1.000
    C203     C        0.60360    0.99460    0.93600    1.000
    H151     H        0.58590    0.96060    0.95330    1.000
    C204     C        0.66520    0.99500    0.92030    1.000
    C205     C        0.68390    0.14840    0.86500    1.000
    H152     H        0.65250    0.17870    0.86350    1.000
    H153     H        0.72190    0.15680    0.90970    1.000
    H154     H        0.69610    0.14510    0.80900    1.000
    C206     C        0.69690    0.93830    0.92000    1.000
    H155     H        0.66910    0.90920    0.93630    1.000
    H156     H        0.70420    0.93040    0.86170    1.000
    H157     H        0.73790    0.93850    0.96100    1.000
    N27      N        0.99100    0.54210    0.95300    1.000
    H158     H        0.97080    0.51170    0.96480    1.000
    C207     C        0.97080    0.58930    0.95280    1.000
    H159     H        0.99620    0.61220    0.99980    1.000
    H160     H        0.97040    0.60810    0.89670    1.000
    C208     C        0.90340    0.57910    0.96720    1.000
    C209     C        0.87390    0.52690    0.95130    1.000
    H161     H        0.89530    0.49700    0.92920    1.000
    C210     C        0.81300    0.51860    0.96790    1.000
    C211     C        0.78160    0.56240    0.00040    1.000
    C212     C        0.81120    0.61450    0.01630    1.000
    C213     C        0.87200    0.62290    0.99970    1.000
    H162     H        0.89220    0.65850    0.01050    1.000
    C214     C        0.77600    0.46570    0.93600    1.000
    H163     H        0.80460    0.43980    0.91270    1.000
    H164     H        0.76120    0.44760    0.98340    1.000
    H165     H        0.73980    0.47540    0.88990    1.000
    C215     C        0.77790    0.65950    0.05400    1.000
    H166     H        0.73580    0.64600    0.06050    1.000
    H167     H        0.80320    0.67000    0.11050    1.000
    H168     H        0.77270    0.69230    0.01570    1.000
    C216     C        0.72140    0.54840    0.02940    1.000
    C217     C        0.66320    0.55310    0.97170    1.000
    H169     H        0.66210    0.56480    0.91400    1.000
    C218     C        0.60660    0.54040    0.99850    1.000
    H170     H        0.56680    0.54360    0.95910    1.000
    N28      N        0.60820    0.52320    0.08290    1.000
    C219     C        0.66650    0.51860    0.14060    1.000
    H171     H        0.66760    0.50680    0.19830    1.000
    C220     C        0.72310    0.53120    0.11380    1.000
    H172     H        0.76280    0.52800    0.15320    1.000
