# CIF file generated by openbabel 3.1.0, see https://openbabel.org
data_I
_chemical_name_common 'image0'
_cell_length_a 21.713
_cell_length_b 21.713
_cell_length_c 14.998
_cell_angle_alpha 90
_cell_angle_beta 90
_cell_angle_gamma 120
_space_group_name_H-M_alt 'P 1'
_space_group_name_Hall 'P 1'
loop_
    _symmetry_equiv_pos_as_xyz
    x,y,z
loop_
    _atom_site_label
    _atom_site_type_symbol
    _atom_site_fract_x
    _atom_site_fract_y
    _atom_site_fract_z
    _atom_site_occupancy
    Cu1      Cu       0.08926    0.37941    0.39215    1.000
    C1       C        0.96550    0.34490    0.26050    1.000
    C2       C        0.11340    0.25260    0.37900    1.000
    N1       N        0.01040    0.35920    0.31020    1.000
    N2       N        0.09891    0.29460    0.40200    1.000
    S1       S        0.89918    0.32238    0.19030    1.000
    S2       S        0.13577    0.19435    0.34499    1.000
    Cu2      Cu       0.75593    0.71274    0.72548    1.000
    C3       C        0.63217    0.67823    0.59383    1.000
    C4       C        0.78007    0.58593    0.71233    1.000
    N3       N        0.67707    0.69253    0.64353    1.000
    N4       N        0.76558    0.62793    0.73533    1.000
    S3       S        0.56585    0.65571    0.52363    1.000
    S4       S        0.80244    0.52768    0.67832    1.000
    Cu3      Cu       0.42259    0.04608    0.05882    1.000
    C5       C        0.29883    0.01157    0.92717    1.000
    C6       C        0.44673    0.91927    0.04567    1.000
    N5       N        0.34373    0.02587    0.97687    1.000
    N6       N        0.43224    0.96127    0.06867    1.000
    S5       S        0.23251    0.98905    0.85697    1.000
    S6       S        0.46910    0.86102    0.01166    1.000
    Cu4      Cu       0.62059    0.70985    0.39215    1.000
    C7       C        0.65510    0.62060    0.26050    1.000
    C8       C        0.74740    0.86080    0.37900    1.000
    N7       N        0.64080    0.65120    0.31020    1.000
    N8       N        0.70540    0.80431    0.40200    1.000
    S7       S        0.67762    0.57680    0.19030    1.000
    S8       S        0.80565    0.94142    0.34499    1.000
    Cu5      Cu       0.28726    0.04318    0.72548    1.000
    C9       C        0.32177    0.95393    0.59383    1.000
    C10      C        0.41407    0.19413    0.71233    1.000
    N9       N        0.30747    0.98453    0.64353    1.000
    N10      N        0.37207    0.13764    0.73533    1.000
    S9       S        0.34429    0.91013    0.52363    1.000
    S10      S        0.47232    0.27475    0.67832    1.000
    Cu6      Cu       0.95392    0.37652    0.05882    1.000
    C11      C        0.98843    0.28727    0.92717    1.000
    C12      C        0.08073    0.52747    0.04567    1.000
    N11      N        0.97413    0.31787    0.97687    1.000
    N12      N        0.03873    0.47098    0.06867    1.000
    S11      S        0.01095    0.24347    0.85697    1.000
    S12      S        0.13898    0.60809    0.01166    1.000
    Cu7      Cu       0.29015    0.91074    0.39215    1.000
    C13      C        0.37940    0.03450    0.26050    1.000
    C14      C        0.13920    0.88660    0.37900    1.000
    N13      N        0.34880    0.98960    0.31020    1.000
    N14      N        0.19569    0.90109    0.40200    1.000
    S13      S        0.42320    0.10082    0.19030    1.000
    S14      S        0.05858    0.86423    0.34499    1.000
    Cu8      Cu       0.95682    0.24407    0.72548    1.000
    C15      C        0.04607    0.36783    0.59383    1.000
    C16      C        0.80587    0.21993    0.71233    1.000
    N15      N        0.01547    0.32293    0.64353    1.000
    N16      N        0.86236    0.23442    0.73533    1.000
    S15      S        0.08987    0.43415    0.52363    1.000
    S16      S        0.72525    0.19756    0.67832    1.000
    Cu9      Cu       0.62348    0.57741    0.05882    1.000
    C17      C        0.71273    0.70117    0.92717    1.000
    C18      C        0.47253    0.55327    0.04567    1.000
    N17      N        0.68213    0.65627    0.97687    1.000
    N18      N        0.52902    0.56776    0.06867    1.000
    S17      S        0.75653    0.76749    0.85697    1.000
    S18      S        0.39191    0.53090    0.01166    1.000
    Cu10     Cu       0.91074    0.62059    0.60785    1.000
    C19      C        0.03450    0.65510    0.73950    1.000
    C20      C        0.88660    0.74740    0.62100    1.000
    N19      N        0.98960    0.64080    0.68980    1.000
    N20      N        0.90109    0.70540    0.59800    1.000
    S19      S        0.10082    0.67762    0.80970    1.000
    S20      S        0.86423    0.80565    0.65501    1.000
    Cu11     Cu       0.57741    0.95392    0.94118    1.000
    C21      C        0.70117    0.98843    0.07283    1.000
    C22      C        0.55327    0.08073    0.95433    1.000
    N21      N        0.65627    0.97413    0.02313    1.000
    N22      N        0.56776    0.03873    0.93133    1.000
    S21      S        0.76749    0.01095    0.14303    1.000
    S22      S        0.53090    0.13898    0.98834    1.000
    Cu12     Cu       0.24407    0.28726    0.27452    1.000
    C23      C        0.36783    0.32177    0.40617    1.000
    C24      C        0.21993    0.41407    0.28767    1.000
    N23      N        0.32293    0.30747    0.35647    1.000
    N24      N        0.23442    0.37207    0.26467    1.000
    S23      S        0.43415    0.34429    0.47637    1.000
    S24      S        0.19756    0.47232    0.32168    1.000
    Cu13     Cu       0.37941    0.29015    0.60785    1.000
    C25      C        0.34490    0.37940    0.73950    1.000
    C26      C        0.25260    0.13920    0.62100    1.000
    N25      N        0.35920    0.34880    0.68980    1.000
    N26      N        0.29460    0.19569    0.59800    1.000
    S25      S        0.32238    0.42320    0.80970    1.000
    S26      S        0.19435    0.05858    0.65501    1.000
    Cu14     Cu       0.04608    0.62348    0.94118    1.000
    C27      C        0.01157    0.71273    0.07283    1.000
    C28      C        0.91927    0.47253    0.95433    1.000
    N27      N        0.02587    0.68213    0.02313    1.000
    N28      N        0.96127    0.52902    0.93133    1.000
    S27      S        0.98905    0.75653    0.14303    1.000
    S28      S        0.86102    0.39191    0.98834    1.000
    Cu15     Cu       0.71274    0.95682    0.27452    1.000
    C29      C        0.67823    0.04607    0.40617    1.000
    C30      C        0.58593    0.80587    0.28767    1.000
    N29      N        0.69253    0.01547    0.35647    1.000
    N30      N        0.62793    0.86236    0.26467    1.000
    S29      S        0.65571    0.08987    0.47637    1.000
    S30      S        0.52768    0.72525    0.32168    1.000
    Cu16     Cu       0.70985    0.08926    0.60785    1.000
    C31      C        0.62060    0.96550    0.73950    1.000
    C32      C        0.86080    0.11340    0.62100    1.000
    N31      N        0.65120    0.01040    0.68980    1.000
    N32      N        0.80431    0.09891    0.59800    1.000
    S31      S        0.57680    0.89918    0.80970    1.000
    S32      S        0.94142    0.13577    0.65501    1.000
    Cu17     Cu       0.37652    0.42259    0.94118    1.000
    C33      C        0.28727    0.29883    0.07283    1.000
    C34      C        0.52747    0.44673    0.95433    1.000
    N33      N        0.31787    0.34373    0.02313    1.000
    N34      N        0.47098    0.43224    0.93133    1.000
    S33      S        0.24347    0.23251    0.14303    1.000
    S34      S        0.60809    0.46910    0.98834    1.000
    Cu18     Cu       0.04318    0.75593    0.27452    1.000
    C35      C        0.95393    0.63217    0.40617    1.000
    C36      C        0.19413    0.78007    0.28767    1.000
    N35      N        0.98453    0.67707    0.35647    1.000
    N36      N        0.13764    0.76558    0.26467    1.000
    S35      S        0.91013    0.56585    0.47637    1.000
    S36      S        0.27475    0.80244    0.32168    1.000
