# CIF file generated by openbabel 3.1.0, see https://openbabel.org
data_I
_chemical_name_common 'image0'
_cell_length_a 38.027
_cell_length_b 19.03
_cell_length_c 19.7515
_cell_angle_alpha 90
_cell_angle_beta 104.123
_cell_angle_gamma 90
_space_group_name_H-M_alt 'P 1'
_space_group_name_Hall 'P 1'
loop_
    _symmetry_equiv_pos_as_xyz
    x,y,z
loop_
    _atom_site_label
    _atom_site_type_symbol
    _atom_site_fract_x
    _atom_site_fract_y
    _atom_site_fract_z
    _atom_site_occupancy
    Zn1      Zn       0.90116    0.38890    0.08891    1.000
    Zn2      Zn       0.89303    0.10900    0.20344    1.000
    Zn3      Zn       0.81100    0.41066    0.05121    1.000
    C1       C        0.93040    0.05670    0.10400    1.000
    C2       C        0.92830    0.03190    0.03240    1.000
    C3       C        0.95640    0.99150    0.02200    1.000
    H1       H        0.97560    0.98110    0.05980    1.000
    C4       C        0.95680    0.96600    0.95680    1.000
    H2       H        0.97640    0.93950    0.95100    1.000
    C5       C        0.92810    0.97970    0.89980    1.000
    C6       C        0.89877    0.02050    0.91050    1.000
    H3       H        0.87920    0.02950    0.87290    1.000
    C7       C        0.89851    0.04700    0.97490    1.000
    C8       C        0.92780    0.95310    0.82840    1.000
    C9       C        0.86703    0.09000    0.98150    1.000
    C10      C        0.87258    0.15880    0.00790    1.000
    H4       H        0.89600    0.17660    0.02190    1.000
    C11      C        0.84322    0.20040    0.01330    1.000
    C12      C        0.80832    0.17180    0.99480    1.000
    H5       H        0.78870    0.19860    0.00010    1.000
    C13      C        0.80254    0.10490    0.96880    1.000
    C14      C        0.83264    0.06400    0.96120    1.000
    H6       H        0.82880    0.01920    0.94210    1.000
    C15      C        0.84841    0.27410    0.04130    1.000
    C16      C        0.76560    0.07330    0.95200    1.000
    C17      C        0.93608    0.22430    0.24800    1.000
    C18      C        0.94389    0.29550    0.28130    1.000
    C19      C        0.97955    0.31560    0.31040    1.000
    H7       H        0.99850    0.28450    0.31070    1.000
    C20      C        0.98691    0.38300    0.33940    1.000
    C21      C        0.95752    0.42840    0.33880    1.000
    H8       H        0.96220    0.47380    0.35620    1.000
    C22      C        0.92214    0.40720    0.31310    1.000
    C23      C        0.91496    0.34080    0.28270    1.000
    H9       H        0.89120    0.32680    0.26350    1.000
    C24      C        0.02464    0.40600    0.36890    1.000
    C25      C        0.89095    0.45390    0.31660    1.000
    C26      C        0.89011    0.48290    0.37960    1.000
    H10      H        0.90960    0.47560    0.41790    1.000
    C27      C        0.86100    0.52290    0.38800    1.000
    C28      C        0.83190    0.53380    0.33140    1.000
    H11      H        0.81240    0.56090    0.33630    1.000
    C29      C        0.83210    0.50410    0.26700    1.000
    H12      H        0.81250    0.51110    0.22890    1.000
    C30      C        0.86132    0.46400    0.25970    1.000
    C31      C        0.86040    0.55210    0.46000    1.000
    C32      C        0.86030    0.43630    0.18750    1.000
    O1       O        0.89988    0.05890    0.12320    1.000
    O2       O        0.95968    0.07080    0.14150    1.000
    O3       O        0.89783    0.94980    0.78550    1.000
    O4       O        0.95663    0.93470    0.81700    1.000
    O5       O        0.82085    0.30660    0.04610    1.000
    O6       O        0.88031    0.29780    0.05690    1.000
    O7       O        0.74055    0.10990    0.96550    1.000
    O8       O        0.76092    0.01290    0.92560    1.000
    O9       O        0.90315    0.20620    0.22790    1.000
    O10      O        0.96145    0.18890    0.24010    1.000
    O11      O        0.03122    0.46920    0.38000    1.000
    O12      O        0.04920    0.35910    0.37930    1.000
    O13      O        0.83041    0.41360    0.15340    1.000
    O14      O        0.88766    0.44060    0.16530    1.000
    O15      O        0.83014    0.57470    0.46550    1.000
    O16      O        0.88965    0.55110    0.50530    1.000
    Zn4      Zn       0.40116    0.88890    0.08891    1.000
    Zn5      Zn       0.39303    0.60900    0.20344    1.000
    Zn6      Zn       0.31100    0.91066    0.05121    1.000
    C33      C        0.43040    0.55670    0.10400    1.000
    C34      C        0.42830    0.53190    0.03240    1.000
    C35      C        0.45640    0.49150    0.02200    1.000
    H13      H        0.47560    0.48110    0.05980    1.000
    C36      C        0.45680    0.46600    0.95680    1.000
    H14      H        0.47640    0.43950    0.95100    1.000
    C37      C        0.42810    0.47970    0.89980    1.000
    C38      C        0.39877    0.52050    0.91050    1.000
    H15      H        0.37920    0.52950    0.87290    1.000
    C39      C        0.39851    0.54700    0.97490    1.000
    C40      C        0.42780    0.45310    0.82840    1.000
    C41      C        0.36703    0.59000    0.98150    1.000
    C42      C        0.37258    0.65880    0.00790    1.000
    H16      H        0.39600    0.67660    0.02190    1.000
    C43      C        0.34322    0.70040    0.01330    1.000
    C44      C        0.30832    0.67180    0.99480    1.000
    H17      H        0.28870    0.69860    0.00010    1.000
    C45      C        0.30254    0.60490    0.96880    1.000
    C46      C        0.33264    0.56400    0.96120    1.000
    H18      H        0.32880    0.51920    0.94210    1.000
    C47      C        0.34841    0.77410    0.04130    1.000
    C48      C        0.26560    0.57330    0.95200    1.000
    C49      C        0.43608    0.72430    0.24800    1.000
    C50      C        0.44389    0.79550    0.28130    1.000
    C51      C        0.47955    0.81560    0.31040    1.000
    H19      H        0.49850    0.78450    0.31070    1.000
    C52      C        0.48691    0.88300    0.33940    1.000
    C53      C        0.45752    0.92840    0.33880    1.000
    H20      H        0.46220    0.97380    0.35620    1.000
    C54      C        0.42214    0.90720    0.31310    1.000
    C55      C        0.41496    0.84080    0.28270    1.000
    H21      H        0.39120    0.82680    0.26350    1.000
    C56      C        0.52464    0.90600    0.36890    1.000
    C57      C        0.39095    0.95390    0.31660    1.000
    C58      C        0.39011    0.98290    0.37960    1.000
    H22      H        0.40960    0.97560    0.41790    1.000
    C59      C        0.36100    0.02290    0.38800    1.000
    C60      C        0.33190    0.03380    0.33140    1.000
    H23      H        0.31240    0.06090    0.33630    1.000
    C61      C        0.33210    0.00410    0.26700    1.000
    H24      H        0.31250    0.01110    0.22890    1.000
    C62      C        0.36132    0.96400    0.25970    1.000
    C63      C        0.36040    0.05210    0.46000    1.000
    C64      C        0.36030    0.93630    0.18750    1.000
    O17      O        0.39988    0.55890    0.12320    1.000
    O18      O        0.45968    0.57080    0.14150    1.000
    O19      O        0.39783    0.44980    0.78550    1.000
    O20      O        0.45663    0.43470    0.81700    1.000
    O21      O        0.32085    0.80660    0.04610    1.000
    O22      O        0.38031    0.79780    0.05690    1.000
    O23      O        0.24055    0.60990    0.96550    1.000
    O24      O        0.26092    0.51290    0.92560    1.000
    O25      O        0.40315    0.70620    0.22790    1.000
    O26      O        0.46145    0.68890    0.24010    1.000
    O27      O        0.53122    0.96920    0.38000    1.000
    O28      O        0.54920    0.85910    0.37930    1.000
    O29      O        0.33041    0.91360    0.15340    1.000
    O30      O        0.38766    0.94060    0.16530    1.000
    O31      O        0.33014    0.07470    0.46550    1.000
    O32      O        0.38965    0.05110    0.50530    1.000
    Zn7      Zn       0.09884    0.38890    0.41109    1.000
    Zn8      Zn       0.10697    0.10900    0.29656    1.000
    Zn9      Zn       0.18900    0.41066    0.44879    1.000
    C65      C        0.06960    0.05670    0.39600    1.000
    C66      C        0.07170    0.03190    0.46760    1.000
    C67      C        0.04360    0.99150    0.47800    1.000
    H25      H        0.02440    0.98110    0.44020    1.000
    C68      C        0.04320    0.96600    0.54320    1.000
    H26      H        0.02360    0.93950    0.54900    1.000
    C69      C        0.07190    0.97970    0.60020    1.000
    C70      C        0.10123    0.02050    0.58950    1.000
    H27      H        0.12080    0.02950    0.62710    1.000
    C71      C        0.10149    0.04700    0.52510    1.000
    C72      C        0.07220    0.95310    0.67160    1.000
    C73      C        0.13297    0.09000    0.51850    1.000
    C74      C        0.12742    0.15880    0.49210    1.000
    H28      H        0.10400    0.17660    0.47810    1.000
    C75      C        0.15678    0.20040    0.48670    1.000
    C76      C        0.19168    0.17180    0.50520    1.000
    H29      H        0.21130    0.19860    0.49990    1.000
    C77      C        0.19746    0.10490    0.53120    1.000
    C78      C        0.16736    0.06400    0.53880    1.000
    H30      H        0.17120    0.01920    0.55790    1.000
    C79      C        0.15159    0.27410    0.45870    1.000
    C80      C        0.23440    0.07330    0.54800    1.000
    C81      C        0.06392    0.22430    0.25200    1.000
    C82      C        0.05611    0.29550    0.21870    1.000
    C83      C        0.02045    0.31560    0.18960    1.000
    H31      H        0.00150    0.28450    0.18930    1.000
    C84      C        0.01309    0.38300    0.16060    1.000
    C85      C        0.04248    0.42840    0.16120    1.000
    H32      H        0.03780    0.47380    0.14380    1.000
    C86      C        0.07786    0.40720    0.18690    1.000
    C87      C        0.08504    0.34080    0.21730    1.000
    H33      H        0.10880    0.32680    0.23650    1.000
    C88      C        0.97536    0.40600    0.13110    1.000
    C89      C        0.10905    0.45390    0.18340    1.000
    C90      C        0.10989    0.48290    0.12040    1.000
    H34      H        0.09040    0.47560    0.08210    1.000
    C91      C        0.13900    0.52290    0.11200    1.000
    C92      C        0.16810    0.53380    0.16860    1.000
    H35      H        0.18760    0.56090    0.16370    1.000
    C93      C        0.16790    0.50410    0.23300    1.000
    H36      H        0.18750    0.51110    0.27110    1.000
    C94      C        0.13868    0.46400    0.24030    1.000
    C95      C        0.13960    0.55210    0.04000    1.000
    C96      C        0.13970    0.43630    0.31250    1.000
    O33      O        0.10012    0.05890    0.37680    1.000
    O34      O        0.04032    0.07080    0.35850    1.000
    O35      O        0.10217    0.94980    0.71450    1.000
    O36      O        0.04337    0.93470    0.68300    1.000
    O37      O        0.17915    0.30660    0.45390    1.000
    O38      O        0.11969    0.29780    0.44310    1.000
    O39      O        0.25945    0.10990    0.53450    1.000
    O40      O        0.23908    0.01290    0.57440    1.000
    O41      O        0.09685    0.20620    0.27210    1.000
    O42      O        0.03855    0.18890    0.25990    1.000
    O43      O        0.96878    0.46920    0.12000    1.000
    O44      O        0.95080    0.35910    0.12070    1.000
    O45      O        0.16959    0.41360    0.34660    1.000
    O46      O        0.11234    0.44060    0.33470    1.000
    O47      O        0.16986    0.57470    0.03450    1.000
    O48      O        0.11035    0.55110    0.99470    1.000
    Zn10     Zn       0.59884    0.88890    0.41109    1.000
    Zn11     Zn       0.60697    0.60900    0.29656    1.000
    Zn12     Zn       0.68900    0.91066    0.44879    1.000
    C97      C        0.56960    0.55670    0.39600    1.000
    C98      C        0.57170    0.53190    0.46760    1.000
    C99      C        0.54360    0.49150    0.47800    1.000
    H37      H        0.52440    0.48110    0.44020    1.000
    C100     C        0.54320    0.46600    0.54320    1.000
    H38      H        0.52360    0.43950    0.54900    1.000
    C101     C        0.57190    0.47970    0.60020    1.000
    C102     C        0.60123    0.52050    0.58950    1.000
    H39      H        0.62080    0.52950    0.62710    1.000
    C103     C        0.60149    0.54700    0.52510    1.000
    C104     C        0.57220    0.45310    0.67160    1.000
    C105     C        0.63297    0.59000    0.51850    1.000
    C106     C        0.62742    0.65880    0.49210    1.000
    H40      H        0.60400    0.67660    0.47810    1.000
    C107     C        0.65678    0.70040    0.48670    1.000
    C108     C        0.69168    0.67180    0.50520    1.000
    H41      H        0.71130    0.69860    0.49990    1.000
    C109     C        0.69746    0.60490    0.53120    1.000
    C110     C        0.66736    0.56400    0.53880    1.000
    H42      H        0.67120    0.51920    0.55790    1.000
    C111     C        0.65159    0.77410    0.45870    1.000
    C112     C        0.73440    0.57330    0.54800    1.000
    C113     C        0.56392    0.72430    0.25200    1.000
    C114     C        0.55611    0.79550    0.21870    1.000
    C115     C        0.52045    0.81560    0.18960    1.000
    H43      H        0.50150    0.78450    0.18930    1.000
    C116     C        0.51309    0.88300    0.16060    1.000
    C117     C        0.54248    0.92840    0.16120    1.000
    H44      H        0.53780    0.97380    0.14380    1.000
    C118     C        0.57786    0.90720    0.18690    1.000
    C119     C        0.58504    0.84080    0.21730    1.000
    H45      H        0.60880    0.82680    0.23650    1.000
    C120     C        0.47536    0.90600    0.13110    1.000
    C121     C        0.60905    0.95390    0.18340    1.000
    C122     C        0.60989    0.98290    0.12040    1.000
    H46      H        0.59040    0.97560    0.08210    1.000
    C123     C        0.63900    0.02290    0.11200    1.000
    C124     C        0.66810    0.03380    0.16860    1.000
    H47      H        0.68760    0.06090    0.16370    1.000
    C125     C        0.66790    0.00410    0.23300    1.000
    H48      H        0.68750    0.01110    0.27110    1.000
    C126     C        0.63868    0.96400    0.24030    1.000
    C127     C        0.63960    0.05210    0.04000    1.000
    C128     C        0.63970    0.93630    0.31250    1.000
    O49      O        0.60012    0.55890    0.37680    1.000
    O50      O        0.54032    0.57080    0.35850    1.000
    O51      O        0.60217    0.44980    0.71450    1.000
    O52      O        0.54337    0.43470    0.68300    1.000
    O53      O        0.67915    0.80660    0.45390    1.000
    O54      O        0.61969    0.79780    0.44310    1.000
    O55      O        0.75945    0.60990    0.53450    1.000
    O56      O        0.73908    0.51290    0.57440    1.000
    O57      O        0.59685    0.70620    0.27210    1.000
    O58      O        0.53855    0.68890    0.25990    1.000
    O59      O        0.46878    0.96920    0.12000    1.000
    O60      O        0.45080    0.85910    0.12070    1.000
    O61      O        0.66959    0.91360    0.34660    1.000
    O62      O        0.61234    0.94060    0.33470    1.000
    O63      O        0.66986    0.07470    0.03450    1.000
    O64      O        0.61035    0.05110    0.99470    1.000
    Zn13     Zn       0.09884    0.61110    0.91109    1.000
    Zn14     Zn       0.10697    0.89100    0.79656    1.000
    Zn15     Zn       0.18900    0.58934    0.94879    1.000
    C129     C        0.06960    0.94330    0.89600    1.000
    C130     C        0.07170    0.96810    0.96760    1.000
    C131     C        0.04360    0.00850    0.97800    1.000
    H49      H        0.02440    0.01890    0.94020    1.000
    C132     C        0.04320    0.03400    0.04320    1.000
    H50      H        0.02360    0.06050    0.04900    1.000
    C133     C        0.07190    0.02030    0.10020    1.000
    C134     C        0.10123    0.97950    0.08950    1.000
    H51      H        0.12080    0.97050    0.12710    1.000
    C135     C        0.10149    0.95300    0.02510    1.000
    C136     C        0.07220    0.04690    0.17160    1.000
    C137     C        0.13297    0.91000    0.01850    1.000
    C138     C        0.12742    0.84120    0.99210    1.000
    H52      H        0.10400    0.82340    0.97810    1.000
    C139     C        0.15678    0.79960    0.98670    1.000
    C140     C        0.19168    0.82820    0.00520    1.000
    H53      H        0.21130    0.80140    0.99990    1.000
    C141     C        0.19746    0.89510    0.03120    1.000
    C142     C        0.16736    0.93600    0.03880    1.000
    H54      H        0.17120    0.98080    0.05790    1.000
    C143     C        0.15159    0.72590    0.95870    1.000
    C144     C        0.23440    0.92670    0.04800    1.000
    C145     C        0.06392    0.77570    0.75200    1.000
    C146     C        0.05611    0.70450    0.71870    1.000
    C147     C        0.02045    0.68440    0.68960    1.000
    H55      H        0.00150    0.71550    0.68930    1.000
    C148     C        0.01309    0.61700    0.66060    1.000
    C149     C        0.04248    0.57160    0.66120    1.000
    H56      H        0.03780    0.52620    0.64380    1.000
    C150     C        0.07786    0.59280    0.68690    1.000
    C151     C        0.08504    0.65920    0.71730    1.000
    H57      H        0.10880    0.67320    0.73650    1.000
    C152     C        0.97536    0.59400    0.63110    1.000
    C153     C        0.10905    0.54610    0.68340    1.000
    C154     C        0.10989    0.51710    0.62040    1.000
    H58      H        0.09040    0.52440    0.58210    1.000
    C155     C        0.13900    0.47710    0.61200    1.000
    C156     C        0.16810    0.46620    0.66860    1.000
    H59      H        0.18760    0.43910    0.66370    1.000
    C157     C        0.16790    0.49590    0.73300    1.000
    H60      H        0.18750    0.48890    0.77110    1.000
    C158     C        0.13868    0.53600    0.74030    1.000
    C159     C        0.13960    0.44790    0.54000    1.000
    C160     C        0.13970    0.56370    0.81250    1.000
    O65      O        0.10012    0.94110    0.87680    1.000
    O66      O        0.04032    0.92920    0.85850    1.000
    O67      O        0.10217    0.05020    0.21450    1.000
    O68      O        0.04337    0.06530    0.18300    1.000
    O69      O        0.17915    0.69340    0.95390    1.000
    O70      O        0.11969    0.70220    0.94310    1.000
    O71      O        0.25945    0.89010    0.03450    1.000
    O72      O        0.23908    0.98710    0.07440    1.000
    O73      O        0.09685    0.79380    0.77210    1.000
    O74      O        0.03855    0.81110    0.75990    1.000
    O75      O        0.96878    0.53080    0.62000    1.000
    O76      O        0.95080    0.64090    0.62070    1.000
    O77      O        0.16959    0.58640    0.84660    1.000
    O78      O        0.11234    0.55940    0.83470    1.000
    O79      O        0.16986    0.42530    0.53450    1.000
    O80      O        0.11035    0.44890    0.49470    1.000
    Zn16     Zn       0.59884    0.11110    0.91109    1.000
    Zn17     Zn       0.60697    0.39100    0.79656    1.000
    Zn18     Zn       0.68900    0.08934    0.94879    1.000
    C161     C        0.56960    0.44330    0.89600    1.000
    C162     C        0.57170    0.46810    0.96760    1.000
    C163     C        0.54360    0.50850    0.97800    1.000
    H61      H        0.52440    0.51890    0.94020    1.000
    C164     C        0.54320    0.53400    0.04320    1.000
    H62      H        0.52360    0.56050    0.04900    1.000
    C165     C        0.57190    0.52030    0.10020    1.000
    C166     C        0.60123    0.47950    0.08950    1.000
    H63      H        0.62080    0.47050    0.12710    1.000
    C167     C        0.60149    0.45300    0.02510    1.000
    C168     C        0.57220    0.54690    0.17160    1.000
    C169     C        0.63297    0.41000    0.01850    1.000
    C170     C        0.62742    0.34120    0.99210    1.000
    H64      H        0.60400    0.32340    0.97810    1.000
    C171     C        0.65678    0.29960    0.98670    1.000
    C172     C        0.69168    0.32820    0.00520    1.000
    H65      H        0.71130    0.30140    0.99990    1.000
    C173     C        0.69746    0.39510    0.03120    1.000
    C174     C        0.66736    0.43600    0.03880    1.000
    H66      H        0.67120    0.48080    0.05790    1.000
    C175     C        0.65159    0.22590    0.95870    1.000
    C176     C        0.73440    0.42670    0.04800    1.000
    C177     C        0.56392    0.27570    0.75200    1.000
    C178     C        0.55611    0.20450    0.71870    1.000
    C179     C        0.52045    0.18440    0.68960    1.000
    H67      H        0.50150    0.21550    0.68930    1.000
    C180     C        0.51309    0.11700    0.66060    1.000
    C181     C        0.54248    0.07160    0.66120    1.000
    H68      H        0.53780    0.02620    0.64380    1.000
    C182     C        0.57786    0.09280    0.68690    1.000
    C183     C        0.58504    0.15920    0.71730    1.000
    H69      H        0.60880    0.17320    0.73650    1.000
    C184     C        0.47536    0.09400    0.63110    1.000
    C185     C        0.60905    0.04610    0.68340    1.000
    C186     C        0.60989    0.01710    0.62040    1.000
    H70      H        0.59040    0.02440    0.58210    1.000
    C187     C        0.63900    0.97710    0.61200    1.000
    C188     C        0.66810    0.96620    0.66860    1.000
    H71      H        0.68760    0.93910    0.66370    1.000
    C189     C        0.66790    0.99590    0.73300    1.000
    H72      H        0.68750    0.98890    0.77110    1.000
    C190     C        0.63868    0.03600    0.74030    1.000
    C191     C        0.63960    0.94790    0.54000    1.000
    C192     C        0.63970    0.06370    0.81250    1.000
    O81      O        0.60012    0.44110    0.87680    1.000
    O82      O        0.54032    0.42920    0.85850    1.000
    O83      O        0.60217    0.55020    0.21450    1.000
    O84      O        0.54337    0.56530    0.18300    1.000
    O85      O        0.67915    0.19340    0.95390    1.000
    O86      O        0.61969    0.20220    0.94310    1.000
    O87      O        0.75945    0.39010    0.03450    1.000
    O88      O        0.73908    0.48710    0.07440    1.000
    O89      O        0.59685    0.29380    0.77210    1.000
    O90      O        0.53855    0.31110    0.75990    1.000
    O91      O        0.46878    0.03080    0.62000    1.000
    O92      O        0.45080    0.14090    0.62070    1.000
    O93      O        0.66959    0.08640    0.84660    1.000
    O94      O        0.61234    0.05940    0.83470    1.000
    O95      O        0.66986    0.92530    0.53450    1.000
    O96      O        0.61035    0.94890    0.49470    1.000
    Zn19     Zn       0.90116    0.61110    0.58891    1.000
    Zn20     Zn       0.89303    0.89100    0.70344    1.000
    Zn21     Zn       0.81100    0.58934    0.55121    1.000
    C193     C        0.93040    0.94330    0.60400    1.000
    C194     C        0.92830    0.96810    0.53240    1.000
    C195     C        0.95640    0.00850    0.52200    1.000
    H73      H        0.97560    0.01890    0.55980    1.000
    C196     C        0.95680    0.03400    0.45680    1.000
    H74      H        0.97640    0.06050    0.45100    1.000
    C197     C        0.92810    0.02030    0.39980    1.000
    C198     C        0.89877    0.97950    0.41050    1.000
    H75      H        0.87920    0.97050    0.37290    1.000
    C199     C        0.89851    0.95300    0.47490    1.000
    C200     C        0.92780    0.04690    0.32840    1.000
    C201     C        0.86703    0.91000    0.48150    1.000
    C202     C        0.87258    0.84120    0.50790    1.000
    H76      H        0.89600    0.82340    0.52190    1.000
    C203     C        0.84322    0.79960    0.51330    1.000
    C204     C        0.80832    0.82820    0.49480    1.000
    H77      H        0.78870    0.80140    0.50010    1.000
    C205     C        0.80254    0.89510    0.46880    1.000
    C206     C        0.83264    0.93600    0.46120    1.000
    H78      H        0.82880    0.98080    0.44210    1.000
    C207     C        0.84841    0.72590    0.54130    1.000
    C208     C        0.76560    0.92670    0.45200    1.000
    C209     C        0.93608    0.77570    0.74800    1.000
    C210     C        0.94389    0.70450    0.78130    1.000
    C211     C        0.97955    0.68440    0.81040    1.000
    H79      H        0.99850    0.71550    0.81070    1.000
    C212     C        0.98691    0.61700    0.83940    1.000
    C213     C        0.95752    0.57160    0.83880    1.000
    H80      H        0.96220    0.52620    0.85620    1.000
    C214     C        0.92214    0.59280    0.81310    1.000
    C215     C        0.91496    0.65920    0.78270    1.000
    H81      H        0.89120    0.67320    0.76350    1.000
    C216     C        0.02464    0.59400    0.86890    1.000
    C217     C        0.89095    0.54610    0.81660    1.000
    C218     C        0.89011    0.51710    0.87960    1.000
    H82      H        0.90960    0.52440    0.91790    1.000
    C219     C        0.86100    0.47710    0.88800    1.000
    C220     C        0.83190    0.46620    0.83140    1.000
    H83      H        0.81240    0.43910    0.83630    1.000
    C221     C        0.83210    0.49590    0.76700    1.000
    H84      H        0.81250    0.48890    0.72890    1.000
    C222     C        0.86132    0.53600    0.75970    1.000
    C223     C        0.86040    0.44790    0.96000    1.000
    C224     C        0.86030    0.56370    0.68750    1.000
    O97      O        0.89988    0.94110    0.62320    1.000
    O98      O        0.95968    0.92920    0.64150    1.000
    O99      O        0.89783    0.05020    0.28550    1.000
    O100     O        0.95663    0.06530    0.31700    1.000
    O101     O        0.82085    0.69340    0.54610    1.000
    O102     O        0.88031    0.70220    0.55690    1.000
    O103     O        0.74055    0.89010    0.46550    1.000
    O104     O        0.76092    0.98710    0.42560    1.000
    O105     O        0.90315    0.79380    0.72790    1.000
    O106     O        0.96145    0.81110    0.74010    1.000
    O107     O        0.03122    0.53080    0.88000    1.000
    O108     O        0.04920    0.64090    0.87930    1.000
    O109     O        0.83041    0.58640    0.65340    1.000
    O110     O        0.88766    0.55940    0.66530    1.000
    O111     O        0.83014    0.42530    0.96550    1.000
    O112     O        0.88965    0.44890    0.00530    1.000
    Zn22     Zn       0.40116    0.11110    0.58891    1.000
    Zn23     Zn       0.39303    0.39100    0.70344    1.000
    Zn24     Zn       0.31100    0.08934    0.55121    1.000
    C225     C        0.43040    0.44330    0.60400    1.000
    C226     C        0.42830    0.46810    0.53240    1.000
    C227     C        0.45640    0.50850    0.52200    1.000
    H85      H        0.47560    0.51890    0.55980    1.000
    C228     C        0.45680    0.53400    0.45680    1.000
    H86      H        0.47640    0.56050    0.45100    1.000
    C229     C        0.42810    0.52030    0.39980    1.000
    C230     C        0.39877    0.47950    0.41050    1.000
    H87      H        0.37920    0.47050    0.37290    1.000
    C231     C        0.39851    0.45300    0.47490    1.000
    C232     C        0.42780    0.54690    0.32840    1.000
    C233     C        0.36703    0.41000    0.48150    1.000
    C234     C        0.37258    0.34120    0.50790    1.000
    H88      H        0.39600    0.32340    0.52190    1.000
    C235     C        0.34322    0.29960    0.51330    1.000
    C236     C        0.30832    0.32820    0.49480    1.000
    H89      H        0.28870    0.30140    0.50010    1.000
    C237     C        0.30254    0.39510    0.46880    1.000
    C238     C        0.33264    0.43600    0.46120    1.000
    H90      H        0.32880    0.48080    0.44210    1.000
    C239     C        0.34841    0.22590    0.54130    1.000
    C240     C        0.26560    0.42670    0.45200    1.000
    C241     C        0.43608    0.27570    0.74800    1.000
    C242     C        0.44389    0.20450    0.78130    1.000
    C243     C        0.47955    0.18440    0.81040    1.000
    H91      H        0.49850    0.21550    0.81070    1.000
    C244     C        0.48691    0.11700    0.83940    1.000
    C245     C        0.45752    0.07160    0.83880    1.000
    H92      H        0.46220    0.02620    0.85620    1.000
    C246     C        0.42214    0.09280    0.81310    1.000
    C247     C        0.41496    0.15920    0.78270    1.000
    H93      H        0.39120    0.17320    0.76350    1.000
    C248     C        0.52464    0.09400    0.86890    1.000
    C249     C        0.39095    0.04610    0.81660    1.000
    C250     C        0.39011    0.01710    0.87960    1.000
    H94      H        0.40960    0.02440    0.91790    1.000
    C251     C        0.36100    0.97710    0.88800    1.000
    C252     C        0.33190    0.96620    0.83140    1.000
    H95      H        0.31240    0.93910    0.83630    1.000
    C253     C        0.33210    0.99590    0.76700    1.000
    H96      H        0.31250    0.98890    0.72890    1.000
    C254     C        0.36132    0.03600    0.75970    1.000
    C255     C        0.36040    0.94790    0.96000    1.000
    C256     C        0.36030    0.06370    0.68750    1.000
    O113     O        0.39988    0.44110    0.62320    1.000
    O114     O        0.45968    0.42920    0.64150    1.000
    O115     O        0.39783    0.55020    0.28550    1.000
    O116     O        0.45663    0.56530    0.31700    1.000
    O117     O        0.32085    0.19340    0.54610    1.000
    O118     O        0.38031    0.20220    0.55690    1.000
    O119     O        0.24055    0.39010    0.46550    1.000
    O120     O        0.26092    0.48710    0.42560    1.000
    O121     O        0.40315    0.29380    0.72790    1.000
    O122     O        0.46145    0.31110    0.74010    1.000
    O123     O        0.53122    0.03080    0.88000    1.000
    O124     O        0.54920    0.14090    0.87930    1.000
    O125     O        0.33041    0.08640    0.65340    1.000
    O126     O        0.38766    0.05940    0.66530    1.000
    O127     O        0.33014    0.92530    0.96550    1.000
    O128     O        0.38965    0.94890    0.00530    1.000
