data_functionalizedCrystal
_audit_creation_method	'EQeq! by Chris Wilmer'
_symmetry_space_group_name_H-M	'P1'
_symmetry_Int_Tables_number	1
_symmetry_cell_setting	triclinic
loop_
_symmetry_equiv_pos_as_xyz
  x,y,z
_cell_length_a	6.6302
_cell_length_b	16.77
_cell_length_c	12.7778
_cell_angle_alpha	90
_cell_angle_beta	90
_cell_angle_gamma	90
loop_
_atom_site_label
_atom_site_type_symbol
_atom_site_fract_x
_atom_site_fract_y
_atom_site_fract_z
_atom_site_charge
Mof_O 	O 	0.16646	0.16815	0.843	-1.513
Mof_C 	C 	0.8089	0.03535	0.9688	0.029
Mof_O 	O 	0.66646	0.66815	0.343	-1.504
Mof_C 	C 	0.3089	0.53535	0.4688	0.073
Mof_O 	O 	0.83354	0.33185	0.843	-1.533
Mof_C 	C 	0.1911	0.46465	0.9688	0.061
Mof_O 	O 	0.33354	0.83185	0.343	-1.503
Mof_C 	C 	0.6911	0.96465	0.4688	0.053
Mof_O 	O 	0.83354	0.66815	0.157	-1.533
Mof_C 	C 	0.1911	0.53535	0.0312	0.061
Mof_O 	O 	0.33354	0.16815	0.657	-1.503
Mof_C 	C 	0.6911	0.03535	0.5312	0.053
Mof_O 	O 	0.16646	0.83185	0.157	-1.512
Mof_C 	C 	0.8089	0.96465	0.0312	0.03
Mof_O 	O 	0.66646	0.33185	0.657	-1.504
Mof_C 	C 	0.3089	0.46465	0.5312	0.073
Mof_O 	O 	0.83354	0.83185	0.157	-1.533
Mof_C 	C 	0.1911	0.96465	0.0312	0.061
Mof_O 	O 	0.33354	0.33185	0.657	-1.503
Mof_C 	C 	0.6911	0.46465	0.5312	0.053
Mof_O 	O 	0.16646	0.66815	0.157	-1.512
Mof_C 	C 	0.8089	0.53535	0.0312	0.03
Mof_O 	O 	0.66646	0.16815	0.657	-1.504
Mof_C 	C 	0.3089	0.03535	0.5312	0.073
Mof_O 	O 	0.16646	0.33185	0.843	-1.512
Mof_C 	C 	0.8089	0.46465	0.9688	0.03
Mof_O 	O 	0.66646	0.83185	0.343	-1.504
Mof_C 	C 	0.3089	0.96465	0.4688	0.073
Mof_O 	O 	0.83354	0.16815	0.843	-1.533
Mof_C 	C 	0.1911	0.03535	0.9688	0.061
Mof_O 	O 	0.33354	0.66815	0.343	-1.503
Mof_C 	C 	0.6911	0.53535	0.4688	0.053
Mof_Al	Al	0.25	0.25	0.75	6.352
Mof_Al	Al	0.75	0.25	0.75	6.267
Mof_Al	Al	0.75	0.75	0.25	6.267
Mof_Al	Al	0.25	0.75	0.25	6.352
Mof_O 	O 	-1.28138e-32	0.25	0.6856	-2.201
Mof_O 	O 	0.5	0.75	0.1856	-2.227
Mof_O 	O 	-2.88219e-32	0.75	0.3144	-2.201
Mof_O 	O 	0.5	0.25	0.8144	-2.227
Mof_C 	C 	-1.0935e-32	0.063	0.9456	-0.248
Mof_C 	C 	6.28724e-33	0.13718	0.8701	1.158
Mof_C 	C 	0.5	0.563	0.4456	-0.285
Mof_C 	C 	0.5	0.63718	0.3701	1.115
Mof_C 	C 	-1.0935e-32	0.437	0.9456	-0.247
Mof_C 	C 	6.28724e-33	0.36282	0.8701	1.158
Mof_C 	C 	0.5	0.937	0.4456	-0.285
Mof_C 	C 	0.5	0.86282	0.3701	1.114
Mof_C 	C 	-1.84852e-32	0.563	0.0544	-0.247
Mof_C 	C 	7.60158e-33	0.63718	0.1299	1.158
Mof_C 	C 	0.5	0.063	0.5544	-0.285
Mof_C 	C 	0.5	0.13718	0.6299	1.114
Mof_C 	C 	-1.84852e-32	0.937	0.0544	-0.248
Mof_C 	C 	-1.01663e-32	0.86282	0.1299	1.158
Mof_C 	C 	0.5	0.437	0.5544	-0.285
Mof_C 	C 	0.5	0.36282	0.6299	1.115
_end
