# CIF file generated by openbabel 3.1.0, see https://openbabel.org
data_I
_chemical_name_common 'image0'
_cell_length_a 15.416
_cell_length_b 28.6414
_cell_length_c 36.813
_cell_angle_alpha 90
_cell_angle_beta 90
_cell_angle_gamma 90
_space_group_name_H-M_alt 'P 1'
_space_group_name_Hall 'P 1'
loop_
    _symmetry_equiv_pos_as_xyz
    x,y,z
loop_
    _atom_site_label
    _atom_site_type_symbol
    _atom_site_fract_x
    _atom_site_fract_y
    _atom_site_fract_z
    _atom_site_occupancy
    Cd1      Cd       0.46182    0.25811    0.55221    1.000
    O1       O        0.37024    0.31562    0.52038    1.000
    O2       O        0.50922    0.31600    0.50994    1.000
    C1       C        0.43310    0.32948    0.50289    1.000
    C2       C        0.41810    0.36334    0.47186    1.000
    C3       C        0.48340    0.36670    0.44860    1.000
    H1       H        0.47870    0.38610    0.42840    1.000
    H2       H        0.53390    0.34960    0.45240    1.000
    N1       N        0.32518    0.23934    0.57763    1.000
    C4       C        0.32100    0.22562    0.61229    1.000
    H3       H        0.37240    0.21760    0.62400    1.000
    C5       C        0.24470    0.22274    0.63165    1.000
    H4       H        0.24550    0.21330    0.65580    1.000
    C6       C        0.16646    0.23403    0.61489    1.000
    C7       C        0.17080    0.24691    0.57864    1.000
    H5       H        0.12020    0.25360    0.56590    1.000
    C8       C        0.25020    0.24986    0.56147    1.000
    H6       H        0.25150    0.25970    0.53740    1.000
    N2       N        0.45940    0.20890    0.50108    1.000
    N3       N        0.50856    0.05865    0.35038    1.000
    C9       C        0.41020    0.14301    0.46699    1.000
    H7       H        0.37060    0.11870    0.46460    1.000
    C10      C        0.40450    0.17388    0.49557    1.000
    H8       H        0.35930    0.17000    0.51200    1.000
    C11      C        0.52384    0.21396    0.47705    1.000
    H9       H        0.56340    0.23810    0.48050    1.000
    C12      C        0.53405    0.18519    0.44766    1.000
    H10      H        0.57980    0.19000    0.43160    1.000
    C13      C        0.47610    0.14885    0.44185    1.000
    C14      C        0.48508    0.11783    0.40984    1.000
    C15      C        0.46950    0.07013    0.41262    1.000
    H11      H        0.45080    0.05710    0.43440    1.000
    C16      C        0.48240    0.04250    0.38249    1.000
    H12      H        0.47220    0.01060    0.38470    1.000
    C17      C        0.52110    0.10432    0.34747    1.000
    H13      H        0.53790    0.11630    0.32510    1.000
    C18      C        0.51042    0.13490    0.37623    1.000
    H14      H        0.52020    0.16670    0.37300    1.000
    Cd2      Cd       0.46182    0.75811    0.05221    1.000
    O3       O        0.37024    0.81562    0.02038    1.000
    O4       O        0.50922    0.81600    0.00994    1.000
    C19      C        0.43310    0.82948    0.00289    1.000
    C20      C        0.41810    0.86334    0.97186    1.000
    C21      C        0.48340    0.86670    0.94860    1.000
    H15      H        0.47870    0.88610    0.92840    1.000
    H16      H        0.53390    0.84960    0.95240    1.000
    N4       N        0.32518    0.73934    0.07763    1.000
    C22      C        0.32100    0.72562    0.11229    1.000
    H17      H        0.37240    0.71760    0.12400    1.000
    C23      C        0.24470    0.72274    0.13165    1.000
    H18      H        0.24550    0.71330    0.15580    1.000
    C24      C        0.16646    0.73403    0.11489    1.000
    C25      C        0.17080    0.74691    0.07864    1.000
    H19      H        0.12020    0.75360    0.06590    1.000
    C26      C        0.25020    0.74986    0.06147    1.000
    H20      H        0.25150    0.75970    0.03740    1.000
    N5       N        0.45940    0.70890    0.00108    1.000
    N6       N        0.50856    0.55865    0.85038    1.000
    C27      C        0.41020    0.64301    0.96699    1.000
    H21      H        0.37060    0.61870    0.96460    1.000
    C28      C        0.40450    0.67388    0.99557    1.000
    H22      H        0.35930    0.67000    0.01200    1.000
    C29      C        0.52384    0.71396    0.97705    1.000
    H23      H        0.56340    0.73810    0.98050    1.000
    C30      C        0.53405    0.68519    0.94766    1.000
    H24      H        0.57980    0.69000    0.93160    1.000
    C31      C        0.47610    0.64885    0.94185    1.000
    C32      C        0.48508    0.61783    0.90984    1.000
    C33      C        0.46950    0.57013    0.91262    1.000
    H25      H        0.45080    0.55710    0.93440    1.000
    C34      C        0.48240    0.54250    0.88249    1.000
    H26      H        0.47220    0.51060    0.88470    1.000
    C35      C        0.52110    0.60432    0.84747    1.000
    H27      H        0.53790    0.61630    0.82510    1.000
    C36      C        0.51042    0.63490    0.87623    1.000
    H28      H        0.52020    0.66670    0.87300    1.000
    Cd3      Cd       0.96182    0.25811    0.05221    1.000
    O5       O        0.87024    0.31562    0.02038    1.000
    O6       O        0.00922    0.31600    0.00994    1.000
    C37      C        0.93310    0.32948    0.00289    1.000
    C38      C        0.91810    0.36334    0.97186    1.000
    C39      C        0.98340    0.36670    0.94860    1.000
    H29      H        0.97870    0.38610    0.92840    1.000
    H30      H        0.03390    0.34960    0.95240    1.000
    N7       N        0.82518    0.23934    0.07763    1.000
    C40      C        0.82100    0.22562    0.11229    1.000
    H31      H        0.87240    0.21760    0.12400    1.000
    C41      C        0.74470    0.22274    0.13165    1.000
    H32      H        0.74550    0.21330    0.15580    1.000
    C42      C        0.66646    0.23403    0.11489    1.000
    C43      C        0.67080    0.24691    0.07864    1.000
    H33      H        0.62020    0.25360    0.06590    1.000
    C44      C        0.75020    0.24986    0.06147    1.000
    H34      H        0.75150    0.25970    0.03740    1.000
    N8       N        0.95940    0.20890    0.00108    1.000
    N9       N        0.00856    0.05865    0.85038    1.000
    C45      C        0.91020    0.14301    0.96699    1.000
    H35      H        0.87060    0.11870    0.96460    1.000
    C46      C        0.90450    0.17388    0.99557    1.000
    H36      H        0.85930    0.17000    0.01200    1.000
    C47      C        0.02384    0.21396    0.97705    1.000
    H37      H        0.06340    0.23810    0.98050    1.000
    C48      C        0.03405    0.18519    0.94766    1.000
    H38      H        0.07980    0.19000    0.93160    1.000
    C49      C        0.97610    0.14885    0.94185    1.000
    C50      C        0.98508    0.11783    0.90984    1.000
    C51      C        0.96950    0.07013    0.91262    1.000
    H39      H        0.95080    0.05710    0.93440    1.000
    C52      C        0.98240    0.04250    0.88249    1.000
    H40      H        0.97220    0.01060    0.88470    1.000
    C53      C        0.02110    0.10432    0.84747    1.000
    H41      H        0.03790    0.11630    0.82510    1.000
    C54      C        0.01042    0.13490    0.87623    1.000
    H42      H        0.02020    0.16670    0.87300    1.000
    Cd4      Cd       0.96182    0.75811    0.55221    1.000
    O7       O        0.87024    0.81562    0.52038    1.000
    O8       O        0.00922    0.81600    0.50994    1.000
    C55      C        0.93310    0.82948    0.50289    1.000
    C56      C        0.91810    0.86334    0.47186    1.000
    C57      C        0.98340    0.86670    0.44860    1.000
    H43      H        0.97870    0.88610    0.42840    1.000
    H44      H        0.03390    0.84960    0.45240    1.000
    N10      N        0.82518    0.73934    0.57763    1.000
    C58      C        0.82100    0.72562    0.61229    1.000
    H45      H        0.87240    0.71760    0.62400    1.000
    C59      C        0.74470    0.72274    0.63165    1.000
    H46      H        0.74550    0.71330    0.65580    1.000
    C60      C        0.66646    0.73403    0.61489    1.000
    C61      C        0.67080    0.74691    0.57864    1.000
    H47      H        0.62020    0.75360    0.56590    1.000
    C62      C        0.75020    0.74986    0.56147    1.000
    H48      H        0.75150    0.75970    0.53740    1.000
    N11      N        0.95940    0.70890    0.50108    1.000
    N12      N        0.00856    0.55865    0.35038    1.000
    C63      C        0.91020    0.64301    0.46699    1.000
    H49      H        0.87060    0.61870    0.46460    1.000
    C64      C        0.90450    0.67388    0.49557    1.000
    H50      H        0.85930    0.67000    0.51200    1.000
    C65      C        0.02384    0.71396    0.47705    1.000
    H51      H        0.06340    0.73810    0.48050    1.000
    C66      C        0.03405    0.68519    0.44766    1.000
    H52      H        0.07980    0.69000    0.43160    1.000
    C67      C        0.97610    0.64885    0.44185    1.000
    C68      C        0.98508    0.61783    0.40984    1.000
    C69      C        0.96950    0.57013    0.41262    1.000
    H53      H        0.95080    0.55710    0.43440    1.000
    C70      C        0.98240    0.54250    0.38249    1.000
    H54      H        0.97220    0.51060    0.38470    1.000
    C71      C        0.02110    0.60432    0.34747    1.000
    H55      H        0.03790    0.61630    0.32510    1.000
    C72      C        0.01042    0.63490    0.37623    1.000
    H56      H        0.02020    0.66670    0.37300    1.000
    Cd5      Cd       0.28818    0.49189    0.55221    1.000
    O9       O        0.37976    0.43438    0.52038    1.000
    O10      O        0.24078    0.43400    0.50994    1.000
    C73      C        0.31690    0.42052    0.50289    1.000
    C74      C        0.33190    0.38666    0.47186    1.000
    C75      C        0.26660    0.38330    0.44860    1.000
    H57      H        0.27130    0.36390    0.42840    1.000
    H58      H        0.21610    0.40040    0.45240    1.000
    N13      N        0.42482    0.51066    0.57763    1.000
    C76      C        0.42900    0.52438    0.61229    1.000
    H59      H        0.37760    0.53240    0.62400    1.000
    C77      C        0.50530    0.52726    0.63165    1.000
    H60      H        0.50450    0.53670    0.65580    1.000
    C78      C        0.58354    0.51597    0.61489    1.000
    C79      C        0.57920    0.50309    0.57864    1.000
    H61      H        0.62980    0.49640    0.56590    1.000
    C80      C        0.49980    0.50014    0.56147    1.000
    H62      H        0.49850    0.49030    0.53740    1.000
    N14      N        0.29060    0.54110    0.50108    1.000
    N15      N        0.24144    0.69135    0.35038    1.000
    C81      C        0.33980    0.60699    0.46699    1.000
    H63      H        0.37940    0.63130    0.46460    1.000
    C82      C        0.34550    0.57612    0.49557    1.000
    H64      H        0.39070    0.58000    0.51200    1.000
    C83      C        0.22616    0.53604    0.47705    1.000
    H65      H        0.18660    0.51190    0.48050    1.000
    C84      C        0.21595    0.56481    0.44766    1.000
    H66      H        0.17020    0.56000    0.43160    1.000
    C85      C        0.27390    0.60115    0.44185    1.000
    C86      C        0.26492    0.63217    0.40984    1.000
    C87      C        0.28050    0.67987    0.41262    1.000
    H67      H        0.29920    0.69290    0.43440    1.000
    C88      C        0.26760    0.70750    0.38249    1.000
    H68      H        0.27780    0.73940    0.38470    1.000
    C89      C        0.22890    0.64568    0.34747    1.000
    H69      H        0.21210    0.63370    0.32510    1.000
    C90      C        0.23958    0.61510    0.37623    1.000
    H70      H        0.22980    0.58330    0.37300    1.000
    Cd6      Cd       0.28818    0.99189    0.05221    1.000
    O11      O        0.37976    0.93438    0.02038    1.000
    O12      O        0.24078    0.93400    0.00994    1.000
    C91      C        0.31690    0.92052    0.00289    1.000
    C92      C        0.33190    0.88666    0.97186    1.000
    C93      C        0.26660    0.88330    0.94860    1.000
    H71      H        0.27130    0.86390    0.92840    1.000
    H72      H        0.21610    0.90040    0.95240    1.000
    N16      N        0.42482    0.01066    0.07763    1.000
    C94      C        0.42900    0.02438    0.11229    1.000
    H73      H        0.37760    0.03240    0.12400    1.000
    C95      C        0.50530    0.02726    0.13165    1.000
    H74      H        0.50450    0.03670    0.15580    1.000
    C96      C        0.58354    0.01597    0.11489    1.000
    C97      C        0.57920    0.00309    0.07864    1.000
    H75      H        0.62980    0.99640    0.06590    1.000
    C98      C        0.49980    0.00014    0.06147    1.000
    H76      H        0.49850    0.99030    0.03740    1.000
    N17      N        0.29060    0.04110    0.00108    1.000
    N18      N        0.24144    0.19135    0.85038    1.000
    C99      C        0.33980    0.10699    0.96699    1.000
    H77      H        0.37940    0.13130    0.96460    1.000
    C100     C        0.34550    0.07612    0.99557    1.000
    H78      H        0.39070    0.08000    0.01200    1.000
    C101     C        0.22616    0.03604    0.97705    1.000
    H79      H        0.18660    0.01190    0.98050    1.000
    C102     C        0.21595    0.06481    0.94766    1.000
    H80      H        0.17020    0.06000    0.93160    1.000
    C103     C        0.27390    0.10115    0.94185    1.000
    C104     C        0.26492    0.13217    0.90984    1.000
    C105     C        0.28050    0.17987    0.91262    1.000
    H81      H        0.29920    0.19290    0.93440    1.000
    C106     C        0.26760    0.20750    0.88249    1.000
    H82      H        0.27780    0.23940    0.88470    1.000
    C107     C        0.22890    0.14568    0.84747    1.000
    H83      H        0.21210    0.13370    0.82510    1.000
    C108     C        0.23958    0.11510    0.87623    1.000
    H84      H        0.22980    0.08330    0.87300    1.000
    Cd7      Cd       0.78818    0.49189    0.05221    1.000
    O13      O        0.87976    0.43438    0.02038    1.000
    O14      O        0.74078    0.43400    0.00994    1.000
    C109     C        0.81690    0.42052    0.00289    1.000
    C110     C        0.83190    0.38666    0.97186    1.000
    C111     C        0.76660    0.38330    0.94860    1.000
    H85      H        0.77130    0.36390    0.92840    1.000
    H86      H        0.71610    0.40040    0.95240    1.000
    N19      N        0.92482    0.51066    0.07763    1.000
    C112     C        0.92900    0.52438    0.11229    1.000
    H87      H        0.87760    0.53240    0.12400    1.000
    C113     C        0.00530    0.52726    0.13165    1.000
    H88      H        0.00450    0.53670    0.15580    1.000
    C114     C        0.08354    0.51597    0.11489    1.000
    C115     C        0.07920    0.50309    0.07864    1.000
    H89      H        0.12980    0.49640    0.06590    1.000
    C116     C        0.99980    0.50014    0.06147    1.000
    H90      H        0.99850    0.49030    0.03740    1.000
    N20      N        0.79060    0.54110    0.00108    1.000
    N21      N        0.74144    0.69135    0.85038    1.000
    C117     C        0.83980    0.60699    0.96699    1.000
    H91      H        0.87940    0.63130    0.96460    1.000
    C118     C        0.84550    0.57612    0.99557    1.000
    H92      H        0.89070    0.58000    0.01200    1.000
    C119     C        0.72616    0.53604    0.97705    1.000
    H93      H        0.68660    0.51190    0.98050    1.000
    C120     C        0.71595    0.56481    0.94766    1.000
    H94      H        0.67020    0.56000    0.93160    1.000
    C121     C        0.77390    0.60115    0.94185    1.000
    C122     C        0.76492    0.63217    0.90984    1.000
    C123     C        0.78050    0.67987    0.91262    1.000
    H95      H        0.79920    0.69290    0.93440    1.000
    C124     C        0.76760    0.70750    0.88249    1.000
    H96      H        0.77780    0.73940    0.88470    1.000
    C125     C        0.72890    0.64568    0.84747    1.000
    H97      H        0.71210    0.63370    0.82510    1.000
    C126     C        0.73958    0.61510    0.87623    1.000
    H98      H        0.72980    0.58330    0.87300    1.000
    Cd8      Cd       0.78818    0.99189    0.55221    1.000
    O15      O        0.87976    0.93438    0.52038    1.000
    O16      O        0.74078    0.93400    0.50994    1.000
    C127     C        0.81690    0.92052    0.50289    1.000
    C128     C        0.83190    0.88666    0.47186    1.000
    C129     C        0.76660    0.88330    0.44860    1.000
    H99      H        0.77130    0.86390    0.42840    1.000
    H100     H        0.71610    0.90040    0.45240    1.000
    N22      N        0.92482    0.01066    0.57763    1.000
    C130     C        0.92900    0.02438    0.61229    1.000
    H101     H        0.87760    0.03240    0.62400    1.000
    C131     C        0.00530    0.02726    0.63165    1.000
    H102     H        0.00450    0.03670    0.65580    1.000
    C132     C        0.08354    0.01597    0.61489    1.000
    C133     C        0.07920    0.00309    0.57864    1.000
    H103     H        0.12980    0.99640    0.56590    1.000
    C134     C        0.99980    0.00014    0.56147    1.000
    H104     H        0.99850    0.99030    0.53740    1.000
    N23      N        0.79060    0.04110    0.50108    1.000
    N24      N        0.74144    0.19135    0.35038    1.000
    C135     C        0.83980    0.10699    0.46699    1.000
    H105     H        0.87940    0.13130    0.46460    1.000
    C136     C        0.84550    0.07612    0.49557    1.000
    H106     H        0.89070    0.08000    0.51200    1.000
    C137     C        0.72616    0.03604    0.47705    1.000
    H107     H        0.68660    0.01190    0.48050    1.000
    C138     C        0.71595    0.06481    0.44766    1.000
    H108     H        0.67020    0.06000    0.43160    1.000
    C139     C        0.77390    0.10115    0.44185    1.000
    C140     C        0.76492    0.13217    0.40984    1.000
    C141     C        0.78050    0.17987    0.41262    1.000
    H109     H        0.79920    0.19290    0.43440    1.000
    C142     C        0.76760    0.20750    0.38249    1.000
    H110     H        0.77780    0.23940    0.38470    1.000
    C143     C        0.72890    0.14568    0.34747    1.000
    H111     H        0.71210    0.13370    0.32510    1.000
    C144     C        0.73958    0.11510    0.37623    1.000
    H112     H        0.72980    0.08330    0.37300    1.000
    Cd9      Cd       0.28818    0.25811    0.19779    1.000
    O17      O        0.37976    0.31562    0.22962    1.000
    O18      O        0.24078    0.31600    0.24006    1.000
    C145     C        0.31690    0.32948    0.24711    1.000
    C146     C        0.33190    0.36334    0.27814    1.000
    C147     C        0.26660    0.36670    0.30140    1.000
    H113     H        0.27130    0.38610    0.32160    1.000
    H114     H        0.21610    0.34960    0.29760    1.000
    N25      N        0.42482    0.23934    0.17237    1.000
    C148     C        0.42900    0.22562    0.13771    1.000
    H115     H        0.37760    0.21760    0.12600    1.000
    C149     C        0.50530    0.22274    0.11835    1.000
    H116     H        0.50450    0.21330    0.09420    1.000
    C150     C        0.58354    0.23403    0.13511    1.000
    C151     C        0.57920    0.24691    0.17136    1.000
    H117     H        0.62980    0.25360    0.18410    1.000
    C152     C        0.49980    0.24986    0.18853    1.000
    H118     H        0.49850    0.25970    0.21260    1.000
    N26      N        0.29060    0.20890    0.24892    1.000
    N27      N        0.24144    0.05865    0.39962    1.000
    C153     C        0.33980    0.14301    0.28301    1.000
    H119     H        0.37940    0.11870    0.28540    1.000
    C154     C        0.34550    0.17388    0.25443    1.000
    H120     H        0.39070    0.17000    0.23800    1.000
    C155     C        0.22616    0.21396    0.27295    1.000
    H121     H        0.18660    0.23810    0.26950    1.000
    C156     C        0.21595    0.18519    0.30234    1.000
    H122     H        0.17020    0.19000    0.31840    1.000
    C157     C        0.27390    0.14885    0.30815    1.000
    C158     C        0.26492    0.11783    0.34016    1.000
    C159     C        0.28050    0.07013    0.33738    1.000
    H123     H        0.29920    0.05710    0.31560    1.000
    C160     C        0.26760    0.04250    0.36751    1.000
    H124     H        0.27780    0.01060    0.36530    1.000
    C161     C        0.22890    0.10432    0.40253    1.000
    H125     H        0.21210    0.11630    0.42490    1.000
    C162     C        0.23958    0.13490    0.37377    1.000
    H126     H        0.22980    0.16670    0.37700    1.000
    Cd10     Cd       0.28818    0.75811    0.69779    1.000
    O19      O        0.37976    0.81562    0.72962    1.000
    O20      O        0.24078    0.81600    0.74006    1.000
    C163     C        0.31690    0.82948    0.74711    1.000
    C164     C        0.33190    0.86334    0.77814    1.000
    C165     C        0.26660    0.86670    0.80140    1.000
    H127     H        0.27130    0.88610    0.82160    1.000
    H128     H        0.21610    0.84960    0.79760    1.000
    N28      N        0.42482    0.73934    0.67237    1.000
    C166     C        0.42900    0.72562    0.63771    1.000
    H129     H        0.37760    0.71760    0.62600    1.000
    C167     C        0.50530    0.72274    0.61835    1.000
    H130     H        0.50450    0.71330    0.59420    1.000
    C168     C        0.58354    0.73403    0.63511    1.000
    C169     C        0.57920    0.74691    0.67136    1.000
    H131     H        0.62980    0.75360    0.68410    1.000
    C170     C        0.49980    0.74986    0.68853    1.000
    H132     H        0.49850    0.75970    0.71260    1.000
    N29      N        0.29060    0.70890    0.74892    1.000
    N30      N        0.24144    0.55865    0.89962    1.000
    C171     C        0.33980    0.64301    0.78301    1.000
    H133     H        0.37940    0.61870    0.78540    1.000
    C172     C        0.34550    0.67388    0.75443    1.000
    H134     H        0.39070    0.67000    0.73800    1.000
    C173     C        0.22616    0.71396    0.77295    1.000
    H135     H        0.18660    0.73810    0.76950    1.000
    C174     C        0.21595    0.68519    0.80234    1.000
    H136     H        0.17020    0.69000    0.81840    1.000
    C175     C        0.27390    0.64885    0.80815    1.000
    C176     C        0.26492    0.61783    0.84016    1.000
    C177     C        0.28050    0.57013    0.83738    1.000
    H137     H        0.29920    0.55710    0.81560    1.000
    C178     C        0.26760    0.54250    0.86751    1.000
    H138     H        0.27780    0.51060    0.86530    1.000
    C179     C        0.22890    0.60432    0.90253    1.000
    H139     H        0.21210    0.61630    0.92490    1.000
    C180     C        0.23958    0.63490    0.87377    1.000
    H140     H        0.22980    0.66670    0.87700    1.000
    Cd11     Cd       0.78818    0.25811    0.69779    1.000
    O21      O        0.87976    0.31562    0.72962    1.000
    O22      O        0.74078    0.31600    0.74006    1.000
    C181     C        0.81690    0.32948    0.74711    1.000
    C182     C        0.83190    0.36334    0.77814    1.000
    C183     C        0.76660    0.36670    0.80140    1.000
    H141     H        0.77130    0.38610    0.82160    1.000
    H142     H        0.71610    0.34960    0.79760    1.000
    N31      N        0.92482    0.23934    0.67237    1.000
    C184     C        0.92900    0.22562    0.63771    1.000
    H143     H        0.87760    0.21760    0.62600    1.000
    C185     C        0.00530    0.22274    0.61835    1.000
    H144     H        0.00450    0.21330    0.59420    1.000
    C186     C        0.08354    0.23403    0.63511    1.000
    C187     C        0.07920    0.24691    0.67136    1.000
    H145     H        0.12980    0.25360    0.68410    1.000
    C188     C        0.99980    0.24986    0.68853    1.000
    H146     H        0.99850    0.25970    0.71260    1.000
    N32      N        0.79060    0.20890    0.74892    1.000
    N33      N        0.74144    0.05865    0.89962    1.000
    C189     C        0.83980    0.14301    0.78301    1.000
    H147     H        0.87940    0.11870    0.78540    1.000
    C190     C        0.84550    0.17388    0.75443    1.000
    H148     H        0.89070    0.17000    0.73800    1.000
    C191     C        0.72616    0.21396    0.77295    1.000
    H149     H        0.68660    0.23810    0.76950    1.000
    C192     C        0.71595    0.18519    0.80234    1.000
    H150     H        0.67020    0.19000    0.81840    1.000
    C193     C        0.77390    0.14885    0.80815    1.000
    C194     C        0.76492    0.11783    0.84016    1.000
    C195     C        0.78050    0.07013    0.83738    1.000
    H151     H        0.79920    0.05710    0.81560    1.000
    C196     C        0.76760    0.04250    0.86751    1.000
    H152     H        0.77780    0.01060    0.86530    1.000
    C197     C        0.72890    0.10432    0.90253    1.000
    H153     H        0.71210    0.11630    0.92490    1.000
    C198     C        0.73958    0.13490    0.87377    1.000
    H154     H        0.72980    0.16670    0.87700    1.000
    Cd12     Cd       0.78818    0.75811    0.19779    1.000
    O23      O        0.87976    0.81562    0.22962    1.000
    O24      O        0.74078    0.81600    0.24006    1.000
    C199     C        0.81690    0.82948    0.24711    1.000
    C200     C        0.83190    0.86334    0.27814    1.000
    C201     C        0.76660    0.86670    0.30140    1.000
    H155     H        0.77130    0.88610    0.32160    1.000
    H156     H        0.71610    0.84960    0.29760    1.000
    N34      N        0.92482    0.73934    0.17237    1.000
    C202     C        0.92900    0.72562    0.13771    1.000
    H157     H        0.87760    0.71760    0.12600    1.000
    C203     C        0.00530    0.72274    0.11835    1.000
    H158     H        0.00450    0.71330    0.09420    1.000
    C204     C        0.08354    0.73403    0.13511    1.000
    C205     C        0.07920    0.74691    0.17136    1.000
    H159     H        0.12980    0.75360    0.18410    1.000
    C206     C        0.99980    0.74986    0.18853    1.000
    H160     H        0.99850    0.75970    0.21260    1.000
    N35      N        0.79060    0.70890    0.24892    1.000
    N36      N        0.74144    0.55865    0.39962    1.000
    C207     C        0.83980    0.64301    0.28301    1.000
    H161     H        0.87940    0.61870    0.28540    1.000
    C208     C        0.84550    0.67388    0.25443    1.000
    H162     H        0.89070    0.67000    0.23800    1.000
    C209     C        0.72616    0.71396    0.27295    1.000
    H163     H        0.68660    0.73810    0.26950    1.000
    C210     C        0.71595    0.68519    0.30234    1.000
    H164     H        0.67020    0.69000    0.31840    1.000
    C211     C        0.77390    0.64885    0.30815    1.000
    C212     C        0.76492    0.61783    0.34016    1.000
    C213     C        0.78050    0.57013    0.33738    1.000
    H165     H        0.79920    0.55710    0.31560    1.000
    C214     C        0.76760    0.54250    0.36751    1.000
    H166     H        0.77780    0.51060    0.36530    1.000
    C215     C        0.72890    0.60432    0.40253    1.000
    H167     H        0.71210    0.61630    0.42490    1.000
    C216     C        0.73958    0.63490    0.37377    1.000
    H168     H        0.72980    0.66670    0.37700    1.000
    Cd13     Cd       0.46182    0.49189    0.19779    1.000
    O25      O        0.37024    0.43438    0.22962    1.000
    O26      O        0.50922    0.43400    0.24006    1.000
    C217     C        0.43310    0.42052    0.24711    1.000
    C218     C        0.41810    0.38666    0.27814    1.000
    C219     C        0.48340    0.38330    0.30140    1.000
    H169     H        0.47870    0.36390    0.32160    1.000
    H170     H        0.53390    0.40040    0.29760    1.000
    N37      N        0.32518    0.51066    0.17237    1.000
    C220     C        0.32100    0.52438    0.13771    1.000
    H171     H        0.37240    0.53240    0.12600    1.000
    C221     C        0.24470    0.52726    0.11835    1.000
    H172     H        0.24550    0.53670    0.09420    1.000
    C222     C        0.16646    0.51597    0.13511    1.000
    C223     C        0.17080    0.50309    0.17136    1.000
    H173     H        0.12020    0.49640    0.18410    1.000
    C224     C        0.25020    0.50014    0.18853    1.000
    H174     H        0.25150    0.49030    0.21260    1.000
    N38      N        0.45940    0.54110    0.24892    1.000
    N39      N        0.50856    0.69135    0.39962    1.000
    C225     C        0.41020    0.60699    0.28301    1.000
    H175     H        0.37060    0.63130    0.28540    1.000
    C226     C        0.40450    0.57612    0.25443    1.000
    H176     H        0.35930    0.58000    0.23800    1.000
    C227     C        0.52384    0.53604    0.27295    1.000
    H177     H        0.56340    0.51190    0.26950    1.000
    C228     C        0.53405    0.56481    0.30234    1.000
    H178     H        0.57980    0.56000    0.31840    1.000
    C229     C        0.47610    0.60115    0.30815    1.000
    C230     C        0.48508    0.63217    0.34016    1.000
    C231     C        0.46950    0.67987    0.33738    1.000
    H179     H        0.45080    0.69290    0.31560    1.000
    C232     C        0.48240    0.70750    0.36751    1.000
    H180     H        0.47220    0.73940    0.36530    1.000
    C233     C        0.52110    0.64568    0.40253    1.000
    H181     H        0.53790    0.63370    0.42490    1.000
    C234     C        0.51042    0.61510    0.37377    1.000
    H182     H        0.52020    0.58330    0.37700    1.000
    Cd14     Cd       0.46182    0.99189    0.69779    1.000
    O27      O        0.37024    0.93438    0.72962    1.000
    O28      O        0.50922    0.93400    0.74006    1.000
    C235     C        0.43310    0.92052    0.74711    1.000
    C236     C        0.41810    0.88666    0.77814    1.000
    C237     C        0.48340    0.88330    0.80140    1.000
    H183     H        0.47870    0.86390    0.82160    1.000
    H184     H        0.53390    0.90040    0.79760    1.000
    N40      N        0.32518    0.01066    0.67237    1.000
    C238     C        0.32100    0.02438    0.63771    1.000
    H185     H        0.37240    0.03240    0.62600    1.000
    C239     C        0.24470    0.02726    0.61835    1.000
    H186     H        0.24550    0.03670    0.59420    1.000
    C240     C        0.16646    0.01597    0.63511    1.000
    C241     C        0.17080    0.00309    0.67136    1.000
    H187     H        0.12020    0.99640    0.68410    1.000
    C242     C        0.25020    0.00014    0.68853    1.000
    H188     H        0.25150    0.99030    0.71260    1.000
    N41      N        0.45940    0.04110    0.74892    1.000
    N42      N        0.50856    0.19135    0.89962    1.000
    C243     C        0.41020    0.10699    0.78301    1.000
    H189     H        0.37060    0.13130    0.78540    1.000
    C244     C        0.40450    0.07612    0.75443    1.000
    H190     H        0.35930    0.08000    0.73800    1.000
    C245     C        0.52384    0.03604    0.77295    1.000
    H191     H        0.56340    0.01190    0.76950    1.000
    C246     C        0.53405    0.06481    0.80234    1.000
    H192     H        0.57980    0.06000    0.81840    1.000
    C247     C        0.47610    0.10115    0.80815    1.000
    C248     C        0.48508    0.13217    0.84016    1.000
    C249     C        0.46950    0.17987    0.83738    1.000
    H193     H        0.45080    0.19290    0.81560    1.000
    C250     C        0.48240    0.20750    0.86751    1.000
    H194     H        0.47220    0.23940    0.86530    1.000
    C251     C        0.52110    0.14568    0.90253    1.000
    H195     H        0.53790    0.13370    0.92490    1.000
    C252     C        0.51042    0.11510    0.87377    1.000
    H196     H        0.52020    0.08330    0.87700    1.000
    Cd15     Cd       0.96182    0.49189    0.69779    1.000
    O29      O        0.87024    0.43438    0.72962    1.000
    O30      O        0.00922    0.43400    0.74006    1.000
    C253     C        0.93310    0.42052    0.74711    1.000
    C254     C        0.91810    0.38666    0.77814    1.000
    C255     C        0.98340    0.38330    0.80140    1.000
    H197     H        0.97870    0.36390    0.82160    1.000
    H198     H        0.03390    0.40040    0.79760    1.000
    N43      N        0.82518    0.51066    0.67237    1.000
    C256     C        0.82100    0.52438    0.63771    1.000
    H199     H        0.87240    0.53240    0.62600    1.000
    C257     C        0.74470    0.52726    0.61835    1.000
    H200     H        0.74550    0.53670    0.59420    1.000
    C258     C        0.66646    0.51597    0.63511    1.000
    C259     C        0.67080    0.50309    0.67136    1.000
    H201     H        0.62020    0.49640    0.68410    1.000
    C260     C        0.75020    0.50014    0.68853    1.000
    H202     H        0.75150    0.49030    0.71260    1.000
    N44      N        0.95940    0.54110    0.74892    1.000
    N45      N        0.00856    0.69135    0.89962    1.000
    C261     C        0.91020    0.60699    0.78301    1.000
    H203     H        0.87060    0.63130    0.78540    1.000
    C262     C        0.90450    0.57612    0.75443    1.000
    H204     H        0.85930    0.58000    0.73800    1.000
    C263     C        0.02384    0.53604    0.77295    1.000
    H205     H        0.06340    0.51190    0.76950    1.000
    C264     C        0.03405    0.56481    0.80234    1.000
    H206     H        0.07980    0.56000    0.81840    1.000
    C265     C        0.97610    0.60115    0.80815    1.000
    C266     C        0.98508    0.63217    0.84016    1.000
    C267     C        0.96950    0.67987    0.83738    1.000
    H207     H        0.95080    0.69290    0.81560    1.000
    C268     C        0.98240    0.70750    0.86751    1.000
    H208     H        0.97220    0.73940    0.86530    1.000
    C269     C        0.02110    0.64568    0.90253    1.000
    H209     H        0.03790    0.63370    0.92490    1.000
    C270     C        0.01042    0.61510    0.87377    1.000
    H210     H        0.02020    0.58330    0.87700    1.000
    Cd16     Cd       0.96182    0.99189    0.19779    1.000
    O31      O        0.87024    0.93438    0.22962    1.000
    O32      O        0.00922    0.93400    0.24006    1.000
    C271     C        0.93310    0.92052    0.24711    1.000
    C272     C        0.91810    0.88666    0.27814    1.000
    C273     C        0.98340    0.88330    0.30140    1.000
    H211     H        0.97870    0.86390    0.32160    1.000
    H212     H        0.03390    0.90040    0.29760    1.000
    N46      N        0.82518    0.01066    0.17237    1.000
    C274     C        0.82100    0.02438    0.13771    1.000
    H213     H        0.87240    0.03240    0.12600    1.000
    C275     C        0.74470    0.02726    0.11835    1.000
    H214     H        0.74550    0.03670    0.09420    1.000
    C276     C        0.66646    0.01597    0.13511    1.000
    C277     C        0.67080    0.00309    0.17136    1.000
    H215     H        0.62020    0.99640    0.18410    1.000
    C278     C        0.75020    0.00014    0.18853    1.000
    H216     H        0.75150    0.99030    0.21260    1.000
    N47      N        0.95940    0.04110    0.24892    1.000
    N48      N        0.00856    0.19135    0.39962    1.000
    C279     C        0.91020    0.10699    0.28301    1.000
    H217     H        0.87060    0.13130    0.28540    1.000
    C280     C        0.90450    0.07612    0.25443    1.000
    H218     H        0.85930    0.08000    0.23800    1.000
    C281     C        0.02384    0.03604    0.27295    1.000
    H219     H        0.06340    0.01190    0.26950    1.000
    C282     C        0.03405    0.06481    0.30234    1.000
    H220     H        0.07980    0.06000    0.31840    1.000
    C283     C        0.97610    0.10115    0.30815    1.000
    C284     C        0.98508    0.13217    0.34016    1.000
    C285     C        0.96950    0.17987    0.33738    1.000
    H221     H        0.95080    0.19290    0.31560    1.000
    C286     C        0.98240    0.20750    0.36751    1.000
    H222     H        0.97220    0.23940    0.36530    1.000
    C287     C        0.02110    0.14568    0.40253    1.000
    H223     H        0.03790    0.13370    0.42490    1.000
    C288     C        0.01042    0.11510    0.37377    1.000
    H224     H        0.02020    0.08330    0.37700    1.000
    Cd17     Cd       0.53818    0.74189    0.44779    1.000
    O33      O        0.62976    0.68438    0.47962    1.000
    O34      O        0.49078    0.68400    0.49006    1.000
    C289     C        0.56690    0.67052    0.49711    1.000
    C290     C        0.58190    0.63666    0.52814    1.000
    C291     C        0.51660    0.63330    0.55140    1.000
    H225     H        0.52130    0.61390    0.57160    1.000
    H226     H        0.46610    0.65040    0.54760    1.000
    N49      N        0.67482    0.76066    0.42237    1.000
    C292     C        0.67900    0.77438    0.38771    1.000
    H227     H        0.62760    0.78240    0.37600    1.000
    C293     C        0.75530    0.77726    0.36835    1.000
    H228     H        0.75450    0.78670    0.34420    1.000
    C294     C        0.83354    0.76597    0.38511    1.000
    C295     C        0.82920    0.75309    0.42136    1.000
    H229     H        0.87980    0.74640    0.43410    1.000
    C296     C        0.74980    0.75014    0.43853    1.000
    H230     H        0.74850    0.74030    0.46260    1.000
    N50      N        0.54060    0.79110    0.49892    1.000
    N51      N        0.49144    0.94135    0.64962    1.000
    C297     C        0.58980    0.85699    0.53301    1.000
    H231     H        0.62940    0.88130    0.53540    1.000
    C298     C        0.59550    0.82612    0.50443    1.000
    H232     H        0.64070    0.83000    0.48800    1.000
    C299     C        0.47616    0.78604    0.52295    1.000
    H233     H        0.43660    0.76190    0.51950    1.000
    C300     C        0.46595    0.81481    0.55234    1.000
    H234     H        0.42020    0.81000    0.56840    1.000
    C301     C        0.52390    0.85115    0.55815    1.000
    C302     C        0.51492    0.88217    0.59016    1.000
    C303     C        0.53050    0.92987    0.58738    1.000
    H235     H        0.54920    0.94290    0.56560    1.000
    C304     C        0.51760    0.95750    0.61751    1.000
    H236     H        0.52780    0.98940    0.61530    1.000
    C305     C        0.47890    0.89568    0.65253    1.000
    H237     H        0.46210    0.88370    0.67490    1.000
    C306     C        0.48958    0.86510    0.62377    1.000
    H238     H        0.47980    0.83330    0.62700    1.000
    Cd18     Cd       0.53818    0.24189    0.94779    1.000
    O35      O        0.62976    0.18438    0.97962    1.000
    O36      O        0.49078    0.18400    0.99006    1.000
    C307     C        0.56690    0.17052    0.99711    1.000
    C308     C        0.58190    0.13666    0.02814    1.000
    C309     C        0.51660    0.13330    0.05140    1.000
    H239     H        0.52130    0.11390    0.07160    1.000
    H240     H        0.46610    0.15040    0.04760    1.000
    N52      N        0.67482    0.26066    0.92237    1.000
    C310     C        0.67900    0.27438    0.88771    1.000
    H241     H        0.62760    0.28240    0.87600    1.000
    C311     C        0.75530    0.27726    0.86835    1.000
    H242     H        0.75450    0.28670    0.84420    1.000
    C312     C        0.83354    0.26597    0.88511    1.000
    C313     C        0.82920    0.25309    0.92136    1.000
    H243     H        0.87980    0.24640    0.93410    1.000
    C314     C        0.74980    0.25014    0.93853    1.000
    H244     H        0.74850    0.24030    0.96260    1.000
    N53      N        0.54060    0.29110    0.99892    1.000
    N54      N        0.49144    0.44135    0.14962    1.000
    C315     C        0.58980    0.35699    0.03301    1.000
    H245     H        0.62940    0.38130    0.03540    1.000
    C316     C        0.59550    0.32612    0.00443    1.000
    H246     H        0.64070    0.33000    0.98800    1.000
    C317     C        0.47616    0.28604    0.02295    1.000
    H247     H        0.43660    0.26190    0.01950    1.000
    C318     C        0.46595    0.31481    0.05234    1.000
    H248     H        0.42020    0.31000    0.06840    1.000
    C319     C        0.52390    0.35115    0.05815    1.000
    C320     C        0.51492    0.38217    0.09016    1.000
    C321     C        0.53050    0.42987    0.08738    1.000
    H249     H        0.54920    0.44290    0.06560    1.000
    C322     C        0.51760    0.45750    0.11751    1.000
    H250     H        0.52780    0.48940    0.11530    1.000
    C323     C        0.47890    0.39568    0.15253    1.000
    H251     H        0.46210    0.38370    0.17490    1.000
    C324     C        0.48958    0.36510    0.12377    1.000
    H252     H        0.47980    0.33330    0.12700    1.000
    Cd19     Cd       0.03818    0.74189    0.94779    1.000
    O37      O        0.12976    0.68438    0.97962    1.000
    O38      O        0.99078    0.68400    0.99006    1.000
    C325     C        0.06690    0.67052    0.99711    1.000
    C326     C        0.08190    0.63666    0.02814    1.000
    C327     C        0.01660    0.63330    0.05140    1.000
    H253     H        0.02130    0.61390    0.07160    1.000
    H254     H        0.96610    0.65040    0.04760    1.000
    N55      N        0.17482    0.76066    0.92237    1.000
    C328     C        0.17900    0.77438    0.88771    1.000
    H255     H        0.12760    0.78240    0.87600    1.000
    C329     C        0.25530    0.77726    0.86835    1.000
    H256     H        0.25450    0.78670    0.84420    1.000
    C330     C        0.33354    0.76597    0.88511    1.000
    C331     C        0.32920    0.75309    0.92136    1.000
    H257     H        0.37980    0.74640    0.93410    1.000
    C332     C        0.24980    0.75014    0.93853    1.000
    H258     H        0.24850    0.74030    0.96260    1.000
    N56      N        0.04060    0.79110    0.99892    1.000
    N57      N        0.99144    0.94135    0.14962    1.000
    C333     C        0.08980    0.85699    0.03301    1.000
    H259     H        0.12940    0.88130    0.03540    1.000
    C334     C        0.09550    0.82612    0.00443    1.000
    H260     H        0.14070    0.83000    0.98800    1.000
    C335     C        0.97616    0.78604    0.02295    1.000
    H261     H        0.93660    0.76190    0.01950    1.000
    C336     C        0.96595    0.81481    0.05234    1.000
    H262     H        0.92020    0.81000    0.06840    1.000
    C337     C        0.02390    0.85115    0.05815    1.000
    C338     C        0.01492    0.88217    0.09016    1.000
    C339     C        0.03050    0.92987    0.08738    1.000
    H263     H        0.04920    0.94290    0.06560    1.000
    C340     C        0.01760    0.95750    0.11751    1.000
    H264     H        0.02780    0.98940    0.11530    1.000
    C341     C        0.97890    0.89568    0.15253    1.000
    H265     H        0.96210    0.88370    0.17490    1.000
    C342     C        0.98958    0.86510    0.12377    1.000
    H266     H        0.97980    0.83330    0.12700    1.000
    Cd20     Cd       0.03818    0.24189    0.44779    1.000
    O39      O        0.12976    0.18438    0.47962    1.000
    O40      O        0.99078    0.18400    0.49006    1.000
    C343     C        0.06690    0.17052    0.49711    1.000
    C344     C        0.08190    0.13666    0.52814    1.000
    C345     C        0.01660    0.13330    0.55140    1.000
    H267     H        0.02130    0.11390    0.57160    1.000
    H268     H        0.96610    0.15040    0.54760    1.000
    N58      N        0.17482    0.26066    0.42237    1.000
    C346     C        0.17900    0.27438    0.38771    1.000
    H269     H        0.12760    0.28240    0.37600    1.000
    C347     C        0.25530    0.27726    0.36835    1.000
    H270     H        0.25450    0.28670    0.34420    1.000
    C348     C        0.33354    0.26597    0.38511    1.000
    C349     C        0.32920    0.25309    0.42136    1.000
    H271     H        0.37980    0.24640    0.43410    1.000
    C350     C        0.24980    0.25014    0.43853    1.000
    H272     H        0.24850    0.24030    0.46260    1.000
    N59      N        0.04060    0.29110    0.49892    1.000
    N60      N        0.99144    0.44135    0.64962    1.000
    C351     C        0.08980    0.35699    0.53301    1.000
    H273     H        0.12940    0.38130    0.53540    1.000
    C352     C        0.09550    0.32612    0.50443    1.000
    H274     H        0.14070    0.33000    0.48800    1.000
    C353     C        0.97616    0.28604    0.52295    1.000
    H275     H        0.93660    0.26190    0.51950    1.000
    C354     C        0.96595    0.31481    0.55234    1.000
    H276     H        0.92020    0.31000    0.56840    1.000
    C355     C        0.02390    0.35115    0.55815    1.000
    C356     C        0.01492    0.38217    0.59016    1.000
    C357     C        0.03050    0.42987    0.58738    1.000
    H277     H        0.04920    0.44290    0.56560    1.000
    C358     C        0.01760    0.45750    0.61751    1.000
    H278     H        0.02780    0.48940    0.61530    1.000
    C359     C        0.97890    0.39568    0.65253    1.000
    H279     H        0.96210    0.38370    0.67490    1.000
    C360     C        0.98958    0.36510    0.62377    1.000
    H280     H        0.97980    0.33330    0.62700    1.000
    Cd21     Cd       0.71182    0.50811    0.44779    1.000
    O41      O        0.62024    0.56562    0.47962    1.000
    O42      O        0.75922    0.56600    0.49006    1.000
    C361     C        0.68310    0.57948    0.49711    1.000
    C362     C        0.66810    0.61334    0.52814    1.000
    C363     C        0.73340    0.61670    0.55140    1.000
    H281     H        0.72870    0.63610    0.57160    1.000
    H282     H        0.78390    0.59960    0.54760    1.000
    N61      N        0.57518    0.48934    0.42237    1.000
    C364     C        0.57100    0.47562    0.38771    1.000
    H283     H        0.62240    0.46760    0.37600    1.000
    C365     C        0.49470    0.47274    0.36835    1.000
    H284     H        0.49550    0.46330    0.34420    1.000
    C366     C        0.41646    0.48403    0.38511    1.000
    C367     C        0.42080    0.49691    0.42136    1.000
    H285     H        0.37020    0.50360    0.43410    1.000
    C368     C        0.50020    0.49986    0.43853    1.000
    H286     H        0.50150    0.50970    0.46260    1.000
    N62      N        0.70940    0.45890    0.49892    1.000
    N63      N        0.75856    0.30865    0.64962    1.000
    C369     C        0.66020    0.39301    0.53301    1.000
    H287     H        0.62060    0.36870    0.53540    1.000
    C370     C        0.65450    0.42388    0.50443    1.000
    H288     H        0.60930    0.42000    0.48800    1.000
    C371     C        0.77384    0.46396    0.52295    1.000
    H289     H        0.81340    0.48810    0.51950    1.000
    C372     C        0.78405    0.43519    0.55234    1.000
    H290     H        0.82980    0.44000    0.56840    1.000
    C373     C        0.72610    0.39885    0.55815    1.000
    C374     C        0.73508    0.36783    0.59016    1.000
    C375     C        0.71950    0.32013    0.58738    1.000
    H291     H        0.70080    0.30710    0.56560    1.000
    C376     C        0.73240    0.29250    0.61751    1.000
    H292     H        0.72220    0.26060    0.61530    1.000
    C377     C        0.77110    0.35432    0.65253    1.000
    H293     H        0.78790    0.36630    0.67490    1.000
    C378     C        0.76042    0.38490    0.62377    1.000
    H294     H        0.77020    0.41670    0.62700    1.000
    Cd22     Cd       0.71182    0.00811    0.94779    1.000
    O43      O        0.62024    0.06562    0.97962    1.000
    O44      O        0.75922    0.06600    0.99006    1.000
    C379     C        0.68310    0.07948    0.99711    1.000
    C380     C        0.66810    0.11334    0.02814    1.000
    C381     C        0.73340    0.11670    0.05140    1.000
    H295     H        0.72870    0.13610    0.07160    1.000
    H296     H        0.78390    0.09960    0.04760    1.000
    N64      N        0.57518    0.98934    0.92237    1.000
    C382     C        0.57100    0.97562    0.88771    1.000
    H297     H        0.62240    0.96760    0.87600    1.000
    C383     C        0.49470    0.97274    0.86835    1.000
    H298     H        0.49550    0.96330    0.84420    1.000
    C384     C        0.41646    0.98403    0.88511    1.000
    C385     C        0.42080    0.99691    0.92136    1.000
    H299     H        0.37020    0.00360    0.93410    1.000
    C386     C        0.50020    0.99986    0.93853    1.000
    H300     H        0.50150    0.00970    0.96260    1.000
    N65      N        0.70940    0.95890    0.99892    1.000
    N66      N        0.75856    0.80865    0.14962    1.000
    C387     C        0.66020    0.89301    0.03301    1.000
    H301     H        0.62060    0.86870    0.03540    1.000
    C388     C        0.65450    0.92388    0.00443    1.000
    H302     H        0.60930    0.92000    0.98800    1.000
    C389     C        0.77384    0.96396    0.02295    1.000
    H303     H        0.81340    0.98810    0.01950    1.000
    C390     C        0.78405    0.93519    0.05234    1.000
    H304     H        0.82980    0.94000    0.06840    1.000
    C391     C        0.72610    0.89885    0.05815    1.000
    C392     C        0.73508    0.86783    0.09016    1.000
    C393     C        0.71950    0.82013    0.08738    1.000
    H305     H        0.70080    0.80710    0.06560    1.000
    C394     C        0.73240    0.79250    0.11751    1.000
    H306     H        0.72220    0.76060    0.11530    1.000
    C395     C        0.77110    0.85432    0.15253    1.000
    H307     H        0.78790    0.86630    0.17490    1.000
    C396     C        0.76042    0.88490    0.12377    1.000
    H308     H        0.77020    0.91670    0.12700    1.000
    Cd23     Cd       0.21182    0.50811    0.94779    1.000
    O45      O        0.12024    0.56562    0.97962    1.000
    O46      O        0.25922    0.56600    0.99006    1.000
    C397     C        0.18310    0.57948    0.99711    1.000
    C398     C        0.16810    0.61334    0.02814    1.000
    C399     C        0.23340    0.61670    0.05140    1.000
    H309     H        0.22870    0.63610    0.07160    1.000
    H310     H        0.28390    0.59960    0.04760    1.000
    N67      N        0.07518    0.48934    0.92237    1.000
    C400     C        0.07100    0.47562    0.88771    1.000
    H311     H        0.12240    0.46760    0.87600    1.000
    C401     C        0.99470    0.47274    0.86835    1.000
    H312     H        0.99550    0.46330    0.84420    1.000
    C402     C        0.91646    0.48403    0.88511    1.000
    C403     C        0.92080    0.49691    0.92136    1.000
    H313     H        0.87020    0.50360    0.93410    1.000
    C404     C        0.00020    0.49986    0.93853    1.000
    H314     H        0.00150    0.50970    0.96260    1.000
    N68      N        0.20940    0.45890    0.99892    1.000
    N69      N        0.25856    0.30865    0.14962    1.000
    C405     C        0.16020    0.39301    0.03301    1.000
    H315     H        0.12060    0.36870    0.03540    1.000
    C406     C        0.15450    0.42388    0.00443    1.000
    H316     H        0.10930    0.42000    0.98800    1.000
    C407     C        0.27384    0.46396    0.02295    1.000
    H317     H        0.31340    0.48810    0.01950    1.000
    C408     C        0.28405    0.43519    0.05234    1.000
    H318     H        0.32980    0.44000    0.06840    1.000
    C409     C        0.22610    0.39885    0.05815    1.000
    C410     C        0.23508    0.36783    0.09016    1.000
    C411     C        0.21950    0.32013    0.08738    1.000
    H319     H        0.20080    0.30710    0.06560    1.000
    C412     C        0.23240    0.29250    0.11751    1.000
    H320     H        0.22220    0.26060    0.11530    1.000
    C413     C        0.27110    0.35432    0.15253    1.000
    H321     H        0.28790    0.36630    0.17490    1.000
    C414     C        0.26042    0.38490    0.12377    1.000
    H322     H        0.27020    0.41670    0.12700    1.000
    Cd24     Cd       0.21182    0.00811    0.44779    1.000
    O47      O        0.12024    0.06562    0.47962    1.000
    O48      O        0.25922    0.06600    0.49006    1.000
    C415     C        0.18310    0.07948    0.49711    1.000
    C416     C        0.16810    0.11334    0.52814    1.000
    C417     C        0.23340    0.11670    0.55140    1.000
    H323     H        0.22870    0.13610    0.57160    1.000
    H324     H        0.28390    0.09960    0.54760    1.000
    N70      N        0.07518    0.98934    0.42237    1.000
    C418     C        0.07100    0.97562    0.38771    1.000
    H325     H        0.12240    0.96760    0.37600    1.000
    C419     C        0.99470    0.97274    0.36835    1.000
    H326     H        0.99550    0.96330    0.34420    1.000
    C420     C        0.91646    0.98403    0.38511    1.000
    C421     C        0.92080    0.99691    0.42136    1.000
    H327     H        0.87020    0.00360    0.43410    1.000
    C422     C        0.00020    0.99986    0.43853    1.000
    H328     H        0.00150    0.00970    0.46260    1.000
    N71      N        0.20940    0.95890    0.49892    1.000
    N72      N        0.25856    0.80865    0.64962    1.000
    C423     C        0.16020    0.89301    0.53301    1.000
    H329     H        0.12060    0.86870    0.53540    1.000
    C424     C        0.15450    0.92388    0.50443    1.000
    H330     H        0.10930    0.92000    0.48800    1.000
    C425     C        0.27384    0.96396    0.52295    1.000
    H331     H        0.31340    0.98810    0.51950    1.000
    C426     C        0.28405    0.93519    0.55234    1.000
    H332     H        0.32980    0.94000    0.56840    1.000
    C427     C        0.22610    0.89885    0.55815    1.000
    C428     C        0.23508    0.86783    0.59016    1.000
    C429     C        0.21950    0.82013    0.58738    1.000
    H333     H        0.20080    0.80710    0.56560    1.000
    C430     C        0.23240    0.79250    0.61751    1.000
    H334     H        0.22220    0.76060    0.61530    1.000
    C431     C        0.27110    0.85432    0.65253    1.000
    H335     H        0.28790    0.86630    0.67490    1.000
    C432     C        0.26042    0.88490    0.62377    1.000
    H336     H        0.27020    0.91670    0.62700    1.000
    Cd25     Cd       0.71182    0.74189    0.80221    1.000
    O49      O        0.62024    0.68438    0.77038    1.000
    O50      O        0.75922    0.68400    0.75994    1.000
    C433     C        0.68310    0.67052    0.75289    1.000
    C434     C        0.66810    0.63666    0.72186    1.000
    C435     C        0.73340    0.63330    0.69860    1.000
    H337     H        0.72870    0.61390    0.67840    1.000
    H338     H        0.78390    0.65040    0.70240    1.000
    N73      N        0.57518    0.76066    0.82763    1.000
    C436     C        0.57100    0.77438    0.86229    1.000
    H339     H        0.62240    0.78240    0.87400    1.000
    C437     C        0.49470    0.77726    0.88165    1.000
    H340     H        0.49550    0.78670    0.90580    1.000
    C438     C        0.41646    0.76597    0.86489    1.000
    C439     C        0.42080    0.75309    0.82864    1.000
    H341     H        0.37020    0.74640    0.81590    1.000
    C440     C        0.50020    0.75014    0.81147    1.000
    H342     H        0.50150    0.74030    0.78740    1.000
    N74      N        0.70940    0.79110    0.75108    1.000
    N75      N        0.75856    0.94135    0.60038    1.000
    C441     C        0.66020    0.85699    0.71699    1.000
    H343     H        0.62060    0.88130    0.71460    1.000
    C442     C        0.65450    0.82612    0.74557    1.000
    H344     H        0.60930    0.83000    0.76200    1.000
    C443     C        0.77384    0.78604    0.72705    1.000
    H345     H        0.81340    0.76190    0.73050    1.000
    C444     C        0.78405    0.81481    0.69766    1.000
    H346     H        0.82980    0.81000    0.68160    1.000
    C445     C        0.72610    0.85115    0.69185    1.000
    C446     C        0.73508    0.88217    0.65984    1.000
    C447     C        0.71950    0.92987    0.66262    1.000
    H347     H        0.70080    0.94290    0.68440    1.000
    C448     C        0.73240    0.95750    0.63249    1.000
    H348     H        0.72220    0.98940    0.63470    1.000
    C449     C        0.77110    0.89568    0.59747    1.000
    H349     H        0.78790    0.88370    0.57510    1.000
    C450     C        0.76042    0.86510    0.62623    1.000
    H350     H        0.77020    0.83330    0.62300    1.000
    Cd26     Cd       0.71182    0.24189    0.30221    1.000
    O51      O        0.62024    0.18438    0.27038    1.000
    O52      O        0.75922    0.18400    0.25994    1.000
    C451     C        0.68310    0.17052    0.25289    1.000
    C452     C        0.66810    0.13666    0.22186    1.000
    C453     C        0.73340    0.13330    0.19860    1.000
    H351     H        0.72870    0.11390    0.17840    1.000
    H352     H        0.78390    0.15040    0.20240    1.000
    N76      N        0.57518    0.26066    0.32763    1.000
    C454     C        0.57100    0.27438    0.36229    1.000
    H353     H        0.62240    0.28240    0.37400    1.000
    C455     C        0.49470    0.27726    0.38165    1.000
    H354     H        0.49550    0.28670    0.40580    1.000
    C456     C        0.41646    0.26597    0.36489    1.000
    C457     C        0.42080    0.25309    0.32864    1.000
    H355     H        0.37020    0.24640    0.31590    1.000
    C458     C        0.50020    0.25014    0.31147    1.000
    H356     H        0.50150    0.24030    0.28740    1.000
    N77      N        0.70940    0.29110    0.25108    1.000
    N78      N        0.75856    0.44135    0.10038    1.000
    C459     C        0.66020    0.35699    0.21699    1.000
    H357     H        0.62060    0.38130    0.21460    1.000
    C460     C        0.65450    0.32612    0.24557    1.000
    H358     H        0.60930    0.33000    0.26200    1.000
    C461     C        0.77384    0.28604    0.22705    1.000
    H359     H        0.81340    0.26190    0.23050    1.000
    C462     C        0.78405    0.31481    0.19766    1.000
    H360     H        0.82980    0.31000    0.18160    1.000
    C463     C        0.72610    0.35115    0.19185    1.000
    C464     C        0.73508    0.38217    0.15984    1.000
    C465     C        0.71950    0.42987    0.16262    1.000
    H361     H        0.70080    0.44290    0.18440    1.000
    C466     C        0.73240    0.45750    0.13249    1.000
    H362     H        0.72220    0.48940    0.13470    1.000
    C467     C        0.77110    0.39568    0.09747    1.000
    H363     H        0.78790    0.38370    0.07510    1.000
    C468     C        0.76042    0.36510    0.12623    1.000
    H364     H        0.77020    0.33330    0.12300    1.000
    Cd27     Cd       0.21182    0.74189    0.30221    1.000
    O53      O        0.12024    0.68438    0.27038    1.000
    O54      O        0.25922    0.68400    0.25994    1.000
    C469     C        0.18310    0.67052    0.25289    1.000
    C470     C        0.16810    0.63666    0.22186    1.000
    C471     C        0.23340    0.63330    0.19860    1.000
    H365     H        0.22870    0.61390    0.17840    1.000
    H366     H        0.28390    0.65040    0.20240    1.000
    N79      N        0.07518    0.76066    0.32763    1.000
    C472     C        0.07100    0.77438    0.36229    1.000
    H367     H        0.12240    0.78240    0.37400    1.000
    C473     C        0.99470    0.77726    0.38165    1.000
    H368     H        0.99550    0.78670    0.40580    1.000
    C474     C        0.91646    0.76597    0.36489    1.000
    C475     C        0.92080    0.75309    0.32864    1.000
    H369     H        0.87020    0.74640    0.31590    1.000
    C476     C        0.00020    0.75014    0.31147    1.000
    H370     H        0.00150    0.74030    0.28740    1.000
    N80      N        0.20940    0.79110    0.25108    1.000
    N81      N        0.25856    0.94135    0.10038    1.000
    C477     C        0.16020    0.85699    0.21699    1.000
    H371     H        0.12060    0.88130    0.21460    1.000
    C478     C        0.15450    0.82612    0.24557    1.000
    H372     H        0.10930    0.83000    0.26200    1.000
    C479     C        0.27384    0.78604    0.22705    1.000
    H373     H        0.31340    0.76190    0.23050    1.000
    C480     C        0.28405    0.81481    0.19766    1.000
    H374     H        0.32980    0.81000    0.18160    1.000
    C481     C        0.22610    0.85115    0.19185    1.000
    C482     C        0.23508    0.88217    0.15984    1.000
    C483     C        0.21950    0.92987    0.16262    1.000
    H375     H        0.20080    0.94290    0.18440    1.000
    C484     C        0.23240    0.95750    0.13249    1.000
    H376     H        0.22220    0.98940    0.13470    1.000
    C485     C        0.27110    0.89568    0.09747    1.000
    H377     H        0.28790    0.88370    0.07510    1.000
    C486     C        0.26042    0.86510    0.12623    1.000
    H378     H        0.27020    0.83330    0.12300    1.000
    Cd28     Cd       0.21182    0.24189    0.80221    1.000
    O55      O        0.12024    0.18438    0.77038    1.000
    O56      O        0.25922    0.18400    0.75994    1.000
    C487     C        0.18310    0.17052    0.75289    1.000
    C488     C        0.16810    0.13666    0.72186    1.000
    C489     C        0.23340    0.13330    0.69860    1.000
    H379     H        0.22870    0.11390    0.67840    1.000
    H380     H        0.28390    0.15040    0.70240    1.000
    N82      N        0.07518    0.26066    0.82763    1.000
    C490     C        0.07100    0.27438    0.86229    1.000
    H381     H        0.12240    0.28240    0.87400    1.000
    C491     C        0.99470    0.27726    0.88165    1.000
    H382     H        0.99550    0.28670    0.90580    1.000
    C492     C        0.91646    0.26597    0.86489    1.000
    C493     C        0.92080    0.25309    0.82864    1.000
    H383     H        0.87020    0.24640    0.81590    1.000
    C494     C        0.00020    0.25014    0.81147    1.000
    H384     H        0.00150    0.24030    0.78740    1.000
    N83      N        0.20940    0.29110    0.75108    1.000
    N84      N        0.25856    0.44135    0.60038    1.000
    C495     C        0.16020    0.35699    0.71699    1.000
    H385     H        0.12060    0.38130    0.71460    1.000
    C496     C        0.15450    0.32612    0.74557    1.000
    H386     H        0.10930    0.33000    0.76200    1.000
    C497     C        0.27384    0.28604    0.72705    1.000
    H387     H        0.31340    0.26190    0.73050    1.000
    C498     C        0.28405    0.31481    0.69766    1.000
    H388     H        0.32980    0.31000    0.68160    1.000
    C499     C        0.22610    0.35115    0.69185    1.000
    C500     C        0.23508    0.38217    0.65984    1.000
    C501     C        0.21950    0.42987    0.66262    1.000
    H389     H        0.20080    0.44290    0.68440    1.000
    C502     C        0.23240    0.45750    0.63249    1.000
    H390     H        0.22220    0.48940    0.63470    1.000
    C503     C        0.27110    0.39568    0.59747    1.000
    H391     H        0.28790    0.38370    0.57510    1.000
    C504     C        0.26042    0.36510    0.62623    1.000
    H392     H        0.27020    0.33330    0.62300    1.000
    Cd29     Cd       0.53818    0.50811    0.80221    1.000
    O57      O        0.62976    0.56562    0.77038    1.000
    O58      O        0.49078    0.56600    0.75994    1.000
    C505     C        0.56690    0.57948    0.75289    1.000
    C506     C        0.58190    0.61334    0.72186    1.000
    C507     C        0.51660    0.61670    0.69860    1.000
    H393     H        0.52130    0.63610    0.67840    1.000
    H394     H        0.46610    0.59960    0.70240    1.000
    N85      N        0.67482    0.48934    0.82763    1.000
    C508     C        0.67900    0.47562    0.86229    1.000
    H395     H        0.62760    0.46760    0.87400    1.000
    C509     C        0.75530    0.47274    0.88165    1.000
    H396     H        0.75450    0.46330    0.90580    1.000
    C510     C        0.83354    0.48403    0.86489    1.000
    C511     C        0.82920    0.49691    0.82864    1.000
    H397     H        0.87980    0.50360    0.81590    1.000
    C512     C        0.74980    0.49986    0.81147    1.000
    H398     H        0.74850    0.50970    0.78740    1.000
    N86      N        0.54060    0.45890    0.75108    1.000
    N87      N        0.49144    0.30865    0.60038    1.000
    C513     C        0.58980    0.39301    0.71699    1.000
    H399     H        0.62940    0.36870    0.71460    1.000
    C514     C        0.59550    0.42388    0.74557    1.000
    H400     H        0.64070    0.42000    0.76200    1.000
    C515     C        0.47616    0.46396    0.72705    1.000
    H401     H        0.43660    0.48810    0.73050    1.000
    C516     C        0.46595    0.43519    0.69766    1.000
    H402     H        0.42020    0.44000    0.68160    1.000
    C517     C        0.52390    0.39885    0.69185    1.000
    C518     C        0.51492    0.36783    0.65984    1.000
    C519     C        0.53050    0.32013    0.66262    1.000
    H403     H        0.54920    0.30710    0.68440    1.000
    C520     C        0.51760    0.29250    0.63249    1.000
    H404     H        0.52780    0.26060    0.63470    1.000
    C521     C        0.47890    0.35432    0.59747    1.000
    H405     H        0.46210    0.36630    0.57510    1.000
    C522     C        0.48958    0.38490    0.62623    1.000
    H406     H        0.47980    0.41670    0.62300    1.000
    Cd30     Cd       0.53818    0.00811    0.30221    1.000
    O59      O        0.62976    0.06562    0.27038    1.000
    O60      O        0.49078    0.06600    0.25994    1.000
    C523     C        0.56690    0.07948    0.25289    1.000
    C524     C        0.58190    0.11334    0.22186    1.000
    C525     C        0.51660    0.11670    0.19860    1.000
    H407     H        0.52130    0.13610    0.17840    1.000
    H408     H        0.46610    0.09960    0.20240    1.000
    N88      N        0.67482    0.98934    0.32763    1.000
    C526     C        0.67900    0.97562    0.36229    1.000
    H409     H        0.62760    0.96760    0.37400    1.000
    C527     C        0.75530    0.97274    0.38165    1.000
    H410     H        0.75450    0.96330    0.40580    1.000
    C528     C        0.83354    0.98403    0.36489    1.000
    C529     C        0.82920    0.99691    0.32864    1.000
    H411     H        0.87980    0.00360    0.31590    1.000
    C530     C        0.74980    0.99986    0.31147    1.000
    H412     H        0.74850    0.00970    0.28740    1.000
    N89      N        0.54060    0.95890    0.25108    1.000
    N90      N        0.49144    0.80865    0.10038    1.000
    C531     C        0.58980    0.89301    0.21699    1.000
    H413     H        0.62940    0.86870    0.21460    1.000
    C532     C        0.59550    0.92388    0.24557    1.000
    H414     H        0.64070    0.92000    0.26200    1.000
    C533     C        0.47616    0.96396    0.22705    1.000
    H415     H        0.43660    0.98810    0.23050    1.000
    C534     C        0.46595    0.93519    0.19766    1.000
    H416     H        0.42020    0.94000    0.18160    1.000
    C535     C        0.52390    0.89885    0.19185    1.000
    C536     C        0.51492    0.86783    0.15984    1.000
    C537     C        0.53050    0.82013    0.16262    1.000
    H417     H        0.54920    0.80710    0.18440    1.000
    C538     C        0.51760    0.79250    0.13249    1.000
    H418     H        0.52780    0.76060    0.13470    1.000
    C539     C        0.47890    0.85432    0.09747    1.000
    H419     H        0.46210    0.86630    0.07510    1.000
    C540     C        0.48958    0.88490    0.12623    1.000
    H420     H        0.47980    0.91670    0.12300    1.000
    Cd31     Cd       0.03818    0.50811    0.30221    1.000
    O61      O        0.12976    0.56562    0.27038    1.000
    O62      O        0.99078    0.56600    0.25994    1.000
    C541     C        0.06690    0.57948    0.25289    1.000
    C542     C        0.08190    0.61334    0.22186    1.000
    C543     C        0.01660    0.61670    0.19860    1.000
    H421     H        0.02130    0.63610    0.17840    1.000
    H422     H        0.96610    0.59960    0.20240    1.000
    N91      N        0.17482    0.48934    0.32763    1.000
    C544     C        0.17900    0.47562    0.36229    1.000
    H423     H        0.12760    0.46760    0.37400    1.000
    C545     C        0.25530    0.47274    0.38165    1.000
    H424     H        0.25450    0.46330    0.40580    1.000
    C546     C        0.33354    0.48403    0.36489    1.000
    C547     C        0.32920    0.49691    0.32864    1.000
    H425     H        0.37980    0.50360    0.31590    1.000
    C548     C        0.24980    0.49986    0.31147    1.000
    H426     H        0.24850    0.50970    0.28740    1.000
    N92      N        0.04060    0.45890    0.25108    1.000
    N93      N        0.99144    0.30865    0.10038    1.000
    C549     C        0.08980    0.39301    0.21699    1.000
    H427     H        0.12940    0.36870    0.21460    1.000
    C550     C        0.09550    0.42388    0.24557    1.000
    H428     H        0.14070    0.42000    0.26200    1.000
    C551     C        0.97616    0.46396    0.22705    1.000
    H429     H        0.93660    0.48810    0.23050    1.000
    C552     C        0.96595    0.43519    0.19766    1.000
    H430     H        0.92020    0.44000    0.18160    1.000
    C553     C        0.02390    0.39885    0.19185    1.000
    C554     C        0.01492    0.36783    0.15984    1.000
    C555     C        0.03050    0.32013    0.16262    1.000
    H431     H        0.04920    0.30710    0.18440    1.000
    C556     C        0.01760    0.29250    0.13249    1.000
    H432     H        0.02780    0.26060    0.13470    1.000
    C557     C        0.97890    0.35432    0.09747    1.000
    H433     H        0.96210    0.36630    0.07510    1.000
    C558     C        0.98958    0.38490    0.12623    1.000
    H434     H        0.97980    0.41670    0.12300    1.000
    Cd32     Cd       0.03818    0.00811    0.80221    1.000
    O63      O        0.12976    0.06562    0.77038    1.000
    O64      O        0.99078    0.06600    0.75994    1.000
    C559     C        0.06690    0.07948    0.75289    1.000
    C560     C        0.08190    0.11334    0.72186    1.000
    C561     C        0.01660    0.11670    0.69860    1.000
    H435     H        0.02130    0.13610    0.67840    1.000
    H436     H        0.96610    0.09960    0.70240    1.000
    N94      N        0.17482    0.98934    0.82763    1.000
    C562     C        0.17900    0.97562    0.86229    1.000
    H437     H        0.12760    0.96760    0.87400    1.000
    C563     C        0.25530    0.97274    0.88165    1.000
    H438     H        0.25450    0.96330    0.90580    1.000
    C564     C        0.33354    0.98403    0.86489    1.000
    C565     C        0.32920    0.99691    0.82864    1.000
    H439     H        0.37980    0.00360    0.81590    1.000
    C566     C        0.24980    0.99986    0.81147    1.000
    H440     H        0.24850    0.00970    0.78740    1.000
    N95      N        0.04060    0.95890    0.75108    1.000
    N96      N        0.99144    0.80865    0.60038    1.000
    C567     C        0.08980    0.89301    0.71699    1.000
    H441     H        0.12940    0.86870    0.71460    1.000
    C568     C        0.09550    0.92388    0.74557    1.000
    H442     H        0.14070    0.92000    0.76200    1.000
    C569     C        0.97616    0.96396    0.72705    1.000
    H443     H        0.93660    0.98810    0.73050    1.000
    C570     C        0.96595    0.93519    0.69766    1.000
    H444     H        0.92020    0.94000    0.68160    1.000
    C571     C        0.02390    0.89885    0.69185    1.000
    C572     C        0.01492    0.86783    0.65984    1.000
    C573     C        0.03050    0.82013    0.66262    1.000
    H445     H        0.04920    0.80710    0.68440    1.000
    C574     C        0.01760    0.79250    0.63249    1.000
    H446     H        0.02780    0.76060    0.63470    1.000
    C575     C        0.97890    0.85432    0.59747    1.000
    H447     H        0.96210    0.86630    0.57510    1.000
    C576     C        0.98958    0.88490    0.62623    1.000
    H448     H        0.97980    0.91670    0.62300    1.000
