data_functionalizedCrystal
_audit_creation_method	'EQeq! by Chris Wilmer'
_symmetry_space_group_name_H-M	'P1'
_symmetry_Int_Tables_number	1
_symmetry_cell_setting	triclinic
loop_
_symmetry_equiv_pos_as_xyz
  x,y,z
_cell_length_a	5.748
_cell_length_b	17.794
_cell_length_c	18.339
_cell_angle_alpha	95.83
_cell_angle_beta	98.89
_cell_angle_gamma	95.49
loop_
_atom_site_label
_atom_site_type_symbol
_atom_site_fract_x
_atom_site_fract_y
_atom_site_fract_z
_atom_site_charge
Mof_Ag	Ag	0.10248	0.55109	0.37965	0.466
Mof_Ag	Ag	0.36485	0.42763	0.50033	0.406
Mof_Ag	Ag	0.61791	0.03445	0.19056	0.418
Mof_Ag	Ag	0.26721	0.9486	0.006	0.49
Mof_C 	C 	0.5529	0.4578	0.358	0.426
Mof_C 	C 	0.5837	0.4258	0.2818	-0.456
Mof_H 	H 	0.706	0.3918	0.2867	0.146
Mof_H 	H 	0.639	0.4672	0.256	0.137
Mof_C 	C 	0.3642	0.3833	0.2351	0.156
Mof_H 	H 	0.4021	0.3644	0.1873	-0.039
Mof_H 	H 	0.2466	0.4184	0.2263	-0.039
Mof_C 	C 	0.3963	0.2502	0.267	0.032
Mof_H 	H 	0.5613	0.267	0.2872	-0.003
Mof_H 	H 	0.3874	0.2286	0.2158	-0.011
Mof_C 	C 	0.3021	0.1885	0.3121	-0.246
Mof_H 	H 	0.4111	0.1502	0.3159	0.063
Mof_H 	H 	0.2968	0.2115	0.362	0.071
Mof_C 	C 	0.0603	0.151	0.2777	0.092
Mof_C 	C 	0.7564	0.9119	0.0804	0.425
Mof_C 	C 	0.8303	0.8329	0.0855	-0.438
Mof_H 	H 	0.8298	0.8086	0.0356	0.126
Mof_H 	H 	0.9915	0.8374	0.112	0.136
Mof_C 	C 	0.6756	0.7826	0.1236	0.129
Mof_H 	H 	0.6852	0.73	0.1055	-0.029
Mof_H 	H 	0.5125	0.7926	0.1101	-0.021
Mof_C 	C 	0.5954	0.7379	0.2454	0.04
Mof_H 	H 	0.4313	0.7482	0.2374	-0.003
Mof_H 	H 	0.6017	0.6864	0.2232	-0.002
Mof_C 	C 	0.6848	0.7442	0.3271	-0.269
Mof_H 	H 	0.8512	0.7366	0.3356	0.075
Mof_H 	H 	0.6686	0.7945	0.3502	0.078
Mof_C 	C 	0.5511	0.6879	0.359	0.096
Mof_N 	N 	0.2571	0.3171	0.2693	-0.234
Mof_H 	H 	0.0999	0.3011	0.2426	0.08
Mof_H 	H 	0.2444	0.3336	0.3198	0.096
Mof_N 	N 	0.8844	0.1191	0.2515	-0.238
Mof_N 	N 	0.7404	0.793	0.2077	-0.23
Mof_H 	H 	0.7183	0.8439	0.2259	0.075
Mof_H 	H 	0.9053	0.787	0.2207	0.078
Mof_N 	N 	0.4452	0.6423	0.384	-0.243
Mof_O 	O 	0.3491	0.4462	0.3779	-0.439
Mof_O 	O 	0.7302	0.4942	0.4005	-0.467
Mof_O 	O 	0.563	0.9262	0.099	-0.461
Mof_O 	O 	0.8901	0.9579	0.0539	-0.468
Mof_Ag	Ag	0.89752	0.44891	0.62035	0.465
Mof_Ag	Ag	0.63515	0.57237	0.49967	0.405
Mof_Ag	Ag	0.38209	0.96555	0.80944	0.418
Mof_Ag	Ag	0.73279	0.0514	0.994	0.49
Mof_C 	C 	0.4471	0.5422	0.642	0.426
Mof_C 	C 	0.4163	0.5742	0.7182	-0.456
Mof_H 	H 	0.294	0.6082	0.7133	0.146
Mof_H 	H 	0.361	0.5328	0.744	0.137
Mof_C 	C 	0.6358	0.6167	0.7649	0.156
Mof_H 	H 	0.5979	0.6356	0.8127	-0.039
Mof_H 	H 	0.7534	0.5816	0.7737	-0.039
Mof_C 	C 	0.6037	0.7498	0.733	0.032
Mof_H 	H 	0.4387	0.733	0.7128	-0.003
Mof_H 	H 	0.6126	0.7714	0.7842	-0.011
Mof_C 	C 	0.6979	0.8115	0.6879	-0.246
Mof_H 	H 	0.5889	0.8498	0.6841	0.063
Mof_H 	H 	0.7032	0.7885	0.638	0.071
Mof_C 	C 	0.9397	0.849	0.7223	0.092
Mof_C 	C 	0.2436	0.0881	0.9196	0.425
Mof_C 	C 	0.1697	0.1671	0.9145	-0.438
Mof_H 	H 	0.1702	0.1914	0.9644	0.126
Mof_H 	H 	0.0085	0.1626	0.888	0.136
Mof_C 	C 	0.3244	0.2174	0.8764	0.129
Mof_H 	H 	0.3148	0.27	0.8945	-0.029
Mof_H 	H 	0.4875	0.2074	0.8899	-0.021
Mof_C 	C 	0.4046	0.2621	0.7546	0.04
Mof_H 	H 	0.5687	0.2518	0.7626	-0.003
Mof_H 	H 	0.3983	0.3136	0.7768	-0.002
Mof_C 	C 	0.3152	0.2558	0.6729	-0.269
Mof_H 	H 	0.1488	0.2634	0.6644	0.075
Mof_H 	H 	0.3314	0.2055	0.6498	0.078
Mof_C 	C 	0.4489	0.3121	0.641	0.096
Mof_N 	N 	0.7429	0.6829	0.7307	-0.234
Mof_H 	H 	0.9001	0.6989	0.7574	0.08
Mof_H 	H 	0.7556	0.6664	0.6802	0.096
Mof_N 	N 	0.1156	0.8809	0.7485	-0.238
Mof_N 	N 	0.2596	0.207	0.7923	-0.23
Mof_H 	H 	0.2817	0.1561	0.7741	0.075
Mof_H 	H 	0.0947	0.213	0.7793	0.078
Mof_N 	N 	0.5548	0.3577	0.616	-0.243
Mof_O 	O 	0.6509	0.5538	0.6221	-0.439
Mof_O 	O 	0.2698	0.5058	0.5995	-0.467
Mof_O 	O 	0.437	0.0738	0.901	-0.461
Mof_O 	O 	0.1099	0.0421	0.9461	-0.468
_end
