data_functionalizedCrystal
_audit_creation_method	'EQeq! by Chris Wilmer'
_symmetry_space_group_name_H-M	'P1'
_symmetry_Int_Tables_number	1
_symmetry_cell_setting	triclinic
loop_
_symmetry_equiv_pos_as_xyz
  x,y,z
_cell_length_a	13.872
_cell_length_b	28.4
_cell_length_c	44.18
_cell_angle_alpha	90
_cell_angle_beta	90
_cell_angle_gamma	90
loop_
_atom_site_label
_atom_site_type_symbol
_atom_site_fract_x
_atom_site_fract_y
_atom_site_fract_z
_atom_site_charge
Mof_Zn	Zn	0.11592	0.98005	0.08612	1.166
Mof_Zn	Zn	0.13849	0.4493	0.08682	1.166
Mof_Zn	Zn	0.81836	0.23643	0.31972	1.166
Mof_Zn	Zn	0.88408	0.51995	0.58612	1.166
Mof_Zn	Zn	0.86151	0.0507	0.58682	1.166
Mof_Zn	Zn	0.18164	0.26357	0.81972	1.166
Mof_Zn	Zn	0.61592	0.01995	0.41388	1.166
Mof_Zn	Zn	0.63849	0.5507	0.41318	1.166
Mof_Zn	Zn	0.31836	0.76357	0.18028	1.166
Mof_Zn	Zn	0.38408	0.48005	0.91388	1.166
Mof_Zn	Zn	0.36151	0.9493	0.91318	1.166
Mof_Zn	Zn	0.68164	0.73643	0.68028	1.166
Mof_H 	H 	0.0606	0.0176	0.1463	-0.011
Mof_H 	H 	0.0376	0.0883	0.1716	0.083
Mof_H 	H 	0.0765	0.1552	0.0923	0.082
Mof_H 	H 	0.0976	0.0827	0.0692	-0.009
Mof_H 	H 	0.8642	0.1609	0.2757	-0.008
Mof_H 	H 	0.9306	0.1511	0.2272	0.079
Mof_H 	H 	0.9986	0.2901	0.2284	0.079
Mof_H 	H 	0.9369	0.2949	0.2772	0.004
Mof_H 	H 	0.0451	0.4123	0.1423	-0.009
Mof_H 	H 	0.0168	0.3416	0.167	0.081
Mof_H 	H 	0.1	0.2728	0.0915	0.08
Mof_H 	H 	0.128	0.3458	0.0689	-0.014
Mof_H 	H 	0.3022	0.9268	0.9777	-0.007
Mof_H 	H 	0.372	0.911	0.0235	0.083
Mof_H 	H 	0.6289	0.9493	0.9879	0.094
Mof_H 	H 	0.549	0.9675	0.9434	-0.014
Mof_H 	H 	0.2883	0.8293	0.1298	-0.01
Mof_H 	H 	0.3721	0.8691	0.0925	0.088
Mof_H 	H 	0.6196	0.8232	0.1301	0.09
Mof_H 	H 	0.5273	0.7832	0.1652	-0.018
Mof_H 	H 	0.9756	0.9668	0.0349	-0.01
Mof_H 	H 	0.8212	0.9424	0.0266	0.097
Mof_H 	H 	0.8083	0.9007	0.1138	0.101
Mof_H 	H 	0.9653	0.9253	0.1196	-0.007
Mof_H 	H 	0.9394	0.4824	0.6463	-0.012
Mof_H 	H 	0.9624	0.4117	0.6716	0.082
Mof_H 	H 	0.9235	0.3448	0.5923	0.081
Mof_H 	H 	0.9024	0.4173	0.5692	-0.01
Mof_H 	H 	0.1358	0.3391	0.7757	-0.009
Mof_H 	H 	0.0694	0.3489	0.7272	0.078
Mof_H 	H 	0.0014	0.2099	0.7284	0.079
Mof_H 	H 	0.0631	0.2051	0.7772	0.003
Mof_H 	H 	0.9549	0.0877	0.6423	-0.011
Mof_H 	H 	0.9832	0.1584	0.667	0.08
Mof_H 	H 	0.9	0.2272	0.5915	0.079
Mof_H 	H 	0.872	0.1542	0.5689	-0.015
Mof_H 	H 	0.6978	0.5732	0.4777	-0.008
Mof_H 	H 	0.628	0.589	0.5235	0.082
Mof_H 	H 	0.3711	0.5507	0.4879	0.093
Mof_H 	H 	0.451	0.5325	0.4434	-0.015
Mof_H 	H 	0.7117	0.6707	0.6298	-0.011
Mof_H 	H 	0.6279	0.6309	0.5925	0.087
Mof_H 	H 	0.3804	0.6768	0.6301	0.089
Mof_H 	H 	0.4727	0.7168	0.6652	-0.019
Mof_H 	H 	0.0244	0.5332	0.5349	-0.011
Mof_H 	H 	0.1788	0.5576	0.5266	0.096
Mof_H 	H 	0.1917	0.5993	0.6138	0.1
Mof_H 	H 	0.0347	0.5747	0.6196	-0.008
Mof_H 	H 	0.5606	0.9824	0.3537	-0.012
Mof_H 	H 	0.5376	0.9117	0.3284	0.082
Mof_H 	H 	0.5765	0.8448	0.4077	0.081
Mof_H 	H 	0.5976	0.9173	0.4308	-0.01
Mof_H 	H 	0.3642	0.8391	0.2243	-0.009
Mof_H 	H 	0.4306	0.8489	0.2728	0.078
Mof_H 	H 	0.4986	0.7099	0.2716	0.079
Mof_H 	H 	0.4369	0.7051	0.2228	0.003
Mof_H 	H 	0.5451	0.5877	0.3577	-0.01
Mof_H 	H 	0.5168	0.6584	0.333	0.08
Mof_H 	H 	0.6	0.7272	0.4085	0.079
Mof_H 	H 	0.628	0.6542	0.4311	-0.015
Mof_H 	H 	0.8022	0.0732	0.5223	-0.008
Mof_H 	H 	0.872	0.089	0.4765	0.082
Mof_H 	H 	0.1289	0.0507	0.5121	0.093
Mof_H 	H 	0.049	0.0325	0.5566	-0.015
Mof_H 	H 	0.7883	0.1707	0.3702	-0.011
Mof_H 	H 	0.8721	0.1309	0.4075	0.087
Mof_H 	H 	0.1196	0.1768	0.3699	0.089
Mof_H 	H 	0.0273	0.2168	0.3348	-0.018
Mof_H 	H 	0.4756	0.0332	0.4651	-0.011
Mof_H 	H 	0.3212	0.0576	0.4734	0.096
Mof_H 	H 	0.3083	0.0993	0.3862	0.1
Mof_H 	H 	0.4653	0.0747	0.3804	-0.008
Mof_H 	H 	0.4394	0.5176	0.8537	-0.012
Mof_H 	H 	0.4624	0.5883	0.8284	0.082
Mof_H 	H 	0.4235	0.6552	0.9077	0.081
Mof_H 	H 	0.4024	0.5827	0.9308	-0.01
Mof_H 	H 	0.6358	0.6609	0.7243	-0.009
Mof_H 	H 	0.5694	0.6511	0.7728	0.078
Mof_H 	H 	0.5014	0.7901	0.7716	0.079
Mof_H 	H 	0.5631	0.7949	0.7228	0.003
Mof_H 	H 	0.4549	0.9123	0.8577	-0.01
Mof_H 	H 	0.4832	0.8416	0.833	0.08
Mof_H 	H 	0.4	0.7728	0.9085	0.079
Mof_H 	H 	0.372	0.8458	0.9311	-0.015
Mof_H 	H 	0.1978	0.4268	0.0223	-0.008
Mof_H 	H 	0.128	0.411	0.9765	0.082
Mof_H 	H 	0.8711	0.4493	0.0121	0.093
Mof_H 	H 	0.951	0.4675	0.0566	-0.015
Mof_H 	H 	0.2117	0.3293	0.8702	-0.011
Mof_H 	H 	0.1279	0.3691	0.9075	0.087
Mof_H 	H 	0.8804	0.3232	0.8699	0.089
Mof_H 	H 	0.9727	0.2832	0.8348	-0.02
Mof_H 	H 	0.5244	0.4668	0.9651	-0.011
Mof_H 	H 	0.6788	0.4424	0.9734	0.096
Mof_H 	H 	0.6917	0.4007	0.8862	0.1
Mof_H 	H 	0.5347	0.4253	0.8804	-0.008
Mof_C 	C 	0.0646	0.0461	0.13516	0.076
Mof_C 	C 	0.0506	0.0882	0.15046	-0.12
Mof_C 	C 	0.0557	0.1297	0.13463	0.058
Mof_C 	C 	0.0733	0.1272	0.10402	-0.118
Mof_C 	C 	0.0863	0.0838	0.09044	0.077
Mof_C 	C 	0.0429	0.1759	0.14995	0.103
Mof_C 	C 	0.0045	0.2172	0.19114	0.107
Mof_C 	C 	0.0434	0.2545	0.14817	0.103
Mof_C 	C 	0.8922	0.1872	0.26581	0.061
Mof_C 	C 	0.931	0.181	0.23679	-0.11
Mof_C 	C 	0.9698	0.22	0.22264	0.044
Mof_C 	C 	0.9717	0.263	0.23782	-0.106
Mof_C 	C 	0.9338	0.2658	0.26668	0.056
Mof_C 	C 	0.0583	0.3836	0.13204	0.062
Mof_C 	C 	0.0408	0.3416	0.14684	-0.117
Mof_C 	C 	0.0584	0.2998	0.13212	0.054
Mof_C 	C 	0.0898	0.301	0.10253	-0.12
Mof_C 	C 	0.1063	0.3447	0.08924	0.07
Mof_C 	C 	0.3698	0.9311	0.97973	0.079
Mof_C 	C 	0.4106	0.9212	0.00701	-0.125
Mof_C 	C 	0.5092	0.9264	0.01034	0.058
Mof_C 	C 	0.5614	0.9441	0.98621	-0.126
Mof_C 	C 	0.5135	0.9543	0.9597	0.071
Mof_C 	C 	0.5599	0.912	0.03825	0.096
Mof_C 	C 	0.5589	0.8745	0.08283	0.103
Mof_C 	C 	0.6954	0.9065	0.06528	0.087
Mof_C 	C 	0.3567	0.8275	0.12956	0.083
Mof_C 	C 	0.4057	0.8514	0.10737	-0.127
Mof_C 	C 	0.5046	0.849	0.10713	0.074
Mof_C 	C 	0.5512	0.8243	0.12924	-0.138
Mof_C 	C 	0.4955	0.8012	0.15007	0.088
Mof_C 	C 	0.9406	0.9534	0.05121	0.087
Mof_C 	C 	0.8493	0.9391	0.04615	-0.139
Mof_C 	C 	0.7971	0.9197	0.06975	0.063
Mof_C 	C 	0.8417	0.9145	0.09724	-0.137
Mof_C 	C 	0.9346	0.9294	0.10059	0.081
Mof_C 	C 	0.9354	0.4539	0.63516	0.076
Mof_C 	C 	0.9494	0.4118	0.65046	-0.12
Mof_C 	C 	0.9443	0.3703	0.63463	0.058
Mof_C 	C 	0.9267	0.3728	0.60402	-0.118
Mof_C 	C 	0.9137	0.4162	0.59044	0.077
Mof_C 	C 	0.9571	0.3241	0.64995	0.103
Mof_C 	C 	0.9955	0.2828	0.69114	0.106
Mof_C 	C 	0.9566	0.2455	0.64817	0.103
Mof_C 	C 	0.1078	0.3128	0.76581	0.061
Mof_C 	C 	0.069	0.319	0.73679	-0.111
Mof_C 	C 	0.0302	0.28	0.72264	0.045
Mof_C 	C 	0.0283	0.237	0.73782	-0.107
Mof_C 	C 	0.0662	0.2342	0.76668	0.057
Mof_C 	C 	0.9417	0.1164	0.63204	0.062
Mof_C 	C 	0.9592	0.1584	0.64684	-0.117
Mof_C 	C 	0.9416	0.2002	0.63212	0.054
Mof_C 	C 	0.9102	0.199	0.60253	-0.12
Mof_C 	C 	0.8937	0.1553	0.58924	0.07
Mof_C 	C 	0.6302	0.5689	0.47973	0.08
Mof_C 	C 	0.5894	0.5788	0.50701	-0.125
Mof_C 	C 	0.4908	0.5736	0.51034	0.058
Mof_C 	C 	0.4386	0.5559	0.48621	-0.126
Mof_C 	C 	0.4865	0.5457	0.4597	0.071
Mof_C 	C 	0.4401	0.588	0.53825	0.096
Mof_C 	C 	0.4411	0.6255	0.58283	0.103
Mof_C 	C 	0.3046	0.5935	0.56528	0.087
Mof_C 	C 	0.6433	0.6725	0.62956	0.083
Mof_C 	C 	0.5943	0.6486	0.60737	-0.127
Mof_C 	C 	0.4954	0.651	0.60713	0.074
Mof_C 	C 	0.4488	0.6757	0.62924	-0.138
Mof_C 	C 	0.5045	0.6988	0.65007	0.088
Mof_C 	C 	0.0594	0.5466	0.55121	0.087
Mof_C 	C 	0.1507	0.5609	0.54615	-0.139
Mof_C 	C 	0.2029	0.5803	0.56975	0.063
Mof_C 	C 	0.1583	0.5855	0.59724	-0.137
Mof_C 	C 	0.0654	0.5706	0.60059	0.081
Mof_C 	C 	0.5646	0.9539	0.36484	0.076
Mof_C 	C 	0.5506	0.9118	0.34954	-0.12
Mof_C 	C 	0.5557	0.8703	0.36537	0.058
Mof_C 	C 	0.5733	0.8728	0.39598	-0.118
Mof_C 	C 	0.5863	0.9162	0.40956	0.077
Mof_C 	C 	0.5429	0.8241	0.35005	0.103
Mof_C 	C 	0.5045	0.7828	0.30886	0.107
Mof_C 	C 	0.5434	0.7455	0.35183	0.103
Mof_C 	C 	0.3922	0.8128	0.23419	0.061
Mof_C 	C 	0.431	0.819	0.26321	-0.11
Mof_C 	C 	0.4698	0.78	0.27736	0.045
Mof_C 	C 	0.4717	0.737	0.26218	-0.107
Mof_C 	C 	0.4338	0.7342	0.23332	0.057
Mof_C 	C 	0.5583	0.6164	0.36796	0.062
Mof_C 	C 	0.5408	0.6584	0.35316	-0.117
Mof_C 	C 	0.5584	0.7002	0.36788	0.054
Mof_C 	C 	0.5898	0.699	0.39747	-0.12
Mof_C 	C 	0.6063	0.6553	0.41076	0.07
Mof_C 	C 	0.8698	0.0689	0.52027	0.08
Mof_C 	C 	0.9106	0.0788	0.49299	-0.127
Mof_C 	C 	0.0092	0.0736	0.48966	0.059
Mof_C 	C 	0.0614	0.0559	0.51379	-0.127
Mof_C 	C 	0.0135	0.0457	0.5403	0.072
Mof_C 	C 	0.0599	0.088	0.46175	0.096
Mof_C 	C 	0.0589	0.1255	0.41717	0.103
Mof_C 	C 	0.1954	0.0935	0.43472	0.087
Mof_C 	C 	0.8567	0.1725	0.37044	0.083
Mof_C 	C 	0.9057	0.1486	0.39263	-0.128
Mof_C 	C 	0.0046	0.151	0.39287	0.075
Mof_C 	C 	0.0512	0.1757	0.37076	-0.137
Mof_C 	C 	0.9955	0.1988	0.34993	0.087
Mof_C 	C 	0.4406	0.0466	0.44879	0.087
Mof_C 	C 	0.3493	0.0609	0.45385	-0.139
Mof_C 	C 	0.2971	0.0803	0.43025	0.063
Mof_C 	C 	0.3417	0.0855	0.40276	-0.137
Mof_C 	C 	0.4346	0.0706	0.39941	0.081
Mof_C 	C 	0.4354	0.5461	0.86484	0.076
Mof_C 	C 	0.4494	0.5882	0.84954	-0.12
Mof_C 	C 	0.4443	0.6297	0.86537	0.058
Mof_C 	C 	0.4267	0.6272	0.89598	-0.118
Mof_C 	C 	0.4137	0.5838	0.90956	0.077
Mof_C 	C 	0.4571	0.6759	0.85005	0.103
Mof_C 	C 	0.4955	0.7172	0.80886	0.107
Mof_C 	C 	0.4566	0.7545	0.85183	0.103
Mof_C 	C 	0.6078	0.6872	0.73419	0.061
Mof_C 	C 	0.569	0.681	0.76321	-0.11
Mof_C 	C 	0.5302	0.72	0.77736	0.045
Mof_C 	C 	0.5283	0.763	0.76218	-0.107
Mof_C 	C 	0.5662	0.7658	0.73332	0.057
Mof_C 	C 	0.4417	0.8836	0.86796	0.062
Mof_C 	C 	0.4592	0.8416	0.85316	-0.117
Mof_C 	C 	0.4416	0.7998	0.86788	0.054
Mof_C 	C 	0.4102	0.801	0.89747	-0.12
Mof_C 	C 	0.3937	0.8447	0.91076	0.07
Mof_C 	C 	0.1302	0.4311	0.02027	0.079
Mof_C 	C 	0.0894	0.4212	0.99299	-0.125
Mof_C 	C 	0.9908	0.4264	0.98966	0.058
Mof_C 	C 	0.9386	0.4441	0.01379	-0.126
Mof_C 	C 	0.9865	0.4543	0.0403	0.071
Mof_C 	C 	0.9401	0.412	0.96175	0.096
Mof_C 	C 	0.9411	0.3745	0.91717	0.103
Mof_C 	C 	0.8046	0.4065	0.93472	0.087
Mof_C 	C 	0.1433	0.3275	0.87044	0.083
Mof_C 	C 	0.0943	0.3514	0.89263	-0.127
Mof_C 	C 	0.9954	0.349	0.89287	0.074
Mof_C 	C 	0.9488	0.3243	0.87076	-0.139
Mof_C 	C 	0.0045	0.3012	0.84993	0.089
Mof_C 	C 	0.5594	0.4534	0.94879	0.087
Mof_C 	C 	0.6507	0.4391	0.95385	-0.139
Mof_C 	C 	0.7029	0.4197	0.93025	0.063
Mof_C 	C 	0.6583	0.4145	0.90276	-0.137
Mof_C 	C 	0.5654	0.4294	0.89941	0.081
Mof_I 	I 	0.19905	0.93226	0.12651	-0.371
Mof_I 	I 	0.19328	0.99703	0.03486	-0.395
Mof_I 	I 	0.31963	0.44193	0.08285	-0.387
Mof_I 	I 	0.05184	0.51202	0.117	-0.365
Mof_I 	I 	0.65713	0.19488	0.3135	-0.372
Mof_I 	I 	0.82079	0.32275	0.33455	-0.375
Mof_I 	I 	0.80095	0.56774	0.62651	-0.371
Mof_I 	I 	0.80672	0.50297	0.53486	-0.394
Mof_I 	I 	0.68037	0.05807	0.58285	-0.388
Mof_I 	I 	0.94816	0.98798	0.617	-0.364
Mof_I 	I 	0.34287	0.30512	0.8135	-0.372
Mof_I 	I 	0.17921	0.17725	0.83455	-0.375
Mof_I 	I 	0.69905	0.06774	0.37349	-0.371
Mof_I 	I 	0.69328	0.00297	0.46514	-0.394
Mof_I 	I 	0.81963	0.55807	0.41715	-0.387
Mof_I 	I 	0.55184	0.48798	0.383	-0.364
Mof_I 	I 	0.15713	0.80512	0.1865	-0.372
Mof_I 	I 	0.32079	0.67725	0.16545	-0.375
Mof_I 	I 	0.30095	0.43226	0.87349	-0.371
Mof_I 	I 	0.30672	0.49703	0.96514	-0.394
Mof_I 	I 	0.18037	0.94193	0.91715	-0.388
Mof_I 	I 	0.44816	0.01202	0.883	-0.364
Mof_I 	I 	0.84287	0.69488	0.6865	-0.371
Mof_I 	I 	0.67921	0.82275	0.66545	-0.375
Mof_N 	N 	0.0835	0.04355	0.1058	-0.274
Mof_N 	N 	0.0166	0.17475	0.17893	-0.141
Mof_N 	N 	0.0573	0.21417	0.13333	-0.141
Mof_N 	N 	0.017	0.25789	0.17703	-0.142
Mof_N 	N 	0.8929	0.22865	0.28018	-0.272
Mof_N 	N 	0.0928	0.38542	0.10398	-0.273
Mof_N 	N 	0.4187	0.94633	0.9559	-0.278
Mof_N 	N 	0.5084	0.88891	0.05901	-0.139
Mof_N 	N 	0.6525	0.92272	0.04056	-0.144
Mof_N 	N 	0.6528	0.88086	0.08713	-0.132
Mof_N 	N 	0.3998	0.80233	0.1504	-0.281
Mof_N 	N 	0.9842	0.94972	0.07809	-0.278
Mof_N 	N 	0.9165	0.45645	0.6058	-0.274
Mof_N 	N 	0.9834	0.32525	0.67893	-0.141
Mof_N 	N 	0.9427	0.28583	0.63333	-0.141
Mof_N 	N 	0.983	0.24211	0.67703	-0.142
Mof_N 	N 	0.1071	0.27135	0.78018	-0.272
Mof_N 	N 	0.9072	0.11458	0.60398	-0.273
Mof_N 	N 	0.5813	0.55367	0.4559	-0.278
Mof_N 	N 	0.4916	0.61109	0.55901	-0.139
Mof_N 	N 	0.3475	0.57728	0.54056	-0.144
Mof_N 	N 	0.3472	0.61914	0.58713	-0.132
Mof_N 	N 	0.6002	0.69767	0.6504	-0.281
Mof_N 	N 	0.0158	0.55028	0.57809	-0.278
Mof_N 	N 	0.5835	0.95645	0.3942	-0.274
Mof_N 	N 	0.5166	0.82525	0.32107	-0.141
Mof_N 	N 	0.5573	0.78583	0.36667	-0.141
Mof_N 	N 	0.517	0.74211	0.32297	-0.142
Mof_N 	N 	0.3929	0.77135	0.21982	-0.272
Mof_N 	N 	0.5928	0.61458	0.39602	-0.273
Mof_N 	N 	0.9187	0.05367	0.5441	-0.278
Mof_N 	N 	0.0084	0.11109	0.44099	-0.139
Mof_N 	N 	0.1525	0.07728	0.45944	-0.144
Mof_N 	N 	0.1528	0.11914	0.41287	-0.132
Mof_N 	N 	0.8998	0.19767	0.3496	-0.281
Mof_N 	N 	0.4842	0.05028	0.42191	-0.278
Mof_N 	N 	0.4165	0.54355	0.8942	-0.274
Mof_N 	N 	0.4834	0.67475	0.82107	-0.141
Mof_N 	N 	0.4427	0.71417	0.86667	-0.141
Mof_N 	N 	0.483	0.75789	0.82297	-0.142
Mof_N 	N 	0.6071	0.72865	0.71982	-0.272
Mof_N 	N 	0.4072	0.88542	0.89602	-0.273
Mof_N 	N 	0.0813	0.44633	0.0441	-0.277
Mof_N 	N 	0.9916	0.38891	0.94099	-0.139
Mof_N 	N 	0.8475	0.42272	0.95944	-0.144
Mof_N 	N 	0.8472	0.38086	0.91287	-0.132
Mof_N 	N 	0.1002	0.30233	0.8496	-0.281
Mof_N 	N 	0.5158	0.44972	0.92191	-0.278
Mof_Zn	Zn	0.88408	0.01995	0.91388	1.165
Mof_Zn	Zn	0.86151	0.5507	0.91318	1.165
Mof_Zn	Zn	0.18164	0.76357	0.68028	1.165
Mof_Zn	Zn	0.11592	0.48005	0.41388	1.165
Mof_Zn	Zn	0.13849	0.9493	0.41318	1.165
Mof_Zn	Zn	0.81836	0.73643	0.18028	1.165
Mof_Zn	Zn	0.38408	0.98005	0.58612	1.165
Mof_Zn	Zn	0.36151	0.4493	0.58682	1.165
Mof_Zn	Zn	0.68164	0.23643	0.81972	1.165
Mof_Zn	Zn	0.61592	0.51995	0.08612	1.165
Mof_Zn	Zn	0.63849	0.0507	0.08682	1.165
Mof_Zn	Zn	0.31836	0.26357	0.31972	1.165
Mof_H 	H 	0.9394	0.9824	0.8537	-0.012
Mof_H 	H 	0.9624	0.9117	0.8284	0.082
Mof_H 	H 	0.9235	0.8448	0.9077	0.081
Mof_H 	H 	0.9024	0.9173	0.9308	-0.01
Mof_H 	H 	0.1358	0.8391	0.7243	-0.009
Mof_H 	H 	0.0694	0.8489	0.7728	0.078
Mof_H 	H 	0.0014	0.7099	0.7716	0.078
Mof_H 	H 	0.0631	0.7051	0.7228	0.003
Mof_H 	H 	0.9549	0.5877	0.8577	-0.01
Mof_H 	H 	0.9832	0.6584	0.833	0.08
Mof_H 	H 	0.9	0.7272	0.9085	0.079
Mof_H 	H 	0.872	0.6542	0.9311	-0.015
Mof_H 	H 	0.6978	0.0732	0.0223	-0.008
Mof_H 	H 	0.628	0.089	0.9765	0.082
Mof_H 	H 	0.3711	0.0507	0.0121	0.093
Mof_H 	H 	0.451	0.0325	0.0566	-0.015
Mof_H 	H 	0.7117	0.1707	0.8702	-0.011
Mof_H 	H 	0.6279	0.1309	0.9075	0.087
Mof_H 	H 	0.3804	0.1768	0.8699	0.089
Mof_H 	H 	0.4727	0.2168	0.8348	-0.019
Mof_H 	H 	0.0244	0.0332	0.9651	-0.011
Mof_H 	H 	0.1788	0.0576	0.9734	0.096
Mof_H 	H 	0.1917	0.0993	0.8862	0.1
Mof_H 	H 	0.0347	0.0747	0.8804	-0.008
Mof_H 	H 	0.0606	0.5176	0.3537	-0.012
Mof_H 	H 	0.0376	0.5883	0.3284	0.082
Mof_H 	H 	0.0765	0.6552	0.4077	0.081
Mof_H 	H 	0.0976	0.5827	0.4308	-0.01
Mof_H 	H 	0.8642	0.6609	0.2243	-0.009
Mof_H 	H 	0.9306	0.6511	0.2728	0.078
Mof_H 	H 	0.9986	0.7901	0.2716	0.079
Mof_H 	H 	0.9369	0.7949	0.2228	0.003
Mof_H 	H 	0.0451	0.9123	0.3577	-0.011
Mof_H 	H 	0.0168	0.8416	0.333	0.08
Mof_H 	H 	0.1	0.7728	0.4085	0.079
Mof_H 	H 	0.128	0.8458	0.4311	-0.015
Mof_H 	H 	0.3022	0.4268	0.5223	-0.008
Mof_H 	H 	0.372	0.411	0.4765	0.082
Mof_H 	H 	0.6289	0.4493	0.5121	0.093
Mof_H 	H 	0.549	0.4675	0.5566	-0.015
Mof_H 	H 	0.2883	0.3293	0.3702	-0.011
Mof_H 	H 	0.3721	0.3691	0.4075	0.087
Mof_H 	H 	0.6196	0.3232	0.3699	0.089
Mof_H 	H 	0.5273	0.2832	0.3348	-0.019
Mof_H 	H 	0.9756	0.4668	0.4651	-0.011
Mof_H 	H 	0.8212	0.4424	0.4734	0.096
Mof_H 	H 	0.8083	0.4007	0.3862	0.1
Mof_H 	H 	0.9653	0.4253	0.3804	-0.008
Mof_H 	H 	0.4394	0.0176	0.6463	-0.012
Mof_H 	H 	0.4624	0.0883	0.6716	0.082
Mof_H 	H 	0.4235	0.1552	0.5923	0.081
Mof_H 	H 	0.4024	0.0827	0.5692	-0.01
Mof_H 	H 	0.6358	0.1609	0.7757	-0.009
Mof_H 	H 	0.5694	0.1511	0.7272	0.078
Mof_H 	H 	0.5014	0.2901	0.7284	0.079
Mof_H 	H 	0.5631	0.2949	0.7772	0.003
Mof_H 	H 	0.4549	0.4123	0.6423	-0.01
Mof_H 	H 	0.4832	0.3416	0.667	0.08
Mof_H 	H 	0.4	0.2728	0.5915	0.079
Mof_H 	H 	0.372	0.3458	0.5689	-0.015
Mof_H 	H 	0.1978	0.9268	0.4777	-0.008
Mof_H 	H 	0.128	0.911	0.5235	0.082
Mof_H 	H 	0.8711	0.9493	0.4879	0.093
Mof_H 	H 	0.951	0.9675	0.4434	-0.015
Mof_H 	H 	0.2117	0.8293	0.6298	-0.011
Mof_H 	H 	0.1279	0.8691	0.5925	0.087
Mof_H 	H 	0.8804	0.8232	0.6301	0.089
Mof_H 	H 	0.9727	0.7832	0.6652	-0.018
Mof_H 	H 	0.5244	0.9668	0.5349	-0.011
Mof_H 	H 	0.6788	0.9424	0.5266	0.096
Mof_H 	H 	0.6917	0.9007	0.6138	0.1
Mof_H 	H 	0.5347	0.9253	0.6196	-0.008
Mof_H 	H 	0.5606	0.4824	0.1463	-0.012
Mof_H 	H 	0.5376	0.4117	0.1716	0.082
Mof_H 	H 	0.5765	0.3448	0.0923	0.081
Mof_H 	H 	0.5976	0.4173	0.0692	-0.01
Mof_H 	H 	0.3642	0.3391	0.2757	-0.009
Mof_H 	H 	0.4306	0.3489	0.2272	0.078
Mof_H 	H 	0.4986	0.2099	0.2284	0.079
Mof_H 	H 	0.4369	0.2051	0.2772	0.003
Mof_H 	H 	0.5451	0.0877	0.1423	-0.01
Mof_H 	H 	0.5168	0.1584	0.167	0.08
Mof_H 	H 	0.6	0.2272	0.0915	0.079
Mof_H 	H 	0.628	0.1542	0.0689	-0.015
Mof_H 	H 	0.8022	0.5732	0.9777	-0.008
Mof_H 	H 	0.872	0.589	0.0235	0.082
Mof_H 	H 	0.1289	0.5507	0.9879	0.093
Mof_H 	H 	0.049	0.5325	0.9434	-0.015
Mof_H 	H 	0.7883	0.6707	0.1298	-0.011
Mof_H 	H 	0.8721	0.6309	0.0925	0.087
Mof_H 	H 	0.1196	0.6768	0.1301	0.089
Mof_H 	H 	0.0273	0.7168	0.1652	-0.02
Mof_H 	H 	0.4756	0.5332	0.0349	-0.011
Mof_H 	H 	0.3212	0.5576	0.0266	0.096
Mof_H 	H 	0.3083	0.5993	0.1138	0.1
Mof_H 	H 	0.4653	0.5747	0.1196	-0.008
Mof_C 	C 	0.9354	0.9539	0.86484	0.076
Mof_C 	C 	0.9494	0.9118	0.84954	-0.12
Mof_C 	C 	0.9443	0.8703	0.86537	0.058
Mof_C 	C 	0.9267	0.8728	0.89598	-0.118
Mof_C 	C 	0.9137	0.9162	0.90956	0.077
Mof_C 	C 	0.9571	0.8241	0.85005	0.103
Mof_C 	C 	0.9955	0.7828	0.80886	0.107
Mof_C 	C 	0.9566	0.7455	0.85183	0.103
Mof_C 	C 	0.1078	0.8128	0.73419	0.061
Mof_C 	C 	0.069	0.819	0.76321	-0.11
Mof_C 	C 	0.0302	0.78	0.77736	0.044
Mof_C 	C 	0.0283	0.737	0.76218	-0.106
Mof_C 	C 	0.0662	0.7342	0.73332	0.056
Mof_C 	C 	0.9417	0.6164	0.86796	0.062
Mof_C 	C 	0.9592	0.6584	0.85316	-0.117
Mof_C 	C 	0.9416	0.7002	0.86788	0.054
Mof_C 	C 	0.9102	0.699	0.89747	-0.12
Mof_C 	C 	0.8937	0.6553	0.91076	0.07
Mof_C 	C 	0.6302	0.0689	0.02027	0.079
Mof_C 	C 	0.5894	0.0788	0.99299	-0.125
Mof_C 	C 	0.4908	0.0736	0.98966	0.058
Mof_C 	C 	0.4386	0.0559	0.01379	-0.126
Mof_C 	C 	0.4865	0.0457	0.0403	0.071
Mof_C 	C 	0.4401	0.088	0.96175	0.096
Mof_C 	C 	0.4411	0.1255	0.91717	0.103
Mof_C 	C 	0.3046	0.0935	0.93472	0.087
Mof_C 	C 	0.6433	0.1725	0.87044	0.083
Mof_C 	C 	0.5943	0.1486	0.89263	-0.127
Mof_C 	C 	0.4954	0.151	0.89287	0.074
Mof_C 	C 	0.4488	0.1757	0.87076	-0.138
Mof_C 	C 	0.5045	0.1988	0.84993	0.088
Mof_C 	C 	0.0594	0.0466	0.94879	0.087
Mof_C 	C 	0.1507	0.0609	0.95385	-0.139
Mof_C 	C 	0.2029	0.0803	0.93025	0.063
Mof_C 	C 	0.1583	0.0855	0.90276	-0.137
Mof_C 	C 	0.0654	0.0706	0.89941	0.081
Mof_C 	C 	0.0646	0.5461	0.36484	0.076
Mof_C 	C 	0.0506	0.5882	0.34954	-0.12
Mof_C 	C 	0.0557	0.6297	0.36537	0.058
Mof_C 	C 	0.0733	0.6272	0.39598	-0.118
Mof_C 	C 	0.0863	0.5838	0.40956	0.077
Mof_C 	C 	0.0429	0.6759	0.35005	0.103
Mof_C 	C 	0.0045	0.7172	0.30886	0.106
Mof_C 	C 	0.0434	0.7545	0.35183	0.103
Mof_C 	C 	0.8922	0.6872	0.23419	0.061
Mof_C 	C 	0.931	0.681	0.26321	-0.111
Mof_C 	C 	0.9698	0.72	0.27736	0.045
Mof_C 	C 	0.9717	0.763	0.26218	-0.107
Mof_C 	C 	0.9338	0.7658	0.23332	0.057
Mof_C 	C 	0.0583	0.8836	0.36796	0.062
Mof_C 	C 	0.0408	0.8416	0.35316	-0.117
Mof_C 	C 	0.0584	0.7998	0.36788	0.054
Mof_C 	C 	0.0898	0.801	0.39747	-0.12
Mof_C 	C 	0.1063	0.8447	0.41076	0.07
Mof_C 	C 	0.3698	0.4311	0.52027	0.08
Mof_C 	C 	0.4106	0.4212	0.49299	-0.125
Mof_C 	C 	0.5092	0.4264	0.48966	0.058
Mof_C 	C 	0.5614	0.4441	0.51379	-0.126
Mof_C 	C 	0.5135	0.4543	0.5403	0.071
Mof_C 	C 	0.5599	0.412	0.46175	0.096
Mof_C 	C 	0.5589	0.3745	0.41717	0.103
Mof_C 	C 	0.6954	0.4065	0.43472	0.087
Mof_C 	C 	0.3567	0.3275	0.37044	0.083
Mof_C 	C 	0.4057	0.3514	0.39263	-0.127
Mof_C 	C 	0.5046	0.349	0.39287	0.074
Mof_C 	C 	0.5512	0.3243	0.37076	-0.138
Mof_C 	C 	0.4955	0.3012	0.34993	0.088
Mof_C 	C 	0.9406	0.4534	0.44879	0.087
Mof_C 	C 	0.8493	0.4391	0.45385	-0.139
Mof_C 	C 	0.7971	0.4197	0.43025	0.063
Mof_C 	C 	0.8417	0.4145	0.40276	-0.137
Mof_C 	C 	0.9346	0.4294	0.39941	0.081
Mof_C 	C 	0.4354	0.0461	0.63516	0.076
Mof_C 	C 	0.4494	0.0882	0.65046	-0.12
Mof_C 	C 	0.4443	0.1297	0.63463	0.058
Mof_C 	C 	0.4267	0.1272	0.60402	-0.118
Mof_C 	C 	0.4137	0.0838	0.59044	0.077
Mof_C 	C 	0.4571	0.1759	0.64995	0.103
Mof_C 	C 	0.4955	0.2172	0.69114	0.107
Mof_C 	C 	0.4566	0.2545	0.64817	0.103
Mof_C 	C 	0.6078	0.1872	0.76581	0.061
Mof_C 	C 	0.569	0.181	0.73679	-0.11
Mof_C 	C 	0.5302	0.22	0.72264	0.045
Mof_C 	C 	0.5283	0.263	0.73782	-0.107
Mof_C 	C 	0.5662	0.2658	0.76668	0.057
Mof_C 	C 	0.4417	0.3836	0.63204	0.062
Mof_C 	C 	0.4592	0.3416	0.64684	-0.117
Mof_C 	C 	0.4416	0.2998	0.63212	0.054
Mof_C 	C 	0.4102	0.301	0.60253	-0.12
Mof_C 	C 	0.3937	0.3447	0.58924	0.07
Mof_C 	C 	0.1302	0.9311	0.47973	0.08
Mof_C 	C 	0.0894	0.9212	0.50701	-0.127
Mof_C 	C 	0.9908	0.9264	0.51034	0.059
Mof_C 	C 	0.9386	0.9441	0.48621	-0.127
Mof_C 	C 	0.9865	0.9543	0.4597	0.072
Mof_C 	C 	0.9401	0.912	0.53825	0.096
Mof_C 	C 	0.9411	0.8745	0.58283	0.103
Mof_C 	C 	0.8046	0.9065	0.56528	0.087
Mof_C 	C 	0.1433	0.8275	0.62956	0.083
Mof_C 	C 	0.0943	0.8514	0.60737	-0.128
Mof_C 	C 	0.9954	0.849	0.60713	0.075
Mof_C 	C 	0.9488	0.8243	0.62924	-0.137
Mof_C 	C 	0.0045	0.8012	0.65007	0.087
Mof_C 	C 	0.5594	0.9534	0.55121	0.087
Mof_C 	C 	0.6507	0.9391	0.54615	-0.139
Mof_C 	C 	0.7029	0.9197	0.56975	0.063
Mof_C 	C 	0.6583	0.9145	0.59724	-0.137
Mof_C 	C 	0.5654	0.9294	0.60059	0.081
Mof_C 	C 	0.5646	0.4539	0.13516	0.076
Mof_C 	C 	0.5506	0.4118	0.15046	-0.12
Mof_C 	C 	0.5557	0.3703	0.13463	0.058
Mof_C 	C 	0.5733	0.3728	0.10402	-0.118
Mof_C 	C 	0.5863	0.4162	0.09044	0.077
Mof_C 	C 	0.5429	0.3241	0.14995	0.103
Mof_C 	C 	0.5045	0.2828	0.19114	0.107
Mof_C 	C 	0.5434	0.2455	0.14817	0.103
Mof_C 	C 	0.3922	0.3128	0.26581	0.061
Mof_C 	C 	0.431	0.319	0.23679	-0.11
Mof_C 	C 	0.4698	0.28	0.22264	0.045
Mof_C 	C 	0.4717	0.237	0.23782	-0.107
Mof_C 	C 	0.4338	0.2342	0.26668	0.057
Mof_C 	C 	0.5583	0.1164	0.13204	0.062
Mof_C 	C 	0.5408	0.1584	0.14684	-0.117
Mof_C 	C 	0.5584	0.2002	0.13212	0.054
Mof_C 	C 	0.5898	0.199	0.10253	-0.12
Mof_C 	C 	0.6063	0.1553	0.08924	0.07
Mof_C 	C 	0.8698	0.5689	0.97973	0.079
Mof_C 	C 	0.9106	0.5788	0.00701	-0.125
Mof_C 	C 	0.0092	0.5736	0.01034	0.058
Mof_C 	C 	0.0614	0.5559	0.98621	-0.126
Mof_C 	C 	0.0135	0.5457	0.9597	0.071
Mof_C 	C 	0.0599	0.588	0.03825	0.096
Mof_C 	C 	0.0589	0.6255	0.08283	0.103
Mof_C 	C 	0.1954	0.5935	0.06528	0.087
Mof_C 	C 	0.8567	0.6725	0.12956	0.083
Mof_C 	C 	0.9057	0.6486	0.10737	-0.127
Mof_C 	C 	0.0046	0.651	0.10713	0.074
Mof_C 	C 	0.0512	0.6757	0.12924	-0.139
Mof_C 	C 	0.9955	0.6988	0.15007	0.089
Mof_C 	C 	0.4406	0.5466	0.05121	0.087
Mof_C 	C 	0.3493	0.5609	0.04615	-0.139
Mof_C 	C 	0.2971	0.5803	0.06975	0.063
Mof_C 	C 	0.3417	0.5855	0.09724	-0.137
Mof_C 	C 	0.4346	0.5706	0.10059	0.081
Mof_I 	I 	0.80095	0.06774	0.87349	-0.371
Mof_I 	I 	0.80672	0.00297	0.96514	-0.395
Mof_I 	I 	0.68037	0.55807	0.91715	-0.387
Mof_I 	I 	0.94816	0.48798	0.883	-0.365
Mof_I 	I 	0.34287	0.80512	0.6865	-0.372
Mof_I 	I 	0.17921	0.67725	0.66545	-0.375
Mof_I 	I 	0.19905	0.43226	0.37349	-0.371
Mof_I 	I 	0.19328	0.49703	0.46514	-0.394
Mof_I 	I 	0.31963	0.94193	0.41715	-0.388
Mof_I 	I 	0.05184	0.01202	0.383	-0.364
Mof_I 	I 	0.65713	0.69488	0.1865	-0.372
Mof_I 	I 	0.82079	0.82275	0.16545	-0.375
Mof_I 	I 	0.30095	0.93226	0.62651	-0.371
Mof_I 	I 	0.30672	0.99703	0.53486	-0.394
Mof_I 	I 	0.18037	0.44193	0.58285	-0.387
Mof_I 	I 	0.44816	0.51202	0.617	-0.364
Mof_I 	I 	0.84287	0.19488	0.8135	-0.372
Mof_I 	I 	0.67921	0.32275	0.83455	-0.375
Mof_I 	I 	0.69905	0.56774	0.12651	-0.371
Mof_I 	I 	0.69328	0.50297	0.03486	-0.394
Mof_I 	I 	0.81963	0.05807	0.08285	-0.388
Mof_I 	I 	0.55184	0.98798	0.117	-0.364
Mof_I 	I 	0.15713	0.30512	0.3135	-0.371
Mof_I 	I 	0.32079	0.17725	0.33455	-0.375
Mof_N 	N 	0.9165	0.95645	0.8942	-0.274
Mof_N 	N 	0.9834	0.82525	0.82107	-0.141
Mof_N 	N 	0.9427	0.78583	0.86667	-0.141
Mof_N 	N 	0.983	0.74211	0.82297	-0.142
Mof_N 	N 	0.1071	0.77135	0.71982	-0.272
Mof_N 	N 	0.9072	0.61458	0.89602	-0.273
Mof_N 	N 	0.5813	0.05367	0.0441	-0.278
Mof_N 	N 	0.4916	0.11109	0.94099	-0.139
Mof_N 	N 	0.3475	0.07728	0.95944	-0.144
Mof_N 	N 	0.3472	0.11914	0.91287	-0.132
Mof_N 	N 	0.6002	0.19767	0.8496	-0.281
Mof_N 	N 	0.0158	0.05028	0.92191	-0.278
Mof_N 	N 	0.0835	0.54355	0.3942	-0.274
Mof_N 	N 	0.0166	0.67475	0.32107	-0.141
Mof_N 	N 	0.0573	0.71417	0.36667	-0.141
Mof_N 	N 	0.017	0.75789	0.32297	-0.142
Mof_N 	N 	0.8929	0.72865	0.21982	-0.272
Mof_N 	N 	0.0928	0.88542	0.39602	-0.273
Mof_N 	N 	0.4187	0.44633	0.5441	-0.278
Mof_N 	N 	0.5084	0.38891	0.44099	-0.139
Mof_N 	N 	0.6525	0.42272	0.45944	-0.144
Mof_N 	N 	0.6528	0.38086	0.41287	-0.132
Mof_N 	N 	0.3998	0.30233	0.3496	-0.281
Mof_N 	N 	0.9842	0.44972	0.42191	-0.278
Mof_N 	N 	0.4165	0.04355	0.6058	-0.274
Mof_N 	N 	0.4834	0.17475	0.67893	-0.141
Mof_N 	N 	0.4427	0.21417	0.63333	-0.141
Mof_N 	N 	0.483	0.25789	0.67703	-0.142
Mof_N 	N 	0.6071	0.22865	0.78018	-0.272
Mof_N 	N 	0.4072	0.38542	0.60398	-0.273
Mof_N 	N 	0.0813	0.94633	0.4559	-0.278
Mof_N 	N 	0.9916	0.88891	0.55901	-0.139
Mof_N 	N 	0.8475	0.92272	0.54056	-0.144
Mof_N 	N 	0.8472	0.88086	0.58713	-0.132
Mof_N 	N 	0.1002	0.80233	0.6504	-0.281
Mof_N 	N 	0.5158	0.94972	0.57809	-0.278
Mof_N 	N 	0.5835	0.45645	0.1058	-0.274
Mof_N 	N 	0.5166	0.32525	0.17893	-0.141
Mof_N 	N 	0.5573	0.28583	0.13333	-0.141
Mof_N 	N 	0.517	0.24211	0.17703	-0.142
Mof_N 	N 	0.3929	0.27135	0.28018	-0.272
Mof_N 	N 	0.5928	0.11458	0.10398	-0.273
Mof_N 	N 	0.9187	0.55367	0.9559	-0.277
Mof_N 	N 	0.0084	0.61109	0.05901	-0.139
Mof_N 	N 	0.1525	0.57728	0.04056	-0.144
Mof_N 	N 	0.1528	0.61914	0.08713	-0.132
Mof_N 	N 	0.8998	0.69767	0.1504	-0.281
Mof_N 	N 	0.4842	0.55028	0.07809	-0.278
_end
