# CIF file generated by openbabel 3.1.0, see https://openbabel.org
data_I
_chemical_name_common 'image0'
_cell_length_a 15.3763
_cell_length_b 15.3763
_cell_length_c 9.8086
_cell_angle_alpha 90
_cell_angle_beta 90
_cell_angle_gamma 90
_space_group_name_H-M_alt 'P 1'
_space_group_name_Hall 'P 1'
loop_
    _symmetry_equiv_pos_as_xyz
    x,y,z
loop_
    _atom_site_label
    _atom_site_type_symbol
    _atom_site_fract_x
    _atom_site_fract_y
    _atom_site_fract_z
    _atom_site_occupancy
    O1       O        0.03119    0.87444    0.12234    1.000
    C1       C        0.88692    0.74442    0.12200    1.000
    H1       H        0.91210    0.76160    0.20390    1.000
    C2       C        0.81207    0.69471    0.12190    1.000
    H2       H        0.78710    0.67800    0.20420    1.000
    O2       O        0.96881    0.12556    0.12234    1.000
    C3       C        0.11308    0.25558    0.12200    1.000
    H3       H        0.08790    0.23840    0.20390    1.000
    C4       C        0.18793    0.30529    0.12190    1.000
    H4       H        0.21290    0.32200    0.20420    1.000
    O3       O        0.12556    0.03119    0.12234    1.000
    C5       C        0.25558    0.88692    0.12200    1.000
    H5       H        0.23840    0.91210    0.20390    1.000
    C6       C        0.30529    0.81207    0.12190    1.000
    H6       H        0.32200    0.78710    0.20420    1.000
    O4       O        0.87444    0.96881    0.12234    1.000
    C7       C        0.74442    0.11308    0.12200    1.000
    H7       H        0.76160    0.08790    0.20390    1.000
    C8       C        0.69471    0.18793    0.12190    1.000
    H8       H        0.67800    0.21290    0.20420    1.000
    O5       O        0.96881    0.87444    0.37766    1.000
    C9       C        0.11308    0.74442    0.37800    1.000
    H9       H        0.08790    0.76160    0.29610    1.000
    C10      C        0.18793    0.69471    0.37810    1.000
    H10      H        0.21290    0.67800    0.29580    1.000
    O6       O        0.03119    0.12556    0.37766    1.000
    C11      C        0.88692    0.25558    0.37800    1.000
    H11      H        0.91210    0.23840    0.29610    1.000
    C12      C        0.81207    0.30529    0.37810    1.000
    H12      H        0.78710    0.32200    0.29580    1.000
    O7       O        0.87444    0.03119    0.37766    1.000
    C13      C        0.74442    0.88692    0.37800    1.000
    H13      H        0.76160    0.91210    0.29610    1.000
    C14      C        0.69471    0.81207    0.37810    1.000
    H14      H        0.67800    0.78710    0.29580    1.000
    O8       O        0.12556    0.96881    0.37766    1.000
    C15      C        0.25558    0.11308    0.37800    1.000
    H15      H        0.23840    0.08790    0.29610    1.000
    C16      C        0.30529    0.18793    0.37810    1.000
    H16      H        0.32200    0.21290    0.29580    1.000
    O9       O        0.96881    0.12556    0.87766    1.000
    C17      C        0.11308    0.25558    0.87800    1.000
    H17      H        0.08790    0.23840    0.79610    1.000
    C18      C        0.18793    0.30529    0.87810    1.000
    H18      H        0.21290    0.32200    0.79580    1.000
    O10      O        0.03119    0.87444    0.87766    1.000
    C19      C        0.88692    0.74442    0.87800    1.000
    H19      H        0.91210    0.76160    0.79610    1.000
    C20      C        0.81207    0.69471    0.87810    1.000
    H20      H        0.78710    0.67800    0.79580    1.000
    O11      O        0.87444    0.96881    0.87766    1.000
    C21      C        0.74442    0.11308    0.87800    1.000
    H21      H        0.76160    0.08790    0.79610    1.000
    C22      C        0.69471    0.18793    0.87810    1.000
    H22      H        0.67800    0.21290    0.79580    1.000
    O12      O        0.12556    0.03119    0.87766    1.000
    C23      C        0.25558    0.88692    0.87800    1.000
    H23      H        0.23840    0.91210    0.79610    1.000
    C24      C        0.30529    0.81207    0.87810    1.000
    H24      H        0.32200    0.78710    0.79580    1.000
    O13      O        0.03119    0.12556    0.62234    1.000
    C25      C        0.88692    0.25558    0.62200    1.000
    H25      H        0.91210    0.23840    0.70390    1.000
    C26      C        0.81207    0.30529    0.62190    1.000
    H26      H        0.78710    0.32200    0.70420    1.000
    O14      O        0.96881    0.87444    0.62234    1.000
    C27      C        0.11308    0.74442    0.62200    1.000
    H27      H        0.08790    0.76160    0.70390    1.000
    C28      C        0.18793    0.69471    0.62190    1.000
    H28      H        0.21290    0.67800    0.70420    1.000
    O15      O        0.12556    0.96881    0.62234    1.000
    C29      C        0.25558    0.11308    0.62200    1.000
    H29      H        0.23840    0.08790    0.70390    1.000
    C30      C        0.30529    0.18793    0.62190    1.000
    H30      H        0.32200    0.21290    0.70420    1.000
    O16      O        0.87444    0.03119    0.62234    1.000
    C31      C        0.74442    0.88692    0.62200    1.000
    H31      H        0.76160    0.91210    0.70390    1.000
    C32      C        0.69471    0.81207    0.62190    1.000
    H32      H        0.67800    0.78710    0.70420    1.000
    Dy1      Dy       0.00000    0.00000    0.25000    1.000
    Dy2      Dy       0.00000    0.00000    0.75000    1.000
    S1       S        0.02606    0.82149    0.00000    1.000
    O17      O        0.08926    0.75239    0.00000    1.000
    N1       N        0.53022    0.62971    0.00000    1.000
    C33      C        0.92375    0.76825    0.00000    1.000
    C34      C        0.77380    0.66945    0.00000    1.000
    C35      C        0.69119    0.61815    0.00000    1.000
    C36      C        0.61317    0.66424    0.00000    1.000
    C37      C        0.60612    0.75807    0.00000    1.000
    H33      H        0.65200    0.79750    0.00000    1.000
    C38      C        0.52070    0.77770    0.00000    1.000
    H34      H        0.49710    0.83340    0.00000    1.000
    C39      C        0.47250    0.69763    0.00000    1.000
    S2       S        0.97394    0.17851    0.00000    1.000
    O18      O        0.91074    0.24761    0.00000    1.000
    N2       N        0.46978    0.37029    0.00000    1.000
    C40      C        0.07625    0.23175    0.00000    1.000
    C41      C        0.22620    0.33055    0.00000    1.000
    C42      C        0.30881    0.38185    0.00000    1.000
    C43      C        0.38683    0.33576    0.00000    1.000
    C44      C        0.39388    0.24193    0.00000    1.000
    H35      H        0.34800    0.20250    0.00000    1.000
    C45      C        0.47930    0.22230    0.00000    1.000
    H36      H        0.50290    0.16660    0.00000    1.000
    C46      C        0.52750    0.30237    0.00000    1.000
    S3       S        0.17851    0.02606    0.00000    1.000
    O19      O        0.24761    0.08926    0.00000    1.000
    N3       N        0.37029    0.53022    0.00000    1.000
    C47      C        0.23175    0.92375    0.00000    1.000
    C48      C        0.33055    0.77380    0.00000    1.000
    C49      C        0.38185    0.69119    0.00000    1.000
    C50      C        0.33576    0.61317    0.00000    1.000
    C51      C        0.24193    0.60612    0.00000    1.000
    H37      H        0.20250    0.65200    0.00000    1.000
    C52      C        0.22230    0.52070    0.00000    1.000
    H38      H        0.16660    0.49710    0.00000    1.000
    C53      C        0.30237    0.47250    0.00000    1.000
    S4       S        0.82149    0.97394    0.00000    1.000
    O20      O        0.75239    0.91074    0.00000    1.000
    N4       N        0.62971    0.46978    0.00000    1.000
    C54      C        0.76825    0.07625    0.00000    1.000
    C55      C        0.66945    0.22620    0.00000    1.000
    C56      C        0.61815    0.30881    0.00000    1.000
    C57      C        0.66424    0.38683    0.00000    1.000
    C58      C        0.75807    0.39388    0.00000    1.000
    H39      H        0.79750    0.34800    0.00000    1.000
    C59      C        0.77770    0.47930    0.00000    1.000
    H40      H        0.83340    0.50290    0.00000    1.000
    C60      C        0.69763    0.52750    0.00000    1.000
    S5       S        0.97394    0.82149    0.50000    1.000
    O21      O        0.91074    0.75239    0.50000    1.000
    N5       N        0.46978    0.62971    0.50000    1.000
    C61      C        0.07625    0.76825    0.50000    1.000
    C62      C        0.22620    0.66945    0.50000    1.000
    C63      C        0.30881    0.61815    0.50000    1.000
    C64      C        0.38683    0.66424    0.50000    1.000
    C65      C        0.39388    0.75807    0.50000    1.000
    H41      H        0.34800    0.79750    0.50000    1.000
    C66      C        0.47930    0.77770    0.50000    1.000
    H42      H        0.50290    0.83340    0.50000    1.000
    C67      C        0.52750    0.69763    0.50000    1.000
    S6       S        0.02606    0.17851    0.50000    1.000
    O22      O        0.08926    0.24761    0.50000    1.000
    N6       N        0.53022    0.37029    0.50000    1.000
    C68      C        0.92375    0.23175    0.50000    1.000
    C69      C        0.77380    0.33055    0.50000    1.000
    C70      C        0.69119    0.38185    0.50000    1.000
    C71      C        0.61317    0.33576    0.50000    1.000
    C72      C        0.60612    0.24193    0.50000    1.000
    H43      H        0.65200    0.20250    0.50000    1.000
    C73      C        0.52070    0.22230    0.50000    1.000
    H44      H        0.49710    0.16660    0.50000    1.000
    C74      C        0.47250    0.30237    0.50000    1.000
    S7       S        0.82149    0.02606    0.50000    1.000
    O23      O        0.75239    0.08926    0.50000    1.000
    N7       N        0.62971    0.53022    0.50000    1.000
    C75      C        0.76825    0.92375    0.50000    1.000
    C76      C        0.66945    0.77380    0.50000    1.000
    C77      C        0.61815    0.69119    0.50000    1.000
    C78      C        0.66424    0.61317    0.50000    1.000
    C79      C        0.75807    0.60612    0.50000    1.000
    H45      H        0.79750    0.65200    0.50000    1.000
    C80      C        0.77770    0.52070    0.50000    1.000
    H46      H        0.83340    0.49710    0.50000    1.000
    C81      C        0.69763    0.47250    0.50000    1.000
    S8       S        0.17851    0.97394    0.50000    1.000
    O24      O        0.24761    0.91074    0.50000    1.000
    N8       N        0.37029    0.46978    0.50000    1.000
    C82      C        0.23175    0.07625    0.50000    1.000
    C83      C        0.33055    0.22620    0.50000    1.000
    C84      C        0.38185    0.30881    0.50000    1.000
    C85      C        0.33576    0.38683    0.50000    1.000
    C86      C        0.24193    0.39388    0.50000    1.000
    H47      H        0.20250    0.34800    0.50000    1.000
    C87      C        0.22230    0.47930    0.50000    1.000
    H48      H        0.16660    0.50290    0.50000    1.000
    C88      C        0.30237    0.52750    0.50000    1.000
