data_functionalizedCrystal
_audit_creation_method	'EQeq! by Chris Wilmer'
_symmetry_space_group_name_H-M	'P1'
_symmetry_Int_Tables_number	1
_symmetry_cell_setting	triclinic
loop_
_symmetry_equiv_pos_as_xyz
  x,y,z
_cell_length_a	26.684
_cell_length_b	26.684
_cell_length_c	4.701
_cell_angle_alpha	90
_cell_angle_beta	90
_cell_angle_gamma	90
loop_
_atom_site_label
_atom_site_type_symbol
_atom_site_fract_x
_atom_site_fract_y
_atom_site_fract_z
_atom_site_charge
Mof_Zn	Zn	0.27505	0.2136	0.8864	1.213
Mof_O 	O 	0.2135	0.2485	0.039	-0.788
Mof_H 	H 	0.1923	0.2598	0.9249	0.314
Mof_N 	N 	0.2517	0.1442	0.857	-0.304
Mof_C 	C 	0.2697	0.1089	0.019	0.103
Mof_H 	H 	0.2967	0.1142	0.1396	-0.022
Mof_N 	N 	0.2464	0.0637	-0	-0.16
Mof_C 	C 	0.2154	0.1231	0.725	0.101
Mof_O 	O 	0.2714	0.84	0.415	-0.53
Mof_C 	C 	0.1844	0.1456	0.527	-0.178
Mof_H 	H 	0.1888	0.1791	0.4789	0.059
Mof_O 	O 	0.3021	0.866	0.762	-0.265
Mof_C 	C 	0.1468	0.1177	0.403	0.089
Mof_C 	C 	0.1152	0.1387	0.204	-0.125
Mof_H 	H 	0.1198	0.1722	0.1543	0.075
Mof_C 	C 	0.077	0.1124	0.074	0.019
Mof_H 	H 	0.0561	0.1274	0.9406	0.011
Mof_C 	C 	0.071	0.0627	0.151	-0.062
Mof_H 	H 	0.0457	0.0436	0.0695	0.045
Mof_C 	C 	0.1027	0.0415	0.349	-0.057
Mof_H 	H 	0.0982	0.0079	0.3973	0.047
Mof_C 	C 	0.1409	0.068	0.48	0.011
Mof_C 	C 	0.1717	0.0457	0.676	-0.094
Mof_H 	H 	0.1673	0.0122	0.7252	0.063
Mof_C 	C 	0.2093	0.0736	0.8	0.041
Mof_C 	C 	0.258	0.0172	0.125	0.148
Mof_C 	C 	0.2801	0.9267	0.359	-0.163
Mof_C 	C 	0.3058	0.0079	0.219	0.171
Mof_H 	H 	0.3301	0.0327	0.2009	-0.024
Mof_C 	C 	0.3186	0.962	0.34	-0.222
Mof_H 	H 	0.3508	0.9553	0.4045	0.122
Mof_C 	C 	0.2304	0.9323	0.271	0.245
Mof_H 	H 	0.2061	0.9076	0.2875	-0.058
Mof_C 	C 	0.222	0.9796	0.153	-0.333
Mof_H 	H 	0.1898	0.9867	0.0893	0.142
Mof_C 	C 	0.2927	0.8771	0.498	0.485
Mof_O 	O 	0.3377	0.8745	0.603	-0.223
Mof_C 	C 	0.2786	0.0144	0.394	-0.364
Mof_H 	H 	0.2848	0.0438	0.4943	0.161
Mof_C 	C 	0.29	0.9691	0.516	0.301
Mof_H 	H 	0.3038	0.9671	0.6977	-0.066
Mof_C 	C 	0.2596	0.9275	0.091	-0.196
Mof_H 	H 	0.2533	0.8981	0.9913	0.124
Mof_C 	C 	0.2488	0.9738	0.976	0.174
Mof_H 	H 	0.2349	0.9756	0.7952	-0.033
Mof_Zn	Zn	0.77505	0.7136	0.3864	1.216
Mof_O 	O 	0.7135	0.7485	0.539	-0.808
Mof_H 	H 	0.6923	0.7598	0.4249	0.336
Mof_N 	N 	0.7517	0.6442	0.357	-0.296
Mof_C 	C 	0.7697	0.6089	0.519	0.108
Mof_H 	H 	0.7967	0.6142	0.6396	-0.026
Mof_N 	N 	0.7464	0.5637	0.5	-0.17
Mof_C 	C 	0.7154	0.6231	0.225	0.084
Mof_O 	O 	0.7714	0.34	0.915	-0.529
Mof_C 	C 	0.6844	0.6456	0.027	-0.128
Mof_H 	H 	0.6888	0.6791	0.9789	0.034
Mof_O 	O 	0.8021	0.366	0.262	-0.267
Mof_C 	C 	0.6468	0.6177	0.903	0.039
Mof_C 	C 	0.6152	0.6387	0.704	-0.09
Mof_H 	H 	0.6198	0.6722	0.6543	0.065
Mof_C 	C 	0.577	0.6124	0.574	-0.027
Mof_H 	H 	0.5561	0.6274	0.4406	0.038
Mof_C 	C 	0.571	0.5627	0.651	-0.028
Mof_H 	H 	0.5457	0.5436	0.5695	0.034
Mof_C 	C 	0.6027	0.5415	0.849	-0.082
Mof_H 	H 	0.5982	0.5079	0.8973	0.056
Mof_C 	C 	0.6409	0.568	0.98	0.03
Mof_C 	C 	0.6717	0.5457	0.176	-0.12
Mof_H 	H 	0.6673	0.5122	0.2252	0.068
Mof_C 	C 	0.7093	0.5736	0.3	0.056
Mof_C 	C 	0.758	0.5172	0.625	0.204
Mof_C 	C 	0.7801	0.4267	0.859	-0.192
Mof_C 	C 	0.8058	0.5079	0.719	-0.73
Mof_H 	H 	0.8301	0.5327	0.7009	0.287
Mof_C 	C 	0.8186	0.462	0.84	0.634
Mof_H 	H 	0.8508	0.4553	0.9045	-0.181
Mof_C 	C 	0.7304	0.4323	0.771	-0.461
Mof_H 	H 	0.7061	0.4076	0.7875	0.197
Mof_C 	C 	0.722	0.4796	0.653	0.4
Mof_H 	H 	0.6898	0.4867	0.5893	-0.109
Mof_C 	C 	0.7927	0.3771	0.998	0.501
Mof_O 	O 	0.8377	0.3745	0.103	-0.232
Mof_C 	C 	0.7786	0.5144	0.894	0.493
Mof_H 	H 	0.7848	0.5438	0.9943	-0.135
Mof_C 	C 	0.79	0.4691	0.016	-0.555
Mof_H 	H 	0.8038	0.4671	0.1977	0.252
Mof_C 	C 	0.7596	0.4275	0.591	0.549
Mof_H 	H 	0.7533	0.3981	0.4913	-0.133
Mof_C 	C 	0.7488	0.4738	0.476	-0.662
Mof_H 	H 	0.7349	0.4756	0.2952	0.278
Mof_Zn	Zn	0.72495	0.7864	0.8864	1.214
Mof_O 	O 	0.7865	0.7515	0.039	-0.787
Mof_H 	H 	0.8077	0.7402	0.9249	0.314
Mof_N 	N 	0.7483	0.8558	0.857	-0.304
Mof_C 	C 	0.7303	0.8911	0.019	0.103
Mof_H 	H 	0.7033	0.8858	0.1396	-0.022
Mof_N 	N 	0.7536	0.9363	-0	-0.16
Mof_C 	C 	0.7846	0.8769	0.725	0.101
Mof_O 	O 	0.7286	0.16	0.415	-0.53
Mof_C 	C 	0.8156	0.8544	0.527	-0.178
Mof_H 	H 	0.8112	0.8209	0.4789	0.059
Mof_O 	O 	0.6979	0.134	0.762	-0.265
Mof_C 	C 	0.8532	0.8823	0.403	0.089
Mof_C 	C 	0.8848	0.8613	0.204	-0.125
Mof_H 	H 	0.8802	0.8278	0.1543	0.075
Mof_C 	C 	0.923	0.8876	0.074	0.019
Mof_H 	H 	0.9439	0.8726	0.9406	0.011
Mof_C 	C 	0.929	0.9373	0.151	-0.062
Mof_H 	H 	0.9543	0.9564	0.0695	0.045
Mof_C 	C 	0.8973	0.9585	0.349	-0.057
Mof_H 	H 	0.9018	0.9921	0.3973	0.047
Mof_C 	C 	0.8591	0.932	0.48	0.011
Mof_C 	C 	0.8283	0.9543	0.676	-0.094
Mof_H 	H 	0.8327	0.9878	0.7252	0.063
Mof_C 	C 	0.7907	0.9264	0.8	0.041
Mof_C 	C 	0.742	0.9828	0.125	0.148
Mof_C 	C 	0.7199	0.0733	0.359	-0.163
Mof_C 	C 	0.6942	0.9921	0.219	0.171
Mof_H 	H 	0.6699	0.9673	0.2009	-0.024
Mof_C 	C 	0.6814	0.038	0.34	-0.222
Mof_H 	H 	0.6492	0.0447	0.4045	0.122
Mof_C 	C 	0.7696	0.0677	0.271	0.245
Mof_H 	H 	0.7939	0.0924	0.2875	-0.058
Mof_C 	C 	0.778	0.0204	0.153	-0.333
Mof_H 	H 	0.8102	0.0133	0.0893	0.142
Mof_C 	C 	0.7073	0.1229	0.498	0.485
Mof_O 	O 	0.6623	0.1255	0.603	-0.223
Mof_C 	C 	0.7214	0.9856	0.394	-0.364
Mof_H 	H 	0.7152	0.9562	0.4943	0.161
Mof_C 	C 	0.71	0.0309	0.516	0.301
Mof_H 	H 	0.6962	0.0329	0.6977	-0.066
Mof_C 	C 	0.7404	0.0725	0.091	-0.196
Mof_H 	H 	0.7467	0.1019	0.9913	0.124
Mof_C 	C 	0.7512	0.0262	0.976	0.174
Mof_H 	H 	0.7651	0.0244	0.7952	-0.033
Mof_Zn	Zn	0.22495	0.2864	0.3864	1.216
Mof_O 	O 	0.2865	0.2515	0.539	-0.808
Mof_H 	H 	0.3077	0.2402	0.4249	0.336
Mof_N 	N 	0.2483	0.3558	0.357	-0.296
Mof_C 	C 	0.2303	0.3911	0.519	0.108
Mof_H 	H 	0.2033	0.3858	0.6396	-0.026
Mof_N 	N 	0.2536	0.4363	0.5	-0.17
Mof_C 	C 	0.2846	0.3769	0.225	0.084
Mof_O 	O 	0.2286	0.66	0.915	-0.529
Mof_C 	C 	0.3156	0.3544	0.027	-0.128
Mof_H 	H 	0.3112	0.3209	0.9789	0.034
Mof_O 	O 	0.1979	0.634	0.262	-0.267
Mof_C 	C 	0.3532	0.3823	0.903	0.039
Mof_C 	C 	0.3848	0.3613	0.704	-0.09
Mof_H 	H 	0.3802	0.3278	0.6543	0.065
Mof_C 	C 	0.423	0.3876	0.574	-0.027
Mof_H 	H 	0.4439	0.3726	0.4406	0.038
Mof_C 	C 	0.429	0.4373	0.651	-0.028
Mof_H 	H 	0.4543	0.4564	0.5695	0.034
Mof_C 	C 	0.3973	0.4585	0.849	-0.082
Mof_H 	H 	0.4018	0.4921	0.8973	0.056
Mof_C 	C 	0.3591	0.432	0.98	0.03
Mof_C 	C 	0.3283	0.4543	0.176	-0.12
Mof_H 	H 	0.3327	0.4878	0.2252	0.068
Mof_C 	C 	0.2907	0.4264	0.3	0.056
Mof_C 	C 	0.242	0.4828	0.625	0.204
Mof_C 	C 	0.2199	0.5733	0.859	-0.192
Mof_C 	C 	0.1942	0.4921	0.719	-0.73
Mof_H 	H 	0.1699	0.4673	0.7009	0.287
Mof_C 	C 	0.1814	0.538	0.84	0.634
Mof_H 	H 	0.1492	0.5447	0.9045	-0.181
Mof_C 	C 	0.2696	0.5677	0.771	-0.461
Mof_H 	H 	0.2939	0.5924	0.7875	0.197
Mof_C 	C 	0.278	0.5204	0.653	0.4
Mof_H 	H 	0.3102	0.5133	0.5893	-0.109
Mof_C 	C 	0.2073	0.6229	0.998	0.501
Mof_O 	O 	0.1623	0.6255	0.103	-0.232
Mof_C 	C 	0.2214	0.4856	0.894	0.493
Mof_H 	H 	0.2152	0.4562	0.9943	-0.135
Mof_C 	C 	0.21	0.5309	0.016	-0.555
Mof_H 	H 	0.1962	0.5329	0.1977	0.252
Mof_C 	C 	0.2404	0.5725	0.591	0.549
Mof_H 	H 	0.2467	0.6019	0.4913	-0.133
Mof_C 	C 	0.2512	0.5262	0.476	-0.662
Mof_H 	H 	0.2651	0.5244	0.2952	0.278
Mof_Zn	Zn	0.2136	0.72495	0.1136	1.214
Mof_O 	O 	0.2485	0.7865	0.961	-0.787
Mof_H 	H 	0.2598	0.8077	0.0751	0.314
Mof_N 	N 	0.1442	0.7483	0.143	-0.303
Mof_C 	C 	0.1089	0.7303	0.981	0.099
Mof_H 	H 	0.1142	0.7033	0.8604	-0.021
Mof_N 	N 	0.0637	0.7536	-0	-0.156
Mof_C 	C 	0.1231	0.7846	0.275	0.101
Mof_O 	O 	0.84	0.7286	0.585	-0.53
Mof_C 	C 	0.1456	0.8156	0.473	-0.178
Mof_H 	H 	0.1791	0.8112	0.5211	0.059
Mof_O 	O 	0.866	0.6979	0.238	-0.266
Mof_C 	C 	0.1177	0.8532	0.597	0.088
Mof_C 	C 	0.1387	0.8848	0.796	-0.123
Mof_H 	H 	0.1722	0.8802	0.8457	0.075
Mof_C 	C 	0.1124	0.923	0.926	0.014
Mof_H 	H 	0.1274	0.9439	0.0594	0.015
Mof_C 	C 	0.0627	0.929	0.849	-0.059
Mof_H 	H 	0.0436	0.9543	0.9305	0.044
Mof_C 	C 	0.0415	0.8973	0.651	-0.059
Mof_H 	H 	0.0079	0.9018	0.6027	0.048
Mof_C 	C 	0.068	0.8591	0.52	0.013
Mof_C 	C 	0.0457	0.8283	0.324	-0.092
Mof_H 	H 	0.0122	0.8327	0.2748	0.063
Mof_C 	C 	0.0736	0.7907	0.2	0.041
Mof_C 	C 	0.0172	0.742	0.875	0.139
Mof_C 	C 	0.9267	0.7199	0.641	-0.161
Mof_C 	C 	0.0079	0.6942	0.781	0.308
Mof_H 	H 	0.0327	0.6699	0.7991	-0.071
Mof_C 	C 	0.962	0.6814	0.66	-0.354
Mof_H 	H 	0.9553	0.6492	0.5955	0.169
Mof_C 	C 	0.9323	0.7696	0.729	0.377
Mof_H 	H 	0.9076	0.7939	0.7125	-0.105
Mof_C 	C 	0.9796	0.778	0.847	-0.472
Mof_H 	H 	0.9867	0.8102	0.9107	0.19
Mof_C 	C 	0.8771	0.7073	0.502	0.483
Mof_O 	O 	0.8745	0.6623	0.397	-0.22
Mof_C 	C 	0.0144	0.7214	0.606	-0.496
Mof_H 	H 	0.0438	0.7152	0.5057	0.205
Mof_C 	C 	0.9691	0.71	0.484	0.437
Mof_H 	H 	0.9671	0.6962	0.3023	-0.117
Mof_C 	C 	0.9275	0.7404	0.909	-0.33
Mof_H 	H 	0.8981	0.7467	0.0087	0.169
Mof_C 	C 	0.9738	0.7512	0.024	0.328
Mof_H 	H 	0.9756	0.7651	0.2048	-0.09
Mof_Zn	Zn	0.7136	0.22495	0.6136	1.216
Mof_O 	O 	0.7485	0.2865	0.461	-0.808
Mof_H 	H 	0.7598	0.3077	0.5751	0.336
Mof_N 	N 	0.6442	0.2483	0.643	-0.296
Mof_C 	C 	0.6089	0.2303	0.481	0.109
Mof_H 	H 	0.6142	0.2033	0.3604	-0.026
Mof_N 	N 	0.5637	0.2536	0.5	-0.17
Mof_C 	C 	0.6231	0.2846	0.775	0.084
Mof_O 	O 	0.34	0.2286	0.085	-0.529
Mof_C 	C 	0.6456	0.3156	0.973	-0.128
Mof_H 	H 	0.6791	0.3112	0.0211	0.034
Mof_O 	O 	0.366	0.1979	0.738	-0.267
Mof_C 	C 	0.6177	0.3532	0.097	0.039
Mof_C 	C 	0.6387	0.3848	0.296	-0.09
Mof_H 	H 	0.6722	0.3802	0.3457	0.065
Mof_C 	C 	0.6124	0.423	0.426	-0.026
Mof_H 	H 	0.6274	0.4439	0.5594	0.038
Mof_C 	C 	0.5627	0.429	0.349	-0.028
Mof_H 	H 	0.5436	0.4543	0.4305	0.034
Mof_C 	C 	0.5415	0.3973	0.151	-0.081
Mof_H 	H 	0.5079	0.4018	0.1027	0.056
Mof_C 	C 	0.568	0.3591	0.02	0.03
Mof_C 	C 	0.5457	0.3283	0.824	-0.12
Mof_H 	H 	0.5122	0.3327	0.7748	0.068
Mof_C 	C 	0.5736	0.2907	0.7	0.056
Mof_C 	C 	0.5172	0.242	0.375	0.205
Mof_C 	C 	0.4267	0.2199	0.141	-0.193
Mof_C 	C 	0.5079	0.1942	0.281	-0.741
Mof_H 	H 	0.5327	0.1699	0.2991	0.291
Mof_C 	C 	0.462	0.1814	0.16	0.646
Mof_H 	H 	0.4553	0.1492	0.0955	-0.185
Mof_C 	C 	0.4323	0.2696	0.229	-0.473
Mof_H 	H 	0.4076	0.2939	0.2125	0.201
Mof_C 	C 	0.4796	0.278	0.347	0.413
Mof_H 	H 	0.4867	0.3102	0.4107	-0.113
Mof_C 	C 	0.3771	0.2073	0.002	0.502
Mof_O 	O 	0.3745	0.1623	0.897	-0.233
Mof_C 	C 	0.5144	0.2214	0.106	0.504
Mof_H 	H 	0.5438	0.2152	0.0057	-0.139
Mof_C 	C 	0.4691	0.21	0.984	-0.567
Mof_H 	H 	0.4671	0.1962	0.8023	0.256
Mof_C 	C 	0.4275	0.2404	0.409	0.561
Mof_H 	H 	0.3981	0.2467	0.5087	-0.137
Mof_C 	C 	0.4738	0.2512	0.524	-0.676
Mof_H 	H 	0.4756	0.2651	0.7048	0.283
Mof_Zn	Zn	0.7864	0.27505	0.1136	1.214
Mof_O 	O 	0.7515	0.2135	0.961	-0.787
Mof_H 	H 	0.7402	0.1923	0.0751	0.314
Mof_N 	N 	0.8558	0.2517	0.143	-0.303
Mof_C 	C 	0.8911	0.2697	0.981	0.099
Mof_H 	H 	0.8858	0.2967	0.8604	-0.021
Mof_N 	N 	0.9363	0.2464	-0	-0.156
Mof_C 	C 	0.8769	0.2154	0.275	0.101
Mof_O 	O 	0.16	0.2714	0.585	-0.53
Mof_C 	C 	0.8544	0.1844	0.473	-0.178
Mof_H 	H 	0.8209	0.1888	0.5211	0.059
Mof_O 	O 	0.134	0.3021	0.238	-0.266
Mof_C 	C 	0.8823	0.1468	0.597	0.088
Mof_C 	C 	0.8613	0.1152	0.796	-0.123
Mof_H 	H 	0.8278	0.1198	0.8457	0.075
Mof_C 	C 	0.8876	0.077	0.926	0.014
Mof_H 	H 	0.8726	0.0561	0.0594	0.015
Mof_C 	C 	0.9373	0.071	0.849	-0.059
Mof_H 	H 	0.9564	0.0457	0.9305	0.044
Mof_C 	C 	0.9585	0.1027	0.651	-0.059
Mof_H 	H 	0.9921	0.0982	0.6027	0.048
Mof_C 	C 	0.932	0.1409	0.52	0.013
Mof_C 	C 	0.9543	0.1717	0.324	-0.092
Mof_H 	H 	0.9878	0.1673	0.2748	0.063
Mof_C 	C 	0.9264	0.2093	0.2	0.041
Mof_C 	C 	0.9828	0.258	0.875	0.139
Mof_C 	C 	0.0733	0.2801	0.641	-0.161
Mof_C 	C 	0.9921	0.3058	0.781	0.308
Mof_H 	H 	0.9673	0.3301	0.7991	-0.071
Mof_C 	C 	0.038	0.3186	0.66	-0.354
Mof_H 	H 	0.0447	0.3508	0.5955	0.169
Mof_C 	C 	0.0677	0.2304	0.729	0.377
Mof_H 	H 	0.0924	0.2061	0.7125	-0.105
Mof_C 	C 	0.0204	0.222	0.847	-0.472
Mof_H 	H 	0.0133	0.1898	0.9107	0.19
Mof_C 	C 	0.1229	0.2927	0.502	0.483
Mof_O 	O 	0.1255	0.3377	0.397	-0.22
Mof_C 	C 	0.9856	0.2786	0.606	-0.496
Mof_H 	H 	0.9562	0.2848	0.5057	0.205
Mof_C 	C 	0.0309	0.29	0.484	0.437
Mof_H 	H 	0.0329	0.3038	0.3023	-0.117
Mof_C 	C 	0.0725	0.2596	0.909	-0.33
Mof_H 	H 	0.1019	0.2533	0.0087	0.169
Mof_C 	C 	0.0262	0.2488	0.024	0.328
Mof_H 	H 	0.0244	0.2349	0.2048	-0.09
Mof_Zn	Zn	0.2864	0.77505	0.6136	1.216
Mof_O 	O 	0.2515	0.7135	0.461	-0.808
Mof_H 	H 	0.2402	0.6923	0.5751	0.336
Mof_N 	N 	0.3558	0.7517	0.643	-0.296
Mof_C 	C 	0.3911	0.7697	0.481	0.109
Mof_H 	H 	0.3858	0.7967	0.3604	-0.026
Mof_N 	N 	0.4363	0.7464	0.5	-0.17
Mof_C 	C 	0.3769	0.7154	0.775	0.084
Mof_O 	O 	0.66	0.7714	0.085	-0.529
Mof_C 	C 	0.3544	0.6844	0.973	-0.128
Mof_H 	H 	0.3209	0.6888	0.0211	0.034
Mof_O 	O 	0.634	0.8021	0.738	-0.267
Mof_C 	C 	0.3823	0.6468	0.097	0.039
Mof_C 	C 	0.3613	0.6152	0.296	-0.09
Mof_H 	H 	0.3278	0.6198	0.3457	0.065
Mof_C 	C 	0.3876	0.577	0.426	-0.026
Mof_H 	H 	0.3726	0.5561	0.5594	0.038
Mof_C 	C 	0.4373	0.571	0.349	-0.028
Mof_H 	H 	0.4564	0.5457	0.4305	0.034
Mof_C 	C 	0.4585	0.6027	0.151	-0.081
Mof_H 	H 	0.4921	0.5982	0.1027	0.056
Mof_C 	C 	0.432	0.6409	0.02	0.03
Mof_C 	C 	0.4543	0.6717	0.824	-0.12
Mof_H 	H 	0.4878	0.6673	0.7748	0.068
Mof_C 	C 	0.4264	0.7093	0.7	0.056
Mof_C 	C 	0.4828	0.758	0.375	0.205
Mof_C 	C 	0.5733	0.7801	0.141	-0.193
Mof_C 	C 	0.4921	0.8058	0.281	-0.741
Mof_H 	H 	0.4673	0.8301	0.2991	0.291
Mof_C 	C 	0.538	0.8186	0.16	0.646
Mof_H 	H 	0.5447	0.8508	0.0955	-0.185
Mof_C 	C 	0.5677	0.7304	0.229	-0.473
Mof_H 	H 	0.5924	0.7061	0.2125	0.201
Mof_C 	C 	0.5204	0.722	0.347	0.413
Mof_H 	H 	0.5133	0.6898	0.4107	-0.113
Mof_C 	C 	0.6229	0.7927	0.002	0.502
Mof_O 	O 	0.6255	0.8377	0.897	-0.233
Mof_C 	C 	0.4856	0.7786	0.106	0.504
Mof_H 	H 	0.4562	0.7848	0.0057	-0.139
Mof_C 	C 	0.5309	0.79	0.984	-0.567
Mof_H 	H 	0.5329	0.8038	0.8023	0.256
Mof_C 	C 	0.5725	0.7596	0.409	0.561
Mof_H 	H 	0.6019	0.7533	0.5087	-0.137
Mof_C 	C 	0.5262	0.7488	0.524	-0.676
Mof_H 	H 	0.5244	0.7349	0.7048	0.283
_end
