data_functionalizedCrystal
_audit_creation_method	'EQeq! by Chris Wilmer'
_symmetry_space_group_name_H-M	'P1'
_symmetry_Int_Tables_number	1
_symmetry_cell_setting	triclinic
loop_
_symmetry_equiv_pos_as_xyz
  x,y,z
_cell_length_a	19.999
_cell_length_b	18.6284
_cell_length_c	35.123
_cell_angle_alpha	90
_cell_angle_beta	90
_cell_angle_gamma	90
loop_
_atom_site_label
_atom_site_type_symbol
_atom_site_fract_x
_atom_site_fract_y
_atom_site_fract_z
_atom_site_charge
Mof_C 	C 	0.7209	0.3411	0.677	0.393
Mof_C 	C 	0.683	0.4112	0.678	-0.086
Mof_C 	C 	0.9733	0.2685	0.6289	-0.101
Mof_C 	C 	0.679	0.4492	0.7116	-0.006
Mof_H 	H 	0.6998	0.431	0.7332	0.06
Mof_C 	C 	0.6448	0.514	0.7142	-0.023
Mof_H 	H 	0.6423	0.5389	0.7371	0.063
Mof_C 	C 	0.6137	0.541	0.6808	-0.074
Mof_C 	C 	0.6195	0.5042	0.647	-0.02
Mof_H 	H 	0.6007	0.5231	0.625	0.049
Mof_C 	C 	0.6527	0.4398	0.6456	-0.008
Mof_H 	H 	0.655	0.4149	0.6227	0.046
Mof_C 	C 	0.5722	0.6087	0.683	0.374
Mof_C 	C 	0.7354	0.109	0.6667	0.355
Mof_C 	C 	0.6988	0.0374	0.6703	-0.061
Mof_C 	C 	0.6915	0.9912	0.6395	-0.025
Mof_H 	H 	0.7112	0.0024	0.6163	0.055
Mof_C 	C 	0.6553	0.929	0.6435	-0.011
Mof_H 	H 	0.6486	0.8992	0.6226	0.047
Mof_C 	C 	0.6286	0.9104	0.6787	-0.072
Mof_C 	C 	0.6355	0.9554	0.7097	-0.01
Mof_H 	H 	0.6164	0.9434	0.733	0.062
Mof_C 	C 	0.6707	0.0175	0.7057	-0.026
Mof_H 	H 	0.6763	0.0475	0.7266	0.067
Mof_C 	C 	0.5908	0.8404	0.6828	0.353
Mof_C 	C 	0.8334	0.1402	0.5271	0.398
Mof_C 	C 	0.8665	0.0667	0.53	-0.083
Mof_C 	C 	0.8882	0.033	0.497	-0.015
Mof_H 	H 	0.8795	0.0529	0.4733	0.061
Mof_C 	C 	0.9236	0.9685	0.5002	-0.008
Mof_H 	H 	0.9412	0.947	0.4785	0.059
Mof_C 	C 	0.9323	0.9367	0.5349	-0.085
Mof_C 	C 	0.9087	0.9668	0.566	-0.009
Mof_H 	H 	0.9133	0.9437	0.5894	0.041
Mof_C 	C 	0.8758	0.0352	0.5641	-0.012
Mof_H 	H 	0.861	0.0576	0.5862	0.039
Mof_C 	C 	0.9694	0.8667	0.5388	0.38
Mof_C 	C 	0.6853	0.2562	0.4364	0.276
Mof_C 	C 	0.6537	0.257	0.3966	-0.024
Mof_C 	C 	0.5965	0.219	0.3917	-0.032
Mof_H 	H 	0.5768	0.1944	0.4119	0.068
Mof_C 	C 	0.5677	0.2179	0.3548	-0.02
Mof_H 	H 	0.5324	0.1872	0.3492	0.065
Mof_C 	C 	0.5936	0.2645	0.3263	-0.042
Mof_C 	C 	0.646	0.3054	0.3345	-0.013
Mof_H 	H 	0.6614	0.3381	0.3165	0.061
Mof_C 	C 	0.6781	0.3002	0.3691	-0.035
Mof_H 	H 	0.7167	0.3267	0.3735	0.069
Mof_C 	C 	0.5567	0.2653	0.2884	0.293
Mof_C 	C 	0.8258	0.3685	0.5487	0.387
Mof_C 	C 	0.86	0.4394	0.5523	-0.078
Mof_C 	C 	0.874	0.4721	0.5891	-0.018
Mof_H 	H 	0.8603	0.4493	0.6114	0.051
Mof_C 	C 	0.9078	0.5373	0.5911	-0.007
Mof_H 	H 	0.9177	0.5578	0.6146	0.05
Mof_C 	C 	0.9255	0.5695	0.5594	-0.082
Mof_C 	C 	0.9126	0.5417	0.5234	-0.01
Mof_H 	H 	0.9253	0.5677	0.5019	0.063
Mof_C 	C 	0.8814	0.4767	0.519	-0.016
Mof_H 	H 	0.8743	0.4574	0.4949	0.063
Mof_C 	C 	0.9634	0.6419	0.5617	0.416
Mof_C 	C 	0.9177	0.2731	0.6571	0.39
Mof_C 	C 	0.0305	0.3125	0.6317	-0.011
Mof_H 	H 	0.0319	0.3482	0.6502	0.055
Mof_C 	C 	0.0834	0.3039	0.6079	-0.011
Mof_H 	H 	0.1193	0.3356	0.6093	0.034
Mof_C 	C 	0.0265	0.2001	0.5771	-0.025
Mof_H 	H 	0.026	0.1641	0.5588	0.06
Mof_C 	C 	0.9718	0.2097	0.6011	-0.004
Mof_H 	H 	0.935	0.1794	0.5995	0.029
Mof_C 	C 	0.0845	0.2467	0.5809	-0.085
Mof_C 	C 	0.1431	0.2357	0.5553	0.366
Mof_C 	C 	0.1607	0.7357	0.5715	0.3
Mof_C 	C 	0.2189	0.7493	0.5973	-0.06
Mof_C 	C 	0.2206	0.7993	0.6224	-0.012
Mof_H 	H 	0.1835	0.8288	0.6255	0.039
Mof_C 	C 	0.2783	0.8107	0.6457	-0.014
Mof_H 	H 	0.2805	0.8505	0.6616	0.055
Mof_C 	C 	0.3286	0.7644	0.6446	-0.083
Mof_C 	C 	0.3288	0.7068	0.6182	0.002
Mof_H 	H 	0.3654	0.6762	0.6166	0.025
Mof_C 	C 	0.2742	0.6968	0.5952	-0.042
Mof_H 	H 	0.2721	0.658	0.5786	0.063
Mof_C 	C 	0.3878	0.7707	0.6712	0.34
Mof_C 	C 	0.1121	0.7387	0.4489	0.289
Mof_C 	C 	0.1359	0.7412	0.4071	-0.033
Mof_C 	C 	0.1846	0.7846	0.3955	-0.023
Mof_H 	H 	0.2078	0.8116	0.4134	0.065
Mof_C 	C 	0.2019	0.7907	0.3565	-0.029
Mof_H 	H 	0.2354	0.8217	0.3485	0.065
Mof_C 	C 	0.1675	0.7493	0.3314	-0.034
Mof_C 	C 	0.1173	0.6992	0.3446	-0.026
Mof_H 	H 	0.0954	0.6688	0.3277	0.067
Mof_C 	C 	0.1034	0.6978	0.3816	-0.026
Mof_H 	H 	0.0708	0.6664	0.3905	0.066
Mof_C 	C 	0.1807	0.7583	0.2894	0.275
Mof_Ca	Ca	0.77774	0.23396	0.60644	1.643
Mof_Cd	Cd	0.81886	0.22973	0.71112	0.476
Mof_O 	O 	0.752	0.3239	0.7058	-0.307
Mof_Ca	Ca	0.01954	0.77118	0.61684	1.626
Mof_Cd	Cd	0.74735	0.25795	0.50412	0.495
Mof_O 	O 	0.7163	0.3041	0.6473	-0.452
Mof_Cd	Cd	0.06044	0.7453	0.5181	0.481
Mof_O 	O 	0.5644	0.6385	0.7154	-0.3
Mof_Cd	Cd	0.49941	0.7343	0.71908	0.484
Mof_O 	O 	0.5509	0.6327	0.6522	-0.457
Mof_O 	O 	0.7462	0.1435	0.6974	-0.304
Mof_O 	O 	0.7513	0.1262	0.6336	-0.45
Mof_O 	O 	0.565	0.828	0.7151	-0.288
Mof_O 	O 	0.5837	0.7984	0.6538	-0.451
Mof_O 	O 	0.8295	0.1765	0.5571	-0.46
Mof_O 	O 	0.8106	0.1583	0.4963	-0.305
Mof_O 	O 	0.9709	0.8373	0.5701	-0.468
Mof_O 	O 	0.0008	0.8439	0.5086	-0.29
Mof_O 	O 	0.7324	0.3002	0.4428	-0.243
Mof_O 	O 	0.6695	0.2082	0.4596	-0.242
Mof_O 	O 	0.5761	0.3124	0.2649	-0.249
Mof_O 	O 	0.5116	0.2226	0.2807	-0.25
Mof_O 	O 	0.8138	0.3468	0.5155	-0.309
Mof_O 	O 	0.8078	0.3379	0.5788	-0.464
Mof_O 	O 	0.9739	0.6685	0.5919	-0.482
Mof_O 	O 	0.986	0.664	0.5302	-0.323
Mof_O 	O 	0.8642	0.2391	0.6501	-0.472
Mof_O 	O 	0.9262	0.3078	0.6852	-0.285
Mof_O 	O 	0.1408	0.1891	0.531	-0.284
Mof_O 	O 	0.193	0.2753	0.5593	-0.442
Mof_O 	O 	0.1597	0.6865	0.5472	-0.264
Mof_O 	O 	0.1116	0.7824	0.5743	-0.411
Mof_O 	O 	0.4366	0.7283	0.6652	-0.435
Mof_O 	O 	0.3843	0.8116	0.6992	-0.258
Mof_O 	O 	0.0713	0.6914	0.4585	-0.25
Mof_O 	O 	0.137	0.7834	0.4711	-0.25
Mof_O 	O 	0.1434	0.724	0.2664	-0.245
Mof_O 	O 	0.2266	0.7984	0.2776	-0.235
Mof_C 	C 	0.2791	0.6589	0.177	0.394
Mof_C 	C 	0.317	0.5888	0.178	-0.085
Mof_C 	C 	0.0267	0.7315	0.1289	-0.1
Mof_C 	C 	0.321	0.5508	0.2116	-0.006
Mof_H 	H 	0.3002	0.569	0.2332	0.06
Mof_C 	C 	0.3552	0.486	0.2142	-0.023
Mof_H 	H 	0.3577	0.4611	0.2371	0.063
Mof_C 	C 	0.3863	0.459	0.1808	-0.074
Mof_C 	C 	0.3805	0.4958	0.147	-0.02
Mof_H 	H 	0.3993	0.4769	0.125	0.049
Mof_C 	C 	0.3473	0.5602	0.1456	-0.008
Mof_H 	H 	0.345	0.5851	0.1227	0.046
Mof_C 	C 	0.4278	0.3913	0.183	0.374
Mof_C 	C 	0.2646	0.891	0.1667	0.355
Mof_C 	C 	0.3012	0.9626	0.1703	-0.063
Mof_C 	C 	0.3085	0.0088	0.1395	-0.021
Mof_H 	H 	0.2888	0.9976	0.1163	0.053
Mof_C 	C 	0.3447	0.071	0.1435	-0.013
Mof_H 	H 	0.3514	0.1008	0.1226	0.047
Mof_C 	C 	0.3714	0.0896	0.1787	-0.072
Mof_C 	C 	0.3645	0.0446	0.2097	-0.01
Mof_H 	H 	0.3836	0.0566	0.233	0.062
Mof_C 	C 	0.3293	0.9825	0.2057	-0.026
Mof_H 	H 	0.3237	0.9525	0.2266	0.066
Mof_C 	C 	0.4092	0.1596	0.1828	0.353
Mof_C 	C 	0.1666	0.8598	0.0271	0.398
Mof_C 	C 	0.1335	0.9333	0.03	-0.114
Mof_C 	C 	0.1118	0.967	0.997	0.037
Mof_H 	H 	0.1205	0.9471	0.9733	0.045
Mof_C 	C 	0.0764	0.0315	0.0002	-0.064
Mof_H 	H 	0.0588	0.053	0.9785	0.083
Mof_C 	C 	0.0677	0.0633	0.0349	-0.055
Mof_C 	C 	0.0913	0.0332	0.066	-0.037
Mof_H 	H 	0.0867	0.0563	0.0894	0.05
Mof_C 	C 	0.1242	0.9648	0.0641	0.013
Mof_H 	H 	0.139	0.9424	0.0862	0.03
Mof_C 	C 	0.0306	0.1333	0.0388	0.369
Mof_C 	C 	0.3147	0.7438	0.9364	0.276
Mof_C 	C 	0.3463	0.743	0.8966	-0.022
Mof_C 	C 	0.4035	0.781	0.8917	-0.033
Mof_H 	H 	0.4232	0.8056	0.9119	0.07
Mof_C 	C 	0.4323	0.7821	0.8548	-0.019
Mof_H 	H 	0.4676	0.8128	0.8492	0.065
Mof_C 	C 	0.4064	0.7355	0.8263	-0.042
Mof_C 	C 	0.354	0.6946	0.8345	-0.012
Mof_H 	H 	0.3386	0.6619	0.8165	0.061
Mof_C 	C 	0.3219	0.6998	0.8691	-0.036
Mof_H 	H 	0.2833	0.6733	0.8735	0.07
Mof_C 	C 	0.4433	0.7347	0.7884	0.293
Mof_C 	C 	0.1742	0.6315	0.0487	0.383
Mof_C 	C 	0.14	0.5606	0.0523	-0.068
Mof_C 	C 	0.126	0.5279	0.0891	-0.026
Mof_H 	H 	0.1397	0.5507	0.1114	0.054
Mof_C 	C 	0.0922	0.4627	0.0911	0.002
Mof_H 	H 	0.0823	0.4422	0.1146	0.047
Mof_C 	C 	0.0745	0.4305	0.0594	-0.092
Mof_C 	C 	0.0874	0.4583	0.0234	0.006
Mof_H 	H 	0.0747	0.4323	0.0019	0.055
Mof_C 	C 	0.1186	0.5233	0.019	-0.041
Mof_H 	H 	0.1257	0.5426	0.9949	0.078
Mof_C 	C 	0.0366	0.3581	0.0617	0.419
Mof_C 	C 	0.0823	0.7269	0.1571	0.39
Mof_C 	C 	0.9695	0.6875	0.1317	-0.011
Mof_H 	H 	0.9681	0.6518	0.1502	0.055
Mof_C 	C 	0.9166	0.6961	0.1079	-0.011
Mof_H 	H 	0.8807	0.6644	0.1093	0.034
Mof_C 	C 	0.9735	0.7999	0.0771	-0.025
Mof_H 	H 	0.974	0.8359	0.0588	0.059
Mof_C 	C 	0.0282	0.7903	0.1011	-0.004
Mof_H 	H 	0.065	0.8206	0.0995	0.029
Mof_C 	C 	0.9155	0.7533	0.0809	-0.086
Mof_C 	C 	0.8569	0.7643	0.0553	0.366
Mof_C 	C 	0.8393	0.2643	0.0715	0.3
Mof_C 	C 	0.7811	0.2507	0.0973	-0.06
Mof_C 	C 	0.7794	0.2007	0.1224	-0.011
Mof_H 	H 	0.8165	0.1712	0.1255	0.038
Mof_C 	C 	0.7217	0.1893	0.1457	-0.014
Mof_H 	H 	0.7195	0.1495	0.1616	0.055
Mof_C 	C 	0.6714	0.2356	0.1446	-0.083
Mof_C 	C 	0.6712	0.2932	0.1182	0.002
Mof_H 	H 	0.6346	0.3238	0.1166	0.025
Mof_C 	C 	0.7258	0.3032	0.0952	-0.042
Mof_H 	H 	0.7279	0.342	0.0786	0.062
Mof_C 	C 	0.6122	0.2293	0.1712	0.34
Mof_C 	C 	0.8879	0.2613	0.9489	0.288
Mof_C 	C 	0.8641	0.2588	0.9071	-0.031
Mof_C 	C 	0.8154	0.2154	0.8955	-0.024
Mof_H 	H 	0.7922	0.1884	0.9134	0.066
Mof_C 	C 	0.7981	0.2093	0.8565	-0.027
Mof_H 	H 	0.7646	0.1783	0.8485	0.065
Mof_C 	C 	0.8325	0.2507	0.8314	-0.034
Mof_C 	C 	0.8827	0.3008	0.8446	-0.024
Mof_H 	H 	0.9046	0.3312	0.8277	0.067
Mof_C 	C 	0.8966	0.3022	0.8816	-0.027
Mof_H 	H 	0.9292	0.3336	0.8905	0.067
Mof_C 	C 	0.8193	0.2417	0.7894	0.276
Mof_Ca	Ca	0.22226	0.76604	0.10644	1.643
Mof_Cd	Cd	0.18114	0.77027	0.21112	0.476
Mof_O 	O 	0.248	0.6761	0.2058	-0.307
Mof_Ca	Ca	0.98046	0.22882	0.11684	1.625
Mof_Cd	Cd	0.25265	0.74205	0.00412	0.487
Mof_O 	O 	0.2837	0.6959	0.1473	-0.452
Mof_Cd	Cd	0.93956	0.2547	0.0181	0.476
Mof_O 	O 	0.4356	0.3615	0.2154	-0.3
Mof_Cd	Cd	0.50059	0.2657	0.21908	0.484
Mof_O 	O 	0.4491	0.3673	0.1522	-0.457
Mof_O 	O 	0.2538	0.8565	0.1974	-0.304
Mof_O 	O 	0.2487	0.8738	0.1336	-0.45
Mof_O 	O 	0.435	0.172	0.2151	-0.288
Mof_O 	O 	0.4163	0.2016	0.1538	-0.451
Mof_O 	O 	0.1705	0.8235	0.0571	-0.46
Mof_O 	O 	0.1894	0.8417	0.9963	-0.297
Mof_O 	O 	0.0291	0.1627	0.0701	-0.465
Mof_O 	O 	0.9992	0.1561	0.0086	-0.291
Mof_O 	O 	0.2676	0.6998	0.9428	-0.24
Mof_O 	O 	0.3305	0.7918	0.9596	-0.238
Mof_O 	O 	0.4239	0.6876	0.7649	-0.249
Mof_O 	O 	0.4884	0.7774	0.7807	-0.25
Mof_O 	O 	0.1862	0.6532	0.0155	-0.31
Mof_O 	O 	0.1922	0.6621	0.0788	-0.463
Mof_O 	O 	0.0261	0.3315	0.0919	-0.482
Mof_O 	O 	0.014	0.336	0.0302	-0.325
Mof_O 	O 	0.1358	0.7609	0.1501	-0.472
Mof_O 	O 	0.0738	0.6922	0.1852	-0.285
Mof_O 	O 	0.8592	0.8109	0.031	-0.287
Mof_O 	O 	0.807	0.7247	0.0593	-0.443
Mof_O 	O 	0.8403	0.3135	0.0472	-0.266
Mof_O 	O 	0.8884	0.2176	0.0743	-0.412
Mof_O 	O 	0.5634	0.2717	0.1652	-0.435
Mof_O 	O 	0.6157	0.1884	0.1992	-0.257
Mof_O 	O 	0.9287	0.3086	0.9585	-0.246
Mof_O 	O 	0.863	0.2166	0.9711	-0.245
Mof_O 	O 	0.8566	0.276	0.7664	-0.245
Mof_O 	O 	0.7734	0.2016	0.7776	-0.235
Mof_C 	C 	0.2209	0.1589	0.677	0.395
Mof_C 	C 	0.183	0.0888	0.678	-0.087
Mof_C 	C 	0.4733	0.2315	0.6289	-0.1
Mof_C 	C 	0.179	0.0508	0.7116	-0.003
Mof_H 	H 	0.1998	0.069	0.7332	0.059
Mof_C 	C 	0.1448	0.986	0.7142	-0.026
Mof_H 	H 	0.1423	0.9611	0.7371	0.064
Mof_C 	C 	0.1137	0.959	0.6808	-0.072
Mof_C 	C 	0.1195	0.9958	0.647	-0.023
Mof_H 	H 	0.1007	0.9769	0.625	0.05
Mof_C 	C 	0.1527	0.0602	0.6456	-0.004
Mof_H 	H 	0.155	0.0851	0.6227	0.045
Mof_C 	C 	0.0722	0.8913	0.683	0.373
Mof_C 	C 	0.2354	0.391	0.6667	0.355
Mof_C 	C 	0.1988	0.4626	0.6703	-0.061
Mof_C 	C 	0.1915	0.5088	0.6395	-0.025
Mof_H 	H 	0.2112	0.4976	0.6163	0.055
Mof_C 	C 	0.1553	0.571	0.6435	-0.011
Mof_H 	H 	0.1486	0.6008	0.6226	0.047
Mof_C 	C 	0.1286	0.5896	0.6787	-0.072
Mof_C 	C 	0.1355	0.5446	0.7097	-0.01
Mof_H 	H 	0.1164	0.5566	0.733	0.062
Mof_C 	C 	0.1707	0.4825	0.7057	-0.026
Mof_H 	H 	0.1763	0.4525	0.7266	0.067
Mof_C 	C 	0.0908	0.6596	0.6828	0.353
Mof_C 	C 	0.3334	0.3598	0.5271	0.398
Mof_C 	C 	0.3665	0.4333	0.53	-0.084
Mof_C 	C 	0.3882	0.467	0.497	-0.014
Mof_H 	H 	0.3795	0.4471	0.4733	0.061
Mof_C 	C 	0.4236	0.5315	0.5002	-0.009
Mof_H 	H 	0.4412	0.553	0.4785	0.059
Mof_C 	C 	0.4323	0.5633	0.5349	-0.084
Mof_C 	C 	0.4087	0.5332	0.566	-0.011
Mof_H 	H 	0.4133	0.5563	0.5894	0.041
Mof_C 	C 	0.3758	0.4648	0.5641	-0.011
Mof_H 	H 	0.361	0.4424	0.5862	0.038
Mof_C 	C 	0.4694	0.6333	0.5388	0.379
Mof_C 	C 	0.1853	0.2438	0.4364	0.276
Mof_C 	C 	0.1537	0.243	0.3966	-0.024
Mof_C 	C 	0.0965	0.281	0.3917	-0.032
Mof_H 	H 	0.0768	0.3056	0.4119	0.068
Mof_C 	C 	0.0677	0.2821	0.3548	-0.02
Mof_H 	H 	0.0324	0.3128	0.3492	0.065
Mof_C 	C 	0.0936	0.2355	0.3263	-0.041
Mof_C 	C 	0.146	0.1946	0.3345	-0.013
Mof_H 	H 	0.1614	0.1619	0.3165	0.061
Mof_C 	C 	0.1781	0.1998	0.3691	-0.035
Mof_H 	H 	0.2167	0.1733	0.3735	0.069
Mof_C 	C 	0.0567	0.2347	0.2884	0.292
Mof_C 	C 	0.3258	0.1315	0.5487	0.388
Mof_C 	C 	0.36	0.0606	0.5523	-0.079
Mof_C 	C 	0.374	0.0279	0.5891	-0.016
Mof_H 	H 	0.3603	0.0507	0.6114	0.051
Mof_C 	C 	0.4078	0.9627	0.5911	-0.009
Mof_H 	H 	0.4177	0.9422	0.6146	0.051
Mof_C 	C 	0.4255	0.9305	0.5594	-0.081
Mof_C 	C 	0.4126	0.9583	0.5234	-0.012
Mof_H 	H 	0.4253	0.9323	0.5019	0.063
Mof_C 	C 	0.3814	0.0233	0.519	-0.014
Mof_H 	H 	0.3743	0.0426	0.4949	0.062
Mof_C 	C 	0.4634	0.8581	0.5617	0.415
Mof_C 	C 	0.4177	0.2269	0.6571	0.39
Mof_C 	C 	0.5305	0.1875	0.6317	-0.011
Mof_H 	H 	0.5319	0.1518	0.6502	0.055
Mof_C 	C 	0.5834	0.1961	0.6079	-0.011
Mof_H 	H 	0.6193	0.1644	0.6093	0.034
Mof_C 	C 	0.5265	0.2999	0.5771	-0.026
Mof_H 	H 	0.526	0.3359	0.5588	0.06
Mof_C 	C 	0.4718	0.2903	0.6011	-0.003
Mof_H 	H 	0.435	0.3206	0.5995	0.028
Mof_C 	C 	0.5845	0.2533	0.5809	-0.085
Mof_C 	C 	0.6431	0.2643	0.5553	0.366
Mof_C 	C 	0.6607	0.7643	0.5715	0.3
Mof_C 	C 	0.7189	0.7507	0.5973	-0.06
Mof_C 	C 	0.7206	0.7007	0.6224	-0.012
Mof_H 	H 	0.6835	0.6712	0.6255	0.039
Mof_C 	C 	0.7783	0.6893	0.6457	-0.014
Mof_H 	H 	0.7805	0.6495	0.6616	0.055
Mof_C 	C 	0.8286	0.7356	0.6446	-0.083
Mof_C 	C 	0.8288	0.7932	0.6182	0.002
Mof_H 	H 	0.8654	0.8238	0.6166	0.025
Mof_C 	C 	0.7742	0.8032	0.5952	-0.042
Mof_H 	H 	0.7721	0.842	0.5786	0.063
Mof_C 	C 	0.8878	0.7293	0.6712	0.339
Mof_C 	C 	0.6121	0.7613	0.4489	0.289
Mof_C 	C 	0.6359	0.7588	0.4071	-0.033
Mof_C 	C 	0.6846	0.7154	0.3955	-0.023
Mof_H 	H 	0.7078	0.6884	0.4134	0.065
Mof_C 	C 	0.7019	0.7093	0.3565	-0.028
Mof_H 	H 	0.7354	0.6783	0.3485	0.065
Mof_C 	C 	0.6675	0.7507	0.3314	-0.034
Mof_C 	C 	0.6173	0.8008	0.3446	-0.026
Mof_H 	H 	0.5954	0.8312	0.3277	0.067
Mof_C 	C 	0.6034	0.8022	0.3816	-0.026
Mof_H 	H 	0.5708	0.8336	0.3905	0.066
Mof_C 	C 	0.6807	0.7417	0.2894	0.275
Mof_Ca	Ca	0.27774	0.26604	0.60644	1.643
Mof_Cd	Cd	0.31886	0.27027	0.71112	0.476
Mof_O 	O 	0.252	0.1761	0.7058	-0.308
Mof_Ca	Ca	0.51954	0.72882	0.61684	1.627
Mof_Cd	Cd	0.24735	0.24205	0.50412	0.495
Mof_O 	O 	0.2163	0.1959	0.6473	-0.452
Mof_Cd	Cd	0.56044	0.7547	0.5181	0.481
Mof_O 	O 	0.0644	0.8615	0.7154	-0.3
Mof_Cd	Cd	0.99941	0.7657	0.71908	0.484
Mof_O 	O 	0.0509	0.8673	0.6522	-0.457
Mof_O 	O 	0.2462	0.3565	0.6974	-0.304
Mof_O 	O 	0.2513	0.3738	0.6336	-0.45
Mof_O 	O 	0.065	0.672	0.7151	-0.288
Mof_O 	O 	0.0837	0.7016	0.6538	-0.451
Mof_O 	O 	0.3295	0.3235	0.5571	-0.46
Mof_O 	O 	0.3106	0.3417	0.4963	-0.305
Mof_O 	O 	0.4709	0.6627	0.5701	-0.468
Mof_O 	O 	0.5008	0.6561	0.5086	-0.29
Mof_O 	O 	0.2324	0.1998	0.4428	-0.243
Mof_O 	O 	0.1695	0.2918	0.4596	-0.242
Mof_O 	O 	0.0761	0.1876	0.2649	-0.248
Mof_O 	O 	0.0116	0.2774	0.2807	-0.25
Mof_O 	O 	0.3138	0.1532	0.5155	-0.309
Mof_O 	O 	0.3078	0.1621	0.5788	-0.464
Mof_O 	O 	0.4739	0.8315	0.5919	-0.482
Mof_O 	O 	0.486	0.836	0.5302	-0.323
Mof_O 	O 	0.3642	0.2609	0.6501	-0.472
Mof_O 	O 	0.4262	0.1922	0.6852	-0.285
Mof_O 	O 	0.6408	0.3109	0.531	-0.285
Mof_O 	O 	0.693	0.2247	0.5593	-0.442
Mof_O 	O 	0.6597	0.8135	0.5472	-0.264
Mof_O 	O 	0.6116	0.7176	0.5743	-0.411
Mof_O 	O 	0.9366	0.7717	0.6652	-0.435
Mof_O 	O 	0.8843	0.6884	0.6992	-0.257
Mof_O 	O 	0.5713	0.8086	0.4585	-0.25
Mof_O 	O 	0.637	0.7166	0.4711	-0.25
Mof_O 	O 	0.6434	0.776	0.2664	-0.245
Mof_O 	O 	0.7266	0.7016	0.2776	-0.235
Mof_C 	C 	0.7791	0.8411	0.177	0.394
Mof_C 	C 	0.817	0.9112	0.178	-0.085
Mof_C 	C 	0.5267	0.7685	0.1289	-0.1
Mof_C 	C 	0.821	0.9492	0.2116	-0.006
Mof_H 	H 	0.8002	0.931	0.2332	0.06
Mof_C 	C 	0.8552	0.014	0.2142	-0.023
Mof_H 	H 	0.8577	0.0389	0.2371	0.063
Mof_C 	C 	0.8863	0.041	0.1808	-0.074
Mof_C 	C 	0.8805	0.0042	0.147	-0.02
Mof_H 	H 	0.8993	0.0231	0.125	0.049
Mof_C 	C 	0.8473	0.9398	0.1456	-0.007
Mof_H 	H 	0.845	0.9149	0.1227	0.046
Mof_C 	C 	0.9278	0.1087	0.183	0.374
Mof_C 	C 	0.7646	0.609	0.1667	0.355
Mof_C 	C 	0.8012	0.5374	0.1703	-0.061
Mof_C 	C 	0.8085	0.4912	0.1395	-0.025
Mof_H 	H 	0.7888	0.5024	0.1163	0.055
Mof_C 	C 	0.8447	0.429	0.1435	-0.011
Mof_H 	H 	0.8514	0.3992	0.1226	0.047
Mof_C 	C 	0.8714	0.4104	0.1787	-0.072
Mof_C 	C 	0.8645	0.4554	0.2097	-0.01
Mof_H 	H 	0.8836	0.4434	0.233	0.062
Mof_C 	C 	0.8293	0.5175	0.2057	-0.026
Mof_H 	H 	0.8237	0.5475	0.2266	0.067
Mof_C 	C 	0.9092	0.3404	0.1828	0.353
Mof_C 	C 	0.6666	0.6402	0.0271	0.399
Mof_C 	C 	0.6335	0.5667	0.03	-0.119
Mof_C 	C 	0.6118	0.533	0.997	0.046
Mof_H 	H 	0.6205	0.5529	0.9733	0.042
Mof_C 	C 	0.5764	0.4685	0.0002	-0.073
Mof_H 	H 	0.5588	0.447	0.9785	0.086
Mof_C 	C 	0.5677	0.4367	0.0349	-0.05
Mof_C 	C 	0.5913	0.4668	0.066	-0.043
Mof_H 	H 	0.5867	0.4437	0.0894	0.052
Mof_C 	C 	0.6242	0.5352	0.0641	0.02
Mof_H 	H 	0.639	0.5576	0.0862	0.028
Mof_C 	C 	0.5306	0.3667	0.0388	0.366
Mof_C 	C 	0.8147	0.7562	0.9364	0.276
Mof_C 	C 	0.8463	0.757	0.8966	-0.022
Mof_C 	C 	0.9035	0.719	0.8917	-0.033
Mof_H 	H 	0.9232	0.6944	0.9119	0.07
Mof_C 	C 	0.9323	0.7179	0.8548	-0.019
Mof_H 	H 	0.9676	0.6872	0.8492	0.065
Mof_C 	C 	0.9064	0.7645	0.8263	-0.042
Mof_C 	C 	0.854	0.8054	0.8345	-0.012
Mof_H 	H 	0.8386	0.8381	0.8165	0.061
Mof_C 	C 	0.8219	0.8002	0.8691	-0.036
Mof_H 	H 	0.7833	0.8267	0.8735	0.07
Mof_C 	C 	0.9433	0.7653	0.7884	0.293
Mof_C 	C 	0.6742	0.8685	0.0487	0.383
Mof_C 	C 	0.64	0.9394	0.0523	-0.066
Mof_C 	C 	0.626	0.9721	0.0891	-0.028
Mof_H 	H 	0.6397	0.9493	0.1114	0.055
Mof_C 	C 	0.5922	0.0373	0.0911	0.004
Mof_H 	H 	0.5823	0.0578	0.1146	0.046
Mof_C 	C 	0.5745	0.0695	0.0594	-0.094
Mof_C 	C 	0.5874	0.0417	0.0234	0.008
Mof_H 	H 	0.5747	0.0677	0.0019	0.054
Mof_C 	C 	0.6186	0.9767	0.019	-0.044
Mof_H 	H 	0.6257	0.9574	0.9949	0.079
Mof_C 	C 	0.5366	0.1419	0.0617	0.42
Mof_C 	C 	0.5823	0.7731	0.1571	0.39
Mof_C 	C 	0.4695	0.8125	0.1317	-0.011
Mof_H 	H 	0.4681	0.8482	0.1502	0.055
Mof_C 	C 	0.4166	0.8039	0.1079	-0.011
Mof_H 	H 	0.3807	0.8356	0.1093	0.034
Mof_C 	C 	0.4735	0.7001	0.0771	-0.025
Mof_H 	H 	0.474	0.6641	0.0588	0.059
Mof_C 	C 	0.5282	0.7097	0.1011	-0.004
Mof_H 	H 	0.565	0.6794	0.0995	0.029
Mof_C 	C 	0.4155	0.7467	0.0809	-0.086
Mof_C 	C 	0.3569	0.7357	0.0553	0.366
Mof_C 	C 	0.3393	0.2357	0.0715	0.3
Mof_C 	C 	0.2811	0.2493	0.0973	-0.06
Mof_C 	C 	0.2794	0.2993	0.1224	-0.011
Mof_H 	H 	0.3165	0.3288	0.1255	0.038
Mof_C 	C 	0.2217	0.3107	0.1457	-0.014
Mof_H 	H 	0.2195	0.3505	0.1616	0.055
Mof_C 	C 	0.1714	0.2644	0.1446	-0.082
Mof_C 	C 	0.1712	0.2068	0.1182	0.002
Mof_H 	H 	0.1346	0.1762	0.1166	0.025
Mof_C 	C 	0.2258	0.1968	0.0952	-0.042
Mof_H 	H 	0.2279	0.158	0.0786	0.063
Mof_C 	C 	0.1122	0.2707	0.1712	0.339
Mof_C 	C 	0.3879	0.2387	0.9489	0.288
Mof_C 	C 	0.3641	0.2412	0.9071	-0.031
Mof_C 	C 	0.3154	0.2846	0.8955	-0.024
Mof_H 	H 	0.2922	0.3116	0.9134	0.066
Mof_C 	C 	0.2981	0.2907	0.8565	-0.027
Mof_H 	H 	0.2646	0.3217	0.8485	0.065
Mof_C 	C 	0.3325	0.2493	0.8314	-0.034
Mof_C 	C 	0.3827	0.1992	0.8446	-0.024
Mof_H 	H 	0.4046	0.1688	0.8277	0.067
Mof_C 	C 	0.3966	0.1978	0.8816	-0.027
Mof_H 	H 	0.4292	0.1664	0.8905	0.067
Mof_C 	C 	0.3193	0.2583	0.7894	0.276
Mof_Ca	Ca	0.72226	0.73396	0.10644	1.643
Mof_Cd	Cd	0.68114	0.72973	0.21112	0.476
Mof_O 	O 	0.748	0.8239	0.2058	-0.307
Mof_Ca	Ca	0.48046	0.27118	0.11684	1.626
Mof_Cd	Cd	0.75265	0.75795	0.00412	0.487
Mof_O 	O 	0.7837	0.8041	0.1473	-0.452
Mof_Cd	Cd	0.43956	0.2453	0.0181	0.476
Mof_O 	O 	0.9356	0.1385	0.2154	-0.3
Mof_Cd	Cd	0.00059	0.2343	0.21908	0.485
Mof_O 	O 	0.9491	0.1327	0.1522	-0.457
Mof_O 	O 	0.7538	0.6435	0.1974	-0.304
Mof_O 	O 	0.7487	0.6262	0.1336	-0.45
Mof_O 	O 	0.935	0.328	0.2151	-0.288
Mof_O 	O 	0.9163	0.2984	0.1538	-0.451
Mof_O 	O 	0.6705	0.6765	0.0571	-0.46
Mof_O 	O 	0.6894	0.6583	0.9963	-0.297
Mof_O 	O 	0.5291	0.3373	0.0701	-0.465
Mof_O 	O 	0.4992	0.3439	0.0086	-0.29
Mof_O 	O 	0.7676	0.8002	0.9428	-0.24
Mof_O 	O 	0.8305	0.7082	0.9596	-0.238
Mof_O 	O 	0.9239	0.8124	0.7649	-0.248
Mof_O 	O 	0.9884	0.7226	0.7807	-0.25
Mof_O 	O 	0.6862	0.8468	0.0155	-0.31
Mof_O 	O 	0.6922	0.8379	0.0788	-0.463
Mof_O 	O 	0.5261	0.1685	0.0919	-0.483
Mof_O 	O 	0.514	0.164	0.0302	-0.326
Mof_O 	O 	0.6358	0.7391	0.1501	-0.472
Mof_O 	O 	0.5738	0.8078	0.1852	-0.286
Mof_O 	O 	0.3592	0.6891	0.031	-0.287
Mof_O 	O 	0.307	0.7753	0.0593	-0.443
Mof_O 	O 	0.3403	0.1865	0.0472	-0.266
Mof_O 	O 	0.3884	0.2824	0.0743	-0.412
Mof_O 	O 	0.0634	0.2283	0.1652	-0.435
Mof_O 	O 	0.1157	0.3116	0.1992	-0.257
Mof_O 	O 	0.4287	0.1914	0.9585	-0.246
Mof_O 	O 	0.363	0.2834	0.9711	-0.245
Mof_O 	O 	0.3566	0.224	0.7664	-0.245
Mof_O 	O 	0.2734	0.2984	0.7776	-0.235
_end
