# CIF file generated by openbabel 3.1.0, see https://openbabel.org
data_I
_chemical_name_common 'image0'
_cell_length_a 16.813
_cell_length_b 12.986
_cell_length_c 11.845
_cell_angle_alpha 90
_cell_angle_beta 107.64
_cell_angle_gamma 90
_space_group_name_H-M_alt 'P 1'
_space_group_name_Hall 'P 1'
loop_
    _symmetry_equiv_pos_as_xyz
    x,y,z
loop_
    _atom_site_label
    _atom_site_type_symbol
    _atom_site_fract_x
    _atom_site_fract_y
    _atom_site_fract_z
    _atom_site_occupancy
    N1       N        0.03937    0.04708    0.18322    1.000
    N2       N        0.87830    0.06535    0.97930    1.000
    N3       N        0.77408    0.11142    0.04560    1.000
    N4       N        0.61268    0.25049    0.36864    1.000
    N5       N        0.55015    0.35903    0.45705    1.000
    C1       C        0.85656    0.12110    0.05760    1.000
    H1       H        0.89320    0.16220    0.11440    1.000
    C2       C        0.65523    0.21380    0.28850    1.000
    C3       C        0.73304    0.14850    0.12720    1.000
    C4       C        0.66259    0.09780    0.13620    1.000
    H2       H        0.64140    0.04190    0.08730    1.000
    C5       C        0.57890    0.19380    0.44040    1.000
    H3       H        0.58110    0.12260    0.44960    1.000
    C6       C        0.59334    0.34910    0.38180    1.000
    H4       H        0.60860    0.40390    0.34230    1.000
    C7       C        0.62395    0.13010    0.21700    1.000
    H5       H        0.57700    0.09570    0.22350    1.000
    C8       C        0.54197    0.26110    0.49480    1.000
    H6       H        0.51490    0.24370    0.55000    1.000
    C9       C        0.80568    0.01900    0.91180    1.000
    H7       H        0.80190    0.97530    0.84820    1.000
    C10      C        0.74119    0.04570    0.95040    1.000
    H8       H        0.68600    0.02460    0.91970    1.000
    C11      C        0.72636    0.26230    0.28160    1.000
    H9       H        0.74840    0.31720    0.33170    1.000
    C12      C        0.76516    0.22980    0.20030    1.000
    H10      H        0.81300    0.26300    0.19540    1.000
    N6       N        0.53937    0.54708    0.18322    1.000
    N7       N        0.37830    0.56535    0.97930    1.000
    N8       N        0.27408    0.61142    0.04560    1.000
    N9       N        0.11268    0.75049    0.36864    1.000
    N10      N        0.05015    0.85903    0.45705    1.000
    C13      C        0.35656    0.62110    0.05760    1.000
    H11      H        0.39320    0.66220    0.11440    1.000
    C14      C        0.15523    0.71380    0.28850    1.000
    C15      C        0.23304    0.64850    0.12720    1.000
    C16      C        0.16259    0.59780    0.13620    1.000
    H12      H        0.14140    0.54190    0.08730    1.000
    C17      C        0.07890    0.69380    0.44040    1.000
    H13      H        0.08110    0.62260    0.44960    1.000
    C18      C        0.09334    0.84910    0.38180    1.000
    H14      H        0.10860    0.90390    0.34230    1.000
    C19      C        0.12395    0.63010    0.21700    1.000
    H15      H        0.07700    0.59570    0.22350    1.000
    C20      C        0.04197    0.76110    0.49480    1.000
    H16      H        0.01490    0.74370    0.55000    1.000
    C21      C        0.30568    0.51900    0.91180    1.000
    H17      H        0.30190    0.47530    0.84820    1.000
    C22      C        0.24119    0.54570    0.95040    1.000
    H18      H        0.18600    0.52460    0.91970    1.000
    C23      C        0.22636    0.76230    0.28160    1.000
    H19      H        0.24840    0.81720    0.33170    1.000
    C24      C        0.26516    0.72980    0.20030    1.000
    H20      H        0.31300    0.76300    0.19540    1.000
    N11      N        0.96063    0.04708    0.31678    1.000
    N12      N        0.12170    0.06535    0.52070    1.000
    N13      N        0.22592    0.11142    0.45440    1.000
    N14      N        0.38732    0.25049    0.13136    1.000
    N15      N        0.44985    0.35903    0.04295    1.000
    C25      C        0.14344    0.12110    0.44240    1.000
    H21      H        0.10680    0.16220    0.38560    1.000
    C26      C        0.34477    0.21380    0.21150    1.000
    C27      C        0.26696    0.14850    0.37280    1.000
    C28      C        0.33741    0.09780    0.36380    1.000
    H22      H        0.35860    0.04190    0.41270    1.000
    C29      C        0.42110    0.19380    0.05960    1.000
    H23      H        0.41890    0.12260    0.05040    1.000
    C30      C        0.40666    0.34910    0.11820    1.000
    H24      H        0.39140    0.40390    0.15770    1.000
    C31      C        0.37605    0.13010    0.28300    1.000
    H25      H        0.42300    0.09570    0.27650    1.000
    C32      C        0.45803    0.26110    0.00520    1.000
    H26      H        0.48510    0.24370    0.95000    1.000
    C33      C        0.19432    0.01900    0.58820    1.000
    H27      H        0.19810    0.97530    0.65180    1.000
    C34      C        0.25881    0.04570    0.54960    1.000
    H28      H        0.31400    0.02460    0.58030    1.000
    C35      C        0.27364    0.26230    0.21840    1.000
    H29      H        0.25160    0.31720    0.16830    1.000
    C36      C        0.23484    0.22980    0.29970    1.000
    H30      H        0.18700    0.26300    0.30460    1.000
    N16      N        0.46063    0.54708    0.31678    1.000
    N17      N        0.62170    0.56535    0.52070    1.000
    N18      N        0.72592    0.61142    0.45440    1.000
    N19      N        0.88732    0.75049    0.13136    1.000
    N20      N        0.94985    0.85903    0.04295    1.000
    C37      C        0.64344    0.62110    0.44240    1.000
    H31      H        0.60680    0.66220    0.38560    1.000
    C38      C        0.84477    0.71380    0.21150    1.000
    C39      C        0.76696    0.64850    0.37280    1.000
    C40      C        0.83741    0.59780    0.36380    1.000
    H32      H        0.85860    0.54190    0.41270    1.000
    C41      C        0.92110    0.69380    0.05960    1.000
    H33      H        0.91890    0.62260    0.05040    1.000
    C42      C        0.90666    0.84910    0.11820    1.000
    H34      H        0.89140    0.90390    0.15770    1.000
    C43      C        0.87605    0.63010    0.28300    1.000
    H35      H        0.92300    0.59570    0.27650    1.000
    C44      C        0.95803    0.76110    0.00520    1.000
    H36      H        0.98510    0.74370    0.95000    1.000
    C45      C        0.69432    0.51900    0.58820    1.000
    H37      H        0.69810    0.47530    0.65180    1.000
    C46      C        0.75881    0.54570    0.54960    1.000
    H38      H        0.81400    0.52460    0.58030    1.000
    C47      C        0.77364    0.76230    0.21840    1.000
    H39      H        0.75160    0.81720    0.16830    1.000
    C48      C        0.73484    0.72980    0.29970    1.000
    H40      H        0.68700    0.76300    0.30460    1.000
    N21      N        0.96063    0.95292    0.81678    1.000
    N22      N        0.12170    0.93465    0.02070    1.000
    N23      N        0.22592    0.88858    0.95440    1.000
    N24      N        0.38732    0.74951    0.63136    1.000
    N25      N        0.44985    0.64097    0.54295    1.000
    C49      C        0.14344    0.87890    0.94240    1.000
    H41      H        0.10680    0.83780    0.88560    1.000
    C50      C        0.34477    0.78620    0.71150    1.000
    C51      C        0.26696    0.85150    0.87280    1.000
    C52      C        0.33741    0.90220    0.86380    1.000
    H42      H        0.35860    0.95810    0.91270    1.000
    C53      C        0.42110    0.80620    0.55960    1.000
    H43      H        0.41890    0.87740    0.55040    1.000
    C54      C        0.40666    0.65090    0.61820    1.000
    H44      H        0.39140    0.59610    0.65770    1.000
    C55      C        0.37605    0.86990    0.78300    1.000
    H45      H        0.42300    0.90430    0.77650    1.000
    C56      C        0.45803    0.73890    0.50520    1.000
    H46      H        0.48510    0.75630    0.45000    1.000
    C57      C        0.19432    0.98100    0.08820    1.000
    H47      H        0.19810    0.02470    0.15180    1.000
    C58      C        0.25881    0.95430    0.04960    1.000
    H48      H        0.31400    0.97540    0.08030    1.000
    C59      C        0.27364    0.73770    0.71840    1.000
    H49      H        0.25160    0.68280    0.66830    1.000
    C60      C        0.23484    0.77020    0.79970    1.000
    H50      H        0.18700    0.73700    0.80460    1.000
    N26      N        0.46063    0.45292    0.81678    1.000
    N27      N        0.62170    0.43465    0.02070    1.000
    N28      N        0.72592    0.38858    0.95440    1.000
    N29      N        0.88732    0.24951    0.63136    1.000
    N30      N        0.94985    0.14097    0.54295    1.000
    C61      C        0.64344    0.37890    0.94240    1.000
    H51      H        0.60680    0.33780    0.88560    1.000
    C62      C        0.84477    0.28620    0.71150    1.000
    C63      C        0.76696    0.35150    0.87280    1.000
    C64      C        0.83741    0.40220    0.86380    1.000
    H52      H        0.85860    0.45810    0.91270    1.000
    C65      C        0.92110    0.30620    0.55960    1.000
    H53      H        0.91890    0.37740    0.55040    1.000
    C66      C        0.90666    0.15090    0.61820    1.000
    H54      H        0.89140    0.09610    0.65770    1.000
    C67      C        0.87605    0.36990    0.78300    1.000
    H55      H        0.92300    0.40430    0.77650    1.000
    C68      C        0.95803    0.23890    0.50520    1.000
    H56      H        0.98510    0.25630    0.45000    1.000
    C69      C        0.69432    0.48100    0.08820    1.000
    H57      H        0.69810    0.52470    0.15180    1.000
    C70      C        0.75881    0.45430    0.04960    1.000
    H58      H        0.81400    0.47540    0.08030    1.000
    C71      C        0.77364    0.23770    0.71840    1.000
    H59      H        0.75160    0.18280    0.66830    1.000
    C72      C        0.73484    0.27020    0.79970    1.000
    H60      H        0.68700    0.23700    0.80460    1.000
    N31      N        0.03937    0.95292    0.68322    1.000
    N32      N        0.87830    0.93465    0.47930    1.000
    N33      N        0.77408    0.88858    0.54560    1.000
    N34      N        0.61268    0.74951    0.86864    1.000
    N35      N        0.55015    0.64097    0.95705    1.000
    C73      C        0.85656    0.87890    0.55760    1.000
    H61      H        0.89320    0.83780    0.61440    1.000
    C74      C        0.65523    0.78620    0.78850    1.000
    C75      C        0.73304    0.85150    0.62720    1.000
    C76      C        0.66259    0.90220    0.63620    1.000
    H62      H        0.64140    0.95810    0.58730    1.000
    C77      C        0.57890    0.80620    0.94040    1.000
    H63      H        0.58110    0.87740    0.94960    1.000
    C78      C        0.59334    0.65090    0.88180    1.000
    H64      H        0.60860    0.59610    0.84230    1.000
    C79      C        0.62395    0.86990    0.71700    1.000
    H65      H        0.57700    0.90430    0.72350    1.000
    C80      C        0.54197    0.73890    0.99480    1.000
    H66      H        0.51490    0.75630    0.05000    1.000
    C81      C        0.80568    0.98100    0.41180    1.000
    H67      H        0.80190    0.02470    0.34820    1.000
    C82      C        0.74119    0.95430    0.45040    1.000
    H68      H        0.68600    0.97540    0.41970    1.000
    C83      C        0.72636    0.73770    0.78160    1.000
    H69      H        0.74840    0.68280    0.83170    1.000
    C84      C        0.76516    0.77020    0.70030    1.000
    H70      H        0.81300    0.73700    0.69540    1.000
    N36      N        0.53937    0.45292    0.68322    1.000
    N37      N        0.37830    0.43465    0.47930    1.000
    N38      N        0.27408    0.38858    0.54560    1.000
    N39      N        0.11268    0.24951    0.86864    1.000
    N40      N        0.05015    0.14097    0.95705    1.000
    C85      C        0.35656    0.37890    0.55760    1.000
    H71      H        0.39320    0.33780    0.61440    1.000
    C86      C        0.15523    0.28620    0.78850    1.000
    C87      C        0.23304    0.35150    0.62720    1.000
    C88      C        0.16259    0.40220    0.63620    1.000
    H72      H        0.14140    0.45810    0.58730    1.000
    C89      C        0.07890    0.30620    0.94040    1.000
    H73      H        0.08110    0.37740    0.94960    1.000
    C90      C        0.09334    0.15090    0.88180    1.000
    H74      H        0.10860    0.09610    0.84230    1.000
    C91      C        0.12395    0.36990    0.71700    1.000
    H75      H        0.07700    0.40430    0.72350    1.000
    C92      C        0.04197    0.23890    0.99480    1.000
    H76      H        0.01490    0.25630    0.05000    1.000
    C93      C        0.30568    0.48100    0.41180    1.000
    H77      H        0.30190    0.52470    0.34820    1.000
    C94      C        0.24119    0.45430    0.45040    1.000
    H78      H        0.18600    0.47540    0.41970    1.000
    C95      C        0.22636    0.23770    0.78160    1.000
    H79      H        0.24840    0.18280    0.83170    1.000
    C96      C        0.26516    0.27020    0.70030    1.000
    H80      H        0.31300    0.23700    0.69540    1.000
    Co1      Co       0.00000    0.00000    0.00000    1.000
    Co2      Co       0.50000    0.50000    0.00000    1.000
    Co3      Co       0.00000    0.00000    0.50000    1.000
    Co4      Co       0.50000    0.50000    0.50000    1.000
    N41      N        0.00000    0.04610    0.25000    1.000
    N42      N        0.50000    0.54610    0.25000    1.000
    N43      N        0.00000    0.95390    0.75000    1.000
    N44      N        0.50000    0.45390    0.75000    1.000
