data_functionalizedCrystal
_audit_creation_method	'EQeq! by Chris Wilmer'
_symmetry_space_group_name_H-M	'P1'
_symmetry_Int_Tables_number	1
_symmetry_cell_setting	triclinic
loop_
_symmetry_equiv_pos_as_xyz
  x,y,z
_cell_length_a	7.423
_cell_length_b	30.337
_cell_length_c	30.337
_cell_angle_alpha	90
_cell_angle_beta	90
_cell_angle_gamma	90
loop_
_atom_site_label
_atom_site_type_symbol
_atom_site_fract_x
_atom_site_fract_y
_atom_site_fract_z
_atom_site_charge
Mof_Cu	Cu	0.90335	0.5259	0.52581	0.923
Mof_Cu	Cu	0.90335	0.9741	0.97419	0.922
Mof_Cu	Cu	0.40335	0.47419	0.02591	0.924
Mof_Cu	Cu	0.40335	0.02581	0.4741	0.924
Mof_Cu	Cu	0.09665	0.47409	0.47419	0.924
Mof_Cu	Cu	0.09665	0.0259	0.02581	0.923
Mof_Cu	Cu	0.59665	0.52581	0.9741	0.924
Mof_Cu	Cu	0.59665	0.97419	0.52591	0.924
Mof_H 	H 	0.5115	0.5401	0.5398	-0.024
Mof_H 	H 	0.2962	0.578	0.5785	0.159
Mof_H 	H 	0.697	0.6396	0.6395	0.145
Mof_H 	H 	0.8946	0.6008	0.6006	-0.045
Mof_H 	H 	0.2755	0.5567	0.6587	0.299
Mof_H 	H 	0.1955	0.5685	0.7056	0.297
Mof_H 	H 	0.0645	0.5612	0.665	0.303
Mof_H 	H 	0.9692	0.6266	0.7029	0.202
Mof_H 	H 	0.2186	0.7383	0.6608	0.19
Mof_H 	H 	0.4259	0.6947	0.624	-0.106
Mof_H 	H 	0.8102	0.687	0.7318	0.02
Mof_H 	H 	0.9656	0.7094	0.7596	0.03
Mof_H 	H 	0.2738	0.4822	0.6294	0.335
Mof_H 	H 	0.4355	0.4731	0.5966	0.353
Mof_H 	H 	0.2967	0.435	0.6077	0.331
Mof_H 	H 	0.723	0.3705	0.5176	0.351
Mof_H 	H 	0.7075	0.3918	0.5651	0.339
Mof_H 	H 	0.5635	0.4035	0.5284	0.362
Mof_H 	H 	0.5115	0.9599	0.9602	-0.024
Mof_H 	H 	0.2962	0.922	0.9215	0.16
Mof_H 	H 	0.697	0.8604	0.8605	0.145
Mof_H 	H 	0.8946	0.8992	0.8994	-0.045
Mof_H 	H 	0.2755	0.9433	0.8413	0.299
Mof_H 	H 	0.1955	0.9315	0.7944	0.298
Mof_H 	H 	0.0645	0.9388	0.835	0.303
Mof_H 	H 	0.9692	0.8734	0.7971	0.201
Mof_H 	H 	0.2186	0.7617	0.8392	0.19
Mof_H 	H 	0.4259	0.8053	0.876	-0.106
Mof_H 	H 	0.8102	0.813	0.7682	0.02
Mof_H 	H 	0.9656	0.7906	0.7404	0.03
Mof_H 	H 	0.2738	0.0178	0.8706	0.335
Mof_H 	H 	0.4355	0.0269	0.9034	0.352
Mof_H 	H 	0.2967	0.065	0.8923	0.33
Mof_H 	H 	0.723	0.1295	0.9824	0.351
Mof_H 	H 	0.7075	0.1082	0.9349	0.339
Mof_H 	H 	0.5635	0.0965	0.9716	0.362
Mof_H 	H 	0.0115	0.4602	0.0401	-0.024
Mof_H 	H 	0.7962	0.4215	0.078	0.159
Mof_H 	H 	0.197	0.3605	0.1396	0.146
Mof_H 	H 	0.3946	0.3994	0.1008	-0.045
Mof_H 	H 	0.7755	0.3413	0.0567	0.3
Mof_H 	H 	0.6955	0.2944	0.0685	0.298
Mof_H 	H 	0.5645	0.335	0.0612	0.303
Mof_H 	H 	0.4692	0.2971	0.1266	0.205
Mof_H 	H 	0.7186	0.3392	0.2383	0.19
Mof_H 	H 	0.9259	0.376	0.1947	-0.106
Mof_H 	H 	0.3102	0.2682	0.187	0.021
Mof_H 	H 	0.4656	0.2404	0.2094	0.031
Mof_H 	H 	0.7738	0.3706	0.9822	0.335
Mof_H 	H 	0.9355	0.4034	0.9731	0.353
Mof_H 	H 	0.7967	0.3923	0.935	0.33
Mof_H 	H 	0.223	0.4824	0.8705	0.351
Mof_H 	H 	0.2075	0.4349	0.8918	0.339
Mof_H 	H 	0.0635	0.4716	0.9035	0.362
Mof_H 	H 	0.0115	0.0398	0.4599	-0.024
Mof_H 	H 	0.7962	0.0785	0.422	0.159
Mof_H 	H 	0.197	0.1395	0.3604	0.146
Mof_H 	H 	0.3946	0.1006	0.3992	-0.045
Mof_H 	H 	0.7755	0.1587	0.4433	0.3
Mof_H 	H 	0.6955	0.2056	0.4315	0.298
Mof_H 	H 	0.5645	0.165	0.4388	0.303
Mof_H 	H 	0.4692	0.2029	0.3734	0.205
Mof_H 	H 	0.7186	0.1608	0.2617	0.19
Mof_H 	H 	0.9259	0.124	0.3053	-0.106
Mof_H 	H 	0.3102	0.2318	0.313	0.021
Mof_H 	H 	0.4656	0.2596	0.2906	0.031
Mof_H 	H 	0.7738	0.1294	0.5178	0.335
Mof_H 	H 	0.9355	0.0966	0.5269	0.353
Mof_H 	H 	0.7967	0.1077	0.565	0.331
Mof_H 	H 	0.223	0.0176	0.6295	0.351
Mof_H 	H 	0.2075	0.0651	0.6082	0.339
Mof_H 	H 	0.0635	0.0284	0.5965	0.362
Mof_H 	H 	0.4885	0.4599	0.4602	-0.024
Mof_H 	H 	0.7038	0.422	0.4215	0.159
Mof_H 	H 	0.303	0.3604	0.3605	0.145
Mof_H 	H 	0.1054	0.3992	0.3994	-0.045
Mof_H 	H 	0.7245	0.4433	0.3413	0.299
Mof_H 	H 	0.8045	0.4315	0.2944	0.297
Mof_H 	H 	0.9355	0.4388	0.335	0.303
Mof_H 	H 	0.0308	0.3734	0.2971	0.202
Mof_H 	H 	0.7814	0.2617	0.3392	0.19
Mof_H 	H 	0.5741	0.3053	0.376	-0.106
Mof_H 	H 	0.1898	0.313	0.2682	0.02
Mof_H 	H 	0.0344	0.2906	0.2404	0.03
Mof_H 	H 	0.7262	0.5178	0.3706	0.335
Mof_H 	H 	0.5645	0.5269	0.4034	0.353
Mof_H 	H 	0.7033	0.565	0.3923	0.331
Mof_H 	H 	0.277	0.6295	0.4824	0.351
Mof_H 	H 	0.2925	0.6082	0.4349	0.339
Mof_H 	H 	0.4365	0.5965	0.4716	0.362
Mof_H 	H 	0.4885	0.0401	0.0398	-0.024
Mof_H 	H 	0.7038	0.078	0.0785	0.16
Mof_H 	H 	0.303	0.1396	0.1395	0.145
Mof_H 	H 	0.1054	0.1008	0.1006	-0.045
Mof_H 	H 	0.7245	0.0567	0.1587	0.299
Mof_H 	H 	0.8045	0.0685	0.2056	0.298
Mof_H 	H 	0.9355	0.0612	0.165	0.303
Mof_H 	H 	0.0308	0.1266	0.2029	0.201
Mof_H 	H 	0.7814	0.2383	0.1608	0.19
Mof_H 	H 	0.5741	0.1947	0.124	-0.106
Mof_H 	H 	0.1898	0.187	0.2318	0.02
Mof_H 	H 	0.0344	0.2094	0.2596	0.03
Mof_H 	H 	0.7262	0.9822	0.1294	0.335
Mof_H 	H 	0.5645	0.9731	0.0966	0.352
Mof_H 	H 	0.7033	0.935	0.1077	0.33
Mof_H 	H 	0.277	0.8705	0.0176	0.351
Mof_H 	H 	0.2925	0.8918	0.0651	0.339
Mof_H 	H 	0.4365	0.9035	0.0284	0.362
Mof_H 	H 	0.9885	0.5398	0.9599	-0.024
Mof_H 	H 	0.2038	0.5785	0.922	0.159
Mof_H 	H 	0.803	0.6395	0.8604	0.146
Mof_H 	H 	0.6054	0.6006	0.8992	-0.045
Mof_H 	H 	0.2245	0.6587	0.9433	0.3
Mof_H 	H 	0.3045	0.7056	0.9315	0.298
Mof_H 	H 	0.4355	0.665	0.9388	0.303
Mof_H 	H 	0.5308	0.7029	0.8734	0.205
Mof_H 	H 	0.2814	0.6608	0.7617	0.19
Mof_H 	H 	0.0741	0.624	0.8053	-0.106
Mof_H 	H 	0.6898	0.7318	0.813	0.021
Mof_H 	H 	0.5344	0.7596	0.7906	0.031
Mof_H 	H 	0.2262	0.6294	0.0178	0.335
Mof_H 	H 	0.0645	0.5966	0.0269	0.353
Mof_H 	H 	0.2033	0.6077	0.065	0.33
Mof_H 	H 	0.777	0.5176	0.1295	0.351
Mof_H 	H 	0.7925	0.5651	0.1082	0.339
Mof_H 	H 	0.9365	0.5284	0.0965	0.362
Mof_H 	H 	0.9885	0.9602	0.5401	-0.024
Mof_H 	H 	0.2038	0.9215	0.578	0.159
Mof_H 	H 	0.803	0.8605	0.6396	0.146
Mof_H 	H 	0.6054	0.8994	0.6008	-0.045
Mof_H 	H 	0.2245	0.8413	0.5567	0.3
Mof_H 	H 	0.3045	0.7944	0.5685	0.298
Mof_H 	H 	0.4355	0.835	0.5612	0.303
Mof_H 	H 	0.5308	0.7971	0.6266	0.205
Mof_H 	H 	0.2814	0.8392	0.7383	0.19
Mof_H 	H 	0.0741	0.876	0.6947	-0.106
Mof_H 	H 	0.6898	0.7682	0.687	0.021
Mof_H 	H 	0.5344	0.7404	0.7094	0.031
Mof_H 	H 	0.2262	0.8706	0.4822	0.335
Mof_H 	H 	0.0645	0.9034	0.4731	0.353
Mof_H 	H 	0.2033	0.8923	0.435	0.331
Mof_H 	H 	0.777	0.9824	0.3705	0.351
Mof_H 	H 	0.7925	0.9349	0.3918	0.339
Mof_H 	H 	0.9365	0.9716	0.4035	0.362
Mof_C 	C 	0.4668	0.61321	0.61374	0.325
Mof_C 	C 	0.5494	0.56084	0.56089	0.167
Mof_C 	C 	0.4188	0.58354	0.58393	-0.352
Mof_C 	C 	0.6544	0.61889	0.619	-0.337
Mof_C 	C 	0.7712	0.59583	0.59583	0.199
Mof_C 	C 	0.3303	0.6396	0.63942	-0.464
Mof_C 	C 	0.0748	0.68583	0.6858	0.384
Mof_C 	C 	0.1921	0.6194	0.66343	0.536
Mof_C 	C 	0.181	0.5725	0.6741	-0.975
Mof_C 	C 	0.0604	0.6413	0.6872	-0.532
Mof_C 	C 	0.2109	0.7074	0.6619	-0.422
Mof_C 	C 	0.3334	0.6807	0.6398	0.382
Mof_C 	C 	0.8778	0.7144	0.736	0.062
Mof_C 	C 	0.3104	0.4665	0.60306	-1.108
Mof_C 	C 	0.1978	0.48025	0.56605	0.675
Mof_C 	C 	0.8011	0.43386	0.51941	0.686
Mof_C 	C 	0.6893	0.3968	0.5339	-1.127
Mof_C 	C 	0.4668	0.88679	0.88626	0.325
Mof_C 	C 	0.5494	0.93916	0.93911	0.167
Mof_C 	C 	0.4188	0.91646	0.91607	-0.352
Mof_C 	C 	0.6544	0.88111	0.881	-0.337
Mof_C 	C 	0.7712	0.90417	0.90417	0.199
Mof_C 	C 	0.3303	0.8604	0.86058	-0.464
Mof_C 	C 	0.0748	0.81417	0.8142	0.384
Mof_C 	C 	0.1921	0.8806	0.83657	0.536
Mof_C 	C 	0.181	0.9275	0.8259	-0.975
Mof_C 	C 	0.0604	0.8587	0.8128	-0.531
Mof_C 	C 	0.2109	0.7926	0.8381	-0.422
Mof_C 	C 	0.3334	0.8193	0.8602	0.382
Mof_C 	C 	0.8778	0.7856	0.764	0.062
Mof_C 	C 	0.3104	0.0335	0.89694	-1.107
Mof_C 	C 	0.1978	0.01975	0.93395	0.674
Mof_C 	C 	0.8011	0.06614	0.98059	0.685
Mof_C 	C 	0.6893	0.1032	0.9661	-1.126
Mof_C 	C 	0.9668	0.38626	0.11321	0.327
Mof_C 	C 	0.0494	0.43911	0.06084	0.166
Mof_C 	C 	0.9188	0.41607	0.08354	-0.352
Mof_C 	C 	0.1544	0.381	0.11889	-0.34
Mof_C 	C 	0.2712	0.40417	0.09583	0.2
Mof_C 	C 	0.8303	0.36058	0.1396	-0.466
Mof_C 	C 	0.5748	0.3142	0.18583	0.384
Mof_C 	C 	0.6921	0.33657	0.1194	0.539
Mof_C 	C 	0.681	0.3259	0.0725	-0.978
Mof_C 	C 	0.5604	0.3128	0.1413	-0.536
Mof_C 	C 	0.7109	0.3381	0.2074	-0.423
Mof_C 	C 	0.8334	0.3602	0.1807	0.383
Mof_C 	C 	0.3778	0.264	0.2144	0.062
Mof_C 	C 	0.8104	0.39694	0.9665	-1.108
Mof_C 	C 	0.6978	0.43395	0.98025	0.675
Mof_C 	C 	0.3011	0.48059	0.93386	0.686
Mof_C 	C 	0.1893	0.4661	0.8968	-1.128
Mof_C 	C 	0.9668	0.11374	0.38679	0.327
Mof_C 	C 	0.0494	0.06089	0.43916	0.166
Mof_C 	C 	0.9188	0.08393	0.41646	-0.352
Mof_C 	C 	0.1544	0.119	0.38111	-0.34
Mof_C 	C 	0.2712	0.09583	0.40417	0.2
Mof_C 	C 	0.8303	0.13942	0.3604	-0.466
Mof_C 	C 	0.5748	0.1858	0.31417	0.384
Mof_C 	C 	0.6921	0.16343	0.3806	0.538
Mof_C 	C 	0.681	0.1741	0.4275	-0.977
Mof_C 	C 	0.5604	0.1872	0.3587	-0.535
Mof_C 	C 	0.7109	0.1619	0.2926	-0.423
Mof_C 	C 	0.8334	0.1398	0.3193	0.383
Mof_C 	C 	0.3778	0.236	0.2856	0.062
Mof_C 	C 	0.8104	0.10306	0.5335	-1.108
Mof_C 	C 	0.6978	0.06605	0.51975	0.676
Mof_C 	C 	0.3011	0.01941	0.56614	0.686
Mof_C 	C 	0.1893	0.0339	0.6032	-1.127
Mof_C 	C 	0.5332	0.38679	0.38626	0.325
Mof_C 	C 	0.4506	0.43916	0.43911	0.167
Mof_C 	C 	0.5812	0.41646	0.41607	-0.352
Mof_C 	C 	0.3456	0.38111	0.381	-0.337
Mof_C 	C 	0.2288	0.40417	0.40417	0.199
Mof_C 	C 	0.6697	0.3604	0.36058	-0.464
Mof_C 	C 	0.9252	0.31417	0.3142	0.384
Mof_C 	C 	0.8079	0.3806	0.33657	0.536
Mof_C 	C 	0.819	0.4275	0.3259	-0.975
Mof_C 	C 	0.9396	0.3587	0.3128	-0.532
Mof_C 	C 	0.7891	0.2926	0.3381	-0.422
Mof_C 	C 	0.6666	0.3193	0.3602	0.382
Mof_C 	C 	0.1222	0.2856	0.264	0.062
Mof_C 	C 	0.6896	0.5335	0.39694	-1.108
Mof_C 	C 	0.8022	0.51975	0.43395	0.675
Mof_C 	C 	0.1989	0.56614	0.48059	0.686
Mof_C 	C 	0.3107	0.6032	0.4661	-1.127
Mof_C 	C 	0.5332	0.11321	0.11374	0.325
Mof_C 	C 	0.4506	0.06084	0.06089	0.167
Mof_C 	C 	0.5812	0.08354	0.08393	-0.352
Mof_C 	C 	0.3456	0.11889	0.119	-0.337
Mof_C 	C 	0.2288	0.09583	0.09583	0.199
Mof_C 	C 	0.6697	0.1396	0.13942	-0.464
Mof_C 	C 	0.9252	0.18583	0.1858	0.384
Mof_C 	C 	0.8079	0.1194	0.16343	0.536
Mof_C 	C 	0.819	0.0725	0.1741	-0.975
Mof_C 	C 	0.9396	0.1413	0.1872	-0.531
Mof_C 	C 	0.7891	0.2074	0.1619	-0.422
Mof_C 	C 	0.6666	0.1807	0.1398	0.382
Mof_C 	C 	0.1222	0.2144	0.236	0.062
Mof_C 	C 	0.6896	0.9665	0.10306	-1.107
Mof_C 	C 	0.8022	0.98025	0.06605	0.674
Mof_C 	C 	0.1989	0.93386	0.01941	0.685
Mof_C 	C 	0.3107	0.8968	0.0339	-1.126
Mof_C 	C 	0.0332	0.61374	0.88679	0.327
Mof_C 	C 	0.9506	0.56089	0.93916	0.166
Mof_C 	C 	0.0812	0.58393	0.91646	-0.352
Mof_C 	C 	0.8456	0.619	0.88111	-0.34
Mof_C 	C 	0.7288	0.59583	0.90417	0.2
Mof_C 	C 	0.1697	0.63942	0.8604	-0.466
Mof_C 	C 	0.4252	0.6858	0.81417	0.384
Mof_C 	C 	0.3079	0.66343	0.8806	0.539
Mof_C 	C 	0.319	0.6741	0.9275	-0.978
Mof_C 	C 	0.4396	0.6872	0.8587	-0.536
Mof_C 	C 	0.2891	0.6619	0.7926	-0.423
Mof_C 	C 	0.1666	0.6398	0.8193	0.383
Mof_C 	C 	0.6222	0.736	0.7856	0.062
Mof_C 	C 	0.1896	0.60306	0.0335	-1.108
Mof_C 	C 	0.3022	0.56605	0.01975	0.675
Mof_C 	C 	0.6989	0.51941	0.06614	0.686
Mof_C 	C 	0.8107	0.5339	0.1032	-1.128
Mof_C 	C 	0.0332	0.88626	0.61321	0.327
Mof_C 	C 	0.9506	0.93911	0.56084	0.166
Mof_C 	C 	0.0812	0.91607	0.58354	-0.352
Mof_C 	C 	0.8456	0.881	0.61889	-0.34
Mof_C 	C 	0.7288	0.90417	0.59583	0.2
Mof_C 	C 	0.1697	0.86058	0.6396	-0.466
Mof_C 	C 	0.4252	0.8142	0.68583	0.384
Mof_C 	C 	0.3079	0.83657	0.6194	0.538
Mof_C 	C 	0.319	0.8259	0.5725	-0.977
Mof_C 	C 	0.4396	0.8128	0.6413	-0.535
Mof_C 	C 	0.2891	0.8381	0.7074	-0.423
Mof_C 	C 	0.1666	0.8602	0.6807	0.383
Mof_C 	C 	0.6222	0.764	0.7144	0.062
Mof_C 	C 	0.1896	0.89694	0.4665	-1.108
Mof_C 	C 	0.3022	0.93395	0.48025	0.676
Mof_C 	C 	0.6989	0.98059	0.43386	0.686
Mof_C 	C 	0.8107	0.9661	0.3968	-1.127
Mof_C 	C 	0.75	0.75	0.75	-0.045
Mof_C 	C 	0.25	0.25	0.25	-0.045
Mof_N 	N 	0.7248	0.56638	0.56649	-0.238
Mof_N 	N 	0.7248	0.93362	0.93351	-0.238
Mof_N 	N 	0.2248	0.43351	0.06638	-0.238
Mof_N 	N 	0.2248	0.06649	0.43362	-0.238
Mof_N 	N 	0.2752	0.43362	0.43351	-0.238
Mof_N 	N 	0.2752	0.06638	0.06649	-0.238
Mof_N 	N 	0.7752	0.56649	0.93362	-0.238
Mof_N 	N 	0.7752	0.93351	0.56638	-0.238
Mof_O 	O 	0.7668	0.47057	0.53651	-0.511
Mof_O 	O 	0.0753	0.50824	0.57227	-0.515
Mof_O 	O 	0.9249	0.42781	0.49168	-0.511
Mof_O 	O 	0.2346	0.46341	0.52915	-0.506
Mof_O 	O 	0.9684	0.724	0.6979	-0.273
Mof_O 	O 	0.7668	0.02943	0.96349	-0.511
Mof_O 	O 	0.0753	0.99176	0.92773	-0.514
Mof_O 	O 	0.9249	0.07219	0.00832	-0.51
Mof_O 	O 	0.2346	0.03659	0.97085	-0.505
Mof_O 	O 	0.9684	0.776	0.8021	-0.274
Mof_O 	O 	0.2668	0.46349	0.97057	-0.511
Mof_O 	O 	0.5753	0.42773	0.00824	-0.515
Mof_O 	O 	0.4249	0.50832	0.92781	-0.511
Mof_O 	O 	0.7346	0.47085	0.96341	-0.506
Mof_O 	O 	0.4684	0.3021	0.224	-0.272
Mof_O 	O 	0.2668	0.03651	0.52943	-0.511
Mof_O 	O 	0.5753	0.07227	0.49176	-0.515
Mof_O 	O 	0.4249	0.99168	0.57219	-0.511
Mof_O 	O 	0.7346	0.02915	0.53659	-0.505
Mof_O 	O 	0.4684	0.1979	0.276	-0.272
Mof_O 	O 	0.2332	0.52943	0.46349	-0.511
Mof_O 	O 	0.9247	0.49176	0.42773	-0.515
Mof_O 	O 	0.0751	0.57219	0.50832	-0.511
Mof_O 	O 	0.7654	0.53659	0.47085	-0.506
Mof_O 	O 	0.0316	0.276	0.3021	-0.273
Mof_O 	O 	0.2332	0.97057	0.03651	-0.511
Mof_O 	O 	0.9247	0.00824	0.07227	-0.514
Mof_O 	O 	0.0751	0.92781	0.99168	-0.51
Mof_O 	O 	0.7654	0.96341	0.02915	-0.505
Mof_O 	O 	0.0316	0.224	0.1979	-0.274
Mof_O 	O 	0.7332	0.53651	0.02943	-0.511
Mof_O 	O 	0.4247	0.57227	0.99176	-0.515
Mof_O 	O 	0.5751	0.49168	0.07219	-0.511
Mof_O 	O 	0.2654	0.52915	0.03659	-0.506
Mof_O 	O 	0.5316	0.6979	0.776	-0.272
Mof_O 	O 	0.7332	0.96349	0.47057	-0.511
Mof_O 	O 	0.4247	0.92773	0.50824	-0.515
Mof_O 	O 	0.5751	0.00832	0.42781	-0.511
Mof_O 	O 	0.2654	0.97085	0.46341	-0.505
Mof_O 	O 	0.5316	0.8021	0.724	-0.272
_end
