data_functionalizedCrystal
_audit_creation_method	'EQeq! by Chris Wilmer'
_symmetry_space_group_name_H-M	'P1'
_symmetry_Int_Tables_number	1
_symmetry_cell_setting	triclinic
loop_
_symmetry_equiv_pos_as_xyz
  x,y,z
_cell_length_a	27.249
_cell_length_b	27.42
_cell_length_c	25.189
_cell_angle_alpha	90
_cell_angle_beta	90
_cell_angle_gamma	90
loop_
_atom_site_label
_atom_site_type_symbol
_atom_site_fract_x
_atom_site_fract_y
_atom_site_fract_z
_atom_site_charge
Mof_W 	W 	0.19158	0.81996	0.62329	1.335
Mof_W 	W 	0.03685	0.88659	0.46567	1.306
Mof_W 	W 	0.20742	0.76221	0.3915	1.342
Mof_W 	W 	0.14602	0.93021	0.41937	1.031
Mof_W 	W 	0.25612	0.7559	0.51486	1.019
Mof_W 	W 	0.08919	0.71518	0.43969	1.023
Mof_W 	W 	0.13756	0.70927	0.56367	1.009
Mof_W 	W 	0.03234	0.77242	0.54265	1.003
Mof_W 	W 	0.26024	0.86309	0.44661	1.017
Mof_W 	W 	0.08614	0.88282	0.60168	1.024
Mof_W 	W 	0.19633	0.92645	0.55583	1.007
Mof_W 	W 	0.0944	0.82986	0.36378	1.037
Mof_Co	Co	0.9015	0.91062	0.47069	1.091
Mof_Co	Co	0.25113	0.71621	0.2576	1.159
Mof_P 	P 	0.14452	0.82089	0.49435	0.584
Mof_O 	O 	0.1527	0.8485	0.5465	-0.407
Mof_O 	O 	0.9804	0.9139	0.464	-0.544
Mof_O 	O 	0.2259	0.7326	0.3353	-0.549
Mof_O 	O 	0.1946	0.8065	0.4709	-0.405
Mof_O 	O 	0.1242	0.8934	0.3608	-0.446
Mof_O 	O 	0.1561	0.7226	0.4154	-0.478
Mof_O 	O 	0.2424	0.8961	0.5104	-0.457
Mof_O 	O 	0.0592	0.902	0.5351	-0.478
Mof_O 	O 	0.1354	0.9324	0.5939	-0.448
Mof_O 	O 	0.117	0.8537	0.4548	-0.404
Mof_O 	O 	0.0558	0.8215	0.5892	-0.458
Mof_O 	O 	0.0696	0.7245	0.5793	-0.455
Mof_O 	O 	0.1151	0.6801	0.4997	-0.451
Mof_O 	O 	0.2523	0.8165	0.3909	-0.469
Mof_O 	O 	0.1617	0.9434	0.4929	-0.456
Mof_O 	O 	0.1558	0.7619	0.6095	-0.477
Mof_O 	O 	0.2388	0.7951	0.5748	-0.474
Mof_O 	O 	0.2499	0.7338	0.4435	-0.471
Mof_O 	O 	0.0219	0.8244	0.4928	-0.489
Mof_O 	O 	0.2172	0.8839	0.6124	-0.461
Mof_O 	O 	0.0387	0.8596	0.3958	-0.475
Mof_O 	O 	0.1587	0.8036	0.3636	-0.487
Mof_O 	O 	0.2895	0.8124	0.487	-0.453
Mof_O 	O 	0.2011	0.7172	0.5332	-0.456
Mof_O 	O 	0.0327	0.7291	0.4815	-0.45
Mof_O 	O 	0.0779	0.9381	0.4391	-0.46
Mof_O 	O 	0.0764	0.7701	0.3969	-0.463
Mof_O 	O 	0.1141	0.7749	0.5053	-0.39
Mof_O 	O 	0.2189	0.8061	0.6823	-0.542
Mof_O 	O 	0.1326	0.8497	0.6472	-0.464
Mof_O 	O 	0.2076	0.8998	0.4158	-0.459
Mof_N 	N 	0.5499	0.9961	0.7184	-0.292
Mof_N 	N 	0.7519	0.9245	0.5153	-0.146
Mof_N 	N 	0.3228	0.733	0.2846	-0.227
Mof_N 	N 	0.6122	0.9609	0.6765	-0.149
Mof_N 	N 	0.4033	0.7375	0.2861	-0.144
Mof_N 	N 	0.912	0.0572	0.8062	-0.14
Mof_N 	N 	0.8242	0.9154	0.4783	-0.265
Mof_N 	N 	0.2257	0.0649	0.2819	-0.141
Mof_N 	N 	0.2447	0.7889	0.2286	-0.234
Mof_N 	N 	0.2398	0.8682	0.2217	-0.142
Mof_N 	N 	0.1803	0.7028	0.228	-0.24
Mof_N 	N 	0.9285	0.9261	0.6365	-0.143
Mof_N 	N 	0.0993	0.6995	0.2225	-0.156
Mof_N 	N 	0.9015	0.0858	0.8869	-0.25
Mof_N 	N 	0.2371	0.1443	0.2828	-0.227
Mof_N 	N 	0.9164	0.9053	0.5522	-0.255
Mof_C 	C 	0.5805	0.9963	0.6809	0.124
Mof_H 	H 	0.5805	0.0216	0.6564	-0.06
Mof_C 	C 	0.606	0.931	0.716	-0
Mof_H 	H 	0.6206	0.9011	0.7241	0.029
Mof_C 	C 	0.5664	0.9592	0.747	-0.005
Mof_H 	H 	0.5555	0.9514	0.7805	-0.007
Mof_C 	C 	0.1693	0.7017	0.1779	0.017
Mof_H 	H 	0.1918	0.7023	0.1501	0.015
Mof_C 	C 	0.1174	0.6992	0.1719	-0.012
Mof_H 	H 	0.0996	0.6977	0.1404	0.019
Mof_C 	C 	0.034	0.7105	0.2847	-0.161
Mof_H 	H 	0.0567	0.7226	0.309	0.065
Mof_C 	C 	0.0149	0.7032	0.1996	-0.176
Mof_H 	H 	0.0232	0.7007	0.1639	0.076
Mof_C 	C 	0.2648	0.804	0.1819	0.001
Mof_H 	H 	0.2786	0.7831	0.157	0.009
Mof_C 	C 	0.6471	0.9515	0.6319	0.061
Mof_C 	C 	0.657	0.9056	0.6175	-0.058
Mof_H 	H 	0.6403	0.8799	0.6335	0.041
Mof_C 	C 	0.6929	0.8959	0.5775	-0.1
Mof_H 	H 	0.701	0.8642	0.5681	0.082
Mof_C 	C 	0.2623	0.8532	0.176	-0.015
Mof_H 	H 	0.2732	0.8721	0.1477	0.013
Mof_C 	C 	0.7452	0.897	0.469	-0.01
Mof_H 	H 	0.7159	0.8853	0.4551	0.016
Mof_C 	C 	0.3876	0.7597	0.3303	-0.004
Mof_H 	H 	0.4068	0.774	0.3566	0.006
Mof_C 	C 	0.8957	0.1233	0.8509	-0.007
Mof_H 	H 	0.888	0.1554	0.8593	0.005
Mof_C 	C 	0.6714	0.991	0.6088	-0.063
Mof_H 	H 	0.6654	0.0227	0.6202	0.032
Mof_C 	C 	0.4619	0.7322	0.2137	-0.1
Mof_H 	H 	0.4364	0.7318	0.1892	0.071
Mof_C 	C 	0.2261	0.954	0.1977	-0.071
Mof_H 	H 	0.2231	0.9455	0.1621	0.046
Mof_C 	C 	0.704	0.9819	0.5689	-0.096
Mof_H 	H 	0.7191	0.0078	0.5516	0.04
Mof_C 	C 	0.9246	0.8766	0.6344	-0.005
Mof_H 	H 	0.9266	0.8557	0.6634	0.032
Mof_C 	C 	0.9176	0.8628	0.5842	-0.009
Mof_H 	H 	0.914	0.8309	0.5723	-0.007
Mof_C 	C 	0.233	0.9799	0.3032	-0.082
Mof_H 	H 	0.2338	0.9889	0.3388	0.049
Mof_C 	C 	0.3381	0.7573	0.3288	-0.001
Mof_H 	H 	0.3174	0.7703	0.3545	0.029
Mof_C 	C 	0.9434	0.0374	0.7185	-0.059
Mof_H 	H 	0.9567	0.0685	0.7156	0.053
Mof_C 	C 	0.7918	0.891	0.4484	-0.01
Mof_H 	H 	0.7995	0.8728	0.4184	-0.003
Mof_C 	C 	0.2064	0.0816	0.3286	0.01
Mof_H 	H 	0.1914	0.063	0.3549	0.021
Mof_C 	C 	0.92	0.0234	0.7643	0.077
Mof_C 	C 	0.4526	0.7331	0.2666	0.076
Mof_C 	C 	0.139	0.7038	0.2536	0.108
Mof_H 	H 	0.1371	0.7072	0.2903	-0.026
Mof_C 	C 	0.8001	0.9351	0.5177	0.094
Mof_H 	H 	0.8145	0.9541	0.544	-0.039
Mof_C 	C 	0.4892	0.7321	0.3027	-0.075
Mof_H 	H 	0.4818	0.7312	0.3387	0.037
Mof_C 	C 	0.2431	0.104	0.2561	0.11
Mof_H 	H 	0.2578	0.1026	0.2228	-0.009
Mof_C 	C 	0.2228	0.0022	0.2136	-0.09
Mof_H 	H 	0.2168	0.0264	0.1886	0.058
Mof_C 	C 	0.9021	0.9752	0.7699	-0.064
Mof_H 	H 	0.8876	0.9652	0.8014	0.051
Mof_C 	C 	0.2365	0.931	0.2889	-0.081
Mof_H 	H 	0.2405	0.9072	0.3148	0.06
Mof_C 	C 	0.9285	0.9583	0.6808	0.088
Mof_C 	C 	0.9234	0.941	0.5845	0.093
Mof_H 	H 	0.9249	0.9734	0.5738	-0.022
Mof_C 	C 	0.9034	0.1052	0.8007	0.017
Mof_H 	H 	0.9027	0.1228	0.7692	0.013
Mof_C 	C 	0.2313	0.8293	0.2515	0.104
Mof_H 	H 	0.2173	0.8307	0.2852	-0.005
Mof_C 	C 	0.2283	0.0141	0.2649	0.092
Mof_C 	C 	0.3629	0.7212	0.2604	0.095
Mof_H 	H 	0.3639	0.7036	0.2289	-0.001
Mof_C 	C 	0.2341	0.9181	0.2367	0.079
Mof_C 	C 	0.048	0.7002	0.2357	0.147
Mof_C 	C 	0.2135	0.1305	0.329	0.002
Mof_H 	H 	0.204	0.1515	0.3561	0.028
Mof_C 	C 	0.9473	0.0043	0.6761	-0.094
Mof_H 	H 	0.9627	0.0137	0.6448	0.071
Mof_C 	C 	0.9099	0.0469	0.8589	0.105
Mof_H 	H 	0.914	0.0159	0.8732	-0.026
Mof_C 	C 	0.7147	0.9348	0.5539	0.091
Mof_C 	C 	0.9065	0.9433	0.7277	-0.089
Mof_H 	H 	0.8948	0.9116	0.7308	0.066
Mof_W 	W 	0.30842	0.68004	0.12329	1.334
Mof_W 	W 	0.46315	0.61341	0.96567	1.319
Mof_W 	W 	0.29258	0.73779	0.8915	1.341
Mof_W 	W 	0.35398	0.56979	0.91937	1.031
Mof_W 	W 	0.24388	0.7441	0.01486	1.015
Mof_W 	W 	0.41081	0.78482	0.93969	1.025
Mof_W 	W 	0.36244	0.79073	0.06367	1.009
Mof_W 	W 	0.46766	0.72758	0.04265	1.007
Mof_W 	W 	0.23976	0.63691	0.94661	1.016
Mof_W 	W 	0.41386	0.61718	0.10168	1.027
Mof_W 	W 	0.30367	0.57355	0.05583	1.006
Mof_W 	W 	0.4056	0.67014	0.86378	1.04
Mof_Co	Co	0.5985	0.58938	0.97069	1.091
Mof_Co	Co	0.24887	0.78379	0.7576	1.159
Mof_P 	P 	0.35548	0.67911	0.99435	0.585
Mof_O 	O 	0.3473	0.6515	0.0465	-0.408
Mof_O 	O 	0.5196	0.5861	0.964	-0.555
Mof_O 	O 	0.2741	0.7674	0.8353	-0.549
Mof_O 	O 	0.3054	0.6935	0.9709	-0.404
Mof_O 	O 	0.3758	0.6066	0.8608	-0.447
Mof_O 	O 	0.3439	0.7774	0.9154	-0.478
Mof_O 	O 	0.2576	0.6039	0.0104	-0.458
Mof_O 	O 	0.4408	0.598	0.0351	-0.478
Mof_O 	O 	0.3646	0.5676	0.0939	-0.448
Mof_O 	O 	0.383	0.6463	0.9548	-0.405
Mof_O 	O 	0.4442	0.6785	0.0892	-0.457
Mof_O 	O 	0.4304	0.7755	0.0793	-0.454
Mof_O 	O 	0.3849	0.8199	0.9997	-0.45
Mof_O 	O 	0.2477	0.6835	0.8909	-0.469
Mof_O 	O 	0.3383	0.5566	0.9929	-0.455
Mof_O 	O 	0.3442	0.7381	0.1095	-0.476
Mof_O 	O 	0.2612	0.7049	0.0748	-0.474
Mof_O 	O 	0.2501	0.7662	0.9435	-0.471
Mof_O 	O 	0.4781	0.6756	0.9928	-0.488
Mof_O 	O 	0.2828	0.6161	0.1124	-0.462
Mof_O 	O 	0.4613	0.6404	0.8958	-0.473
Mof_O 	O 	0.3413	0.6964	0.8636	-0.487
Mof_O 	O 	0.2105	0.6876	0.987	-0.453
Mof_O 	O 	0.2989	0.7828	0.0332	-0.456
Mof_O 	O 	0.4673	0.7709	0.9815	-0.448
Mof_O 	O 	0.4221	0.5619	0.9391	-0.46
Mof_O 	O 	0.4236	0.7299	0.8969	-0.462
Mof_O 	O 	0.3859	0.7251	0.0053	-0.391
Mof_O 	O 	0.2811	0.6939	0.1823	-0.542
Mof_O 	O 	0.3674	0.6503	0.1472	-0.464
Mof_O 	O 	0.2924	0.6002	0.9158	-0.459
Mof_N 	N 	0.9501	0.5039	0.2184	-0.288
Mof_N 	N 	0.7481	0.5755	0.0153	-0.145
Mof_N 	N 	0.1772	0.767	0.7846	-0.227
Mof_N 	N 	0.8878	0.5391	0.1765	-0.149
Mof_N 	N 	0.0967	0.7625	0.7861	-0.15
Mof_N 	N 	0.588	0.4428	0.3062	-0.14
Mof_N 	N 	0.6758	0.5846	0.9783	-0.265
Mof_N 	N 	0.2743	0.4351	0.7819	-0.141
Mof_N 	N 	0.2553	0.7111	0.7286	-0.234
Mof_N 	N 	0.2602	0.6318	0.7217	-0.142
Mof_N 	N 	0.3197	0.7972	0.728	-0.239
Mof_N 	N 	0.5715	0.5739	0.1365	-0.143
Mof_N 	N 	0.4007	0.8005	0.7225	-0.145
Mof_N 	N 	0.5985	0.4142	0.3869	-0.25
Mof_N 	N 	0.2629	0.3557	0.7828	-0.227
Mof_N 	N 	0.5836	0.5947	0.0522	-0.256
Mof_C 	C 	0.9195	0.5037	0.1809	0.124
Mof_H 	H 	0.9195	0.4784	0.1564	-0.057
Mof_C 	C 	0.894	0.569	0.216	0.001
Mof_H 	H 	0.8794	0.5989	0.2241	0.029
Mof_C 	C 	0.9336	0.5408	0.247	-0.004
Mof_H 	H 	0.9445	0.5486	0.2805	-0.004
Mof_C 	C 	0.3307	0.7983	0.6779	0.019
Mof_H 	H 	0.3082	0.7977	0.6501	0.014
Mof_C 	C 	0.3826	0.8008	0.6719	-0.015
Mof_H 	H 	0.4004	0.8023	0.6404	0.023
Mof_C 	C 	0.466	0.7895	0.7847	-0.084
Mof_H 	H 	0.4433	0.7774	0.809	0.04
Mof_C 	C 	0.4851	0.7968	0.6996	-0.096
Mof_H 	H 	0.4768	0.7993	0.6639	0.053
Mof_C 	C 	0.2352	0.696	0.6819	0.001
Mof_H 	H 	0.2214	0.7169	0.657	0.009
Mof_C 	C 	0.8529	0.5485	0.1319	0.062
Mof_C 	C 	0.843	0.5944	0.1175	-0.058
Mof_H 	H 	0.8597	0.6201	0.1335	0.042
Mof_C 	C 	0.8071	0.6041	0.0775	-0.099
Mof_H 	H 	0.799	0.6358	0.0681	0.081
Mof_C 	C 	0.2377	0.6468	0.676	-0.015
Mof_H 	H 	0.2268	0.6279	0.6477	0.012
Mof_C 	C 	0.7548	0.603	0.969	-0.01
Mof_H 	H 	0.7841	0.6147	0.9551	0.016
Mof_C 	C 	0.1124	0.7403	0.8303	-0.002
Mof_H 	H 	0.0932	0.726	0.8566	0.003
Mof_C 	C 	0.6043	0.3767	0.3509	-0.008
Mof_H 	H 	0.612	0.3446	0.3593	0.004
Mof_C 	C 	0.8286	0.509	0.1088	-0.063
Mof_H 	H 	0.8346	0.4773	0.1202	0.033
Mof_C 	C 	0.0381	0.7678	0.7137	-0.153
Mof_H 	H 	0.0636	0.7682	0.6892	0.088
Mof_C 	C 	0.2739	0.546	0.6977	-0.07
Mof_H 	H 	0.2769	0.5545	0.6621	0.045
Mof_C 	C 	0.796	0.5181	0.0689	-0.096
Mof_H 	H 	0.7809	0.4922	0.0516	0.041
Mof_C 	C 	0.5754	0.6234	0.1344	-0.007
Mof_H 	H 	0.5734	0.6443	0.1634	0.031
Mof_C 	C 	0.5824	0.6372	0.0842	-0.01
Mof_H 	H 	0.586	0.6691	0.0723	-0.009
Mof_C 	C 	0.267	0.5201	0.8032	-0.081
Mof_H 	H 	0.2662	0.5111	0.8388	0.049
Mof_C 	C 	0.1619	0.7427	0.8288	-0.003
Mof_H 	H 	0.1826	0.7297	0.8545	0.029
Mof_C 	C 	0.5566	0.4626	0.2185	-0.061
Mof_H 	H 	0.5433	0.4315	0.2156	0.051
Mof_C 	C 	0.7082	0.609	0.9484	-0.01
Mof_H 	H 	0.7005	0.6272	0.9184	-0.003
Mof_C 	C 	0.2936	0.4184	0.8286	0.01
Mof_H 	H 	0.3086	0.437	0.8549	0.021
Mof_C 	C 	0.58	0.4766	0.2643	0.077
Mof_C 	C 	0.0474	0.7669	0.7666	0.109
Mof_C 	C 	0.361	0.7962	0.7536	0.105
Mof_H 	H 	0.3629	0.7928	0.7903	-0.024
Mof_C 	C 	0.6999	0.5649	0.0177	0.094
Mof_H 	H 	0.6855	0.5459	0.044	-0.039
Mof_C 	C 	0.0108	0.7679	0.8027	-0.128
Mof_H 	H 	0.0182	0.7688	0.8387	0.051
Mof_C 	C 	0.2569	0.396	0.7561	0.11
Mof_H 	H 	0.2422	0.3974	0.7228	-0.009
Mof_C 	C 	0.2772	0.4978	0.7136	-0.091
Mof_H 	H 	0.2832	0.4736	0.6886	0.058
Mof_C 	C 	0.5979	0.5248	0.2699	-0.066
Mof_H 	H 	0.6124	0.5348	0.3014	0.051
Mof_C 	C 	0.2635	0.569	0.7889	-0.081
Mof_H 	H 	0.2595	0.5928	0.8148	0.06
Mof_C 	C 	0.5715	0.5417	0.1808	0.085
Mof_C 	C 	0.5766	0.559	0.0845	0.092
Mof_H 	H 	0.5751	0.5266	0.0738	-0.022
Mof_C 	C 	0.5966	0.3948	0.3007	0.016
Mof_H 	H 	0.5973	0.3772	0.2692	0.013
Mof_C 	C 	0.2687	0.6707	0.7515	0.104
Mof_H 	H 	0.2827	0.6693	0.7852	-0.005
Mof_C 	C 	0.2717	0.4859	0.7649	0.092
Mof_C 	C 	0.1371	0.7788	0.7604	0.097
Mof_H 	H 	0.1361	0.7964	0.7289	-0.002
Mof_C 	C 	0.2659	0.5819	0.7367	0.079
Mof_C 	C 	0.452	0.7998	0.7357	0.091
Mof_C 	C 	0.2865	0.3695	0.829	0.002
Mof_H 	H 	0.296	0.3485	0.8561	0.028
Mof_C 	C 	0.5527	0.4957	0.1761	-0.093
Mof_H 	H 	0.5373	0.4863	0.1448	0.068
Mof_C 	C 	0.5901	0.4531	0.3589	0.103
Mof_H 	H 	0.586	0.4841	0.3732	-0.027
Mof_C 	C 	0.7853	0.5652	0.0539	0.091
Mof_C 	C 	0.5935	0.5567	0.2277	-0.088
Mof_H 	H 	0.6052	0.5884	0.2308	0.065
Mof_W 	W 	0.80842	0.81996	0.87671	1.334
Mof_W 	W 	0.96315	0.88659	0.03433	1.333
Mof_W 	W 	0.79258	0.76221	0.1085	1.341
Mof_W 	W 	0.85398	0.93021	0.08063	1.03
Mof_W 	W 	0.74388	0.7559	0.98514	1.018
Mof_W 	W 	0.91081	0.71518	0.06031	1.027
Mof_W 	W 	0.86244	0.70927	0.93633	1.01
Mof_W 	W 	0.96766	0.77242	0.95735	1.014
Mof_W 	W 	0.73976	0.86309	0.05339	1.015
Mof_W 	W 	0.91386	0.88282	0.89832	1.031
Mof_W 	W 	0.80367	0.92645	0.94417	1.007
Mof_W 	W 	0.9056	0.82986	0.13622	1.043
Mof_Co	Co	0.0985	0.91062	0.02931	1.089
Mof_Co	Co	0.74887	0.71621	0.2424	1.159
Mof_P 	P 	0.85548	0.82089	0.00565	0.585
Mof_O 	O 	0.8473	0.8485	0.9535	-0.408
Mof_O 	O 	0.0196	0.9139	0.036	-0.567
Mof_O 	O 	0.7741	0.7326	0.1647	-0.549
Mof_O 	O 	0.8054	0.8065	0.0291	-0.405
Mof_O 	O 	0.8758	0.8934	0.1392	-0.447
Mof_O 	O 	0.8439	0.7226	0.0846	-0.478
Mof_O 	O 	0.7576	0.8961	0.9896	-0.457
Mof_O 	O 	0.9408	0.902	0.9649	-0.477
Mof_O 	O 	0.8646	0.9324	0.9061	-0.448
Mof_O 	O 	0.883	0.8537	0.0452	-0.407
Mof_O 	O 	0.9442	0.8215	0.9108	-0.455
Mof_O 	O 	0.9304	0.7245	0.9207	-0.452
Mof_O 	O 	0.8849	0.6801	0.0003	-0.45
Mof_O 	O 	0.7477	0.8165	0.1091	-0.469
Mof_O 	O 	0.8383	0.9434	0.0071	-0.456
Mof_O 	O 	0.8442	0.7619	0.8905	-0.476
Mof_O 	O 	0.7612	0.7951	0.9252	-0.474
Mof_O 	O 	0.7501	0.7338	0.0565	-0.471
Mof_O 	O 	0.9781	0.8244	0.0072	-0.487
Mof_O 	O 	0.7828	0.8839	0.8876	-0.462
Mof_O 	O 	0.9613	0.8596	0.1042	-0.472
Mof_O 	O 	0.8413	0.8036	0.1364	-0.487
Mof_O 	O 	0.7105	0.8124	0.013	-0.453
Mof_O 	O 	0.7989	0.7172	0.9668	-0.456
Mof_O 	O 	0.9673	0.7291	0.0185	-0.446
Mof_O 	O 	0.9221	0.9381	0.0609	-0.46
Mof_O 	O 	0.9236	0.7701	0.1031	-0.46
Mof_O 	O 	0.8859	0.7749	0.9947	-0.392
Mof_O 	O 	0.7811	0.8061	0.8177	-0.542
Mof_O 	O 	0.8674	0.8497	0.8528	-0.464
Mof_O 	O 	0.7924	0.8998	0.0842	-0.459
Mof_N 	N 	0.4501	0.9961	0.7816	-0.293
Mof_N 	N 	0.2481	0.9245	0.9847	-0.145
Mof_N 	N 	0.6772	0.733	0.2154	-0.227
Mof_N 	N 	0.3878	0.9609	0.8235	-0.149
Mof_N 	N 	0.5967	0.7375	0.2139	-0.144
Mof_N 	N 	0.088	0.0572	0.6938	-0.14
Mof_N 	N 	0.1758	0.9154	0.0217	-0.266
Mof_N 	N 	0.7743	0.0649	0.2181	-0.141
Mof_N 	N 	0.7553	0.7889	0.2714	-0.233
Mof_N 	N 	0.7602	0.8682	0.2783	-0.141
Mof_N 	N 	0.8197	0.7028	0.272	-0.239
Mof_N 	N 	0.0715	0.9261	0.8635	-0.144
Mof_N 	N 	0.9007	0.6995	0.2775	-0.135
Mof_N 	N 	0.0985	0.0858	0.6131	-0.251
Mof_N 	N 	0.7629	0.1443	0.2172	-0.227
Mof_N 	N 	0.0836	0.9053	0.9478	-0.256
Mof_C 	C 	0.4195	0.9963	0.8191	0.125
Mof_H 	H 	0.4195	0.0216	0.8436	-0.06
Mof_C 	C 	0.394	0.931	0.784	-0
Mof_H 	H 	0.3794	0.9011	0.7759	0.029
Mof_C 	C 	0.4336	0.9592	0.753	-0.005
Mof_H 	H 	0.4445	0.9514	0.7195	-0.007
Mof_C 	C 	0.8307	0.7017	0.3221	0.021
Mof_H 	H 	0.8082	0.7023	0.3499	0.014
Mof_C 	C 	0.8826	0.6992	0.3281	-0.018
Mof_H 	H 	0.9004	0.6977	0.3596	0.026
Mof_C 	C 	0.966	0.7105	0.2153	-0.006
Mof_H 	H 	0.9433	0.7226	0.191	0.016
Mof_C 	C 	0.9851	0.7032	0.3004	-0.017
Mof_H 	H 	0.9768	0.7007	0.3361	0.03
Mof_C 	C 	0.7352	0.804	0.3181	0.001
Mof_H 	H 	0.7214	0.7831	0.343	0.009
Mof_C 	C 	0.3529	0.9515	0.8681	0.061
Mof_C 	C 	0.343	0.9056	0.8825	-0.058
Mof_H 	H 	0.3597	0.8799	0.8665	0.041
Mof_C 	C 	0.3071	0.8959	0.9225	-0.099
Mof_H 	H 	0.299	0.8642	0.9319	0.082
Mof_C 	C 	0.7377	0.8532	0.324	-0.015
Mof_H 	H 	0.7268	0.8721	0.3523	0.013
Mof_C 	C 	0.2548	0.897	0.031	-0.011
Mof_H 	H 	0.2841	0.8853	0.0449	0.016
Mof_C 	C 	0.6124	0.7597	0.1697	-0.004
Mof_H 	H 	0.5932	0.774	0.1434	0.006
Mof_C 	C 	0.1043	0.1233	0.6491	-0.009
Mof_H 	H 	0.112	0.1554	0.6407	0.003
Mof_C 	C 	0.3286	0.991	0.8912	-0.062
Mof_H 	H 	0.3346	0.0227	0.8798	0.032
Mof_C 	C 	0.5381	0.7322	0.2863	-0.1
Mof_H 	H 	0.5636	0.7318	0.3108	0.071
Mof_C 	C 	0.7739	0.954	0.3023	-0.07
Mof_H 	H 	0.7769	0.9455	0.3379	0.045
Mof_C 	C 	0.296	0.9819	0.9311	-0.095
Mof_H 	H 	0.2809	0.0078	0.9484	0.039
Mof_C 	C 	0.0754	0.8766	0.8656	-0.008
Mof_H 	H 	0.0734	0.8557	0.8366	0.03
Mof_C 	C 	0.0824	0.8628	0.9158	-0.011
Mof_H 	H 	0.086	0.8309	0.9277	-0.01
Mof_C 	C 	0.767	0.9799	0.1968	-0.082
Mof_H 	H 	0.7662	0.9889	0.1612	0.049
Mof_C 	C 	0.6619	0.7573	0.1712	-0.001
Mof_H 	H 	0.6826	0.7703	0.1455	0.029
Mof_C 	C 	0.0566	0.0374	0.7815	-0.061
Mof_H 	H 	0.0433	0.0685	0.7844	0.049
Mof_C 	C 	0.2082	0.891	0.0516	-0.01
Mof_H 	H 	0.2005	0.8728	0.0816	-0.004
Mof_C 	C 	0.7936	0.0816	0.1714	0.01
Mof_H 	H 	0.8086	0.063	0.1451	0.021
Mof_C 	C 	0.08	0.0234	0.7357	0.074
Mof_C 	C 	0.5474	0.7331	0.2334	0.076
Mof_C 	C 	0.861	0.7038	0.2464	0.102
Mof_H 	H 	0.8629	0.7072	0.2097	-0.021
Mof_C 	C 	0.1999	0.9351	0.9823	0.096
Mof_H 	H 	0.1855	0.9541	0.956	-0.039
Mof_C 	C 	0.5108	0.7321	0.1973	-0.075
Mof_H 	H 	0.5182	0.7312	0.1613	0.037
Mof_C 	C 	0.7569	0.104	0.2439	0.11
Mof_H 	H 	0.7422	0.1026	0.2772	-0.009
Mof_C 	C 	0.7772	0.0022	0.2864	-0.091
Mof_H 	H 	0.7832	0.0264	0.3114	0.058
Mof_C 	C 	0.0979	0.9752	0.7301	-0.066
Mof_H 	H 	0.1124	0.9652	0.6986	0.05
Mof_C 	C 	0.7635	0.931	0.2111	-0.081
Mof_H 	H 	0.7595	0.9072	0.1852	0.06
Mof_C 	C 	0.0715	0.9583	0.8192	0.085
Mof_C 	C 	0.0766	0.941	0.9155	0.091
Mof_H 	H 	0.0751	0.9734	0.9262	-0.023
Mof_C 	C 	0.0966	0.1052	0.6993	0.015
Mof_H 	H 	0.0973	0.1228	0.7308	0.012
Mof_C 	C 	0.7687	0.8293	0.2485	0.104
Mof_H 	H 	0.7827	0.8307	0.2148	-0.005
Mof_C 	C 	0.7717	0.0141	0.2351	0.093
Mof_C 	C 	0.6371	0.7212	0.2396	0.095
Mof_H 	H 	0.6361	0.7036	0.2711	-0.001
Mof_C 	C 	0.7659	0.9181	0.2633	0.079
Mof_C 	C 	0.952	0.7002	0.2643	0.035
Mof_C 	C 	0.7865	0.1305	0.171	0.002
Mof_H 	H 	0.796	0.1515	0.1439	0.028
Mof_C 	C 	0.0527	0.0043	0.8239	-0.096
Mof_H 	H 	0.0373	0.0137	0.8552	0.066
Mof_C 	C 	0.0901	0.0469	0.6411	0.102
Mof_H 	H 	0.086	0.0159	0.6268	-0.028
Mof_C 	C 	0.2853	0.9348	0.9461	0.091
Mof_C 	C 	0.0935	0.9433	0.7723	-0.09
Mof_H 	H 	0.1052	0.9116	0.7692	0.065
Mof_W 	W 	0.69158	0.68004	0.37671	1.334
Mof_W 	W 	0.53685	0.61341	0.53433	1.319
Mof_W 	W 	0.70742	0.73779	0.6085	1.341
Mof_W 	W 	0.64602	0.56979	0.58063	1.031
Mof_W 	W 	0.75612	0.7441	0.48514	1.018
Mof_W 	W 	0.58919	0.78482	0.56031	1.025
Mof_W 	W 	0.63756	0.79073	0.43633	1.009
Mof_W 	W 	0.53234	0.72758	0.45735	1.008
Mof_W 	W 	0.76024	0.63691	0.55339	1.017
Mof_W 	W 	0.58614	0.61718	0.39832	1.027
Mof_W 	W 	0.69633	0.57355	0.44417	1.007
Mof_W 	W 	0.5944	0.67014	0.63622	1.04
Mof_Co	Co	0.4015	0.58938	0.52931	1.091
Mof_Co	Co	0.75113	0.78379	0.7424	1.159
Mof_P 	P 	0.64452	0.67911	0.50565	0.584
Mof_O 	O 	0.6527	0.6515	0.4535	-0.408
Mof_O 	O 	0.4804	0.5861	0.536	-0.555
Mof_O 	O 	0.7259	0.7674	0.6647	-0.549
Mof_O 	O 	0.6946	0.6935	0.5291	-0.405
Mof_O 	O 	0.6242	0.6066	0.6392	-0.447
Mof_O 	O 	0.6561	0.7774	0.5846	-0.478
Mof_O 	O 	0.7424	0.6039	0.4896	-0.457
Mof_O 	O 	0.5592	0.598	0.4649	-0.478
Mof_O 	O 	0.6354	0.5676	0.4061	-0.448
Mof_O 	O 	0.617	0.6463	0.5452	-0.405
Mof_O 	O 	0.5558	0.6785	0.4108	-0.457
Mof_O 	O 	0.5696	0.7755	0.4207	-0.454
Mof_O 	O 	0.6151	0.8199	0.5003	-0.45
Mof_O 	O 	0.7523	0.6835	0.6091	-0.468
Mof_O 	O 	0.6617	0.5566	0.5071	-0.456
Mof_O 	O 	0.6558	0.7381	0.3905	-0.476
Mof_O 	O 	0.7388	0.7049	0.4252	-0.474
Mof_O 	O 	0.7499	0.7662	0.5565	-0.471
Mof_O 	O 	0.5219	0.6756	0.5072	-0.488
Mof_O 	O 	0.7172	0.6161	0.3876	-0.461
Mof_O 	O 	0.5387	0.6404	0.6042	-0.473
Mof_O 	O 	0.6587	0.6964	0.6364	-0.487
Mof_O 	O 	0.7895	0.6876	0.513	-0.452
Mof_O 	O 	0.7011	0.7828	0.4668	-0.456
Mof_O 	O 	0.5327	0.7709	0.5185	-0.448
Mof_O 	O 	0.5779	0.5619	0.5609	-0.46
Mof_O 	O 	0.5764	0.7299	0.6031	-0.462
Mof_O 	O 	0.6141	0.7251	0.4947	-0.391
Mof_O 	O 	0.7189	0.6939	0.3177	-0.542
Mof_O 	O 	0.6326	0.6503	0.3528	-0.464
Mof_O 	O 	0.7076	0.6002	0.5842	-0.459
Mof_N 	N 	0.0499	0.5039	0.2816	-0.295
Mof_N 	N 	0.2519	0.5755	0.4847	-0.146
Mof_N 	N 	0.8228	0.767	0.7154	-0.227
Mof_N 	N 	0.1122	0.5391	0.3235	-0.149
Mof_N 	N 	0.9033	0.7625	0.7139	-0.138
Mof_N 	N 	0.412	0.4428	0.1938	-0.14
Mof_N 	N 	0.3242	0.5846	0.5217	-0.265
Mof_N 	N 	0.7257	0.4351	0.7181	-0.141
Mof_N 	N 	0.7447	0.7111	0.7714	-0.233
Mof_N 	N 	0.7398	0.6318	0.7783	-0.141
Mof_N 	N 	0.6803	0.7972	0.772	-0.239
Mof_N 	N 	0.4285	0.5739	0.3635	-0.143
Mof_N 	N 	0.5993	0.8005	0.7775	-0.145
Mof_N 	N 	0.4015	0.4142	0.1131	-0.25
Mof_N 	N 	0.7371	0.3557	0.7172	-0.227
Mof_N 	N 	0.4164	0.5947	0.4478	-0.256
Mof_C 	C 	0.0805	0.5037	0.3191	0.123
Mof_H 	H 	0.0805	0.4784	0.3436	-0.061
Mof_C 	C 	0.106	0.569	0.284	-0.002
Mof_H 	H 	0.1206	0.5989	0.2759	0.029
Mof_C 	C 	0.0664	0.5408	0.253	-0.006
Mof_H 	H 	0.0555	0.5486	0.2195	-0.01
Mof_C 	C 	0.6693	0.7983	0.8221	0.019
Mof_H 	H 	0.6918	0.7977	0.8499	0.014
Mof_C 	C 	0.6174	0.8008	0.8281	-0.015
Mof_H 	H 	0.5996	0.8023	0.8596	0.023
Mof_C 	C 	0.534	0.7895	0.7153	-0.084
Mof_H 	H 	0.5567	0.7774	0.691	0.04
Mof_C 	C 	0.5149	0.7968	0.8004	-0.096
Mof_H 	H 	0.5232	0.7993	0.8361	0.053
Mof_C 	C 	0.7648	0.696	0.8181	0.002
Mof_H 	H 	0.7786	0.7169	0.843	0.009
Mof_C 	C 	0.1471	0.5485	0.3681	0.06
Mof_C 	C 	0.157	0.5944	0.3825	-0.057
Mof_H 	H 	0.1403	0.6201	0.3665	0.04
Mof_C 	C 	0.1929	0.6041	0.4225	-0.1
Mof_H 	H 	0.201	0.6358	0.4319	0.082
Mof_C 	C 	0.7623	0.6468	0.824	-0.015
Mof_H 	H 	0.7732	0.6279	0.8523	0.013
Mof_C 	C 	0.2452	0.603	0.531	-0.01
Mof_H 	H 	0.2159	0.6147	0.5449	0.016
Mof_C 	C 	0.8876	0.7403	0.6697	-0.006
Mof_H 	H 	0.9068	0.726	0.6434	0.009
Mof_C 	C 	0.3957	0.3767	0.1491	-0.008
Mof_H 	H 	0.388	0.3446	0.1407	0.004
Mof_C 	C 	0.1714	0.509	0.3912	-0.063
Mof_H 	H 	0.1654	0.4773	0.3798	0.032
Mof_C 	C 	0.9619	0.7678	0.7863	-0.047
Mof_H 	H 	0.9364	0.7682	0.8108	0.054
Mof_C 	C 	0.7261	0.546	0.8023	-0.07
Mof_H 	H 	0.7231	0.5545	0.8379	0.046
Mof_C 	C 	0.204	0.5181	0.4311	-0.097
Mof_H 	H 	0.2191	0.4922	0.4484	0.04
Mof_C 	C 	0.4246	0.6234	0.3656	-0.007
Mof_H 	H 	0.4266	0.6443	0.3366	0.031
Mof_C 	C 	0.4176	0.6372	0.4158	-0.01
Mof_H 	H 	0.414	0.6691	0.4277	-0.009
Mof_C 	C 	0.733	0.5201	0.6968	-0.081
Mof_H 	H 	0.7338	0.5111	0.6612	0.049
Mof_C 	C 	0.8381	0.7427	0.6712	0
Mof_H 	H 	0.8174	0.7297	0.6455	0.029
Mof_C 	C 	0.4434	0.4626	0.2815	-0.061
Mof_H 	H 	0.4567	0.4315	0.2844	0.051
Mof_C 	C 	0.2918	0.609	0.5516	-0.01
Mof_H 	H 	0.2995	0.6272	0.5816	-0.003
Mof_C 	C 	0.7064	0.4184	0.6714	0.01
Mof_H 	H 	0.6914	0.437	0.6451	0.021
Mof_C 	C 	0.42	0.4766	0.2357	0.077
Mof_C 	C 	0.9526	0.7669	0.7334	0.043
Mof_C 	C 	0.639	0.7962	0.7464	0.105
Mof_H 	H 	0.6371	0.7928	0.7097	-0.024
Mof_C 	C 	0.3001	0.5649	0.4823	0.094
Mof_H 	H 	0.3145	0.5459	0.456	-0.039
Mof_C 	C 	0.9892	0.7679	0.6973	-0.021
Mof_H 	H 	0.9818	0.7688	0.6613	0.022
Mof_C 	C 	0.7431	0.396	0.7439	0.11
Mof_H 	H 	0.7578	0.3974	0.7772	-0.009
Mof_C 	C 	0.7228	0.4978	0.7864	-0.091
Mof_H 	H 	0.7168	0.4736	0.8114	0.058
Mof_C 	C 	0.4021	0.5248	0.2301	-0.066
Mof_H 	H 	0.3876	0.5348	0.1986	0.051
Mof_C 	C 	0.7365	0.569	0.7111	-0.081
Mof_H 	H 	0.7405	0.5928	0.6852	0.06
Mof_C 	C 	0.4285	0.5417	0.3192	0.085
Mof_C 	C 	0.4234	0.559	0.4155	0.092
Mof_H 	H 	0.4249	0.5266	0.4262	-0.022
Mof_C 	C 	0.4034	0.3948	0.1993	0.016
Mof_H 	H 	0.4027	0.3772	0.2308	0.013
Mof_C 	C 	0.7313	0.6707	0.7485	0.104
Mof_H 	H 	0.7173	0.6693	0.7148	-0.005
Mof_C 	C 	0.7283	0.4859	0.7351	0.092
Mof_C 	C 	0.8629	0.7788	0.7396	0.094
Mof_H 	H 	0.8639	0.7964	0.7711	0.001
Mof_C 	C 	0.7341	0.5819	0.7633	0.079
Mof_C 	C 	0.548	0.7998	0.7643	0.091
Mof_C 	C 	0.7135	0.3695	0.671	0.002
Mof_H 	H 	0.704	0.3485	0.6439	0.028
Mof_C 	C 	0.4473	0.4957	0.3239	-0.093
Mof_H 	H 	0.4627	0.4863	0.3552	0.068
Mof_C 	C 	0.4099	0.4531	0.1411	0.103
Mof_H 	H 	0.414	0.4841	0.1268	-0.027
Mof_C 	C 	0.2147	0.5652	0.4461	0.091
Mof_C 	C 	0.4065	0.5567	0.2723	-0.088
Mof_H 	H 	0.3948	0.5884	0.2692	0.065
Mof_W 	W 	0.80842	0.18004	0.37671	1.334
Mof_W 	W 	0.96315	0.11341	0.53433	1.332
Mof_W 	W 	0.79258	0.23779	0.6085	1.341
Mof_W 	W 	0.85398	0.06979	0.58063	1.03
Mof_W 	W 	0.74388	0.2441	0.48514	1.018
Mof_W 	W 	0.91081	0.28482	0.56031	1.027
Mof_W 	W 	0.86244	0.29073	0.43633	1.011
Mof_W 	W 	0.96766	0.22758	0.45735	1.015
Mof_W 	W 	0.73976	0.13691	0.55339	1.016
Mof_W 	W 	0.91386	0.11718	0.39832	1.031
Mof_W 	W 	0.80367	0.07355	0.44417	1.007
Mof_W 	W 	0.9056	0.17014	0.63622	1.042
Mof_Co	Co	0.0985	0.08938	0.52931	1.09
Mof_Co	Co	0.74887	0.28379	0.7424	1.159
Mof_P 	P 	0.85548	0.17911	0.50565	0.585
Mof_O 	O 	0.8473	0.1515	0.4535	-0.408
Mof_O 	O 	0.0196	0.0861	0.536	-0.566
Mof_O 	O 	0.7741	0.2674	0.6647	-0.549
Mof_O 	O 	0.8054	0.1935	0.5291	-0.405
Mof_O 	O 	0.8758	0.1066	0.6392	-0.447
Mof_O 	O 	0.8439	0.2774	0.5846	-0.478
Mof_O 	O 	0.7576	0.1039	0.4896	-0.457
Mof_O 	O 	0.9408	0.098	0.4649	-0.477
Mof_O 	O 	0.8646	0.0676	0.4061	-0.448
Mof_O 	O 	0.883	0.1463	0.5452	-0.407
Mof_O 	O 	0.9442	0.1785	0.4108	-0.455
Mof_O 	O 	0.9304	0.2755	0.4207	-0.452
Mof_O 	O 	0.8849	0.3199	0.5003	-0.45
Mof_O 	O 	0.7477	0.1835	0.6091	-0.469
Mof_O 	O 	0.8383	0.0566	0.5071	-0.456
Mof_O 	O 	0.8442	0.2381	0.3905	-0.476
Mof_O 	O 	0.7612	0.2049	0.4252	-0.474
Mof_O 	O 	0.7501	0.2662	0.5565	-0.471
Mof_O 	O 	0.9781	0.1756	0.5072	-0.487
Mof_O 	O 	0.7828	0.1161	0.3876	-0.462
Mof_O 	O 	0.9613	0.1404	0.6042	-0.472
Mof_O 	O 	0.8413	0.1964	0.6364	-0.487
Mof_O 	O 	0.7105	0.1876	0.513	-0.453
Mof_O 	O 	0.7989	0.2828	0.4668	-0.456
Mof_O 	O 	0.9673	0.2709	0.5185	-0.446
Mof_O 	O 	0.9221	0.0619	0.5609	-0.46
Mof_O 	O 	0.9236	0.2299	0.6031	-0.461
Mof_O 	O 	0.8859	0.2251	0.4947	-0.392
Mof_O 	O 	0.7811	0.1939	0.3177	-0.542
Mof_O 	O 	0.8674	0.1503	0.3528	-0.463
Mof_O 	O 	0.7924	0.1002	0.5842	-0.459
Mof_N 	N 	0.4501	0.0039	0.2816	-0.292
Mof_N 	N 	0.2481	0.0755	0.4847	-0.146
Mof_N 	N 	0.6772	0.267	0.7154	-0.227
Mof_N 	N 	0.3878	0.0391	0.3235	-0.149
Mof_N 	N 	0.5967	0.2625	0.7139	-0.144
Mof_N 	N 	0.088	0.9428	0.1938	-0.14
Mof_N 	N 	0.1758	0.0846	0.5217	-0.265
Mof_N 	N 	0.7743	0.9351	0.7181	-0.141
Mof_N 	N 	0.7553	0.2111	0.7714	-0.233
Mof_N 	N 	0.7602	0.1318	0.7783	-0.142
Mof_N 	N 	0.8197	0.2972	0.772	-0.239
Mof_N 	N 	0.0715	0.0739	0.3635	-0.144
Mof_N 	N 	0.9007	0.3005	0.7775	-0.135
Mof_N 	N 	0.0985	0.9142	0.1131	-0.251
Mof_N 	N 	0.7629	0.8557	0.7172	-0.227
Mof_N 	N 	0.0836	0.0947	0.4478	-0.256
Mof_C 	C 	0.4195	0.0037	0.3191	0.124
Mof_H 	H 	0.4195	0.9784	0.3436	-0.06
Mof_C 	C 	0.394	0.069	0.284	-0
Mof_H 	H 	0.3794	0.0989	0.2759	0.029
Mof_C 	C 	0.4336	0.0408	0.253	-0.005
Mof_H 	H 	0.4445	0.0486	0.2195	-0.007
Mof_C 	C 	0.8307	0.2983	0.8221	0.021
Mof_H 	H 	0.8082	0.2977	0.8499	0.014
Mof_C 	C 	0.8826	0.3008	0.8281	-0.017
Mof_H 	H 	0.9004	0.3023	0.8596	0.026
Mof_C 	C 	0.966	0.2895	0.7153	-0.011
Mof_H 	H 	0.9433	0.2774	0.691	0.017
Mof_C 	C 	0.9851	0.2968	0.8004	-0.023
Mof_H 	H 	0.9768	0.2993	0.8361	0.032
Mof_C 	C 	0.7352	0.196	0.8181	0.001
Mof_H 	H 	0.7214	0.2169	0.843	0.009
Mof_C 	C 	0.3529	0.0485	0.3681	0.061
Mof_C 	C 	0.343	0.0944	0.3825	-0.058
Mof_H 	H 	0.3597	0.1201	0.3665	0.041
Mof_C 	C 	0.3071	0.1041	0.4225	-0.1
Mof_H 	H 	0.299	0.1358	0.4319	0.082
Mof_C 	C 	0.7377	0.1468	0.824	-0.015
Mof_H 	H 	0.7268	0.1279	0.8523	0.013
Mof_C 	C 	0.2548	0.103	0.531	-0.01
Mof_H 	H 	0.2841	0.1147	0.5449	0.016
Mof_C 	C 	0.6124	0.2403	0.6697	-0.004
Mof_H 	H 	0.5932	0.226	0.6434	0.006
Mof_C 	C 	0.1043	0.8767	0.1491	-0.009
Mof_H 	H 	0.112	0.8446	0.1407	0.003
Mof_C 	C 	0.3286	0.009	0.3912	-0.063
Mof_H 	H 	0.3346	0.9773	0.3798	0.032
Mof_C 	C 	0.5381	0.2678	0.7863	-0.1
Mof_H 	H 	0.5636	0.2682	0.8108	0.071
Mof_C 	C 	0.7739	0.046	0.8023	-0.071
Mof_H 	H 	0.7769	0.0545	0.8379	0.046
Mof_C 	C 	0.296	0.0181	0.4311	-0.096
Mof_H 	H 	0.2809	0.9922	0.4484	0.04
Mof_C 	C 	0.0754	0.1234	0.3656	-0.008
Mof_H 	H 	0.0734	0.1443	0.3366	0.03
Mof_C 	C 	0.0824	0.1372	0.4158	-0.011
Mof_H 	H 	0.086	0.1691	0.4277	-0.01
Mof_C 	C 	0.767	0.0201	0.6968	-0.082
Mof_H 	H 	0.7662	0.0111	0.6612	0.049
Mof_C 	C 	0.6619	0.2427	0.6712	-0.001
Mof_H 	H 	0.6826	0.2297	0.6455	0.029
Mof_C 	C 	0.0566	0.9626	0.2815	-0.061
Mof_H 	H 	0.0433	0.9315	0.2844	0.049
Mof_C 	C 	0.2082	0.109	0.5516	-0.01
Mof_H 	H 	0.2005	0.1272	0.5816	-0.003
Mof_C 	C 	0.7936	0.9184	0.6714	0.01
Mof_H 	H 	0.8086	0.937	0.6451	0.021
Mof_C 	C 	0.08	0.9766	0.2357	0.074
Mof_C 	C 	0.5474	0.2669	0.7334	0.076
Mof_C 	C 	0.861	0.2962	0.7464	0.102
Mof_H 	H 	0.8629	0.2928	0.7097	-0.022
Mof_C 	C 	0.1999	0.0649	0.4823	0.094
Mof_H 	H 	0.1855	0.0459	0.456	-0.039
Mof_C 	C 	0.5108	0.2679	0.6973	-0.075
Mof_H 	H 	0.5182	0.2688	0.6613	0.037
Mof_C 	C 	0.7569	0.896	0.7439	0.11
Mof_H 	H 	0.7422	0.8974	0.7772	-0.009
Mof_C 	C 	0.7772	0.9978	0.7864	-0.09
Mof_H 	H 	0.7832	0.9736	0.8114	0.058
Mof_C 	C 	0.0979	0.0248	0.2301	-0.066
Mof_H 	H 	0.1124	0.0348	0.1986	0.05
Mof_C 	C 	0.7635	0.069	0.7111	-0.081
Mof_H 	H 	0.7595	0.0928	0.6852	0.06
Mof_C 	C 	0.0715	0.0417	0.3192	0.085
Mof_C 	C 	0.0766	0.059	0.4155	0.09
Mof_H 	H 	0.0751	0.0266	0.4262	-0.023
Mof_C 	C 	0.0966	0.8948	0.1993	0.015
Mof_H 	H 	0.0973	0.8772	0.2308	0.012
Mof_C 	C 	0.7687	0.1707	0.7485	0.104
Mof_H 	H 	0.7827	0.1693	0.7148	-0.005
Mof_C 	C 	0.7717	0.9859	0.7351	0.092
Mof_C 	C 	0.6371	0.2788	0.7396	0.095
Mof_H 	H 	0.6361	0.2964	0.7711	-0.001
Mof_C 	C 	0.7659	0.0819	0.7633	0.079
Mof_C 	C 	0.952	0.2998	0.7643	0.039
Mof_C 	C 	0.7865	0.8695	0.671	0.002
Mof_H 	H 	0.796	0.8485	0.6439	0.028
Mof_C 	C 	0.0527	0.9957	0.3239	-0.095
Mof_H 	H 	0.0373	0.9863	0.3552	0.066
Mof_C 	C 	0.0901	0.9531	0.1411	0.102
Mof_H 	H 	0.086	0.9841	0.1268	-0.028
Mof_C 	C 	0.2853	0.0652	0.4461	0.091
Mof_C 	C 	0.0935	0.0567	0.2723	-0.09
Mof_H 	H 	0.1052	0.0884	0.2692	0.065
Mof_W 	W 	0.69158	0.31996	0.87671	1.334
Mof_W 	W 	0.53685	0.38659	0.03433	1.319
Mof_W 	W 	0.70742	0.26221	0.1085	1.341
Mof_W 	W 	0.64602	0.43021	0.08063	1.031
Mof_W 	W 	0.75612	0.2559	0.98514	1.017
Mof_W 	W 	0.58919	0.21518	0.06031	1.025
Mof_W 	W 	0.63756	0.20927	0.93633	1.009
Mof_W 	W 	0.53234	0.27242	0.95735	1.007
Mof_W 	W 	0.76024	0.36309	0.05339	1.017
Mof_W 	W 	0.58614	0.38282	0.89832	1.027
Mof_W 	W 	0.69633	0.42645	0.94417	1.007
Mof_W 	W 	0.5944	0.32986	0.13622	1.04
Mof_Co	Co	0.4015	0.41062	0.02931	1.091
Mof_Co	Co	0.75113	0.21621	0.2424	1.159
Mof_P 	P 	0.64452	0.32089	0.00565	0.585
Mof_O 	O 	0.6527	0.3485	0.9535	-0.408
Mof_O 	O 	0.4804	0.4139	0.036	-0.555
Mof_O 	O 	0.7259	0.2326	0.1647	-0.549
Mof_O 	O 	0.6946	0.3065	0.0291	-0.405
Mof_O 	O 	0.6242	0.3934	0.1392	-0.447
Mof_O 	O 	0.6561	0.2226	0.0846	-0.478
Mof_O 	O 	0.7424	0.3961	0.9896	-0.457
Mof_O 	O 	0.5592	0.402	0.9649	-0.478
Mof_O 	O 	0.6354	0.4324	0.9061	-0.448
Mof_O 	O 	0.617	0.3537	0.0452	-0.405
Mof_O 	O 	0.5558	0.3215	0.9108	-0.457
Mof_O 	O 	0.5696	0.2245	0.9207	-0.454
Mof_O 	O 	0.6151	0.1801	0.0003	-0.45
Mof_O 	O 	0.7523	0.3165	0.1091	-0.468
Mof_O 	O 	0.6617	0.4434	0.0071	-0.455
Mof_O 	O 	0.6558	0.2619	0.8905	-0.476
Mof_O 	O 	0.7388	0.2951	0.9252	-0.474
Mof_O 	O 	0.7499	0.2338	0.0565	-0.471
Mof_O 	O 	0.5219	0.3244	0.0072	-0.488
Mof_O 	O 	0.7172	0.3839	0.8876	-0.461
Mof_O 	O 	0.5387	0.3596	0.1042	-0.473
Mof_O 	O 	0.6587	0.3036	0.1364	-0.487
Mof_O 	O 	0.7895	0.3124	0.013	-0.451
Mof_O 	O 	0.7011	0.2172	0.9668	-0.456
Mof_O 	O 	0.5327	0.2291	0.0185	-0.448
Mof_O 	O 	0.5779	0.4381	0.0609	-0.46
Mof_O 	O 	0.5764	0.2701	0.1031	-0.462
Mof_O 	O 	0.6141	0.2749	0.9947	-0.391
Mof_O 	O 	0.7189	0.3061	0.8177	-0.542
Mof_O 	O 	0.6326	0.3497	0.8528	-0.464
Mof_O 	O 	0.7076	0.3998	0.0842	-0.459
Mof_N 	N 	0.0499	0.4961	0.7816	-0.294
Mof_N 	N 	0.2519	0.4245	0.9847	-0.145
Mof_N 	N 	0.8228	0.233	0.2154	-0.227
Mof_N 	N 	0.1122	0.4609	0.8235	-0.149
Mof_N 	N 	0.9033	0.2375	0.2139	-0.137
Mof_N 	N 	0.412	0.5572	0.6938	-0.14
Mof_N 	N 	0.3242	0.4154	0.0217	-0.265
Mof_N 	N 	0.7257	0.5649	0.2181	-0.141
Mof_N 	N 	0.7447	0.2889	0.2714	-0.233
Mof_N 	N 	0.7398	0.3682	0.2783	-0.141
Mof_N 	N 	0.6803	0.2028	0.272	-0.239
Mof_N 	N 	0.4285	0.4261	0.8635	-0.143
Mof_N 	N 	0.5993	0.1995	0.2775	-0.145
Mof_N 	N 	0.4015	0.5858	0.6131	-0.25
Mof_N 	N 	0.7371	0.6443	0.2172	-0.227
Mof_N 	N 	0.4164	0.4053	0.9478	-0.256
Mof_C 	C 	0.0805	0.4963	0.8191	0.123
Mof_H 	H 	0.0805	0.5216	0.8436	-0.061
Mof_C 	C 	0.106	0.431	0.784	-0.002
Mof_H 	H 	0.1206	0.4011	0.7759	0.029
Mof_C 	C 	0.0664	0.4592	0.753	-0.006
Mof_H 	H 	0.0555	0.4514	0.7195	-0.009
Mof_C 	C 	0.6693	0.2017	0.3221	0.019
Mof_H 	H 	0.6918	0.2023	0.3499	0.014
Mof_C 	C 	0.6174	0.1992	0.3281	-0.015
Mof_H 	H 	0.5996	0.1977	0.3596	0.023
Mof_C 	C 	0.534	0.2105	0.2153	-0.084
Mof_H 	H 	0.5567	0.2226	0.191	0.04
Mof_C 	C 	0.5149	0.2032	0.3004	-0.096
Mof_H 	H 	0.5232	0.2007	0.3361	0.053
Mof_C 	C 	0.7648	0.304	0.3181	0.002
Mof_H 	H 	0.7786	0.2831	0.343	0.009
Mof_C 	C 	0.1471	0.4515	0.8681	0.06
Mof_C 	C 	0.157	0.4056	0.8825	-0.057
Mof_H 	H 	0.1403	0.3799	0.8665	0.04
Mof_C 	C 	0.1929	0.3959	0.9225	-0.1
Mof_H 	H 	0.201	0.3642	0.9319	0.082
Mof_C 	C 	0.7623	0.3532	0.324	-0.015
Mof_H 	H 	0.7732	0.3721	0.3523	0.013
Mof_C 	C 	0.2452	0.397	0.031	-0.01
Mof_H 	H 	0.2159	0.3853	0.0449	0.016
Mof_C 	C 	0.8876	0.2597	0.1697	-0.006
Mof_H 	H 	0.9068	0.274	0.1434	0.009
Mof_C 	C 	0.3957	0.6233	0.6491	-0.008
Mof_H 	H 	0.388	0.6554	0.6407	0.004
Mof_C 	C 	0.1714	0.491	0.8912	-0.063
Mof_H 	H 	0.1654	0.5227	0.8798	0.032
Mof_C 	C 	0.9619	0.2322	0.2863	-0.043
Mof_H 	H 	0.9364	0.2318	0.3108	0.053
Mof_C 	C 	0.7261	0.454	0.3023	-0.07
Mof_H 	H 	0.7231	0.4455	0.3379	0.046
Mof_C 	C 	0.204	0.4819	0.9311	-0.097
Mof_H 	H 	0.2191	0.5078	0.9484	0.04
Mof_C 	C 	0.4246	0.3766	0.8656	-0.007
Mof_H 	H 	0.4266	0.3557	0.8366	0.031
Mof_C 	C 	0.4176	0.3628	0.9158	-0.01
Mof_H 	H 	0.414	0.3309	0.9277	-0.009
Mof_C 	C 	0.733	0.4799	0.1968	-0.081
Mof_H 	H 	0.7338	0.4889	0.1612	0.049
Mof_C 	C 	0.8381	0.2573	0.1712	0
Mof_H 	H 	0.8174	0.2703	0.1455	0.029
Mof_C 	C 	0.4434	0.5374	0.7815	-0.061
Mof_H 	H 	0.4567	0.5685	0.7844	0.051
Mof_C 	C 	0.2918	0.391	0.0516	-0.01
Mof_H 	H 	0.2995	0.3728	0.0816	-0.003
Mof_C 	C 	0.7064	0.5816	0.1714	0.01
Mof_H 	H 	0.6914	0.563	0.1451	0.021
Mof_C 	C 	0.42	0.5234	0.7357	0.077
Mof_C 	C 	0.9526	0.2331	0.2334	0.04
Mof_C 	C 	0.639	0.2038	0.2464	0.105
Mof_H 	H 	0.6371	0.2072	0.2097	-0.024
Mof_C 	C 	0.3001	0.4351	0.9823	0.094
Mof_H 	H 	0.3145	0.4541	0.956	-0.039
Mof_C 	C 	0.9892	0.2321	0.1973	-0.017
Mof_H 	H 	0.9818	0.2312	0.1613	0.021
Mof_C 	C 	0.7431	0.604	0.2439	0.11
Mof_H 	H 	0.7578	0.6026	0.2772	-0.009
Mof_C 	C 	0.7228	0.5022	0.2864	-0.091
Mof_H 	H 	0.7168	0.5264	0.3114	0.058
Mof_C 	C 	0.4021	0.4752	0.7301	-0.066
Mof_H 	H 	0.3876	0.4652	0.6986	0.051
Mof_C 	C 	0.7365	0.431	0.2111	-0.081
Mof_H 	H 	0.7405	0.4072	0.1852	0.06
Mof_C 	C 	0.4285	0.4583	0.8192	0.085
Mof_C 	C 	0.4234	0.441	0.9155	0.092
Mof_H 	H 	0.4249	0.4734	0.9262	-0.022
Mof_C 	C 	0.4034	0.6052	0.6993	0.016
Mof_H 	H 	0.4027	0.6228	0.7308	0.013
Mof_C 	C 	0.7313	0.3293	0.2485	0.104
Mof_H 	H 	0.7173	0.3307	0.2148	-0.005
Mof_C 	C 	0.7283	0.5141	0.2351	0.092
Mof_C 	C 	0.8629	0.2212	0.2396	0.094
Mof_H 	H 	0.8639	0.2036	0.2711	0.001
Mof_C 	C 	0.7341	0.4181	0.2633	0.079
Mof_C 	C 	0.548	0.2002	0.2643	0.091
Mof_C 	C 	0.7135	0.6305	0.171	0.002
Mof_H 	H 	0.704	0.6515	0.1439	0.028
Mof_C 	C 	0.4473	0.5043	0.8239	-0.093
Mof_H 	H 	0.4627	0.5137	0.8552	0.068
Mof_C 	C 	0.4099	0.5469	0.6411	0.103
Mof_H 	H 	0.414	0.5159	0.6268	-0.027
Mof_C 	C 	0.2147	0.4348	0.9461	0.092
Mof_C 	C 	0.4065	0.4433	0.7723	-0.088
Mof_H 	H 	0.3948	0.4116	0.7692	0.065
Mof_W 	W 	0.19158	0.18004	0.12329	1.334
Mof_W 	W 	0.03685	0.11341	0.96567	1.306
Mof_W 	W 	0.20742	0.23779	0.8915	1.341
Mof_W 	W 	0.14602	0.06979	0.91937	1.03
Mof_W 	W 	0.25612	0.2441	0.01486	1.018
Mof_W 	W 	0.08919	0.28482	0.93969	1.022
Mof_W 	W 	0.13756	0.29073	0.06367	1.008
Mof_W 	W 	0.03234	0.22758	0.04265	1.001
Mof_W 	W 	0.26024	0.13691	0.94661	1.016
Mof_W 	W 	0.08614	0.11718	0.10168	1.023
Mof_W 	W 	0.19633	0.07355	0.05583	1.007
Mof_W 	W 	0.0944	0.17014	0.86378	1.037
Mof_Co	Co	0.9015	0.08938	0.97069	1.091
Mof_Co	Co	0.25113	0.28379	0.7576	1.159
Mof_P 	P 	0.14452	0.17911	0.99435	0.585
Mof_O 	O 	0.1527	0.1515	0.0465	-0.407
Mof_O 	O 	0.9804	0.0861	0.964	-0.545
Mof_O 	O 	0.2259	0.2674	0.8353	-0.549
Mof_O 	O 	0.1946	0.1935	0.9709	-0.405
Mof_O 	O 	0.1242	0.1066	0.8608	-0.446
Mof_O 	O 	0.1561	0.2774	0.9154	-0.478
Mof_O 	O 	0.2424	0.1039	0.0104	-0.457
Mof_O 	O 	0.0592	0.098	0.0351	-0.478
Mof_O 	O 	0.1354	0.0676	0.0939	-0.448
Mof_O 	O 	0.117	0.1463	0.9548	-0.404
Mof_O 	O 	0.0558	0.1785	0.0892	-0.458
Mof_O 	O 	0.0696	0.2755	0.0793	-0.455
Mof_O 	O 	0.1151	0.3199	0.9997	-0.45
Mof_O 	O 	0.2523	0.1835	0.8909	-0.468
Mof_O 	O 	0.1617	0.0566	0.9929	-0.456
Mof_O 	O 	0.1558	0.2381	0.1095	-0.477
Mof_O 	O 	0.2388	0.2049	0.0748	-0.474
Mof_O 	O 	0.2499	0.2662	0.9435	-0.471
Mof_O 	O 	0.0219	0.1756	0.9928	-0.489
Mof_O 	O 	0.2172	0.1161	0.1124	-0.461
Mof_O 	O 	0.0387	0.1404	0.8958	-0.475
Mof_O 	O 	0.1587	0.1964	0.8636	-0.487
Mof_O 	O 	0.2895	0.1876	0.987	-0.453
Mof_O 	O 	0.2011	0.2828	0.0332	-0.456
Mof_O 	O 	0.0327	0.2709	0.9815	-0.45
Mof_O 	O 	0.0779	0.0619	0.9391	-0.46
Mof_O 	O 	0.0764	0.2299	0.8969	-0.463
Mof_O 	O 	0.1141	0.2251	0.0053	-0.39
Mof_O 	O 	0.2189	0.1939	0.1823	-0.542
Mof_O 	O 	0.1326	0.1503	0.1472	-0.464
Mof_O 	O 	0.2076	0.1002	0.9158	-0.459
Mof_N 	N 	0.5499	0.0039	0.2184	-0.293
Mof_N 	N 	0.7519	0.0755	0.0153	-0.145
Mof_N 	N 	0.3228	0.267	0.7846	-0.227
Mof_N 	N 	0.6122	0.0391	0.1765	-0.149
Mof_N 	N 	0.4033	0.2625	0.7861	-0.144
Mof_N 	N 	0.912	0.9428	0.3062	-0.14
Mof_N 	N 	0.8242	0.0846	0.9783	-0.266
Mof_N 	N 	0.2257	0.9351	0.7819	-0.141
Mof_N 	N 	0.2447	0.2111	0.7286	-0.234
Mof_N 	N 	0.2398	0.1318	0.7217	-0.141
Mof_N 	N 	0.1803	0.2972	0.728	-0.24
Mof_N 	N 	0.9285	0.0739	0.1365	-0.143
Mof_N 	N 	0.0993	0.3005	0.7225	-0.155
Mof_N 	N 	0.9015	0.9142	0.3869	-0.25
Mof_N 	N 	0.2371	0.8557	0.7828	-0.227
Mof_N 	N 	0.9164	0.0947	0.0522	-0.254
Mof_C 	C 	0.5805	0.0037	0.1809	0.125
Mof_H 	H 	0.5805	0.9784	0.1564	-0.06
Mof_C 	C 	0.606	0.069	0.216	-0
Mof_H 	H 	0.6206	0.0989	0.2241	0.029
Mof_C 	C 	0.5664	0.0408	0.247	-0.005
Mof_H 	H 	0.5555	0.0486	0.2805	-0.007
Mof_C 	C 	0.1693	0.2983	0.6779	0.017
Mof_H 	H 	0.1918	0.2977	0.6501	0.015
Mof_C 	C 	0.1174	0.3008	0.6719	-0.012
Mof_H 	H 	0.0996	0.3023	0.6404	0.019
Mof_C 	C 	0.034	0.2895	0.7847	-0.156
Mof_H 	H 	0.0567	0.2774	0.809	0.063
Mof_C 	C 	0.0149	0.2968	0.6996	-0.17
Mof_H 	H 	0.0232	0.2993	0.6639	0.075
Mof_C 	C 	0.2648	0.196	0.6819	0.001
Mof_H 	H 	0.2786	0.2169	0.657	0.009
Mof_C 	C 	0.6471	0.0485	0.1319	0.061
Mof_C 	C 	0.657	0.0944	0.1175	-0.058
Mof_H 	H 	0.6403	0.1201	0.1335	0.041
Mof_C 	C 	0.6929	0.1041	0.0775	-0.099
Mof_H 	H 	0.701	0.1358	0.0681	0.082
Mof_C 	C 	0.2623	0.1468	0.676	-0.015
Mof_H 	H 	0.2732	0.1279	0.6477	0.013
Mof_C 	C 	0.7452	0.103	0.969	-0.011
Mof_H 	H 	0.7159	0.1147	0.9551	0.016
Mof_C 	C 	0.3876	0.2403	0.8303	-0.004
Mof_H 	H 	0.4068	0.226	0.8566	0.006
Mof_C 	C 	0.8957	0.8767	0.3509	-0.007
Mof_H 	H 	0.888	0.8446	0.3593	0.005
Mof_C 	C 	0.6714	0.009	0.1088	-0.062
Mof_H 	H 	0.6654	0.9773	0.1202	0.032
Mof_C 	C 	0.4619	0.2678	0.7137	-0.1
Mof_H 	H 	0.4364	0.2682	0.6892	0.071
Mof_C 	C 	0.2261	0.046	0.6977	-0.07
Mof_H 	H 	0.2231	0.0545	0.6621	0.046
Mof_C 	C 	0.704	0.0181	0.0689	-0.095
Mof_H 	H 	0.7191	0.9922	0.0516	0.039
Mof_C 	C 	0.9246	0.1234	0.1344	-0.005
Mof_H 	H 	0.9266	0.1443	0.1634	0.032
Mof_C 	C 	0.9176	0.1372	0.0842	-0.009
Mof_H 	H 	0.914	0.1691	0.0723	-0.006
Mof_C 	C 	0.233	0.0201	0.8032	-0.082
Mof_H 	H 	0.2338	0.0111	0.8388	0.049
Mof_C 	C 	0.3381	0.2427	0.8288	-0.001
Mof_H 	H 	0.3174	0.2297	0.8545	0.029
Mof_C 	C 	0.9434	0.9626	0.2185	-0.058
Mof_H 	H 	0.9567	0.9315	0.2156	0.053
Mof_C 	C 	0.7918	0.109	0.9484	-0.01
Mof_H 	H 	0.7995	0.1272	0.9184	-0.003
Mof_C 	C 	0.2064	0.9184	0.8286	0.01
Mof_H 	H 	0.1914	0.937	0.8549	0.021
Mof_C 	C 	0.92	0.9766	0.2643	0.077
Mof_C 	C 	0.4526	0.2669	0.7666	0.076
Mof_C 	C 	0.139	0.2962	0.7536	0.108
Mof_H 	H 	0.1371	0.2928	0.7903	-0.026
Mof_C 	C 	0.8001	0.0649	0.0177	0.096
Mof_H 	H 	0.8145	0.0459	0.044	-0.039
Mof_C 	C 	0.4892	0.2679	0.8027	-0.075
Mof_H 	H 	0.4818	0.2688	0.8387	0.037
Mof_C 	C 	0.2431	0.896	0.7561	0.11
Mof_H 	H 	0.2578	0.8974	0.7228	-0.009
Mof_C 	C 	0.2228	0.9978	0.7136	-0.091
Mof_H 	H 	0.2168	0.9736	0.6886	0.058
Mof_C 	C 	0.9021	0.0248	0.2699	-0.064
Mof_H 	H 	0.8876	0.0348	0.3014	0.051
Mof_C 	C 	0.2365	0.069	0.7889	-0.081
Mof_H 	H 	0.2405	0.0928	0.8148	0.06
Mof_C 	C 	0.9285	0.0417	0.1808	0.089
Mof_C 	C 	0.9234	0.059	0.0845	0.094
Mof_H 	H 	0.9249	0.0266	0.0738	-0.021
Mof_C 	C 	0.9034	0.8948	0.3007	0.017
Mof_H 	H 	0.9027	0.8772	0.2692	0.013
Mof_C 	C 	0.2313	0.1707	0.7515	0.104
Mof_H 	H 	0.2173	0.1693	0.7852	-0.005
Mof_C 	C 	0.2283	0.9859	0.7649	0.093
Mof_C 	C 	0.3629	0.2788	0.7604	0.095
Mof_H 	H 	0.3639	0.2964	0.7289	-0.001
Mof_C 	C 	0.2341	0.0819	0.7367	0.079
Mof_C 	C 	0.048	0.2998	0.7357	0.143
Mof_C 	C 	0.2135	0.8695	0.829	0.002
Mof_H 	H 	0.204	0.8485	0.8561	0.028
Mof_C 	C 	0.9473	0.9957	0.1761	-0.095
Mof_H 	H 	0.9627	0.9863	0.1448	0.071
Mof_C 	C 	0.9099	0.9531	0.3589	0.105
Mof_H 	H 	0.914	0.9841	0.3732	-0.026
Mof_C 	C 	0.7147	0.0652	0.0539	0.091
Mof_C 	C 	0.9065	0.0567	0.2277	-0.089
Mof_H 	H 	0.8948	0.0884	0.2308	0.066
Mof_W 	W 	0.30842	0.31996	0.62329	1.334
Mof_W 	W 	0.46315	0.38659	0.46567	1.319
Mof_W 	W 	0.29258	0.26221	0.3915	1.341
Mof_W 	W 	0.35398	0.43021	0.41937	1.03
Mof_W 	W 	0.24388	0.2559	0.51486	1.017
Mof_W 	W 	0.41081	0.21518	0.43969	1.025
Mof_W 	W 	0.36244	0.20927	0.56367	1.009
Mof_W 	W 	0.46766	0.27242	0.54265	1.008
Mof_W 	W 	0.23976	0.36309	0.44661	1.015
Mof_W 	W 	0.41386	0.38282	0.60168	1.027
Mof_W 	W 	0.30367	0.42645	0.55583	1.007
Mof_W 	W 	0.4056	0.32986	0.36378	1.04
Mof_Co	Co	0.5985	0.41062	0.47069	1.091
Mof_Co	Co	0.24887	0.21621	0.2576	1.159
Mof_P 	P 	0.35548	0.32089	0.49435	0.584
Mof_O 	O 	0.3473	0.3485	0.5465	-0.408
Mof_O 	O 	0.5196	0.4139	0.464	-0.555
Mof_O 	O 	0.2741	0.2326	0.3353	-0.549
Mof_O 	O 	0.3054	0.3065	0.4709	-0.405
Mof_O 	O 	0.3758	0.3934	0.3608	-0.447
Mof_O 	O 	0.3439	0.2226	0.4154	-0.478
Mof_O 	O 	0.2576	0.3961	0.5104	-0.457
Mof_O 	O 	0.4408	0.402	0.5351	-0.478
Mof_O 	O 	0.3646	0.4324	0.5939	-0.448
Mof_O 	O 	0.383	0.3537	0.4548	-0.405
Mof_O 	O 	0.4442	0.3215	0.5892	-0.457
Mof_O 	O 	0.4304	0.2245	0.5793	-0.454
Mof_O 	O 	0.3849	0.1801	0.4997	-0.45
Mof_O 	O 	0.2477	0.3165	0.3909	-0.469
Mof_O 	O 	0.3383	0.4434	0.4929	-0.456
Mof_O 	O 	0.3442	0.2619	0.6095	-0.476
Mof_O 	O 	0.2612	0.2951	0.5748	-0.475
Mof_O 	O 	0.2501	0.2338	0.4435	-0.471
Mof_O 	O 	0.4781	0.3244	0.4928	-0.488
Mof_O 	O 	0.2828	0.3839	0.6124	-0.462
Mof_O 	O 	0.4613	0.3596	0.3958	-0.473
Mof_O 	O 	0.3413	0.3036	0.3636	-0.487
Mof_O 	O 	0.2105	0.3124	0.487	-0.453
Mof_O 	O 	0.2989	0.2172	0.5332	-0.456
Mof_O 	O 	0.4673	0.2291	0.4815	-0.448
Mof_O 	O 	0.4221	0.4381	0.4391	-0.46
Mof_O 	O 	0.4236	0.2701	0.3969	-0.462
Mof_O 	O 	0.3859	0.2749	0.5053	-0.391
Mof_O 	O 	0.2811	0.3061	0.6823	-0.542
Mof_O 	O 	0.3674	0.3497	0.6472	-0.464
Mof_O 	O 	0.2924	0.3998	0.4158	-0.459
Mof_N 	N 	0.9501	0.4961	0.7184	-0.289
Mof_N 	N 	0.7481	0.4245	0.5153	-0.145
Mof_N 	N 	0.1772	0.233	0.2846	-0.227
Mof_N 	N 	0.8878	0.4609	0.6765	-0.149
Mof_N 	N 	0.0967	0.2375	0.2861	-0.151
Mof_N 	N 	0.588	0.5572	0.8062	-0.14
Mof_N 	N 	0.6758	0.4154	0.4783	-0.265
Mof_N 	N 	0.2743	0.5649	0.2819	-0.141
Mof_N 	N 	0.2553	0.2889	0.2286	-0.234
Mof_N 	N 	0.2602	0.3682	0.2217	-0.142
Mof_N 	N 	0.3197	0.2028	0.228	-0.239
Mof_N 	N 	0.5715	0.4261	0.6365	-0.143
Mof_N 	N 	0.4007	0.1995	0.2225	-0.145
Mof_N 	N 	0.5985	0.5858	0.8869	-0.25
Mof_N 	N 	0.2629	0.6443	0.2828	-0.227
Mof_N 	N 	0.5836	0.4053	0.5522	-0.256
Mof_C 	C 	0.9195	0.4963	0.6809	0.124
Mof_H 	H 	0.9195	0.5216	0.6564	-0.057
Mof_C 	C 	0.894	0.431	0.716	0.001
Mof_H 	H 	0.8794	0.4011	0.7241	0.029
Mof_C 	C 	0.9336	0.4592	0.747	-0.004
Mof_H 	H 	0.9445	0.4514	0.7805	-0.004
Mof_C 	C 	0.3307	0.2017	0.1779	0.019
Mof_H 	H 	0.3082	0.2023	0.1501	0.014
Mof_C 	C 	0.3826	0.1992	0.1719	-0.015
Mof_H 	H 	0.4004	0.1977	0.1404	0.023
Mof_C 	C 	0.466	0.2105	0.2847	-0.084
Mof_H 	H 	0.4433	0.2226	0.309	0.04
Mof_C 	C 	0.4851	0.2032	0.1996	-0.096
Mof_H 	H 	0.4768	0.2007	0.1639	0.053
Mof_C 	C 	0.2352	0.304	0.1819	0.001
Mof_H 	H 	0.2214	0.2831	0.157	0.009
Mof_C 	C 	0.8529	0.4515	0.6319	0.062
Mof_C 	C 	0.843	0.4056	0.6175	-0.058
Mof_H 	H 	0.8597	0.3799	0.6335	0.041
Mof_C 	C 	0.8071	0.3959	0.5775	-0.099
Mof_H 	H 	0.799	0.3642	0.5681	0.081
Mof_C 	C 	0.2377	0.3532	0.176	-0.015
Mof_H 	H 	0.2268	0.3721	0.1477	0.012
Mof_C 	C 	0.7548	0.397	0.469	-0.009
Mof_H 	H 	0.7841	0.3853	0.4551	0.016
Mof_C 	C 	0.1124	0.2597	0.3303	-0.002
Mof_H 	H 	0.0932	0.274	0.3566	0.003
Mof_C 	C 	0.6043	0.6233	0.8509	-0.008
Mof_H 	H 	0.612	0.6554	0.8593	0.004
Mof_C 	C 	0.8286	0.491	0.6088	-0.063
Mof_H 	H 	0.8346	0.5227	0.6202	0.033
Mof_C 	C 	0.0381	0.2322	0.2137	-0.157
Mof_H 	H 	0.0636	0.2318	0.1892	0.089
Mof_C 	C 	0.2739	0.454	0.1977	-0.07
Mof_H 	H 	0.2769	0.4455	0.1621	0.045
Mof_C 	C 	0.796	0.4819	0.5689	-0.096
Mof_H 	H 	0.7809	0.5078	0.5516	0.04
Mof_C 	C 	0.5754	0.3766	0.6344	-0.007
Mof_H 	H 	0.5734	0.3557	0.6634	0.031
Mof_C 	C 	0.5824	0.3628	0.5842	-0.01
Mof_H 	H 	0.586	0.3309	0.5723	-0.009
Mof_C 	C 	0.267	0.4799	0.3032	-0.081
Mof_H 	H 	0.2662	0.4889	0.3388	0.049
Mof_C 	C 	0.1619	0.2573	0.3288	-0.003
Mof_H 	H 	0.1826	0.2703	0.3545	0.029
Mof_C 	C 	0.5566	0.5374	0.7185	-0.061
Mof_H 	H 	0.5433	0.5685	0.7156	0.051
Mof_C 	C 	0.7082	0.391	0.4484	-0.01
Mof_H 	H 	0.7005	0.3728	0.4184	-0.003
Mof_C 	C 	0.2936	0.5816	0.3286	0.01
Mof_H 	H 	0.3086	0.563	0.3549	0.021
Mof_C 	C 	0.58	0.5234	0.7643	0.077
Mof_C 	C 	0.0474	0.2331	0.2666	0.112
Mof_C 	C 	0.361	0.2038	0.2536	0.105
Mof_H 	H 	0.3629	0.2072	0.2903	-0.024
Mof_C 	C 	0.6999	0.4351	0.5177	0.094
Mof_H 	H 	0.6855	0.4541	0.544	-0.039
Mof_C 	C 	0.0108	0.2321	0.3027	-0.132
Mof_H 	H 	0.0182	0.2312	0.3387	0.052
Mof_C 	C 	0.2569	0.604	0.2561	0.11
Mof_H 	H 	0.2422	0.6026	0.2228	-0.009
Mof_C 	C 	0.2772	0.5022	0.2136	-0.091
Mof_H 	H 	0.2832	0.5264	0.1886	0.058
Mof_C 	C 	0.5979	0.4752	0.7699	-0.066
Mof_H 	H 	0.6124	0.4652	0.8014	0.051
Mof_C 	C 	0.2635	0.431	0.2889	-0.081
Mof_H 	H 	0.2595	0.4072	0.3148	0.06
Mof_C 	C 	0.5715	0.4583	0.6808	0.085
Mof_C 	C 	0.5766	0.441	0.5845	0.092
Mof_H 	H 	0.5751	0.4734	0.5738	-0.022
Mof_C 	C 	0.5966	0.6052	0.8007	0.016
Mof_H 	H 	0.5973	0.6228	0.7692	0.013
Mof_C 	C 	0.2687	0.3293	0.2515	0.104
Mof_H 	H 	0.2827	0.3307	0.2852	-0.005
Mof_C 	C 	0.2717	0.5141	0.2649	0.092
Mof_C 	C 	0.1371	0.2212	0.2604	0.097
Mof_H 	H 	0.1361	0.2036	0.2289	-0.002
Mof_C 	C 	0.2659	0.4181	0.2367	0.079
Mof_C 	C 	0.452	0.2002	0.2357	0.091
Mof_C 	C 	0.2865	0.6305	0.329	0.002
Mof_H 	H 	0.296	0.6515	0.3561	0.028
Mof_C 	C 	0.5527	0.5043	0.6761	-0.093
Mof_H 	H 	0.5373	0.5137	0.6448	0.068
Mof_C 	C 	0.5901	0.5469	0.8589	0.103
Mof_H 	H 	0.586	0.5159	0.8732	-0.027
Mof_C 	C 	0.7853	0.4348	0.5539	0.091
Mof_C 	C 	0.5935	0.4433	0.7277	-0.088
Mof_H 	H 	0.6052	0.4116	0.7308	0.065
Mof_Co	Co	0.5	0.0472	0.75	0.994
Mof_Co	Co	6.23163e-33	0.4528	0.25	0.989
Mof_Co	Co	0.5	0.9528	0.25	0.994
Mof_Co	Co	2.59946e-33	0.5472	0.75	0.99
_end
