data_functionalizedCrystal
_audit_creation_method	'EQeq! by Chris Wilmer'
_symmetry_space_group_name_H-M	'P1'
_symmetry_Int_Tables_number	1
_symmetry_cell_setting	triclinic
loop_
_symmetry_equiv_pos_as_xyz
  x,y,z
_cell_length_a	13.5941
_cell_length_b	14.3621
_cell_length_c	14.2561
_cell_angle_alpha	90
_cell_angle_beta	96.141
_cell_angle_gamma	90
loop_
_atom_site_label
_atom_site_type_symbol
_atom_site_fract_x
_atom_site_fract_y
_atom_site_fract_z
_atom_site_charge
Mof_C 	C 	0.99988	0.6589	0.342	-0.146
Mof_N 	N 	0.99498	0.60263	0.39871	-0.148
Mof_C 	C 	0.01859	0.341	0.15853	-0.299
Mof_N 	N 	0.01852	0.39794	0.10138	-0.211
Mof_C 	C 	0.01662	0.65763	0.16012	-0.315
Mof_N 	N 	0.01886	0.60055	0.1037	-0.21
Mof_C 	C 	0.99875	0.34214	0.33993	-0.123
Mof_N 	N 	0.9911	0.39978	0.39551	-0.146
Mof_N 	N 	0.15497	0.49345	0.50892	-0.097
Mof_C 	C 	0.20997	0.48883	0.59274	0.154
Mof_H 	H 	0.1772	0.4852	0.6483	-0.142
Mof_C 	C 	0.31223	0.48913	0.6018	0.069
Mof_H 	H 	0.3481	0.4856	0.6626	-0.029
Mof_C 	C 	0.36267	0.4947	0.5222	0.024
Mof_C 	C 	0.3056	0.4985	0.4355	-0.152
Mof_H 	H 	0.3365	0.501	0.3788	0.068
Mof_C 	C 	0.2037	0.4987	0.432	-0.156
Mof_H 	H 	0.1661	0.5028	0.372	0.071
Mof_C 	C 	0.4717	0.495	0.5335	-0.129
Mof_H 	H 	0.5035	0.4872	0.5956	-0.001
Mof_N 	N 	0.15307	0.4995	0.98762	-0.199
Mof_C 	C 	0.1893	0.50709	0.90421	0.092
Mof_H 	H 	0.1442	0.5115	0.8487	-0.039
Mof_C 	C 	0.28944	0.50879	0.89545	-0.174
Mof_H 	H 	0.3118	0.5152	0.8349	0.08
Mof_C 	C 	0.3577	0.5011	0.97512	0.166
Mof_C 	C 	0.31954	0.49218	0.06171	-0.243
Mof_H 	H 	0.3629	0.4867	0.1183	0.088
Mof_C 	C 	0.21825	0.49129	0.06453	0.011
Mof_H 	H 	0.1936	0.4845	0.124	-0.01
Mof_C 	C 	0.46443	0.5041	0.96499	0.035
Mof_H 	H 	0.4834	0.5124	0.9033	0.026
Mof_N 	N 	0.154	0.5036	0.4885	-0.076
Mof_C 	C 	0.1886	0.5062	0.4041	0.161
Mof_H 	H 	0.1428	0.5052	0.3489	-0.131
Mof_C 	C 	0.2889	0.5103	0.3946	-0
Mof_H 	H 	0.3112	0.5211	0.3346	-0.026
Mof_C 	C 	0.3565	0.4985	0.4739	0.116
Mof_C 	C 	0.3211	0.4906	0.5611	-0.134
Mof_H 	H 	0.3654	0.4841	0.617	0.057
Mof_C 	C 	0.2192	0.4925	0.5649	-0.192
Mof_H 	H 	0.1948	0.4855	0.6245	0.117
Mof_C 	C 	0.464	0.502	0.4648	0.038
Mof_H 	H 	0.4832	0.5075	0.4029	0.034
Mof_C 	C 	0.00012	0.1589	0.658	-0.279
Mof_N 	N 	0.00502	0.10263	0.60129	-0.155
Mof_C 	C 	0.98141	0.841	0.84147	-0.182
Mof_N 	N 	0.98148	0.89794	0.89862	-0.158
Mof_C 	C 	0.98338	0.15763	0.83988	-0.12
Mof_N 	N 	0.98114	0.10055	0.8963	-0.091
Mof_C 	C 	0.00125	0.84214	0.66007	-0.344
Mof_N 	N 	0.0089	0.89978	0.60449	-0.229
Mof_N 	N 	0.84503	0.99345	0.49108	0.314
Mof_C 	C 	0.79003	0.98883	0.40726	-0.206
Mof_H 	H 	0.8228	0.9852	0.3517	0.601
Mof_C 	C 	0.68777	0.98913	0.3982	0.499
Mof_H 	H 	0.6519	0.9856	0.3374	-0.219
Mof_C 	C 	0.63733	0.9947	0.4778	-0.834
Mof_C 	C 	0.6944	0.9985	0.5645	0.313
Mof_H 	H 	0.6635	0.001	0.6212	0.37
Mof_C 	C 	0.7963	0.9987	0.568	0.578
Mof_H 	H 	0.8339	0.0028	0.628	0.027
Mof_C 	C 	0.5283	0.995	0.4665	-0.033
Mof_H 	H 	0.4965	0.9872	0.4044	0.063
Mof_N 	N 	0.84693	0.9995	0.01238	-0.405
Mof_C 	C 	0.8107	0.00709	0.09579	0.32
Mof_H 	H 	0.8558	0.0115	0.1513	-0.039
Mof_C 	C 	0.71056	0.00879	0.10455	-0.321
Mof_H 	H 	0.6882	0.0152	0.1651	0.163
Mof_C 	C 	0.6423	0.0011	0.02488	0.296
Mof_C 	C 	0.68046	0.99218	0.93829	-0.371
Mof_H 	H 	0.6371	0.9867	0.8817	0.111
Mof_C 	C 	0.78175	0.99129	0.93547	0.227
Mof_H 	H 	0.8064	0.9845	0.876	-0.09
Mof_C 	C 	0.53557	0.0041	0.03501	-0.124
Mof_H 	H 	0.5166	0.0124	0.0967	0.096
Mof_N 	N 	0.846	0.0036	0.5115	-0.63
Mof_C 	C 	0.8114	0.0062	0.5959	-0.238
Mof_H 	H 	0.8572	0.0052	0.6511	0.13
Mof_C 	C 	0.7111	0.0103	0.6054	-1.19
Mof_H 	H 	0.6888	0.0211	0.6654	0.256
Mof_C 	C 	0.6435	0.9985	0.5261	0.617
Mof_C 	C 	0.6789	0.9906	0.4389	-0.273
Mof_H 	H 	0.6346	0.9841	0.383	0.085
Mof_C 	C 	0.7808	0.9925	0.4351	0.306
Mof_H 	H 	0.8052	0.9855	0.3755	-0.67
Mof_C 	C 	0.536	0.002	0.5352	0.258
Mof_H 	H 	0.5168	0.0075	0.5971	0.038
Mof_C 	C 	0.00012	0.3411	0.658	-0.304
Mof_N 	N 	0.00502	0.39737	0.60129	-0.187
Mof_C 	C 	0.98141	0.659	0.84147	-0.167
Mof_N 	N 	0.98148	0.60206	0.89862	-0.124
Mof_C 	C 	0.98338	0.34237	0.83988	-0.145
Mof_N 	N 	0.98114	0.39945	0.8963	-0.121
Mof_C 	C 	0.00125	0.65786	0.66007	-0.325
Mof_N 	N 	0.0089	0.60022	0.60449	-0.189
Mof_N 	N 	0.84503	0.50655	0.49108	-0.01
Mof_C 	C 	0.79003	0.51117	0.40726	0.147
Mof_H 	H 	0.8228	0.5148	0.3517	-0.129
Mof_C 	C 	0.68777	0.51087	0.3982	0.121
Mof_H 	H 	0.6519	0.5144	0.3374	-0.037
Mof_C 	C 	0.63733	0.5053	0.4778	-0.018
Mof_C 	C 	0.6944	0.5015	0.5645	-0.105
Mof_H 	H 	0.6635	0.499	0.6212	0.016
Mof_C 	C 	0.7963	0.5013	0.568	-0.29
Mof_H 	H 	0.8339	0.4972	0.628	0.259
Mof_C 	C 	0.5283	0.505	0.4665	-0.099
Mof_H 	H 	0.4965	0.5128	0.4044	-0.001
Mof_N 	N 	0.84693	0.5005	0.01238	-0.258
Mof_C 	C 	0.8107	0.49291	0.09579	0.066
Mof_H 	H 	0.8558	0.4885	0.1513	0.017
Mof_C 	C 	0.71056	0.49121	0.10455	-0.149
Mof_H 	H 	0.6882	0.4848	0.1651	0.073
Mof_C 	C 	0.6423	0.4989	0.02488	0.044
Mof_C 	C 	0.68046	0.50782	0.93829	-0.074
Mof_H 	H 	0.6371	0.5133	0.8817	0.063
Mof_C 	C 	0.78175	0.50871	0.93547	0.134
Mof_H 	H 	0.8064	0.5155	0.876	-0.013
Mof_C 	C 	0.53557	0.4959	0.03501	-0.204
Mof_H 	H 	0.5166	0.4876	0.0967	0.078
Mof_N 	N 	0.846	0.4964	0.5115	-0.087
Mof_C 	C 	0.8114	0.4938	0.5959	0.192
Mof_H 	H 	0.8572	0.4948	0.6511	-0.232
Mof_C 	C 	0.7111	0.4897	0.6054	0.053
Mof_H 	H 	0.6888	0.4789	0.6654	-0.001
Mof_C 	C 	0.6435	0.5015	0.5261	0.123
Mof_C 	C 	0.6789	0.5094	0.4389	-0.123
Mof_H 	H 	0.6346	0.5159	0.383	0.034
Mof_C 	C 	0.7808	0.5075	0.4351	-0.211
Mof_H 	H 	0.8052	0.5145	0.3755	0.123
Mof_C 	C 	0.536	0.498	0.5352	0.048
Mof_H 	H 	0.5168	0.4925	0.5971	0.044
Mof_C 	C 	0.99988	0.8411	0.342	-0.17
Mof_N 	N 	0.99498	0.89737	0.39871	-0.198
Mof_C 	C 	0.01859	0.159	0.15853	-0.283
Mof_N 	N 	0.01852	0.10206	0.10138	-0.195
Mof_C 	C 	0.01662	0.84237	0.16012	-0.337
Mof_N 	N 	0.01886	0.89945	0.1037	-0.253
Mof_C 	C 	0.99875	0.15786	0.33993	-0.103
Mof_N 	N 	0.9911	0.10022	0.39551	-0.121
Mof_N 	N 	0.15497	0.00655	0.50892	-0.416
Mof_C 	C 	0.20997	0.01117	0.59274	0.505
Mof_H 	H 	0.1772	0.0148	0.6483	-0.866
Mof_C 	C 	0.31223	0.01087	0.6018	-0.338
Mof_H 	H 	0.3481	0.0144	0.6626	0.16
Mof_C 	C 	0.36267	0.0053	0.5222	0.868
Mof_C 	C 	0.3056	0.0015	0.4355	-0.569
Mof_H 	H 	0.3365	0.999	0.3788	-0.277
Mof_C 	C 	0.2037	0.0013	0.432	-0.998
Mof_H 	H 	0.1661	0.9972	0.372	0.28
Mof_C 	C 	0.4717	0.005	0.5335	-0.154
Mof_H 	H 	0.5035	0.0128	0.5956	-0.055
Mof_N 	N 	0.15307	0.0005	0.98762	-0.06
Mof_C 	C 	0.1893	0.99291	0.90421	-0.165
Mof_H 	H 	0.1442	0.9885	0.8487	0.014
Mof_C 	C 	0.28944	0.99121	0.89545	-0.001
Mof_H 	H 	0.3118	0.9848	0.8349	-0.011
Mof_C 	C 	0.3577	0.9989	0.97512	-0.087
Mof_C 	C 	0.31954	0.00782	0.06171	0.053
Mof_H 	H 	0.3629	0.0133	0.1183	0.039
Mof_C 	C 	0.21825	0.00871	0.06453	-0.09
Mof_H 	H 	0.1936	0.0155	0.124	0.063
Mof_C 	C 	0.46443	0.9959	0.96499	-0.046
Mof_H 	H 	0.4834	0.9876	0.9033	0.007
Mof_N 	N 	0.154	0.9964	0.4885	0.443
Mof_C 	C 	0.1886	0.9938	0.4041	0.574
Mof_H 	H 	0.1428	0.9948	0.3489	-0.47
Mof_C 	C 	0.2889	0.9897	0.3946	1.244
Mof_H 	H 	0.3112	0.9789	0.3346	-0.285
Mof_C 	C 	0.3565	0.0015	0.4739	-0.412
Mof_C 	C 	0.3211	0.0094	0.5611	0.02
Mof_H 	H 	0.3654	0.0159	0.617	0.008
Mof_C 	C 	0.2192	0.0075	0.5649	-0.699
Mof_H 	H 	0.1948	0.0145	0.6245	0.9
Mof_C 	C 	0.464	0.998	0.4648	-0.213
Mof_H 	H 	0.4832	0.9925	0.4029	0.031
Mof_Ni	Ni	2.17631e-33	0.5	0.5	1.004
Mof_Ni	Ni	2.17631e-33	4.5609e-33	0.5	1.063
Mof_Ni	Ni	-0	0.5	-0	0.972
Mof_Ni	Ni	-0	0	-0	1.03
Mof_Ni	Ni	0.00927	0.75	0.25105	0.993
Mof_Ni	Ni	0.99073	0.25	0.74895	1.116
Mof_Ni	Ni	0.01008	0.25	0.25005	1.002
Mof_Ni	Ni	0.98992	0.75	0.74995	1.105
_end
