# CIF file generated by openbabel 3.1.0, see https://openbabel.org
data_I
_chemical_name_common 'image0'
_cell_length_a 10.425
_cell_length_b 10.62
_cell_length_c 11.323
_cell_angle_alpha 83.41
_cell_angle_beta 74.96
_cell_angle_gamma 69.67
_space_group_name_H-M_alt 'P 1'
_space_group_name_Hall 'P 1'
loop_
    _symmetry_equiv_pos_as_xyz
    x,y,z
loop_
    _atom_site_label
    _atom_site_type_symbol
    _atom_site_fract_x
    _atom_site_fract_y
    _atom_site_fract_z
    _atom_site_occupancy
    Dy1      Dy       0.58699    0.59728    0.63175    1.000
    O1       O        0.39660    0.61680    0.40510    1.000
    O2       O        0.47160    0.74170    0.49640    1.000
    O3       O        0.28290    0.24910    0.43960    1.000
    O4       O        0.05140    0.31870    0.45450    1.000
    O5       O        0.87130    0.06270    0.26230    1.000
    O6       O        0.94940    0.84840    0.27470    1.000
    O7       O        0.00290    0.44110    0.66950    1.000
    O8       O        0.77080    0.49620    0.71980    1.000
    O9       O        0.52900    0.48140    0.16490    1.000
    O10      O        0.65830    0.39120    0.29780    1.000
    O11      O        0.17600    0.24770    0.15880    1.000
    O12      O        0.27110    0.23410    0.96790    1.000
    N1       N        0.96020    0.95600    0.28310    1.000
    N2       N        0.16920    0.26130    0.05200    1.000
    C1       C        0.28140    0.85280    0.40600    1.000
    C2       C        0.28210    0.97800    0.43140    1.000
    H1       H        0.35430    0.98340    0.46240    1.000
    C3       C        0.17550    0.09500    0.41080    1.000
    C4       C        0.06780    0.08670    0.36380    1.000
    H2       H        0.99410    0.16330    0.35200    1.000
    C5       C        0.07320    0.96200    0.33540    1.000
    C6       C        0.17750    0.84390    0.35530    1.000
    H3       H        0.17780    0.76130    0.33530    1.000
    C7       C        0.39190    0.72720    0.43730    1.000
    C8       C        0.17120    0.23180    0.43710    1.000
    C9       C        0.89430    0.41820    0.87660    1.000
    C10      C        0.77180    0.44390    0.96950    1.000
    H4       H        0.68460    0.48400    0.95060    1.000
    C11      C        0.77930    0.40990    0.09050    1.000
    C12      C        0.90990    0.34940    0.11890    1.000
    H5       H        0.91680    0.32610    0.19930    1.000
    C13      C        0.02820    0.32510    0.02460    1.000
    C14      C        0.02470    0.35710    0.90460    1.000
    H6       H        0.10730    0.33840    0.84340    1.000
    C15      C        0.88790    0.45540    0.74640    1.000
    C16      C        0.64800    0.43040    0.18990    1.000
    Dy2      Dy       0.41301    0.40272    0.36825    1.000
    O13      O        0.60340    0.38320    0.59490    1.000
    O14      O        0.52840    0.25830    0.50360    1.000
    O15      O        0.71710    0.75090    0.56040    1.000
    O16      O        0.94860    0.68130    0.54550    1.000
    O17      O        0.12870    0.93730    0.73770    1.000
    O18      O        0.05060    0.15160    0.72530    1.000
    O19      O        0.99710    0.55890    0.33050    1.000
    O20      O        0.22920    0.50380    0.28020    1.000
    O21      O        0.47100    0.51860    0.83510    1.000
    O22      O        0.34170    0.60880    0.70220    1.000
    O23      O        0.82400    0.75230    0.84120    1.000
    O24      O        0.72890    0.76590    0.03210    1.000
    N3       N        0.03980    0.04400    0.71690    1.000
    N4       N        0.83080    0.73870    0.94800    1.000
    C17      C        0.71860    0.14720    0.59400    1.000
    C18      C        0.71790    0.02200    0.56860    1.000
    H7       H        0.64570    0.01660    0.53760    1.000
    C19      C        0.82450    0.90500    0.58920    1.000
    C20      C        0.93220    0.91330    0.63620    1.000
    H8       H        0.00590    0.83670    0.64800    1.000
    C21      C        0.92680    0.03800    0.66460    1.000
    C22      C        0.82250    0.15610    0.64470    1.000
    H9       H        0.82220    0.23870    0.66470    1.000
    C23      C        0.60810    0.27280    0.56270    1.000
    C24      C        0.82880    0.76820    0.56290    1.000
    C25      C        0.10570    0.58180    0.12340    1.000
    C26      C        0.22820    0.55610    0.03050    1.000
    H10      H        0.31540    0.51600    0.04940    1.000
    C27      C        0.22070    0.59010    0.90950    1.000
    C28      C        0.09010    0.65060    0.88110    1.000
    H11      H        0.08320    0.67390    0.80070    1.000
    C29      C        0.97180    0.67490    0.97540    1.000
    C30      C        0.97530    0.64290    0.09540    1.000
    H12      H        0.89270    0.66160    0.15660    1.000
    C31      C        0.11210    0.54460    0.25360    1.000
    C32      C        0.35200    0.56960    0.81010    1.000
    Cu1      Cu       0.00000    0.50000    0.50000    1.000
