data_functionalizedCrystal
_audit_creation_method	'EQeq! by Chris Wilmer'
_symmetry_space_group_name_H-M	'P1'
_symmetry_Int_Tables_number	1
_symmetry_cell_setting	triclinic
loop_
_symmetry_equiv_pos_as_xyz
  x,y,z
_cell_length_a	10.658
_cell_length_b	18.4613
_cell_length_c	21.092
_cell_angle_alpha	89.068
_cell_angle_beta	88.119
_cell_angle_gamma	85.215
loop_
_atom_site_label
_atom_site_type_symbol
_atom_site_fract_x
_atom_site_fract_y
_atom_site_fract_z
_atom_site_charge
Mof_Cu	Cu	0.50504	0.57171	0.87954	0.91
Mof_Cu	Cu	0.36203	0.49523	0.99446	0.936
Mof_Cu	Cu	0.13851	0.0069	0.4959	0.967
Mof_O 	O 	0.4936	0.56372	0.97151	-0.553
Mof_O 	O 	0.2587	0.03771	0.55423	-0.395
Mof_O 	O 	0.228	0.56199	0.96316	-0.382
Mof_O 	O 	0.7194	0.03896	0.55174	-0.39
Mof_O 	O 	0.7705	0.54822	0.95397	-0.387
Mof_O 	O 	0.3243	0.5933	0.87156	-0.432
Mof_O 	O 	0.3529	0.4274	0.91307	-0.348
Mof_O 	O 	0.145	0.1336	0.5974	-0.487
Mof_C 	C 	0.7638	0.5906	0.90708	0.384
Mof_C 	C 	0.3608	0.1189	0.6159	-0.104
Mof_O 	O 	0.543	0.4558	0.87667	-0.399
Mof_C 	C 	0.3512	0.1723	0.6612	0.015
Mof_H 	H 	0.2705	0.1908	0.677	0.04
Mof_O 	O 	0.8001	0.129	0.602	-0.492
Mof_C 	C 	0.2455	0.0935	0.5872	0.383
Mof_C 	C 	0.9964	0.5971	0.90953	0.052
Mof_H 	H 	0.9981	0.5673	0.9467	0.053
Mof_C 	C 	0.1075	0.6194	0.8823	-0.107
Mof_C 	C 	0.8829	0.619	0.88186	-0.11
Mof_C 	C 	0.4589	0.1995	0.6839	-0.041
Mof_C 	C 	0.4518	0.2573	0.732	0.083
Mof_C 	C 	0.7126	0.0924	0.58755	0.403
Mof_C 	C 	0.8807	0.6642	0.8287	0.024
Mof_H 	H 	0.8023	0.6799	0.8108	0.034
Mof_C 	C 	0.5761	0.1716	0.6592	0.017
Mof_H 	H 	0.6505	0.19	0.6737	0.039
Mof_C 	C 	0.9914	0.6869	0.8011	-0.051
Mof_C 	C 	0.1053	0.6634	0.8289	0.024
Mof_H 	H 	0.1821	0.6779	0.8107	0.032
Mof_C 	C 	0.2304	0.5896	0.9078	0.382
Mof_C 	C 	0.3615	0.2594	0.7812	-0.12
Mof_H 	H 	0.3003	0.2248	0.7828	0.077
Mof_C 	C 	0.4781	0.09	0.5928	0.05
Mof_H 	H 	0.4847	0.0518	0.5629	0.054
Mof_C 	C 	0.4485	0.4199	0.8752	0.334
Mof_C 	C 	0.4472	0.3632	0.8253	-0.107
Mof_C 	C 	0.5363	0.3103	0.7289	-0.122
Mof_H 	H 	0.596	0.311	0.6945	0.078
Mof_C 	C 	0.3599	0.3111	0.8274	0.053
Mof_H 	H 	0.2986	0.3113	0.8612	0.037
Mof_C 	C 	0.5348	0.3621	0.7755	0.05
Mof_H 	H 	0.5947	0.3975	0.7732	0.026
Mof_O 	O 	0.6655	0.613	0.87976	-0.43
Mof_C 	C 	0.5856	0.1185	0.6148	-0.112
Mof_O 	O 	0.9575	0.2389	0.5632	-0.852
Mof_C 	C 	0.9308	0.2622	0.6252	-0.439
Mof_C 	C 	0.997	0.0037	0.626	-0.354
Mof_C 	C 	0.4696	0.6383	0.994	0.208
Mof_O 	O 	0.993	0.02793	0.55637	-0.2
Mof_Cu	Cu	0.97378	0.13202	0.56644	0.862
Mof_O 	O 	0.0723	0.8539	0.5314	-0.295
Mof_C 	C 	0.8839	0.776	0.726	-0.081
Mof_H 	H 	0.8134	0.7801	0.7548	0.08
Mof_C 	C 	0.989	0.7312	0.7408	0.349
Mof_C 	C 	0.8803	0.8151	0.6697	-0.014
Mof_H 	H 	0.806	0.8443	0.6595	0.013
Mof_C 	C 	0.9816	0.8123	0.6285	-0.094
Mof_C 	C 	0.9757	0.8551	0.5664	0.268
Mof_C 	C 	0.0904	0.7286	0.6985	-0.279
Mof_H 	H 	0.1637	0.6978	0.7076	0.124
Mof_C 	C 	0.0878	0.7696	0.6435	0.122
Mof_H 	H 	0.1601	0.7682	0.6158	0.011
Mof_O 	O 	0.8732	0.8897	0.55485	-0.207
Mof_O 	O 	0.4276	0.697	0.0167	-0.217
Mof_O 	O 	0.9594	0.233	0.5931	0.713
Mof_C 	C 	0.856	0.2866	0.5793	0.295
Mof_C 	C 	0.872	0.774	0.733	-0.038
Mof_H 	H 	0.8043	0.7441	0.7395	0.015
Mof_C 	C 	0.865	0.829	0.6876	0.051
Mof_H 	H 	0.7925	0.8375	0.663	0.027
Mof_C 	C 	0.965	0.8726	0.6783	-0.028
Mof_C 	C 	0.072	0.8605	0.7144	-0.071
Mof_H 	H 	0.1401	0.8901	0.708	0.076
Mof_C 	C 	0.079	0.805	0.7598	0.084
Mof_H 	H 	0.1519	0.7967	0.7844	0.011
Mof_C 	C 	0.979	0.7616	0.7691	-0.264
Mof_O 	O 	0.038	0.9644	0.6199	-0.079
Mof_C 	C 	0.95	0.9279	0.624	0.312
Mof_O 	O 	0.867	0.9266	0.5947	-0.271
Mof_Cu	Cu	0.9838	0.0767	0.6182	0.849
Mof_O 	O 	0.983	0.0634	0.5313	-0.53
Mof_O 	O 	0.0313	0.9813	0.6762	-0.12
Mof_Cu	Cu	0.49496	0.42829	0.12046	0.909
Mof_Cu	Cu	0.63797	0.50477	0.00554	0.935
Mof_Cu	Cu	0.86149	0.9931	0.5041	0.966
Mof_O 	O 	0.5064	0.43628	0.02849	-0.554
Mof_O 	O 	0.7413	0.96229	0.44577	-0.396
Mof_O 	O 	0.772	0.43801	0.03684	-0.383
Mof_O 	O 	0.2806	0.96104	0.44826	-0.391
Mof_O 	O 	0.2295	0.45178	0.04603	-0.388
Mof_O 	O 	0.6757	0.4067	0.12844	-0.433
Mof_O 	O 	0.6471	0.5726	0.08693	-0.349
Mof_O 	O 	0.855	0.8664	0.4026	-0.487
Mof_C 	C 	0.2362	0.4094	0.09292	0.384
Mof_C 	C 	0.6392	0.8811	0.3841	-0.104
Mof_O 	O 	0.457	0.5442	0.12333	-0.399
Mof_C 	C 	0.6488	0.8277	0.3388	0.015
Mof_H 	H 	0.7295	0.8092	0.323	0.04
Mof_O 	O 	0.1999	0.871	0.398	-0.492
Mof_C 	C 	0.7545	0.9065	0.4128	0.383
Mof_C 	C 	0.0036	0.4029	0.09047	0.052
Mof_H 	H 	0.0019	0.4327	0.0533	0.053
Mof_C 	C 	0.8925	0.3806	0.1177	-0.107
Mof_C 	C 	0.1171	0.381	0.11814	-0.11
Mof_C 	C 	0.5411	0.8005	0.3161	-0.041
Mof_C 	C 	0.5482	0.7427	0.268	0.083
Mof_C 	C 	0.2874	0.9076	0.41245	0.403
Mof_C 	C 	0.1193	0.3358	0.1713	0.024
Mof_H 	H 	0.1977	0.3201	0.1892	0.034
Mof_C 	C 	0.4239	0.8284	0.3408	0.017
Mof_H 	H 	0.3495	0.81	0.3263	0.039
Mof_C 	C 	0.0086	0.3131	0.1989	-0.051
Mof_C 	C 	0.8947	0.3366	0.1711	0.024
Mof_H 	H 	0.8179	0.3221	0.1893	0.032
Mof_C 	C 	0.7696	0.4104	0.0922	0.382
Mof_C 	C 	0.6385	0.7406	0.2188	-0.12
Mof_H 	H 	0.6997	0.7752	0.2172	0.077
Mof_C 	C 	0.5219	0.91	0.4072	0.05
Mof_H 	H 	0.5153	0.9482	0.4371	0.054
Mof_C 	C 	0.5515	0.5801	0.1248	0.334
Mof_C 	C 	0.5528	0.6368	0.1747	-0.107
Mof_C 	C 	0.4637	0.6897	0.2711	-0.122
Mof_H 	H 	0.404	0.689	0.3055	0.078
Mof_C 	C 	0.6401	0.6889	0.1726	0.053
Mof_H 	H 	0.7014	0.6887	0.1388	0.037
Mof_C 	C 	0.4652	0.6379	0.2245	0.05
Mof_H 	H 	0.4053	0.6025	0.2268	0.026
Mof_O 	O 	0.3345	0.387	0.12024	-0.43
Mof_C 	C 	0.4144	0.8815	0.3852	-0.112
Mof_O 	O 	0.0425	0.7611	0.4368	-0.852
Mof_C 	C 	0.0692	0.7378	0.3748	-0.439
Mof_C 	C 	0.003	0.9963	0.374	-0.354
Mof_C 	C 	0.5304	0.3617	0.006	0.208
Mof_O 	O 	0.007	0.97207	0.44363	-0.2
Mof_Cu	Cu	0.02622	0.86798	0.43356	0.862
Mof_O 	O 	0.9277	0.1461	0.4686	-0.295
Mof_C 	C 	0.1161	0.224	0.274	-0.081
Mof_H 	H 	0.1866	0.2199	0.2452	0.08
Mof_C 	C 	0.011	0.2688	0.2592	0.349
Mof_C 	C 	0.1197	0.1849	0.3303	-0.014
Mof_H 	H 	0.194	0.1557	0.3405	0.013
Mof_C 	C 	0.0184	0.1877	0.3715	-0.094
Mof_C 	C 	0.0243	0.1449	0.4336	0.268
Mof_C 	C 	0.9096	0.2714	0.3015	-0.279
Mof_H 	H 	0.8363	0.3022	0.2924	0.124
Mof_C 	C 	0.9122	0.2304	0.3565	0.122
Mof_H 	H 	0.8399	0.2318	0.3842	0.011
Mof_O 	O 	0.1268	0.1103	0.44515	-0.207
Mof_O 	O 	0.5724	0.303	0.9833	-0.217
Mof_O 	O 	0.0406	0.767	0.4069	0.713
Mof_C 	C 	0.144	0.7134	0.4207	0.295
Mof_C 	C 	0.128	0.226	0.267	-0.038
Mof_H 	H 	0.1957	0.2559	0.2605	0.015
Mof_C 	C 	0.135	0.171	0.3124	0.051
Mof_H 	H 	0.2075	0.1625	0.337	0.027
Mof_C 	C 	0.035	0.1274	0.3217	-0.028
Mof_C 	C 	0.928	0.1395	0.2856	-0.071
Mof_H 	H 	0.8599	0.1099	0.292	0.076
Mof_C 	C 	0.921	0.195	0.2402	0.084
Mof_H 	H 	0.8481	0.2033	0.2156	0.011
Mof_C 	C 	0.021	0.2384	0.2309	-0.264
Mof_O 	O 	0.962	0.0356	0.3801	-0.079
Mof_C 	C 	0.05	0.0721	0.376	0.312
Mof_O 	O 	0.133	0.0734	0.4053	-0.271
Mof_Cu	Cu	0.0162	0.9233	0.3818	0.849
Mof_O 	O 	0.017	0.9366	0.4687	-0.53
Mof_O 	O 	0.9687	0.0187	0.3238	-0.12
_end
