data_functionalizedCrystal
_audit_creation_method	'EQeq! by Chris Wilmer'
_symmetry_space_group_name_H-M	'P1'
_symmetry_Int_Tables_number	1
_symmetry_cell_setting	triclinic
loop_
_symmetry_equiv_pos_as_xyz
  x,y,z
_cell_length_a	13.8606
_cell_length_b	16.9142
_cell_length_c	18.1588
_cell_angle_alpha	112.895
_cell_angle_beta	96.84
_cell_angle_gamma	101.84
loop_
_atom_site_label
_atom_site_type_symbol
_atom_site_fract_x
_atom_site_fract_y
_atom_site_fract_z
_atom_site_charge
Mof_Zn	Zn	0.16113	0.34662	0.85179	1.209
Mof_Zn	Zn	0.82146	0.14901	0.15318	1.209
Mof_Zn	Zn	0.14119	0.92769	0.5985	1.196
Mof_Zn	Zn	0.14996	0.41367	0.60365	1.198
Mof_Zn	Zn	0.83887	0.65338	0.14821	1.21
Mof_Zn	Zn	0.17854	0.85099	0.84682	1.21
Mof_Zn	Zn	0.85881	0.07231	0.4015	1.196
Mof_Zn	Zn	0.85004	0.58633	0.39635	1.198
Mof_H 	H 	0.8191	0.3855	0.8449	0.121
Mof_H 	H 	0.6375	0.3279	0.6322	0.129
Mof_H 	H 	0.7745	0.3315	0.5715	-0.003
Mof_H 	H 	0.4632	0.3743	0.7951	0.12
Mof_H 	H 	0.6109	0.1924	0.6985	0.123
Mof_H 	H 	0.4616	0.0813	0.6545	-0.002
Mof_H 	H 	0.5145	0.1443	0.2064	0.117
Mof_H 	H 	0.3712	0.3348	0.2553	0.12
Mof_H 	H 	0.5243	0.4416	0.3	0.004
Mof_H 	H 	0.1521	0.1219	0.1472	0.119
Mof_H 	H 	0.3637	0.1979	0.35	0.125
Mof_H 	H 	0.2386	0.1778	0.4198	-0.003
Mof_H 	H 	0.2085	0.2425	0.9483	-0.009
Mof_H 	H 	0.1977	0.2397	0.0715	0.096
Mof_H 	H 	0.0403	0.4178	0.1116	0.112
Mof_H 	H 	0.0552	0.4183	0.9874	-0.005
Mof_H 	H 	0.2674	0.4178	0.4838	-0.054
Mof_H 	H 	0.257	0.4165	0.3559	0.136
Mof_H 	H 	0.9706	0.3976	0.3379	0.15
Mof_H 	H 	0.9853	0.3996	0.4655	-0.035
Mof_H 	H 	0.1612	0.3062	0.2053	0.056
Mof_H 	H 	0.044	0.2863	0.1801	0.049
Mof_H 	H 	0.1725	0.4572	0.2572	0.123
Mof_H 	H 	0.0541	0.4322	0.239	0.123
Mof_H 	H 	0.2142	0.5014	0.8124	-0.034
Mof_H 	H 	0.3236	0.6401	0.8611	0.129
Mof_H 	H 	0.4251	0.6116	0.0605	0.115
Mof_H 	H 	0.321	0.4701	0.0018	-0.037
Mof_H 	H 	0.7757	0.9967	0.1965	-0.039
Mof_H 	H 	0.6707	0.8558	0.1495	0.133
Mof_H 	H 	0.5558	0.8852	0.9518	0.111
Mof_H 	H 	0.6539	0.0283	0.0111	-0.041
Mof_H 	H 	0.4397	0.7727	0.0683	0.08
Mof_H 	H 	0.4154	0.782	0.985	0.078
Mof_H 	H 	0.571	0.7151	0.0274	0.083
Mof_H 	H 	0.5467	0.7244	0.9442	0.084
Mof_H 	H 	0.7841	0.2553	0.0599	-0.017
Mof_H 	H 	0.7969	0.261	0.9384	0.1
Mof_H 	H 	0.9463	0.0752	0.8939	0.118
Mof_H 	H 	0.9226	0.0701	0.0157	-0.012
Mof_H 	H 	0.7215	0.0571	0.5056	-0.033
Mof_H 	H 	0.7189	0.0595	0.6323	0.104
Mof_H 	H 	0.0183	0.111	0.6798	0.122
Mof_H 	H 	0.0155	0.109	0.5534	-0.016
Mof_H 	H 	0.8296	0.1929	0.8029	0.075
Mof_H 	H 	0.9461	0.2055	0.8247	0.066
Mof_H 	H 	0.8052	0.0401	0.7498	0.095
Mof_H 	H 	0.9228	0.0567	0.7658	0.098
Mof_H 	H 	0.1809	0.6145	0.1551	0.121
Mof_H 	H 	0.3625	0.6721	0.3678	0.129
Mof_H 	H 	0.2255	0.6685	0.4285	-0.003
Mof_H 	H 	0.5368	0.6257	0.2049	0.12
Mof_H 	H 	0.3891	0.8076	0.3015	0.123
Mof_H 	H 	0.5384	0.9187	0.3455	-0.002
Mof_H 	H 	0.4855	0.8557	0.7936	0.117
Mof_H 	H 	0.6288	0.6652	0.7447	0.12
Mof_H 	H 	0.4757	0.5584	0.7	0.004
Mof_H 	H 	0.8479	0.8781	0.8528	0.119
Mof_H 	H 	0.6363	0.8021	0.65	0.125
Mof_H 	H 	0.7614	0.8222	0.5802	-0.003
Mof_H 	H 	0.7915	0.7575	0.0517	-0.009
Mof_H 	H 	0.8023	0.7603	0.9285	0.096
Mof_H 	H 	0.9597	0.5822	0.8884	0.112
Mof_H 	H 	0.9448	0.5817	0.0126	-0.005
Mof_H 	H 	0.7326	0.5822	0.5162	-0.054
Mof_H 	H 	0.743	0.5835	0.6441	0.136
Mof_H 	H 	0.0294	0.6024	0.6621	0.15
Mof_H 	H 	0.0147	0.6004	0.5345	-0.035
Mof_H 	H 	0.8388	0.6938	0.7947	0.056
Mof_H 	H 	0.956	0.7137	0.8199	0.049
Mof_H 	H 	0.8275	0.5428	0.7428	0.123
Mof_H 	H 	0.9459	0.5678	0.761	0.123
Mof_H 	H 	0.7858	0.4986	0.1876	-0.034
Mof_H 	H 	0.6764	0.3599	0.1389	0.129
Mof_H 	H 	0.5749	0.3884	0.9395	0.115
Mof_H 	H 	0.679	0.5299	0.9982	-0.037
Mof_H 	H 	0.2243	0.0033	0.8035	-0.039
Mof_H 	H 	0.3293	0.1442	0.8505	0.133
Mof_H 	H 	0.4442	0.1148	0.0482	0.111
Mof_H 	H 	0.3461	0.9717	0.9889	-0.041
Mof_H 	H 	0.5603	0.2273	0.9317	0.08
Mof_H 	H 	0.5846	0.218	0.015	0.078
Mof_H 	H 	0.429	0.2849	0.9726	0.083
Mof_H 	H 	0.4533	0.2756	0.0558	0.084
Mof_H 	H 	0.2159	0.7447	0.9401	-0.017
Mof_H 	H 	0.2031	0.739	0.0616	0.1
Mof_H 	H 	0.0537	0.9248	0.1061	0.118
Mof_H 	H 	0.0774	0.9299	0.9843	-0.012
Mof_H 	H 	0.2785	0.9429	0.4944	-0.033
Mof_H 	H 	0.2811	0.9405	0.3677	0.104
Mof_H 	H 	0.9817	0.889	0.3202	0.122
Mof_H 	H 	0.9845	0.891	0.4466	-0.016
Mof_H 	H 	0.1704	0.8071	0.1971	0.075
Mof_H 	H 	0.0539	0.7945	0.1753	0.066
Mof_H 	H 	0.1948	0.9599	0.2502	0.095
Mof_H 	H 	0.0772	0.9433	0.2342	0.098
Mof_C 	C 	0.8818	0.3571	0.6703	-0.142
Mof_C 	C 	0.8943	0.3732	0.7528	0.051
Mof_C 	C 	0.8108	0.3739	0.7897	-0.222
Mof_C 	C 	0.7172	0.3574	0.7437	0.273
Mof_C 	C 	0.7021	0.3402	0.6625	-0.268
Mof_C 	C 	0.7841	0.3414	0.6263	0.117
Mof_C 	C 	0.9676	0.3647	0.6293	0.356
Mof_C 	C 	0.9937	0.3862	0.8056	0.295
Mof_C 	C 	0.3709	0.1605	0.7002	-0.138
Mof_C 	C 	0.3733	0.2481	0.7414	0.057
Mof_C 	C 	0.4629	0.3151	0.7671	-0.222
Mof_C 	C 	0.5512	0.2944	0.7516	0.271
Mof_C 	C 	0.5512	0.2066	0.7093	-0.262
Mof_C 	C 	0.462	0.1404	0.6835	0.12
Mof_C 	C 	0.2736	0.0876	0.6685	0.342
Mof_C 	C 	0.2817	0.2777	0.7652	0.284
Mof_C 	C 	0.6136	0.3575	0.2811	-0.142
Mof_C 	C 	0.6094	0.2692	0.2531	0.051
Mof_C 	C 	0.5165	0.2043	0.2256	-0.22
Mof_C 	C 	0.4288	0.229	0.227	0.267
Mof_C 	C 	0.4311	0.318	0.2547	-0.254
Mof_C 	C 	0.5227	0.3817	0.2814	0.116
Mof_C 	C 	0.7113	0.4283	0.3191	0.354
Mof_C 	C 	0.7013	0.234	0.2431	0.309
Mof_C 	C 	0.1175	0.1417	0.3275	-0.14
Mof_C 	C 	0.0929	0.1262	0.2452	0.05
Mof_C 	C 	0.1691	0.1343	0.2024	-0.216
Mof_C 	C 	0.2693	0.1605	0.2419	0.268
Mof_C 	C 	0.2959	0.1786	0.3233	-0.259
Mof_C 	C 	0.2205	0.1676	0.3652	0.113
Mof_C 	C 	0.0396	0.1247	0.3734	0.36
Mof_C 	C 	0.9882	0.1074	0.1982	0.293
Mof_C 	C 	0.1747	0.2789	0.9818	0.1
Mof_C 	C 	0.168	0.2768	0.0556	-0.183
Mof_C 	C 	0.1174	0.3291	0.1066	0.123
Mof_C 	C 	0.0755	0.3817	0.0794	-0.184
Mof_C 	C 	0.0847	0.3818	0.0044	0.103
Mof_C 	C 	0.2053	0.4148	0.4554	0.177
Mof_C 	C 	0.1994	0.4139	0.3774	-0.308
Mof_C 	C 	0.1143	0.4094	0.3346	0.285
Mof_C 	C 	0.0334	0.4029	0.367	-0.312
Mof_C 	C 	0.0432	0.4042	0.4445	0.185
Mof_C 	C 	0.1078	0.3283	0.1878	-0.086
Mof_C 	C 	0.1123	0.4131	0.2528	-0.294
Mof_C 	C 	0.2596	0.5232	0.8623	0.153
Mof_C 	C 	0.3248	0.6076	0.8922	-0.241
Mof_C 	C 	0.3888	0.6434	0.964	0.168
Mof_C 	C 	0.3846	0.5895	0.0083	-0.223
Mof_C 	C 	0.3207	0.5054	0.9732	0.146
Mof_C 	C 	0.7272	0.9746	0.1481	0.163
Mof_C 	C 	0.6656	0.8888	0.1192	-0.243
Mof_C 	C 	0.5988	0.8531	0.048	0.168
Mof_C 	C 	0.5974	0.9079	0.0036	-0.216
Mof_C 	C 	0.6574	0.9924	0.0387	0.144
Mof_C 	C 	0.4434	0.7488	0.011	-0.163
Mof_C 	C 	0.5432	0.7484	0.0015	-0.17
Mof_C 	C 	0.8157	0.2173	0.0254	0.114
Mof_C 	C 	0.8237	0.2215	0.9528	-0.201
Mof_C 	C 	0.8718	0.1666	0.9002	0.147
Mof_C 	C 	0.911	0.1113	0.9258	-0.201
Mof_C 	C 	0.8977	0.1095	0.0001	0.112
Mof_C 	C 	0.7817	0.0667	0.5406	0.118
Mof_C 	C 	0.7802	0.0683	0.6166	-0.217
Mof_C 	C 	0.8676	0.0827	0.6698	0.181
Mof_C 	C 	0.9569	0.0989	0.645	-0.229
Mof_C 	C 	0.9546	0.097	0.5689	0.135
Mof_C 	C 	0.8803	0.1671	0.8186	-0.145
Mof_C 	C 	0.8682	0.0803	0.753	-0.202
Mof_C 	C 	0.1182	0.6429	0.3297	-0.142
Mof_C 	C 	0.1057	0.6268	0.2472	0.051
Mof_C 	C 	0.1892	0.6261	0.2103	-0.222
Mof_C 	C 	0.2828	0.6426	0.2563	0.273
Mof_C 	C 	0.2979	0.6598	0.3375	-0.268
Mof_C 	C 	0.2159	0.6586	0.3737	0.117
Mof_C 	C 	0.0324	0.6353	0.3707	0.356
Mof_C 	C 	0.0063	0.6138	0.1944	0.295
Mof_C 	C 	0.6291	0.8395	0.2998	-0.138
Mof_C 	C 	0.6267	0.7519	0.2586	0.057
Mof_C 	C 	0.5371	0.6849	0.2329	-0.222
Mof_C 	C 	0.4488	0.7056	0.2484	0.271
Mof_C 	C 	0.4488	0.7934	0.2907	-0.262
Mof_C 	C 	0.538	0.8596	0.3165	0.12
Mof_C 	C 	0.7264	0.9124	0.3315	0.342
Mof_C 	C 	0.7183	0.7223	0.2348	0.284
Mof_C 	C 	0.3864	0.6425	0.7189	-0.142
Mof_C 	C 	0.3906	0.7308	0.7469	0.051
Mof_C 	C 	0.4835	0.7957	0.7744	-0.22
Mof_C 	C 	0.5712	0.771	0.773	0.267
Mof_C 	C 	0.5689	0.682	0.7453	-0.254
Mof_C 	C 	0.4773	0.6183	0.7186	0.116
Mof_C 	C 	0.2887	0.5717	0.6809	0.354
Mof_C 	C 	0.2987	0.766	0.7569	0.309
Mof_C 	C 	0.8825	0.8583	0.6725	-0.14
Mof_C 	C 	0.9071	0.8738	0.7548	0.05
Mof_C 	C 	0.8309	0.8657	0.7976	-0.216
Mof_C 	C 	0.7307	0.8395	0.7581	0.268
Mof_C 	C 	0.7041	0.8214	0.6767	-0.259
Mof_C 	C 	0.7795	0.8324	0.6348	0.113
Mof_C 	C 	0.9604	0.8753	0.6266	0.36
Mof_C 	C 	0.0118	0.8926	0.8018	0.293
Mof_C 	C 	0.8253	0.7211	0.0182	0.1
Mof_C 	C 	0.832	0.7232	0.9444	-0.183
Mof_C 	C 	0.8826	0.6709	0.8934	0.123
Mof_C 	C 	0.9245	0.6183	0.9206	-0.184
Mof_C 	C 	0.9153	0.6182	0.9956	0.103
Mof_C 	C 	0.7947	0.5852	0.5446	0.177
Mof_C 	C 	0.8006	0.5861	0.6226	-0.308
Mof_C 	C 	0.8857	0.5906	0.6654	0.285
Mof_C 	C 	0.9666	0.5971	0.633	-0.312
Mof_C 	C 	0.9568	0.5958	0.5555	0.185
Mof_C 	C 	0.8922	0.6717	0.8122	-0.086
Mof_C 	C 	0.8877	0.5869	0.7472	-0.294
Mof_C 	C 	0.7404	0.4768	0.1377	0.153
Mof_C 	C 	0.6752	0.3924	0.1078	-0.241
Mof_C 	C 	0.6112	0.3566	0.036	0.168
Mof_C 	C 	0.6154	0.4105	0.9917	-0.223
Mof_C 	C 	0.6793	0.4946	0.0268	0.146
Mof_C 	C 	0.2728	0.0254	0.8519	0.163
Mof_C 	C 	0.3344	0.1112	0.8808	-0.243
Mof_C 	C 	0.4012	0.1469	0.952	0.168
Mof_C 	C 	0.4026	0.0921	0.9964	-0.216
Mof_C 	C 	0.3426	0.0076	0.9613	0.144
Mof_C 	C 	0.5566	0.2512	0.989	-0.163
Mof_C 	C 	0.4568	0.2516	0.9985	-0.17
Mof_C 	C 	0.1843	0.7827	0.9746	0.114
Mof_C 	C 	0.1763	0.7785	0.0472	-0.201
Mof_C 	C 	0.1282	0.8334	0.0998	0.147
Mof_C 	C 	0.089	0.8887	0.0742	-0.201
Mof_C 	C 	0.1023	0.8905	0.9999	0.112
Mof_C 	C 	0.2183	0.9333	0.4594	0.118
Mof_C 	C 	0.2198	0.9317	0.3834	-0.217
Mof_C 	C 	0.1324	0.9173	0.3302	0.181
Mof_C 	C 	0.0431	0.9011	0.355	-0.229
Mof_C 	C 	0.0454	0.903	0.4311	0.135
Mof_C 	C 	0.1197	0.8329	0.1814	-0.145
Mof_C 	C 	0.1318	0.9197	0.247	-0.202
Mof_N 	N 	0.1337	0.3322	0.956	-0.271
Mof_N 	N 	0.1286	0.4115	0.4904	-0.313
Mof_N 	N 	0.2589	0.4718	0.9016	-0.291
Mof_N 	N 	0.7211	0.0265	0.1109	-0.297
Mof_N 	N 	0.8508	0.1617	0.0494	-0.279
Mof_N 	N 	0.8695	0.0788	0.5161	-0.29
Mof_N 	N 	0.8663	0.6678	0.044	-0.271
Mof_N 	N 	0.8714	0.5885	0.5096	-0.313
Mof_N 	N 	0.7411	0.5282	0.0984	-0.291
Mof_N 	N 	0.2789	0.9735	0.8891	-0.297
Mof_N 	N 	0.1492	0.8383	0.9506	-0.279
Mof_N 	N 	0.1305	0.9212	0.4839	-0.29
Mof_O 	O 	0.0516	0.4199	0.6734	-0.46
Mof_O 	O 	0.9553	0.3213	0.5551	-0.363
Mof_O 	O 	0.0347	0.3235	0.7795	-0.448
Mof_O 	O 	0.0261	0.4526	0.871	-0.313
Mof_O 	O 	0.2787	0.0084	0.6562	-0.45
Mof_O 	O 	0.1932	0.1041	0.6553	-0.337
Mof_O 	O 	0.242	0.3178	0.7311	-0.346
Mof_O 	O 	0.2553	0.2691	0.8266	-0.43
Mof_O 	O 	0.6382	0.364	0.7842	-0.308
Mof_O 	O 	0.7108	0.509	0.341	-0.458
Mof_O 	O 	0.7909	0.4082	0.3302	-0.336
Mof_O 	O 	0.7364	0.2313	0.1819	-0.45
Mof_O 	O 	0.728	0.1986	0.2871	-0.317
Mof_O 	O 	0.954	0.0712	0.3306	-0.466
Mof_O 	O 	0.0586	0.16	0.4482	-0.359
Mof_O 	O 	0.9449	0.1692	0.2265	-0.452
Mof_O 	O 	0.9537	0.0396	0.1344	-0.313
Mof_O 	O 	0.3381	0.1628	0.1933	-0.306
Mof_O 	O 	0.9484	0.5801	0.3266	-0.46
Mof_O 	O 	0.0447	0.6787	0.4449	-0.363
Mof_O 	O 	0.9653	0.6765	0.2205	-0.448
Mof_O 	O 	0.9739	0.5474	0.129	-0.313
Mof_O 	O 	0.7213	0.9916	0.3438	-0.45
Mof_O 	O 	0.8068	0.8959	0.3447	-0.337
Mof_O 	O 	0.758	0.6822	0.2689	-0.346
Mof_O 	O 	0.7447	0.7309	0.1734	-0.43
Mof_O 	O 	0.3618	0.636	0.2158	-0.308
Mof_O 	O 	0.2892	0.491	0.659	-0.458
Mof_O 	O 	0.2091	0.5918	0.6698	-0.336
Mof_O 	O 	0.2636	0.7687	0.8181	-0.45
Mof_O 	O 	0.272	0.8014	0.7129	-0.317
Mof_O 	O 	0.046	0.9288	0.6694	-0.466
Mof_O 	O 	0.9414	0.84	0.5518	-0.359
Mof_O 	O 	0.0551	0.8308	0.7735	-0.452
Mof_O 	O 	0.0463	0.9604	0.8656	-0.313
Mof_O 	O 	0.6619	0.8372	0.8067	-0.306
_end
