data_functionalizedCrystal
_audit_creation_method	'EQeq! by Chris Wilmer'
_symmetry_space_group_name_H-M	'P1'
_symmetry_Int_Tables_number	1
_symmetry_cell_setting	triclinic
loop_
_symmetry_equiv_pos_as_xyz
  x,y,z
_cell_length_a	14.932
_cell_length_b	14.932
_cell_length_c	11.956
_cell_angle_alpha	90
_cell_angle_beta	90
_cell_angle_gamma	90
loop_
_atom_site_label
_atom_site_type_symbol
_atom_site_fract_x
_atom_site_fract_y
_atom_site_fract_z
_atom_site_charge
Mof_O 	O 	0.39986	0.21348	0.99612	-0.336
Mof_O 	O 	0.3783	0.1209	0.1434	-0.359
Mof_C 	C 	0.408	0.1403	0.0478	0.276
Mof_C 	C 	0.4545	0.0686	0.9907	0.068
Mof_C 	C 	0.4606	0.0698	0.8708	-0.112
Mof_H 	H 	0.4375	0.1184	0.8315	0.083
Mof_O 	O 	0.89986	0.71348	0.49612	-0.405
Mof_O 	O 	0.8783	0.6209	0.6434	-0.381
Mof_C 	C 	0.908	0.6403	0.5478	0.412
Mof_C 	C 	0.9545	0.5686	0.4907	-0.092
Mof_C 	C 	0.9606	0.5698	0.3708	-0.006
Mof_H 	H 	0.9375	0.6184	0.3315	0.048
Mof_O 	O 	0.10014	0.28652	0.49612	-0.41
Mof_O 	O 	0.1217	0.3791	0.6434	-0.386
Mof_C 	C 	0.092	0.3597	0.5478	0.413
Mof_C 	C 	0.0455	0.4314	0.4907	-0.107
Mof_C 	C 	0.0394	0.4302	0.3708	-0.024
Mof_H 	H 	0.0625	0.3816	0.3315	0.049
Mof_O 	O 	0.60014	0.78652	0.99612	-0.333
Mof_O 	O 	0.6217	0.8791	0.1434	-0.355
Mof_C 	C 	0.592	0.8597	0.0478	0.274
Mof_C 	C 	0.5455	0.9314	0.9907	0.075
Mof_C 	C 	0.5394	0.9302	0.8708	-0.105
Mof_H 	H 	0.5625	0.8816	0.8315	0.082
Mof_O 	O 	0.78652	0.89986	0.24612	-0.412
Mof_O 	O 	0.8791	0.8783	0.3934	-0.385
Mof_C 	C 	0.8597	0.908	0.2978	0.422
Mof_C 	C 	0.9314	0.9545	0.2407	-0.12
Mof_C 	C 	0.9302	0.9606	0.1208	0.056
Mof_H 	H 	0.8816	0.9375	0.0815	0.016
Mof_O 	O 	0.28652	0.39986	0.74612	-0.406
Mof_O 	O 	0.3791	0.3783	0.8934	-0.366
Mof_C 	C 	0.3597	0.408	0.7978	0.415
Mof_C 	C 	0.4314	0.4545	0.7407	-0.116
Mof_C 	C 	0.4302	0.4606	0.6208	-0.003
Mof_H 	H 	0.3816	0.4375	0.5815	0.043
Mof_O 	O 	0.71348	0.60014	0.74612	-0.405
Mof_O 	O 	0.6209	0.6217	0.8934	-0.366
Mof_C 	C 	0.6403	0.592	0.7978	0.415
Mof_C 	C 	0.5686	0.5455	0.7407	-0.116
Mof_C 	C 	0.5698	0.5394	0.6208	-0.002
Mof_H 	H 	0.6184	0.5625	0.5815	0.044
Mof_O 	O 	0.21348	0.10014	0.24612	-0.415
Mof_O 	O 	0.1209	0.1217	0.3934	-0.393
Mof_C 	C 	0.1403	0.092	0.2978	0.424
Mof_C 	C 	0.0686	0.0455	0.2407	-0.139
Mof_C 	C 	0.0698	0.0394	0.1208	0.033
Mof_H 	H 	0.1184	0.0625	0.0815	0.019
Mof_O 	O 	0.10014	0.21348	0.75388	-0.406
Mof_O 	O 	0.1217	0.1209	0.6066	-0.388
Mof_C 	C 	0.092	0.1403	0.7022	0.41
Mof_C 	C 	0.0455	0.0686	0.7593	-0.098
Mof_C 	C 	0.0394	0.0698	0.8792	-0.031
Mof_H 	H 	0.0625	0.1184	0.9185	0.063
Mof_O 	O 	0.60014	0.71348	0.25388	-0.41
Mof_O 	O 	0.6217	0.6209	0.1066	-0.391
Mof_C 	C 	0.592	0.6403	0.2022	0.419
Mof_C 	C 	0.5455	0.5686	0.2593	-0.128
Mof_C 	C 	0.5394	0.5698	0.3792	0.004
Mof_H 	H 	0.5625	0.6184	0.4185	0.041
Mof_O 	O 	0.39986	0.28652	0.25388	-0.41
Mof_O 	O 	0.3783	0.3791	0.1066	-0.392
Mof_C 	C 	0.408	0.3597	0.2022	0.419
Mof_C 	C 	0.4545	0.4314	0.2593	-0.128
Mof_C 	C 	0.4606	0.4302	0.3792	0.004
Mof_H 	H 	0.4375	0.3816	0.4185	0.041
Mof_O 	O 	0.89986	0.78652	0.75388	-0.401
Mof_O 	O 	0.8783	0.8791	0.6066	-0.38
Mof_C 	C 	0.908	0.8597	0.7022	0.408
Mof_C 	C 	0.9545	0.9314	0.7593	-0.078
Mof_C 	C 	0.9606	0.9302	0.8792	-0.005
Mof_H 	H 	0.9375	0.8816	0.9185	0.06
Mof_O 	O 	0.71348	0.89986	0.50388	-0.409
Mof_O 	O 	0.6209	0.8783	0.3566	-0.391
Mof_C 	C 	0.6403	0.908	0.4522	0.425
Mof_C 	C 	0.5686	0.9545	0.5093	-0.131
Mof_C 	C 	0.5698	0.9606	0.6292	0.035
Mof_H 	H 	0.6184	0.9375	0.6685	0.032
Mof_O 	O 	0.21348	0.39986	0.00388	-0.463
Mof_O 	O 	0.1209	0.3783	0.8566	-0.417
Mof_C 	C 	0.1403	0.408	0.9522	0.552
Mof_C 	C 	0.0686	0.4545	0.0093	-0.303
Mof_C 	C 	0.0698	0.4606	0.1292	0.111
Mof_H 	H 	0.1184	0.4375	0.1685	0.002
Mof_O 	O 	0.78652	0.60014	0.00388	-0.463
Mof_O 	O 	0.8791	0.6217	0.8566	-0.412
Mof_C 	C 	0.8597	0.592	0.9522	0.554
Mof_C 	C 	0.9314	0.5455	0.0093	-0.293
Mof_C 	C 	0.9302	0.5394	0.1292	0.129
Mof_H 	H 	0.8816	0.5625	0.1685	-0.001
Mof_O 	O 	0.28652	0.10014	0.50388	-0.412
Mof_O 	O 	0.3791	0.1217	0.3566	-0.393
Mof_C 	C 	0.3597	0.092	0.4522	0.425
Mof_C 	C 	0.4314	0.0455	0.5093	-0.137
Mof_C 	C 	0.4302	0.0394	0.6292	0.027
Mof_H 	H 	0.3816	0.0625	0.6685	0.032
Mof_Fe	Fe	0.30728	0.30728	-0	1.116
Mof_Fe	Fe	0.80728	0.80728	0.5	1.175
Mof_Fe	Fe	0.19272	0.19272	0.5	1.175
Mof_Fe	Fe	0.69272	0.80728	0.25	1.167
Mof_Fe	Fe	0.80728	0.69272	0.75	1.182
Mof_Fe	Fe	0.19272	0.30728	0.75	1.181
Mof_Fe	Fe	0.30728	0.19272	0.25	1.166
Mof_Fe	Fe	0.69272	0.69272	-0	1.115
Mof_O 	O 	0.2468	0.25	0.125	-0.691
Mof_H 	H 	0.1916	0.25	0.125	0.323
Mof_O 	O 	0.7468	0.75	0.625	-0.699
Mof_H 	H 	0.6916	0.75	0.625	0.33
Mof_O 	O 	0.2532	0.25	0.625	-0.699
Mof_H 	H 	0.3084	0.25	0.625	0.33
Mof_O 	O 	0.7532	0.75	0.125	-0.691
Mof_H 	H 	0.8084	0.75	0.125	0.325
Mof_O 	O 	0.75	0.7468	0.375	-0.697
Mof_H 	H 	0.75	0.6916	0.375	0.331
Mof_O 	O 	0.25	0.2468	0.875	-0.68
Mof_H 	H 	0.25	0.1916	0.875	0.33
Mof_O 	O 	0.75	0.7532	0.875	-0.679
Mof_H 	H 	0.75	0.8084	0.875	0.331
Mof_O 	O 	0.25	0.2532	0.375	-0.697
Mof_H 	H 	0.25	0.3084	0.375	0.33
Mof_C 	C 	0.5	2.95923e-34	0.0467	-0.169
Mof_H 	H 	0.5	0	0.1245	0.121
Mof_C 	C 	0.5	0	0.8128	0.081
Mof_C 	C 	6.37603e-33	0.5	0.5467	0.033
Mof_H 	H 	6.6096e-33	0.5	0.6245	0.057
Mof_C 	C 	3.30645e-33	0.5	0.3128	0.019
Mof_C 	C 	3.25812e-33	2.36738e-33	0.2967	0.053
Mof_H 	H 	5.85906e-33	4.73477e-33	0.3745	0.045
Mof_C 	C 	7.8038e-34	5.91846e-34	0.0628	-0.09
Mof_C 	C 	0.5	0.5	0.7967	0.065
Mof_H 	H 	0.5	0.5	0.8745	0.057
Mof_C 	C 	0.5	0.5	0.5628	-0.001
Mof_C 	C 	2.1114e-33	4.73477e-33	0.7033	0.019
Mof_H 	H 	6.6126e-33	4.73477e-33	0.6255	0.057
Mof_C 	C 	2.8136e-33	9.46953e-33	0.9372	0.038
Mof_C 	C 	0.5	0.5	0.2033	0.074
Mof_H 	H 	0.5	0.5	0.1255	0.038
Mof_C 	C 	0.5	0.5	0.4372	-0.008
Mof_C 	C 	0.5	0	0.4533	0.075
Mof_H 	H 	0.5	0	0.3755	0.04
Mof_C 	C 	0.5	0	0.6872	-0.053
Mof_C 	C 	2.86193e-33	0.5	0.9533	0.271
Mof_H 	H 	2.62837e-33	0.5	0.8755	-0.021
Mof_C 	C 	5.29677e-33	0.5	0.1872	-0.109
_end
