data_functionalizedCrystal
_audit_creation_method	'EQeq! by Chris Wilmer'
_symmetry_space_group_name_H-M	'P1'
_symmetry_Int_Tables_number	1
_symmetry_cell_setting	triclinic
loop_
_symmetry_equiv_pos_as_xyz
  x,y,z
_cell_length_a	10.792
_cell_length_b	13.889
_cell_length_c	19.739
_cell_angle_alpha	90
_cell_angle_beta	100.91
_cell_angle_gamma	90
loop_
_atom_site_label
_atom_site_type_symbol
_atom_site_fract_x
_atom_site_fract_y
_atom_site_fract_z
_atom_site_charge
Mof_Ho	Ho	0.15432	0.56839	0.05714	1.706
Mof_Ho	Ho	0.84568	0.43161	0.94285	1.706
Mof_Ho	Ho	0.15432	0.93161	0.55714	1.711
Mof_Ho	Ho	0.84568	0.06839	0.44285	1.711
Mof_Cu	Cu	0.75762	0.56994	0.28501	0.893
Mof_Cu	Cu	0.75762	0.93006	0.78501	0.892
Mof_Cu	Cu	0.24238	0.06994	0.21499	0.892
Mof_Cu	Cu	0.24238	0.43006	0.71499	0.894
Mof_H 	H 	0.2179	0.2472	0.9536	0.434
Mof_H 	H 	0.7821	0.7528	0.0464	0.434
Mof_H 	H 	0.1042	0.7374	0.7128	0.071
Mof_H 	H 	0.7821	0.7472	0.5464	0.435
Mof_H 	H 	0.8958	0.2626	0.2872	0.071
Mof_H 	H 	0.7862	0.7376	0.8368	0.006
Mof_H 	H 	0.2335	0.8871	0.1401	0.011
Mof_H 	H 	0.7329	0.6529	0.0673	0.427
Mof_H 	H 	0.5	0.999	0.28	0.017
Mof_H 	H 	0.7862	0.7624	0.3368	0.006
Mof_H 	H 	0.2711	0.1772	0.5107	0.415
Mof_H 	H 	0.2335	0.6129	0.6401	0.011
Mof_H 	H 	0.2138	0.2376	0.6632	0.006
Mof_H 	H 	0.2711	0.3228	0.0107	0.411
Mof_H 	H 	0.7665	0.1129	0.8599	0.011
Mof_H 	H 	0.7665	0.3871	0.3599	0.011
Mof_H 	H 	0.2138	0.2624	0.1632	0.006
Mof_H 	H 	0.5	0.499	0.22	0.016
Mof_H 	H 	0.9735	0.6298	0.2137	0.034
Mof_H 	H 	0.5	0.501	0.78	0.016
Mof_H 	H 	0.7329	0.8471	0.5673	0.429
Mof_H 	H 	0.9735	0.8702	0.7137	0.034
Mof_H 	H 	0.7289	0.6772	0.9893	0.411
Mof_H 	H 	0.0265	0.3702	0.7863	0.034
Mof_H 	H 	0.0265	0.1298	0.2863	0.034
Mof_H 	H 	0.1042	0.7626	0.2128	0.072
Mof_H 	H 	0.3858	0.3589	0.2127	0.076
Mof_H 	H 	0.2671	0.3471	0.9327	0.427
Mof_H 	H 	0.5	0.001	0.72	0.017
Mof_H 	H 	0.2179	0.2528	0.4536	0.435
Mof_H 	H 	0.3858	0.1411	0.7127	0.076
Mof_H 	H 	0.6142	0.6411	0.7873	0.076
Mof_H 	H 	0.6142	0.8589	0.2873	0.076
Mof_H 	H 	0.7289	0.8228	0.4893	0.415
Mof_H 	H 	0.8958	0.2374	0.7872	0.072
Mof_H 	H 	0.2671	0.1529	0.4327	0.429
Mof_C 	C 	0.9612	0.2353	0.7626	-0.069
Mof_C 	C 	0.1514	0.2632	0.19	0.052
Mof_C 	C 	0.6904	0.3803	0.3291	0.054
Mof_C 	C 	0.4672	0.9468	0.2529	0.058
Mof_C 	C 	0.4904	0.7826	0.2181	-0.014
Mof_C 	C 	0.9032	0.8555	0.5404	0.763
Mof_C 	C 	0.0172	0.6522	0.773	-0.015
Mof_C 	C 	0.8901	0.0691	0.7259	0.325
Mof_C 	C 	0.5364	0.8623	0.2576	-0.083
Mof_C 	C 	0.4636	0.3623	0.2424	-0.083
Mof_C 	C 	0.3096	0.6197	0.6709	0.054
Mof_C 	C 	0.1193	0.0675	0.6521	0.314
Mof_C 	C 	0.6904	0.1197	0.8291	0.054
Mof_C 	C 	0.1099	0.9309	0.2741	0.325
Mof_C 	C 	0.0388	0.7353	0.7374	-0.064
Mof_C 	C 	0.9032	0.6445	0.0404	0.765
Mof_C 	C 	0.5096	0.2826	0.2819	-0.014
Mof_C 	C 	0.0968	0.3555	0.9596	0.765
Mof_C 	C 	0.0392	0.1841	0.261	0.041
Mof_C 	C 	0.5096	0.2174	0.7819	-0.014
Mof_C 	C 	0.4325	0.3066	0.7817	0.31
Mof_C 	C 	0.1099	0.5691	0.7741	0.326
Mof_C 	C 	0.0388	0.7647	0.2374	-0.069
Mof_C 	C 	0.0392	0.3159	0.761	0.045
Mof_C 	C 	0.4672	0.5532	0.7529	0.058
Mof_C 	C 	0.9608	0.8159	0.739	0.041
Mof_C 	C 	0.6935	0.2876	0.8691	0.311
Mof_C 	C 	0.9164	0.8483	0.3077	-0.086
Mof_C 	C 	0.5364	0.6377	0.7576	-0.083
Mof_C 	C 	0.1193	0.4325	0.1521	0.315
Mof_C 	C 	0.5328	0.0532	0.7471	0.058
Mof_C 	C 	0.6277	0.2075	0.8259	-0.074
Mof_C 	C 	0.0836	0.3483	0.1923	-0.088
Mof_C 	C 	0.5675	0.6934	0.2183	0.31
Mof_C 	C 	0.7756	0.6854	0.0354	-1.337
Mof_C 	C 	0.0836	0.1517	0.6923	-0.086
Mof_C 	C 	0.8807	0.9325	0.3479	0.314
Mof_C 	C 	0.8807	0.5675	0.8479	0.315
Mof_C 	C 	0.3723	0.7925	0.1741	-0.074
Mof_C 	C 	0.3096	0.8803	0.1709	0.054
Mof_C 	C 	0.9828	0.3478	0.227	-0.015
Mof_C 	C 	0.9608	0.6841	0.239	0.045
Mof_C 	C 	0.3065	0.7124	0.1309	0.311
Mof_C 	C 	0.6935	0.2124	0.3691	0.311
Mof_C 	C 	0.7756	0.8146	0.5354	-1.344
Mof_C 	C 	0.5328	0.4468	0.2471	0.058
Mof_C 	C 	0.6277	0.2925	0.3259	-0.074
Mof_C 	C 	0.2244	0.1854	0.4646	-1.344
Mof_C 	C 	0.2244	0.3146	0.9646	-1.337
Mof_C 	C 	0.4636	0.1377	0.7424	-0.083
Mof_C 	C 	0.0172	0.8478	0.273	-0.016
Mof_C 	C 	0.9612	0.2647	0.2626	-0.064
Mof_C 	C 	0.1514	0.2368	0.69	0.051
Mof_C 	C 	0.9828	0.1522	0.727	-0.016
Mof_C 	C 	0.0968	0.1445	0.4596	0.763
Mof_C 	C 	0.5675	0.8066	0.7183	0.31
Mof_C 	C 	0.3065	0.7876	0.6309	0.311
Mof_C 	C 	0.8486	0.7368	0.81	0.052
Mof_C 	C 	0.3723	0.7075	0.6741	-0.074
Mof_C 	C 	0.8901	0.4309	0.2259	0.326
Mof_C 	C 	0.8486	0.7632	0.31	0.051
Mof_C 	C 	0.4325	0.1934	0.2817	0.31
Mof_C 	C 	0.9164	0.6517	0.8077	-0.088
Mof_C 	C 	0.4904	0.7174	0.7181	-0.014
Mof_N 	N 	0.8678	0.683	0.2762	-0.216
Mof_N 	N 	0.6451	0.4562	0.2892	-0.213
Mof_N 	N 	0.3549	0.5438	0.7108	-0.213
Mof_N 	N 	0.8678	0.817	0.7762	-0.216
Mof_N 	N 	0.6451	0.0438	0.7892	-0.213
Mof_N 	N 	0.1322	0.317	0.7238	-0.216
Mof_N 	N 	0.3549	0.9562	0.2108	-0.213
Mof_N 	N 	0.1322	0.183	0.2238	-0.216
Mof_O 	O 	0.9422	0.4909	0.849	-0.387
Mof_O 	O 	0.2855	0.8663	0.6611	-0.384
Mof_O 	O 	0.9008	0.4798	0.2808	-0.382
Mof_O 	O 	0.7879	0.5764	0.877	-0.433
Mof_O 	O 	0.0801	0.4391	0.9821	-0.687
Mof_O 	O 	0.0578	0.9909	0.651	-0.385
Mof_O 	O 	0.6131	0.8405	0.7792	-0.383
Mof_O 	O 	0.2649	0.7744	0.5684	-0.409
Mof_O 	O 	0.0007	0.6912	0.0698	-0.526
Mof_O 	O 	0.4157	0.16	0.3363	-0.315
Mof_O 	O 	0.8077	0.4409	0.1746	-0.31
Mof_O 	O 	0.4157	0.34	0.8363	-0.314
Mof_O 	O 	0.7145	0.1337	0.3389	-0.384
Mof_O 	O 	0.9422	0.0091	0.349	-0.385
Mof_O 	O 	0.6131	0.6595	0.2792	-0.382
Mof_O 	O 	0.8077	0.0591	0.6746	-0.31
Mof_O 	O 	0.9199	0.5609	0.0179	-0.687
Mof_O 	O 	0.0801	0.0609	0.4821	-0.69
Mof_O 	O 	0.7351	0.2256	0.4316	-0.409
Mof_O 	O 	0.7351	0.2744	0.9316	-0.408
Mof_O 	O 	0.2121	0.0764	0.623	-0.433
Mof_O 	O 	0.9993	0.3088	0.9302	-0.526
Mof_O 	O 	0.0007	0.8088	0.5698	-0.524
Mof_O 	O 	0.2649	0.7256	0.0684	-0.408
Mof_O 	O 	0.0992	0.9798	0.2192	-0.381
Mof_O 	O 	0.9199	0.9391	0.5179	-0.69
Mof_O 	O 	0.0992	0.5202	0.7192	-0.383
Mof_O 	O 	0.1923	0.5591	0.8254	-0.31
Mof_O 	O 	0.9008	0.0202	0.7808	-0.381
Mof_O 	O 	0.0578	0.5091	0.151	-0.387
Mof_O 	O 	0.1923	0.9409	0.3254	-0.31
Mof_O 	O 	0.7145	0.3663	0.8389	-0.384
Mof_O 	O 	0.5843	0.84	0.6637	-0.315
Mof_O 	O 	0.7879	0.9236	0.377	-0.433
Mof_O 	O 	0.3869	0.1595	0.2208	-0.383
Mof_O 	O 	0.3869	0.3405	0.7208	-0.382
Mof_O 	O 	0.9993	0.1912	0.4302	-0.524
Mof_O 	O 	0.2855	0.6337	0.1611	-0.384
Mof_O 	O 	0.5843	0.66	0.1637	-0.314
Mof_O 	O 	0.2121	0.4236	0.123	-0.433
_end
