data_functionalizedCrystal
_audit_creation_method	'EQeq! by Chris Wilmer'
_symmetry_space_group_name_H-M	'P1'
_symmetry_Int_Tables_number	1
_symmetry_cell_setting	triclinic
loop_
_symmetry_equiv_pos_as_xyz
  x,y,z
_cell_length_a	21.757
_cell_length_b	21.757
_cell_length_c	35.299
_cell_angle_alpha	90
_cell_angle_beta	90
_cell_angle_gamma	90
loop_
_atom_site_label
_atom_site_type_symbol
_atom_site_fract_x
_atom_site_fract_y
_atom_site_fract_z
_atom_site_charge
Mof_Fe	Fe	0.99761	0.65686	0.2361	0.977
Mof_Fe	Fe	0.00546	0.80623	0.22588	0.971
Mof_Fe	Fe	0.00024	0.71656	0.14968	0.952
Mof_Fe	Fe	0.99454	0.19377	0.72588	0.97
Mof_Fe	Fe	0.99976	0.28344	0.64968	0.952
Mof_Fe	Fe	0.49454	0.30623	0.02412	0.971
Mof_Fe	Fe	0.49761	0.84314	0.5139	0.975
Mof_Fe	Fe	0.49976	0.21656	0.10032	0.951
Mof_Fe	Fe	0.50024	0.78344	0.60032	0.951
Mof_Fe	Fe	0.50239	0.15686	0.0139	0.975
Mof_Fe	Fe	0.00239	0.34314	0.7361	0.976
Mof_Fe	Fe	0.50546	0.69377	0.52412	0.97
Mof_H 	H 	0.819	0.1818	0.7818	0.037
Mof_H 	H 	0.8046	0.501	0.5945	0.077
Mof_H 	H 	0.8672	0.8387	0.0949	0.031
Mof_H 	H 	0.2782	0.3904	0.1823	0.069
Mof_H 	H 	0.3199	0.6491	0.3802	0.067
Mof_H 	H 	0.6167	0.9321	0.6398	0.028
Mof_H 	H 	0.657	0.1161	0.1382	0.021
Mof_H 	H 	0.3018	0.4963	0.089	0.079
Mof_H 	H 	0.2218	0.8904	0.0677	0.069
Mof_H 	H 	0.2636	0.8184	0.3242	0.076
Mof_H 	H 	0.7901	0.9056	0.074	0.062
Mof_H 	H 	0.7615	0.9614	0.1822	0.061
Mof_H 	H 	0.6246	0.013	0.0447	0.021
Mof_H 	H 	0.6519	0.1596	0.9383	0.029
Mof_H 	H 	0.8386	0.8944	0.203	0.036
Mof_H 	H 	0.6801	0.3509	0.8802	0.067
Mof_H 	H 	0.1982	0.9963	0.161	0.08
Mof_H 	H 	0.7683	0.5457	0.0921	0.07
Mof_H 	H 	0.7099	0.4056	0.176	0.062
Mof_H 	H 	0.157	0.3839	0.6118	0.022
Mof_H 	H 	0.319	0.3182	0.9682	0.037
Mof_H 	H 	0.7145	0.8511	0.3891	0.068
Mof_H 	H 	0.8886	0.841	0.3192	0.025
Mof_H 	H 	0.7317	0.0457	0.1579	0.07
Mof_H 	H 	0.1519	0.3404	0.8117	0.029
Mof_H 	H 	0.2099	0.0944	0.574	0.062
Mof_H 	H 	0.1614	0.1056	0.703	0.036
Mof_H 	H 	0.7385	0.4614	0.0678	0.061
Mof_H 	H 	0.3886	0.659	0.4308	0.025
Mof_H 	H 	0.1246	0.487	0.7053	0.021
Mof_H 	H 	0.8007	0.4425	0.1856	0.07
Mof_H 	H 	0.7636	0.6816	0.4258	0.076
Mof_H 	H 	0.3481	0.8404	0.4383	0.029
Mof_H 	H 	0.667	0.9409	0.5294	0.032
Mof_H 	H 	0.1328	0.1613	0.5949	0.031
Mof_H 	H 	0.333	0.0591	0.0294	0.032
Mof_H 	H 	0.1993	0.5575	0.6856	0.07
Mof_H 	H 	0.3046	0.999	0.1555	0.075
Mof_H 	H 	0.1167	0.5679	0.1102	0.027
Mof_H 	H 	0.843	0.6161	0.1118	0.022
Mof_H 	H 	0.833	0.4409	0.7206	0.031
Mof_H 	H 	0.2364	0.3184	0.9258	0.076
Mof_H 	H 	0.7794	0.6694	0.3623	0.081
Mof_H 	H 	0.3681	0.1486	0.9316	0.025
Mof_H 	H 	0.8681	0.3514	0.8184	0.025
Mof_H 	H 	0.644	0.6757	0.6613	0.023
Mof_H 	H 	0.1319	0.6486	0.3184	0.025
Mof_H 	H 	0.8796	0.0698	0.682	0.025
Mof_H 	H 	0.2901	0.5944	0.676	0.062
Mof_H 	H 	0.6954	0.001	0.6555	0.075
Mof_H 	H 	0.356	0.3243	0.1613	0.023
Mof_H 	H 	0.1801	0.1491	0.8698	0.068
Mof_H 	H 	0.167	0.5591	0.2206	0.031
Mof_H 	H 	0.2456	0.4902	0.2049	0.066
Mof_H 	H 	0.181	0.8182	0.2818	0.037
Mof_H 	H 	0.6614	0.3944	0.047	0.036
Mof_H 	H 	0.2855	0.1489	0.8891	0.068
Mof_H 	H 	0.3796	0.4302	0.068	0.025
Mof_H 	H 	0.8481	0.6596	0.3117	0.029
Mof_H 	H 	0.3386	0.6056	0.547	0.036
Mof_H 	H 	0.6982	0.5037	0.589	0.079
Mof_H 	H 	0.7364	0.1816	0.8242	0.076
Mof_H 	H 	0.2683	0.9543	0.6579	0.07
Mof_H 	H 	0.7456	0.0098	0.5451	0.065
Mof_H 	H 	0.7782	0.1096	0.5677	0.069
Mof_H 	H 	0.6114	0.341	0.9308	0.025
Mof_H 	H 	0.3672	0.6613	0.6551	0.031
Mof_H 	H 	0.8018	0.0037	0.661	0.08
Mof_H 	H 	0.1114	0.159	0.8192	0.025
Mof_H 	H 	0.3833	0.0679	0.1398	0.028
Mof_H 	H 	0.2544	0.9902	0.0451	0.065
Mof_H 	H 	0.6319	0.8514	0.4316	0.025
Mof_H 	H 	0.7206	0.1694	0.8877	0.081
Mof_H 	H 	0.856	0.1757	0.5887	0.023
Mof_H 	H 	0.7855	0.3511	0.8609	0.068
Mof_H 	H 	0.7544	0.5098	0.7049	0.066
Mof_H 	H 	0.2794	0.8306	0.3877	0.081
Mof_H 	H 	0.2385	0.0386	0.6822	0.061
Mof_H 	H 	0.343	0.8839	0.6382	0.021
Mof_H 	H 	0.7218	0.6096	0.6823	0.069
Mof_H 	H 	0.8833	0.4321	0.6102	0.027
Mof_H 	H 	0.2615	0.5386	0.5678	0.061
Mof_H 	H 	0.144	0.8243	0.0887	0.023
Mof_H 	H 	0.2145	0.6489	0.3609	0.068
Mof_H 	H 	0.6328	0.3387	0.1551	0.031
Mof_H 	H 	0.681	0.6818	0.4682	0.037
Mof_H 	H 	0.1204	0.9302	0.182	0.025
Mof_H 	H 	0.2206	0.3306	0.8623	0.081
Mof_H 	H 	0.6204	0.5698	0.568	0.025
Mof_H 	H 	0.6993	0.9425	0.0644	0.07
Mof_H 	H 	0.3007	0.0575	0.5644	0.07
Mof_H 	H 	0.8754	0.513	0.2053	0.021
Mof_H 	H 	0.2317	0.4543	0.5921	0.07
Mof_H 	H 	0.1954	0.499	0.0945	0.077
Mof_H 	H 	0.8199	0.8509	0.3698	0.068
Mof_H 	H 	0.3754	0.987	0.5447	0.021
Mof_C 	C 	0.2012	0.8985	0.09092	-0.111
Mof_C 	C 	0.1878	0.78382	0.29781	0.052
Mof_C 	C 	0.2932	0.7389	0.37919	0.048
Mof_C 	C 	0.1487	0.7334	0.29609	-0.141
Mof_C 	C 	0.2806	0.006	0.06431	-0.1
Mof_C 	C 	0.2468	0.7337	0.34653	0.046
Mof_C 	C 	0.283	0.5635	0.58555	-0.093
Mof_C 	C 	0.8751	0.1289	0.63733	-0.132
Mof_C 	C 	0.71	0.039	0.13488	-0.121
Mof_C 	C 	0.71732	0.5505	0.63759	0.049
Mof_C 	C 	0.7068	0.2611	0.87919	0.048
Mof_C 	C 	0.28268	0.4495	0.13759	0.049
Mof_C 	C 	0.783	0.9365	0.16445	-0.093
Mof_C 	C 	0.3601	0.6398	0.59907	-0.112
Mof_C 	C 	0.8655	0.4301	0.66685	-0.122
Mof_C 	C 	0.9064	0.264	0.7737	0.385
Mof_C 	C 	0.4142	0.886	0.5769	0.44
Mof_C 	C 	0.141	0.9221	0.15882	0.055
Mof_C 	C 	0.6907	0.9778	0.07933	-0.12
Mof_C 	C 	0.9193	0.7388	0.2789	0.392
Mof_C 	C 	0.7632	0.21604	0.82303	-0.106
Mof_C 	C 	0.1429	0.5521	0.1294	0.046
Mof_C 	C 	0.5936	0.764	0.4763	0.385
Mof_C 	C 	0.8104	0.4888	0.62009	-0.107
Mof_C 	C 	0.8344	0.5809	0.12682	0.067
Mof_C 	C 	0.0869	0.1753	0.6666	0.376
Mof_C 	C 	0.2077	0.68323	0.3448	-0.109
Mof_C 	C 	0.6336	0.30619	0.92207	0.049
Mof_C 	C 	0.1249	0.8711	0.13733	-0.132
Mof_C 	C 	0.78268	0.0505	0.61241	0.05
Mof_C 	C 	0.845	0.14076	0.60338	0.051
Mof_C 	C 	0.155	0.85924	0.10338	0.051
Mof_C 	C 	0.0936	0.736	0.2737	0.385
Mof_C 	C 	0.1345	0.5699	0.16685	-0.122
Mof_C 	C 	0.3104	0.0112	0.12991	-0.103
Mof_C 	C 	0.1252	0.2506	0.81067	-0.129
Mof_C 	C 	0.6586	0.81692	0.43042	0.054
Mof_C 	C 	0.8664	0.80619	0.32793	0.049
Mof_C 	C 	0.6985	0.20426	0.89645	-0.111
Mof_C 	C 	0.1896	0.5112	0.12009	-0.107
Mof_C 	C 	0.7988	0.1015	0.59092	-0.111
Mof_C 	C 	0.8122	0.21618	0.79781	0.052
Mof_C 	C 	0.1463	0.4804	0.68236	0.066
Mof_C 	C 	0.6463	0.0196	0.06764	0.066
Mof_C 	C 	0.4193	0.7612	0.4711	0.392
Mof_C 	C 	0.8424	0.69842	0.32348	0.048
Mof_C 	C 	0.6878	0.71618	0.45219	0.052
Mof_C 	C 	0.8537	0.5196	0.18236	0.066
Mof_C 	C 	0.655	0.64076	0.64662	0.051
Mof_C 	C 	0.717	0.4365	0.08555	-0.093
Mof_C 	C 	0.4064	0.236	0.9763	0.385
Mof_C 	C 	0.2	0.0967	0.60022	-0.096
Mof_C 	C 	0.2686	0.5602	0.62386	0.033
Mof_C 	C 	0.8093	0.4778	0.17067	-0.12
Mof_C 	C 	0.1336	0.19381	0.82793	0.049
Mof_C 	C 	0.8	0.9033	0.10022	-0.096
Mof_C 	C 	0.3122	0.28382	0.95219	0.052
Mof_C 	C 	0.7077	0.81677	0.4052	-0.109
Mof_C 	C 	0.6399	0.3602	0.09907	-0.112
Mof_C 	C 	0.3273	0.0469	0.055	0.039
Mof_C 	C 	0.6713	0.3967	0.07315	0.03
Mof_C 	C 	0.345	0.35924	0.14662	0.051
Mof_C 	C 	0.8414	0.31692	0.81958	0.054
Mof_C 	C 	0.359	0.4221	0.09118	0.054
Mof_C 	C 	0.3015	0.79574	0.39645	-0.111
Mof_C 	C 	0.2368	0.78396	0.32303	-0.106
Mof_C 	C 	0.7468	0.7663	0.40347	0.046
Mof_C 	C 	0.6249	0.6289	0.61267	-0.132
Mof_C 	C 	0.7686	0.9398	0.12614	0.033
Mof_C 	C 	0.2774	0.0125	0.61295	0.057
Mof_C 	C 	0.2314	0.0602	0.62614	0.033
Mof_C 	C 	0.641	0.5779	0.59118	0.054
Mof_C 	C 	0.2632	0.28396	0.92697	-0.106
Mof_C 	C 	0.5869	0.3247	0.0834	0.376
Mof_C 	C 	0.859	0.0779	0.65882	0.055
Mof_C 	C 	0.4131	0.6753	0.5834	0.376
Mof_C 	C 	0.22788	0.4882	0.14824	0.044
Mof_C 	C 	0.0852	0.6145	0.1768	0.37
Mof_C 	C 	0.77212	0.5118	0.64824	0.044
Mof_C 	C 	0.7923	0.31677	0.8448	-0.109
Mof_C 	C 	0.7314	0.4398	0.12386	0.033
Mof_C 	C 	0.3093	0.0222	0.57933	-0.12
Mof_C 	C 	0.6896	0.9888	0.62991	-0.103
Mof_C 	C 	0.6345	0.9301	0.58315	-0.12
Mof_C 	C 	0.3751	0.3711	0.11267	-0.132
Mof_C 	C 	0.1576	0.30158	0.82348	0.048
Mof_C 	C 	0.1985	0.29574	0.85355	-0.111
Mof_C 	C 	0.5852	0.8855	0.5732	0.369
Mof_C 	C 	0.7226	0.9875	0.11295	0.057
Mof_C 	C 	0.7932	0.7611	0.37081	0.048
Mof_C 	C 	0.1907	0.5222	0.67067	-0.12
Mof_C 	C 	0.8748	0.7494	0.31067	-0.129
Mof_C 	C 	0.6252	0.2494	0.93933	-0.129
Mof_C 	C 	0.2923	0.18323	0.9052	-0.109
Mof_C 	C 	0.6727	0.9531	0.555	0.039
Mof_C 	C 	0.6872	0.53863	0.60364	-0.112
Mof_C 	C 	0.8256	0.81203	0.358	-0.109
Mof_C 	C 	0.8128	0.03863	0.64636	-0.113
Mof_C 	C 	0.3457	0.6364	0.63738	0.037
Mof_C 	C 	0.2532	0.2337	0.90347	0.046
Mof_C 	C 	0.2194	0.506	0.18569	-0.104
Mof_C 	C 	0.1656	0.4191	0.62682	0.067
Mof_C 	C 	0.8015	0.70426	0.35355	-0.111
Mof_C 	C 	0.1872	0.96137	0.14636	-0.113
Mof_C 	C 	0.6744	0.31203	0.892	-0.109
Mof_C 	C 	0.8273	0.4531	0.695	0.042
Mof_C 	C 	0.1727	0.5469	0.195	0.042
Mof_C 	C 	0.2226	0.5125	0.63705	0.056
Mof_C 	C 	0.5806	0.6729	0.5953	0.38
Mof_C 	C 	0.1543	0.1364	0.61262	0.037
Mof_C 	C 	0.8662	0.5712	0.16044	-0.159
Mof_C 	C 	0.3344	0.9191	0.62318	0.067
Mof_C 	C 	0.3424	0.80158	0.42652	0.048
Mof_C 	C 	0.5858	0.114	0.0769	0.44
Mof_C 	C 	0.5807	0.2388	0.9711	0.392
Mof_C 	C 	0.7368	0.71604	0.42697	-0.106
Mof_C 	C 	0.72788	0.0118	0.60176	0.04
Mof_C 	C 	0.6656	0.0809	0.12318	0.067
Mof_C 	C 	0.3571	0.0521	0.1206	0.043
Mof_C 	C 	0.3256	0.68797	0.392	-0.109
Mof_C 	C 	0.0807	0.2612	0.7789	0.392
Mof_C 	C 	0.0806	0.8271	0.1547	0.381
Mof_C 	C 	0.6338	0.0712	0.08956	-0.159
Mof_C 	C 	0.6543	0.3636	0.13738	0.037
Mof_C 	C 	0.3748	0.7506	0.43933	-0.129
Mof_C 	C 	0.6576	0.19842	0.92652	0.048
Mof_C 	C 	0.3513	0.2334	0.95391	-0.141
Mof_C 	C 	0.7532	0.2663	0.84653	0.046
Mof_C 	C 	0.29	0.961	0.63488	-0.121
Mof_C 	C 	0.21	0.461	0.61512	-0.12
Mof_C 	C 	0.6487	0.7666	0.45391	-0.141
Mof_C 	C 	0.1338	0.4288	0.66044	-0.159
Mof_C 	C 	0.3414	0.18308	0.93042	0.054
Mof_C 	C 	0.9148	0.3855	0.6768	0.37
Mof_C 	C 	0.7774	0.4875	0.13705	0.056
Mof_C 	C 	0.8571	0.4479	0.6294	0.046
Mof_C 	C 	0.2988	0.3985	0.15908	-0.109
Mof_C 	C 	0.79	0.539	0.11512	-0.12
Mof_C 	C 	0.7012	0.6015	0.65908	-0.109
Mof_C 	C 	0.8457	0.8636	0.11262	0.037
Mof_C 	C 	0.9194	0.1729	0.6547	0.381
Mof_C 	C 	0.3128	0.46137	0.10364	-0.112
Mof_C 	C 	0.1586	0.68308	0.31958	0.054
Mof_C 	C 	0.2068	0.2389	0.87081	0.048
Mof_C 	C 	0.9131	0.8247	0.1666	0.376
Mof_C 	C 	0.1744	0.18797	0.858	-0.109
Mof_C 	C 	0.3537	0.9804	0.56764	0.066
Mof_C 	C 	0.8513	0.2666	0.79609	-0.141
Mof_C 	C 	0.3662	0.9288	0.58956	-0.159
Mof_C 	C 	0.4148	0.1145	0.0732	0.369
Mof_C 	C 	0.8287	0.8967	0.17685	0.03
Mof_C 	C 	0.217	0.0635	0.66445	-0.093
Mof_C 	C 	0.21732	0.9495	0.11241	0.05
Mof_C 	C 	0.3655	0.0699	0.08315	-0.12
Mof_C 	C 	0.7	0.4033	0.14978	-0.097
Mof_C 	C 	0.0858	0.386	0.6731	0.44
Mof_C 	C 	0.1399	0.1398	0.65093	-0.112
Mof_C 	C 	0.3664	0.69381	0.42207	0.049
Mof_C 	C 	0.7194	0.994	0.56431	-0.1
Mof_C 	C 	0.27212	0.9882	0.10176	0.04
Mof_C 	C 	0.8601	0.8602	0.15093	-0.112
Mof_C 	C 	0.7806	0.494	0.68569	-0.104
Mof_C 	C 	0.1713	0.1033	0.67685	0.03
Mof_C 	C 	0.9142	0.614	0.1731	0.44
Mof_C 	C 	0.6429	0.9479	0.6206	0.043
Mof_C 	C 	0.3	0.5967	0.64978	-0.097
Mof_C 	C 	0.4194	0.3271	0.0953	0.38
Mof_C 	C 	0.3287	0.6033	0.57315	0.03
Mof_O 	O 	0.0619	0.2127	0.64232	-0.363
Mof_O 	O 	0.9408	0.355	0.65061	-0.384
Mof_O 	O 	0.5592	0.855	0.59939	-0.384
Mof_O 	O 	0.0025	0.7265	0.2032	-0.53
Mof_O 	O 	0.5697	0.8831	0.53745	-0.381
Mof_O 	O 	0.9381	0.7873	0.14232	-0.363
Mof_O 	O 	0.0597	0.393	0.70346	-0.412
Mof_O 	O 	0.9247	0.6877	0.26445	-0.404
Mof_O 	O 	0.9161	0.2144	0.75371	-0.38
Mof_O 	O 	0.9303	0.3831	0.71255	-0.381
Mof_O 	O 	0.0465	0.2132	0.77152	-0.385
Mof_O 	O 	0.9276	0.6577	0.15092	-0.394
Mof_O 	O 	0.4535	0.7132	0.47848	-0.386
Mof_O 	O 	0.5753	0.1877	0.98555	-0.404
Mof_O 	O 	0.5465	0.2868	0.97848	-0.386
Mof_O 	O 	0.4975	0.2265	0.0468	-0.529
Mof_O 	O 	0.5025	0.7735	0.5468	-0.529
Mof_O 	O 	0.5724	0.1577	0.09908	-0.394
Mof_O 	O 	0.9272	0.8304	0.20085	-0.389
Mof_O 	O 	0.0592	0.645	0.15061	-0.384
Mof_O 	O 	0.0697	0.6169	0.21255	-0.381
Mof_O 	O 	0.5839	0.7144	0.49629	-0.38
Mof_O 	O 	0.5597	0.107	0.04654	-0.412
Mof_O 	O 	0.0724	0.3423	0.65092	-0.394
Mof_O 	O 	0.9479	0.156	0.68428	-0.401
Mof_O 	O 	0.4433	0.1915	0.97495	-0.393
Mof_O 	O 	0.4276	0.8423	0.59908	-0.394
Mof_O 	O 	0.0753	0.3123	0.76445	-0.404
Mof_O 	O 	0.4381	0.7127	0.60768	-0.363
Mof_O 	O 	0.5619	0.2873	0.10768	-0.363
Mof_O 	O 	0.4305	0.2749	0.11195	-0.382
Mof_O 	O 	0.5521	0.656	0.56572	-0.4
Mof_O 	O 	0.4403	0.893	0.54654	-0.412
Mof_O 	O 	0.9403	0.607	0.20346	-0.412
Mof_O 	O 	0.5728	0.3304	0.04915	-0.39
Mof_O 	O 	0.5567	0.8085	0.47495	-0.393
Mof_O 	O 	0.0728	0.1696	0.70085	-0.389
Mof_O 	O 	0.4161	0.2856	0.99629	-0.38
Mof_O 	O 	0.9433	0.3085	0.77505	-0.393
Mof_O 	O 	0.9535	0.7868	0.27152	-0.385
Mof_O 	O 	0.0521	0.844	0.18428	-0.401
Mof_O 	O 	0.4303	0.1169	0.03745	-0.381
Mof_O 	O 	0.0839	0.7856	0.25371	-0.38
Mof_O 	O 	0.0567	0.6915	0.27505	-0.393
Mof_O 	O 	0.4479	0.344	0.06572	-0.4
Mof_O 	O 	0.9305	0.2251	0.63805	-0.382
Mof_O 	O 	0.5695	0.7251	0.61195	-0.382
Mof_O 	O 	0.4272	0.6696	0.54915	-0.39
Mof_O 	O 	0.4408	0.145	0.09939	-0.384
Mof_O 	O 	0.9975	0.2735	0.7032	-0.53
Mof_O 	O 	0.4247	0.8123	0.48555	-0.404
Mof_O 	O 	0.0695	0.7749	0.13805	-0.382
Mof_Fe	Fe	0.80623	0.00546	0.77412	0.97
Mof_Fe	Fe	0.19377	0.99454	0.27412	0.969
Mof_Fe	Fe	0.21656	0.49976	0.89968	0.951
Mof_Fe	Fe	0.28344	0.99976	0.35032	0.951
Mof_Fe	Fe	0.30623	0.49454	0.97588	0.97
Mof_Fe	Fe	0.78344	0.50024	0.39968	0.951
Mof_Fe	Fe	0.15686	0.50239	0.9861	0.975
Mof_Fe	Fe	0.84314	0.49761	0.4861	0.975
Mof_Fe	Fe	0.34314	0.00239	0.2639	0.976
Mof_Fe	Fe	0.71656	0.00024	0.85032	0.951
Mof_Fe	Fe	0.69377	0.50546	0.47588	0.97
Mof_Fe	Fe	0.65686	0.99761	0.7639	0.976
Mof_H 	H 	0.4321	0.8833	0.3898	0.027
Mof_H 	H 	0.499	0.1954	0.9055	0.077
Mof_H 	H 	0.3387	0.6328	0.8449	0.031
Mof_H 	H 	0.1694	0.7206	0.1123	0.081
Mof_H 	H 	0.9302	0.1204	0.818	0.025
Mof_H 	H 	0.6489	0.2145	0.6391	0.068
Mof_H 	H 	0.3184	0.2364	0.0742	0.076
Mof_H 	H 	0.5944	0.2901	0.324	0.062
Mof_H 	H 	0.9321	0.6167	0.3602	0.028
Mof_H 	H 	0.0698	0.8796	0.318	0.025
Mof_H 	H 	0.8509	0.8199	0.6302	0.068
Mof_H 	H 	0.0591	0.333	0.9706	0.032
Mof_H 	H 	0.4409	0.833	0.2794	0.031
Mof_H 	H 	0.9056	0.7901	0.926	0.062
Mof_H 	H 	0.1596	0.6519	0.0617	0.029
Mof_H 	H 	0.8184	0.2636	0.6758	0.076
Mof_H 	H 	0.3514	0.8681	0.1816	0.025
Mof_H 	H 	0.4302	0.3796	0.932	0.025
Mof_H 	H 	0.5679	0.1167	0.8898	0.027
Mof_H 	H 	0.0386	0.2385	0.3178	0.061
Mof_H 	H 	0.4425	0.8007	0.8144	0.07
Mof_H 	H 	0.3306	0.2206	0.1377	0.081
Mof_H 	H 	0.8839	0.343	0.3618	0.021
Mof_H 	H 	0.0944	0.2099	0.426	0.062
Mof_H 	H 	0.8306	0.2794	0.6123	0.081
Mof_H 	H 	0.1161	0.657	0.8618	0.021
Mof_H 	H 	0.1757	0.856	0.4113	0.023
Mof_H 	H 	0.8243	0.144	0.9113	0.023
Mof_H 	H 	0.9409	0.667	0.4706	0.032
Mof_H 	H 	0.487	0.1246	0.2947	0.021
Mof_H 	H 	0.8944	0.8386	0.797	0.036
Mof_H 	H 	0.013	0.6246	0.9553	0.021
Mof_H 	H 	0.8182	0.181	0.7182	0.037
Mof_H 	H 	0.841	0.8886	0.6808	0.025
Mof_H 	H 	0.9902	0.2544	0.9549	0.065
Mof_H 	H 	0.6757	0.644	0.3387	0.023
Mof_H 	H 	0.1818	0.819	0.2182	0.037
Mof_H 	H 	0.9543	0.2683	0.3421	0.07
Mof_H 	H 	0.999	0.3046	0.8445	0.075
Mof_H 	H 	0.6056	0.3386	0.453	0.036
Mof_H 	H 	0.159	0.1114	0.1808	0.025
Mof_H 	H 	0.6613	0.3672	0.3449	0.031
Mof_H 	H 	0.0098	0.7456	0.4549	0.065
Mof_H 	H 	0.513	0.8754	0.7947	0.021
Mof_H 	H 	0.6491	0.3199	0.6198	0.067
Mof_H 	H 	0.5575	0.1993	0.3144	0.07
Mof_H 	H 	0.1491	0.1801	0.1302	0.068
Mof_H 	H 	0.5457	0.7683	0.9079	0.07
Mof_H 	H 	0.4963	0.3018	0.911	0.079
Mof_H 	H 	0.1096	0.7782	0.4323	0.069
Mof_H 	H 	0.5098	0.7544	0.2951	0.066
Mof_H 	H 	0.3182	0.319	0.0318	0.037
Mof_H 	H 	0.3839	0.157	0.3882	0.022
Mof_H 	H 	0.1056	0.1614	0.297	0.036
Mof_H 	H 	0.3404	0.1519	0.1883	0.029
Mof_H 	H 	0.3509	0.6801	0.1198	0.067
Mof_H 	H 	0.6161	0.843	0.8882	0.022
Mof_H 	H 	0.5591	0.167	0.7794	0.031
Mof_H 	H 	0.9425	0.6993	0.9356	0.07
Mof_H 	H 	0.5698	0.6204	0.432	0.025
Mof_H 	H 	0.8514	0.6319	0.5684	0.025
Mof_H 	H 	0.341	0.6114	0.0692	0.025
Mof_H 	H 	0.8387	0.8672	0.9051	0.031
Mof_H 	H 	0.8904	0.2218	0.9323	0.069
Mof_H 	H 	0.6694	0.7794	0.6377	0.081
Mof_H 	H 	0.001	0.6954	0.3445	0.075
Mof_H 	H 	0.8404	0.3481	0.5617	0.029
Mof_H 	H 	0.3944	0.6614	0.953	0.036
Mof_H 	H 	0.0575	0.3007	0.4356	0.07
Mof_H 	H 	0.6818	0.681	0.5318	0.037
Mof_H 	H 	0.1486	0.3681	0.0684	0.025
Mof_H 	H 	0.6486	0.1319	0.6816	0.025
Mof_H 	H 	0.0679	0.3833	0.8602	0.028
Mof_H 	H 	0.659	0.3886	0.5692	0.025
Mof_H 	H 	0.3511	0.7855	0.1391	0.068
Mof_H 	H 	0.4902	0.2456	0.7951	0.066
Mof_H 	H 	0.5386	0.2615	0.4322	0.061
Mof_H 	H 	0.4614	0.7385	0.9322	0.061
Mof_H 	H 	0.3243	0.356	0.8387	0.023
Mof_H 	H 	0.9614	0.7615	0.8178	0.061
Mof_H 	H 	0.8511	0.7145	0.6109	0.068
Mof_H 	H 	0.9963	0.1982	0.839	0.08
Mof_H 	H 	0.4543	0.2317	0.4079	0.07
Mof_H 	H 	0.6096	0.7218	0.3177	0.069
Mof_H 	H 	0.501	0.8046	0.4055	0.077
Mof_H 	H 	0.1816	0.7364	0.1758	0.076
Mof_H 	H 	0.5037	0.6982	0.411	0.079
Mof_H 	H 	0.987	0.3754	0.4553	0.021
Mof_H 	H 	0.1613	0.1328	0.4051	0.031
Mof_H 	H 	0.0457	0.7317	0.8421	0.07
Mof_H 	H 	0.4056	0.7099	0.824	0.062
Mof_H 	H 	0.6596	0.8481	0.6883	0.029
Mof_H 	H 	0.3904	0.2782	0.8177	0.069
Mof_H 	H 	0.6816	0.7636	0.5742	0.076
Mof_H 	H 	0.1489	0.2855	0.1109	0.068
Mof_H 	H 	0.0037	0.8018	0.339	0.08
Mof_C 	C 	0.4888	0.8104	0.37991	-0.107
Mof_C 	C 	0.8247	0.9131	0.8334	0.376
Mof_C 	C 	0.3636	0.6543	0.86262	0.037
Mof_C 	C 	0.0125	0.2774	0.38705	0.057
Mof_C 	C 	0.8985	0.2012	0.90908	-0.111
Mof_C 	C 	0.1145	0.4148	0.9268	0.369
Mof_C 	C 	0.6398	0.3601	0.40093	-0.112
Mof_C 	C 	0.8711	0.1249	0.86267	-0.132
Mof_C 	C 	0.961	0.29	0.36512	-0.121
Mof_C 	C 	0.3967	0.6713	0.92685	0.03
Mof_C 	C 	0.5779	0.641	0.40882	0.054
Mof_C 	C 	0.96137	0.1872	0.85364	-0.113
Mof_C 	C 	0.20426	0.6985	0.10355	-0.111
Mof_C 	C 	0.30158	0.1576	0.17652	0.048
Mof_C 	C 	0.3247	0.5869	0.9166	0.376
Mof_C 	C 	0.8636	0.8457	0.88738	0.037
Mof_C 	C 	0.8602	0.8601	0.84907	-0.112
Mof_C 	C 	0.5112	0.1896	0.87991	-0.107
Mof_C 	C 	0.9033	0.8	0.89978	-0.096
Mof_C 	C 	0.3711	0.3751	0.88733	-0.132
Mof_C 	C 	0.006	0.2806	0.93569	-0.1
Mof_C 	C 	0.5196	0.8537	0.81764	0.066
Mof_C 	C 	0.3855	0.9148	0.3232	0.37
Mof_C 	C 	0.6289	0.6249	0.38733	-0.132
Mof_C 	C 	0.2506	0.1252	0.18933	-0.129
Mof_C 	C 	0.5125	0.2226	0.36295	0.056
Mof_C 	C 	0.7663	0.7468	0.59653	0.046
Mof_C 	C 	0.4875	0.7774	0.86295	0.056
Mof_C 	C 	0.9398	0.7686	0.87386	0.033
Mof_C 	C 	0.69842	0.8424	0.67652	0.048
Mof_C 	C 	0.0967	0.2	0.39978	-0.096
Mof_C 	C 	0.236	0.4064	0.0237	0.385
Mof_C 	C 	0.2612	0.0807	0.2211	0.392
Mof_C 	C 	0.039	0.71	0.86512	-0.121
Mof_C 	C 	0.68323	0.2077	0.6552	-0.109
Mof_C 	C 	0.539	0.79	0.88488	-0.12
Mof_C 	C 	0.30619	0.6336	0.07793	0.049
Mof_C 	C 	0.994	0.7194	0.43569	-0.1
Mof_C 	C 	0.21604	0.7632	0.17697	-0.106
Mof_C 	C 	0.4033	0.7	0.85022	-0.097
Mof_C 	C 	0.494	0.7806	0.31431	-0.104
Mof_C 	C 	0.9531	0.6727	0.445	0.039
Mof_C 	C 	0.5521	0.1429	0.8706	0.046
Mof_C 	C 	0.14076	0.845	0.39662	0.051
Mof_C 	C 	0.4531	0.8273	0.305	0.042
Mof_C 	C 	0.5469	0.1727	0.805	0.042
Mof_C 	C 	0.9804	0.3537	0.43236	0.066
Mof_C 	C 	0.461	0.21	0.38488	-0.12
Mof_C 	C 	0.8967	0.8287	0.82315	0.03
Mof_C 	C 	0.2334	0.3513	0.04609	-0.141
Mof_C 	C 	0.4778	0.8093	0.82933	-0.12
Mof_C 	C 	0.5967	0.3	0.35022	-0.097
Mof_C 	C 	0.2611	0.7068	0.12081	0.048
Mof_C 	C 	0.7494	0.8748	0.68933	-0.129
Mof_C 	C 	0.0118	0.72788	0.39824	0.04
Mof_C 	C 	0.4191	0.1656	0.37318	0.067
Mof_C 	C 	0.114	0.5858	0.9231	0.44
Mof_C 	C 	0.1364	0.1543	0.38738	0.037
Mof_C 	C 	0.0779	0.859	0.34118	0.055
Mof_C 	C 	0.8271	0.0806	0.8453	0.381
Mof_C 	C 	0.7666	0.6487	0.54609	-0.141
Mof_C 	C 	0.264	0.9064	0.2263	0.385
Mof_C 	C 	0.6015	0.7012	0.34092	-0.109
Mof_C 	C 	0.8855	0.5852	0.4268	0.369
Mof_C 	C 	0.5809	0.8344	0.87318	0.067
Mof_C 	C 	0.81677	0.7077	0.5948	-0.109
Mof_C 	C 	0.78396	0.2368	0.67697	-0.106
Mof_C 	C 	0.53863	0.6872	0.39636	-0.112
Mof_C 	C 	0.1753	0.0869	0.3334	0.376
Mof_C 	C 	0.7334	0.1487	0.70391	-0.141
Mof_C 	C 	0.2388	0.5807	0.0289	0.392
Mof_C 	C 	0.9301	0.6345	0.41685	-0.12
Mof_C 	C 	0.68797	0.3256	0.608	-0.109
Mof_C 	C 	0.6033	0.3287	0.42685	0.03
Mof_C 	C 	0.9888	0.6896	0.37009	-0.103
Mof_C 	C 	0.3985	0.2988	0.84092	-0.109
Mof_C 	C 	0.764	0.5936	0.5237	0.385
Mof_C 	C 	0.5602	0.2686	0.37614	0.033
Mof_C 	C 	0.0521	0.3571	0.8794	0.043
Mof_C 	C 	0.3602	0.6399	0.90093	-0.112
Mof_C 	C 	0.7337	0.2468	0.65347	0.046
Mof_C 	C 	0.4495	0.28268	0.86241	0.049
Mof_C 	C 	0.9495	0.21732	0.88759	0.05
Mof_C 	C 	0.9221	0.141	0.84118	0.055
Mof_C 	C 	0.386	0.0858	0.3269	0.44
Mof_C 	C 	0.6729	0.5806	0.4047	0.38
Mof_C 	C 	0.7388	0.9193	0.7211	0.392
Mof_C 	C 	0.03863	0.8128	0.35364	-0.113
Mof_C 	C 	0.0712	0.6338	0.91044	-0.159
Mof_C 	C 	0.1289	0.8751	0.36267	-0.132
Mof_C 	C 	0.7611	0.7932	0.62919	0.048
Mof_C 	C 	0.736	0.0936	0.7263	0.385
Mof_C 	C 	0.5712	0.8662	0.83956	-0.159
Mof_C 	C 	0.85924	0.155	0.89662	0.051
Mof_C 	C 	0.28382	0.3122	0.04781	0.052
Mof_C 	C 	0.614	0.9142	0.8269	0.44
Mof_C 	C 	0.5505	0.71732	0.36241	0.049
Mof_C 	C 	0.3271	0.4194	0.9047	0.38
Mof_C 	C 	0.7389	0.2932	0.62081	0.048
Mof_C 	C 	0.64076	0.655	0.35338	0.051
Mof_C 	C 	0.69381	0.3664	0.57793	0.049
Mof_C 	C 	0.19842	0.6576	0.07348	0.048
Mof_C 	C 	0.46137	0.3128	0.89636	-0.112
Mof_C 	C 	0.0505	0.78268	0.38759	0.05
Mof_C 	C 	0.4398	0.7314	0.87614	0.033
Mof_C 	C 	0.0112	0.3104	0.87009	-0.103
Mof_C 	C 	0.0635	0.217	0.33555	-0.093
Mof_C 	C 	0.81203	0.8256	0.642	-0.109
Mof_C 	C 	0.1729	0.9194	0.3453	0.381
Mof_C 	C 	0.4301	0.8655	0.33315	-0.122
Mof_C 	C 	0.4479	0.8571	0.3706	0.046
Mof_C 	C 	0.0602	0.2314	0.37386	0.033
Mof_C 	C 	0.21618	0.8122	0.20219	0.052
Mof_C 	C 	0.6364	0.3457	0.36262	0.037
Mof_C 	C 	0.2494	0.6252	0.06067	-0.129
Mof_C 	C 	0.5222	0.1907	0.32933	-0.12
Mof_C 	C 	0.6753	0.4131	0.4166	0.376
Mof_C 	C 	0.71604	0.7368	0.57303	-0.106
Mof_C 	C 	0.4804	0.1463	0.31764	0.066
Mof_C 	C 	0.0469	0.3273	0.945	0.039
Mof_C 	C 	0.1015	0.7988	0.40908	-0.111
Mof_C 	C 	0.29574	0.1985	0.14645	-0.111
Mof_C 	C 	0.9882	0.27212	0.89824	0.04
Mof_C 	C 	0.35924	0.345	0.85338	0.051
Mof_C 	C 	0.506	0.2194	0.81431	-0.104
Mof_C 	C 	0.0222	0.3093	0.42067	-0.12
Mof_C 	C 	0.78382	0.1878	0.70219	0.052
Mof_C 	C 	0.19381	0.1336	0.17207	0.049
Mof_C 	C 	0.4288	0.1338	0.33956	-0.159
Mof_C 	C 	0.70426	0.8015	0.64645	-0.111
Mof_C 	C 	0.31692	0.8414	0.18042	0.054
Mof_C 	C 	0.68308	0.1586	0.68042	0.054
Mof_C 	C 	0.18797	0.1744	0.142	-0.109
Mof_C 	C 	0.886	0.4142	0.4231	0.44
Mof_C 	C 	0.4221	0.359	0.90882	0.054
Mof_C 	C 	0.4365	0.717	0.91445	-0.093
Mof_C 	C 	0.5699	0.1345	0.83315	-0.122
Mof_C 	C 	0.18308	0.3414	0.06958	0.054
Mof_C 	C 	0.2337	0.2532	0.09653	0.046
Mof_C 	C 	0.71618	0.6878	0.54781	0.052
Mof_C 	C 	0.7612	0.4193	0.5289	0.392
Mof_C 	C 	0.0699	0.3655	0.91685	-0.12
Mof_C 	C 	0.6145	0.0852	0.8232	0.37
Mof_C 	C 	0.28396	0.2632	0.07303	-0.106
Mof_C 	C 	0.2663	0.7532	0.15347	0.046
Mof_C 	C 	0.7506	0.3748	0.56067	-0.129
Mof_C 	C 	0.79574	0.3015	0.60355	-0.111
Mof_C 	C 	0.2666	0.8513	0.20391	-0.141
Mof_C 	C 	0.80619	0.8664	0.67207	0.049
Mof_C 	C 	0.18323	0.2923	0.0948	-0.109
Mof_C 	C 	0.9875	0.7226	0.88705	0.057
Mof_C 	C 	0.9365	0.783	0.83555	-0.093
Mof_C 	C 	0.31677	0.7923	0.1552	-0.109
Mof_C 	C 	0.4882	0.22788	0.85176	0.044
Mof_C 	C 	0.0809	0.6656	0.87682	0.067
Mof_C 	C 	0.1033	0.1713	0.32315	0.03
Mof_C 	C 	0.9191	0.3344	0.37682	0.067
Mof_C 	C 	0.81692	0.6586	0.56958	0.054
Mof_C 	C 	0.5635	0.283	0.41445	-0.093
Mof_C 	C 	0.31203	0.6744	0.108	-0.109
Mof_C 	C 	0.9288	0.3662	0.41044	-0.159
Mof_C 	C 	0.9778	0.6907	0.92067	-0.12
Mof_C 	C 	0.0196	0.6463	0.93236	0.066
Mof_C 	C 	0.5118	0.77212	0.35176	0.044
Mof_C 	C 	0.80158	0.3424	0.57348	0.048
Mof_C 	C 	0.1398	0.1399	0.34907	-0.112
Mof_C 	C 	0.9479	0.6429	0.3794	0.043
Mof_C 	C 	0.2389	0.2068	0.12919	0.048
Mof_O 	O 	0.2873	0.5619	0.89232	-0.363
Mof_O 	O 	0.8831	0.5697	0.46255	-0.381
Mof_O 	O 	0.6577	0.9276	0.84908	-0.394
Mof_O 	O 	0.8085	0.5567	0.52505	-0.393
Mof_O 	O 	0.2132	0.0465	0.22848	-0.385
Mof_O 	O 	0.2749	0.4305	0.88805	-0.382
Mof_O 	O 	0.6169	0.0697	0.78745	-0.381
Mof_O 	O 	0.3304	0.5728	0.95085	-0.39
Mof_O 	O 	0.7749	0.0695	0.86195	-0.382
Mof_O 	O 	0.2127	0.0619	0.35768	-0.363
Mof_O 	O 	0.7144	0.5839	0.50371	-0.38
Mof_O 	O 	0.7735	0.5025	0.4532	-0.529
Mof_O 	O 	0.2265	0.4975	0.9532	-0.529
Mof_O 	O 	0.7265	0.0025	0.7968	-0.53
Mof_O 	O 	0.3831	0.9303	0.28745	-0.381
Mof_O 	O 	0.2856	0.4161	0.00371	-0.38
Mof_O 	O 	0.645	0.0592	0.84939	-0.384
Mof_O 	O 	0.2735	0.9975	0.2968	-0.53
Mof_O 	O 	0.855	0.5592	0.40061	-0.384
Mof_O 	O 	0.844	0.0521	0.81572	-0.401
Mof_O 	O 	0.2144	0.9161	0.24629	-0.38
Mof_O 	O 	0.355	0.9408	0.34939	-0.384
Mof_O 	O 	0.7127	0.4381	0.39232	-0.363
Mof_O 	O 	0.145	0.4408	0.90061	-0.384
Mof_O 	O 	0.1169	0.4303	0.96255	-0.381
Mof_O 	O 	0.344	0.4479	0.93428	-0.4
Mof_O 	O 	0.1577	0.5724	0.90092	-0.394
Mof_O 	O 	0.3423	0.0724	0.34908	-0.394
Mof_O 	O 	0.8304	0.9272	0.79915	-0.389
Mof_O 	O 	0.393	0.0597	0.29654	-0.412
Mof_O 	O 	0.7251	0.5695	0.38805	-0.382
Mof_O 	O 	0.3123	0.0753	0.23555	-0.404
Mof_O 	O 	0.7132	0.4535	0.52152	-0.386
Mof_O 	O 	0.7873	0.9381	0.85768	-0.363
Mof_O 	O 	0.6877	0.9247	0.73555	-0.404
Mof_O 	O 	0.2868	0.5465	0.02152	-0.386
Mof_O 	O 	0.7856	0.0839	0.74629	-0.38
Mof_O 	O 	0.8123	0.4247	0.51445	-0.404
Mof_O 	O 	0.8423	0.4276	0.40092	-0.394
Mof_O 	O 	0.3085	0.9433	0.22495	-0.393
Mof_O 	O 	0.2251	0.9305	0.36195	-0.382
Mof_O 	O 	0.107	0.5597	0.95346	-0.412
Mof_O 	O 	0.1915	0.4433	0.02505	-0.393
Mof_O 	O 	0.156	0.9479	0.31572	-0.401
Mof_O 	O 	0.7868	0.9535	0.72848	-0.385
Mof_O 	O 	0.6696	0.4272	0.45085	-0.39
Mof_O 	O 	0.1696	0.0728	0.29915	-0.389
Mof_O 	O 	0.893	0.4403	0.45346	-0.412
Mof_O 	O 	0.656	0.5521	0.43428	-0.4
Mof_O 	O 	0.6915	0.0567	0.72495	-0.393
Mof_O 	O 	0.1877	0.5753	0.01445	-0.404
Mof_O 	O 	0.607	0.9403	0.79654	-0.412
_end
