data_functionalizedCrystal
_audit_creation_method	'EQeq! by Chris Wilmer'
_symmetry_space_group_name_H-M	'P1'
_symmetry_Int_Tables_number	1
_symmetry_cell_setting	triclinic
loop_
_symmetry_equiv_pos_as_xyz
  x,y,z
_cell_length_a	39.826
_cell_length_b	14.012
_cell_length_c	29.269
_cell_angle_alpha	90
_cell_angle_beta	123.206
_cell_angle_gamma	90
loop_
_atom_site_label
_atom_site_type_symbol
_atom_site_fract_x
_atom_site_fract_y
_atom_site_fract_z
_atom_site_charge
Mof_Zn	Zn	0.98951	0.47169	0.9451	1.212
Mof_N 	N 	0.96463	0.4441	0.86331	-0.187
Mof_O 	O 	0.04823	0.4377	0.97886	-0.453
Mof_O 	O 	0.98303	0.3457	0.973	-0.459
Mof_O 	O 	0.93825	0.5193	0.94042	-0.469
Mof_O 	O 	0.00196	0.6121	0.94351	-0.464
Mof_C 	C 	0.954	0.344	0.8497	-0.065
Mof_C 	C 	0.99283	0.4685	0.848	-0.093
Mof_C 	C 	0.9284	0.5007	0.8298	-0.071
Mof_C 	C 	0.0722	0.4447	0.0297	0.382
Mof_C 	C 	0.98753	0.3293	0.0192	0.368
Mof_H 	H 	0.9365	0.3244	0.8614	0.044
Mof_H 	H 	0.9781	0.3052	0.8688	0.049
Mof_C 	C 	0.9323	0.3277	0.7869	-0.054
Mof_H 	H 	0.0176	0.4333	0.8708	0.054
Mof_H 	H 	0.999	0.5361	0.854	0.046
Mof_C 	C 	0.975	0.4444	0.788	-0.017
Mof_H 	H 	0.9346	0.5677	0.839	0.045
Mof_H 	H 	0.9085	0.4822	0.8374	0.048
Mof_C 	C 	0.9113	0.486	0.7685	-0.051
Mof_C 	C 	0.11373	0.4119	0.0557	-0.084
Mof_C 	C 	0.9799	0.228	0.0282	-0.067
Mof_N 	N 	0.93404	0.4118	0.76095	-0.212
Mof_H 	H 	0.9449	0.2753	0.7802	0.047
Mof_H 	H 	0.9044	0.3108	0.7717	0.043
Mof_H 	H 	0.976	0.5006	0.7694	-0.013
Mof_H 	H 	0.9911	0.3951	0.7856	0.007
Mof_H 	H 	0.8833	0.4674	0.7497	0.026
Mof_H 	H 	0.9127	0.5455	0.7527	0.008
Mof_C 	C 	0.1274	0.3812	0.0236	-0.077
Mof_C 	C 	0.1388	0.412	0.1115	0.012
Mof_C 	C 	0.9714	0.1555	0.9904	-0.003
Mof_C 	C 	0.9824	0.2072	0.076	-0.072
Mof_Zn	Zn	0.90635	0.39157	0.67627	1.185
Mof_H 	H 	0.1109	0.3815	0.9857	0.072
Mof_C 	C 	0.16632	0.3504	0.0503	0.096
Mof_C 	C 	0.1759	0.3798	0.1375	-0.075
Mof_H 	H 	0.1292	0.4358	0.132	0.034
Mof_H 	H 	0.9715	0.1699	0.9595	0.044
Mof_C 	C 	0.963	0.0632	0.9977	-0.075
Mof_C 	C 	0.9742	0.1129	0.0838	0.078
Mof_H 	H 	0.9892	0.2539	0.1022	0.065
Mof_O 	O 	0.85568	0.3478	0.66277	-0.489
Mof_O 	O 	0.92833	0.3353	0.6365	-0.478
Mof_N 	N 	0.18768	0.3158	0.02968	-0.222
Mof_C 	C 	0.192	0.3459	0.1063	-0.01
Mof_H 	H 	0.1916	0.3787	0.1755	0.056
Mof_H 	H 	0.9559	0.017	0.9711	0.061
Mof_C 	C 	0.9653	0.0415	0.0446	0.002
Mof_N 	N 	0.9728	0.0744	0.1262	-0.213
Mof_H 	H 	0.1786	0.3118	0.9955	0.16
Mof_C 	C 	0.22647	0.2875	0.072	0.094
Mof_C 	C 	0.2303	0.304	0.1223	-0.011
Mof_C 	C 	0.959	0.9529	0.0665	-0.028
Mof_H 	H 	0.9769	0.1042	0.1545	0.121
Mof_C 	C 	0.9633	0.9771	0.1142	0.1
Mof_C 	C 	0.25738	0.2469	0.0702	-0.082
Mof_C 	C 	0.266	0.2788	0.1707	-0.059
Mof_C 	C 	0.9496	0.8612	0.0482	-0.037
Mof_C 	C 	0.9571	0.9151	0.1459	-0.101
Mof_H 	H 	0.2543	0.2344	0.0369	0.073
Mof_C 	C 	0.2924	0.2256	0.1181	-0.057
Mof_C 	C 	0.298	0.2413	0.1701	-0.017
Mof_H 	H 	0.2684	0.2872	0.2038	0.052
Mof_C 	C 	0.9441	0.7933	0.0781	-0.044
Mof_H 	H 	0.9468	0.8441	0.0155	0.05
Mof_H 	H 	0.9588	0.9345	0.1775	0.081
Mof_C 	C 	0.9478	0.8209	0.1264	-0.024
Mof_C 	C 	0.3271	0.1824	0.1181	0.355
Mof_H 	H 	0.3222	0.2269	0.2023	0.047
Mof_H 	H 	0.9381	0.7304	0.0661	0.064
Mof_C 	C 	0.9378	0.7455	0.1561	0.315
Mof_O 	O 	0.32532	0.1733	0.0748	-0.323
Mof_O 	O 	0.9364	0.7744	0.1951	-0.343
Mof_Zn	Zn	0.48951	0.97169	0.9451	1.213
Mof_N 	N 	0.46463	0.9441	0.86331	-0.186
Mof_O 	O 	0.54823	0.9377	0.97886	-0.455
Mof_O 	O 	0.48303	0.8457	0.973	-0.459
Mof_O 	O 	0.43825	0.0193	0.94042	-0.469
Mof_O 	O 	0.50196	0.1121	0.94351	-0.464
Mof_C 	C 	0.454	0.844	0.8497	-0.065
Mof_C 	C 	0.49283	0.9685	0.848	-0.093
Mof_C 	C 	0.4284	0.0007	0.8298	-0.066
Mof_C 	C 	0.5722	0.9447	0.0297	0.385
Mof_C 	C 	0.48753	0.8293	0.0192	0.369
Mof_H 	H 	0.4365	0.8244	0.8614	0.044
Mof_H 	H 	0.4781	0.8052	0.8688	0.049
Mof_C 	C 	0.4323	0.8277	0.7869	-0.054
Mof_H 	H 	0.5176	0.9333	0.8708	0.054
Mof_H 	H 	0.499	0.0361	0.854	0.046
Mof_C 	C 	0.475	0.9444	0.788	-0.018
Mof_H 	H 	0.4346	0.0677	0.839	0.044
Mof_H 	H 	0.4085	0.9822	0.8374	0.047
Mof_C 	C 	0.4113	0.986	0.7685	-0.055
Mof_C 	C 	0.61373	0.9119	0.0557	-0.087
Mof_C 	C 	0.4799	0.728	0.0282	-0.067
Mof_N 	N 	0.43404	0.9118	0.76095	-0.212
Mof_H 	H 	0.4449	0.7753	0.7802	0.047
Mof_H 	H 	0.4044	0.8108	0.7717	0.043
Mof_H 	H 	0.476	0.0006	0.7694	-0.012
Mof_H 	H 	0.4911	0.8951	0.7856	0.007
Mof_H 	H 	0.3833	0.9674	0.7497	0.027
Mof_H 	H 	0.4127	0.0455	0.7527	0.01
Mof_C 	C 	0.6274	0.8812	0.0236	-0.073
Mof_C 	C 	0.6388	0.912	0.1115	0.014
Mof_C 	C 	0.4714	0.6555	0.9904	-0.002
Mof_C 	C 	0.4824	0.7072	0.076	-0.072
Mof_Zn	Zn	0.40635	0.89157	0.67627	1.185
Mof_H 	H 	0.6109	0.8815	0.9857	0.07
Mof_C 	C 	0.66632	0.8504	0.0503	0.094
Mof_C 	C 	0.6759	0.8798	0.1375	-0.077
Mof_H 	H 	0.6292	0.9358	0.132	0.034
Mof_H 	H 	0.4715	0.6699	0.9595	0.044
Mof_C 	C 	0.463	0.5632	0.9977	-0.076
Mof_C 	C 	0.4742	0.6129	0.0838	0.077
Mof_H 	H 	0.4892	0.7539	0.1022	0.065
Mof_O 	O 	0.35568	0.8478	0.66277	-0.489
Mof_O 	O 	0.42833	0.8353	0.6365	-0.478
Mof_N 	N 	0.68768	0.8158	0.02968	-0.221
Mof_C 	C 	0.692	0.8459	0.1063	-0.008
Mof_H 	H 	0.6916	0.8787	0.1755	0.057
Mof_H 	H 	0.4559	0.517	0.9711	0.061
Mof_C 	C 	0.4653	0.5415	0.0446	0.004
Mof_N 	N 	0.4728	0.5744	0.1262	-0.213
Mof_H 	H 	0.6786	0.8118	0.9955	0.159
Mof_C 	C 	0.72647	0.7875	0.072	0.095
Mof_C 	C 	0.7303	0.804	0.1223	-0.012
Mof_C 	C 	0.459	0.4529	0.0665	-0.029
Mof_H 	H 	0.4769	0.6042	0.1545	0.121
Mof_C 	C 	0.4633	0.4771	0.1142	0.1
Mof_C 	C 	0.75738	0.7469	0.0702	-0.082
Mof_C 	C 	0.766	0.7788	0.1707	-0.058
Mof_C 	C 	0.4496	0.3612	0.0482	-0.037
Mof_C 	C 	0.4571	0.4151	0.1459	-0.101
Mof_H 	H 	0.7543	0.7344	0.0369	0.074
Mof_C 	C 	0.7924	0.7256	0.1181	-0.056
Mof_C 	C 	0.798	0.7413	0.1701	-0.017
Mof_H 	H 	0.7684	0.7872	0.2038	0.052
Mof_C 	C 	0.4441	0.2933	0.0781	-0.044
Mof_H 	H 	0.4468	0.3441	0.0155	0.049
Mof_H 	H 	0.4588	0.4345	0.1775	0.081
Mof_C 	C 	0.4478	0.3209	0.1264	-0.024
Mof_C 	C 	0.8271	0.6824	0.1181	0.355
Mof_H 	H 	0.8222	0.7269	0.2023	0.047
Mof_H 	H 	0.4381	0.2304	0.0661	0.064
Mof_C 	C 	0.4378	0.2455	0.1561	0.315
Mof_O 	O 	0.82532	0.6733	0.0748	-0.323
Mof_O 	O 	0.4364	0.2744	0.1951	-0.344
Mof_Zn	Zn	0.01049	0.47169	0.5549	1.213
Mof_N 	N 	0.03537	0.4441	0.63669	-0.186
Mof_O 	O 	0.95177	0.4377	0.52114	-0.454
Mof_O 	O 	0.01697	0.3457	0.527	-0.459
Mof_O 	O 	0.06175	0.5193	0.55958	-0.469
Mof_O 	O 	0.99804	0.6121	0.55649	-0.464
Mof_C 	C 	0.046	0.344	0.6503	-0.065
Mof_C 	C 	0.00717	0.4685	0.652	-0.091
Mof_C 	C 	0.0716	0.5007	0.6702	-0.071
Mof_C 	C 	0.9278	0.4447	0.4703	0.383
Mof_C 	C 	0.01247	0.3293	0.4808	0.368
Mof_H 	H 	0.0635	0.3244	0.6386	0.044
Mof_H 	H 	0.0219	0.3052	0.6312	0.049
Mof_C 	C 	0.0677	0.3277	0.7131	-0.054
Mof_H 	H 	0.9824	0.4333	0.6292	0.054
Mof_H 	H 	0.001	0.5361	0.646	0.046
Mof_C 	C 	0.025	0.4444	0.712	-0.018
Mof_H 	H 	0.0654	0.5677	0.661	0.045
Mof_H 	H 	0.0915	0.4822	0.6626	0.048
Mof_C 	C 	0.0887	0.486	0.7315	-0.051
Mof_C 	C 	0.88627	0.4119	0.4443	-0.085
Mof_C 	C 	0.0201	0.228	0.4718	-0.067
Mof_N 	N 	0.06596	0.4118	0.73905	-0.212
Mof_H 	H 	0.0551	0.2753	0.7198	0.047
Mof_H 	H 	0.0956	0.3108	0.7283	0.043
Mof_H 	H 	0.024	0.5006	0.7306	-0.013
Mof_H 	H 	0.0089	0.3951	0.7144	0.007
Mof_H 	H 	0.1167	0.4674	0.7503	0.026
Mof_H 	H 	0.0873	0.5455	0.7473	0.008
Mof_C 	C 	0.8726	0.3812	0.4764	-0.075
Mof_C 	C 	0.8612	0.412	0.3885	0.013
Mof_C 	C 	0.0286	0.1555	0.5096	-0.002
Mof_C 	C 	0.0176	0.2072	0.424	-0.072
Mof_Zn	Zn	0.09365	0.39157	0.82373	1.185
Mof_H 	H 	0.8891	0.3815	0.5143	0.071
Mof_C 	C 	0.83368	0.3504	0.4497	0.095
Mof_C 	C 	0.8241	0.3798	0.3625	-0.076
Mof_H 	H 	0.8708	0.4358	0.368	0.034
Mof_H 	H 	0.0285	0.1699	0.5405	0.044
Mof_C 	C 	0.037	0.0632	0.5023	-0.076
Mof_C 	C 	0.0258	0.1129	0.4162	0.077
Mof_H 	H 	0.0108	0.2539	0.3978	0.064
Mof_O 	O 	0.14432	0.3478	0.83723	-0.489
Mof_O 	O 	0.07167	0.3353	0.8635	-0.478
Mof_N 	N 	0.81232	0.3158	0.47032	-0.222
Mof_C 	C 	0.808	0.3459	0.3937	-0.009
Mof_H 	H 	0.8084	0.3787	0.3245	0.057
Mof_H 	H 	0.0441	0.017	0.5289	0.061
Mof_C 	C 	0.0347	0.0415	0.4554	0.004
Mof_N 	N 	0.0272	0.0744	0.3738	-0.213
Mof_H 	H 	0.8214	0.3118	0.5045	0.16
Mof_C 	C 	0.77353	0.2875	0.428	0.094
Mof_C 	C 	0.7697	0.304	0.3777	-0.012
Mof_C 	C 	0.041	0.9529	0.4335	-0.029
Mof_H 	H 	0.0231	0.1042	0.3455	0.121
Mof_C 	C 	0.0367	0.9771	0.3858	0.1
Mof_C 	C 	0.74262	0.2469	0.4298	-0.082
Mof_C 	C 	0.734	0.2788	0.3293	-0.058
Mof_C 	C 	0.0504	0.8612	0.4518	-0.037
Mof_C 	C 	0.0429	0.9151	0.3541	-0.101
Mof_H 	H 	0.7457	0.2344	0.4631	0.073
Mof_C 	C 	0.7076	0.2256	0.3819	-0.057
Mof_C 	C 	0.702	0.2413	0.3299	-0.017
Mof_H 	H 	0.7316	0.2872	0.2962	0.052
Mof_C 	C 	0.0559	0.7933	0.4219	-0.044
Mof_H 	H 	0.0532	0.8441	0.4845	0.05
Mof_H 	H 	0.0412	0.9345	0.3225	0.081
Mof_C 	C 	0.0522	0.8209	0.3736	-0.024
Mof_C 	C 	0.6729	0.1824	0.3819	0.355
Mof_H 	H 	0.6778	0.2269	0.2977	0.047
Mof_H 	H 	0.0619	0.7304	0.4339	0.064
Mof_C 	C 	0.0622	0.7455	0.3439	0.315
Mof_O 	O 	0.67468	0.1733	0.4252	-0.323
Mof_O 	O 	0.0636	0.7744	0.3049	-0.344
Mof_Zn	Zn	0.51049	0.97169	0.5549	1.213
Mof_N 	N 	0.53537	0.9441	0.63669	-0.186
Mof_O 	O 	0.45177	0.9377	0.52114	-0.454
Mof_O 	O 	0.51697	0.8457	0.527	-0.459
Mof_O 	O 	0.56175	0.0193	0.55958	-0.469
Mof_O 	O 	0.49804	0.1121	0.55649	-0.464
Mof_C 	C 	0.546	0.844	0.6503	-0.065
Mof_C 	C 	0.50717	0.9685	0.652	-0.092
Mof_C 	C 	0.5716	0.0007	0.6702	-0.068
Mof_C 	C 	0.4278	0.9447	0.4703	0.383
Mof_C 	C 	0.51247	0.8293	0.4808	0.368
Mof_H 	H 	0.5635	0.8244	0.6386	0.044
Mof_H 	H 	0.5219	0.8052	0.6312	0.049
Mof_C 	C 	0.5677	0.8277	0.7131	-0.054
Mof_H 	H 	0.4824	0.9333	0.6292	0.054
Mof_H 	H 	0.501	0.0361	0.646	0.046
Mof_C 	C 	0.525	0.9444	0.712	-0.019
Mof_H 	H 	0.5654	0.0677	0.661	0.044
Mof_H 	H 	0.5915	0.9822	0.6626	0.047
Mof_C 	C 	0.5887	0.986	0.7315	-0.054
Mof_C 	C 	0.38627	0.9119	0.4443	-0.085
Mof_C 	C 	0.5201	0.728	0.4718	-0.067
Mof_N 	N 	0.56596	0.9118	0.73905	-0.212
Mof_H 	H 	0.5551	0.7753	0.7198	0.047
Mof_H 	H 	0.5956	0.8108	0.7283	0.043
Mof_H 	H 	0.524	0.0006	0.7306	-0.012
Mof_H 	H 	0.5089	0.8951	0.7144	0.007
Mof_H 	H 	0.6167	0.9674	0.7503	0.027
Mof_H 	H 	0.5873	0.0455	0.7473	0.009
Mof_C 	C 	0.3726	0.8812	0.4764	-0.075
Mof_C 	C 	0.3612	0.912	0.3885	0.013
Mof_C 	C 	0.5286	0.6555	0.5096	-0.002
Mof_C 	C 	0.5176	0.7072	0.424	-0.072
Mof_Zn	Zn	0.59365	0.89157	0.82373	1.185
Mof_H 	H 	0.3891	0.8815	0.5143	0.071
Mof_C 	C 	0.33368	0.8504	0.4497	0.095
Mof_C 	C 	0.3241	0.8798	0.3625	-0.076
Mof_H 	H 	0.3708	0.9358	0.368	0.034
Mof_H 	H 	0.5285	0.6699	0.5405	0.044
Mof_C 	C 	0.537	0.5632	0.5023	-0.076
Mof_C 	C 	0.5258	0.6129	0.4162	0.077
Mof_H 	H 	0.5108	0.7539	0.3978	0.065
Mof_O 	O 	0.64432	0.8478	0.83723	-0.489
Mof_O 	O 	0.57167	0.8353	0.8635	-0.478
Mof_N 	N 	0.31232	0.8158	0.47032	-0.222
Mof_C 	C 	0.308	0.8459	0.3937	-0.009
Mof_H 	H 	0.3084	0.8787	0.3245	0.057
Mof_H 	H 	0.5441	0.517	0.5289	0.061
Mof_C 	C 	0.5347	0.5415	0.4554	0.004
Mof_N 	N 	0.5272	0.5744	0.3738	-0.213
Mof_H 	H 	0.3214	0.8118	0.5045	0.16
Mof_C 	C 	0.27353	0.7875	0.428	0.094
Mof_C 	C 	0.2697	0.804	0.3777	-0.012
Mof_C 	C 	0.541	0.4529	0.4335	-0.029
Mof_H 	H 	0.5231	0.6042	0.3455	0.121
Mof_C 	C 	0.5367	0.4771	0.3858	0.1
Mof_C 	C 	0.24262	0.7469	0.4298	-0.082
Mof_C 	C 	0.234	0.7788	0.3293	-0.058
Mof_C 	C 	0.5504	0.3612	0.4518	-0.037
Mof_C 	C 	0.5429	0.4151	0.3541	-0.101
Mof_H 	H 	0.2457	0.7344	0.4631	0.073
Mof_C 	C 	0.2076	0.7256	0.3819	-0.057
Mof_C 	C 	0.202	0.7413	0.3299	-0.017
Mof_H 	H 	0.2316	0.7872	0.2962	0.052
Mof_C 	C 	0.5559	0.2933	0.4219	-0.044
Mof_H 	H 	0.5532	0.3441	0.4845	0.05
Mof_H 	H 	0.5412	0.4345	0.3225	0.081
Mof_C 	C 	0.5522	0.3209	0.3736	-0.024
Mof_C 	C 	0.1729	0.6824	0.3819	0.355
Mof_H 	H 	0.1778	0.7269	0.2977	0.047
Mof_H 	H 	0.5619	0.2304	0.4339	0.064
Mof_C 	C 	0.5622	0.2455	0.3439	0.315
Mof_O 	O 	0.17468	0.6733	0.4252	-0.323
Mof_O 	O 	0.5636	0.2744	0.3049	-0.344
Mof_Zn	Zn	0.01049	0.52831	0.0549	1.213
Mof_N 	N 	0.03537	0.5559	0.13669	-0.186
Mof_O 	O 	0.95177	0.5623	0.02114	-0.453
Mof_O 	O 	0.01697	0.6543	0.027	-0.459
Mof_O 	O 	0.06175	0.4807	0.05958	-0.469
Mof_O 	O 	0.99804	0.3879	0.05649	-0.464
Mof_C 	C 	0.046	0.656	0.1503	-0.065
Mof_C 	C 	0.00717	0.5315	0.152	-0.093
Mof_C 	C 	0.0716	0.4993	0.1702	-0.071
Mof_C 	C 	0.9278	0.5553	0.9703	0.382
Mof_C 	C 	0.01247	0.6707	0.9808	0.368
Mof_H 	H 	0.0635	0.6756	0.1386	0.044
Mof_H 	H 	0.0219	0.6948	0.1312	0.049
Mof_C 	C 	0.0677	0.6723	0.2131	-0.054
Mof_H 	H 	0.9824	0.5667	0.1292	0.054
Mof_H 	H 	0.001	0.4639	0.146	0.046
Mof_C 	C 	0.025	0.5556	0.212	-0.017
Mof_H 	H 	0.0654	0.4323	0.161	0.045
Mof_H 	H 	0.0915	0.5178	0.1626	0.048
Mof_C 	C 	0.0887	0.514	0.2315	-0.051
Mof_C 	C 	0.88627	0.5881	0.9443	-0.084
Mof_C 	C 	0.0201	0.772	0.9718	-0.067
Mof_N 	N 	0.06596	0.5882	0.23905	-0.212
Mof_H 	H 	0.0551	0.7247	0.2198	0.047
Mof_H 	H 	0.0956	0.6892	0.2283	0.043
Mof_H 	H 	0.024	0.4994	0.2306	-0.013
Mof_H 	H 	0.0089	0.6049	0.2144	0.007
Mof_H 	H 	0.1167	0.5326	0.2503	0.026
Mof_H 	H 	0.0873	0.4545	0.2473	0.008
Mof_C 	C 	0.8726	0.6188	0.9764	-0.077
Mof_C 	C 	0.8612	0.588	0.8885	0.012
Mof_C 	C 	0.0286	0.8445	0.0096	-0.003
Mof_C 	C 	0.0176	0.7928	0.924	-0.072
Mof_Zn	Zn	0.09365	0.60843	0.32373	1.185
Mof_H 	H 	0.8891	0.6185	0.0143	0.072
Mof_C 	C 	0.83368	0.6496	0.9497	0.096
Mof_C 	C 	0.8241	0.6202	0.8625	-0.075
Mof_H 	H 	0.8708	0.5642	0.868	0.034
Mof_H 	H 	0.0285	0.8301	0.0405	0.044
Mof_C 	C 	0.037	0.9368	0.0023	-0.075
Mof_C 	C 	0.0258	0.8871	0.9162	0.078
Mof_H 	H 	0.0108	0.7461	0.8978	0.065
Mof_O 	O 	0.14432	0.6522	0.33723	-0.489
Mof_O 	O 	0.07167	0.6647	0.3635	-0.478
Mof_N 	N 	0.81232	0.6842	0.97032	-0.222
Mof_C 	C 	0.808	0.6541	0.8937	-0.01
Mof_H 	H 	0.8084	0.6213	0.8245	0.056
Mof_H 	H 	0.0441	0.983	0.0289	0.061
Mof_C 	C 	0.0347	0.9585	0.9554	0.002
Mof_N 	N 	0.0272	0.9256	0.8738	-0.213
Mof_H 	H 	0.8214	0.6882	0.0045	0.16
Mof_C 	C 	0.77353	0.7125	0.928	0.094
Mof_C 	C 	0.7697	0.696	0.8777	-0.011
Mof_C 	C 	0.041	0.0471	0.9335	-0.028
Mof_H 	H 	0.0231	0.8958	0.8455	0.121
Mof_C 	C 	0.0367	0.0229	0.8858	0.1
Mof_C 	C 	0.74262	0.7531	0.9298	-0.082
Mof_C 	C 	0.734	0.7212	0.8293	-0.059
Mof_C 	C 	0.0504	0.1388	0.9518	-0.037
Mof_C 	C 	0.0429	0.0849	0.8541	-0.101
Mof_H 	H 	0.7457	0.7656	0.9631	0.073
Mof_C 	C 	0.7076	0.7744	0.8819	-0.057
Mof_C 	C 	0.702	0.7587	0.8299	-0.017
Mof_H 	H 	0.7316	0.7128	0.7962	0.052
Mof_C 	C 	0.0559	0.2067	0.9219	-0.044
Mof_H 	H 	0.0532	0.1559	0.9845	0.05
Mof_H 	H 	0.0412	0.0655	0.8225	0.081
Mof_C 	C 	0.0522	0.1791	0.8736	-0.024
Mof_C 	C 	0.6729	0.8176	0.8819	0.355
Mof_H 	H 	0.6778	0.7731	0.7977	0.047
Mof_H 	H 	0.0619	0.2696	0.9339	0.064
Mof_C 	C 	0.0622	0.2545	0.8439	0.315
Mof_O 	O 	0.67468	0.8267	0.9252	-0.323
Mof_O 	O 	0.0636	0.2256	0.8049	-0.343
Mof_Zn	Zn	0.51049	0.02831	0.0549	1.213
Mof_N 	N 	0.53537	0.0559	0.13669	-0.186
Mof_O 	O 	0.45177	0.0623	0.02114	-0.455
Mof_O 	O 	0.51697	0.1543	0.027	-0.459
Mof_O 	O 	0.56175	0.9807	0.05958	-0.469
Mof_O 	O 	0.49804	0.8879	0.05649	-0.464
Mof_C 	C 	0.546	0.156	0.1503	-0.065
Mof_C 	C 	0.50717	0.0315	0.152	-0.093
Mof_C 	C 	0.5716	0.9993	0.1702	-0.066
Mof_C 	C 	0.4278	0.0553	0.9703	0.385
Mof_C 	C 	0.51247	0.1707	0.9808	0.369
Mof_H 	H 	0.5635	0.1756	0.1386	0.044
Mof_H 	H 	0.5219	0.1948	0.1312	0.049
Mof_C 	C 	0.5677	0.1723	0.2131	-0.054
Mof_H 	H 	0.4824	0.0667	0.1292	0.054
Mof_H 	H 	0.501	0.9639	0.146	0.046
Mof_C 	C 	0.525	0.0556	0.212	-0.018
Mof_H 	H 	0.5654	0.9323	0.161	0.044
Mof_H 	H 	0.5915	0.0178	0.1626	0.047
Mof_C 	C 	0.5887	0.014	0.2315	-0.055
Mof_C 	C 	0.38627	0.0881	0.9443	-0.087
Mof_C 	C 	0.5201	0.272	0.9718	-0.067
Mof_N 	N 	0.56596	0.0882	0.23905	-0.212
Mof_H 	H 	0.5551	0.2247	0.2198	0.047
Mof_H 	H 	0.5956	0.1892	0.2283	0.043
Mof_H 	H 	0.524	0.9994	0.2306	-0.012
Mof_H 	H 	0.5089	0.1049	0.2144	0.007
Mof_H 	H 	0.6167	0.0326	0.2503	0.027
Mof_H 	H 	0.5873	0.9545	0.2473	0.01
Mof_C 	C 	0.3726	0.1188	0.9764	-0.073
Mof_C 	C 	0.3612	0.088	0.8885	0.014
Mof_C 	C 	0.5286	0.3445	0.0096	-0.002
Mof_C 	C 	0.5176	0.2928	0.924	-0.072
Mof_Zn	Zn	0.59365	0.10843	0.32373	1.185
Mof_H 	H 	0.3891	0.1185	0.0143	0.07
Mof_C 	C 	0.33368	0.1496	0.9497	0.094
Mof_C 	C 	0.3241	0.1202	0.8625	-0.077
Mof_H 	H 	0.3708	0.0642	0.868	0.034
Mof_H 	H 	0.5285	0.3301	0.0405	0.044
Mof_C 	C 	0.537	0.4368	0.0023	-0.076
Mof_C 	C 	0.5258	0.3871	0.9162	0.077
Mof_H 	H 	0.5108	0.2461	0.8978	0.065
Mof_O 	O 	0.64432	0.1522	0.33723	-0.489
Mof_O 	O 	0.57167	0.1647	0.3635	-0.478
Mof_N 	N 	0.31232	0.1842	0.97032	-0.221
Mof_C 	C 	0.308	0.1541	0.8937	-0.008
Mof_H 	H 	0.3084	0.1213	0.8245	0.057
Mof_H 	H 	0.5441	0.483	0.0289	0.061
Mof_C 	C 	0.5347	0.4585	0.9554	0.004
Mof_N 	N 	0.5272	0.4256	0.8738	-0.213
Mof_H 	H 	0.3214	0.1882	0.0045	0.159
Mof_C 	C 	0.27353	0.2125	0.928	0.095
Mof_C 	C 	0.2697	0.196	0.8777	-0.012
Mof_C 	C 	0.541	0.5471	0.9335	-0.029
Mof_H 	H 	0.5231	0.3958	0.8455	0.121
Mof_C 	C 	0.5367	0.5229	0.8858	0.1
Mof_C 	C 	0.24262	0.2531	0.9298	-0.082
Mof_C 	C 	0.234	0.2212	0.8293	-0.058
Mof_C 	C 	0.5504	0.6388	0.9518	-0.037
Mof_C 	C 	0.5429	0.5849	0.8541	-0.101
Mof_H 	H 	0.2457	0.2656	0.9631	0.074
Mof_C 	C 	0.2076	0.2744	0.8819	-0.056
Mof_C 	C 	0.202	0.2587	0.8299	-0.017
Mof_H 	H 	0.2316	0.2128	0.7962	0.052
Mof_C 	C 	0.5559	0.7067	0.9219	-0.044
Mof_H 	H 	0.5532	0.6559	0.9845	0.049
Mof_H 	H 	0.5412	0.5655	0.8225	0.081
Mof_C 	C 	0.5522	0.6791	0.8736	-0.024
Mof_C 	C 	0.1729	0.3176	0.8819	0.355
Mof_H 	H 	0.1778	0.2731	0.7977	0.047
Mof_H 	H 	0.5619	0.7696	0.9339	0.064
Mof_C 	C 	0.5622	0.7545	0.8439	0.315
Mof_O 	O 	0.17468	0.3267	0.9252	-0.323
Mof_O 	O 	0.5636	0.7256	0.8049	-0.344
Mof_Zn	Zn	0.98951	0.52831	0.4451	1.213
Mof_N 	N 	0.96463	0.5559	0.36331	-0.186
Mof_O 	O 	0.04823	0.5623	0.47886	-0.454
Mof_O 	O 	0.98303	0.6543	0.473	-0.459
Mof_O 	O 	0.93825	0.4807	0.44042	-0.469
Mof_O 	O 	0.00196	0.3879	0.44351	-0.464
Mof_C 	C 	0.954	0.656	0.3497	-0.065
Mof_C 	C 	0.99283	0.5315	0.348	-0.091
Mof_C 	C 	0.9284	0.4993	0.3298	-0.071
Mof_C 	C 	0.0722	0.5553	0.5297	0.383
Mof_C 	C 	0.98753	0.6707	0.5192	0.368
Mof_H 	H 	0.9365	0.6756	0.3614	0.044
Mof_H 	H 	0.9781	0.6948	0.3688	0.049
Mof_C 	C 	0.9323	0.6723	0.2869	-0.054
Mof_H 	H 	0.0176	0.5667	0.3708	0.054
Mof_H 	H 	0.999	0.4639	0.354	0.046
Mof_C 	C 	0.975	0.5556	0.288	-0.018
Mof_H 	H 	0.9346	0.4323	0.339	0.045
Mof_H 	H 	0.9085	0.5178	0.3374	0.048
Mof_C 	C 	0.9113	0.514	0.2685	-0.051
Mof_C 	C 	0.11373	0.5881	0.5557	-0.085
Mof_C 	C 	0.9799	0.772	0.5282	-0.067
Mof_N 	N 	0.93404	0.5882	0.26095	-0.212
Mof_H 	H 	0.9449	0.7247	0.2802	0.047
Mof_H 	H 	0.9044	0.6892	0.2717	0.043
Mof_H 	H 	0.976	0.4994	0.2694	-0.013
Mof_H 	H 	0.9911	0.6049	0.2856	0.007
Mof_H 	H 	0.8833	0.5326	0.2497	0.026
Mof_H 	H 	0.9127	0.4545	0.2527	0.008
Mof_C 	C 	0.1274	0.6188	0.5236	-0.075
Mof_C 	C 	0.1388	0.588	0.6115	0.013
Mof_C 	C 	0.9714	0.8445	0.4904	-0.002
Mof_C 	C 	0.9824	0.7928	0.576	-0.072
Mof_Zn	Zn	0.90635	0.60843	0.17627	1.185
Mof_H 	H 	0.1109	0.6185	0.4857	0.071
Mof_C 	C 	0.16632	0.6496	0.5503	0.095
Mof_C 	C 	0.1759	0.6202	0.6375	-0.076
Mof_H 	H 	0.1292	0.5642	0.632	0.034
Mof_H 	H 	0.9715	0.8301	0.4595	0.044
Mof_C 	C 	0.963	0.9368	0.4977	-0.076
Mof_C 	C 	0.9742	0.8871	0.5838	0.077
Mof_H 	H 	0.9892	0.7461	0.6022	0.064
Mof_O 	O 	0.85568	0.6522	0.16277	-0.489
Mof_O 	O 	0.92833	0.6647	0.1365	-0.478
Mof_N 	N 	0.18768	0.6842	0.52968	-0.222
Mof_C 	C 	0.192	0.6541	0.6063	-0.009
Mof_H 	H 	0.1916	0.6213	0.6755	0.057
Mof_H 	H 	0.9559	0.983	0.4711	0.061
Mof_C 	C 	0.9653	0.9585	0.5446	0.004
Mof_N 	N 	0.9728	0.9256	0.6262	-0.213
Mof_H 	H 	0.1786	0.6882	0.4955	0.16
Mof_C 	C 	0.22647	0.7125	0.572	0.094
Mof_C 	C 	0.2303	0.696	0.6223	-0.012
Mof_C 	C 	0.959	0.0471	0.5665	-0.029
Mof_H 	H 	0.9769	0.8958	0.6545	0.121
Mof_C 	C 	0.9633	0.0229	0.6142	0.1
Mof_C 	C 	0.25738	0.7531	0.5702	-0.082
Mof_C 	C 	0.266	0.7212	0.6707	-0.058
Mof_C 	C 	0.9496	0.1388	0.5482	-0.037
Mof_C 	C 	0.9571	0.0849	0.6459	-0.101
Mof_H 	H 	0.2543	0.7656	0.5369	0.073
Mof_C 	C 	0.2924	0.7744	0.6181	-0.057
Mof_C 	C 	0.298	0.7587	0.6701	-0.017
Mof_H 	H 	0.2684	0.7128	0.7038	0.052
Mof_C 	C 	0.9441	0.2067	0.5781	-0.044
Mof_H 	H 	0.9468	0.1559	0.5155	0.05
Mof_H 	H 	0.9588	0.0655	0.6775	0.081
Mof_C 	C 	0.9478	0.1791	0.6264	-0.024
Mof_C 	C 	0.3271	0.8176	0.6181	0.355
Mof_H 	H 	0.3222	0.7731	0.7023	0.047
Mof_H 	H 	0.9381	0.2696	0.5661	0.064
Mof_C 	C 	0.9378	0.2545	0.6561	0.315
Mof_O 	O 	0.32532	0.8267	0.5748	-0.323
Mof_O 	O 	0.9364	0.2256	0.6951	-0.344
Mof_Zn	Zn	0.48951	0.02831	0.4451	1.213
Mof_N 	N 	0.46463	0.0559	0.36331	-0.186
Mof_O 	O 	0.54823	0.0623	0.47886	-0.454
Mof_O 	O 	0.48303	0.1543	0.473	-0.459
Mof_O 	O 	0.43825	0.9807	0.44042	-0.469
Mof_O 	O 	0.50196	0.8879	0.44351	-0.464
Mof_C 	C 	0.454	0.156	0.3497	-0.065
Mof_C 	C 	0.49283	0.0315	0.348	-0.092
Mof_C 	C 	0.4284	0.9993	0.3298	-0.068
Mof_C 	C 	0.5722	0.0553	0.5297	0.383
Mof_C 	C 	0.48753	0.1707	0.5192	0.368
Mof_H 	H 	0.4365	0.1756	0.3614	0.044
Mof_H 	H 	0.4781	0.1948	0.3688	0.049
Mof_C 	C 	0.4323	0.1723	0.2869	-0.054
Mof_H 	H 	0.5176	0.0667	0.3708	0.054
Mof_H 	H 	0.499	0.9639	0.354	0.046
Mof_C 	C 	0.475	0.0556	0.288	-0.019
Mof_H 	H 	0.4346	0.9323	0.339	0.044
Mof_H 	H 	0.4085	0.0178	0.3374	0.047
Mof_C 	C 	0.4113	0.014	0.2685	-0.054
Mof_C 	C 	0.61373	0.0881	0.5557	-0.085
Mof_C 	C 	0.4799	0.272	0.5282	-0.067
Mof_N 	N 	0.43404	0.0882	0.26095	-0.212
Mof_H 	H 	0.4449	0.2247	0.2802	0.047
Mof_H 	H 	0.4044	0.1892	0.2717	0.043
Mof_H 	H 	0.476	0.9994	0.2694	-0.012
Mof_H 	H 	0.4911	0.1049	0.2856	0.007
Mof_H 	H 	0.3833	0.0326	0.2497	0.027
Mof_H 	H 	0.4127	0.9545	0.2527	0.009
Mof_C 	C 	0.6274	0.1188	0.5236	-0.075
Mof_C 	C 	0.6388	0.088	0.6115	0.013
Mof_C 	C 	0.4714	0.3445	0.4904	-0.002
Mof_C 	C 	0.4824	0.2928	0.576	-0.072
Mof_Zn	Zn	0.40635	0.10843	0.17627	1.185
Mof_H 	H 	0.6109	0.1185	0.4857	0.071
Mof_C 	C 	0.66632	0.1496	0.5503	0.095
Mof_C 	C 	0.6759	0.1202	0.6375	-0.076
Mof_H 	H 	0.6292	0.0642	0.632	0.034
Mof_H 	H 	0.4715	0.3301	0.4595	0.044
Mof_C 	C 	0.463	0.4368	0.4977	-0.076
Mof_C 	C 	0.4742	0.3871	0.5838	0.077
Mof_H 	H 	0.4892	0.2461	0.6022	0.065
Mof_O 	O 	0.35568	0.1522	0.16277	-0.489
Mof_O 	O 	0.42833	0.1647	0.1365	-0.478
Mof_N 	N 	0.68768	0.1842	0.52968	-0.222
Mof_C 	C 	0.692	0.1541	0.6063	-0.009
Mof_H 	H 	0.6916	0.1213	0.6755	0.057
Mof_H 	H 	0.4559	0.483	0.4711	0.061
Mof_C 	C 	0.4653	0.4585	0.5446	0.004
Mof_N 	N 	0.4728	0.4256	0.6262	-0.213
Mof_H 	H 	0.6786	0.1882	0.4955	0.16
Mof_C 	C 	0.72647	0.2125	0.572	0.094
Mof_C 	C 	0.7303	0.196	0.6223	-0.012
Mof_C 	C 	0.459	0.5471	0.5665	-0.029
Mof_H 	H 	0.4769	0.3958	0.6545	0.121
Mof_C 	C 	0.4633	0.5229	0.6142	0.1
Mof_C 	C 	0.75738	0.2531	0.5702	-0.082
Mof_C 	C 	0.766	0.2212	0.6707	-0.058
Mof_C 	C 	0.4496	0.6388	0.5482	-0.037
Mof_C 	C 	0.4571	0.5849	0.6459	-0.101
Mof_H 	H 	0.7543	0.2656	0.5369	0.073
Mof_C 	C 	0.7924	0.2744	0.6181	-0.057
Mof_C 	C 	0.798	0.2587	0.6701	-0.017
Mof_H 	H 	0.7684	0.2128	0.7038	0.052
Mof_C 	C 	0.4441	0.7067	0.5781	-0.044
Mof_H 	H 	0.4468	0.6559	0.5155	0.05
Mof_H 	H 	0.4588	0.5655	0.6775	0.081
Mof_C 	C 	0.4478	0.6791	0.6264	-0.024
Mof_C 	C 	0.8271	0.3176	0.6181	0.355
Mof_H 	H 	0.8222	0.2731	0.7023	0.047
Mof_H 	H 	0.4381	0.7696	0.5661	0.064
Mof_C 	C 	0.4378	0.7545	0.6561	0.315
Mof_O 	O 	0.82532	0.3267	0.5748	-0.323
Mof_O 	O 	0.4364	0.7256	0.6951	-0.344
_end
