data_functionalizedCrystal
_audit_creation_method	'EQeq! by Chris Wilmer'
_symmetry_space_group_name_H-M	'P1'
_symmetry_Int_Tables_number	1
_symmetry_cell_setting	triclinic
loop_
_symmetry_equiv_pos_as_xyz
  x,y,z
_cell_length_a	20.5223
_cell_length_b	20.5223
_cell_length_c	20.5223
_cell_angle_alpha	90
_cell_angle_beta	90
_cell_angle_gamma	90
loop_
_atom_site_label
_atom_site_type_symbol
_atom_site_fract_x
_atom_site_fract_y
_atom_site_fract_z
_atom_site_charge
Mof_Zn	Zn	0.16283	0.10087	0.64202	1.208
Mof_Zn	Zn	0.27718	0.00549	0.56126	1.198
Mof_Zn	Zn	0.33717	0.89913	0.14202	1.207
Mof_Zn	Zn	0.22282	0.99451	0.06126	1.196
Mof_Zn	Zn	0.83717	0.60087	0.85798	1.208
Mof_Zn	Zn	0.72282	0.50549	0.93874	1.198
Mof_Zn	Zn	0.66283	0.39913	0.35798	1.208
Mof_Zn	Zn	0.77718	0.49451	0.43874	1.198
Mof_Zn	Zn	0.64202	0.16283	0.10087	1.208
Mof_Zn	Zn	0.56126	0.27718	0.00549	1.198
Mof_Zn	Zn	0.14202	0.33717	0.89913	1.207
Mof_Zn	Zn	0.06126	0.22282	0.99451	1.196
Mof_Zn	Zn	0.85798	0.83717	0.60087	1.208
Mof_Zn	Zn	0.93874	0.72282	0.50549	1.198
Mof_Zn	Zn	0.35798	0.66283	0.39913	1.208
Mof_Zn	Zn	0.43874	0.77718	0.49451	1.198
Mof_Zn	Zn	0.10087	0.64202	0.16283	1.208
Mof_Zn	Zn	0.00549	0.56126	0.27718	1.198
Mof_Zn	Zn	0.89913	0.14202	0.33717	1.208
Mof_Zn	Zn	0.99451	0.06126	0.22282	1.197
Mof_Zn	Zn	0.60087	0.85798	0.83717	1.209
Mof_Zn	Zn	0.50549	0.93874	0.72282	1.199
Mof_Zn	Zn	0.39913	0.35798	0.66283	1.209
Mof_Zn	Zn	0.49451	0.43874	0.77718	1.199
Mof_Zn	Zn	0.83717	0.89913	0.35798	1.209
Mof_Zn	Zn	0.72282	0.99451	0.43874	1.199
Mof_Zn	Zn	0.66283	0.10087	0.85798	1.208
Mof_Zn	Zn	0.77718	0.00549	0.93874	1.197
Mof_Zn	Zn	0.16283	0.39913	0.14202	1.209
Mof_Zn	Zn	0.27718	0.49451	0.06126	1.199
Mof_Zn	Zn	0.33717	0.60087	0.64202	1.209
Mof_Zn	Zn	0.22282	0.50549	0.56126	1.199
Mof_Zn	Zn	0.35798	0.83717	0.89913	1.209
Mof_Zn	Zn	0.43874	0.72282	0.99451	1.199
Mof_Zn	Zn	0.85798	0.66283	0.10087	1.208
Mof_Zn	Zn	0.93874	0.77718	0.00549	1.197
Mof_Zn	Zn	0.14202	0.16283	0.39913	1.209
Mof_Zn	Zn	0.06126	0.27718	0.49451	1.199
Mof_Zn	Zn	0.64202	0.33717	0.60087	1.209
Mof_Zn	Zn	0.56126	0.22282	0.50549	1.199
Mof_Zn	Zn	0.89913	0.35798	0.83717	1.209
Mof_Zn	Zn	0.99451	0.43874	0.72282	1.199
Mof_Zn	Zn	0.10087	0.85798	0.66283	1.208
Mof_Zn	Zn	0.00549	0.93874	0.77718	1.197
Mof_Zn	Zn	0.39913	0.14202	0.16283	1.209
Mof_Zn	Zn	0.49451	0.06126	0.27718	1.199
Mof_Zn	Zn	0.60087	0.64202	0.33717	1.209
Mof_Zn	Zn	0.50549	0.56126	0.22282	1.199
Mof_H 	H 	0.3388	0.1926	0.5027	0.088
Mof_H 	H 	0.3781	0.2001	0.6205	0.059
Mof_H 	H 	0.2369	0.3058	0.6109	0.077
Mof_H 	H 	0.3005	0.2928	0.4914	0.08
Mof_H 	H 	0.1612	0.8074	0.0027	0.088
Mof_H 	H 	0.1219	0.7999	0.1205	0.059
Mof_H 	H 	0.2631	0.6942	0.1109	0.077
Mof_H 	H 	0.1995	0.7072	0.9914	0.08
Mof_H 	H 	0.6612	0.6926	0.9973	0.091
Mof_H 	H 	0.6219	0.7001	0.8795	0.058
Mof_H 	H 	0.7631	0.8058	0.8891	0.079
Mof_H 	H 	0.6995	0.7928	0.0086	0.074
Mof_H 	H 	0.8388	0.3074	0.4973	0.088
Mof_H 	H 	0.8781	0.2999	0.3795	0.059
Mof_H 	H 	0.7369	0.1942	0.3891	0.077
Mof_H 	H 	0.8005	0.2072	0.5086	0.08
Mof_H 	H 	0.5027	0.3388	0.1926	0.088
Mof_H 	H 	0.6205	0.3781	0.2001	0.059
Mof_H 	H 	0.6109	0.2369	0.3058	0.077
Mof_H 	H 	0.4914	0.3005	0.2928	0.08
Mof_H 	H 	0.0027	0.1612	0.8074	0.088
Mof_H 	H 	0.1205	0.1219	0.7999	0.059
Mof_H 	H 	0.1109	0.2631	0.6942	0.077
Mof_H 	H 	0.9914	0.1995	0.7072	0.08
Mof_H 	H 	0.9973	0.6612	0.6926	0.091
Mof_H 	H 	0.8795	0.6219	0.7001	0.058
Mof_H 	H 	0.8891	0.7631	0.8058	0.079
Mof_H 	H 	0.0086	0.6995	0.7928	0.074
Mof_H 	H 	0.4973	0.8388	0.3074	0.088
Mof_H 	H 	0.3795	0.8781	0.2999	0.059
Mof_H 	H 	0.3891	0.7369	0.1942	0.077
Mof_H 	H 	0.5086	0.8005	0.2072	0.08
Mof_H 	H 	0.1926	0.5027	0.3388	0.088
Mof_H 	H 	0.2001	0.6205	0.3781	0.059
Mof_H 	H 	0.3058	0.6109	0.2369	0.077
Mof_H 	H 	0.2928	0.4914	0.3005	0.08
Mof_H 	H 	0.8074	0.0027	0.1612	0.088
Mof_H 	H 	0.7999	0.1205	0.1219	0.059
Mof_H 	H 	0.6942	0.1109	0.2631	0.077
Mof_H 	H 	0.7072	0.9914	0.1995	0.08
Mof_H 	H 	0.6926	0.9973	0.6612	0.091
Mof_H 	H 	0.7001	0.8795	0.6219	0.058
Mof_H 	H 	0.8058	0.8891	0.7631	0.079
Mof_H 	H 	0.7928	0.0086	0.6995	0.074
Mof_H 	H 	0.3074	0.4973	0.8388	0.088
Mof_H 	H 	0.2999	0.3795	0.8781	0.059
Mof_H 	H 	0.1942	0.3891	0.7369	0.077
Mof_H 	H 	0.2072	0.5086	0.8005	0.08
Mof_H 	H 	0.6612	0.8074	0.4973	0.088
Mof_H 	H 	0.6219	0.7999	0.3795	0.059
Mof_H 	H 	0.7631	0.6942	0.3891	0.077
Mof_H 	H 	0.6995	0.7072	0.5086	0.08
Mof_H 	H 	0.8388	0.1926	0.9973	0.088
Mof_H 	H 	0.8781	0.2001	0.8795	0.059
Mof_H 	H 	0.7369	0.3058	0.8891	0.077
Mof_H 	H 	0.8005	0.2928	0.0086	0.08
Mof_H 	H 	0.3388	0.3074	0.0027	0.091
Mof_H 	H 	0.3781	0.2999	0.1205	0.058
Mof_H 	H 	0.2369	0.1942	0.1109	0.079
Mof_H 	H 	0.3005	0.2072	0.9914	0.074
Mof_H 	H 	0.1612	0.6926	0.5027	0.088
Mof_H 	H 	0.1219	0.7001	0.6205	0.059
Mof_H 	H 	0.2631	0.8058	0.6109	0.077
Mof_H 	H 	0.1995	0.7928	0.4914	0.08
Mof_H 	H 	0.4973	0.6612	0.8074	0.088
Mof_H 	H 	0.3795	0.6219	0.7999	0.059
Mof_H 	H 	0.3891	0.7631	0.6942	0.077
Mof_H 	H 	0.5086	0.6995	0.7072	0.08
Mof_H 	H 	0.9973	0.8388	0.1926	0.088
Mof_H 	H 	0.8795	0.8781	0.2001	0.059
Mof_H 	H 	0.8891	0.7369	0.3058	0.077
Mof_H 	H 	0.0086	0.8005	0.2928	0.08
Mof_H 	H 	0.0027	0.3388	0.3074	0.091
Mof_H 	H 	0.1205	0.3781	0.2999	0.058
Mof_H 	H 	0.1109	0.2369	0.1942	0.079
Mof_H 	H 	0.9914	0.3005	0.2072	0.074
Mof_H 	H 	0.5027	0.1612	0.6926	0.088
Mof_H 	H 	0.6205	0.1219	0.7001	0.059
Mof_H 	H 	0.6109	0.2631	0.8058	0.077
Mof_H 	H 	0.4914	0.1995	0.7928	0.08
Mof_H 	H 	0.8074	0.4973	0.6612	0.088
Mof_H 	H 	0.7999	0.3795	0.6219	0.059
Mof_H 	H 	0.6942	0.3891	0.7631	0.077
Mof_H 	H 	0.7072	0.5086	0.6995	0.08
Mof_H 	H 	0.1926	0.9973	0.8388	0.088
Mof_H 	H 	0.2001	0.8795	0.8781	0.059
Mof_H 	H 	0.3058	0.8891	0.7369	0.077
Mof_H 	H 	0.2928	0.0086	0.8005	0.08
Mof_H 	H 	0.3074	0.0027	0.3388	0.091
Mof_H 	H 	0.2999	0.1205	0.3781	0.058
Mof_H 	H 	0.1942	0.1109	0.2369	0.079
Mof_H 	H 	0.2072	0.9914	0.3005	0.074
Mof_H 	H 	0.6926	0.5027	0.1612	0.088
Mof_H 	H 	0.7001	0.6205	0.1219	0.059
Mof_H 	H 	0.8058	0.6109	0.2631	0.077
Mof_H 	H 	0.7928	0.4914	0.1995	0.08
Mof_C 	C 	0.31638	0.20876	0.54158	-0.122
Mof_C 	C 	0.36616	0.2355	0.5907	-0.032
Mof_C 	C 	0.2783	0.31038	0.58758	-0.034
Mof_C 	C 	0.27624	0.26881	0.52475	-0.1
Mof_C 	C 	0.27876	0.15341	0.57436	0.426
Mof_C 	C 	0.29074	0.38207	0.57383	0.349
Mof_C 	C 	0.42865	0.2629	0.56111	0.346
Mof_C 	C 	0.20934	0.2534	0.49598	0.401
Mof_C 	C 	0.18362	0.79124	0.04158	-0.122
Mof_C 	C 	0.13384	0.7645	0.0907	-0.032
Mof_C 	C 	0.2217	0.68962	0.08758	-0.034
Mof_C 	C 	0.22376	0.73119	0.02475	-0.099
Mof_C 	C 	0.22124	0.84659	0.07436	0.426
Mof_C 	C 	0.20926	0.61793	0.07383	0.349
Mof_C 	C 	0.07135	0.7371	0.06111	0.346
Mof_C 	C 	0.29066	0.7466	0.99598	0.401
Mof_C 	C 	0.68362	0.70876	0.95842	-0.127
Mof_C 	C 	0.63384	0.7355	0.9093	-0.031
Mof_C 	C 	0.7217	0.81038	0.91242	-0.038
Mof_C 	C 	0.72376	0.76881	0.97525	-0.086
Mof_C 	C 	0.72124	0.65341	0.92564	0.428
Mof_C 	C 	0.70926	0.88207	0.92617	0.351
Mof_C 	C 	0.57135	0.7629	0.93889	0.345
Mof_C 	C 	0.79066	0.7534	0.00402	0.388
Mof_C 	C 	0.81638	0.29124	0.45842	-0.122
Mof_C 	C 	0.86616	0.2645	0.4093	-0.032
Mof_C 	C 	0.7783	0.18962	0.41242	-0.034
Mof_C 	C 	0.77624	0.23119	0.47525	-0.1
Mof_C 	C 	0.77876	0.34659	0.42564	0.426
Mof_C 	C 	0.79074	0.11793	0.42617	0.35
Mof_C 	C 	0.92865	0.2371	0.43889	0.346
Mof_C 	C 	0.70934	0.2466	0.50402	0.4
Mof_C 	C 	0.54158	0.31638	0.20876	-0.122
Mof_C 	C 	0.5907	0.36616	0.2355	-0.032
Mof_C 	C 	0.58758	0.2783	0.31038	-0.034
Mof_C 	C 	0.52475	0.27624	0.26881	-0.1
Mof_C 	C 	0.57436	0.27876	0.15341	0.426
Mof_C 	C 	0.57383	0.29074	0.38207	0.349
Mof_C 	C 	0.56111	0.42865	0.2629	0.346
Mof_C 	C 	0.49598	0.20934	0.2534	0.401
Mof_C 	C 	0.04158	0.18362	0.79124	-0.122
Mof_C 	C 	0.0907	0.13384	0.7645	-0.032
Mof_C 	C 	0.08758	0.2217	0.68962	-0.034
Mof_C 	C 	0.02475	0.22376	0.73119	-0.099
Mof_C 	C 	0.07436	0.22124	0.84659	0.426
Mof_C 	C 	0.07383	0.20926	0.61793	0.349
Mof_C 	C 	0.06111	0.07135	0.7371	0.346
Mof_C 	C 	0.99598	0.29066	0.7466	0.401
Mof_C 	C 	0.95842	0.68362	0.70876	-0.127
Mof_C 	C 	0.9093	0.63384	0.7355	-0.031
Mof_C 	C 	0.91242	0.7217	0.81038	-0.038
Mof_C 	C 	0.97525	0.72376	0.76881	-0.086
Mof_C 	C 	0.92564	0.72124	0.65341	0.428
Mof_C 	C 	0.92617	0.70926	0.88207	0.351
Mof_C 	C 	0.93889	0.57135	0.7629	0.345
Mof_C 	C 	0.00402	0.79066	0.7534	0.388
Mof_C 	C 	0.45842	0.81638	0.29124	-0.122
Mof_C 	C 	0.4093	0.86616	0.2645	-0.032
Mof_C 	C 	0.41242	0.7783	0.18962	-0.034
Mof_C 	C 	0.47525	0.77624	0.23119	-0.1
Mof_C 	C 	0.42564	0.77876	0.34659	0.426
Mof_C 	C 	0.42617	0.79074	0.11793	0.35
Mof_C 	C 	0.43889	0.92865	0.2371	0.346
Mof_C 	C 	0.50402	0.70934	0.2466	0.4
Mof_C 	C 	0.20876	0.54158	0.31638	-0.122
Mof_C 	C 	0.2355	0.5907	0.36616	-0.032
Mof_C 	C 	0.31038	0.58758	0.2783	-0.034
Mof_C 	C 	0.26881	0.52475	0.27624	-0.1
Mof_C 	C 	0.15341	0.57436	0.27876	0.426
Mof_C 	C 	0.38207	0.57383	0.29074	0.349
Mof_C 	C 	0.2629	0.56111	0.42865	0.346
Mof_C 	C 	0.2534	0.49598	0.20934	0.401
Mof_C 	C 	0.79124	0.04158	0.18362	-0.122
Mof_C 	C 	0.7645	0.0907	0.13384	-0.032
Mof_C 	C 	0.68962	0.08758	0.2217	-0.034
Mof_C 	C 	0.73119	0.02475	0.22376	-0.099
Mof_C 	C 	0.84659	0.07436	0.22124	0.426
Mof_C 	C 	0.61793	0.07383	0.20926	0.349
Mof_C 	C 	0.7371	0.06111	0.07135	0.346
Mof_C 	C 	0.7466	0.99598	0.29066	0.401
Mof_C 	C 	0.70876	0.95842	0.68362	-0.127
Mof_C 	C 	0.7355	0.9093	0.63384	-0.031
Mof_C 	C 	0.81038	0.91242	0.7217	-0.038
Mof_C 	C 	0.76881	0.97525	0.72376	-0.086
Mof_C 	C 	0.65341	0.92564	0.72124	0.428
Mof_C 	C 	0.88207	0.92617	0.70926	0.351
Mof_C 	C 	0.7629	0.93889	0.57135	0.345
Mof_C 	C 	0.7534	0.00402	0.79066	0.388
Mof_C 	C 	0.29124	0.45842	0.81638	-0.122
Mof_C 	C 	0.2645	0.4093	0.86616	-0.032
Mof_C 	C 	0.18962	0.41242	0.7783	-0.034
Mof_C 	C 	0.23119	0.47525	0.77624	-0.1
Mof_C 	C 	0.34659	0.42564	0.77876	0.426
Mof_C 	C 	0.11793	0.42617	0.79074	0.35
Mof_C 	C 	0.2371	0.43889	0.92865	0.346
Mof_C 	C 	0.2466	0.50402	0.70934	0.4
Mof_C 	C 	0.68362	0.79124	0.45842	-0.122
Mof_C 	C 	0.63384	0.7645	0.4093	-0.032
Mof_C 	C 	0.7217	0.68962	0.41242	-0.034
Mof_C 	C 	0.72376	0.73119	0.47525	-0.1
Mof_C 	C 	0.72124	0.84659	0.42564	0.426
Mof_C 	C 	0.70926	0.61793	0.42617	0.349
Mof_C 	C 	0.57135	0.7371	0.43889	0.346
Mof_C 	C 	0.79066	0.7466	0.50402	0.401
Mof_C 	C 	0.81638	0.20876	0.95842	-0.122
Mof_C 	C 	0.86616	0.2355	0.9093	-0.032
Mof_C 	C 	0.7783	0.31038	0.91242	-0.034
Mof_C 	C 	0.77624	0.26881	0.97525	-0.099
Mof_C 	C 	0.77876	0.15341	0.92564	0.426
Mof_C 	C 	0.79074	0.38207	0.92617	0.349
Mof_C 	C 	0.92865	0.2629	0.93889	0.346
Mof_C 	C 	0.70934	0.2534	0.00402	0.401
Mof_C 	C 	0.31638	0.29124	0.04158	-0.127
Mof_C 	C 	0.36616	0.2645	0.0907	-0.031
Mof_C 	C 	0.2783	0.18962	0.08758	-0.038
Mof_C 	C 	0.27624	0.23119	0.02475	-0.086
Mof_C 	C 	0.27876	0.34659	0.07436	0.428
Mof_C 	C 	0.29074	0.11793	0.07383	0.351
Mof_C 	C 	0.42865	0.2371	0.06111	0.345
Mof_C 	C 	0.20934	0.2466	0.99598	0.388
Mof_C 	C 	0.18362	0.70876	0.54158	-0.122
Mof_C 	C 	0.13384	0.7355	0.5907	-0.032
Mof_C 	C 	0.2217	0.81038	0.58758	-0.034
Mof_C 	C 	0.22376	0.76881	0.52475	-0.1
Mof_C 	C 	0.22124	0.65341	0.57436	0.426
Mof_C 	C 	0.20926	0.88207	0.57383	0.35
Mof_C 	C 	0.07135	0.7629	0.56111	0.346
Mof_C 	C 	0.29066	0.7534	0.49598	0.4
Mof_C 	C 	0.45842	0.68362	0.79124	-0.122
Mof_C 	C 	0.4093	0.63384	0.7645	-0.032
Mof_C 	C 	0.41242	0.7217	0.68962	-0.034
Mof_C 	C 	0.47525	0.72376	0.73119	-0.1
Mof_C 	C 	0.42564	0.72124	0.84659	0.426
Mof_C 	C 	0.42617	0.70926	0.61793	0.349
Mof_C 	C 	0.43889	0.57135	0.7371	0.346
Mof_C 	C 	0.50402	0.79066	0.7466	0.401
Mof_C 	C 	0.95842	0.81638	0.20876	-0.122
Mof_C 	C 	0.9093	0.86616	0.2355	-0.032
Mof_C 	C 	0.91242	0.7783	0.31038	-0.034
Mof_C 	C 	0.97525	0.77624	0.26881	-0.099
Mof_C 	C 	0.92564	0.77876	0.15341	0.426
Mof_C 	C 	0.92617	0.79074	0.38207	0.349
Mof_C 	C 	0.93889	0.92865	0.2629	0.346
Mof_C 	C 	0.00402	0.70934	0.2534	0.401
Mof_C 	C 	0.04158	0.31638	0.29124	-0.127
Mof_C 	C 	0.0907	0.36616	0.2645	-0.031
Mof_C 	C 	0.08758	0.2783	0.18962	-0.038
Mof_C 	C 	0.02475	0.27624	0.23119	-0.086
Mof_C 	C 	0.07436	0.27876	0.34659	0.428
Mof_C 	C 	0.07383	0.29074	0.11793	0.351
Mof_C 	C 	0.06111	0.42865	0.2371	0.345
Mof_C 	C 	0.99598	0.20934	0.2466	0.388
Mof_C 	C 	0.54158	0.18362	0.70876	-0.122
Mof_C 	C 	0.5907	0.13384	0.7355	-0.032
Mof_C 	C 	0.58758	0.2217	0.81038	-0.034
Mof_C 	C 	0.52475	0.22376	0.76881	-0.1
Mof_C 	C 	0.57436	0.22124	0.65341	0.426
Mof_C 	C 	0.57383	0.20926	0.88207	0.35
Mof_C 	C 	0.56111	0.07135	0.7629	0.346
Mof_C 	C 	0.49598	0.29066	0.7534	0.4
Mof_C 	C 	0.79124	0.45842	0.68362	-0.122
Mof_C 	C 	0.7645	0.4093	0.63384	-0.032
Mof_C 	C 	0.68962	0.41242	0.7217	-0.034
Mof_C 	C 	0.73119	0.47525	0.72376	-0.1
Mof_C 	C 	0.84659	0.42564	0.72124	0.426
Mof_C 	C 	0.61793	0.42617	0.70926	0.349
Mof_C 	C 	0.7371	0.43889	0.57135	0.346
Mof_C 	C 	0.7466	0.50402	0.79066	0.401
Mof_C 	C 	0.20876	0.95842	0.81638	-0.122
Mof_C 	C 	0.2355	0.9093	0.86616	-0.032
Mof_C 	C 	0.31038	0.91242	0.7783	-0.034
Mof_C 	C 	0.26881	0.97525	0.77624	-0.099
Mof_C 	C 	0.15341	0.92564	0.77876	0.426
Mof_C 	C 	0.38207	0.92617	0.79074	0.349
Mof_C 	C 	0.2629	0.93889	0.92865	0.346
Mof_C 	C 	0.2534	0.00402	0.70934	0.401
Mof_C 	C 	0.29124	0.04158	0.31638	-0.127
Mof_C 	C 	0.2645	0.0907	0.36616	-0.031
Mof_C 	C 	0.18962	0.08758	0.2783	-0.038
Mof_C 	C 	0.23119	0.02475	0.27624	-0.086
Mof_C 	C 	0.34659	0.07436	0.27876	0.428
Mof_C 	C 	0.11793	0.07383	0.29074	0.351
Mof_C 	C 	0.2371	0.06111	0.42865	0.345
Mof_C 	C 	0.2466	0.99598	0.20934	0.388
Mof_C 	C 	0.70876	0.54158	0.18362	-0.122
Mof_C 	C 	0.7355	0.5907	0.13384	-0.032
Mof_C 	C 	0.81038	0.58758	0.2217	-0.034
Mof_C 	C 	0.76881	0.52475	0.22376	-0.1
Mof_C 	C 	0.65341	0.57436	0.22124	0.426
Mof_C 	C 	0.88207	0.57383	0.20926	0.35
Mof_C 	C 	0.7629	0.56111	0.07135	0.346
Mof_C 	C 	0.7534	0.49598	0.29066	0.4
Mof_O 	O 	0.22765	0.16639	0.60451	-0.466
Mof_O 	O 	0.30419	0.09908	0.5706	-0.517
Mof_O 	O 	0.24543	0.41045	0.54304	-0.435
Mof_O 	O 	0.3419	0.40845	0.59259	-0.452
Mof_O 	O 	0.44776	0.31826	0.57961	-0.444
Mof_O 	O 	0.45805	0.22745	0.52193	-0.424
Mof_O 	O 	0.21053	0.21397	0.4491	-0.476
Mof_O 	O 	0.15979	0.28095	0.51853	-0.467
Mof_O 	O 	0.33076	0.28392	0.62742	-0.264
Mof_O 	O 	0.27235	0.83361	0.10451	-0.467
Mof_O 	O 	0.19581	0.90092	0.0706	-0.519
Mof_O 	O 	0.25457	0.58955	0.04304	-0.435
Mof_O 	O 	0.1581	0.59155	0.09259	-0.452
Mof_O 	O 	0.05224	0.68174	0.07961	-0.444
Mof_O 	O 	0.04195	0.77255	0.02193	-0.424
Mof_O 	O 	0.28947	0.78603	0.9491	-0.476
Mof_O 	O 	0.34021	0.71905	0.01853	-0.467
Mof_O 	O 	0.16924	0.71608	0.12742	-0.264
Mof_O 	O 	0.77235	0.66639	0.89549	-0.466
Mof_O 	O 	0.69581	0.59908	0.9294	-0.518
Mof_O 	O 	0.75457	0.91045	0.95696	-0.433
Mof_O 	O 	0.6581	0.90845	0.90741	-0.451
Mof_O 	O 	0.55224	0.81826	0.92039	-0.444
Mof_O 	O 	0.54195	0.72745	0.97807	-0.423
Mof_O 	O 	0.78947	0.71397	0.0509	-0.473
Mof_O 	O 	0.84021	0.78095	0.98147	-0.459
Mof_O 	O 	0.66924	0.78392	0.87258	-0.263
Mof_O 	O 	0.72765	0.33361	0.39549	-0.466
Mof_O 	O 	0.80419	0.40092	0.4294	-0.518
Mof_O 	O 	0.74543	0.08955	0.45696	-0.436
Mof_O 	O 	0.8419	0.09155	0.40741	-0.453
Mof_O 	O 	0.94776	0.18174	0.42039	-0.445
Mof_O 	O 	0.95805	0.27255	0.47807	-0.425
Mof_O 	O 	0.71053	0.28603	0.5509	-0.476
Mof_O 	O 	0.65979	0.21905	0.48147	-0.467
Mof_O 	O 	0.83076	0.21608	0.37258	-0.264
Mof_O 	O 	0.60451	0.22765	0.16639	-0.466
Mof_O 	O 	0.5706	0.30419	0.09908	-0.517
Mof_O 	O 	0.54304	0.24543	0.41045	-0.435
Mof_O 	O 	0.59259	0.3419	0.40845	-0.452
Mof_O 	O 	0.57961	0.44776	0.31826	-0.444
Mof_O 	O 	0.52193	0.45805	0.22745	-0.424
Mof_O 	O 	0.4491	0.21053	0.21397	-0.476
Mof_O 	O 	0.51853	0.15979	0.28095	-0.467
Mof_O 	O 	0.62742	0.33076	0.28392	-0.264
Mof_O 	O 	0.10451	0.27235	0.83361	-0.467
Mof_O 	O 	0.0706	0.19581	0.90092	-0.519
Mof_O 	O 	0.04304	0.25457	0.58955	-0.435
Mof_O 	O 	0.09259	0.1581	0.59155	-0.452
Mof_O 	O 	0.07961	0.05224	0.68174	-0.444
Mof_O 	O 	0.02193	0.04195	0.77255	-0.424
Mof_O 	O 	0.9491	0.28947	0.78603	-0.476
Mof_O 	O 	0.01853	0.34021	0.71905	-0.467
Mof_O 	O 	0.12742	0.16924	0.71608	-0.264
Mof_O 	O 	0.89549	0.77235	0.66639	-0.466
Mof_O 	O 	0.9294	0.69581	0.59908	-0.518
Mof_O 	O 	0.95696	0.75457	0.91045	-0.433
Mof_O 	O 	0.90741	0.6581	0.90845	-0.451
Mof_O 	O 	0.92039	0.55224	0.81826	-0.444
Mof_O 	O 	0.97807	0.54195	0.72745	-0.423
Mof_O 	O 	0.0509	0.78947	0.71397	-0.473
Mof_O 	O 	0.98147	0.84021	0.78095	-0.459
Mof_O 	O 	0.87258	0.66924	0.78392	-0.263
Mof_O 	O 	0.39549	0.72765	0.33361	-0.466
Mof_O 	O 	0.4294	0.80419	0.40092	-0.518
Mof_O 	O 	0.45696	0.74543	0.08955	-0.436
Mof_O 	O 	0.40741	0.8419	0.09155	-0.453
Mof_O 	O 	0.42039	0.94776	0.18174	-0.445
Mof_O 	O 	0.47807	0.95805	0.27255	-0.425
Mof_O 	O 	0.5509	0.71053	0.28603	-0.476
Mof_O 	O 	0.48147	0.65979	0.21905	-0.467
Mof_O 	O 	0.37258	0.83076	0.21608	-0.264
Mof_O 	O 	0.16639	0.60451	0.22765	-0.466
Mof_O 	O 	0.09908	0.5706	0.30419	-0.517
Mof_O 	O 	0.41045	0.54304	0.24543	-0.435
Mof_O 	O 	0.40845	0.59259	0.3419	-0.452
Mof_O 	O 	0.31826	0.57961	0.44776	-0.444
Mof_O 	O 	0.22745	0.52193	0.45805	-0.424
Mof_O 	O 	0.21397	0.4491	0.21053	-0.476
Mof_O 	O 	0.28095	0.51853	0.15979	-0.467
Mof_O 	O 	0.28392	0.62742	0.33076	-0.264
Mof_O 	O 	0.83361	0.10451	0.27235	-0.467
Mof_O 	O 	0.90092	0.0706	0.19581	-0.519
Mof_O 	O 	0.58955	0.04304	0.25457	-0.435
Mof_O 	O 	0.59155	0.09259	0.1581	-0.452
Mof_O 	O 	0.68174	0.07961	0.05224	-0.444
Mof_O 	O 	0.77255	0.02193	0.04195	-0.424
Mof_O 	O 	0.78603	0.9491	0.28947	-0.476
Mof_O 	O 	0.71905	0.01853	0.34021	-0.467
Mof_O 	O 	0.71608	0.12742	0.16924	-0.264
Mof_O 	O 	0.66639	0.89549	0.77235	-0.466
Mof_O 	O 	0.59908	0.9294	0.69581	-0.518
Mof_O 	O 	0.91045	0.95696	0.75457	-0.433
Mof_O 	O 	0.90845	0.90741	0.6581	-0.451
Mof_O 	O 	0.81826	0.92039	0.55224	-0.444
Mof_O 	O 	0.72745	0.97807	0.54195	-0.423
Mof_O 	O 	0.71397	0.0509	0.78947	-0.473
Mof_O 	O 	0.78095	0.98147	0.84021	-0.459
Mof_O 	O 	0.78392	0.87258	0.66924	-0.263
Mof_O 	O 	0.33361	0.39549	0.72765	-0.466
Mof_O 	O 	0.40092	0.4294	0.80419	-0.518
Mof_O 	O 	0.08955	0.45696	0.74543	-0.436
Mof_O 	O 	0.09155	0.40741	0.8419	-0.453
Mof_O 	O 	0.18174	0.42039	0.94776	-0.445
Mof_O 	O 	0.27255	0.47807	0.95805	-0.425
Mof_O 	O 	0.28603	0.5509	0.71053	-0.476
Mof_O 	O 	0.21905	0.48147	0.65979	-0.467
Mof_O 	O 	0.21608	0.37258	0.83076	-0.264
Mof_O 	O 	0.77235	0.83361	0.39549	-0.466
Mof_O 	O 	0.69581	0.90092	0.4294	-0.517
Mof_O 	O 	0.75457	0.58955	0.45696	-0.435
Mof_O 	O 	0.6581	0.59155	0.40741	-0.452
Mof_O 	O 	0.55224	0.68174	0.42039	-0.444
Mof_O 	O 	0.54195	0.77255	0.47807	-0.424
Mof_O 	O 	0.78947	0.78603	0.5509	-0.476
Mof_O 	O 	0.84021	0.71905	0.48147	-0.467
Mof_O 	O 	0.66924	0.71608	0.37258	-0.264
Mof_O 	O 	0.72765	0.16639	0.89549	-0.467
Mof_O 	O 	0.80419	0.09908	0.9294	-0.519
Mof_O 	O 	0.74543	0.41045	0.95696	-0.435
Mof_O 	O 	0.8419	0.40845	0.90741	-0.452
Mof_O 	O 	0.94776	0.31826	0.92039	-0.444
Mof_O 	O 	0.95805	0.22745	0.97807	-0.424
Mof_O 	O 	0.71053	0.21397	0.0509	-0.476
Mof_O 	O 	0.65979	0.28095	0.98147	-0.467
Mof_O 	O 	0.83076	0.28392	0.87258	-0.264
Mof_O 	O 	0.22765	0.33361	0.10451	-0.466
Mof_O 	O 	0.30419	0.40092	0.0706	-0.518
Mof_O 	O 	0.24543	0.08955	0.04304	-0.433
Mof_O 	O 	0.3419	0.09155	0.09259	-0.451
Mof_O 	O 	0.44776	0.18174	0.07961	-0.444
Mof_O 	O 	0.45805	0.27255	0.02193	-0.423
Mof_O 	O 	0.21053	0.28603	0.9491	-0.473
Mof_O 	O 	0.15979	0.21905	0.01853	-0.459
Mof_O 	O 	0.33076	0.21608	0.12742	-0.263
Mof_O 	O 	0.27235	0.66639	0.60451	-0.466
Mof_O 	O 	0.19581	0.59908	0.5706	-0.518
Mof_O 	O 	0.25457	0.91045	0.54304	-0.436
Mof_O 	O 	0.1581	0.90845	0.59259	-0.453
Mof_O 	O 	0.05224	0.81826	0.57961	-0.445
Mof_O 	O 	0.04195	0.72745	0.52193	-0.425
Mof_O 	O 	0.28947	0.71397	0.4491	-0.476
Mof_O 	O 	0.34021	0.78095	0.51853	-0.467
Mof_O 	O 	0.16924	0.78392	0.62742	-0.264
Mof_O 	O 	0.39549	0.77235	0.83361	-0.466
Mof_O 	O 	0.4294	0.69581	0.90092	-0.517
Mof_O 	O 	0.45696	0.75457	0.58955	-0.435
Mof_O 	O 	0.40741	0.6581	0.59155	-0.452
Mof_O 	O 	0.42039	0.55224	0.68174	-0.444
Mof_O 	O 	0.47807	0.54195	0.77255	-0.424
Mof_O 	O 	0.5509	0.78947	0.78603	-0.476
Mof_O 	O 	0.48147	0.84021	0.71905	-0.467
Mof_O 	O 	0.37258	0.66924	0.71608	-0.264
Mof_O 	O 	0.89549	0.72765	0.16639	-0.467
Mof_O 	O 	0.9294	0.80419	0.09908	-0.519
Mof_O 	O 	0.95696	0.74543	0.41045	-0.435
Mof_O 	O 	0.90741	0.8419	0.40845	-0.452
Mof_O 	O 	0.92039	0.94776	0.31826	-0.444
Mof_O 	O 	0.97807	0.95805	0.22745	-0.424
Mof_O 	O 	0.0509	0.71053	0.21397	-0.476
Mof_O 	O 	0.98147	0.65979	0.28095	-0.467
Mof_O 	O 	0.87258	0.83076	0.28392	-0.264
Mof_O 	O 	0.10451	0.22765	0.33361	-0.466
Mof_O 	O 	0.0706	0.30419	0.40092	-0.518
Mof_O 	O 	0.04304	0.24543	0.08955	-0.433
Mof_O 	O 	0.09259	0.3419	0.09155	-0.451
Mof_O 	O 	0.07961	0.44776	0.18174	-0.444
Mof_O 	O 	0.02193	0.45805	0.27255	-0.423
Mof_O 	O 	0.9491	0.21053	0.28603	-0.473
Mof_O 	O 	0.01853	0.15979	0.21905	-0.459
Mof_O 	O 	0.12742	0.33076	0.21608	-0.263
Mof_O 	O 	0.60451	0.27235	0.66639	-0.466
Mof_O 	O 	0.5706	0.19581	0.59908	-0.518
Mof_O 	O 	0.54304	0.25457	0.91045	-0.436
Mof_O 	O 	0.59259	0.1581	0.90845	-0.453
Mof_O 	O 	0.57961	0.05224	0.81826	-0.445
Mof_O 	O 	0.52193	0.04195	0.72745	-0.425
Mof_O 	O 	0.4491	0.28947	0.71397	-0.476
Mof_O 	O 	0.51853	0.34021	0.78095	-0.467
Mof_O 	O 	0.62742	0.16924	0.78392	-0.264
Mof_O 	O 	0.83361	0.39549	0.77235	-0.466
Mof_O 	O 	0.90092	0.4294	0.69581	-0.517
Mof_O 	O 	0.58955	0.45696	0.75457	-0.435
Mof_O 	O 	0.59155	0.40741	0.6581	-0.452
Mof_O 	O 	0.68174	0.42039	0.55224	-0.444
Mof_O 	O 	0.77255	0.47807	0.54195	-0.424
Mof_O 	O 	0.78603	0.5509	0.78947	-0.476
Mof_O 	O 	0.71905	0.48147	0.84021	-0.467
Mof_O 	O 	0.71608	0.37258	0.66924	-0.264
Mof_O 	O 	0.16639	0.89549	0.72765	-0.467
Mof_O 	O 	0.09908	0.9294	0.80419	-0.519
Mof_O 	O 	0.41045	0.95696	0.74543	-0.435
Mof_O 	O 	0.40845	0.90741	0.8419	-0.452
Mof_O 	O 	0.31826	0.92039	0.94776	-0.444
Mof_O 	O 	0.22745	0.97807	0.95805	-0.424
Mof_O 	O 	0.21397	0.0509	0.71053	-0.476
Mof_O 	O 	0.28095	0.98147	0.65979	-0.467
Mof_O 	O 	0.28392	0.87258	0.83076	-0.264
Mof_O 	O 	0.33361	0.10451	0.22765	-0.466
Mof_O 	O 	0.40092	0.0706	0.30419	-0.518
Mof_O 	O 	0.08955	0.04304	0.24543	-0.433
Mof_O 	O 	0.09155	0.09259	0.3419	-0.451
Mof_O 	O 	0.18174	0.07961	0.44776	-0.444
Mof_O 	O 	0.27255	0.02193	0.45805	-0.423
Mof_O 	O 	0.28603	0.9491	0.21053	-0.473
Mof_O 	O 	0.21905	0.01853	0.15979	-0.459
Mof_O 	O 	0.21608	0.12742	0.33076	-0.263
Mof_O 	O 	0.66639	0.60451	0.27235	-0.466
Mof_O 	O 	0.59908	0.5706	0.19581	-0.518
Mof_O 	O 	0.91045	0.54304	0.25457	-0.436
Mof_O 	O 	0.90845	0.59259	0.1581	-0.453
Mof_O 	O 	0.81826	0.57961	0.05224	-0.445
Mof_O 	O 	0.72745	0.52193	0.04195	-0.425
Mof_O 	O 	0.71397	0.4491	0.28947	-0.476
Mof_O 	O 	0.78095	0.51853	0.34021	-0.467
Mof_O 	O 	0.78392	0.62742	0.16924	-0.264
_end
