data_functionalizedCrystal
_audit_creation_method	'EQeq! by Chris Wilmer'
_symmetry_space_group_name_H-M	'P1'
_symmetry_Int_Tables_number	1
_symmetry_cell_setting	triclinic
loop_
_symmetry_equiv_pos_as_xyz
  x,y,z
_cell_length_a	7.306
_cell_length_b	10.205
_cell_length_c	18.111
_cell_angle_alpha	90
_cell_angle_beta	90
_cell_angle_gamma	94.248
loop_
_atom_site_label
_atom_site_type_symbol
_atom_site_fract_x
_atom_site_fract_y
_atom_site_fract_z
_atom_site_charge
Mof_Cu	Cu	0.86458	0.21589	0.90528	0.92
Mof_Cu	Cu	0.03948	0.92978	0.93159	0.936
Mof_Cu	Cu	0.63542	0.28411	0.40528	0.918
Mof_Cu	Cu	0.46052	0.57022	0.43159	0.94
Mof_Cu	Cu	0.13542	0.78411	0.09472	0.919
Mof_Cu	Cu	0.96052	0.07022	0.06841	0.935
Mof_Cu	Cu	0.36458	0.71589	0.59472	0.918
Mof_Cu	Cu	0.53948	0.42978	0.56841	0.94
Mof_H 	H 	0.7794	0.1647	0.6919	0.047
Mof_H 	H 	0.9358	0.7973	0.707	0.034
Mof_H 	H 	0.7725	0.9368	0.5107	0.029
Mof_H 	H 	0.7206	0.3353	0.1919	0.044
Mof_H 	H 	0.5642	0.7027	0.207	0.032
Mof_H 	H 	0.7275	0.5632	0.0107	0.029
Mof_H 	H 	0.2206	0.8353	0.3081	0.047
Mof_H 	H 	0.0642	0.2027	0.293	0.034
Mof_H 	H 	0.2275	0.0632	0.4893	0.029
Mof_H 	H 	0.2794	0.6647	0.8081	0.044
Mof_H 	H 	0.4358	0.2973	0.793	0.032
Mof_H 	H 	0.2725	0.4368	0.9893	0.029
Mof_C 	C 	0.8586	0.8483	0.604	-0.15
Mof_C 	C 	0.766	0.0691	0.5951	-0.136
Mof_C 	C 	0.7999	0.085	0.6696	0.067
Mof_C 	C 	0.8639	0.9847	0.712	-0.123
Mof_C 	C 	0.8992	0.0092	0.7924	0.38
Mof_C 	C 	0.8933	0.8653	0.6792	0.065
Mof_C 	C 	0.795	0.9491	0.5608	0.066
Mof_C 	C 	0.6942	0.18	0.553	0.404
Mof_C 	C 	0.6414	0.6517	0.104	-0.151
Mof_C 	C 	0.734	0.4309	0.0951	-0.135
Mof_C 	C 	0.7001	0.415	0.1696	0.075
Mof_C 	C 	0.6361	0.5153	0.212	-0.133
Mof_C 	C 	0.6008	0.4908	0.2924	0.39
Mof_C 	C 	0.6067	0.6347	0.1792	0.069
Mof_C 	C 	0.705	0.5509	0.0608	0.064
Mof_C 	C 	0.8058	0.32	0.053	0.4
Mof_C 	C 	0.1414	0.1517	0.396	-0.15
Mof_C 	C 	0.234	0.9309	0.4049	-0.136
Mof_C 	C 	0.2001	0.915	0.3304	0.067
Mof_C 	C 	0.1361	0.0153	0.288	-0.123
Mof_C 	C 	0.1008	0.9908	0.2076	0.38
Mof_C 	C 	0.1067	0.1347	0.3208	0.065
Mof_C 	C 	0.205	0.0509	0.4392	0.066
Mof_C 	C 	0.3058	0.82	0.447	0.404
Mof_C 	C 	0.3586	0.3483	0.896	-0.151
Mof_C 	C 	0.266	0.5691	0.9049	-0.135
Mof_C 	C 	0.2999	0.585	0.8304	0.075
Mof_C 	C 	0.3639	0.4847	0.788	-0.133
Mof_C 	C 	0.3992	0.5092	0.7076	0.39
Mof_C 	C 	0.3933	0.3653	0.8208	0.069
Mof_C 	C 	0.295	0.4491	0.9392	0.064
Mof_C 	C 	0.1942	0.68	0.947	0.4
Mof_S 	S 	0.8761	0.69042	0.56509	0.548
Mof_S 	S 	0.6239	0.80958	0.06509	0.546
Mof_S 	S 	0.1239	0.30958	0.43491	0.548
Mof_S 	S 	0.3761	0.19042	0.93491	0.546
Mof_O 	O 	0.9441	0.9144	0.83217	-0.375
Mof_O 	O 	0.8697	0.0583	0.96558	-0.486
Mof_O 	O 	0.656	0.1617	0.4862	-0.432
Mof_O 	O 	0.8775	0.1243	0.8135	-0.413
Mof_O 	O 	0.8595	0.7006	0.4869	-0.287
Mof_O 	O 	0.6778	0.2824	0.5892	-0.4
Mof_O 	O 	0.7262	0.6111	0.5988	-0.374
Mof_O 	O 	0.0484	0.6471	0.5915	-0.318
Mof_O 	O 	0.5559	0.5856	0.33217	-0.382
Mof_O 	O 	0.6303	0.4417	0.46558	-0.488
Mof_O 	O 	0.844	0.3383	0.9862	-0.428
Mof_O 	O 	0.6225	0.3757	0.3135	-0.416
Mof_O 	O 	0.6405	0.7994	0.9869	-0.287
Mof_O 	O 	0.8222	0.2176	0.0892	-0.401
Mof_O 	O 	0.7738	0.8889	0.0988	-0.372
Mof_O 	O 	0.4516	0.8529	0.0915	-0.315
Mof_O 	O 	0.0559	0.0856	0.16783	-0.375
Mof_O 	O 	0.1303	0.9417	0.03442	-0.486
Mof_O 	O 	0.344	0.8383	0.5138	-0.432
Mof_O 	O 	0.1225	0.8757	0.1865	-0.413
Mof_O 	O 	0.1405	0.2994	0.5131	-0.287
Mof_O 	O 	0.3222	0.7176	0.4108	-0.4
Mof_O 	O 	0.2738	0.3889	0.4012	-0.374
Mof_O 	O 	0.9516	0.3529	0.4085	-0.318
Mof_O 	O 	0.4441	0.4144	0.66783	-0.382
Mof_O 	O 	0.3697	0.5583	0.53442	-0.488
Mof_O 	O 	0.156	0.6617	0.0138	-0.428
Mof_O 	O 	0.3775	0.6243	0.6865	-0.416
Mof_O 	O 	0.3595	0.2006	0.0131	-0.287
Mof_O 	O 	0.1778	0.7824	0.9108	-0.401
Mof_O 	O 	0.2262	0.1111	0.9012	-0.372
Mof_O 	O 	0.5484	0.1471	0.9085	-0.315
_end
