# CIF file generated by openbabel 3.1.0, see https://openbabel.org
data_I
_chemical_name_common 'image0'
_cell_length_a 11.09
_cell_length_b 11.32
_cell_length_c 16.243
_cell_angle_alpha 74.94
_cell_angle_beta 82.76
_cell_angle_gamma 75.06
_space_group_name_H-M_alt 'P 1'
_space_group_name_Hall 'P 1'
loop_
    _symmetry_equiv_pos_as_xyz
    x,y,z
loop_
    _atom_site_label
    _atom_site_type_symbol
    _atom_site_fract_x
    _atom_site_fract_y
    _atom_site_fract_z
    _atom_site_occupancy
    O1       O        0.35210    0.43380    0.00730    1.000
    O2       O        0.52120    0.42230    0.91640    1.000
    O3       O        0.92510    0.50140    0.76170    1.000
    O4       O        0.93090    0.48000    0.89910    1.000
    C1       C        0.12390    0.43650    0.81640    1.000
    O5       O        0.85920    0.78840    0.72730    1.000
    O6       O        0.72360    0.70450    0.82430    1.000
    C2       C        0.77810    0.79070    0.78740    1.000
    C3       C        0.73410    0.91280    0.81740    1.000
    C4       C        0.77710    0.01950    0.77110    1.000
    H1       H        0.83120    0.01550    0.72280    1.000
    C5       C        0.65390    0.91700    0.88800    1.000
    H2       H        0.62510    0.84620    0.91700    1.000
    O7       O        0.29760    0.33420    0.35430    1.000
    O8       O        0.43600    0.40340    0.25080    1.000
    C6       C        0.40360    0.36100    0.32790    1.000
    C7       C        0.40740    0.42430    0.93480    1.000
    Nd1      Nd       0.08707    0.34091    0.37296    1.000
    Nd2      Nd       0.70867    0.49371    0.86533    1.000
    O9       O        0.88670    0.38290    0.45750    1.000
    O10      O        0.87670    0.31750    0.34660    1.000
    O11      O        0.74230    0.34570    0.78350    1.000
    N1       N        0.36110    0.36030    0.64600    1.000
    O12      O        0.85760    0.24170    0.69010    1.000
    C8       C        0.78570    0.24640    0.75480    1.000
    C9       C        0.82530    0.34550    0.41430    1.000
    N2       N        0.47740    0.35010    0.62960    1.000
    C10      C        0.48720    0.34510    0.39800    1.000
    C11      C        0.19940    0.43900    0.88130    1.000
    H3       H        0.16250    0.45520    0.93320    1.000
    C12      C        0.61280    0.34360    0.37630    1.000
    H4       H        0.64380    0.34550    0.32010    1.000
    N3       N        0.52440    0.04580    0.98460    1.000
    C13      C        0.44000    0.34410    0.48070    1.000
    H5       H        0.35590    0.34530    0.49540    1.000
    C14      C        0.65830    0.13470    0.87000    1.000
    H6       H        0.63240    0.20920    0.88820    1.000
    C15      C        0.51920    0.34110    0.54340    1.000
    C16      C        0.61460    0.02840    0.91710    1.000
    C17      C        0.69420    0.33940    0.43750    1.000
    C18      C        0.31580    0.38020    0.72840    1.000
    C19      C        0.38870    0.38820    0.79220    1.000
    H7       H        0.47530    0.37420    0.78390    1.000
    C20      C        0.64520    0.34020    0.52270    1.000
    H8       H        0.69640    0.34010    0.56390    1.000
    C21      C        0.32890    0.41650    0.86550    1.000
    C22      C        0.73750    0.13150    0.79860    1.000
    C23      C        0.18790    0.40400    0.74070    1.000
    H9       H        0.14160    0.39870    0.69840    1.000
    C24      C        0.98740    0.47700    0.82880    1.000
    O13      O        0.64790    0.56620    0.99270    1.000
    O14      O        0.47880    0.57770    0.08360    1.000
    O15      O        0.07490    0.49860    0.23830    1.000
    O16      O        0.06910    0.52000    0.10090    1.000
    C25      C        0.87610    0.56350    0.18360    1.000
    O17      O        0.14080    0.21160    0.27270    1.000
    O18      O        0.27640    0.29550    0.17570    1.000
    C26      C        0.22190    0.20930    0.21260    1.000
    C27      C        0.26590    0.08720    0.18260    1.000
    C28      C        0.22290    0.98050    0.22890    1.000
    H10      H        0.16880    0.98450    0.27720    1.000
    C29      C        0.34610    0.08300    0.11200    1.000
    H11      H        0.37490    0.15380    0.08300    1.000
    O19      O        0.70240    0.66580    0.64570    1.000
    O20      O        0.56400    0.59660    0.74920    1.000
    C30      C        0.59640    0.63900    0.67210    1.000
    C31      C        0.59260    0.57570    0.06520    1.000
    Nd3      Nd       0.91293    0.65909    0.62704    1.000
    Nd4      Nd       0.29133    0.50629    0.13467    1.000
    O21      O        0.11330    0.61710    0.54250    1.000
    O22      O        0.12330    0.68250    0.65340    1.000
    O23      O        0.25770    0.65430    0.21650    1.000
    N4       N        0.63890    0.63970    0.35400    1.000
    O24      O        0.14240    0.75830    0.30990    1.000
    C32      C        0.21430    0.75360    0.24520    1.000
    C33      C        0.17470    0.65450    0.58570    1.000
    N5       N        0.52260    0.64990    0.37040    1.000
    C34      C        0.51280    0.65490    0.60200    1.000
    C35      C        0.80060    0.56100    0.11870    1.000
    H12      H        0.83750    0.54480    0.06680    1.000
    C36      C        0.38720    0.65640    0.62370    1.000
    H13      H        0.35620    0.65450    0.67990    1.000
    N6       N        0.47560    0.95420    0.01540    1.000
    C37      C        0.56000    0.65590    0.51930    1.000
    H14      H        0.64410    0.65470    0.50460    1.000
    C38      C        0.34170    0.86530    0.13000    1.000
    H15      H        0.36760    0.79080    0.11180    1.000
    C39      C        0.48080    0.65890    0.45660    1.000
    C40      C        0.38540    0.97160    0.08290    1.000
    C41      C        0.30580    0.66060    0.56250    1.000
    C42      C        0.68420    0.61980    0.27160    1.000
    C43      C        0.61130    0.61180    0.20780    1.000
    H16      H        0.52470    0.62580    0.21610    1.000
    C44      C        0.35480    0.65980    0.47730    1.000
    H17      H        0.30360    0.65990    0.43610    1.000
    C45      C        0.67110    0.58350    0.13450    1.000
    C46      C        0.26250    0.86850    0.20140    1.000
    C47      C        0.81210    0.59600    0.25930    1.000
    H18      H        0.85840    0.60130    0.30160    1.000
    C48      C        0.01260    0.52300    0.17120    1.000
