data_functionalizedCrystal
_audit_creation_method	'EQeq! by Chris Wilmer'
_symmetry_space_group_name_H-M	'P1'
_symmetry_Int_Tables_number	1
_symmetry_cell_setting	triclinic
loop_
_symmetry_equiv_pos_as_xyz
  x,y,z
_cell_length_a	7.977
_cell_length_b	9.2821
_cell_length_c	15.8519
_cell_angle_alpha	85.3868
_cell_angle_beta	79.212
_cell_angle_gamma	64.5516
loop_
_atom_site_label
_atom_site_type_symbol
_atom_site_fract_x
_atom_site_fract_y
_atom_site_fract_z
_atom_site_charge
Mof_Zn	Zn	0.25056	0.35124	0.50431	1.189
Mof_Zn	Zn	0.3982	0.35124	0.99569	1.189
Mof_Zn	Zn	0.74944	0.64876	0.49569	1.188
Mof_Zn	Zn	0.6018	0.64876	0.00431	1.188
Mof_Zn	Zn	0.93553	0.12894	0.25	1.203
Mof_Zn	Zn	0.06447	0.87106	0.75	1.203
Mof_H 	H 	0.8302	0.2088	0.5945	0.021
Mof_H 	H 	0.394	0.0964	0.3652	0.172
Mof_H 	H 	0.3169	0.045	0.3006	0.167
Mof_H 	H 	0.7187	0.4408	0.358	-0.039
Mof_H 	H 	0.961	0.2088	0.9055	0.022
Mof_H 	H 	0.5096	0.0964	0.1348	0.172
Mof_H 	H 	0.6381	0.045	0.1994	0.165
Mof_H 	H 	0.8405	0.4408	0.142	-0.039
Mof_H 	H 	0.1698	0.7912	0.4055	0.021
Mof_H 	H 	0.606	0.9036	0.6348	0.172
Mof_H 	H 	0.6831	0.955	0.6994	0.167
Mof_H 	H 	0.2813	0.5592	0.642	-0.039
Mof_H 	H 	0.039	0.7912	0.0945	0.022
Mof_H 	H 	0.4904	0.9036	0.8652	0.172
Mof_H 	H 	0.3619	0.955	0.8006	0.165
Mof_H 	H 	0.1595	0.5592	0.858	-0.039
Mof_C 	C 	0.6008	0.19	0.5014	0.291
Mof_C 	C 	0.8993	0.1244	0.5562	-0.004
Mof_C 	C 	0.9114	0.9632	0.4419	-0.133
Mof_C 	C 	0.8076	0.0908	0.4988	-0.053
Mof_C 	C 	0.1309	0.2338	0.3633	0.201
Mof_C 	C 	0.8416	0.3928	0.3688	0.102
Mof_C 	C 	0.8313	0.9154	0.3758	0.393
Mof_C 	C 	0.2092	0.19	0.9986	0.284
Mof_C 	C 	0.9763	0.1244	0.9438	-0.004
Mof_C 	C 	0.1254	0.9632	0.0581	-0.146
Mof_C 	C 	0.1016	0.0908	0.0012	-0.036
Mof_C 	C 	0.6353	0.2338	0.1367	0.197
Mof_C 	C 	0.7656	0.3928	0.1312	0.102
Mof_C 	C 	0.2533	0.9154	0.1242	0.396
Mof_C 	C 	0.3992	0.81	0.4986	0.291
Mof_C 	C 	0.1007	0.8756	0.4438	-0.004
Mof_C 	C 	0.0886	0.0368	0.5581	-0.133
Mof_C 	C 	0.1924	0.9092	0.5012	-0.053
Mof_C 	C 	0.8691	0.7662	0.6367	0.201
Mof_C 	C 	0.1584	0.6072	0.6312	0.102
Mof_C 	C 	0.1687	0.0846	0.6242	0.393
Mof_C 	C 	0.7908	0.81	0.0014	0.284
Mof_C 	C 	0.0237	0.8756	0.0562	-0.004
Mof_C 	C 	0.8746	0.0368	0.9419	-0.146
Mof_C 	C 	0.8984	0.9092	0.9988	-0.036
Mof_C 	C 	0.3647	0.7662	0.8633	0.197
Mof_C 	C 	0.2344	0.6072	0.8688	0.102
Mof_C 	C 	0.7467	0.0846	0.8758	0.396
Mof_N 	N 	0.0904	0.3418	0.4237	-0.278
Mof_N 	N 	0.3014	0.11	0.3402	-0.355
Mof_N 	N 	0.9772	0.2616	0.3277	-0.31
Mof_N 	N 	0.902	0.4454	0.4259	-0.254
Mof_N 	N 	0.5678	0.3418	0.0763	-0.278
Mof_N 	N 	0.5886	0.11	0.1598	-0.354
Mof_N 	N 	0.7612	0.2616	0.1723	-0.309
Mof_N 	N 	0.6526	0.4454	0.0741	-0.254
Mof_N 	N 	0.9096	0.6582	0.5763	-0.278
Mof_N 	N 	0.6986	0.89	0.6598	-0.355
Mof_N 	N 	0.0228	0.7384	0.6723	-0.31
Mof_N 	N 	0.098	0.5546	0.5741	-0.254
Mof_N 	N 	0.4322	0.6582	0.9237	-0.278
Mof_N 	N 	0.4114	0.89	0.8402	-0.354
Mof_N 	N 	0.2388	0.7384	0.8277	-0.309
Mof_N 	N 	0.3474	0.5546	0.9259	-0.254
Mof_O 	O 	0.5159	0.1558	0.4528	-0.413
Mof_O 	O 	0.5147	0.3056	0.5518	-0.397
Mof_O 	O 	0.79	0.7986	0.3908	-0.424
Mof_O 	O 	0.8253	0.9836	0.3033	-0.477
Mof_O 	O 	0.3283	0.1558	0.0472	-0.408
Mof_O 	O 	0.1797	0.3056	0.9482	-0.395
Mof_O 	O 	0.4114	0.7986	0.1092	-0.425
Mof_O 	O 	0.1911	0.9836	0.1967	-0.48
Mof_O 	O 	0.4841	0.8442	0.5472	-0.413
Mof_O 	O 	0.4853	0.6944	0.4482	-0.397
Mof_O 	O 	0.21	0.2014	0.6092	-0.424
Mof_O 	O 	0.1747	0.0164	0.6967	-0.477
Mof_O 	O 	0.6717	0.8442	0.9528	-0.408
Mof_O 	O 	0.8203	0.6944	0.0518	-0.395
Mof_O 	O 	0.5886	0.2014	0.8908	-0.425
Mof_O 	O 	0.8089	0.0164	0.8033	-0.48
_end
