# CIF file generated by openbabel 3.1.0, see https://openbabel.org
data_I
_chemical_name_common 'image0'
_cell_length_a 9.784
_cell_length_b 10.5934
_cell_length_c 13.9456
_cell_angle_alpha 95.606
_cell_angle_beta 105.399
_cell_angle_gamma 100.402
_space_group_name_H-M_alt 'P 1'
_space_group_name_Hall 'P 1'
loop_
    _symmetry_equiv_pos_as_xyz
    x,y,z
loop_
    _atom_site_label
    _atom_site_type_symbol
    _atom_site_fract_x
    _atom_site_fract_y
    _atom_site_fract_z
    _atom_site_occupancy
    Nd1      Nd       0.24259    0.01418    0.96855    1.000
    Nd2      Nd       0.13877    0.55399    0.63880    1.000
    O1       O        0.62200    0.02910    0.86710    1.000
    O2       O        0.85300    0.12830    0.90090    1.000
    O3       O        0.79330    0.21260    0.71450    1.000
    O4       O        0.94270    0.38410    0.63270    1.000
    O5       O        0.77130    0.32880    0.48250    1.000
    O6       O        0.24240    0.40290    0.76230    1.000
    O7       O        0.37090    0.60250    0.77440    1.000
    O8       O        0.46190    0.34390    0.90400    1.000
    O9       O        0.47760    0.15000    0.01600    1.000
    O10      O        0.71930    0.20580    0.06540    1.000
    O11      O        0.92080    0.60480    0.52810    1.000
    O12      O        0.69450    0.56820    0.43020    1.000
    O13      O        0.85510    0.74130    0.67700    1.000
    O14      O        0.83880    0.85760    0.91960    1.000
    O15      O        0.02130    0.89100    0.85020    1.000
    C1       C        0.72480    0.09510    0.84200    1.000
    C2       C        0.68980    0.12960    0.73900    1.000
    C3       C        0.57030    0.09010    0.66110    1.000
    H1       H        0.48570    0.03240    0.65950    1.000
    C4       C        0.59810    0.15430    0.58060    1.000
    H2       H        0.53540    0.14690    0.51620    1.000
    C5       C        0.73330    0.22740    0.61680    1.000
    C6       C        0.82330    0.32050    0.57330    1.000
    C7       C        0.35840    0.48950    0.79720    1.000
    C8       C        0.48450    0.45960    0.86870    1.000
    C9       C        0.62440    0.52300    0.90710    1.000
    H3       H        0.66610    0.60330    0.89440    1.000
    C10      C        0.69520    0.44400    0.97010    1.000
    H4       H        0.79270    0.46160    0.00680    1.000
    C11      C        0.59220    0.33630    0.96650    1.000
    C12      C        0.59540    0.22390    0.02010    1.000
    C13      C        0.78820    0.61370    0.51200    1.000
    C14      C        0.74310    0.67530    0.59540    1.000
    C15      C        0.61390    0.67160    0.61380    1.000
    H5       H        0.52270    0.63290    0.57030    1.000
    C16      C        0.64560    0.73940    0.71350    1.000
    H6       H        0.57850    0.75350    0.74760    1.000
    C17      C        0.79140    0.77910    0.74890    1.000
    C18      C        0.89160    0.84900    0.84630    1.000
    Nd3      Nd       0.75741    0.98582    0.03145    1.000
    Nd4      Nd       0.86123    0.44601    0.36120    1.000
    O16      O        0.37800    0.97090    0.13290    1.000
    O17      O        0.14700    0.87170    0.09910    1.000
    O18      O        0.20670    0.78740    0.28550    1.000
    O19      O        0.05730    0.61590    0.36730    1.000
    O20      O        0.22870    0.67120    0.51750    1.000
    O21      O        0.75760    0.59710    0.23770    1.000
    O22      O        0.62910    0.39750    0.22560    1.000
    O23      O        0.53810    0.65610    0.09600    1.000
    O24      O        0.52240    0.85000    0.98400    1.000
    O25      O        0.28070    0.79420    0.93460    1.000
    O26      O        0.07920    0.39520    0.47190    1.000
    O27      O        0.30550    0.43180    0.56980    1.000
    O28      O        0.14490    0.25870    0.32300    1.000
    O29      O        0.16120    0.14240    0.08040    1.000
    O30      O        0.97870    0.10900    0.14980    1.000
    C19      C        0.27520    0.90490    0.15800    1.000
    C20      C        0.31020    0.87040    0.26100    1.000
    C21      C        0.42970    0.90990    0.33890    1.000
    H7       H        0.51430    0.96760    0.34050    1.000
    C22      C        0.40190    0.84570    0.41940    1.000
    H8       H        0.46460    0.85310    0.48380    1.000
    C23      C        0.26670    0.77260    0.38320    1.000
    C24      C        0.17670    0.67950    0.42670    1.000
    C25      C        0.64160    0.51050    0.20280    1.000
    C26      C        0.51550    0.54040    0.13130    1.000
    C27      C        0.37560    0.47700    0.09290    1.000
    H9       H        0.33390    0.39670    0.10560    1.000
    C28      C        0.30480    0.55600    0.02990    1.000
    H10      H        0.20730    0.53840    0.99320    1.000
    C29      C        0.40780    0.66370    0.03350    1.000
    C30      C        0.40460    0.77610    0.97990    1.000
    C31      C        0.21180    0.38630    0.48800    1.000
    C32      C        0.25690    0.32470    0.40460    1.000
    C33      C        0.38610    0.32840    0.38620    1.000
    H11      H        0.47730    0.36710    0.42970    1.000
    C34      C        0.35440    0.26060    0.28650    1.000
    H12      H        0.42150    0.24650    0.25240    1.000
    C35      C        0.20860    0.22090    0.25110    1.000
    C36      C        0.10840    0.15100    0.15370    1.000
