# CIF file generated by openbabel 3.1.0, see https://openbabel.org
data_I
_chemical_name_common 'image0'
_cell_length_a 9.5387
_cell_length_b 10.425
_cell_length_c 11.59
_cell_angle_alpha 75.02
_cell_angle_beta 84.8
_cell_angle_gamma 80.99
_space_group_name_H-M_alt 'P 1'
_space_group_name_Hall 'P 1'
loop_
    _symmetry_equiv_pos_as_xyz
    x,y,z
loop_
    _atom_site_label
    _atom_site_type_symbol
    _atom_site_fract_x
    _atom_site_fract_y
    _atom_site_fract_z
    _atom_site_occupancy
    Ca1      Ca       0.45791    0.41304    0.36061    1.000
    O1       O        0.29200    0.60300    0.07500    1.000
    O2       O        0.24230    0.48420    0.26000    1.000
    O3       O        0.96100    0.51960    0.21455    1.000
    O4       O        0.71650    0.43870    0.34042    1.000
    O5       O        0.59950    0.50570    0.17438    1.000
    O6       O        0.47300    0.77880    0.48232    1.000
    O7       O        0.44100    0.62490    0.39060    1.000
    O8       O        0.44540    0.97230    0.29813    1.000
    O9       O        0.47120    0.21360    0.29618    1.000
    O10      O        0.43840    0.28970    0.09922    1.000
    C1       C        0.20850    0.55410    0.15940    1.000
    C2       C        0.05570    0.58390    0.13280    1.000
    C3       C        0.98840    0.66000    0.03540    1.000
    H1       H        0.02930    0.71400    0.96810    1.000
    C4       C        0.84390    0.64160    0.05590    1.000
    H2       H        0.77100    0.68120    0.00460    1.000
    C5       C        0.83190    0.55570    0.16380    1.000
    C6       C        0.70940    0.49530    0.23140    1.000
    C7       C        0.44760    0.74250    0.39170    1.000
    C8       C        0.42390    0.85080    0.28230    1.000
    C9       C        0.38540    0.86690    0.17030    1.000
    H3       H        0.36440    0.80040    0.13700    1.000
    C10      C        0.38280    0.00520    0.11250    1.000
    H4       H        0.35930    0.04630    0.03410    1.000
    C11      C        0.42080    0.06560    0.19240    1.000
    C12      C        0.44540    0.20140    0.19480    1.000
    Ca2      Ca       0.54209    0.58696    0.63939    1.000
    O11      O        0.70800    0.39700    0.92500    1.000
    O12      O        0.75770    0.51580    0.74000    1.000
    O13      O        0.03900    0.48040    0.78545    1.000
    O14      O        0.28350    0.56130    0.65958    1.000
    O15      O        0.40050    0.49430    0.82562    1.000
    O16      O        0.52700    0.22120    0.51768    1.000
    O17      O        0.55900    0.37510    0.60940    1.000
    O18      O        0.55460    0.02770    0.70187    1.000
    O19      O        0.52880    0.78640    0.70382    1.000
    O20      O        0.56160    0.71030    0.90078    1.000
    C13      C        0.79150    0.44590    0.84060    1.000
    C14      C        0.94430    0.41610    0.86720    1.000
    C15      C        0.01160    0.34000    0.96460    1.000
    H5       H        0.97070    0.28600    0.03190    1.000
    C16      C        0.15610    0.35840    0.94410    1.000
    H6       H        0.22900    0.31880    0.99540    1.000
    C17      C        0.16810    0.44430    0.83620    1.000
    C18      C        0.29060    0.50470    0.76860    1.000
    C19      C        0.55240    0.25750    0.60830    1.000
    C20      C        0.57610    0.14920    0.71770    1.000
    C21      C        0.61460    0.13310    0.82970    1.000
    H7       H        0.63560    0.19960    0.86300    1.000
    C22      C        0.61720    0.99480    0.88750    1.000
    H8       H        0.64070    0.95370    0.96590    1.000
    C23      C        0.57920    0.93440    0.80760    1.000
    C24      C        0.55460    0.79860    0.80520    1.000
    Ca3      Ca       0.50000    0.00000    0.50000    1.000
    Ca4      Ca       0.50000    0.50000    0.00000    1.000
