# CIF file generated by openbabel 3.1.0, see https://openbabel.org
data_I
_chemical_name_common 'image0'
_cell_length_a 11.5324
_cell_length_b 40.8665
_cell_length_c 17.0473
_cell_angle_alpha 90
_cell_angle_beta 90
_cell_angle_gamma 90
_space_group_name_H-M_alt 'P 1'
_space_group_name_Hall 'P 1'
loop_
    _symmetry_equiv_pos_as_xyz
    x,y,z
loop_
    _atom_site_label
    _atom_site_type_symbol
    _atom_site_fract_x
    _atom_site_fract_y
    _atom_site_fract_z
    _atom_site_occupancy
    Sm1      Sm       0.26940    0.48543    0.44233    1.000
    O1       O        0.70590    0.65260    0.48510    1.000
    C1       C        0.43990    0.58870    0.44400    1.000
    O2       O        0.53620    0.68540    0.26530    1.000
    O3       O        0.78750    0.55220    0.34770    1.000
    O4       O        0.59900    0.69600    0.45950    1.000
    C2       C        0.20730    0.64980    0.39610    1.000
    C3       C        0.53470    0.60880    0.45320    1.000
    H1       H        0.60980    0.59990    0.46120    1.000
    N1       N        0.11260    0.63150    0.37290    1.000
    O5       O        0.67950    0.71690    0.23570    1.000
    C4       C        0.51720    0.64320    0.45030    1.000
    C5       C        0.72170    0.57170    0.31100    1.000
    C6       C        0.02890    0.65537    0.36260    1.000
    C7       C        0.41090    0.65550    0.43060    1.000
    H2       H        0.40080    0.67850    0.42650    1.000
    O6       O        0.55630    0.54150    0.45900    1.000
    C8       C        0.87630    0.61490    0.33270    1.000
    H3       H        0.92890    0.59810    0.34780    1.000
    O7       O        0.36580    0.53460    0.46490    1.000
    C9       C        0.33150    0.60100    0.42580    1.000
    H4       H        0.26790    0.58640    0.42010    1.000
    C10      C        0.45730    0.55250    0.45470    1.000
    O8       O        0.63390    0.56240    0.27650    1.000
    C11      C        0.83820    0.67180    0.30730    1.000
    H5       H        0.86450    0.69380    0.30470    1.000
    C12      C        0.31460    0.63440    0.41590    1.000
    N2       N        0.06810    0.68480    0.37850    1.000
    N3       N        0.18090    0.68130    0.40050    1.000
    C13      C        0.61150    0.66680    0.46490    1.000
    C14      C        0.64250    0.69030    0.25870    1.000
    C15      C        0.72750    0.66400    0.28520    1.000
    C16      C        0.76300    0.60660    0.30980    1.000
    C17      C        0.68990    0.63070    0.28510    1.000
    H6       H        0.61390    0.62530    0.26780    1.000
    C18      C        0.91190    0.64700    0.33360    1.000
    H7       H        0.71900    0.66230    0.52760    1.000
    H8       H        0.03540    0.70150    0.35400    1.000
    Sm2      Sm       0.26940    0.98543    0.94233    1.000
    O9       O        0.70590    0.15260    0.98510    1.000
    C19      C        0.43990    0.08870    0.94400    1.000
    O10      O        0.53620    0.18540    0.76530    1.000
    O11      O        0.78750    0.05220    0.84770    1.000
    O12      O        0.59900    0.19600    0.95950    1.000
    C20      C        0.20730    0.14980    0.89610    1.000
    C21      C        0.53470    0.10880    0.95320    1.000
    H9       H        0.60980    0.09990    0.96120    1.000
    N4       N        0.11260    0.13150    0.87290    1.000
    O13      O        0.67950    0.21690    0.73570    1.000
    C22      C        0.51720    0.14320    0.95030    1.000
    C23      C        0.72170    0.07170    0.81100    1.000
    C24      C        0.02890    0.15537    0.86260    1.000
    C25      C        0.41090    0.15550    0.93060    1.000
    H10      H        0.40080    0.17850    0.92650    1.000
    O14      O        0.55630    0.04150    0.95900    1.000
    C26      C        0.87630    0.11490    0.83270    1.000
    H11      H        0.92890    0.09810    0.84780    1.000
    O15      O        0.36580    0.03460    0.96490    1.000
    C27      C        0.33150    0.10100    0.92580    1.000
    H12      H        0.26790    0.08640    0.92010    1.000
    C28      C        0.45730    0.05250    0.95470    1.000
    O16      O        0.63390    0.06240    0.77650    1.000
    C29      C        0.83820    0.17180    0.80730    1.000
    H13      H        0.86450    0.19380    0.80470    1.000
    C30      C        0.31460    0.13440    0.91590    1.000
    N5       N        0.06810    0.18480    0.87850    1.000
    N6       N        0.18090    0.18130    0.90050    1.000
    C31      C        0.61150    0.16680    0.96490    1.000
    C32      C        0.64250    0.19030    0.75870    1.000
    C33      C        0.72750    0.16400    0.78520    1.000
    C34      C        0.76300    0.10660    0.80980    1.000
    C35      C        0.68990    0.13070    0.78510    1.000
    H14      H        0.61390    0.12530    0.76780    1.000
    C36      C        0.91190    0.14700    0.83360    1.000
    H15      H        0.71900    0.16230    0.02760    1.000
    H16      H        0.03540    0.20150    0.85400    1.000
    Sm3      Sm       0.76940    0.48543    0.94233    1.000
    O17      O        0.20590    0.65260    0.98510    1.000
    C37      C        0.93990    0.58870    0.94400    1.000
    O18      O        0.03620    0.68540    0.76530    1.000
    O19      O        0.28750    0.55220    0.84770    1.000
    O20      O        0.09900    0.69600    0.95950    1.000
    C38      C        0.70730    0.64980    0.89610    1.000
    C39      C        0.03470    0.60880    0.95320    1.000
    H17      H        0.10980    0.59990    0.96120    1.000
    N7       N        0.61260    0.63150    0.87290    1.000
    O21      O        0.17950    0.71690    0.73570    1.000
    C40      C        0.01720    0.64320    0.95030    1.000
    C41      C        0.22170    0.57170    0.81100    1.000
    C42      C        0.52890    0.65537    0.86260    1.000
    C43      C        0.91090    0.65550    0.93060    1.000
    H18      H        0.90080    0.67850    0.92650    1.000
    O22      O        0.05630    0.54150    0.95900    1.000
    C44      C        0.37630    0.61490    0.83270    1.000
    H19      H        0.42890    0.59810    0.84780    1.000
    O23      O        0.86580    0.53460    0.96490    1.000
    C45      C        0.83150    0.60100    0.92580    1.000
    H20      H        0.76790    0.58640    0.92010    1.000
    C46      C        0.95730    0.55250    0.95470    1.000
    O24      O        0.13390    0.56240    0.77650    1.000
    C47      C        0.33820    0.67180    0.80730    1.000
    H21      H        0.36450    0.69380    0.80470    1.000
    C48      C        0.81460    0.63440    0.91590    1.000
    N8       N        0.56810    0.68480    0.87850    1.000
    N9       N        0.68090    0.68130    0.90050    1.000
    C49      C        0.11150    0.66680    0.96490    1.000
    C50      C        0.14250    0.69030    0.75870    1.000
    C51      C        0.22750    0.66400    0.78520    1.000
    C52      C        0.26300    0.60660    0.80980    1.000
    C53      C        0.18990    0.63070    0.78510    1.000
    H22      H        0.11390    0.62530    0.76780    1.000
    C54      C        0.41190    0.64700    0.83360    1.000
    H23      H        0.21900    0.66230    0.02760    1.000
    H24      H        0.53540    0.70150    0.85400    1.000
    Sm4      Sm       0.76940    0.98543    0.44233    1.000
    O25      O        0.20590    0.15260    0.48510    1.000
    C55      C        0.93990    0.08870    0.44400    1.000
    O26      O        0.03620    0.18540    0.26530    1.000
    O27      O        0.28750    0.05220    0.34770    1.000
    O28      O        0.09900    0.19600    0.45950    1.000
    C56      C        0.70730    0.14980    0.39610    1.000
    C57      C        0.03470    0.10880    0.45320    1.000
    H25      H        0.10980    0.09990    0.46120    1.000
    N10      N        0.61260    0.13150    0.37290    1.000
    O29      O        0.17950    0.21690    0.23570    1.000
    C58      C        0.01720    0.14320    0.45030    1.000
    C59      C        0.22170    0.07170    0.31100    1.000
    C60      C        0.52890    0.15537    0.36260    1.000
    C61      C        0.91090    0.15550    0.43060    1.000
    H26      H        0.90080    0.17850    0.42650    1.000
    O30      O        0.05630    0.04150    0.45900    1.000
    C62      C        0.37630    0.11490    0.33270    1.000
    H27      H        0.42890    0.09810    0.34780    1.000
    O31      O        0.86580    0.03460    0.46490    1.000
    C63      C        0.83150    0.10100    0.42580    1.000
    H28      H        0.76790    0.08640    0.42010    1.000
    C64      C        0.95730    0.05250    0.45470    1.000
    O32      O        0.13390    0.06240    0.27650    1.000
    C65      C        0.33820    0.17180    0.30730    1.000
    H29      H        0.36450    0.19380    0.30470    1.000
    C66      C        0.81460    0.13440    0.41590    1.000
    N11      N        0.56810    0.18480    0.37850    1.000
    N12      N        0.68090    0.18130    0.40050    1.000
    C67      C        0.11150    0.16680    0.46490    1.000
    C68      C        0.14250    0.19030    0.25870    1.000
    C69      C        0.22750    0.16400    0.28520    1.000
    C70      C        0.26300    0.10660    0.30980    1.000
    C71      C        0.18990    0.13070    0.28510    1.000
    H30      H        0.11390    0.12530    0.26780    1.000
    C72      C        0.41190    0.14700    0.33360    1.000
    H31      H        0.21900    0.16230    0.52760    1.000
    H32      H        0.53540    0.20150    0.35400    1.000
    Sm5      Sm       0.73060    0.51457    0.44233    1.000
    O33      O        0.29410    0.34740    0.48510    1.000
    C73      C        0.56010    0.41130    0.44400    1.000
    O34      O        0.46380    0.31460    0.26530    1.000
    O35      O        0.21250    0.44780    0.34770    1.000
    O36      O        0.40100    0.30400    0.45950    1.000
    C74      C        0.79270    0.35020    0.39610    1.000
    C75      C        0.46530    0.39120    0.45320    1.000
    H33      H        0.39020    0.40010    0.46120    1.000
    N13      N        0.88740    0.36850    0.37290    1.000
    O37      O        0.32050    0.28310    0.23570    1.000
    C76      C        0.48280    0.35680    0.45030    1.000
    C77      C        0.27830    0.42830    0.31100    1.000
    C78      C        0.97110    0.34463    0.36260    1.000
    C79      C        0.58910    0.34450    0.43060    1.000
    H34      H        0.59920    0.32150    0.42650    1.000
    O38      O        0.44370    0.45850    0.45900    1.000
    C80      C        0.12370    0.38510    0.33270    1.000
    H35      H        0.07110    0.40190    0.34780    1.000
    O39      O        0.63420    0.46540    0.46490    1.000
    C81      C        0.66850    0.39900    0.42580    1.000
    H36      H        0.73210    0.41360    0.42010    1.000
    C82      C        0.54270    0.44750    0.45470    1.000
    O40      O        0.36610    0.43760    0.27650    1.000
    C83      C        0.16180    0.32820    0.30730    1.000
    H37      H        0.13550    0.30620    0.30470    1.000
    C84      C        0.68540    0.36560    0.41590    1.000
    N14      N        0.93190    0.31520    0.37850    1.000
    N15      N        0.81910    0.31870    0.40050    1.000
    C85      C        0.38850    0.33320    0.46490    1.000
    C86      C        0.35750    0.30970    0.25870    1.000
    C87      C        0.27250    0.33600    0.28520    1.000
    C88      C        0.23700    0.39340    0.30980    1.000
    C89      C        0.31010    0.36930    0.28510    1.000
    H38      H        0.38610    0.37470    0.26780    1.000
    C90      C        0.08810    0.35300    0.33360    1.000
    H39      H        0.28100    0.33770    0.52760    1.000
    H40      H        0.96460    0.29850    0.35400    1.000
    Sm6      Sm       0.73060    0.01457    0.94233    1.000
    O41      O        0.29410    0.84740    0.98510    1.000
    C91      C        0.56010    0.91130    0.94400    1.000
    O42      O        0.46380    0.81460    0.76530    1.000
    O43      O        0.21250    0.94780    0.84770    1.000
    O44      O        0.40100    0.80400    0.95950    1.000
    C92      C        0.79270    0.85020    0.89610    1.000
    C93      C        0.46530    0.89120    0.95320    1.000
    H41      H        0.39020    0.90010    0.96120    1.000
    N16      N        0.88740    0.86850    0.87290    1.000
    O45      O        0.32050    0.78310    0.73570    1.000
    C94      C        0.48280    0.85680    0.95030    1.000
    C95      C        0.27830    0.92830    0.81100    1.000
    C96      C        0.97110    0.84463    0.86260    1.000
    C97      C        0.58910    0.84450    0.93060    1.000
    H42      H        0.59920    0.82150    0.92650    1.000
    O46      O        0.44370    0.95850    0.95900    1.000
    C98      C        0.12370    0.88510    0.83270    1.000
    H43      H        0.07110    0.90190    0.84780    1.000
    O47      O        0.63420    0.96540    0.96490    1.000
    C99      C        0.66850    0.89900    0.92580    1.000
    H44      H        0.73210    0.91360    0.92010    1.000
    C100     C        0.54270    0.94750    0.95470    1.000
    O48      O        0.36610    0.93760    0.77650    1.000
    C101     C        0.16180    0.82820    0.80730    1.000
    H45      H        0.13550    0.80620    0.80470    1.000
    C102     C        0.68540    0.86560    0.91590    1.000
    N17      N        0.93190    0.81520    0.87850    1.000
    N18      N        0.81910    0.81870    0.90050    1.000
    C103     C        0.38850    0.83320    0.96490    1.000
    C104     C        0.35750    0.80970    0.75870    1.000
    C105     C        0.27250    0.83600    0.78520    1.000
    C106     C        0.23700    0.89340    0.80980    1.000
    C107     C        0.31010    0.86930    0.78510    1.000
    H46      H        0.38610    0.87470    0.76780    1.000
    C108     C        0.08810    0.85300    0.83360    1.000
    H47      H        0.28100    0.83770    0.02760    1.000
    H48      H        0.96460    0.79850    0.85400    1.000
    Sm7      Sm       0.23060    0.51457    0.94233    1.000
    O49      O        0.79410    0.34740    0.98510    1.000
    C109     C        0.06010    0.41130    0.94400    1.000
    O50      O        0.96380    0.31460    0.76530    1.000
    O51      O        0.71250    0.44780    0.84770    1.000
    O52      O        0.90100    0.30400    0.95950    1.000
    C110     C        0.29270    0.35020    0.89610    1.000
    C111     C        0.96530    0.39120    0.95320    1.000
    H49      H        0.89020    0.40010    0.96120    1.000
    N19      N        0.38740    0.36850    0.87290    1.000
    O53      O        0.82050    0.28310    0.73570    1.000
    C112     C        0.98280    0.35680    0.95030    1.000
    C113     C        0.77830    0.42830    0.81100    1.000
    C114     C        0.47110    0.34463    0.86260    1.000
    C115     C        0.08910    0.34450    0.93060    1.000
    H50      H        0.09920    0.32150    0.92650    1.000
    O54      O        0.94370    0.45850    0.95900    1.000
    C116     C        0.62370    0.38510    0.83270    1.000
    H51      H        0.57110    0.40190    0.84780    1.000
    O55      O        0.13420    0.46540    0.96490    1.000
    C117     C        0.16850    0.39900    0.92580    1.000
    H52      H        0.23210    0.41360    0.92010    1.000
    C118     C        0.04270    0.44750    0.95470    1.000
    O56      O        0.86610    0.43760    0.77650    1.000
    C119     C        0.66180    0.32820    0.80730    1.000
    H53      H        0.63550    0.30620    0.80470    1.000
    C120     C        0.18540    0.36560    0.91590    1.000
    N20      N        0.43190    0.31520    0.87850    1.000
    N21      N        0.31910    0.31870    0.90050    1.000
    C121     C        0.88850    0.33320    0.96490    1.000
    C122     C        0.85750    0.30970    0.75870    1.000
    C123     C        0.77250    0.33600    0.78520    1.000
    C124     C        0.73700    0.39340    0.80980    1.000
    C125     C        0.81010    0.36930    0.78510    1.000
    H54      H        0.88610    0.37470    0.76780    1.000
    C126     C        0.58810    0.35300    0.83360    1.000
    H55      H        0.78100    0.33770    0.02760    1.000
    H56      H        0.46460    0.29850    0.85400    1.000
    Sm8      Sm       0.23060    0.01457    0.44233    1.000
    O57      O        0.79410    0.84740    0.48510    1.000
    C127     C        0.06010    0.91130    0.44400    1.000
    O58      O        0.96380    0.81460    0.26530    1.000
    O59      O        0.71250    0.94780    0.34770    1.000
    O60      O        0.90100    0.80400    0.45950    1.000
    C128     C        0.29270    0.85020    0.39610    1.000
    C129     C        0.96530    0.89120    0.45320    1.000
    H57      H        0.89020    0.90010    0.46120    1.000
    N22      N        0.38740    0.86850    0.37290    1.000
    O61      O        0.82050    0.78310    0.23570    1.000
    C130     C        0.98280    0.85680    0.45030    1.000
    C131     C        0.77830    0.92830    0.31100    1.000
    C132     C        0.47110    0.84463    0.36260    1.000
    C133     C        0.08910    0.84450    0.43060    1.000
    H58      H        0.09920    0.82150    0.42650    1.000
    O62      O        0.94370    0.95850    0.45900    1.000
    C134     C        0.62370    0.88510    0.33270    1.000
    H59      H        0.57110    0.90190    0.34780    1.000
    O63      O        0.13420    0.96540    0.46490    1.000
    C135     C        0.16850    0.89900    0.42580    1.000
    H60      H        0.23210    0.91360    0.42010    1.000
    C136     C        0.04270    0.94750    0.45470    1.000
    O64      O        0.86610    0.93760    0.27650    1.000
    C137     C        0.66180    0.82820    0.30730    1.000
    H61      H        0.63550    0.80620    0.30470    1.000
    C138     C        0.18540    0.86560    0.41590    1.000
    N23      N        0.43190    0.81520    0.37850    1.000
    N24      N        0.31910    0.81870    0.40050    1.000
    C139     C        0.88850    0.83320    0.46490    1.000
    C140     C        0.85750    0.80970    0.25870    1.000
    C141     C        0.77250    0.83600    0.28520    1.000
    C142     C        0.73700    0.89340    0.30980    1.000
    C143     C        0.81010    0.86930    0.28510    1.000
    H62      H        0.88610    0.87470    0.26780    1.000
    C144     C        0.58810    0.85300    0.33360    1.000
    H63      H        0.78100    0.83770    0.52760    1.000
    H64      H        0.46460    0.79850    0.35400    1.000
    Sm9      Sm       0.51940    0.76457    0.69233    1.000
    O65      O        0.95590    0.59740    0.73510    1.000
    C145     C        0.68990    0.66130    0.69400    1.000
    O66      O        0.78620    0.56460    0.51530    1.000
    O67      O        0.03750    0.69780    0.59770    1.000
    O68      O        0.84900    0.55400    0.70950    1.000
    C146     C        0.45730    0.60020    0.64610    1.000
    C147     C        0.78470    0.64120    0.70320    1.000
    H65      H        0.85980    0.65010    0.71120    1.000
    N25      N        0.36260    0.61850    0.62290    1.000
    O69      O        0.92950    0.53310    0.48570    1.000
    C148     C        0.76720    0.60680    0.70030    1.000
    C149     C        0.97170    0.67830    0.56100    1.000
    C150     C        0.27890    0.59463    0.61260    1.000
    C151     C        0.66090    0.59450    0.68060    1.000
    H66      H        0.65080    0.57150    0.67650    1.000
    O70      O        0.80630    0.70850    0.70900    1.000
    C152     C        0.12630    0.63510    0.58270    1.000
    H67      H        0.17890    0.65190    0.59780    1.000
    O71      O        0.61580    0.71540    0.71490    1.000
    C153     C        0.58150    0.64900    0.67580    1.000
    H68      H        0.51790    0.66360    0.67010    1.000
    C154     C        0.70730    0.69750    0.70470    1.000
    O72      O        0.88390    0.68760    0.52650    1.000
    C155     C        0.08820    0.57820    0.55730    1.000
    H69      H        0.11450    0.55620    0.55470    1.000
    C156     C        0.56460    0.61560    0.66590    1.000
    N26      N        0.31810    0.56520    0.62850    1.000
    N27      N        0.43090    0.56870    0.65050    1.000
    C157     C        0.86150    0.58320    0.71490    1.000
    C158     C        0.89250    0.55970    0.50870    1.000
    C159     C        0.97750    0.58600    0.53520    1.000
    C160     C        0.01300    0.64340    0.55980    1.000
    C161     C        0.93990    0.61930    0.53510    1.000
    H70      H        0.86390    0.62470    0.51780    1.000
    C162     C        0.16190    0.60300    0.58360    1.000
    H71      H        0.96900    0.58770    0.77760    1.000
    H72      H        0.28540    0.54850    0.60400    1.000
    Sm10     Sm       0.51940    0.26457    0.19233    1.000
    O73      O        0.95590    0.09740    0.23510    1.000
    C163     C        0.68990    0.16130    0.19400    1.000
    O74      O        0.78620    0.06460    0.01530    1.000
    O75      O        0.03750    0.19780    0.09770    1.000
    O76      O        0.84900    0.05400    0.20950    1.000
    C164     C        0.45730    0.10020    0.14610    1.000
    C165     C        0.78470    0.14120    0.20320    1.000
    H73      H        0.85980    0.15010    0.21120    1.000
    N28      N        0.36260    0.11850    0.12290    1.000
    O77      O        0.92950    0.03310    0.98570    1.000
    C166     C        0.76720    0.10680    0.20030    1.000
    C167     C        0.97170    0.17830    0.06100    1.000
    C168     C        0.27890    0.09463    0.11260    1.000
    C169     C        0.66090    0.09450    0.18060    1.000
    H74      H        0.65080    0.07150    0.17650    1.000
    O78      O        0.80630    0.20850    0.20900    1.000
    C170     C        0.12630    0.13510    0.08270    1.000
    H75      H        0.17890    0.15190    0.09780    1.000
    O79      O        0.61580    0.21540    0.21490    1.000
    C171     C        0.58150    0.14900    0.17580    1.000
    H76      H        0.51790    0.16360    0.17010    1.000
    C172     C        0.70730    0.19750    0.20470    1.000
    O80      O        0.88390    0.18760    0.02650    1.000
    C173     C        0.08820    0.07820    0.05730    1.000
    H77      H        0.11450    0.05620    0.05470    1.000
    C174     C        0.56460    0.11560    0.16590    1.000
    N29      N        0.31810    0.06520    0.12850    1.000
    N30      N        0.43090    0.06870    0.15050    1.000
    C175     C        0.86150    0.08320    0.21490    1.000
    C176     C        0.89250    0.05970    0.00870    1.000
    C177     C        0.97750    0.08600    0.03520    1.000
    C178     C        0.01300    0.14340    0.05980    1.000
    C179     C        0.93990    0.11930    0.03510    1.000
    H78      H        0.86390    0.12470    0.01780    1.000
    C180     C        0.16190    0.10300    0.08360    1.000
    H79      H        0.96900    0.08770    0.27760    1.000
    H80      H        0.28540    0.04850    0.10400    1.000
    Sm11     Sm       0.01940    0.76457    0.19233    1.000
    O81      O        0.45590    0.59740    0.23510    1.000
    C181     C        0.18990    0.66130    0.19400    1.000
    O82      O        0.28620    0.56460    0.01530    1.000
    O83      O        0.53750    0.69780    0.09770    1.000
    O84      O        0.34900    0.55400    0.20950    1.000
    C182     C        0.95730    0.60020    0.14610    1.000
    C183     C        0.28470    0.64120    0.20320    1.000
    H81      H        0.35980    0.65010    0.21120    1.000
    N31      N        0.86260    0.61850    0.12290    1.000
    O85      O        0.42950    0.53310    0.98570    1.000
    C184     C        0.26720    0.60680    0.20030    1.000
    C185     C        0.47170    0.67830    0.06100    1.000
    C186     C        0.77890    0.59463    0.11260    1.000
    C187     C        0.16090    0.59450    0.18060    1.000
    H82      H        0.15080    0.57150    0.17650    1.000
    O86      O        0.30630    0.70850    0.20900    1.000
    C188     C        0.62630    0.63510    0.08270    1.000
    H83      H        0.67890    0.65190    0.09780    1.000
    O87      O        0.11580    0.71540    0.21490    1.000
    C189     C        0.08150    0.64900    0.17580    1.000
    H84      H        0.01790    0.66360    0.17010    1.000
    C190     C        0.20730    0.69750    0.20470    1.000
    O88      O        0.38390    0.68760    0.02650    1.000
    C191     C        0.58820    0.57820    0.05730    1.000
    H85      H        0.61450    0.55620    0.05470    1.000
    C192     C        0.06460    0.61560    0.16590    1.000
    N32      N        0.81810    0.56520    0.12850    1.000
    N33      N        0.93090    0.56870    0.15050    1.000
    C193     C        0.36150    0.58320    0.21490    1.000
    C194     C        0.39250    0.55970    0.00870    1.000
    C195     C        0.47750    0.58600    0.03520    1.000
    C196     C        0.51300    0.64340    0.05980    1.000
    C197     C        0.43990    0.61930    0.03510    1.000
    H86      H        0.36390    0.62470    0.01780    1.000
    C198     C        0.66190    0.60300    0.08360    1.000
    H87      H        0.46900    0.58770    0.27760    1.000
    H88      H        0.78540    0.54850    0.10400    1.000
    Sm12     Sm       0.01940    0.26457    0.69233    1.000
    O89      O        0.45590    0.09740    0.73510    1.000
    C199     C        0.18990    0.16130    0.69400    1.000
    O90      O        0.28620    0.06460    0.51530    1.000
    O91      O        0.53750    0.19780    0.59770    1.000
    O92      O        0.34900    0.05400    0.70950    1.000
    C200     C        0.95730    0.10020    0.64610    1.000
    C201     C        0.28470    0.14120    0.70320    1.000
    H89      H        0.35980    0.15010    0.71120    1.000
    N34      N        0.86260    0.11850    0.62290    1.000
    O93      O        0.42950    0.03310    0.48570    1.000
    C202     C        0.26720    0.10680    0.70030    1.000
    C203     C        0.47170    0.17830    0.56100    1.000
    C204     C        0.77890    0.09463    0.61260    1.000
    C205     C        0.16090    0.09450    0.68060    1.000
    H90      H        0.15080    0.07150    0.67650    1.000
    O94      O        0.30630    0.20850    0.70900    1.000
    C206     C        0.62630    0.13510    0.58270    1.000
    H91      H        0.67890    0.15190    0.59780    1.000
    O95      O        0.11580    0.21540    0.71490    1.000
    C207     C        0.08150    0.14900    0.67580    1.000
    H92      H        0.01790    0.16360    0.67010    1.000
    C208     C        0.20730    0.19750    0.70470    1.000
    O96      O        0.38390    0.18760    0.52650    1.000
    C209     C        0.58820    0.07820    0.55730    1.000
    H93      H        0.61450    0.05620    0.55470    1.000
    C210     C        0.06460    0.11560    0.66590    1.000
    N35      N        0.81810    0.06520    0.62850    1.000
    N36      N        0.93090    0.06870    0.65050    1.000
    C211     C        0.36150    0.08320    0.71490    1.000
    C212     C        0.39250    0.05970    0.50870    1.000
    C213     C        0.47750    0.08600    0.53520    1.000
    C214     C        0.51300    0.14340    0.55980    1.000
    C215     C        0.43990    0.11930    0.53510    1.000
    H94      H        0.36390    0.12470    0.51780    1.000
    C216     C        0.66190    0.10300    0.58360    1.000
    H95      H        0.46900    0.08770    0.77760    1.000
    H96      H        0.78540    0.04850    0.60400    1.000
    Sm13     Sm       0.98060    0.73543    0.69233    1.000
    O97      O        0.54410    0.90260    0.73510    1.000
    C217     C        0.81010    0.83870    0.69400    1.000
    O98      O        0.71380    0.93540    0.51530    1.000
    O99      O        0.46250    0.80220    0.59770    1.000
    O100     O        0.65100    0.94600    0.70950    1.000
    C218     C        0.04270    0.89980    0.64610    1.000
    C219     C        0.71530    0.85880    0.70320    1.000
    H97      H        0.64020    0.84990    0.71120    1.000
    N37      N        0.13740    0.88150    0.62290    1.000
    O101     O        0.57050    0.96690    0.48570    1.000
    C220     C        0.73280    0.89320    0.70030    1.000
    C221     C        0.52830    0.82170    0.56100    1.000
    C222     C        0.22110    0.90537    0.61260    1.000
    C223     C        0.83910    0.90550    0.68060    1.000
    H98      H        0.84920    0.92850    0.67650    1.000
    O102     O        0.69370    0.79150    0.70900    1.000
    C224     C        0.37370    0.86490    0.58270    1.000
    H99      H        0.32110    0.84810    0.59780    1.000
    O103     O        0.88420    0.78460    0.71490    1.000
    C225     C        0.91850    0.85100    0.67580    1.000
    H100     H        0.98210    0.83640    0.67010    1.000
    C226     C        0.79270    0.80250    0.70470    1.000
    O104     O        0.61610    0.81240    0.52650    1.000
    C227     C        0.41180    0.92180    0.55730    1.000
    H101     H        0.38550    0.94380    0.55470    1.000
    C228     C        0.93540    0.88440    0.66590    1.000
    N38      N        0.18190    0.93480    0.62850    1.000
    N39      N        0.06910    0.93130    0.65050    1.000
    C229     C        0.63850    0.91680    0.71490    1.000
    C230     C        0.60750    0.94030    0.50870    1.000
    C231     C        0.52250    0.91400    0.53520    1.000
    C232     C        0.48700    0.85660    0.55980    1.000
    C233     C        0.56010    0.88070    0.53510    1.000
    H102     H        0.63610    0.87530    0.51780    1.000
    C234     C        0.33810    0.89700    0.58360    1.000
    H103     H        0.53100    0.91230    0.77760    1.000
    H104     H        0.21460    0.95150    0.60400    1.000
    Sm14     Sm       0.98060    0.23543    0.19233    1.000
    O105     O        0.54410    0.40260    0.23510    1.000
    C235     C        0.81010    0.33870    0.19400    1.000
    O106     O        0.71380    0.43540    0.01530    1.000
    O107     O        0.46250    0.30220    0.09770    1.000
    O108     O        0.65100    0.44600    0.20950    1.000
    C236     C        0.04270    0.39980    0.14610    1.000
    C237     C        0.71530    0.35880    0.20320    1.000
    H105     H        0.64020    0.34990    0.21120    1.000
    N40      N        0.13740    0.38150    0.12290    1.000
    O109     O        0.57050    0.46690    0.98570    1.000
    C238     C        0.73280    0.39320    0.20030    1.000
    C239     C        0.52830    0.32170    0.06100    1.000
    C240     C        0.22110    0.40537    0.11260    1.000
    C241     C        0.83910    0.40550    0.18060    1.000
    H106     H        0.84920    0.42850    0.17650    1.000
    O110     O        0.69370    0.29150    0.20900    1.000
    C242     C        0.37370    0.36490    0.08270    1.000
    H107     H        0.32110    0.34810    0.09780    1.000
    O111     O        0.88420    0.28460    0.21490    1.000
    C243     C        0.91850    0.35100    0.17580    1.000
    H108     H        0.98210    0.33640    0.17010    1.000
    C244     C        0.79270    0.30250    0.20470    1.000
    O112     O        0.61610    0.31240    0.02650    1.000
    C245     C        0.41180    0.42180    0.05730    1.000
    H109     H        0.38550    0.44380    0.05470    1.000
    C246     C        0.93540    0.38440    0.16590    1.000
    N41      N        0.18190    0.43480    0.12850    1.000
    N42      N        0.06910    0.43130    0.15050    1.000
    C247     C        0.63850    0.41680    0.21490    1.000
    C248     C        0.60750    0.44030    0.00870    1.000
    C249     C        0.52250    0.41400    0.03520    1.000
    C250     C        0.48700    0.35660    0.05980    1.000
    C251     C        0.56010    0.38070    0.03510    1.000
    H110     H        0.63610    0.37530    0.01780    1.000
    C252     C        0.33810    0.39700    0.08360    1.000
    H111     H        0.53100    0.41230    0.27760    1.000
    H112     H        0.21460    0.45150    0.10400    1.000
    Sm15     Sm       0.48060    0.73543    0.19233    1.000
    O113     O        0.04410    0.90260    0.23510    1.000
    C253     C        0.31010    0.83870    0.19400    1.000
    O114     O        0.21380    0.93540    0.01530    1.000
    O115     O        0.96250    0.80220    0.09770    1.000
    O116     O        0.15100    0.94600    0.20950    1.000
    C254     C        0.54270    0.89980    0.14610    1.000
    C255     C        0.21530    0.85880    0.20320    1.000
    H113     H        0.14020    0.84990    0.21120    1.000
    N43      N        0.63740    0.88150    0.12290    1.000
    O117     O        0.07050    0.96690    0.98570    1.000
    C256     C        0.23280    0.89320    0.20030    1.000
    C257     C        0.02830    0.82170    0.06100    1.000
    C258     C        0.72110    0.90537    0.11260    1.000
    C259     C        0.33910    0.90550    0.18060    1.000
    H114     H        0.34920    0.92850    0.17650    1.000
    O118     O        0.19370    0.79150    0.20900    1.000
    C260     C        0.87370    0.86490    0.08270    1.000
    H115     H        0.82110    0.84810    0.09780    1.000
    O119     O        0.38420    0.78460    0.21490    1.000
    C261     C        0.41850    0.85100    0.17580    1.000
    H116     H        0.48210    0.83640    0.17010    1.000
    C262     C        0.29270    0.80250    0.20470    1.000
    O120     O        0.11610    0.81240    0.02650    1.000
    C263     C        0.91180    0.92180    0.05730    1.000
    H117     H        0.88550    0.94380    0.05470    1.000
    C264     C        0.43540    0.88440    0.16590    1.000
    N44      N        0.68190    0.93480    0.12850    1.000
    N45      N        0.56910    0.93130    0.15050    1.000
    C265     C        0.13850    0.91680    0.21490    1.000
    C266     C        0.10750    0.94030    0.00870    1.000
    C267     C        0.02250    0.91400    0.03520    1.000
    C268     C        0.98700    0.85660    0.05980    1.000
    C269     C        0.06010    0.88070    0.03510    1.000
    H118     H        0.13610    0.87530    0.01780    1.000
    C270     C        0.83810    0.89700    0.08360    1.000
    H119     H        0.03100    0.91230    0.27760    1.000
    H120     H        0.71460    0.95150    0.10400    1.000
    Sm16     Sm       0.48060    0.23543    0.69233    1.000
    O121     O        0.04410    0.40260    0.73510    1.000
    C271     C        0.31010    0.33870    0.69400    1.000
    O122     O        0.21380    0.43540    0.51530    1.000
    O123     O        0.96250    0.30220    0.59770    1.000
    O124     O        0.15100    0.44600    0.70950    1.000
    C272     C        0.54270    0.39980    0.64610    1.000
    C273     C        0.21530    0.35880    0.70320    1.000
    H121     H        0.14020    0.34990    0.71120    1.000
    N46      N        0.63740    0.38150    0.62290    1.000
    O125     O        0.07050    0.46690    0.48570    1.000
    C274     C        0.23280    0.39320    0.70030    1.000
    C275     C        0.02830    0.32170    0.56100    1.000
    C276     C        0.72110    0.40537    0.61260    1.000
    C277     C        0.33910    0.40550    0.68060    1.000
    H122     H        0.34920    0.42850    0.67650    1.000
    O126     O        0.19370    0.29150    0.70900    1.000
    C278     C        0.87370    0.36490    0.58270    1.000
    H123     H        0.82110    0.34810    0.59780    1.000
    O127     O        0.38420    0.28460    0.71490    1.000
    C279     C        0.41850    0.35100    0.67580    1.000
    H124     H        0.48210    0.33640    0.67010    1.000
    C280     C        0.29270    0.30250    0.70470    1.000
    O128     O        0.11610    0.31240    0.52650    1.000
    C281     C        0.91180    0.42180    0.55730    1.000
    H125     H        0.88550    0.44380    0.55470    1.000
    C282     C        0.43540    0.38440    0.66590    1.000
    N47      N        0.68190    0.43480    0.62850    1.000
    N48      N        0.56910    0.43130    0.65050    1.000
    C283     C        0.13850    0.41680    0.71490    1.000
    C284     C        0.10750    0.44030    0.50870    1.000
    C285     C        0.02250    0.41400    0.53520    1.000
    C286     C        0.98700    0.35660    0.55980    1.000
    C287     C        0.06010    0.38070    0.53510    1.000
    H126     H        0.13610    0.37530    0.51780    1.000
    C288     C        0.83810    0.39700    0.58360    1.000
    H127     H        0.03100    0.41230    0.77760    1.000
    H128     H        0.71460    0.45150    0.60400    1.000
