# CIF file generated by openbabel 3.1.0, see https://openbabel.org
data_I
_chemical_name_common 'image0'
_cell_length_a 10.5226
_cell_length_b 11.2071
_cell_length_c 12.8682
_cell_angle_alpha 100.129
_cell_angle_beta 110.717
_cell_angle_gamma 100.768
_space_group_name_H-M_alt 'P 1'
_space_group_name_Hall 'P 1'
loop_
    _symmetry_equiv_pos_as_xyz
    x,y,z
loop_
    _atom_site_label
    _atom_site_type_symbol
    _atom_site_fract_x
    _atom_site_fract_y
    _atom_site_fract_z
    _atom_site_occupancy
    Gd1      Gd       0.39209    0.45251    0.32524    1.000
    O1       O        0.31570    0.26740    0.16080    1.000
    O2       O        0.16320    0.29000    0.23600    1.000
    C1       C        0.19770    0.22860    0.16550    1.000
    C2       C        0.09540    0.11120    0.07940    1.000
    C3       C        0.13780    0.03360    0.01000    1.000
    H1       H        0.23280    0.05470    0.01710    1.000
    N1       N        0.27900    0.05880    0.01570    1.000
    H2       H        0.34360    0.12650    0.06520    1.000
    H3       H        0.30110    0.00660    0.96960    1.000
    C4       C        0.95930    0.07680    0.07140    1.000
    H4       H        0.06970    0.87210    0.87900    1.000
    N2       N        0.90610    0.15420    0.14150    1.000
    H5       H        0.96200    0.22570    0.19110    1.000
    H6       H        0.81820    0.12920    0.13400    1.000
    O3       O        0.49830    0.67300    0.40500    1.000
    O4       O        0.57010    0.72080    0.59590    1.000
    C5       C        0.52980    0.74720    0.50170    1.000
    C6       C        0.51700    0.87950    0.50190    1.000
    C7       C        0.51390    0.95870    0.59950    1.000
    H7       H        0.47700    0.06960    0.33340    1.000
    N3       N        0.52260    0.91990    0.70280    1.000
    H8       H        0.53000    0.84210    0.70720    1.000
    H9       H        0.52030    0.97350    0.76260    1.000
    H10      H        0.44650    0.14760    0.29300    1.000
    C8       C        0.50700    0.03500    0.20400    1.000
    O5       O        0.49800    0.92400    0.16900    1.000
    O6       O        0.54100    0.12100    0.16700    1.000
    C9       C        0.50270    0.92210    0.40450    1.000
    H11      H        0.50430    0.86850    0.33920    1.000
    O7       O        0.61950    0.44140    0.32820    1.000
    O8       O        0.65720    0.50680    0.51100    1.000
    C10      C        0.70180    0.47780    0.43350    1.000
    C11      C        0.85560    0.48790    0.46650    1.000
    C12      C        0.90580    0.44240    0.38560    1.000
    H12      H        0.15690    0.59580    0.69250    1.000
    N4       N        0.82230    0.38200    0.27590    1.000
    H13      H        0.73030    0.36930    0.25170    1.000
    H14      H        0.85930    0.35500    0.22780    1.000
    C13      C        0.94950    0.54590    0.57880    1.000
    H15      H        0.91490    0.57890    0.63340    1.000
    O9       O        0.19910    0.53950    0.23760    1.000
    C14      C        0.19030    0.65010    0.25650    1.000
    H16      H        0.25600    0.70610    0.32800    1.000
    N5       N        0.09920    0.69720    0.18760    1.000
    C15      C        0.99400    0.61700    0.07490    1.000
    C16      C        0.09140    0.82700    0.21020    1.000
    O10      O        0.20400    0.55860    0.27010    1.000
    C17      C        0.20100    0.63110    0.21150    1.000
    H17      H        0.28880    0.67710    0.21570    1.000
    N6       N        0.08480    0.65270    0.14110    1.000
    H18      H        0.09530    0.70810    0.10200    1.000
    C18      C        0.94200    0.59100    0.12400    1.000
    H19      H        0.93180    0.60880    0.19870    1.000
    H20      H        0.92310    0.49880    0.09610    1.000
    C19      C        0.83500    0.63900    0.03700    1.000
    H21      H        0.73970    0.60230    0.03040    1.000
    H22      H        0.83940    0.61450    0.96120    1.000
    H23      H        0.85810    0.73110    0.06220    1.000
    Gd2      Gd       0.60791    0.54749    0.67476    1.000
    O11      O        0.68430    0.73260    0.83920    1.000
    O12      O        0.83680    0.71000    0.76400    1.000
    C20      C        0.80230    0.77140    0.83450    1.000
    C21      C        0.90460    0.88880    0.92060    1.000
    C22      C        0.86220    0.96640    0.99000    1.000
    H24      H        0.76720    0.94530    0.98290    1.000
    N7       N        0.72100    0.94120    0.98430    1.000
    H25      H        0.65640    0.87350    0.93480    1.000
    H26      H        0.69890    0.99340    0.03040    1.000
    C23      C        0.04070    0.92320    0.92860    1.000
    H27      H        0.93030    0.12790    0.12100    1.000
    N8       N        0.09390    0.84580    0.85850    1.000
    H28      H        0.03800    0.77430    0.80890    1.000
    H29      H        0.18180    0.87080    0.86600    1.000
    O13      O        0.50170    0.32700    0.59500    1.000
    O14      O        0.42990    0.27920    0.40410    1.000
    C24      C        0.47020    0.25280    0.49830    1.000
    C25      C        0.48300    0.12050    0.49810    1.000
    C26      C        0.48610    0.04130    0.40050    1.000
    H30      H        0.52300    0.93040    0.66660    1.000
    N9       N        0.47740    0.08010    0.29720    1.000
    H31      H        0.47000    0.15790    0.29280    1.000
    H32      H        0.47970    0.02650    0.23740    1.000
    H33      H        0.55350    0.85240    0.70700    1.000
    C27      C        0.49300    0.96500    0.79600    1.000
    O15      O        0.50200    0.07600    0.83100    1.000
    O16      O        0.45900    0.87900    0.83300    1.000
    C28      C        0.49730    0.07790    0.59550    1.000
    H34      H        0.49570    0.13150    0.66080    1.000
    O17      O        0.38050    0.55860    0.67180    1.000
    O18      O        0.34280    0.49320    0.48900    1.000
    C29      C        0.29820    0.52220    0.56650    1.000
    C30      C        0.14440    0.51210    0.53350    1.000
    C31      C        0.09420    0.55760    0.61440    1.000
    H35      H        0.84310    0.40420    0.30750    1.000
    N10      N        0.17770    0.61800    0.72410    1.000
    H36      H        0.26970    0.63070    0.74830    1.000
    H37      H        0.14070    0.64500    0.77220    1.000
    C32      C        0.05050    0.45410    0.42120    1.000
    H38      H        0.08510    0.42110    0.36660    1.000
    O19      O        0.80090    0.46050    0.76240    1.000
    C33      C        0.80970    0.34990    0.74350    1.000
    H39      H        0.74400    0.29390    0.67200    1.000
    N11      N        0.90080    0.30280    0.81240    1.000
    C34      C        0.00600    0.38300    0.92510    1.000
    C35      C        0.90860    0.17300    0.78980    1.000
    O20      O        0.79600    0.44140    0.72990    1.000
    C36      C        0.79900    0.36890    0.78850    1.000
    H40      H        0.71120    0.32290    0.78430    1.000
    N12      N        0.91520    0.34730    0.85890    1.000
    H41      H        0.90470    0.29190    0.89800    1.000
    C37      C        0.05800    0.40900    0.87600    1.000
    H42      H        0.06820    0.39120    0.80130    1.000
    H43      H        0.07690    0.50120    0.90390    1.000
    C38      C        0.16500    0.36100    0.96300    1.000
    H44      H        0.26030    0.39770    0.96960    1.000
    H45      H        0.16060    0.38550    0.03880    1.000
    H46      H        0.14190    0.26890    0.93780    1.000
