# CIF file generated by openbabel 3.1.0, see https://openbabel.org
data_I
_chemical_name_common 'image0'
_cell_length_a 25.004
_cell_length_b 25.004
_cell_length_c 8.6253
_cell_angle_alpha 90
_cell_angle_beta 90
_cell_angle_gamma 120
_space_group_name_H-M_alt 'P 1'
_space_group_name_Hall 'P 1'
loop_
    _symmetry_equiv_pos_as_xyz
    x,y,z
loop_
    _atom_site_label
    _atom_site_type_symbol
    _atom_site_fract_x
    _atom_site_fract_y
    _atom_site_fract_z
    _atom_site_occupancy
    N1       N        0.92156    0.27664    0.55050    1.000
    C1       C        0.87290    0.22026    0.59270    1.000
    N2       N        0.58823    0.60997    0.88383    1.000
    C2       C        0.53957    0.55359    0.92603    1.000
    N3       N        0.25489    0.94331    0.21717    1.000
    C3       C        0.20623    0.88693    0.25937    1.000
    N4       N        0.72336    0.64492    0.55050    1.000
    C4       C        0.77974    0.65264    0.59270    1.000
    N5       N        0.39003    0.97825    0.88383    1.000
    C5       C        0.44641    0.98597    0.92603    1.000
    N6       N        0.05669    0.31159    0.21717    1.000
    C6       C        0.11307    0.31931    0.25937    1.000
    N7       N        0.35508    0.07844    0.55050    1.000
    C7       C        0.34736    0.12710    0.59270    1.000
    N8       N        0.02175    0.41177    0.88383    1.000
    C8       C        0.01403    0.46043    0.92603    1.000
    N9       N        0.68841    0.74511    0.21717    1.000
    C9       C        0.68069    0.79377    0.25937    1.000
    N10      N        0.27664    0.92156    0.44950    1.000
    C10      C        0.22026    0.87290    0.40730    1.000
    N11      N        0.94331    0.25489    0.78283    1.000
    C11      C        0.88693    0.20623    0.74063    1.000
    N12      N        0.60997    0.58823    0.11617    1.000
    C12      C        0.55359    0.53957    0.07397    1.000
    N13      N        0.64492    0.72336    0.44950    1.000
    C13      C        0.65264    0.77974    0.40730    1.000
    N14      N        0.31159    0.05669    0.78283    1.000
    C14      C        0.31931    0.11307    0.74063    1.000
    N15      N        0.97825    0.39003    0.11617    1.000
    C15      C        0.98597    0.44641    0.07397    1.000
    N16      N        0.07844    0.35508    0.44950    1.000
    C16      C        0.12710    0.34736    0.40730    1.000
    N17      N        0.74511    0.68841    0.78283    1.000
    C17      C        0.79377    0.68069    0.74063    1.000
    N18      N        0.41177    0.02175    0.11617    1.000
    C18      C        0.46043    0.01403    0.07397    1.000
    N19      N        0.07844    0.72336    0.44950    1.000
    C19      C        0.12710    0.77974    0.40730    1.000
    N20      N        0.74511    0.05669    0.78283    1.000
    C20      C        0.79377    0.11307    0.74063    1.000
    N21      N        0.41177    0.39003    0.11617    1.000
    C21      C        0.46043    0.44641    0.07397    1.000
    N22      N        0.27664    0.35508    0.44950    1.000
    C22      C        0.22026    0.34736    0.40730    1.000
    N23      N        0.94331    0.68841    0.78283    1.000
    C23      C        0.88693    0.68069    0.74063    1.000
    N24      N        0.60997    0.02175    0.11617    1.000
    C24      C        0.55359    0.01403    0.07397    1.000
    N25      N        0.64492    0.92156    0.44950    1.000
    C25      C        0.65264    0.87290    0.40730    1.000
    N26      N        0.31159    0.25489    0.78283    1.000
    C26      C        0.31931    0.20623    0.74063    1.000
    N27      N        0.97825    0.58823    0.11617    1.000
    C27      C        0.98597    0.53957    0.07397    1.000
    N28      N        0.72336    0.07844    0.55050    1.000
    C28      C        0.77974    0.12710    0.59270    1.000
    N29      N        0.39003    0.41177    0.88383    1.000
    C29      C        0.44641    0.46043    0.92603    1.000
    N30      N        0.05669    0.74511    0.21717    1.000
    C30      C        0.11307    0.79377    0.25937    1.000
    N31      N        0.35508    0.27664    0.55050    1.000
    C31      C        0.34736    0.22026    0.59270    1.000
    N32      N        0.02175    0.60997    0.88383    1.000
    C32      C        0.01403    0.55359    0.92603    1.000
    N33      N        0.68841    0.94331    0.21717    1.000
    C33      C        0.68069    0.88693    0.25937    1.000
    N34      N        0.92156    0.64492    0.55050    1.000
    C34      C        0.87290    0.65264    0.59270    1.000
    N35      N        0.58823    0.97825    0.88383    1.000
    C35      C        0.53957    0.98597    0.92603    1.000
    N36      N        0.25489    0.31159    0.21717    1.000
    C36      C        0.20623    0.31931    0.25937    1.000
    Mn1      Mn       0.94665    0.33333    0.33333    1.000
    Mn2      Mn       0.66667    0.61331    0.33333    1.000
    Mn3      Mn       0.38669    0.05335    0.33333    1.000
    Mn4      Mn       0.33333    0.94665    0.66667    1.000
    Mn5      Mn       0.00000    0.27998    0.00000    1.000
    Mn6      Mn       0.61331    0.66667    0.66667    1.000
    Mn7      Mn       0.27998    0.00000    0.00000    1.000
    Mn8      Mn       0.05335    0.38669    0.66667    1.000
    Mn9      Mn       0.72002    0.72002    0.00000    1.000
    Mn10     Mn       0.05335    0.66667    0.66667    1.000
    Mn11     Mn       0.72002    0.00000    0.00000    1.000
    Mn12     Mn       0.38669    0.33333    0.33333    1.000
    Mn13     Mn       0.33333    0.38669    0.66667    1.000
    Mn14     Mn       0.00000    0.72002    0.00000    1.000
    Mn15     Mn       0.61331    0.94665    0.66667    1.000
    Mn16     Mn       0.27998    0.27998    0.00000    1.000
    Mn17     Mn       0.66667    0.05335    0.33333    1.000
    Mn18     Mn       0.94665    0.61331    0.33333    1.000
    Cl1      Cl       0.00000    0.42874    0.50000    1.000
    Cl2      Cl       0.66667    0.76207    0.83333    1.000
    Cl3      Cl       0.33333    0.09541    0.16667    1.000
    Cl4      Cl       0.57126    0.57126    0.50000    1.000
    Cl5      Cl       0.23793    0.90459    0.83333    1.000
    Cl6      Cl       0.90459    0.23793    0.16667    1.000
    Cl7      Cl       0.42874    0.00000    0.50000    1.000
    Cl8      Cl       0.09541    0.33333    0.83333    1.000
    Cl9      Cl       0.76207    0.66667    0.16667    1.000
    Cl10     Cl       0.00000    0.57126    0.50000    1.000
    Cl11     Cl       0.66667    0.90459    0.83333    1.000
    Cl12     Cl       0.33333    0.23793    0.16667    1.000
    Cl13     Cl       0.42874    0.42874    0.50000    1.000
    Cl14     Cl       0.09541    0.76207    0.83333    1.000
    Cl15     Cl       0.76207    0.09541    0.16667    1.000
    Cl16     Cl       0.57126    0.00000    0.50000    1.000
    Cl17     Cl       0.23793    0.33333    0.83333    1.000
    Cl18     Cl       0.90459    0.66667    0.16667    1.000
    N37      N        0.96238    0.29571    0.66667    1.000
    N38      N        0.62905    0.62905    0.00000    1.000
    N39      N        0.70429    0.66667    0.66667    1.000
    N40      N        0.37095    0.00000    0.00000    1.000
    N41      N        0.33333    0.03762    0.66667    1.000
    N42      N        0.00000    0.37095    0.00000    1.000
    N43      N        0.29571    0.96238    0.33333    1.000
    N44      N        0.66667    0.70429    0.33333    1.000
    N45      N        0.03762    0.33333    0.33333    1.000
    N46      N        0.03762    0.70429    0.33333    1.000
    N47      N        0.29571    0.33333    0.33333    1.000
    N48      N        0.66667    0.96238    0.33333    1.000
    N49      N        0.70429    0.03762    0.66667    1.000
    N50      N        0.37095    0.37095    0.00000    1.000
    N51      N        0.33333    0.29571    0.66667    1.000
    N52      N        0.00000    0.62905    0.00000    1.000
    N53      N        0.96238    0.66667    0.66667    1.000
    N54      N        0.62905    0.00000    0.00000    1.000
    C37      C        0.81882    0.18118    0.51280    1.000
    H1       H        0.80950    0.19050    0.41320    1.000
    C38      C        0.48549    0.51451    0.84613    1.000
    H2       H        0.47617    0.52383    0.74653    1.000
    C39      C        0.15215    0.84785    0.17947    1.000
    H3       H        0.14283    0.85717    0.07987    1.000
    C40      C        0.81882    0.63764    0.51280    1.000
    H4       H        0.80950    0.61900    0.41320    1.000
    C41      C        0.48549    0.97097    0.84613    1.000
    H5       H        0.47617    0.95233    0.74653    1.000
    C42      C        0.15215    0.30431    0.17947    1.000
    H6       H        0.14283    0.28567    0.07987    1.000
    C43      C        0.36236    0.18118    0.51280    1.000
    H7       H        0.38100    0.19050    0.41320    1.000
    C44      C        0.02903    0.51451    0.84613    1.000
    H8       H        0.04767    0.52383    0.74653    1.000
    C45      C        0.69569    0.84785    0.17947    1.000
    H9       H        0.71433    0.85717    0.07987    1.000
    C46      C        0.18118    0.81882    0.48720    1.000
    H10      H        0.19050    0.80950    0.58680    1.000
    C47      C        0.84785    0.15215    0.82053    1.000
    H11      H        0.85717    0.14283    0.92013    1.000
    C48      C        0.51451    0.48549    0.15387    1.000
    H12      H        0.52383    0.47617    0.25347    1.000
    C49      C        0.63764    0.81882    0.48720    1.000
    H13      H        0.61900    0.80950    0.58680    1.000
    C50      C        0.30431    0.15215    0.82053    1.000
    H14      H        0.28567    0.14283    0.92013    1.000
    C51      C        0.97097    0.48549    0.15387    1.000
    H15      H        0.95233    0.47617    0.25347    1.000
    C52      C        0.18118    0.36236    0.48720    1.000
    H16      H        0.19050    0.38100    0.58680    1.000
    C53      C        0.84785    0.69569    0.82053    1.000
    H17      H        0.85717    0.71433    0.92013    1.000
    C54      C        0.51451    0.02903    0.15387    1.000
    H18      H        0.52383    0.04767    0.25347    1.000
