# CIF file generated by openbabel 3.1.0, see https://openbabel.org
data_I
_chemical_name_common 'image0'
_cell_length_a 7.6835
_cell_length_b 8.6805
_cell_length_c 12.354
_cell_angle_alpha 90
_cell_angle_beta 90
_cell_angle_gamma 90
_space_group_name_H-M_alt 'P 1'
_space_group_name_Hall 'P 1'
loop_
    _symmetry_equiv_pos_as_xyz
    x,y,z
loop_
    _atom_site_label
    _atom_site_type_symbol
    _atom_site_fract_x
    _atom_site_fract_y
    _atom_site_fract_z
    _atom_site_occupancy
    O1       O        0.41560    0.14920    0.64750    1.000
    O2       O        0.26380    0.86540    0.55750    1.000
    C1       C        0.75460    0.29580    0.82380    1.000
    C2       C        0.67680    0.22780    0.73070    1.000
    C3       C        0.49410    0.21080    0.72620    1.000
    C4       C        0.21100    0.80800    0.64450    1.000
    C5       C        0.61410    0.73160    0.81910    1.000
    H1       H        0.69150    0.64940    0.79380    1.000
    H2       H        0.53750    0.69140    0.87590    1.000
    H3       H        0.68390    0.81650    0.84830    1.000
    C6       C        0.98320    0.22150    0.65290    1.000
    H4       H        0.04170    0.18020    0.58870    1.000
    H5       H        0.02900    0.17060    0.71780    1.000
    H6       H        0.00440    0.33260    0.65780    1.000
    N1       N        0.82200    0.35110    0.89740    1.000
    O3       O        0.58440    0.85080    0.64750    1.000
    O4       O        0.73620    0.13460    0.55750    1.000
    C7       C        0.24540    0.70420    0.82380    1.000
    C8       C        0.32320    0.77220    0.73070    1.000
    C9       C        0.50590    0.78920    0.72620    1.000
    C10      C        0.78900    0.19200    0.64450    1.000
    C11      C        0.38590    0.26840    0.81910    1.000
    H7       H        0.30850    0.35060    0.79380    1.000
    H8       H        0.46250    0.30860    0.87590    1.000
    H9       H        0.31610    0.18350    0.84830    1.000
    C12      C        0.01680    0.77850    0.65290    1.000
    H10      H        0.95830    0.81980    0.58870    1.000
    H11      H        0.97100    0.82940    0.71780    1.000
    H12      H        0.99560    0.66740    0.65780    1.000
    N2       N        0.17800    0.64890    0.89740    1.000
    O5       O        0.58440    0.14920    0.35250    1.000
    O6       O        0.73620    0.86540    0.44250    1.000
    C13      C        0.24540    0.29580    0.17620    1.000
    C14      C        0.32320    0.22780    0.26930    1.000
    C15      C        0.50590    0.21080    0.27380    1.000
    C16      C        0.78900    0.80800    0.35550    1.000
    C17      C        0.38590    0.73160    0.18090    1.000
    H13      H        0.30850    0.64940    0.20620    1.000
    H14      H        0.46250    0.69140    0.12410    1.000
    H15      H        0.31610    0.81650    0.15170    1.000
    C18      C        0.01680    0.22150    0.34710    1.000
    H16      H        0.95830    0.18020    0.41130    1.000
    H17      H        0.97100    0.17060    0.28220    1.000
    H18      H        0.99560    0.33260    0.34220    1.000
    N3       N        0.17800    0.35110    0.10260    1.000
    O7       O        0.41560    0.85080    0.35250    1.000
    O8       O        0.26380    0.13460    0.44250    1.000
    C19      C        0.75460    0.70420    0.17620    1.000
    C20      C        0.67680    0.77220    0.26930    1.000
    C21      C        0.49410    0.78920    0.27380    1.000
    C22      C        0.21100    0.19200    0.35550    1.000
    C23      C        0.61410    0.26840    0.18090    1.000
    H19      H        0.69150    0.35060    0.20620    1.000
    H20      H        0.53750    0.30860    0.12410    1.000
    H21      H        0.68390    0.18350    0.15170    1.000
    C24      C        0.98320    0.77850    0.34710    1.000
    H22      H        0.04170    0.81980    0.41130    1.000
    H23      H        0.02900    0.82940    0.28220    1.000
    H24      H        0.00440    0.66740    0.34220    1.000
    N4       N        0.82200    0.64890    0.10260    1.000
    Ag1      Ag       0.00000    0.50000    0.00000    1.000
    Yb1      Yb       0.50000    0.00000    0.50000    1.000
