# CIF file generated by openbabel 3.1.0, see https://openbabel.org
data_I
_chemical_name_common 'image0'
_cell_length_a 11.038
_cell_length_b 11.249
_cell_length_c 16.132
_cell_angle_alpha 75.24
_cell_angle_beta 82.8
_cell_angle_gamma 75.26
_space_group_name_H-M_alt 'P 1'
_space_group_name_Hall 'P 1'
loop_
    _symmetry_equiv_pos_as_xyz
    x,y,z
loop_
    _atom_site_label
    _atom_site_type_symbol
    _atom_site_fract_x
    _atom_site_fract_y
    _atom_site_fract_z
    _atom_site_occupancy
    O1       O        0.75850    0.15330    0.21760    1.000
    C1       C        0.71620    0.25000    0.24610    1.000
    C2       C        0.76220    0.36590    0.20000    1.000
    N1       N        0.97500    0.45510    0.01460    1.000
    O2       O        0.85160    0.93200    0.00760    1.000
    C3       C        0.90490    0.92500    0.93480    1.000
    O3       O        0.02070    0.92410    0.91540    1.000
    O4       O        0.42470    0.00530    0.75870    1.000
    O5       O        0.42900    0.98110    0.89780    1.000
    C4       C        0.48640    0.97790    0.82590    1.000
    C5       C        0.62560    0.93890    0.81650    1.000
    C6       C        0.69830    0.94040    0.88120    1.000
    H1       H        0.65986    0.95777    0.93284    1.000
    C7       C        0.83010    0.91560    0.86750    1.000
    O6       O        0.38800    0.88140    0.45980    1.000
    O7       O        0.37940    0.81500    0.34350    1.000
    C8       C        0.32730    0.84380    0.41210    1.000
    C9       C        0.19480    0.83730    0.43790    1.000
    C10      C        0.14670    0.83690    0.52100    1.000
    H2       H        0.19905    0.83568    0.56229    1.000
    C11      C        0.11720    0.83990    0.37660    1.000
    H3       H        0.15014    0.83853    0.32078    1.000
    Sm1      Sm       0.58754    0.83987    0.37340    1.000
    Sm2      Sm       0.79283    0.00495    0.13442    1.000
    O8       O        0.93520    0.90280    0.25090    1.000
    O9       O        0.64090    0.71290    0.27350    1.000
    O10      O        0.77590    0.79510    0.17470    1.000
    N2       N        0.97840    0.84810    0.63040    1.000
    O11      O        0.64180    0.25450    0.31050    1.000
    C12      C        0.76610    0.58550    0.18500    1.000
    O12      O        0.79710    0.83270    0.35400    1.000
    N3       N        0.86200    0.85930    0.64540    1.000
    C13      C        0.72490    0.70740    0.21290    1.000
    C14      C        0.94020    0.84330    0.48080    1.000
    H4       H        0.85548    0.84565    0.49492    1.000
    C15      C        0.84520    0.36180    0.12950    1.000
    H5       H        0.87254    0.28764    0.11016    1.000
    C16      C        0.72180    0.47960    0.22810    1.000
    H6       H        0.66524    0.48368    0.27574    1.000
    C17      C        0.99100    0.84440    0.39710    1.000
    C18      C        0.81400    0.87960    0.72850    1.000
    C19      C        0.90100    0.86060    0.32790    1.000
    C20      C        0.02090    0.83840    0.54380    1.000
    C21      C        0.68530    0.90570    0.74160    1.000
    H7       H        0.63731    0.90107    0.69955    1.000
    C22      C        0.88910    0.47010    0.08640    1.000
    C23      C        0.84870    0.58010    0.11250    1.000
    H8       H        0.87597    0.65169    0.08207    1.000
    C24      C        0.88740    0.88800    0.79180    1.000
    H9       H        0.97409    0.87494    0.78217    1.000
    O13      O        0.24150    0.84670    0.78240    1.000
    C25      C        0.28380    0.75000    0.75390    1.000
    C26      C        0.23780    0.63410    0.80000    1.000
    N4       N        0.02500    0.54490    0.98540    1.000
    O14      O        0.14840    0.06800    0.99240    1.000
    C27      C        0.09510    0.07500    0.06520    1.000
    O15      O        0.97930    0.07590    0.08460    1.000
    O16      O        0.57530    0.99470    0.24130    1.000
    O17      O        0.57100    0.01890    0.10220    1.000
    C28      C        0.51360    0.02210    0.17410    1.000
    C29      C        0.37440    0.06110    0.18350    1.000
    C30      C        0.30170    0.05960    0.11880    1.000
    H10      H        0.34014    0.04223    0.06716    1.000
    C31      C        0.16990    0.08440    0.13250    1.000
    O18      O        0.61200    0.11860    0.54020    1.000
    O19      O        0.62060    0.18500    0.65650    1.000
    C32      C        0.67270    0.15620    0.58790    1.000
    C33      C        0.80520    0.16270    0.56210    1.000
    C34      C        0.85330    0.16310    0.47900    1.000
    H11      H        0.80095    0.16432    0.43771    1.000
    C35      C        0.88280    0.16010    0.62340    1.000
    H12      H        0.84986    0.16147    0.67922    1.000
    Sm3      Sm       0.41246    0.16013    0.62660    1.000
    Sm4      Sm       0.20717    0.99505    0.86558    1.000
    O20      O        0.06480    0.09720    0.74910    1.000
    O21      O        0.35910    0.28710    0.72650    1.000
    O22      O        0.22410    0.20490    0.82530    1.000
    N5       N        0.02160    0.15190    0.36960    1.000
    O23      O        0.35820    0.74550    0.68950    1.000
    C36      C        0.23390    0.41450    0.81500    1.000
    O24      O        0.20290    0.16730    0.64600    1.000
    N6       N        0.13800    0.14070    0.35460    1.000
    C37      C        0.27510    0.29260    0.78710    1.000
    C38      C        0.05980    0.15670    0.51920    1.000
    H13      H        0.14452    0.15435    0.50508    1.000
    C39      C        0.15480    0.63820    0.87050    1.000
    H14      H        0.12746    0.71236    0.88984    1.000
    C40      C        0.27820    0.52040    0.77190    1.000
    H15      H        0.33476    0.51632    0.72426    1.000
    C41      C        0.00900    0.15560    0.60290    1.000
    C42      C        0.18600    0.12040    0.27150    1.000
    C43      C        0.09900    0.13940    0.67210    1.000
    C44      C        0.97910    0.16160    0.45620    1.000
    C45      C        0.31470    0.09430    0.25840    1.000
    H16      H        0.36269    0.09893    0.30045    1.000
    C46      C        0.11090    0.52990    0.91360    1.000
    C47      C        0.15130    0.41990    0.88750    1.000
    H17      H        0.12403    0.34831    0.91793    1.000
    C48      C        0.11260    0.11200    0.20820    1.000
    H18      H        0.02591    0.12506    0.21783    1.000
