data_functionalizedCrystal
_audit_creation_method	'EQeq! by Chris Wilmer'
_symmetry_space_group_name_H-M	'P1'
_symmetry_Int_Tables_number	1
_symmetry_cell_setting	triclinic
loop_
_symmetry_equiv_pos_as_xyz
  x,y,z
_cell_length_a	18.6074
_cell_length_b	18.6074
_cell_length_c	18.6074
_cell_angle_alpha	60
_cell_angle_beta	60
_cell_angle_gamma	60
loop_
_atom_site_label
_atom_site_type_symbol
_atom_site_fract_x
_atom_site_fract_y
_atom_site_fract_z
_atom_site_charge
Mof_Cu	Cu	0.56985	0.43015	-0	0.895
Mof_Cu	Cu	0.56985	0	0.43015	0.895
Mof_Cu	Cu	0.43015	2.49556e-17	0.56985	0.895
Mof_Cu	Cu	-1.49734e-16	0.56985	0.43015	0.895
Mof_Cu	Cu	-0	0.43015	-0	0.859
Mof_Cu	Cu	-1.49734e-16	0.43015	0.56985	0.895
Mof_Cu	Cu	-0	0.56985	-0	0.86
Mof_Cu	Cu	0.56985	0	-0	0.86
Mof_Cu	Cu	0.43015	0	-0	0.859
Mof_Cu	Cu	-4.99112e-17	2.49556e-17	0.56985	0.86
Mof_Cu	Cu	-4.99112e-17	0	0.43015	0.859
Mof_Cu	Cu	0.43015	0.56985	-0	0.895
Mof_H 	H 	0.7282	0.0308	0.7282	0.047
Mof_H 	H 	0.7282	0.5128	0.7282	0.067
Mof_H 	H 	0.0308	0.5128	0.7282	0.041
Mof_H 	H 	0.0308	0.7282	0.5128	0.041
Mof_H 	H 	0.0308	0.7282	0.7282	0.047
Mof_H 	H 	0.4872	0.2718	0.2718	0.051
Mof_H 	H 	0.2718	0.9692	0.2718	0.081
Mof_H 	H 	0.4872	0.9692	0.2718	0.083
Mof_H 	H 	0.5128	0.7282	0.0308	0.041
Mof_H 	H 	0.9692	0.2718	0.2718	0.081
Mof_H 	H 	0.7282	0.0308	0.5128	0.041
Mof_H 	H 	0.2718	0.4872	0.2718	0.051
Mof_H 	H 	0.2718	0.2718	0.9692	0.081
Mof_H 	H 	0.7282	0.7282	0.5128	0.067
Mof_H 	H 	0.2718	0.2718	0.4872	0.051
Mof_H 	H 	0.7282	0.7282	0.0308	0.047
Mof_H 	H 	0.2718	0.4872	0.9692	0.083
Mof_H 	H 	0.2718	0.9692	0.4872	0.083
Mof_H 	H 	0.9692	0.4872	0.2718	0.083
Mof_H 	H 	0.9692	0.2718	0.4872	0.083
Mof_H 	H 	0.4872	0.2718	0.9692	0.083
Mof_H 	H 	0.7282	0.5128	0.0308	0.041
Mof_H 	H 	0.5128	0.7282	0.7282	0.067
Mof_H 	H 	0.5128	0.0308	0.7282	0.041
Mof_C 	C 	0.42956	0.30064	0.96916	0.017
Mof_C 	C 	0.96911	0.25747	0.38671	-0.06
Mof_C 	C 	0.83767	0.56895	0.56895	0.349
Mof_C 	C 	0.6958	0.0432	0.0432	0.059
Mof_C 	C 	0.61329	0.03089	0.74253	-0.107
Mof_C 	C 	0.9903	0.3455	0.8053	0.034
Mof_C 	C 	0.0432	0.6958	0.2178	0.065
Mof_C 	C 	0.43105	0.43105	0.97557	0.339
Mof_C 	C 	0.3042	0.9568	0.9568	0.237
Mof_C 	C 	0.3042	0.9568	0.7822	0.156
Mof_C 	C 	0.16233	0.43105	0.43105	0.352
Mof_C 	C 	0.61329	0.61329	0.03089	-0.115
Mof_C 	C 	0.97557	0.16233	0.43105	0.335
Mof_C 	C 	0.03084	0.69936	0.57044	0.054
Mof_C 	C 	0.38671	0.96911	0.38671	-0.058
Mof_C 	C 	0.03089	0.61329	0.61329	-0.115
Mof_C 	C 	0.69936	0.57044	0.69936	0.037
Mof_C 	C 	0.3455	0.8589	0.9903	0.013
Mof_C 	C 	0.02443	0.83767	0.56895	0.352
Mof_C 	C 	0.3455	0.9903	0.8589	0.013
Mof_C 	C 	0.8589	0.8053	0.3455	0.004
Mof_C 	C 	0.7822	0.3042	0.9568	0.156
Mof_C 	C 	0.43105	0.16233	0.43105	0.352
Mof_C 	C 	0.56895	0.02443	0.83767	0.352
Mof_C 	C 	0.42956	0.96916	0.30064	0.017
Mof_C 	C 	0.6545	0.1411	0.1947	-0.01
Mof_C 	C 	0.2178	0.0432	0.0432	0.04
Mof_C 	C 	0.56895	0.83767	0.02443	0.352
Mof_C 	C 	0.1411	0.0097	0.1947	-0.041
Mof_C 	C 	0.57044	0.03084	0.69936	0.054
Mof_C 	C 	0.6545	0.1411	0.0097	-0.039
Mof_C 	C 	0.9568	0.7822	0.9568	0.228
Mof_C 	C 	0.30064	0.42956	0.30064	0.044
Mof_C 	C 	0.8589	0.3455	0.8053	0.004
Mof_C 	C 	0.03084	0.57044	0.69936	0.054
Mof_C 	C 	0.7822	0.9568	0.9568	0.228
Mof_C 	C 	0.69936	0.57044	0.03084	0.054
Mof_C 	C 	0.74253	0.61329	0.61329	-0.077
Mof_C 	C 	0.3455	0.8589	0.8053	0.004
Mof_C 	C 	0.0097	0.1947	0.6545	-0.029
Mof_C 	C 	0.1947	0.0097	0.1411	-0.041
Mof_C 	C 	0.0432	0.0432	0.6958	0.059
Mof_C 	C 	0.9903	0.8589	0.3455	0.013
Mof_C 	C 	0.43105	0.43105	0.16233	0.352
Mof_C 	C 	0.9568	0.3042	0.9568	0.237
Mof_C 	C 	0.57044	0.69936	0.03084	0.054
Mof_C 	C 	0.61329	0.74253	0.03089	-0.107
Mof_C 	C 	0.6958	0.2178	0.0432	0.065
Mof_C 	C 	0.9568	0.9568	0.7822	0.228
Mof_C 	C 	0.30064	0.96916	0.30064	0.016
Mof_C 	C 	0.9568	0.9568	0.3042	0.237
Mof_C 	C 	0.1411	0.6545	0.1947	-0.01
Mof_C 	C 	0.0432	0.2178	0.0432	0.04
Mof_C 	C 	0.69936	0.03084	0.69936	0.053
Mof_C 	C 	0.56895	0.56895	0.83767	0.349
Mof_C 	C 	0.02443	0.56895	0.56895	0.36
Mof_C 	C 	0.61329	0.61329	0.74253	-0.077
Mof_C 	C 	0.8053	0.9903	0.8589	0.026
Mof_C 	C 	0.8053	0.8589	0.3455	0.004
Mof_C 	C 	0.0432	0.0432	0.2178	0.04
Mof_C 	C 	0.0097	0.6545	0.1947	-0.029
Mof_C 	C 	0.1947	0.0097	0.6545	-0.029
Mof_C 	C 	0.1411	0.0097	0.6545	-0.039
Mof_C 	C 	0.0432	0.2178	0.6958	0.065
Mof_C 	C 	0.0097	0.1411	0.1947	-0.041
Mof_C 	C 	0.30064	0.30064	0.96916	0.016
Mof_C 	C 	0.38671	0.25747	0.38671	-0.105
Mof_C 	C 	0.69936	0.03084	0.57044	0.054
Mof_C 	C 	0.6958	0.0432	0.2178	0.065
Mof_C 	C 	0.6545	0.1947	0.1411	-0.01
Mof_C 	C 	0.1411	0.1947	0.6545	-0.01
Mof_C 	C 	0.8589	0.9903	0.8053	0.026
Mof_C 	C 	0.83767	0.56895	0.02443	0.352
Mof_C 	C 	0.8589	0.9903	0.3455	0.013
Mof_C 	C 	0.1411	0.1947	0.0097	-0.041
Mof_C 	C 	0.1947	0.6545	0.0097	-0.029
Mof_C 	C 	0.25747	0.96911	0.38671	-0.06
Mof_C 	C 	0.56895	0.56895	0.02443	0.36
Mof_C 	C 	0.16233	0.97557	0.43105	0.335
Mof_C 	C 	0.56895	0.02443	0.56895	0.36
Mof_C 	C 	0.6545	0.1947	0.0097	-0.029
Mof_C 	C 	0.61329	0.74253	0.61329	-0.077
Mof_C 	C 	0.38671	0.25747	0.96911	-0.06
Mof_C 	C 	0.1947	0.6545	0.1411	-0.01
Mof_C 	C 	0.1411	0.6545	0.0097	-0.039
Mof_C 	C 	0.0097	0.1947	0.1411	-0.041
Mof_C 	C 	0.38671	0.38671	0.25747	-0.105
Mof_C 	C 	0.3042	0.7822	0.9568	0.156
Mof_C 	C 	0.38671	0.38671	0.96911	-0.058
Mof_C 	C 	0.74253	0.03089	0.61329	-0.107
Mof_C 	C 	0.69936	0.69936	0.57044	0.037
Mof_C 	C 	0.96916	0.42956	0.30064	0.017
Mof_C 	C 	0.6545	0.0097	0.1947	-0.029
Mof_C 	C 	0.8053	0.3455	0.8589	0.004
Mof_C 	C 	0.9903	0.8053	0.3455	0.034
Mof_C 	C 	0.3455	0.8053	0.8589	0.004
Mof_C 	C 	0.0097	0.1411	0.6545	-0.039
Mof_C 	C 	0.16233	0.43105	0.97557	0.335
Mof_C 	C 	0.0097	0.6545	0.1411	-0.039
Mof_C 	C 	0.7822	0.9568	0.3042	0.156
Mof_C 	C 	0.38671	0.96911	0.25747	-0.06
Mof_C 	C 	0.8053	0.3455	0.9903	0.034
Mof_C 	C 	0.8589	0.8053	0.9903	0.026
Mof_C 	C 	0.30064	0.42956	0.96916	0.017
Mof_C 	C 	0.9903	0.8053	0.8589	0.026
Mof_C 	C 	0.9568	0.7822	0.3042	0.156
Mof_C 	C 	0.3455	0.9903	0.8053	0.034
Mof_C 	C 	0.56895	0.83767	0.56895	0.349
Mof_C 	C 	0.96911	0.38671	0.25747	-0.06
Mof_C 	C 	0.43105	0.16233	0.97557	0.335
Mof_C 	C 	0.61329	0.03089	0.61329	-0.115
Mof_C 	C 	0.8053	0.8589	0.9903	0.026
Mof_C 	C 	0.97557	0.43105	0.43105	0.339
Mof_C 	C 	0.2178	0.6958	0.0432	0.065
Mof_C 	C 	0.96916	0.30064	0.30064	0.016
Mof_C 	C 	0.03089	0.61329	0.74253	-0.107
Mof_C 	C 	0.8053	0.9903	0.3455	0.034
Mof_C 	C 	0.3455	0.8053	0.9903	0.034
Mof_C 	C 	0.9903	0.8589	0.8053	0.026
Mof_C 	C 	0.97557	0.43105	0.16233	0.335
Mof_C 	C 	0.9903	0.3455	0.8589	0.013
Mof_C 	C 	0.1947	0.1411	0.6545	-0.01
Mof_C 	C 	0.30064	0.96916	0.42956	0.017
Mof_C 	C 	0.6545	0.0097	0.1411	-0.039
Mof_C 	C 	0.96916	0.30064	0.42956	0.017
Mof_C 	C 	0.8589	0.3455	0.9903	0.013
Mof_C 	C 	0.0432	0.6958	0.0432	0.059
Mof_C 	C 	0.03084	0.69936	0.69936	0.053
Mof_C 	C 	0.83767	0.02443	0.56895	0.352
Mof_C 	C 	0.2178	0.0432	0.6958	0.065
Mof_C 	C 	0.25747	0.38671	0.96911	-0.06
Mof_C 	C 	0.74253	0.61329	0.03089	-0.107
Mof_C 	C 	0.1947	0.1411	0.0097	-0.041
Mof_C 	C 	0.69936	0.69936	0.03084	0.053
Mof_C 	C 	0.25747	0.38671	0.38671	-0.105
Mof_C 	C 	0.02443	0.56895	0.83767	0.352
Mof_C 	C 	0.96911	0.38671	0.38671	-0.058
Mof_C 	C 	0.03089	0.74253	0.61329	-0.107
Mof_C 	C 	0.9568	0.3042	0.7822	0.156
Mof_C 	C 	0.43105	0.97557	0.43105	0.339
Mof_C 	C 	0.30064	0.30064	0.42956	0.044
Mof_C 	C 	0.57044	0.69936	0.69936	0.037
Mof_C 	C 	0.43105	0.97557	0.16233	0.335
Mof_C 	C 	0.42956	0.30064	0.30064	0.044
Mof_O 	O 	0.6884	0	-0	-0.384
Mof_O 	O 	0.12608	0.3876	0.50786	-0.402
Mof_O 	O 	0.02154	0.6124	0.49214	-0.412
Mof_O 	O 	0.12608	0.50786	0.3876	-0.402
Mof_O 	O 	0.97846	0.3876	0.12608	-0.346
Mof_O 	O 	0.3876	0.97846	0.50786	-0.337
Mof_O 	O 	-4.36723e-17	1.24778e-17	0.3116	-0.394
Mof_O 	O 	0.3876	0.12608	0.97846	-0.346
Mof_O 	O 	0.02154	0.49214	0.87392	-0.374
Mof_O 	O 	0.6884	0.3116	-0	-0.322
Mof_O 	O 	0.87392	0.02154	0.6124	-0.373
Mof_O 	O 	-7.48668e-17	0	0.6884	-0.384
Mof_O 	O 	0.6124	0.02154	0.87392	-0.373
Mof_O 	O 	0.50786	0.3876	0.97846	-0.337
Mof_O 	O 	0.12608	0.97846	0.50786	-0.346
Mof_O 	O 	0.02154	0.87392	0.6124	-0.373
Mof_O 	O 	0.6124	0.49214	0.02154	-0.412
Mof_O 	O 	0.50786	0.12608	0.3876	-0.402
Mof_O 	O 	-0	0.6884	-0	-0.384
Mof_O 	O 	-9.35835e-17	0.6884	0.3116	-0.322
Mof_O 	O 	0.3876	0.50786	0.12608	-0.402
Mof_O 	O 	0.6124	0.49214	0.87392	-0.35
Mof_O 	O 	0.50786	0.97846	0.3876	-0.337
Mof_O 	O 	0.49214	0.6124	0.02154	-0.412
Mof_O 	O 	0.12608	0.97846	0.3876	-0.346
Mof_O 	O 	0.3116	0.6884	-0	-0.322
Mof_O 	O 	0.6124	0.87392	0.02154	-0.373
Mof_O 	O 	0.02154	0.6124	0.87392	-0.373
Mof_O 	O 	0.50786	0.3876	0.12608	-0.402
Mof_O 	O 	0.12608	0.50786	0.97846	-0.346
Mof_O 	O 	0.87392	0.6124	0.49214	-0.35
Mof_O 	O 	-2.49556e-17	0.3116	-0	-0.394
Mof_O 	O 	0.87392	0.49214	0.6124	-0.35
Mof_O 	O 	0.02154	0.87392	0.49214	-0.374
Mof_O 	O 	0.87392	0.6124	0.02154	-0.373
Mof_O 	O 	0.97846	0.12608	0.3876	-0.346
Mof_O 	O 	0.6124	0.87392	0.49214	-0.35
Mof_O 	O 	0.6124	0.02154	0.49214	-0.412
Mof_O 	O 	0.49214	0.87392	0.6124	-0.35
Mof_O 	O 	0.3116	0	0.6884	-0.322
Mof_O 	O 	0.12608	0.3876	0.97846	-0.346
Mof_O 	O 	0.3876	0.12608	0.50786	-0.402
Mof_O 	O 	0.87392	0.49214	0.02154	-0.374
Mof_O 	O 	0.49214	0.02154	0.87392	-0.374
Mof_O 	O 	0.50786	0.97846	0.12608	-0.346
Mof_O 	O 	0.3876	0.50786	0.97846	-0.337
Mof_O 	O 	0.49214	0.87392	0.02154	-0.374
Mof_O 	O 	0.50786	0.12608	0.97846	-0.346
Mof_O 	O 	0.3116	0	-0	-0.394
Mof_O 	O 	-1.24778e-16	0.3116	0.6884	-0.322
Mof_O 	O 	0.49214	0.6124	0.87392	-0.35
Mof_O 	O 	0.97846	0.12608	0.50786	-0.346
Mof_O 	O 	0.97846	0.50786	0.12608	-0.346
Mof_O 	O 	0.49214	0.02154	0.6124	-0.412
Mof_O 	O 	0.97846	0.50786	0.3876	-0.337
Mof_O 	O 	0.97846	0.3876	0.50786	-0.337
Mof_O 	O 	0.02154	0.49214	0.6124	-0.412
Mof_O 	O 	0.3876	0.97846	0.12608	-0.346
Mof_O 	O 	0.87392	0.02154	0.49214	-0.374
Mof_O 	O 	0.6884	1.24778e-17	0.3116	-0.322
_end
