data_functionalizedCrystal
_audit_creation_method	'EQeq! by Chris Wilmer'
_symmetry_space_group_name_H-M	'P1'
_symmetry_Int_Tables_number	1
_symmetry_cell_setting	triclinic
loop_
_symmetry_equiv_pos_as_xyz
  x,y,z
_cell_length_a	38.648
_cell_length_b	38.648
_cell_length_c	59.844
_cell_angle_alpha	90
_cell_angle_beta	90
_cell_angle_gamma	120
loop_
_atom_site_label
_atom_site_type_symbol
_atom_site_fract_x
_atom_site_fract_y
_atom_site_fract_z
_atom_site_charge
Mof_C 	C 	0.30716	0.2087	0.36996	0.329
Mof_C 	C 	0.29562	0.23883	0.37339	0.008
Mof_C 	C 	0.31793	0.27102	0.38776	-0.134
Mof_H 	H 	0.3375	0.2708	0.3967	0.085
Mof_C 	C 	0.31167	0.30247	0.38891	0.114
Mof_H 	H 	0.3268	0.3237	0.3985	-0.007
Mof_C 	C 	0.28356	0.3027	0.37616	-0.263
Mof_H 	H 	0.2795	0.3244	0.3768	0.109
Mof_C 	C 	0.25988	0.27072	0.36166	0.266
Mof_C 	C 	0.26616	0.23886	0.36032	-0.21
Mof_H 	H 	0.2508	0.2176	0.3508	0.115
Mof_C 	C 	0.20654	0.24459	0.33486	0.248
Mof_H 	H 	0.1898	0.2197	0.3427	-0.048
Mof_H 	H 	0.222	0.24	0.3237	-0.051
Mof_C 	C 	0.18106	0.25958	0.32389	-0.42
Mof_C 	C 	0.15188	0.26169	0.33631	0.483
Mof_C 	C 	0.13284	0.28025	0.32709	-0.405
Mof_C 	C 	0.13947	0.2929	0.30493	0.509
Mof_C 	C 	0.16791	0.2893	0.29271	-0.406
Mof_C 	C 	0.19098	0.27401	0.30286	0.487
Mof_C 	C 	0.22445	0.27436	0.28958	-1.025
Mof_H 	H 	0.2466	0.2806	0.2993	0.339
Mof_H 	H 	0.2328	0.2941	0.278	0.343
Mof_H 	H 	0.2152	0.2485	0.283	0.331
Mof_C 	C 	0.13993	0.24361	0.3597	-0.996
Mof_H 	H 	0.1364	0.2172	0.3597	0.329
Mof_H 	H 	0.1154	0.2423	0.364	0.334
Mof_H 	H 	0.1605	0.26	0.3701	0.313
Mof_C 	C 	0.11684	0.31098	0.29479	-1.058
Mof_H 	H 	0.0927	0.3027	0.3031	0.354
Mof_H 	H 	0.1103	0.3023	0.2796	0.343
Mof_H 	H 	0.133	0.3396	0.2952	0.338
Mof_C 	C 	0.10433	0.28741	0.34065	0.226
Mof_H 	H 	0.1107	0.2886	0.3564	-0.037
Mof_H 	H 	0.1065	0.3126	0.3364	-0.038
Mof_C 	C 	0.03501	0.25876	0.34714	0.228
Mof_C 	C 	0.04203	0.29112	0.36044	-0.224
Mof_H 	H 	0.068	0.3117	0.3629	0.11
Mof_C 	C 	0.01017	0.29274	0.37011	0.067
Mof_H 	H 	0.0149	0.3144	0.379	-0.006
Mof_C 	C 	0.97128	0.262	0.36647	-0.108
Mof_H 	H 	0.95	0.2631	0.3729	0.063
Mof_C 	C 	0.96426	0.22963	0.35317	-0.023
Mof_C 	C 	0.99612	0.22801	0.3435	-0.166
Mof_H 	H 	0.9914	0.2064	0.3346	0.111
Mof_C 	C 	0.9231	0.19716	0.34934	0.355
Mof_C 	C 	0.17627	0.30412	0.26873	0.27
Mof_H 	H 	0.1873	0.2902	0.2606	-0.052
Mof_H 	H 	0.1515	0.2986	0.2615	-0.063
Mof_C 	C 	0.20964	0.36455	0.2486	0.253
Mof_C 	C 	0.23607	0.40542	0.24946	-0.239
Mof_H 	H 	0.2479	0.4173	0.263	0.112
Mof_C 	C 	0.24489	0.42843	0.23054	0.086
Mof_H 	H 	0.262	0.4559	0.2313	-0.007
Mof_C 	C 	0.22798	0.41034	0.21006	-0.116
Mof_H 	H 	0.2347	0.4256	0.1971	0.073
Mof_C 	C 	0.20133	0.36989	0.20922	0.007
Mof_C 	C 	0.19331	0.34728	0.22864	-0.209
Mof_H 	H 	0.1764	0.3198	0.2279	0.113
Mof_C 	C 	0.18305	0.34978	0.18755	0.339
Mof_C 	C 	0.17085	0.12994	0.34342	0.38
Mof_C 	C 	0.14841	0.13367	0.36261	-0.018
Mof_C 	C 	0.10783	0.12062	0.361	-0.098
Mof_H 	H 	0.0939	0.108	0.348	0.07
Mof_C 	C 	0.08804	0.12635	0.37875	0.057
Mof_H 	H 	0.0609	0.1176	0.3777	0.006
Mof_C 	C 	0.10883	0.14514	0.39812	-0.215
Mof_H 	H 	0.0956	0.149	0.41	0.109
Mof_C 	C 	0.14941	0.15819	0.39973	0.229
Mof_C 	C 	0.1692	0.15246	0.38197	-0.176
Mof_H 	H 	0.1963	0.1612	0.383	0.104
Mof_C 	C 	0.20834	0.19668	0.41937	0.238
Mof_H 	H 	0.2182	0.2115	0.4055	-0.043
Mof_H 	H 	0.2184	0.1783	0.4206	-0.044
Mof_C 	C 	0.22275	0.22549	0.43921	-0.401
Mof_C 	C 	0.2224	0.26084	0.43792	0.543
Mof_C 	C 	0.24136	0.28945	0.45523	-0.413
Mof_C 	C 	0.26073	0.28217	0.47205	0.48
Mof_C 	C 	0.25912	0.24531	0.47404	-0.393
Mof_C 	C 	0.23809	0.21552	0.45841	0.461
Mof_C 	C 	0.23321	0.17443	0.46059	-0.969
Mof_H 	H 	0.2084	0.1551	0.4539	0.316
Mof_H 	H 	0.2332	0.1682	0.4761	0.315
Mof_H 	H 	0.2549	0.1739	0.4531	0.306
Mof_C 	C 	0.20505	0.27063	0.41906	-1.135
Mof_H 	H 	0.226	0.2887	0.4092	0.363
Mof_H 	H 	0.1904	0.283	0.4244	0.37
Mof_H 	H 	0.1873	0.2466	0.4111	0.371
Mof_C 	C 	0.28494	0.3157	0.48889	-0.999
Mof_H 	H 	0.3023	0.3399	0.481	0.344
Mof_H 	H 	0.3006	0.3083	0.4981	0.34
Mof_H 	H 	0.267	0.3198	0.4981	0.337
Mof_C 	C 	0.24209	0.32833	0.45386	0.245
Mof_H 	H 	0.2213	0.3263	0.444	-0.053
Mof_H 	H 	0.2384	0.3368	0.4685	-0.042
Mof_C 	C 	0.29389	0.39519	0.44724	0.24
Mof_C 	C 	0.33438	0.42118	0.44366	-0.217
Mof_H 	H 	0.3514	0.4111	0.4409	0.107
Mof_C 	C 	0.34952	0.46223	0.44424	0.08
Mof_H 	H 	0.3766	0.4796	0.4418	-0.002
Mof_C 	C 	0.32416	0.47729	0.44839	-0.108
Mof_H 	H 	0.3343	0.5048	0.4488	0.079
Mof_C 	C 	0.28366	0.45131	0.45196	0.001
Mof_C 	C 	0.26852	0.41026	0.45138	-0.183
Mof_H 	H 	0.2414	0.3929	0.4538	0.106
Mof_C 	C 	0.25761	0.4673	0.45607	0.305
Mof_C 	C 	0.28493	0.24152	0.49129	0.251
Mof_H 	H 	0.2845	0.2165	0.4891	-0.041
Mof_H 	H 	0.3122	0.263	0.4893	-0.047
Mof_C 	C 	0.30198	0.25719	0.52925	0.225
Mof_C 	C 	0.29184	0.26797	0.54931	-0.206
Mof_H 	H 	0.2667	0.2652	0.5511	0.104
Mof_C 	C 	0.3193	0.28287	0.56671	0.066
Mof_H 	H 	0.3125	0.2901	0.5801	-0
Mof_C 	C 	0.35691	0.28697	0.56406	-0.108
Mof_H 	H 	0.3753	0.2969	0.5757	0.06
Mof_C 	C 	0.36705	0.27619	0.544	-0.003
Mof_C 	C 	0.33959	0.26129	0.5266	-0.176
Mof_H 	H 	0.3464	0.2541	0.5132	0.1
Mof_C 	C 	0.40685	0.27991	0.5413	0.294
Mof_Mn	Mn	0.34302	0.1645	0.36098	0.824
Mof_Mn	Mn	0.25527	0.13998	0.32848	0.921
Mof_Mn	Mn	0.18567	0.13994	0.29248	0.736
Mof_O 	O 	0.33681	0.21141	0.3805	-0.365
Mof_O 	O 	0.29018	0.18155	0.35647	-0.407
Mof_O 	O 	0.23277	0.27502	0.35037	-0.314
Mof_O 	O 	0.20306	0.34488	0.26826	-0.314
Mof_O 	O 	0.15873	0.31303	0.18854	-0.374
Mof_O 	O 	0.19296	0.37026	0.17037	-0.389
Mof_O 	O 	0.06431	0.25511	0.33659	-0.286
Mof_O 	O 	0.91666	0.16536	0.341	-0.369
Mof_O 	O 	0.89625	0.20384	0.3565	-0.41
Mof_O 	O 	0.20188	0.1311	0.3475	-0.38
Mof_O 	O 	0.15533	0.12555	0.32491	-0.384
Mof_O 	O 	0.16623	0.17539	0.41935	-0.298
Mof_O 	O 	0.28201	0.35645	0.4449	-0.292
Mof_O 	O 	0.22228	0.44321	0.4624	-0.397
Mof_O 	O 	0.26738	0.50275	0.45256	-0.307
Mof_O 	O 	0.27271	0.24279	0.5133	-0.293
Mof_O 	O 	0.41716	0.27428	0.52263	-0.376
Mof_O 	O 	0.42934	0.28863	0.55833	-0.355
Mof_O 	O 	0.3968	0.1699	0.3713	-0.226
Mof_O 	O 	0.3999	0.1646	0.3684	-0.224
Mof_H 	H 	0.421	0.1912	0.3709	-0.334
Mof_H 	H 	0.3972	0.1486	0.3812	0.334
Mof_H 	H 	0.3951	0.1379	0.3675	-0.011
Mof_H 	H 	0.4189	0.1806	0.3572	0.307
Mof_H 	H 	0.416	0.1972	0.3741	0.432
Mof_H 	H 	0.3917	0.155	0.3849	-0.203
Mof_H 	H 	0.3936	0.1438	0.3721	0.011
Mof_H 	H 	0.418	0.186	0.3613	-0.114
Mof_C 	C 	0.97383	0.54203	0.70329	0.33
Mof_C 	C 	0.96229	0.57216	0.70672	0.009
Mof_C 	C 	0.9846	0.60435	0.72109	-0.133
Mof_H 	H 	0.00417	0.60413	0.73003	0.086
Mof_C 	C 	0.97834	0.6358	0.72224	0.115
Mof_H 	H 	0.99347	0.65703	0.73183	-0.006
Mof_C 	C 	0.95023	0.63603	0.70949	-0.262
Mof_H 	H 	0.94617	0.65773	0.71013	0.11
Mof_C 	C 	0.92655	0.60405	0.69499	0.267
Mof_C 	C 	0.93283	0.57219	0.69365	-0.209
Mof_H 	H 	0.91747	0.55093	0.68413	0.116
Mof_C 	C 	0.87321	0.57792	0.66819	0.249
Mof_H 	H 	0.85647	0.55303	0.67603	-0.047
Mof_H 	H 	0.88867	0.57333	0.65703	-0.05
Mof_C 	C 	0.84773	0.59291	0.65722	-0.419
Mof_C 	C 	0.81855	0.59502	0.66964	0.484
Mof_C 	C 	0.79951	0.61358	0.66042	-0.404
Mof_C 	C 	0.80614	0.62623	0.63826	0.51
Mof_C 	C 	0.83458	0.62263	0.62604	-0.405
Mof_C 	C 	0.85765	0.60734	0.63619	0.488
Mof_C 	C 	0.89112	0.60769	0.62291	-1.024
Mof_H 	H 	0.91327	0.61393	0.63263	0.34
Mof_H 	H 	0.89947	0.62743	0.61133	0.344
Mof_H 	H 	0.88187	0.58183	0.61633	0.332
Mof_C 	C 	0.8066	0.57694	0.69303	-0.995
Mof_H 	H 	0.80307	0.55053	0.69303	0.33
Mof_H 	H 	0.78207	0.57563	0.69733	0.335
Mof_H 	H 	0.82717	0.59333	0.70343	0.314
Mof_C 	C 	0.78351	0.64431	0.62812	-1.057
Mof_H 	H 	0.75937	0.63603	0.63643	0.355
Mof_H 	H 	0.77697	0.63563	0.61293	0.344
Mof_H 	H 	0.79967	0.67293	0.62853	0.339
Mof_C 	C 	0.771	0.62074	0.67398	0.227
Mof_H 	H 	0.77737	0.62193	0.68973	-0.036
Mof_H 	H 	0.77317	0.64593	0.66973	-0.037
Mof_C 	C 	0.70168	0.59209	0.68047	0.229
Mof_C 	C 	0.7087	0.62445	0.69377	-0.223
Mof_H 	H 	0.73467	0.64503	0.69623	0.111
Mof_C 	C 	0.67684	0.62607	0.70344	0.068
Mof_H 	H 	0.68157	0.64773	0.71233	-0.005
Mof_C 	C 	0.63795	0.59533	0.6998	-0.107
Mof_H 	H 	0.61667	0.59643	0.70623	0.064
Mof_C 	C 	0.63093	0.56296	0.6865	-0.022
Mof_C 	C 	0.66279	0.56134	0.67683	-0.165
Mof_H 	H 	0.65807	0.53973	0.66793	0.112
Mof_C 	C 	0.58977	0.53049	0.68267	0.356
Mof_C 	C 	0.84294	0.63745	0.60206	0.271
Mof_H 	H 	0.85397	0.62353	0.59393	-0.051
Mof_H 	H 	0.81817	0.63193	0.59483	-0.062
Mof_C 	C 	0.87631	0.69788	0.58193	0.254
Mof_C 	C 	0.90274	0.73875	0.58279	-0.238
Mof_H 	H 	0.91457	0.75063	0.59633	0.113
Mof_C 	C 	0.91156	0.76176	0.56387	0.087
Mof_H 	H 	0.92867	0.78923	0.56463	-0.006
Mof_C 	C 	0.89465	0.74367	0.54339	-0.115
Mof_H 	H 	0.90137	0.75893	0.53043	0.074
Mof_C 	C 	0.868	0.70322	0.54255	0.008
Mof_C 	C 	0.85998	0.68061	0.56197	-0.208
Mof_H 	H 	0.84307	0.65313	0.56123	0.114
Mof_C 	C 	0.84972	0.68311	0.52088	0.34
Mof_C 	C 	0.83752	0.46327	0.67675	0.381
Mof_C 	C 	0.81508	0.467	0.69594	-0.018
Mof_C 	C 	0.7745	0.45395	0.69433	-0.097
Mof_H 	H 	0.76057	0.44133	0.68133	0.071
Mof_C 	C 	0.75471	0.45968	0.71208	0.058
Mof_H 	H 	0.72757	0.45093	0.71103	0.007
Mof_C 	C 	0.7755	0.47847	0.73145	-0.214
Mof_H 	H 	0.76227	0.48233	0.74333	0.11
Mof_C 	C 	0.81608	0.49152	0.73306	0.229
Mof_C 	C 	0.83587	0.48579	0.7153	-0.176
Mof_H 	H 	0.86297	0.49453	0.71633	0.104
Mof_C 	C 	0.87501	0.53001	0.7527	0.238
Mof_H 	H 	0.88487	0.54483	0.73883	-0.043
Mof_H 	H 	0.88507	0.51163	0.75393	-0.044
Mof_C 	C 	0.88942	0.55882	0.77254	-0.401
Mof_C 	C 	0.88907	0.59417	0.77125	0.543
Mof_C 	C 	0.90803	0.62278	0.78856	-0.413
Mof_C 	C 	0.9274	0.6155	0.80538	0.48
Mof_C 	C 	0.92579	0.57864	0.80737	-0.393
Mof_C 	C 	0.90476	0.54885	0.79174	0.461
Mof_C 	C 	0.89988	0.50776	0.79392	-0.969
Mof_H 	H 	0.87507	0.48843	0.78723	0.316
Mof_H 	H 	0.89987	0.50153	0.80943	0.315
Mof_H 	H 	0.92157	0.50723	0.78643	0.306
Mof_C 	C 	0.87172	0.60396	0.75239	-1.135
Mof_H 	H 	0.89267	0.62203	0.74253	0.363
Mof_H 	H 	0.85707	0.61633	0.75773	0.37
Mof_H 	H 	0.85397	0.57993	0.74443	0.371
Mof_C 	C 	0.95161	0.64903	0.82222	-0.999
Mof_H 	H 	0.96897	0.67323	0.81433	0.344
Mof_H 	H 	0.96727	0.64163	0.83143	0.34
Mof_H 	H 	0.93367	0.65313	0.83143	0.337
Mof_C 	C 	0.90876	0.66166	0.78719	0.245
Mof_H 	H 	0.88797	0.65963	0.77733	-0.053
Mof_H 	H 	0.90507	0.67013	0.80183	-0.041
Mof_C 	C 	0.96056	0.72852	0.78057	0.24
Mof_C 	C 	0.00105	0.75451	0.77699	-0.217
Mof_H 	H 	0.01807	0.74443	0.77423	0.107
Mof_C 	C 	0.01619	0.79556	0.77757	0.08
Mof_H 	H 	0.04327	0.81293	0.77513	-0.002
Mof_C 	C 	0.99083	0.81062	0.78172	-0.108
Mof_H 	H 	0.00097	0.83813	0.78213	0.079
Mof_C 	C 	0.95033	0.78464	0.78529	0.001
Mof_C 	C 	0.93519	0.74359	0.78471	-0.183
Mof_H 	H 	0.90807	0.72623	0.78713	0.106
Mof_C 	C 	0.92428	0.80063	0.7894	0.305
Mof_C 	C 	0.9516	0.57485	0.82462	0.251
Mof_H 	H 	0.95117	0.54983	0.82243	-0.041
Mof_H 	H 	0.97887	0.59633	0.82263	-0.047
Mof_C 	C 	0.96865	0.59052	0.86258	0.225
Mof_C 	C 	0.95851	0.6013	0.88264	-0.206
Mof_H 	H 	0.93337	0.59853	0.88443	0.104
Mof_C 	C 	0.98597	0.6162	0.90004	0.066
Mof_H 	H 	0.97917	0.62343	0.91343	-0
Mof_C 	C 	0.02358	0.6203	0.89739	-0.109
Mof_H 	H 	0.04197	0.63023	0.90903	0.06
Mof_C 	C 	0.03372	0.60952	0.87733	-0.003
Mof_C 	C 	0.00626	0.59462	0.85993	-0.176
Mof_H 	H 	0.01307	0.58743	0.84653	0.1
Mof_C 	C 	0.07352	0.61324	0.87463	0.294
Mof_Mn	Mn	0.00968	0.49784	0.69431	0.824
Mof_Mn	Mn	0.92194	0.47331	0.66182	0.921
Mof_Mn	Mn	0.85234	0.47328	0.62582	0.736
Mof_O 	O 	0.00348	0.54474	0.71383	-0.365
Mof_O 	O 	0.95685	0.51488	0.6898	-0.407
Mof_O 	O 	0.89944	0.60835	0.6837	-0.314
Mof_O 	O 	0.86973	0.67821	0.60159	-0.314
Mof_O 	O 	0.8254	0.64636	0.52187	-0.374
Mof_O 	O 	0.85963	0.70359	0.5037	-0.389
Mof_O 	O 	0.73098	0.58844	0.66992	-0.286
Mof_O 	O 	0.58333	0.49869	0.67433	-0.369
Mof_O 	O 	0.56292	0.53717	0.68983	-0.41
Mof_O 	O 	0.86855	0.46443	0.68083	-0.38
Mof_O 	O 	0.822	0.45888	0.65824	-0.384
Mof_O 	O 	0.8329	0.50872	0.75268	-0.298
Mof_O 	O 	0.94868	0.68978	0.77823	-0.292
Mof_O 	O 	0.88895	0.77654	0.79573	-0.397
Mof_O 	O 	0.93405	0.83608	0.78589	-0.307
Mof_O 	O 	0.93938	0.57612	0.84663	-0.293
Mof_O 	O 	0.08383	0.60761	0.85596	-0.376
Mof_O 	O 	0.09601	0.62196	0.89166	-0.355
Mof_O 	O 	0.06347	0.50323	0.70463	-0.226
Mof_O 	O 	0.06657	0.49793	0.70173	-0.224
Mof_H 	H 	0.08767	0.52453	0.70423	-0.334
Mof_H 	H 	0.06387	0.48193	0.71453	0.334
Mof_H 	H 	0.06177	0.47123	0.70083	-0.011
Mof_H 	H 	0.08557	0.51393	0.69053	0.307
Mof_H 	H 	0.08267	0.53053	0.70743	0.432
Mof_H 	H 	0.05837	0.48833	0.71823	-0.203
Mof_H 	H 	0.06027	0.47713	0.70543	0.011
Mof_H 	H 	0.08467	0.51933	0.69463	-0.114
Mof_C 	C 	0.64049	0.87537	0.03663	0.33
Mof_C 	C 	0.62895	0.9055	0.04006	0.009
Mof_C 	C 	0.65126	0.93769	0.05443	-0.133
Mof_H 	H 	0.67083	0.93747	0.06337	0.086
Mof_C 	C 	0.645	0.96914	0.05558	0.115
Mof_H 	H 	0.66013	0.99037	0.06517	-0.006
Mof_C 	C 	0.61689	0.96937	0.04283	-0.262
Mof_H 	H 	0.61283	0.99107	0.04347	0.11
Mof_C 	C 	0.59321	0.93739	0.02833	0.267
Mof_C 	C 	0.59949	0.90553	0.02699	-0.209
Mof_H 	H 	0.58413	0.88427	0.01747	0.116
Mof_C 	C 	0.53987	0.91126	0.00153	0.249
Mof_H 	H 	0.52313	0.88637	0.00937	-0.047
Mof_H 	H 	0.55533	0.90667	0.99037	-0.05
Mof_C 	C 	0.51439	0.92625	0.99056	-0.419
Mof_C 	C 	0.48521	0.92836	0.00298	0.484
Mof_C 	C 	0.46617	0.94692	0.99376	-0.404
Mof_C 	C 	0.4728	0.95957	0.9716	0.51
Mof_C 	C 	0.50124	0.95597	0.95938	-0.405
Mof_C 	C 	0.52431	0.94068	0.96953	0.488
Mof_C 	C 	0.55778	0.94103	0.95625	-1.024
Mof_H 	H 	0.57993	0.94727	0.96597	0.34
Mof_H 	H 	0.56613	0.96077	0.94467	0.344
Mof_H 	H 	0.54853	0.91517	0.94967	0.332
Mof_C 	C 	0.47326	0.91028	0.02637	-0.995
Mof_H 	H 	0.46973	0.88387	0.02637	0.33
Mof_H 	H 	0.44873	0.90897	0.03067	0.335
Mof_H 	H 	0.49383	0.92667	0.03677	0.314
Mof_C 	C 	0.45017	0.97765	0.96146	-1.057
Mof_H 	H 	0.42603	0.96937	0.96977	0.355
Mof_H 	H 	0.44363	0.96897	0.94627	0.344
Mof_H 	H 	0.46633	0.00627	0.96187	0.339
Mof_C 	C 	0.43766	0.95408	0.00732	0.227
Mof_H 	H 	0.44403	0.95527	0.02307	-0.036
Mof_H 	H 	0.43983	0.97927	0.00307	-0.037
Mof_C 	C 	0.36834	0.92543	0.01381	0.229
Mof_C 	C 	0.37536	0.95779	0.02711	-0.223
Mof_H 	H 	0.40133	0.97837	0.02957	0.111
Mof_C 	C 	0.3435	0.95941	0.03678	0.068
Mof_H 	H 	0.34823	0.98107	0.04567	-0.005
Mof_C 	C 	0.30461	0.92867	0.03314	-0.107
Mof_H 	H 	0.28333	0.92977	0.03957	0.064
Mof_C 	C 	0.29759	0.8963	0.01984	-0.022
Mof_C 	C 	0.32945	0.89468	0.01017	-0.165
Mof_H 	H 	0.32473	0.87307	0.00127	0.112
Mof_C 	C 	0.25643	0.86383	0.01601	0.356
Mof_C 	C 	0.5096	0.97079	0.9354	0.271
Mof_H 	H 	0.52063	0.95687	0.92727	-0.052
Mof_H 	H 	0.48483	0.96527	0.92817	-0.062
Mof_C 	C 	0.54297	0.03122	0.91527	0.254
Mof_C 	C 	0.5694	0.07209	0.91613	-0.238
Mof_H 	H 	0.58123	0.08397	0.92967	0.113
Mof_C 	C 	0.57822	0.0951	0.89721	0.087
Mof_H 	H 	0.59533	0.12257	0.89797	-0.006
Mof_C 	C 	0.56131	0.07701	0.87673	-0.115
Mof_H 	H 	0.56803	0.09227	0.86377	0.074
Mof_C 	C 	0.53466	0.03656	0.87589	0.008
Mof_C 	C 	0.52664	0.01395	0.89531	-0.208
Mof_H 	H 	0.50973	0.98647	0.89457	0.114
Mof_C 	C 	0.51638	0.01645	0.85422	0.34
Mof_C 	C 	0.50418	0.79661	0.01009	0.38
Mof_C 	C 	0.48174	0.80034	0.02928	-0.017
Mof_C 	C 	0.44116	0.78729	0.02767	-0.097
Mof_H 	H 	0.42723	0.77467	0.01467	0.071
Mof_C 	C 	0.42137	0.79302	0.04542	0.058
Mof_H 	H 	0.39423	0.78427	0.04437	0.007
Mof_C 	C 	0.44216	0.81181	0.06479	-0.214
Mof_H 	H 	0.42893	0.81567	0.07667	0.11
Mof_C 	C 	0.48274	0.82486	0.0664	0.229
Mof_C 	C 	0.50253	0.81913	0.04864	-0.176
Mof_H 	H 	0.52963	0.82787	0.04967	0.104
Mof_C 	C 	0.54167	0.86335	0.08604	0.238
Mof_H 	H 	0.55153	0.87817	0.07217	-0.043
Mof_H 	H 	0.55173	0.84497	0.08727	-0.044
Mof_C 	C 	0.55608	0.89216	0.10588	-0.401
Mof_C 	C 	0.55573	0.92751	0.10459	0.543
Mof_C 	C 	0.57469	0.95612	0.1219	-0.413
Mof_C 	C 	0.59406	0.94884	0.13872	0.48
Mof_C 	C 	0.59245	0.91198	0.14071	-0.393
Mof_C 	C 	0.57142	0.88219	0.12508	0.461
Mof_C 	C 	0.56654	0.8411	0.12726	-0.969
Mof_H 	H 	0.54173	0.82177	0.12057	0.316
Mof_H 	H 	0.56653	0.83487	0.14277	0.315
Mof_H 	H 	0.58823	0.84057	0.11977	0.306
Mof_C 	C 	0.53838	0.9373	0.08573	-1.135
Mof_H 	H 	0.55933	0.95537	0.07587	0.363
Mof_H 	H 	0.52373	0.94967	0.09107	0.37
Mof_H 	H 	0.52063	0.91327	0.07777	0.371
Mof_C 	C 	0.61827	0.98237	0.15556	-0.999
Mof_H 	H 	0.63563	0.00657	0.14767	0.344
Mof_H 	H 	0.63393	0.97497	0.16477	0.34
Mof_H 	H 	0.60033	0.98647	0.16477	0.337
Mof_C 	C 	0.57542	0.995	0.12053	0.245
Mof_H 	H 	0.55463	0.99297	0.11067	-0.053
Mof_H 	H 	0.57173	0.00347	0.13517	-0.041
Mof_C 	C 	0.62722	0.06186	0.11391	0.24
Mof_C 	C 	0.66771	0.08785	0.11033	-0.217
Mof_H 	H 	0.68473	0.07777	0.10757	0.107
Mof_C 	C 	0.68285	0.1289	0.11091	0.08
Mof_H 	H 	0.70993	0.14627	0.10847	-0.002
Mof_C 	C 	0.65749	0.14396	0.11506	-0.108
Mof_H 	H 	0.66763	0.17147	0.11547	0.079
Mof_C 	C 	0.61699	0.11798	0.11863	0.001
Mof_C 	C 	0.60185	0.07693	0.11805	-0.183
Mof_H 	H 	0.57473	0.05957	0.12047	0.106
Mof_C 	C 	0.59094	0.13397	0.12274	0.305
Mof_C 	C 	0.61826	0.90819	0.15796	0.251
Mof_H 	H 	0.61783	0.88317	0.15577	-0.041
Mof_H 	H 	0.64553	0.92967	0.15597	-0.047
Mof_C 	C 	0.63531	0.92386	0.19592	0.225
Mof_C 	C 	0.62517	0.93464	0.21598	-0.206
Mof_H 	H 	0.60003	0.93187	0.21777	0.104
Mof_C 	C 	0.65263	0.94954	0.23338	0.066
Mof_H 	H 	0.64583	0.95677	0.24677	-0
Mof_C 	C 	0.69024	0.95364	0.23073	-0.108
Mof_H 	H 	0.70863	0.96357	0.24237	0.06
Mof_C 	C 	0.70038	0.94286	0.21067	-0.003
Mof_C 	C 	0.67292	0.92796	0.19327	-0.176
Mof_H 	H 	0.67973	0.92077	0.17987	0.1
Mof_C 	C 	0.74018	0.94658	0.20797	0.294
Mof_Mn	Mn	0.67635	0.83117	0.02765	0.824
Mof_Mn	Mn	0.58861	0.80665	0.99515	0.921
Mof_Mn	Mn	0.519	0.80661	0.95915	0.736
Mof_O 	O 	0.67014	0.87808	0.04717	-0.365
Mof_O 	O 	0.62351	0.84822	0.02314	-0.407
Mof_O 	O 	0.5661	0.94169	0.01704	-0.314
Mof_O 	O 	0.53639	0.01155	0.93493	-0.314
Mof_O 	O 	0.49206	0.9797	0.85521	-0.374
Mof_O 	O 	0.52629	0.03693	0.83704	-0.389
Mof_O 	O 	0.39764	0.92178	0.00326	-0.286
Mof_O 	O 	0.24999	0.83203	0.00767	-0.369
Mof_O 	O 	0.22958	0.87051	0.02317	-0.41
Mof_O 	O 	0.53521	0.79777	0.01417	-0.38
Mof_O 	O 	0.48866	0.79222	0.99158	-0.384
Mof_O 	O 	0.49956	0.84206	0.08602	-0.298
Mof_O 	O 	0.61534	0.02312	0.11157	-0.292
Mof_O 	O 	0.55561	0.10988	0.12907	-0.397
Mof_O 	O 	0.60071	0.16942	0.11923	-0.307
Mof_O 	O 	0.60604	0.90946	0.17997	-0.293
Mof_O 	O 	0.75049	0.94095	0.1893	-0.376
Mof_O 	O 	0.76267	0.9553	0.225	-0.355
Mof_O 	O 	0.73013	0.83657	0.03797	-0.226
Mof_O 	O 	0.73323	0.83127	0.03507	-0.224
Mof_H 	H 	0.75433	0.85787	0.03757	-0.334
Mof_H 	H 	0.73053	0.81527	0.04787	0.334
Mof_H 	H 	0.72843	0.80457	0.03417	-0.011
Mof_H 	H 	0.75223	0.84727	0.02387	0.307
Mof_H 	H 	0.74933	0.86387	0.04077	0.432
Mof_H 	H 	0.72503	0.82167	0.05157	-0.203
Mof_H 	H 	0.72693	0.81047	0.03877	0.011
Mof_H 	H 	0.75133	0.85267	0.02797	-0.114
Mof_C 	C 	0.7913	0.09846	0.36996	0.33
Mof_C 	C 	0.76117	0.05679	0.37339	0.009
Mof_C 	C 	0.72898	0.04691	0.38776	-0.133
Mof_H 	H 	0.7292	0.0667	0.3967	0.086
Mof_C 	C 	0.69753	0.0092	0.38891	0.115
Mof_H 	H 	0.6763	0.0031	0.3985	-0.006
Mof_C 	C 	0.6973	0.98086	0.37616	-0.262
Mof_H 	H 	0.6756	0.9551	0.3768	0.11
Mof_C 	C 	0.72928	0.98916	0.36166	0.267
Mof_C 	C 	0.76114	0.0273	0.36032	-0.209
Mof_H 	H 	0.7824	0.0332	0.3508	0.116
Mof_C 	C 	0.75541	0.96195	0.33486	0.249
Mof_H 	H 	0.7803	0.9701	0.3427	-0.047
Mof_H 	H 	0.76	0.982	0.3237	-0.05
Mof_C 	C 	0.74042	0.92148	0.32389	-0.419
Mof_C 	C 	0.73831	0.89019	0.33631	0.484
Mof_C 	C 	0.71975	0.85259	0.32709	-0.404
Mof_C 	C 	0.7071	0.84657	0.30493	0.51
Mof_C 	C 	0.7107	0.87861	0.29271	-0.405
Mof_C 	C 	0.72599	0.91697	0.30286	0.488
Mof_C 	C 	0.72564	0.95009	0.28958	-1.024
Mof_H 	H 	0.7194	0.966	0.2993	0.34
Mof_H 	H 	0.7059	0.9387	0.278	0.344
Mof_H 	H 	0.7515	0.9667	0.283	0.332
Mof_C 	C 	0.75639	0.89632	0.3597	-0.995
Mof_H 	H 	0.7828	0.9192	0.3597	0.33
Mof_H 	H 	0.7577	0.8731	0.364	0.335
Mof_H 	H 	0.74	0.9005	0.3701	0.314
Mof_C 	C 	0.68902	0.80586	0.29479	-1.057
Mof_H 	H 	0.6973	0.79	0.3031	0.355
Mof_H 	H 	0.6977	0.808	0.2796	0.344
Mof_H 	H 	0.6604	0.7934	0.2952	0.339
Mof_C 	C 	0.71259	0.81692	0.34065	0.227
Mof_H 	H 	0.7114	0.8221	0.3564	-0.036
Mof_H 	H 	0.6874	0.7939	0.3364	-0.037
Mof_C 	C 	0.74124	0.77625	0.34714	0.229
Mof_C 	C 	0.70888	0.75091	0.36044	-0.223
Mof_H 	H 	0.6883	0.7563	0.3629	0.111
Mof_C 	C 	0.70726	0.71743	0.37011	0.068
Mof_H 	H 	0.6856	0.7005	0.379	-0.005
Mof_C 	C 	0.738	0.70928	0.36647	-0.107
Mof_H 	H 	0.7369	0.6869	0.3729	0.064
Mof_C 	C 	0.77037	0.73463	0.35317	-0.022
Mof_C 	C 	0.77199	0.76811	0.3435	-0.165
Mof_H 	H 	0.7936	0.785	0.3346	0.112
Mof_C 	C 	0.80284	0.72594	0.34934	0.356
Mof_C 	C 	0.69588	0.87215	0.26873	0.271
Mof_H 	H 	0.7098	0.8971	0.2606	-0.051
Mof_H 	H 	0.7014	0.8529	0.2615	-0.062
Mof_C 	C 	0.63545	0.84509	0.2486	0.254
Mof_C 	C 	0.59458	0.83065	0.24946	-0.238
Mof_H 	H 	0.5827	0.8306	0.263	0.113
Mof_C 	C 	0.57157	0.81646	0.23054	0.087
Mof_H 	H 	0.5441	0.8061	0.2313	-0.006
Mof_C 	C 	0.58966	0.81764	0.21006	-0.115
Mof_H 	H 	0.5744	0.8091	0.1971	0.074
Mof_C 	C 	0.63011	0.83144	0.20922	0.008
Mof_C 	C 	0.65272	0.84603	0.22864	-0.208
Mof_H 	H 	0.6802	0.8566	0.2279	0.114
Mof_C 	C 	0.65022	0.83327	0.18755	0.34
Mof_C 	C 	0.87006	0.04091	0.34342	0.381
Mof_C 	C 	0.86633	0.01474	0.36261	-0.017
Mof_C 	C 	0.87938	0.98721	0.361	-0.097
Mof_H 	H 	0.892	0.9859	0.348	0.071
Mof_C 	C 	0.87365	0.96169	0.37875	0.058
Mof_H 	H 	0.8824	0.9433	0.3777	0.007
Mof_C 	C 	0.85486	0.96369	0.39812	-0.214
Mof_H 	H 	0.851	0.9466	0.41	0.11
Mof_C 	C 	0.84181	0.99122	0.39973	0.229
Mof_C 	C 	0.84754	0.01674	0.38197	-0.176
Mof_H 	H 	0.8388	0.0351	0.383	0.104
Mof_C 	C 	0.80332	0.01166	0.41937	0.238
Mof_H 	H 	0.7885	0.0067	0.4055	-0.043
Mof_H 	H 	0.8217	0.0401	0.4206	-0.044
Mof_C 	C 	0.77451	0.99726	0.43921	-0.401
Mof_C 	C 	0.73916	0.96156	0.43792	0.543
Mof_C 	C 	0.71055	0.95191	0.45523	-0.413
Mof_C 	C 	0.71783	0.97856	0.47205	0.48
Mof_C 	C 	0.75469	0.01381	0.47404	-0.393
Mof_C 	C 	0.78448	0.02257	0.45841	0.461
Mof_C 	C 	0.82557	0.05878	0.46059	-0.969
Mof_H 	H 	0.8449	0.0533	0.4539	0.316
Mof_H 	H 	0.8318	0.065	0.4761	0.315
Mof_H 	H 	0.8261	0.081	0.4531	0.306
Mof_C 	C 	0.72937	0.93442	0.41906	-1.135
Mof_H 	H 	0.7113	0.9373	0.4092	0.363
Mof_H 	H 	0.717	0.9074	0.4244	0.37
Mof_H 	H 	0.7534	0.9407	0.4111	0.371
Mof_C 	C 	0.6843	0.96924	0.48889	-0.999
Mof_H 	H 	0.6601	0.9624	0.481	0.344
Mof_H 	H 	0.6917	0.9923	0.4981	0.34
Mof_H 	H 	0.6802	0.9472	0.4981	0.337
Mof_C 	C 	0.67167	0.91376	0.45386	0.245
Mof_H 	H 	0.6737	0.895	0.444	-0.053
Mof_H 	H 	0.6632	0.9016	0.4685	-0.041
Mof_C 	C 	0.60481	0.8987	0.44724	0.24
Mof_C 	C 	0.57882	0.9132	0.44366	-0.217
Mof_H 	H 	0.5889	0.9403	0.4409	0.107
Mof_C 	C 	0.53777	0.88729	0.44424	0.08
Mof_H 	H 	0.5204	0.897	0.4418	-0.002
Mof_C 	C 	0.52271	0.84687	0.44839	-0.108
Mof_H 	H 	0.4952	0.8295	0.4488	0.079
Mof_C 	C 	0.54869	0.83235	0.45196	0.001
Mof_C 	C 	0.58974	0.85826	0.45138	-0.183
Mof_H 	H 	0.6071	0.8485	0.4538	0.106
Mof_C 	C 	0.5327	0.79031	0.45607	0.305
Mof_C 	C 	0.75848	0.04341	0.49129	0.251
Mof_H 	H 	0.7835	0.068	0.4891	-0.041
Mof_H 	H 	0.737	0.0492	0.4893	-0.047
Mof_C 	C 	0.74281	0.04479	0.52925	0.225
Mof_C 	C 	0.73203	0.02387	0.54931	-0.206
Mof_H 	H 	0.7348	0.0015	0.5511	0.104
Mof_C 	C 	0.71713	0.03643	0.56671	0.066
Mof_H 	H 	0.7099	0.0224	0.5801	-0
Mof_C 	C 	0.71303	0.06994	0.56406	-0.108
Mof_H 	H 	0.7031	0.0784	0.5757	0.06
Mof_C 	C 	0.72381	0.09086	0.544	-0.003
Mof_C 	C 	0.73871	0.0783	0.5266	-0.176
Mof_H 	H 	0.7459	0.0923	0.5132	0.1
Mof_C 	C 	0.72009	0.12694	0.5413	0.294
Mof_Mn	Mn	0.8355	0.17851	0.36098	0.824
Mof_Mn	Mn	0.86002	0.11529	0.32848	0.921
Mof_Mn	Mn	0.86006	0.04573	0.29248	0.736
Mof_O 	O 	0.78859	0.1254	0.3805	-0.365
Mof_O 	O 	0.81845	0.10863	0.35647	-0.407
Mof_O 	O 	0.72498	0.95775	0.35037	-0.314
Mof_O 	O 	0.65512	0.85818	0.26826	-0.314
Mof_O 	O 	0.68697	0.8457	0.18854	-0.374
Mof_O 	O 	0.62974	0.8227	0.17037	-0.389
Mof_O 	O 	0.74489	0.8092	0.33659	-0.286
Mof_O 	O 	0.83464	0.7513	0.341	-0.369
Mof_O 	O 	0.79616	0.69241	0.3565	-0.41
Mof_O 	O 	0.8689	0.07078	0.3475	-0.38
Mof_O 	O 	0.87445	0.02978	0.32491	-0.384
Mof_O 	O 	0.82461	0.99084	0.41935	-0.298
Mof_O 	O 	0.64355	0.92556	0.4449	-0.292
Mof_O 	O 	0.55679	0.77907	0.4624	-0.397
Mof_O 	O 	0.49725	0.76463	0.45256	-0.307
Mof_O 	O 	0.75721	0.02992	0.5133	-0.293
Mof_O 	O 	0.72572	0.14288	0.52263	-0.376
Mof_O 	O 	0.71137	0.14071	0.55833	-0.355
Mof_O 	O 	0.8301	0.2269	0.3713	-0.226
Mof_O 	O 	0.8354	0.2353	0.3684	-0.224
Mof_H 	H 	0.8088	0.2298	0.3709	-0.334
Mof_H 	H 	0.8514	0.2486	0.3812	0.334
Mof_H 	H 	0.8621	0.2572	0.3675	-0.011
Mof_H 	H 	0.8194	0.2383	0.3572	0.307
Mof_H 	H 	0.8028	0.2188	0.3741	0.432
Mof_H 	H 	0.845	0.2367	0.3849	-0.203
Mof_H 	H 	0.8562	0.2498	0.3721	0.011
Mof_H 	H 	0.814	0.232	0.3613	-0.114
Mof_C 	C 	0.45797	0.43179	0.70329	0.33
Mof_C 	C 	0.42784	0.39012	0.70672	0.009
Mof_C 	C 	0.39565	0.38024	0.72109	-0.133
Mof_H 	H 	0.39587	0.40003	0.73003	0.086
Mof_C 	C 	0.3642	0.34253	0.72224	0.115
Mof_H 	H 	0.34297	0.33643	0.73183	-0.006
Mof_C 	C 	0.36397	0.31419	0.70949	-0.262
Mof_H 	H 	0.34227	0.28843	0.71013	0.11
Mof_C 	C 	0.39595	0.32249	0.69499	0.267
Mof_C 	C 	0.42781	0.36063	0.69365	-0.209
Mof_H 	H 	0.44907	0.36653	0.68413	0.116
Mof_C 	C 	0.42208	0.29528	0.66819	0.249
Mof_H 	H 	0.44697	0.30343	0.67603	-0.047
Mof_H 	H 	0.42667	0.31533	0.65703	-0.05
Mof_C 	C 	0.40709	0.25481	0.65722	-0.419
Mof_C 	C 	0.40498	0.22352	0.66964	0.484
Mof_C 	C 	0.38642	0.18592	0.66042	-0.404
Mof_C 	C 	0.37377	0.1799	0.63826	0.51
Mof_C 	C 	0.37737	0.21194	0.62604	-0.405
Mof_C 	C 	0.39266	0.2503	0.63619	0.488
Mof_C 	C 	0.39231	0.28342	0.62291	-1.024
Mof_H 	H 	0.38607	0.29933	0.63263	0.34
Mof_H 	H 	0.37257	0.27203	0.61133	0.344
Mof_H 	H 	0.41817	0.30003	0.61633	0.332
Mof_C 	C 	0.42306	0.22965	0.69303	-0.995
Mof_H 	H 	0.44947	0.25253	0.69303	0.33
Mof_H 	H 	0.42437	0.20643	0.69733	0.335
Mof_H 	H 	0.40667	0.23383	0.70343	0.314
Mof_C 	C 	0.35569	0.13919	0.62812	-1.057
Mof_H 	H 	0.36397	0.12333	0.63643	0.355
Mof_H 	H 	0.36437	0.14133	0.61293	0.344
Mof_H 	H 	0.32707	0.12673	0.62853	0.339
Mof_C 	C 	0.37926	0.15025	0.67398	0.227
Mof_H 	H 	0.37807	0.15543	0.68973	-0.036
Mof_H 	H 	0.35407	0.12723	0.66973	-0.037
Mof_C 	C 	0.40791	0.10958	0.68047	0.229
Mof_C 	C 	0.37555	0.08424	0.69377	-0.223
Mof_H 	H 	0.35497	0.08963	0.69623	0.111
Mof_C 	C 	0.37393	0.05076	0.70344	0.068
Mof_H 	H 	0.35227	0.03383	0.71233	-0.005
Mof_C 	C 	0.40467	0.04261	0.6998	-0.107
Mof_H 	H 	0.40357	0.02023	0.70623	0.064
Mof_C 	C 	0.43704	0.06796	0.6865	-0.022
Mof_C 	C 	0.43866	0.10144	0.67683	-0.165
Mof_H 	H 	0.46027	0.11833	0.66793	0.112
Mof_C 	C 	0.46951	0.05927	0.68267	0.356
Mof_C 	C 	0.36255	0.20548	0.60206	0.271
Mof_H 	H 	0.37647	0.23043	0.59393	-0.051
Mof_H 	H 	0.36807	0.18623	0.59483	-0.062
Mof_C 	C 	0.30212	0.17842	0.58193	0.254
Mof_C 	C 	0.26125	0.16398	0.58279	-0.238
Mof_H 	H 	0.24937	0.16393	0.59633	0.113
Mof_C 	C 	0.23824	0.14979	0.56387	0.087
Mof_H 	H 	0.21077	0.13943	0.56463	-0.006
Mof_C 	C 	0.25633	0.15097	0.54339	-0.115
Mof_H 	H 	0.24107	0.14243	0.53043	0.074
Mof_C 	C 	0.29678	0.16477	0.54255	0.008
Mof_C 	C 	0.31939	0.17936	0.56197	-0.208
Mof_H 	H 	0.34687	0.18993	0.56123	0.114
Mof_C 	C 	0.31689	0.1666	0.52088	0.34
Mof_C 	C 	0.53673	0.37424	0.67675	0.381
Mof_C 	C 	0.533	0.34807	0.69594	-0.017
Mof_C 	C 	0.54605	0.32054	0.69433	-0.097
Mof_H 	H 	0.55867	0.31923	0.68133	0.071
Mof_C 	C 	0.54032	0.29502	0.71208	0.058
Mof_H 	H 	0.54907	0.27663	0.71103	0.007
Mof_C 	C 	0.52153	0.29702	0.73145	-0.214
Mof_H 	H 	0.51767	0.27993	0.74333	0.11
Mof_C 	C 	0.50848	0.32455	0.73306	0.229
Mof_C 	C 	0.51421	0.35007	0.7153	-0.176
Mof_H 	H 	0.50547	0.36843	0.71633	0.104
Mof_C 	C 	0.46999	0.34499	0.7527	0.238
Mof_H 	H 	0.45517	0.34003	0.73883	-0.043
Mof_H 	H 	0.48837	0.37343	0.75393	-0.044
Mof_C 	C 	0.44118	0.33059	0.77254	-0.401
Mof_C 	C 	0.40583	0.29489	0.77125	0.543
Mof_C 	C 	0.37722	0.28524	0.78856	-0.413
Mof_C 	C 	0.3845	0.31189	0.80538	0.48
Mof_C 	C 	0.42136	0.34714	0.80737	-0.393
Mof_C 	C 	0.45115	0.3559	0.79174	0.461
Mof_C 	C 	0.49224	0.39211	0.79392	-0.969
Mof_H 	H 	0.51157	0.38663	0.78723	0.316
Mof_H 	H 	0.49847	0.39833	0.80943	0.315
Mof_H 	H 	0.49277	0.41433	0.78643	0.306
Mof_C 	C 	0.39604	0.26775	0.75239	-1.135
Mof_H 	H 	0.37797	0.27063	0.74253	0.363
Mof_H 	H 	0.38367	0.24073	0.75773	0.37
Mof_H 	H 	0.42007	0.27403	0.74443	0.371
Mof_C 	C 	0.35097	0.30257	0.82222	-0.999
Mof_H 	H 	0.32677	0.29573	0.81433	0.344
Mof_H 	H 	0.35837	0.32563	0.83143	0.34
Mof_H 	H 	0.34687	0.28053	0.83143	0.337
Mof_C 	C 	0.33834	0.24709	0.78719	0.245
Mof_H 	H 	0.34037	0.22833	0.77733	-0.053
Mof_H 	H 	0.32987	0.23493	0.80183	-0.041
Mof_C 	C 	0.27148	0.23203	0.78057	0.24
Mof_C 	C 	0.24549	0.24653	0.77699	-0.217
Mof_H 	H 	0.25557	0.27363	0.77423	0.107
Mof_C 	C 	0.20444	0.22062	0.77757	0.08
Mof_H 	H 	0.18707	0.23033	0.77513	-0.002
Mof_C 	C 	0.18938	0.1802	0.78172	-0.108
Mof_H 	H 	0.16187	0.16283	0.78213	0.079
Mof_C 	C 	0.21536	0.16568	0.78529	0.001
Mof_C 	C 	0.25641	0.19159	0.78471	-0.183
Mof_H 	H 	0.27377	0.18183	0.78713	0.106
Mof_C 	C 	0.19937	0.12364	0.7894	0.305
Mof_C 	C 	0.42515	0.37674	0.82462	0.251
Mof_H 	H 	0.45017	0.40133	0.82243	-0.041
Mof_H 	H 	0.40367	0.38253	0.82263	-0.047
Mof_C 	C 	0.40948	0.37812	0.86258	0.225
Mof_C 	C 	0.3987	0.3572	0.88264	-0.206
Mof_H 	H 	0.40147	0.33483	0.88443	0.104
Mof_C 	C 	0.3838	0.36976	0.90004	0.066
Mof_H 	H 	0.37657	0.35573	0.91343	-0
Mof_C 	C 	0.3797	0.40327	0.89739	-0.108
Mof_H 	H 	0.36977	0.41173	0.90903	0.06
Mof_C 	C 	0.39048	0.42419	0.87733	-0.003
Mof_C 	C 	0.40538	0.41163	0.85993	-0.176
Mof_H 	H 	0.41257	0.42563	0.84653	0.1
Mof_C 	C 	0.38676	0.46027	0.87463	0.294
Mof_Mn	Mn	0.50216	0.51185	0.69431	0.824
Mof_Mn	Mn	0.52669	0.44863	0.66182	0.921
Mof_Mn	Mn	0.52672	0.37906	0.62582	0.736
Mof_O 	O 	0.45526	0.45873	0.71383	-0.365
Mof_O 	O 	0.48512	0.44196	0.6898	-0.407
Mof_O 	O 	0.39165	0.29108	0.6837	-0.314
Mof_O 	O 	0.32179	0.19151	0.60159	-0.314
Mof_O 	O 	0.35364	0.17903	0.52187	-0.374
Mof_O 	O 	0.29641	0.15603	0.5037	-0.389
Mof_O 	O 	0.41156	0.14253	0.66992	-0.286
Mof_O 	O 	0.50131	0.08463	0.67433	-0.369
Mof_O 	O 	0.46283	0.02574	0.68983	-0.41
Mof_O 	O 	0.53557	0.40411	0.68083	-0.38
Mof_O 	O 	0.54112	0.36311	0.65824	-0.384
Mof_O 	O 	0.49128	0.32417	0.75268	-0.298
Mof_O 	O 	0.31022	0.25889	0.77823	-0.292
Mof_O 	O 	0.22346	0.1124	0.79573	-0.397
Mof_O 	O 	0.16392	0.09796	0.78589	-0.307
Mof_O 	O 	0.42388	0.36325	0.84663	-0.293
Mof_O 	O 	0.39239	0.47621	0.85596	-0.376
Mof_O 	O 	0.37804	0.47404	0.89166	-0.355
Mof_O 	O 	0.49677	0.56023	0.70463	-0.226
Mof_O 	O 	0.50207	0.56863	0.70173	-0.224
Mof_H 	H 	0.47547	0.56313	0.70423	-0.335
Mof_H 	H 	0.51807	0.58193	0.71453	0.334
Mof_H 	H 	0.52877	0.59053	0.70083	-0.011
Mof_H 	H 	0.48607	0.57163	0.69053	0.307
Mof_H 	H 	0.46947	0.55213	0.70743	0.432
Mof_H 	H 	0.51167	0.57003	0.71823	-0.203
Mof_H 	H 	0.52287	0.58313	0.70543	0.011
Mof_H 	H 	0.48067	0.56533	0.69463	-0.114
Mof_C 	C 	0.12463	0.76513	0.03663	0.33
Mof_C 	C 	0.0945	0.72346	0.04006	0.009
Mof_C 	C 	0.06231	0.71358	0.05443	-0.133
Mof_H 	H 	0.06253	0.73337	0.06337	0.086
Mof_C 	C 	0.03086	0.67587	0.05558	0.115
Mof_H 	H 	0.00963	0.66977	0.06517	-0.006
Mof_C 	C 	0.03063	0.64753	0.04283	-0.262
Mof_H 	H 	0.00893	0.62177	0.04347	0.11
Mof_C 	C 	0.06261	0.65583	0.02833	0.267
Mof_C 	C 	0.09447	0.69397	0.02699	-0.209
Mof_H 	H 	0.11573	0.69987	0.01747	0.116
Mof_C 	C 	0.08874	0.62862	0.00153	0.249
Mof_H 	H 	0.11363	0.63677	0.00937	-0.047
Mof_H 	H 	0.09333	0.64867	0.99037	-0.05
Mof_C 	C 	0.07375	0.58815	0.99056	-0.419
Mof_C 	C 	0.07164	0.55686	0.00298	0.484
Mof_C 	C 	0.05308	0.51926	0.99376	-0.404
Mof_C 	C 	0.04043	0.51324	0.9716	0.51
Mof_C 	C 	0.04403	0.54528	0.95938	-0.405
Mof_C 	C 	0.05932	0.58364	0.96953	0.488
Mof_C 	C 	0.05897	0.61676	0.95625	-1.024
Mof_H 	H 	0.05273	0.63267	0.96597	0.34
Mof_H 	H 	0.03923	0.60537	0.94467	0.344
Mof_H 	H 	0.08483	0.63337	0.94967	0.332
Mof_C 	C 	0.08972	0.56299	0.02637	-0.995
Mof_H 	H 	0.11613	0.58587	0.02637	0.33
Mof_H 	H 	0.09103	0.53977	0.03067	0.335
Mof_H 	H 	0.07333	0.56717	0.03677	0.314
Mof_C 	C 	0.02235	0.47253	0.96146	-1.057
Mof_H 	H 	0.03063	0.45667	0.96977	0.355
Mof_H 	H 	0.03103	0.47467	0.94627	0.344
Mof_H 	H 	0.99373	0.46007	0.96187	0.339
Mof_C 	C 	0.04592	0.48359	0.00732	0.227
Mof_H 	H 	0.04473	0.48877	0.02307	-0.036
Mof_H 	H 	0.02073	0.46057	0.00307	-0.037
Mof_C 	C 	0.07457	0.44292	0.01381	0.229
Mof_C 	C 	0.04221	0.41758	0.02711	-0.223
Mof_H 	H 	0.02163	0.42297	0.02957	0.111
Mof_C 	C 	0.04059	0.3841	0.03678	0.068
Mof_H 	H 	0.01893	0.36717	0.04567	-0.005
Mof_C 	C 	0.07133	0.37595	0.03314	-0.107
Mof_H 	H 	0.07023	0.35357	0.03957	0.064
Mof_C 	C 	0.1037	0.4013	0.01984	-0.022
Mof_C 	C 	0.10532	0.43478	0.01017	-0.165
Mof_H 	H 	0.12693	0.45167	0.00127	0.112
Mof_C 	C 	0.13617	0.39261	0.01601	0.356
Mof_C 	C 	0.02921	0.53882	0.9354	0.271
Mof_H 	H 	0.04313	0.56377	0.92727	-0.052
Mof_H 	H 	0.03473	0.51957	0.92817	-0.062
Mof_C 	C 	0.96878	0.51176	0.91527	0.254
Mof_C 	C 	0.92791	0.49732	0.91613	-0.238
Mof_H 	H 	0.91603	0.49727	0.92967	0.113
Mof_C 	C 	0.9049	0.48313	0.89721	0.087
Mof_H 	H 	0.87743	0.47277	0.89797	-0.006
Mof_C 	C 	0.92299	0.48431	0.87673	-0.115
Mof_H 	H 	0.90773	0.47577	0.86377	0.074
Mof_C 	C 	0.96344	0.49811	0.87589	0.008
Mof_C 	C 	0.98605	0.5127	0.89531	-0.208
Mof_H 	H 	0.01353	0.52327	0.89457	0.114
Mof_C 	C 	0.98355	0.49994	0.85422	0.34
Mof_C 	C 	0.20339	0.70758	0.01009	0.381
Mof_C 	C 	0.19966	0.68141	0.02928	-0.017
Mof_C 	C 	0.21271	0.65388	0.02767	-0.097
Mof_H 	H 	0.22533	0.65257	0.01467	0.071
Mof_C 	C 	0.20698	0.62836	0.04542	0.058
Mof_H 	H 	0.21573	0.60997	0.04437	0.007
Mof_C 	C 	0.18819	0.63036	0.06479	-0.214
Mof_H 	H 	0.18433	0.61327	0.07667	0.11
Mof_C 	C 	0.17514	0.65789	0.0664	0.229
Mof_C 	C 	0.18087	0.68341	0.04864	-0.176
Mof_H 	H 	0.17213	0.70177	0.04967	0.104
Mof_C 	C 	0.13665	0.67833	0.08604	0.238
Mof_H 	H 	0.12183	0.67337	0.07217	-0.043
Mof_H 	H 	0.15503	0.70677	0.08727	-0.044
Mof_C 	C 	0.10784	0.66393	0.10588	-0.401
Mof_C 	C 	0.07249	0.62823	0.10459	0.543
Mof_C 	C 	0.04388	0.61858	0.1219	-0.413
Mof_C 	C 	0.05116	0.64523	0.13872	0.48
Mof_C 	C 	0.08802	0.68048	0.14071	-0.393
Mof_C 	C 	0.11781	0.68924	0.12508	0.461
Mof_C 	C 	0.1589	0.72545	0.12726	-0.969
Mof_H 	H 	0.17823	0.71997	0.12057	0.316
Mof_H 	H 	0.16513	0.73167	0.14277	0.315
Mof_H 	H 	0.15943	0.74767	0.11977	0.306
Mof_C 	C 	0.0627	0.60109	0.08573	-1.135
Mof_H 	H 	0.04463	0.60397	0.07587	0.363
Mof_H 	H 	0.05033	0.57407	0.09107	0.37
Mof_H 	H 	0.08673	0.60737	0.07777	0.371
Mof_C 	C 	0.01763	0.63591	0.15556	-0.999
Mof_H 	H 	0.99343	0.62907	0.14767	0.344
Mof_H 	H 	0.02503	0.65897	0.16477	0.34
Mof_H 	H 	0.01353	0.61387	0.16477	0.337
Mof_C 	C 	0.005	0.58043	0.12053	0.245
Mof_H 	H 	0.00703	0.56167	0.11067	-0.053
Mof_H 	H 	0.99653	0.56827	0.13517	-0.042
Mof_C 	C 	0.93814	0.56537	0.11391	0.24
Mof_C 	C 	0.91215	0.57987	0.11033	-0.217
Mof_H 	H 	0.92223	0.60697	0.10757	0.107
Mof_C 	C 	0.8711	0.55396	0.11091	0.08
Mof_H 	H 	0.85373	0.56367	0.10847	-0.002
Mof_C 	C 	0.85604	0.51354	0.11506	-0.108
Mof_H 	H 	0.82853	0.49617	0.11547	0.079
Mof_C 	C 	0.88202	0.49902	0.11863	0.001
Mof_C 	C 	0.92307	0.52493	0.11805	-0.183
Mof_H 	H 	0.94043	0.51517	0.12047	0.106
Mof_C 	C 	0.86603	0.45698	0.12274	0.305
Mof_C 	C 	0.09181	0.71008	0.15796	0.251
Mof_H 	H 	0.11683	0.73467	0.15577	-0.041
Mof_H 	H 	0.07033	0.71587	0.15597	-0.047
Mof_C 	C 	0.07614	0.71146	0.19592	0.225
Mof_C 	C 	0.06536	0.69054	0.21598	-0.206
Mof_H 	H 	0.06813	0.66817	0.21777	0.104
Mof_C 	C 	0.05046	0.7031	0.23338	0.066
Mof_H 	H 	0.04323	0.68907	0.24677	-0
Mof_C 	C 	0.04636	0.73661	0.23073	-0.108
Mof_H 	H 	0.03643	0.74507	0.24237	0.06
Mof_C 	C 	0.05714	0.75753	0.21067	-0.003
Mof_C 	C 	0.07204	0.74497	0.19327	-0.176
Mof_H 	H 	0.07923	0.75897	0.17987	0.1
Mof_C 	C 	0.05342	0.79361	0.20797	0.294
Mof_Mn	Mn	0.16883	0.84518	0.02765	0.824
Mof_Mn	Mn	0.19335	0.78196	0.99515	0.921
Mof_Mn	Mn	0.19339	0.71239	0.95915	0.736
Mof_O 	O 	0.12192	0.79207	0.04717	-0.365
Mof_O 	O 	0.15178	0.7753	0.02314	-0.407
Mof_O 	O 	0.05831	0.62442	0.01704	-0.314
Mof_O 	O 	0.98845	0.52485	0.93493	-0.314
Mof_O 	O 	0.0203	0.51237	0.85521	-0.374
Mof_O 	O 	0.96307	0.48937	0.83704	-0.389
Mof_O 	O 	0.07822	0.47587	0.00326	-0.286
Mof_O 	O 	0.16797	0.41797	0.00767	-0.369
Mof_O 	O 	0.12949	0.35908	0.02317	-0.41
Mof_O 	O 	0.20223	0.73745	0.01417	-0.38
Mof_O 	O 	0.20778	0.69645	0.99158	-0.384
Mof_O 	O 	0.15794	0.65751	0.08602	-0.298
Mof_O 	O 	0.97688	0.59223	0.11157	-0.292
Mof_O 	O 	0.89012	0.44574	0.12907	-0.397
Mof_O 	O 	0.83058	0.4313	0.11923	-0.307
Mof_O 	O 	0.09054	0.69659	0.17997	-0.293
Mof_O 	O 	0.05905	0.80955	0.1893	-0.376
Mof_O 	O 	0.0447	0.80738	0.225	-0.355
Mof_O 	O 	0.16343	0.89357	0.03797	-0.226
Mof_O 	O 	0.16873	0.90197	0.03507	-0.224
Mof_H 	H 	0.14213	0.89647	0.03757	-0.334
Mof_H 	H 	0.18473	0.91527	0.04787	0.334
Mof_H 	H 	0.19543	0.92387	0.03417	-0.011
Mof_H 	H 	0.15273	0.90497	0.02387	0.307
Mof_H 	H 	0.13613	0.88547	0.04077	0.432
Mof_H 	H 	0.17833	0.90337	0.05157	-0.203
Mof_H 	H 	0.18953	0.91647	0.03877	0.011
Mof_H 	H 	0.14733	0.89867	0.02797	-0.114
Mof_C 	C 	0.90154	0.69284	0.36996	0.33
Mof_C 	C 	0.94321	0.70438	0.37339	0.009
Mof_C 	C 	0.95309	0.68207	0.38776	-0.133
Mof_H 	H 	0.9333	0.6625	0.3967	0.086
Mof_C 	C 	0.9908	0.68833	0.38891	0.115
Mof_H 	H 	0.9969	0.6732	0.3985	-0.006
Mof_C 	C 	0.01914	0.71644	0.37616	-0.262
Mof_H 	H 	0.0449	0.7205	0.3768	0.11
Mof_C 	C 	0.01084	0.74012	0.36166	0.267
Mof_C 	C 	0.9727	0.73384	0.36032	-0.209
Mof_H 	H 	0.9668	0.7492	0.3508	0.116
Mof_C 	C 	0.03805	0.79346	0.33486	0.249
Mof_H 	H 	0.0299	0.8102	0.3427	-0.047
Mof_H 	H 	0.018	0.778	0.3237	-0.05
Mof_C 	C 	0.07852	0.81894	0.32389	-0.419
Mof_C 	C 	0.10981	0.84812	0.33631	0.484
Mof_C 	C 	0.14741	0.86716	0.32709	-0.404
Mof_C 	C 	0.15343	0.86053	0.30493	0.51
Mof_C 	C 	0.12139	0.83209	0.29271	-0.405
Mof_C 	C 	0.08303	0.80902	0.30286	0.488
Mof_C 	C 	0.04991	0.77555	0.28958	-1.024
Mof_H 	H 	0.034	0.7534	0.2993	0.34
Mof_H 	H 	0.0613	0.7672	0.278	0.344
Mof_H 	H 	0.0333	0.7848	0.283	0.332
Mof_C 	C 	0.10368	0.86007	0.3597	-0.995
Mof_H 	H 	0.0808	0.8636	0.3597	0.33
Mof_H 	H 	0.1269	0.8846	0.364	0.335
Mof_H 	H 	0.0995	0.8395	0.3701	0.314
Mof_C 	C 	0.19414	0.88316	0.29479	-1.057
Mof_H 	H 	0.21	0.9073	0.3031	0.355
Mof_H 	H 	0.192	0.8897	0.2796	0.344
Mof_H 	H 	0.2066	0.867	0.2952	0.339
Mof_C 	C 	0.18308	0.89567	0.34065	0.227
Mof_H 	H 	0.1779	0.8893	0.3564	-0.036
Mof_H 	H 	0.2061	0.8935	0.3364	-0.037
Mof_C 	C 	0.22375	0.96499	0.34714	0.229
Mof_C 	C 	0.24909	0.95797	0.36044	-0.223
Mof_H 	H 	0.2437	0.932	0.3629	0.111
Mof_C 	C 	0.28257	0.98983	0.37011	0.068
Mof_H 	H 	0.2995	0.9851	0.379	-0.005
Mof_C 	C 	0.29072	0.02872	0.36647	-0.107
Mof_H 	H 	0.3131	0.05	0.3729	0.064
Mof_C 	C 	0.26537	0.03574	0.35317	-0.022
Mof_C 	C 	0.23189	0.00388	0.3435	-0.165
Mof_H 	H 	0.215	0.0086	0.3346	0.112
Mof_C 	C 	0.27406	0.0769	0.34934	0.356
Mof_C 	C 	0.12785	0.82373	0.26873	0.271
Mof_H 	H 	0.1029	0.8127	0.2606	-0.051
Mof_H 	H 	0.1471	0.8485	0.2615	-0.062
Mof_C 	C 	0.15491	0.79036	0.2486	0.254
Mof_C 	C 	0.16935	0.76393	0.24946	-0.238
Mof_H 	H 	0.1694	0.7521	0.263	0.113
Mof_C 	C 	0.18354	0.75511	0.23054	0.087
Mof_H 	H 	0.1939	0.738	0.2313	-0.006
Mof_C 	C 	0.18236	0.77202	0.21006	-0.115
Mof_H 	H 	0.1909	0.7653	0.1971	0.074
Mof_C 	C 	0.16856	0.79867	0.20922	0.008
Mof_C 	C 	0.15397	0.80669	0.22864	-0.208
Mof_H 	H 	0.1434	0.8236	0.2279	0.114
Mof_C 	C 	0.16673	0.81695	0.18755	0.34
Mof_C 	C 	0.95909	0.82915	0.34342	0.381
Mof_C 	C 	0.98526	0.85159	0.36261	-0.017
Mof_C 	C 	0.01279	0.89217	0.361	-0.097
Mof_H 	H 	0.0141	0.9061	0.348	0.071
Mof_C 	C 	0.03831	0.91196	0.37875	0.058
Mof_H 	H 	0.0567	0.9391	0.3777	0.007
Mof_C 	C 	0.03631	0.89117	0.39812	-0.214
Mof_H 	H 	0.0534	0.9044	0.41	0.11
Mof_C 	C 	0.00878	0.85059	0.39973	0.229
Mof_C 	C 	0.98326	0.8308	0.38197	-0.176
Mof_H 	H 	0.9649	0.8037	0.383	0.104
Mof_C 	C 	0.98834	0.79166	0.41937	0.238
Mof_H 	H 	0.9933	0.7818	0.4055	-0.043
Mof_H 	H 	0.9599	0.7816	0.4206	-0.044
Mof_C 	C 	0.00274	0.77725	0.43921	-0.401
Mof_C 	C 	0.03844	0.7776	0.43792	0.543
Mof_C 	C 	0.04809	0.75864	0.45523	-0.413
Mof_C 	C 	0.02144	0.73927	0.47205	0.48
Mof_C 	C 	0.98619	0.74088	0.47404	-0.393
Mof_C 	C 	0.97743	0.76191	0.45841	0.461
Mof_C 	C 	0.94122	0.76679	0.46059	-0.969
Mof_H 	H 	0.9467	0.7916	0.4539	0.316
Mof_H 	H 	0.935	0.7668	0.4761	0.315
Mof_H 	H 	0.919	0.7451	0.4531	0.306
Mof_C 	C 	0.06558	0.79495	0.41906	-1.135
Mof_H 	H 	0.0627	0.774	0.4092	0.363
Mof_H 	H 	0.0926	0.8096	0.4244	0.37
Mof_H 	H 	0.0593	0.8127	0.4111	0.371
Mof_C 	C 	0.03076	0.71506	0.48889	-0.999
Mof_H 	H 	0.0376	0.6977	0.481	0.344
Mof_H 	H 	0.0077	0.6994	0.4981	0.34
Mof_H 	H 	0.0528	0.733	0.4981	0.337
Mof_C 	C 	0.08624	0.75791	0.45386	0.245
Mof_H 	H 	0.105	0.7787	0.444	-0.053
Mof_H 	H 	0.0984	0.7616	0.4685	-0.041
Mof_C 	C 	0.1013	0.70611	0.44724	0.24
Mof_C 	C 	0.0868	0.66562	0.44366	-0.217
Mof_H 	H 	0.0597	0.6486	0.4409	0.107
Mof_C 	C 	0.11271	0.65048	0.44424	0.08
Mof_H 	H 	0.103	0.6234	0.4418	-0.002
Mof_C 	C 	0.15313	0.67584	0.44839	-0.108
Mof_H 	H 	0.1705	0.6657	0.4488	0.079
Mof_C 	C 	0.16765	0.71634	0.45196	0.001
Mof_C 	C 	0.14174	0.73148	0.45138	-0.183
Mof_H 	H 	0.1515	0.7586	0.4538	0.106
Mof_C 	C 	0.20969	0.74239	0.45607	0.305
Mof_C 	C 	0.95659	0.71507	0.49129	0.251
Mof_H 	H 	0.932	0.7155	0.4891	-0.041
Mof_H 	H 	0.9508	0.6878	0.4893	-0.047
Mof_C 	C 	0.95521	0.69802	0.52925	0.225
Mof_C 	C 	0.97613	0.70816	0.54931	-0.206
Mof_H 	H 	0.9985	0.7333	0.5511	0.104
Mof_C 	C 	0.96357	0.6807	0.56671	0.066
Mof_H 	H 	0.9776	0.6875	0.5801	-0
Mof_C 	C 	0.93006	0.64309	0.56406	-0.108
Mof_H 	H 	0.9216	0.6247	0.5757	0.06
Mof_C 	C 	0.90914	0.63295	0.544	-0.003
Mof_C 	C 	0.9217	0.66041	0.5266	-0.176
Mof_H 	H 	0.9077	0.6536	0.5132	0.1
Mof_C 	C 	0.87306	0.59315	0.5413	0.294
Mof_Mn	Mn	0.82149	0.65698	0.36098	0.824
Mof_Mn	Mn	0.88471	0.74473	0.32848	0.921
Mof_Mn	Mn	0.95427	0.81433	0.29248	0.736
Mof_O 	O 	0.8746	0.66319	0.3805	-0.365
Mof_O 	O 	0.89137	0.70982	0.35647	-0.407
Mof_O 	O 	0.04225	0.76723	0.35037	-0.314
Mof_O 	O 	0.14182	0.79694	0.26826	-0.314
Mof_O 	O 	0.1543	0.84127	0.18854	-0.374
Mof_O 	O 	0.1773	0.80704	0.17037	-0.389
Mof_O 	O 	0.1908	0.93569	0.33659	-0.286
Mof_O 	O 	0.2487	0.08334	0.341	-0.369
Mof_O 	O 	0.30759	0.10375	0.3565	-0.41
Mof_O 	O 	0.92922	0.79812	0.3475	-0.38
Mof_O 	O 	0.97022	0.84467	0.32491	-0.384
Mof_O 	O 	0.00916	0.83377	0.41935	-0.298
Mof_O 	O 	0.07444	0.71799	0.4449	-0.292
Mof_O 	O 	0.22093	0.77772	0.4624	-0.397
Mof_O 	O 	0.23537	0.73262	0.45256	-0.307
Mof_O 	O 	0.97008	0.72729	0.5133	-0.293
Mof_O 	O 	0.85712	0.58284	0.52263	-0.376
Mof_O 	O 	0.85929	0.57066	0.55833	-0.355
Mof_O 	O 	0.7731	0.6032	0.3713	-0.226
Mof_O 	O 	0.7647	0.6001	0.3684	-0.224
Mof_H 	H 	0.7702	0.579	0.3709	-0.334
Mof_H 	H 	0.7514	0.6028	0.3812	0.334
Mof_H 	H 	0.7428	0.6049	0.3675	-0.011
Mof_H 	H 	0.7617	0.5811	0.3572	0.307
Mof_H 	H 	0.7812	0.584	0.3741	0.432
Mof_H 	H 	0.7633	0.6083	0.3849	-0.203
Mof_H 	H 	0.7502	0.6064	0.3721	0.011
Mof_H 	H 	0.768	0.582	0.3613	-0.114
Mof_C 	C 	0.56821	0.02617	0.70329	0.33
Mof_C 	C 	0.60988	0.03771	0.70672	0.009
Mof_C 	C 	0.61976	0.0154	0.72109	-0.133
Mof_H 	H 	0.59997	0.99583	0.73003	0.086
Mof_C 	C 	0.65747	0.02166	0.72224	0.115
Mof_H 	H 	0.66357	0.00653	0.73183	-0.006
Mof_C 	C 	0.68581	0.04977	0.70949	-0.262
Mof_H 	H 	0.71157	0.05383	0.71013	0.11
Mof_C 	C 	0.67751	0.07345	0.69499	0.267
Mof_C 	C 	0.63937	0.06717	0.69365	-0.209
Mof_H 	H 	0.63347	0.08253	0.68413	0.116
Mof_C 	C 	0.70472	0.12679	0.66819	0.249
Mof_H 	H 	0.69657	0.14353	0.67603	-0.047
Mof_H 	H 	0.68467	0.11133	0.65703	-0.05
Mof_C 	C 	0.74519	0.15227	0.65722	-0.419
Mof_C 	C 	0.77648	0.18145	0.66964	0.484
Mof_C 	C 	0.81408	0.20049	0.66042	-0.404
Mof_C 	C 	0.8201	0.19386	0.63826	0.51
Mof_C 	C 	0.78806	0.16542	0.62604	-0.405
Mof_C 	C 	0.7497	0.14235	0.63619	0.488
Mof_C 	C 	0.71658	0.10888	0.62291	-1.024
Mof_H 	H 	0.70067	0.08673	0.63263	0.34
Mof_H 	H 	0.72797	0.10053	0.61133	0.344
Mof_H 	H 	0.69997	0.11813	0.61633	0.332
Mof_C 	C 	0.77035	0.1934	0.69303	-0.995
Mof_H 	H 	0.74747	0.19693	0.69303	0.33
Mof_H 	H 	0.79357	0.21793	0.69733	0.335
Mof_H 	H 	0.76617	0.17283	0.70343	0.314
Mof_C 	C 	0.86081	0.21649	0.62812	-1.057
Mof_H 	H 	0.87667	0.24063	0.63643	0.355
Mof_H 	H 	0.85867	0.22303	0.61293	0.344
Mof_H 	H 	0.87327	0.20033	0.62853	0.339
Mof_C 	C 	0.84975	0.229	0.67398	0.227
Mof_H 	H 	0.84457	0.22263	0.68973	-0.036
Mof_H 	H 	0.87277	0.22683	0.66973	-0.037
Mof_C 	C 	0.89042	0.29832	0.68047	0.229
Mof_C 	C 	0.91576	0.2913	0.69377	-0.223
Mof_H 	H 	0.91037	0.26533	0.69623	0.111
Mof_C 	C 	0.94924	0.32316	0.70344	0.068
Mof_H 	H 	0.96617	0.31843	0.71233	-0.005
Mof_C 	C 	0.95739	0.36205	0.6998	-0.107
Mof_H 	H 	0.97977	0.38333	0.70623	0.064
Mof_C 	C 	0.93204	0.36907	0.6865	-0.022
Mof_C 	C 	0.89856	0.33721	0.67683	-0.165
Mof_H 	H 	0.88167	0.34193	0.66793	0.112
Mof_C 	C 	0.94073	0.41023	0.68267	0.356
Mof_C 	C 	0.79452	0.15706	0.60206	0.271
Mof_H 	H 	0.76957	0.14603	0.59393	-0.051
Mof_H 	H 	0.81377	0.18183	0.59483	-0.062
Mof_C 	C 	0.82158	0.12369	0.58193	0.254
Mof_C 	C 	0.83602	0.09726	0.58279	-0.238
Mof_H 	H 	0.83607	0.08543	0.59633	0.113
Mof_C 	C 	0.85021	0.08844	0.56387	0.087
Mof_H 	H 	0.86057	0.07133	0.56463	-0.006
Mof_C 	C 	0.84903	0.10535	0.54339	-0.115
Mof_H 	H 	0.85757	0.09863	0.53043	0.074
Mof_C 	C 	0.83523	0.132	0.54255	0.008
Mof_C 	C 	0.82064	0.14002	0.56197	-0.208
Mof_H 	H 	0.81007	0.15693	0.56123	0.114
Mof_C 	C 	0.8334	0.15028	0.52088	0.34
Mof_C 	C 	0.62576	0.16248	0.67675	0.381
Mof_C 	C 	0.65193	0.18492	0.69594	-0.017
Mof_C 	C 	0.67946	0.2255	0.69433	-0.097
Mof_H 	H 	0.68077	0.23943	0.68133	0.071
Mof_C 	C 	0.70498	0.24529	0.71208	0.058
Mof_H 	H 	0.72337	0.27243	0.71103	0.007
Mof_C 	C 	0.70298	0.2245	0.73145	-0.214
Mof_H 	H 	0.72007	0.23773	0.74333	0.11
Mof_C 	C 	0.67545	0.18392	0.73306	0.229
Mof_C 	C 	0.64993	0.16413	0.7153	-0.176
Mof_H 	H 	0.63157	0.13703	0.71633	0.104
Mof_C 	C 	0.65501	0.12499	0.7527	0.238
Mof_H 	H 	0.65997	0.11513	0.73883	-0.043
Mof_H 	H 	0.62657	0.11493	0.75393	-0.044
Mof_C 	C 	0.66941	0.11058	0.77254	-0.401
Mof_C 	C 	0.70511	0.11093	0.77125	0.543
Mof_C 	C 	0.71476	0.09197	0.78856	-0.413
Mof_C 	C 	0.68811	0.0726	0.80538	0.48
Mof_C 	C 	0.65286	0.07421	0.80737	-0.393
Mof_C 	C 	0.6441	0.09524	0.79174	0.461
Mof_C 	C 	0.60789	0.10012	0.79392	-0.969
Mof_H 	H 	0.61337	0.12493	0.78723	0.316
Mof_H 	H 	0.60167	0.10013	0.80943	0.315
Mof_H 	H 	0.58567	0.07843	0.78643	0.306
Mof_C 	C 	0.73225	0.12828	0.75239	-1.135
Mof_H 	H 	0.72937	0.10733	0.74253	0.363
Mof_H 	H 	0.75927	0.14293	0.75773	0.37
Mof_H 	H 	0.72597	0.14603	0.74443	0.371
Mof_C 	C 	0.69743	0.04839	0.82222	-0.999
Mof_H 	H 	0.70427	0.03103	0.81433	0.344
Mof_H 	H 	0.67437	0.03273	0.83143	0.34
Mof_H 	H 	0.71947	0.06633	0.83143	0.337
Mof_C 	C 	0.75291	0.09124	0.78719	0.245
Mof_H 	H 	0.77167	0.11203	0.77733	-0.053
Mof_H 	H 	0.76507	0.09493	0.80183	-0.041
Mof_C 	C 	0.76797	0.03944	0.78057	0.24
Mof_C 	C 	0.75347	0.99895	0.77699	-0.217
Mof_H 	H 	0.72637	0.98193	0.77423	0.107
Mof_C 	C 	0.77938	0.98381	0.77757	0.08
Mof_H 	H 	0.76967	0.95673	0.77513	-0.002
Mof_C 	C 	0.8198	0.00917	0.78172	-0.108
Mof_H 	H 	0.83717	0.99903	0.78213	0.079
Mof_C 	C 	0.83432	0.04967	0.78529	0.001
Mof_C 	C 	0.80841	0.06481	0.78471	-0.183
Mof_H 	H 	0.81817	0.09193	0.78713	0.106
Mof_C 	C 	0.87636	0.07572	0.7894	0.305
Mof_C 	C 	0.62326	0.0484	0.82462	0.251
Mof_H 	H 	0.59867	0.04883	0.82243	-0.041
Mof_H 	H 	0.61747	0.02113	0.82263	-0.047
Mof_C 	C 	0.62188	0.03135	0.86258	0.225
Mof_C 	C 	0.6428	0.04149	0.88264	-0.206
Mof_H 	H 	0.66517	0.06663	0.88443	0.104
Mof_C 	C 	0.63024	0.01403	0.90004	0.066
Mof_H 	H 	0.64427	0.02083	0.91343	-0
Mof_C 	C 	0.59673	0.97642	0.89739	-0.109
Mof_H 	H 	0.58827	0.95803	0.90903	0.06
Mof_C 	C 	0.57581	0.96628	0.87733	-0.003
Mof_C 	C 	0.58837	0.99374	0.85993	-0.176
Mof_H 	H 	0.57437	0.98693	0.84653	0.1
Mof_C 	C 	0.53973	0.92648	0.87463	0.294
Mof_Mn	Mn	0.48815	0.99032	0.69431	0.824
Mof_Mn	Mn	0.55137	0.07806	0.66182	0.921
Mof_Mn	Mn	0.62094	0.14766	0.62582	0.736
Mof_O 	O 	0.54127	0.99652	0.71383	-0.365
Mof_O 	O 	0.55804	0.04315	0.6898	-0.407
Mof_O 	O 	0.70892	0.10056	0.6837	-0.314
Mof_O 	O 	0.80849	0.13027	0.60159	-0.314
Mof_O 	O 	0.82097	0.1746	0.52187	-0.374
Mof_O 	O 	0.84397	0.14037	0.5037	-0.389
Mof_O 	O 	0.85747	0.26902	0.66992	-0.286
Mof_O 	O 	0.91537	0.41667	0.67433	-0.369
Mof_O 	O 	0.97426	0.43708	0.68983	-0.41
Mof_O 	O 	0.59589	0.13145	0.68083	-0.38
Mof_O 	O 	0.63689	0.178	0.65824	-0.384
Mof_O 	O 	0.67583	0.1671	0.75268	-0.298
Mof_O 	O 	0.74111	0.05132	0.77823	-0.292
Mof_O 	O 	0.8876	0.11105	0.79573	-0.397
Mof_O 	O 	0.90204	0.06595	0.78589	-0.307
Mof_O 	O 	0.63675	0.06062	0.84663	-0.293
Mof_O 	O 	0.52379	0.91617	0.85596	-0.376
Mof_O 	O 	0.52596	0.90399	0.89166	-0.355
Mof_O 	O 	0.43977	0.93653	0.70463	-0.226
Mof_O 	O 	0.43137	0.93343	0.70173	-0.224
Mof_H 	H 	0.43687	0.91233	0.70423	-0.334
Mof_H 	H 	0.41807	0.93613	0.71453	0.334
Mof_H 	H 	0.40947	0.93823	0.70083	-0.011
Mof_H 	H 	0.42837	0.91443	0.69053	0.307
Mof_H 	H 	0.44787	0.91733	0.70743	0.432
Mof_H 	H 	0.42997	0.94163	0.71823	-0.203
Mof_H 	H 	0.41687	0.93973	0.70543	0.011
Mof_H 	H 	0.43467	0.91533	0.69463	-0.114
Mof_C 	C 	0.23487	0.35951	0.03663	0.33
Mof_C 	C 	0.27654	0.37105	0.04006	0.009
Mof_C 	C 	0.28642	0.34874	0.05443	-0.133
Mof_H 	H 	0.26663	0.32917	0.06337	0.086
Mof_C 	C 	0.32413	0.355	0.05558	0.115
Mof_H 	H 	0.33023	0.33987	0.06517	-0.006
Mof_C 	C 	0.35247	0.38311	0.04283	-0.262
Mof_H 	H 	0.37823	0.38717	0.04347	0.11
Mof_C 	C 	0.34417	0.40679	0.02833	0.267
Mof_C 	C 	0.30603	0.40051	0.02699	-0.209
Mof_H 	H 	0.30013	0.41587	0.01747	0.116
Mof_C 	C 	0.37138	0.46013	0.00153	0.249
Mof_H 	H 	0.36323	0.47687	0.00937	-0.047
Mof_H 	H 	0.35133	0.44467	0.99037	-0.05
Mof_C 	C 	0.41185	0.48561	0.99056	-0.419
Mof_C 	C 	0.44314	0.51479	0.00298	0.484
Mof_C 	C 	0.48074	0.53383	0.99376	-0.404
Mof_C 	C 	0.48676	0.5272	0.9716	0.51
Mof_C 	C 	0.45472	0.49876	0.95938	-0.405
Mof_C 	C 	0.41636	0.47569	0.96953	0.488
Mof_C 	C 	0.38324	0.44222	0.95625	-1.024
Mof_H 	H 	0.36733	0.42007	0.96597	0.34
Mof_H 	H 	0.39463	0.43387	0.94467	0.344
Mof_H 	H 	0.36663	0.45147	0.94967	0.332
Mof_C 	C 	0.43701	0.52674	0.02637	-0.995
Mof_H 	H 	0.41413	0.53027	0.02637	0.33
Mof_H 	H 	0.46023	0.55127	0.03067	0.335
Mof_H 	H 	0.43283	0.50617	0.03677	0.314
Mof_C 	C 	0.52747	0.54983	0.96146	-1.057
Mof_H 	H 	0.54333	0.57397	0.96977	0.355
Mof_H 	H 	0.52533	0.55637	0.94627	0.344
Mof_H 	H 	0.53993	0.53367	0.96187	0.339
Mof_C 	C 	0.51641	0.56234	0.00732	0.227
Mof_H 	H 	0.51123	0.55597	0.02307	-0.036
Mof_H 	H 	0.53943	0.56017	0.00307	-0.037
Mof_C 	C 	0.55708	0.63166	0.01381	0.229
Mof_C 	C 	0.58242	0.62464	0.02711	-0.223
Mof_H 	H 	0.57703	0.59867	0.02957	0.111
Mof_C 	C 	0.6159	0.6565	0.03678	0.068
Mof_H 	H 	0.63283	0.65177	0.04567	-0.005
Mof_C 	C 	0.62405	0.69539	0.03314	-0.107
Mof_H 	H 	0.64643	0.71667	0.03957	0.064
Mof_C 	C 	0.5987	0.70241	0.01984	-0.022
Mof_C 	C 	0.56522	0.67055	0.01017	-0.165
Mof_H 	H 	0.54833	0.67527	0.00127	0.112
Mof_C 	C 	0.60739	0.74357	0.01601	0.356
Mof_C 	C 	0.46118	0.4904	0.9354	0.271
Mof_H 	H 	0.43623	0.47937	0.92727	-0.052
Mof_H 	H 	0.48043	0.51517	0.92817	-0.062
Mof_C 	C 	0.48824	0.45703	0.91527	0.254
Mof_C 	C 	0.50268	0.4306	0.91613	-0.238
Mof_H 	H 	0.50273	0.41877	0.92967	0.113
Mof_C 	C 	0.51687	0.42178	0.89721	0.087
Mof_H 	H 	0.52723	0.40467	0.89797	-0.006
Mof_C 	C 	0.51569	0.43869	0.87673	-0.115
Mof_H 	H 	0.52423	0.43197	0.86377	0.074
Mof_C 	C 	0.50189	0.46534	0.87589	0.008
Mof_C 	C 	0.4873	0.47336	0.89531	-0.208
Mof_H 	H 	0.47673	0.49027	0.89457	0.114
Mof_C 	C 	0.50006	0.48362	0.85422	0.34
Mof_C 	C 	0.29242	0.49582	0.01009	0.381
Mof_C 	C 	0.31859	0.51826	0.02928	-0.017
Mof_C 	C 	0.34612	0.55884	0.02767	-0.097
Mof_H 	H 	0.34743	0.57277	0.01467	0.071
Mof_C 	C 	0.37164	0.57863	0.04542	0.058
Mof_H 	H 	0.39003	0.60577	0.04437	0.007
Mof_C 	C 	0.36964	0.55784	0.06479	-0.214
Mof_H 	H 	0.38673	0.57107	0.07667	0.11
Mof_C 	C 	0.34211	0.51726	0.0664	0.229
Mof_C 	C 	0.31659	0.49747	0.04864	-0.176
Mof_H 	H 	0.29823	0.47037	0.04967	0.104
Mof_C 	C 	0.32167	0.45833	0.08604	0.238
Mof_H 	H 	0.32663	0.44847	0.07217	-0.043
Mof_H 	H 	0.29323	0.44827	0.08727	-0.044
Mof_C 	C 	0.33607	0.44392	0.10588	-0.401
Mof_C 	C 	0.37177	0.44427	0.10459	0.543
Mof_C 	C 	0.38142	0.42531	0.1219	-0.413
Mof_C 	C 	0.35477	0.40594	0.13872	0.48
Mof_C 	C 	0.31952	0.40755	0.14071	-0.393
Mof_C 	C 	0.31076	0.42858	0.12508	0.461
Mof_C 	C 	0.27455	0.43346	0.12726	-0.969
Mof_H 	H 	0.28003	0.45827	0.12057	0.316
Mof_H 	H 	0.26833	0.43347	0.14277	0.315
Mof_H 	H 	0.25233	0.41177	0.11977	0.306
Mof_C 	C 	0.39891	0.46162	0.08573	-1.135
Mof_H 	H 	0.39603	0.44067	0.07587	0.363
Mof_H 	H 	0.42593	0.47627	0.09107	0.37
Mof_H 	H 	0.39263	0.47937	0.07777	0.371
Mof_C 	C 	0.36409	0.38173	0.15556	-0.999
Mof_H 	H 	0.37093	0.36437	0.14767	0.344
Mof_H 	H 	0.34103	0.36607	0.16477	0.34
Mof_H 	H 	0.38613	0.39967	0.16477	0.337
Mof_C 	C 	0.41957	0.42458	0.12053	0.245
Mof_H 	H 	0.43833	0.44537	0.11067	-0.053
Mof_H 	H 	0.43173	0.42827	0.13517	-0.041
Mof_C 	C 	0.43463	0.37278	0.11391	0.24
Mof_C 	C 	0.42013	0.33229	0.11033	-0.217
Mof_H 	H 	0.39303	0.31527	0.10757	0.107
Mof_C 	C 	0.44604	0.31715	0.11091	0.08
Mof_H 	H 	0.43633	0.29007	0.10847	-0.002
Mof_C 	C 	0.48646	0.34251	0.11506	-0.108
Mof_H 	H 	0.50383	0.33237	0.11547	0.079
Mof_C 	C 	0.50098	0.38301	0.11863	0.001
Mof_C 	C 	0.47507	0.39815	0.11805	-0.183
Mof_H 	H 	0.48483	0.42527	0.12047	0.106
Mof_C 	C 	0.54302	0.40906	0.12274	0.305
Mof_C 	C 	0.28992	0.38174	0.15796	0.251
Mof_H 	H 	0.26533	0.38217	0.15577	-0.041
Mof_H 	H 	0.28413	0.35447	0.15597	-0.047
Mof_C 	C 	0.28854	0.36469	0.19592	0.225
Mof_C 	C 	0.30946	0.37483	0.21598	-0.206
Mof_H 	H 	0.33183	0.39997	0.21777	0.104
Mof_C 	C 	0.2969	0.34737	0.23338	0.066
Mof_H 	H 	0.31093	0.35417	0.24677	-0
Mof_C 	C 	0.26339	0.30976	0.23073	-0.108
Mof_H 	H 	0.25493	0.29137	0.24237	0.06
Mof_C 	C 	0.24247	0.29962	0.21067	-0.003
Mof_C 	C 	0.25503	0.32708	0.19327	-0.176
Mof_H 	H 	0.24103	0.32027	0.17987	0.1
Mof_C 	C 	0.20639	0.25982	0.20797	0.294
Mof_Mn	Mn	0.15482	0.32365	0.02765	0.824
Mof_Mn	Mn	0.21804	0.41139	0.99515	0.921
Mof_Mn	Mn	0.28761	0.481	0.95915	0.736
Mof_O 	O 	0.20793	0.32986	0.04717	-0.365
Mof_O 	O 	0.2247	0.37649	0.02314	-0.407
Mof_O 	O 	0.37558	0.4339	0.01704	-0.314
Mof_O 	O 	0.47515	0.46361	0.93493	-0.314
Mof_O 	O 	0.48763	0.50794	0.85521	-0.374
Mof_O 	O 	0.51063	0.47371	0.83704	-0.389
Mof_O 	O 	0.52413	0.60236	0.00326	-0.286
Mof_O 	O 	0.58203	0.75001	0.00767	-0.369
Mof_O 	O 	0.64092	0.77042	0.02317	-0.41
Mof_O 	O 	0.26255	0.46479	0.01417	-0.38
Mof_O 	O 	0.30355	0.51134	0.99158	-0.384
Mof_O 	O 	0.34249	0.50044	0.08602	-0.298
Mof_O 	O 	0.40777	0.38466	0.11157	-0.292
Mof_O 	O 	0.55426	0.44439	0.12907	-0.397
Mof_O 	O 	0.5687	0.39929	0.11923	-0.307
Mof_O 	O 	0.30341	0.39396	0.17997	-0.293
Mof_O 	O 	0.19045	0.24951	0.1893	-0.376
Mof_O 	O 	0.19262	0.23733	0.225	-0.355
Mof_O 	O 	0.10643	0.26987	0.03797	-0.226
Mof_O 	O 	0.09803	0.26677	0.03507	-0.224
Mof_H 	H 	0.10353	0.24567	0.03757	-0.334
Mof_H 	H 	0.08473	0.26947	0.04787	0.334
Mof_H 	H 	0.07613	0.27157	0.03417	-0.011
Mof_H 	H 	0.09503	0.24777	0.02387	0.307
Mof_H 	H 	0.11453	0.25067	0.04077	0.432
Mof_H 	H 	0.09663	0.27497	0.05157	-0.203
Mof_H 	H 	0.08353	0.27307	0.03877	0.011
Mof_H 	H 	0.10133	0.24867	0.02797	-0.114
Mof_C 	C 	0.2087	0.30716	0.13004	0.33
Mof_C 	C 	0.23883	0.29562	0.12661	0.009
Mof_C 	C 	0.27102	0.31793	0.11224	-0.133
Mof_H 	H 	0.2708	0.3375	0.1033	0.086
Mof_C 	C 	0.30247	0.31167	0.11109	0.115
Mof_H 	H 	0.3237	0.3268	0.1015	-0.006
Mof_C 	C 	0.3027	0.28356	0.12384	-0.262
Mof_H 	H 	0.3244	0.2795	0.1232	0.11
Mof_C 	C 	0.27072	0.25988	0.13834	0.267
Mof_C 	C 	0.23886	0.26616	0.13968	-0.209
Mof_H 	H 	0.2176	0.2508	0.1492	0.116
Mof_C 	C 	0.24459	0.20654	0.16514	0.249
Mof_H 	H 	0.2197	0.1898	0.1573	-0.047
Mof_H 	H 	0.24	0.222	0.1763	-0.05
Mof_C 	C 	0.25958	0.18106	0.17611	-0.419
Mof_C 	C 	0.26169	0.15188	0.16369	0.484
Mof_C 	C 	0.28025	0.13284	0.17291	-0.404
Mof_C 	C 	0.2929	0.13947	0.19507	0.51
Mof_C 	C 	0.2893	0.16791	0.20729	-0.405
Mof_C 	C 	0.27401	0.19098	0.19714	0.488
Mof_C 	C 	0.27436	0.22445	0.21042	-1.024
Mof_H 	H 	0.2806	0.2466	0.2007	0.34
Mof_H 	H 	0.2941	0.2328	0.222	0.344
Mof_H 	H 	0.2485	0.2152	0.217	0.332
Mof_C 	C 	0.24361	0.13993	0.1403	-0.995
Mof_H 	H 	0.2172	0.1364	0.1403	0.33
Mof_H 	H 	0.2423	0.1154	0.136	0.335
Mof_H 	H 	0.26	0.1605	0.1299	0.314
Mof_C 	C 	0.31098	0.11684	0.20521	-1.057
Mof_H 	H 	0.3027	0.0927	0.1969	0.355
Mof_H 	H 	0.3023	0.1103	0.2204	0.344
Mof_H 	H 	0.3396	0.133	0.2048	0.339
Mof_C 	C 	0.28741	0.10433	0.15935	0.227
Mof_H 	H 	0.2886	0.1107	0.1436	-0.036
Mof_H 	H 	0.3126	0.1065	0.1636	-0.037
Mof_C 	C 	0.25876	0.03501	0.15286	0.229
Mof_C 	C 	0.29112	0.04203	0.13956	-0.223
Mof_H 	H 	0.3117	0.068	0.1371	0.111
Mof_C 	C 	0.29274	0.01017	0.12989	0.068
Mof_H 	H 	0.3144	0.0149	0.121	-0.005
Mof_C 	C 	0.262	0.97128	0.13353	-0.107
Mof_H 	H 	0.2631	0.95	0.1271	0.064
Mof_C 	C 	0.22963	0.96426	0.14683	-0.022
Mof_C 	C 	0.22801	0.99612	0.1565	-0.165
Mof_H 	H 	0.2064	0.9914	0.1654	0.112
Mof_C 	C 	0.19716	0.9231	0.15066	0.356
Mof_C 	C 	0.30412	0.17627	0.23127	0.271
Mof_H 	H 	0.2902	0.1873	0.2394	-0.051
Mof_H 	H 	0.2986	0.1515	0.2385	-0.062
Mof_C 	C 	0.36455	0.20964	0.2514	0.254
Mof_C 	C 	0.40542	0.23607	0.25054	-0.238
Mof_H 	H 	0.4173	0.2479	0.237	0.113
Mof_C 	C 	0.42843	0.24489	0.26946	0.087
Mof_H 	H 	0.4559	0.262	0.2687	-0.006
Mof_C 	C 	0.41034	0.22798	0.28994	-0.115
Mof_H 	H 	0.4256	0.2347	0.3029	0.074
Mof_C 	C 	0.36989	0.20133	0.29078	0.008
Mof_C 	C 	0.34728	0.19331	0.27136	-0.208
Mof_H 	H 	0.3198	0.1764	0.2721	0.114
Mof_C 	C 	0.34978	0.18305	0.31245	0.34
Mof_C 	C 	0.12994	0.17085	0.15658	0.381
Mof_C 	C 	0.13367	0.14841	0.13739	-0.017
Mof_C 	C 	0.12062	0.10783	0.139	-0.097
Mof_H 	H 	0.108	0.0939	0.152	0.071
Mof_C 	C 	0.12635	0.08804	0.12125	0.058
Mof_H 	H 	0.1176	0.0609	0.1223	0.007
Mof_C 	C 	0.14514	0.10883	0.10188	-0.214
Mof_H 	H 	0.149	0.0956	0.09	0.11
Mof_C 	C 	0.15819	0.14941	0.10027	0.229
Mof_C 	C 	0.15246	0.1692	0.11803	-0.176
Mof_H 	H 	0.1612	0.1963	0.117	0.104
Mof_C 	C 	0.19668	0.20834	0.08063	0.238
Mof_H 	H 	0.2115	0.2182	0.0945	-0.043
Mof_H 	H 	0.1783	0.2184	0.0794	-0.044
Mof_C 	C 	0.22549	0.22275	0.06079	-0.401
Mof_C 	C 	0.26084	0.2224	0.06208	0.543
Mof_C 	C 	0.28945	0.24136	0.04477	-0.413
Mof_C 	C 	0.28217	0.26073	0.02795	0.48
Mof_C 	C 	0.24531	0.25912	0.02596	-0.393
Mof_C 	C 	0.21552	0.23809	0.04159	0.461
Mof_C 	C 	0.17443	0.23321	0.03941	-0.969
Mof_H 	H 	0.1551	0.2084	0.0461	0.316
Mof_H 	H 	0.1682	0.2332	0.0239	0.315
Mof_H 	H 	0.1739	0.2549	0.0469	0.306
Mof_C 	C 	0.27063	0.20505	0.08094	-1.135
Mof_H 	H 	0.2887	0.226	0.0908	0.363
Mof_H 	H 	0.283	0.1904	0.0756	0.37
Mof_H 	H 	0.2466	0.1873	0.0889	0.371
Mof_C 	C 	0.3157	0.28494	0.01111	-0.999
Mof_H 	H 	0.3399	0.3023	0.019	0.344
Mof_H 	H 	0.3083	0.3006	0.0019	0.34
Mof_H 	H 	0.3198	0.267	0.0019	0.337
Mof_C 	C 	0.32833	0.24209	0.04614	0.245
Mof_H 	H 	0.3263	0.2213	0.056	-0.053
Mof_H 	H 	0.3368	0.2384	0.0315	-0.042
Mof_C 	C 	0.39519	0.29389	0.05276	0.24
Mof_C 	C 	0.42118	0.33438	0.05634	-0.217
Mof_H 	H 	0.4111	0.3514	0.0591	0.107
Mof_C 	C 	0.46223	0.34952	0.05576	0.08
Mof_H 	H 	0.4796	0.3766	0.0582	-0.002
Mof_C 	C 	0.47729	0.32416	0.05161	-0.108
Mof_H 	H 	0.5048	0.3343	0.0512	0.079
Mof_C 	C 	0.45131	0.28366	0.04804	0.001
Mof_C 	C 	0.41026	0.26852	0.04862	-0.183
Mof_H 	H 	0.3929	0.2414	0.0462	0.106
Mof_C 	C 	0.4673	0.25761	0.04393	0.305
Mof_C 	C 	0.24152	0.28493	0.00871	0.251
Mof_H 	H 	0.2165	0.2845	0.0109	-0.041
Mof_H 	H 	0.263	0.3122	0.0107	-0.047
Mof_C 	C 	0.25719	0.30198	0.97075	0.225
Mof_C 	C 	0.26797	0.29184	0.95069	-0.206
Mof_H 	H 	0.2652	0.2667	0.9489	0.104
Mof_C 	C 	0.28287	0.3193	0.93329	0.066
Mof_H 	H 	0.2901	0.3125	0.9199	-0
Mof_C 	C 	0.28697	0.35691	0.93594	-0.108
Mof_H 	H 	0.2969	0.3753	0.9243	0.06
Mof_C 	C 	0.27619	0.36705	0.956	-0.003
Mof_C 	C 	0.26129	0.33959	0.9734	-0.176
Mof_H 	H 	0.2541	0.3464	0.9868	0.1
Mof_C 	C 	0.27991	0.40685	0.9587	0.294
Mof_Mn	Mn	0.1645	0.34302	0.13902	0.824
Mof_Mn	Mn	0.13998	0.25527	0.17152	0.921
Mof_Mn	Mn	0.13994	0.18567	0.20752	0.736
Mof_O 	O 	0.21141	0.33681	0.1195	-0.365
Mof_O 	O 	0.18155	0.29018	0.14353	-0.407
Mof_O 	O 	0.27502	0.23277	0.14963	-0.314
Mof_O 	O 	0.34488	0.20306	0.23174	-0.314
Mof_O 	O 	0.31303	0.15873	0.31146	-0.374
Mof_O 	O 	0.37026	0.19296	0.32963	-0.389
Mof_O 	O 	0.25511	0.06431	0.16341	-0.286
Mof_O 	O 	0.16536	0.91666	0.159	-0.369
Mof_O 	O 	0.20384	0.89625	0.1435	-0.41
Mof_O 	O 	0.1311	0.20188	0.1525	-0.38
Mof_O 	O 	0.12555	0.15533	0.17509	-0.384
Mof_O 	O 	0.17539	0.16623	0.08065	-0.298
Mof_O 	O 	0.35645	0.28201	0.0551	-0.292
Mof_O 	O 	0.44321	0.22228	0.0376	-0.397
Mof_O 	O 	0.50275	0.26738	0.04744	-0.307
Mof_O 	O 	0.24279	0.27271	0.9867	-0.293
Mof_O 	O 	0.27428	0.41716	0.97737	-0.376
Mof_O 	O 	0.28863	0.42934	0.94167	-0.355
Mof_O 	O 	0.1699	0.3968	0.1287	-0.226
Mof_O 	O 	0.1646	0.3999	0.1316	-0.224
Mof_H 	H 	0.1912	0.421	0.1291	-0.334
Mof_H 	H 	0.1486	0.3972	0.1188	0.334
Mof_H 	H 	0.1379	0.3951	0.1325	-0.011
Mof_H 	H 	0.1806	0.4189	0.1428	0.307
Mof_H 	H 	0.1972	0.416	0.1259	0.432
Mof_H 	H 	0.155	0.3917	0.1151	-0.203
Mof_H 	H 	0.1438	0.3936	0.1279	0.011
Mof_H 	H 	0.186	0.418	0.1387	-0.114
Mof_C 	C 	0.87537	0.64049	0.46337	0.33
Mof_C 	C 	0.9055	0.62895	0.45994	0.009
Mof_C 	C 	0.93769	0.65126	0.44557	-0.133
Mof_H 	H 	0.93747	0.67083	0.43663	0.086
Mof_C 	C 	0.96914	0.645	0.44442	0.115
Mof_H 	H 	0.99037	0.66013	0.43483	-0.006
Mof_C 	C 	0.96937	0.61689	0.45717	-0.262
Mof_H 	H 	0.99107	0.61283	0.45653	0.11
Mof_C 	C 	0.93739	0.59321	0.47167	0.267
Mof_C 	C 	0.90553	0.59949	0.47301	-0.209
Mof_H 	H 	0.88427	0.58413	0.48253	0.116
Mof_C 	C 	0.91126	0.53987	0.49847	0.249
Mof_H 	H 	0.88637	0.52313	0.49063	-0.047
Mof_H 	H 	0.90667	0.55533	0.50963	-0.05
Mof_C 	C 	0.92625	0.51439	0.50944	-0.419
Mof_C 	C 	0.92836	0.48521	0.49702	0.484
Mof_C 	C 	0.94692	0.46617	0.50624	-0.404
Mof_C 	C 	0.95957	0.4728	0.5284	0.51
Mof_C 	C 	0.95597	0.50124	0.54062	-0.405
Mof_C 	C 	0.94068	0.52431	0.53047	0.488
Mof_C 	C 	0.94103	0.55778	0.54375	-1.024
Mof_H 	H 	0.94727	0.57993	0.53403	0.34
Mof_H 	H 	0.96077	0.56613	0.55533	0.344
Mof_H 	H 	0.91517	0.54853	0.55033	0.332
Mof_C 	C 	0.91028	0.47326	0.47363	-0.995
Mof_H 	H 	0.88387	0.46973	0.47363	0.33
Mof_H 	H 	0.90897	0.44873	0.46933	0.335
Mof_H 	H 	0.92667	0.49383	0.46323	0.314
Mof_C 	C 	0.97765	0.45017	0.53854	-1.057
Mof_H 	H 	0.96937	0.42603	0.53023	0.355
Mof_H 	H 	0.96897	0.44363	0.55373	0.344
Mof_H 	H 	0.00627	0.46633	0.53813	0.339
Mof_C 	C 	0.95408	0.43766	0.49268	0.227
Mof_H 	H 	0.95527	0.44403	0.47693	-0.036
Mof_H 	H 	0.97927	0.43983	0.49693	-0.037
Mof_C 	C 	0.92543	0.36834	0.48619	0.229
Mof_C 	C 	0.95779	0.37536	0.47289	-0.223
Mof_H 	H 	0.97837	0.40133	0.47043	0.111
Mof_C 	C 	0.95941	0.3435	0.46322	0.068
Mof_H 	H 	0.98107	0.34823	0.45433	-0.005
Mof_C 	C 	0.92867	0.30461	0.46686	-0.107
Mof_H 	H 	0.92977	0.28333	0.46043	0.064
Mof_C 	C 	0.8963	0.29759	0.48016	-0.022
Mof_C 	C 	0.89468	0.32945	0.48983	-0.165
Mof_H 	H 	0.87307	0.32473	0.49873	0.112
Mof_C 	C 	0.86383	0.25643	0.48399	0.356
Mof_C 	C 	0.97079	0.5096	0.5646	0.271
Mof_H 	H 	0.95687	0.52063	0.57273	-0.052
Mof_H 	H 	0.96527	0.48483	0.57183	-0.062
Mof_C 	C 	0.03122	0.54297	0.58473	0.254
Mof_C 	C 	0.07209	0.5694	0.58387	-0.238
Mof_H 	H 	0.08397	0.58123	0.57033	0.113
Mof_C 	C 	0.0951	0.57822	0.60279	0.087
Mof_H 	H 	0.12257	0.59533	0.60203	-0.006
Mof_C 	C 	0.07701	0.56131	0.62327	-0.115
Mof_H 	H 	0.09227	0.56803	0.63623	0.074
Mof_C 	C 	0.03656	0.53466	0.62411	0.008
Mof_C 	C 	0.01395	0.52664	0.60469	-0.208
Mof_H 	H 	0.98647	0.50973	0.60543	0.114
Mof_C 	C 	0.01645	0.51638	0.64578	0.34
Mof_C 	C 	0.79661	0.50418	0.48991	0.38
Mof_C 	C 	0.80034	0.48174	0.47072	-0.017
Mof_C 	C 	0.78729	0.44116	0.47233	-0.097
Mof_H 	H 	0.77467	0.42723	0.48533	0.071
Mof_C 	C 	0.79302	0.42137	0.45458	0.058
Mof_H 	H 	0.78427	0.39423	0.45563	0.007
Mof_C 	C 	0.81181	0.44216	0.43521	-0.214
Mof_H 	H 	0.81567	0.42893	0.42333	0.11
Mof_C 	C 	0.82486	0.48274	0.4336	0.229
Mof_C 	C 	0.81913	0.50253	0.45136	-0.176
Mof_H 	H 	0.82787	0.52963	0.45033	0.104
Mof_C 	C 	0.86335	0.54167	0.41396	0.238
Mof_H 	H 	0.87817	0.55153	0.42783	-0.043
Mof_H 	H 	0.84497	0.55173	0.41273	-0.044
Mof_C 	C 	0.89216	0.55608	0.39412	-0.401
Mof_C 	C 	0.92751	0.55573	0.39541	0.543
Mof_C 	C 	0.95612	0.57469	0.3781	-0.413
Mof_C 	C 	0.94884	0.59406	0.36128	0.48
Mof_C 	C 	0.91198	0.59245	0.35929	-0.393
Mof_C 	C 	0.88219	0.57142	0.37492	0.461
Mof_C 	C 	0.8411	0.56654	0.37274	-0.969
Mof_H 	H 	0.82177	0.54173	0.37943	0.316
Mof_H 	H 	0.83487	0.56653	0.35723	0.315
Mof_H 	H 	0.84057	0.58823	0.38023	0.306
Mof_C 	C 	0.9373	0.53838	0.41427	-1.135
Mof_H 	H 	0.95537	0.55933	0.42413	0.363
Mof_H 	H 	0.94967	0.52373	0.40893	0.37
Mof_H 	H 	0.91327	0.52063	0.42223	0.371
Mof_C 	C 	0.98237	0.61827	0.34444	-0.999
Mof_H 	H 	0.00657	0.63563	0.35233	0.344
Mof_H 	H 	0.97497	0.63393	0.33523	0.34
Mof_H 	H 	0.98647	0.60033	0.33523	0.337
Mof_C 	C 	0.995	0.57542	0.37947	0.245
Mof_H 	H 	0.99297	0.55463	0.38933	-0.053
Mof_H 	H 	0.00347	0.57173	0.36483	-0.041
Mof_C 	C 	0.06186	0.62722	0.38609	0.24
Mof_C 	C 	0.08785	0.66771	0.38967	-0.217
Mof_H 	H 	0.07777	0.68473	0.39243	0.107
Mof_C 	C 	0.1289	0.68285	0.38909	0.08
Mof_H 	H 	0.14627	0.70993	0.39153	-0.002
Mof_C 	C 	0.14396	0.65749	0.38494	-0.108
Mof_H 	H 	0.17147	0.66763	0.38453	0.079
Mof_C 	C 	0.11798	0.61699	0.38137	0.001
Mof_C 	C 	0.07693	0.60185	0.38195	-0.183
Mof_H 	H 	0.05957	0.57473	0.37953	0.106
Mof_C 	C 	0.13397	0.59094	0.37726	0.305
Mof_C 	C 	0.90819	0.61826	0.34204	0.251
Mof_H 	H 	0.88317	0.61783	0.34423	-0.041
Mof_H 	H 	0.92967	0.64553	0.34403	-0.047
Mof_C 	C 	0.92386	0.63531	0.30408	0.225
Mof_C 	C 	0.93464	0.62517	0.28402	-0.206
Mof_H 	H 	0.93187	0.60003	0.28223	0.104
Mof_C 	C 	0.94954	0.65263	0.26662	0.066
Mof_H 	H 	0.95677	0.64583	0.25323	-0
Mof_C 	C 	0.95364	0.69024	0.26927	-0.108
Mof_H 	H 	0.96357	0.70863	0.25763	0.06
Mof_C 	C 	0.94286	0.70038	0.28933	-0.003
Mof_C 	C 	0.92796	0.67292	0.30673	-0.176
Mof_H 	H 	0.92077	0.67973	0.32013	0.1
Mof_C 	C 	0.94658	0.74018	0.29203	0.294
Mof_Mn	Mn	0.83117	0.67635	0.47235	0.824
Mof_Mn	Mn	0.80665	0.58861	0.50485	0.921
Mof_Mn	Mn	0.80661	0.519	0.54085	0.736
Mof_O 	O 	0.87808	0.67014	0.45283	-0.365
Mof_O 	O 	0.84822	0.62351	0.47686	-0.407
Mof_O 	O 	0.94169	0.5661	0.48296	-0.314
Mof_O 	O 	0.01155	0.53639	0.56507	-0.314
Mof_O 	O 	0.9797	0.49206	0.64479	-0.374
Mof_O 	O 	0.03693	0.52629	0.66296	-0.389
Mof_O 	O 	0.92178	0.39764	0.49674	-0.286
Mof_O 	O 	0.83203	0.24999	0.49233	-0.369
Mof_O 	O 	0.87051	0.22958	0.47683	-0.41
Mof_O 	O 	0.79777	0.53521	0.48583	-0.38
Mof_O 	O 	0.79222	0.48866	0.50842	-0.384
Mof_O 	O 	0.84206	0.49956	0.41398	-0.298
Mof_O 	O 	0.02312	0.61534	0.38843	-0.292
Mof_O 	O 	0.10988	0.55561	0.37093	-0.397
Mof_O 	O 	0.16942	0.60071	0.38077	-0.307
Mof_O 	O 	0.90946	0.60604	0.32003	-0.293
Mof_O 	O 	0.94095	0.75049	0.3107	-0.376
Mof_O 	O 	0.9553	0.76267	0.275	-0.355
Mof_O 	O 	0.83657	0.73013	0.46203	-0.226
Mof_O 	O 	0.83127	0.73323	0.46493	-0.224
Mof_H 	H 	0.85787	0.75433	0.46243	-0.334
Mof_H 	H 	0.81527	0.73053	0.45213	0.334
Mof_H 	H 	0.80457	0.72843	0.46583	-0.011
Mof_H 	H 	0.84727	0.75223	0.47613	0.307
Mof_H 	H 	0.86387	0.74933	0.45923	0.432
Mof_H 	H 	0.82167	0.72503	0.44843	-0.203
Mof_H 	H 	0.81047	0.72693	0.46123	0.011
Mof_H 	H 	0.85267	0.75133	0.47203	-0.114
Mof_C 	C 	0.54203	0.97383	0.79671	0.33
Mof_C 	C 	0.57216	0.96229	0.79328	0.009
Mof_C 	C 	0.60435	0.9846	0.77891	-0.133
Mof_H 	H 	0.60413	0.00417	0.76997	0.086
Mof_C 	C 	0.6358	0.97834	0.77776	0.115
Mof_H 	H 	0.65703	0.99347	0.76817	-0.006
Mof_C 	C 	0.63603	0.95023	0.79051	-0.262
Mof_H 	H 	0.65773	0.94617	0.78987	0.11
Mof_C 	C 	0.60405	0.92655	0.80501	0.267
Mof_C 	C 	0.57219	0.93283	0.80635	-0.209
Mof_H 	H 	0.55093	0.91747	0.81587	0.116
Mof_C 	C 	0.57792	0.87321	0.83181	0.249
Mof_H 	H 	0.55303	0.85647	0.82397	-0.047
Mof_H 	H 	0.57333	0.88867	0.84297	-0.05
Mof_C 	C 	0.59291	0.84773	0.84278	-0.419
Mof_C 	C 	0.59502	0.81855	0.83036	0.484
Mof_C 	C 	0.61358	0.79951	0.83958	-0.404
Mof_C 	C 	0.62623	0.80614	0.86174	0.51
Mof_C 	C 	0.62263	0.83458	0.87396	-0.405
Mof_C 	C 	0.60734	0.85765	0.86381	0.488
Mof_C 	C 	0.60769	0.89112	0.87709	-1.024
Mof_H 	H 	0.61393	0.91327	0.86737	0.34
Mof_H 	H 	0.62743	0.89947	0.88867	0.344
Mof_H 	H 	0.58183	0.88187	0.88367	0.332
Mof_C 	C 	0.57694	0.8066	0.80697	-0.995
Mof_H 	H 	0.55053	0.80307	0.80697	0.33
Mof_H 	H 	0.57563	0.78207	0.80267	0.335
Mof_H 	H 	0.59333	0.82717	0.79657	0.314
Mof_C 	C 	0.64431	0.78351	0.87188	-1.057
Mof_H 	H 	0.63603	0.75937	0.86357	0.355
Mof_H 	H 	0.63563	0.77697	0.88707	0.344
Mof_H 	H 	0.67293	0.79967	0.87147	0.339
Mof_C 	C 	0.62074	0.771	0.82602	0.227
Mof_H 	H 	0.62193	0.77737	0.81027	-0.036
Mof_H 	H 	0.64593	0.77317	0.83027	-0.037
Mof_C 	C 	0.59209	0.70168	0.81953	0.229
Mof_C 	C 	0.62445	0.7087	0.80623	-0.223
Mof_H 	H 	0.64503	0.73467	0.80377	0.111
Mof_C 	C 	0.62607	0.67684	0.79656	0.068
Mof_H 	H 	0.64773	0.68157	0.78767	-0.005
Mof_C 	C 	0.59533	0.63795	0.8002	-0.107
Mof_H 	H 	0.59643	0.61667	0.79377	0.064
Mof_C 	C 	0.56296	0.63093	0.8135	-0.022
Mof_C 	C 	0.56134	0.66279	0.82317	-0.165
Mof_H 	H 	0.53973	0.65807	0.83207	0.112
Mof_C 	C 	0.53049	0.58977	0.81733	0.356
Mof_C 	C 	0.63745	0.84294	0.89794	0.271
Mof_H 	H 	0.62353	0.85397	0.90607	-0.051
Mof_H 	H 	0.63193	0.81817	0.90517	-0.062
Mof_C 	C 	0.69788	0.87631	0.91807	0.254
Mof_C 	C 	0.73875	0.90274	0.91721	-0.238
Mof_H 	H 	0.75063	0.91457	0.90367	0.113
Mof_C 	C 	0.76176	0.91156	0.93613	0.087
Mof_H 	H 	0.78923	0.92867	0.93537	-0.006
Mof_C 	C 	0.74367	0.89465	0.95661	-0.115
Mof_H 	H 	0.75893	0.90137	0.96957	0.074
Mof_C 	C 	0.70322	0.868	0.95745	0.008
Mof_C 	C 	0.68061	0.85998	0.93803	-0.208
Mof_H 	H 	0.65313	0.84307	0.93877	0.114
Mof_C 	C 	0.68311	0.84972	0.97912	0.34
Mof_C 	C 	0.46327	0.83752	0.82325	0.381
Mof_C 	C 	0.467	0.81508	0.80406	-0.018
Mof_C 	C 	0.45395	0.7745	0.80567	-0.097
Mof_H 	H 	0.44133	0.76057	0.81867	0.071
Mof_C 	C 	0.45968	0.75471	0.78792	0.058
Mof_H 	H 	0.45093	0.72757	0.78897	0.007
Mof_C 	C 	0.47847	0.7755	0.76855	-0.214
Mof_H 	H 	0.48233	0.76227	0.75667	0.11
Mof_C 	C 	0.49152	0.81608	0.76694	0.229
Mof_C 	C 	0.48579	0.83587	0.7847	-0.176
Mof_H 	H 	0.49453	0.86297	0.78367	0.104
Mof_C 	C 	0.53001	0.87501	0.7473	0.238
Mof_H 	H 	0.54483	0.88487	0.76117	-0.043
Mof_H 	H 	0.51163	0.88507	0.74607	-0.044
Mof_C 	C 	0.55882	0.88942	0.72746	-0.401
Mof_C 	C 	0.59417	0.88907	0.72875	0.543
Mof_C 	C 	0.62278	0.90803	0.71144	-0.413
Mof_C 	C 	0.6155	0.9274	0.69462	0.48
Mof_C 	C 	0.57864	0.92579	0.69263	-0.393
Mof_C 	C 	0.54885	0.90476	0.70826	0.461
Mof_C 	C 	0.50776	0.89988	0.70608	-0.969
Mof_H 	H 	0.48843	0.87507	0.71277	0.316
Mof_H 	H 	0.50153	0.89987	0.69057	0.315
Mof_H 	H 	0.50723	0.92157	0.71357	0.306
Mof_C 	C 	0.60396	0.87172	0.74761	-1.135
Mof_H 	H 	0.62203	0.89267	0.75747	0.363
Mof_H 	H 	0.61633	0.85707	0.74227	0.37
Mof_H 	H 	0.57993	0.85397	0.75557	0.371
Mof_C 	C 	0.64903	0.95161	0.67778	-0.999
Mof_H 	H 	0.67323	0.96897	0.68567	0.344
Mof_H 	H 	0.64163	0.96727	0.66857	0.34
Mof_H 	H 	0.65313	0.93367	0.66857	0.337
Mof_C 	C 	0.66166	0.90876	0.71281	0.245
Mof_H 	H 	0.65963	0.88797	0.72267	-0.053
Mof_H 	H 	0.67013	0.90507	0.69817	-0.041
Mof_C 	C 	0.72852	0.96056	0.71943	0.24
Mof_C 	C 	0.75451	0.00105	0.72301	-0.217
Mof_H 	H 	0.74443	0.01807	0.72577	0.107
Mof_C 	C 	0.79556	0.01619	0.72243	0.08
Mof_H 	H 	0.81293	0.04327	0.72487	-0.002
Mof_C 	C 	0.81062	0.99083	0.71828	-0.108
Mof_H 	H 	0.83813	0.00097	0.71787	0.079
Mof_C 	C 	0.78464	0.95033	0.71471	0.001
Mof_C 	C 	0.74359	0.93519	0.71529	-0.183
Mof_H 	H 	0.72623	0.90807	0.71287	0.106
Mof_C 	C 	0.80063	0.92428	0.7106	0.305
Mof_C 	C 	0.57485	0.9516	0.67538	0.251
Mof_H 	H 	0.54983	0.95117	0.67757	-0.041
Mof_H 	H 	0.59633	0.97887	0.67737	-0.047
Mof_C 	C 	0.59052	0.96865	0.63742	0.225
Mof_C 	C 	0.6013	0.95851	0.61736	-0.206
Mof_H 	H 	0.59853	0.93337	0.61557	0.104
Mof_C 	C 	0.6162	0.98597	0.59996	0.066
Mof_H 	H 	0.62343	0.97917	0.58657	-0
Mof_C 	C 	0.6203	0.02358	0.60261	-0.109
Mof_H 	H 	0.63023	0.04197	0.59097	0.06
Mof_C 	C 	0.60952	0.03372	0.62267	-0.003
Mof_C 	C 	0.59462	0.00626	0.64007	-0.176
Mof_H 	H 	0.58743	0.01307	0.65347	0.1
Mof_C 	C 	0.61324	0.07352	0.62537	0.294
Mof_Mn	Mn	0.49784	0.00968	0.80569	0.824
Mof_Mn	Mn	0.47331	0.92194	0.83818	0.921
Mof_Mn	Mn	0.47328	0.85234	0.87418	0.736
Mof_O 	O 	0.54474	0.00348	0.78617	-0.365
Mof_O 	O 	0.51488	0.95685	0.8102	-0.407
Mof_O 	O 	0.60835	0.89944	0.8163	-0.314
Mof_O 	O 	0.67821	0.86973	0.89841	-0.314
Mof_O 	O 	0.64636	0.8254	0.97813	-0.374
Mof_O 	O 	0.70359	0.85963	0.9963	-0.389
Mof_O 	O 	0.58844	0.73098	0.83008	-0.286
Mof_O 	O 	0.49869	0.58333	0.82567	-0.369
Mof_O 	O 	0.53717	0.56292	0.81017	-0.41
Mof_O 	O 	0.46443	0.86855	0.81917	-0.38
Mof_O 	O 	0.45888	0.822	0.84176	-0.384
Mof_O 	O 	0.50872	0.8329	0.74732	-0.298
Mof_O 	O 	0.68978	0.94868	0.72177	-0.292
Mof_O 	O 	0.77654	0.88895	0.70427	-0.397
Mof_O 	O 	0.83608	0.93405	0.71411	-0.307
Mof_O 	O 	0.57612	0.93938	0.65337	-0.293
Mof_O 	O 	0.60761	0.08383	0.64404	-0.376
Mof_O 	O 	0.62196	0.09601	0.60834	-0.355
Mof_O 	O 	0.50323	0.06347	0.79537	-0.226
Mof_O 	O 	0.49793	0.06657	0.79827	-0.224
Mof_H 	H 	0.52453	0.08767	0.79577	-0.334
Mof_H 	H 	0.48193	0.06387	0.78547	0.334
Mof_H 	H 	0.47123	0.06177	0.79917	-0.011
Mof_H 	H 	0.51393	0.08557	0.80947	0.307
Mof_H 	H 	0.53053	0.08267	0.79257	0.432
Mof_H 	H 	0.48833	0.05837	0.78177	-0.203
Mof_H 	H 	0.47713	0.06027	0.79457	0.011
Mof_H 	H 	0.51933	0.08467	0.80537	-0.114
Mof_C 	C 	0.09846	0.7913	0.13004	0.33
Mof_C 	C 	0.05679	0.76117	0.12661	0.009
Mof_C 	C 	0.04691	0.72898	0.11224	-0.133
Mof_H 	H 	0.0667	0.7292	0.1033	0.086
Mof_C 	C 	0.0092	0.69753	0.11109	0.115
Mof_H 	H 	0.0031	0.6763	0.1015	-0.006
Mof_C 	C 	0.98086	0.6973	0.12384	-0.262
Mof_H 	H 	0.9551	0.6756	0.1232	0.11
Mof_C 	C 	0.98916	0.72928	0.13834	0.267
Mof_C 	C 	0.0273	0.76114	0.13968	-0.209
Mof_H 	H 	0.0332	0.7824	0.1492	0.116
Mof_C 	C 	0.96195	0.75541	0.16514	0.249
Mof_H 	H 	0.9701	0.7803	0.1573	-0.047
Mof_H 	H 	0.982	0.76	0.1763	-0.05
Mof_C 	C 	0.92148	0.74042	0.17611	-0.419
Mof_C 	C 	0.89019	0.73831	0.16369	0.484
Mof_C 	C 	0.85259	0.71975	0.17291	-0.404
Mof_C 	C 	0.84657	0.7071	0.19507	0.51
Mof_C 	C 	0.87861	0.7107	0.20729	-0.405
Mof_C 	C 	0.91697	0.72599	0.19714	0.488
Mof_C 	C 	0.95009	0.72564	0.21042	-1.024
Mof_H 	H 	0.966	0.7194	0.2007	0.34
Mof_H 	H 	0.9387	0.7059	0.222	0.344
Mof_H 	H 	0.9667	0.7515	0.217	0.332
Mof_C 	C 	0.89632	0.75639	0.1403	-0.995
Mof_H 	H 	0.9192	0.7828	0.1403	0.33
Mof_H 	H 	0.8731	0.7577	0.136	0.335
Mof_H 	H 	0.9005	0.74	0.1299	0.314
Mof_C 	C 	0.80586	0.68902	0.20521	-1.057
Mof_H 	H 	0.79	0.6973	0.1969	0.355
Mof_H 	H 	0.808	0.6977	0.2204	0.344
Mof_H 	H 	0.7934	0.6604	0.2048	0.339
Mof_C 	C 	0.81692	0.71259	0.15935	0.227
Mof_H 	H 	0.8221	0.7114	0.1436	-0.036
Mof_H 	H 	0.7939	0.6874	0.1636	-0.037
Mof_C 	C 	0.77625	0.74124	0.15286	0.229
Mof_C 	C 	0.75091	0.70888	0.13956	-0.223
Mof_H 	H 	0.7563	0.6883	0.1371	0.111
Mof_C 	C 	0.71743	0.70726	0.12989	0.068
Mof_H 	H 	0.7005	0.6856	0.121	-0.005
Mof_C 	C 	0.70928	0.738	0.13353	-0.107
Mof_H 	H 	0.6869	0.7369	0.1271	0.064
Mof_C 	C 	0.73463	0.77037	0.14683	-0.022
Mof_C 	C 	0.76811	0.77199	0.1565	-0.165
Mof_H 	H 	0.785	0.7936	0.1654	0.112
Mof_C 	C 	0.72594	0.80284	0.15066	0.356
Mof_C 	C 	0.87215	0.69588	0.23127	0.271
Mof_H 	H 	0.8971	0.7098	0.2394	-0.051
Mof_H 	H 	0.8529	0.7014	0.2385	-0.062
Mof_C 	C 	0.84509	0.63545	0.2514	0.254
Mof_C 	C 	0.83065	0.59458	0.25054	-0.238
Mof_H 	H 	0.8306	0.5827	0.237	0.113
Mof_C 	C 	0.81646	0.57157	0.26946	0.087
Mof_H 	H 	0.8061	0.5441	0.2687	-0.006
Mof_C 	C 	0.81764	0.58966	0.28994	-0.115
Mof_H 	H 	0.8091	0.5744	0.3029	0.074
Mof_C 	C 	0.83144	0.63011	0.29078	0.008
Mof_C 	C 	0.84603	0.65272	0.27136	-0.208
Mof_H 	H 	0.8566	0.6802	0.2721	0.114
Mof_C 	C 	0.83327	0.65022	0.31245	0.34
Mof_C 	C 	0.04091	0.87006	0.15658	0.381
Mof_C 	C 	0.01474	0.86633	0.13739	-0.017
Mof_C 	C 	0.98721	0.87938	0.139	-0.097
Mof_H 	H 	0.9859	0.892	0.152	0.071
Mof_C 	C 	0.96169	0.87365	0.12125	0.058
Mof_H 	H 	0.9433	0.8824	0.1223	0.007
Mof_C 	C 	0.96369	0.85486	0.10188	-0.214
Mof_H 	H 	0.9466	0.851	0.09	0.11
Mof_C 	C 	0.99122	0.84181	0.10027	0.229
Mof_C 	C 	0.01674	0.84754	0.11803	-0.176
Mof_H 	H 	0.0351	0.8388	0.117	0.104
Mof_C 	C 	0.01166	0.80332	0.08063	0.238
Mof_H 	H 	0.0067	0.7885	0.0945	-0.043
Mof_H 	H 	0.0401	0.8217	0.0794	-0.044
Mof_C 	C 	0.99726	0.77451	0.06079	-0.401
Mof_C 	C 	0.96156	0.73916	0.06208	0.543
Mof_C 	C 	0.95191	0.71055	0.04477	-0.413
Mof_C 	C 	0.97856	0.71783	0.02795	0.48
Mof_C 	C 	0.01381	0.75469	0.02596	-0.393
Mof_C 	C 	0.02257	0.78448	0.04159	0.461
Mof_C 	C 	0.05878	0.82557	0.03941	-0.969
Mof_H 	H 	0.0533	0.8449	0.0461	0.316
Mof_H 	H 	0.065	0.8318	0.0239	0.315
Mof_H 	H 	0.081	0.8261	0.0469	0.306
Mof_C 	C 	0.93442	0.72937	0.08094	-1.135
Mof_H 	H 	0.9373	0.7113	0.0908	0.363
Mof_H 	H 	0.9074	0.717	0.0756	0.37
Mof_H 	H 	0.9407	0.7534	0.0889	0.371
Mof_C 	C 	0.96924	0.6843	0.01111	-0.999
Mof_H 	H 	0.9624	0.6601	0.019	0.344
Mof_H 	H 	0.9923	0.6917	0.0019	0.34
Mof_H 	H 	0.9472	0.6802	0.0019	0.337
Mof_C 	C 	0.91376	0.67167	0.04614	0.245
Mof_H 	H 	0.895	0.6737	0.056	-0.053
Mof_H 	H 	0.9016	0.6632	0.0315	-0.041
Mof_C 	C 	0.8987	0.60481	0.05276	0.24
Mof_C 	C 	0.9132	0.57882	0.05634	-0.217
Mof_H 	H 	0.9403	0.5889	0.0591	0.107
Mof_C 	C 	0.88729	0.53777	0.05576	0.08
Mof_H 	H 	0.897	0.5204	0.0582	-0.002
Mof_C 	C 	0.84687	0.52271	0.05161	-0.108
Mof_H 	H 	0.8295	0.4952	0.0512	0.079
Mof_C 	C 	0.83235	0.54869	0.04804	0.001
Mof_C 	C 	0.85826	0.58974	0.04862	-0.183
Mof_H 	H 	0.8485	0.6071	0.0462	0.106
Mof_C 	C 	0.79031	0.5327	0.04393	0.305
Mof_C 	C 	0.04341	0.75848	0.00871	0.251
Mof_H 	H 	0.068	0.7835	0.0109	-0.041
Mof_H 	H 	0.0492	0.737	0.0107	-0.047
Mof_C 	C 	0.04479	0.74281	0.97075	0.225
Mof_C 	C 	0.02387	0.73203	0.95069	-0.206
Mof_H 	H 	0.0015	0.7348	0.9489	0.104
Mof_C 	C 	0.03643	0.71713	0.93329	0.066
Mof_H 	H 	0.0224	0.7099	0.9199	-0
Mof_C 	C 	0.06994	0.71303	0.93594	-0.108
Mof_H 	H 	0.0784	0.7031	0.9243	0.06
Mof_C 	C 	0.09086	0.72381	0.956	-0.003
Mof_C 	C 	0.0783	0.73871	0.9734	-0.176
Mof_H 	H 	0.0923	0.7459	0.9868	0.1
Mof_C 	C 	0.12694	0.72009	0.9587	0.294
Mof_Mn	Mn	0.17851	0.8355	0.13902	0.824
Mof_Mn	Mn	0.11529	0.86002	0.17152	0.921
Mof_Mn	Mn	0.04573	0.86006	0.20752	0.736
Mof_O 	O 	0.1254	0.78859	0.1195	-0.365
Mof_O 	O 	0.10863	0.81845	0.14353	-0.407
Mof_O 	O 	0.95775	0.72498	0.14963	-0.314
Mof_O 	O 	0.85818	0.65512	0.23174	-0.314
Mof_O 	O 	0.8457	0.68697	0.31146	-0.374
Mof_O 	O 	0.8227	0.62974	0.32963	-0.389
Mof_O 	O 	0.8092	0.74489	0.16341	-0.286
Mof_O 	O 	0.7513	0.83464	0.159	-0.369
Mof_O 	O 	0.69241	0.79616	0.1435	-0.41
Mof_O 	O 	0.07078	0.8689	0.1525	-0.38
Mof_O 	O 	0.02978	0.87445	0.17509	-0.384
Mof_O 	O 	0.99084	0.82461	0.08065	-0.298
Mof_O 	O 	0.92556	0.64355	0.0551	-0.292
Mof_O 	O 	0.77907	0.55679	0.0376	-0.397
Mof_O 	O 	0.76463	0.49725	0.04744	-0.307
Mof_O 	O 	0.02992	0.75721	0.9867	-0.293
Mof_O 	O 	0.14288	0.72572	0.97737	-0.376
Mof_O 	O 	0.14071	0.71137	0.94167	-0.355
Mof_O 	O 	0.2269	0.8301	0.1287	-0.226
Mof_O 	O 	0.2353	0.8354	0.1316	-0.224
Mof_H 	H 	0.2298	0.8088	0.1291	-0.334
Mof_H 	H 	0.2486	0.8514	0.1188	0.334
Mof_H 	H 	0.2572	0.8621	0.1325	-0.011
Mof_H 	H 	0.2383	0.8194	0.1428	0.307
Mof_H 	H 	0.2188	0.8028	0.1259	0.432
Mof_H 	H 	0.2367	0.845	0.1151	-0.203
Mof_H 	H 	0.2498	0.8562	0.1279	0.011
Mof_H 	H 	0.232	0.814	0.1387	-0.114
Mof_C 	C 	0.76513	0.12463	0.46337	0.33
Mof_C 	C 	0.72346	0.0945	0.45994	0.009
Mof_C 	C 	0.71358	0.06231	0.44557	-0.133
Mof_H 	H 	0.73337	0.06253	0.43663	0.086
Mof_C 	C 	0.67587	0.03086	0.44442	0.115
Mof_H 	H 	0.66977	0.00963	0.43483	-0.006
Mof_C 	C 	0.64753	0.03063	0.45717	-0.262
Mof_H 	H 	0.62177	0.00893	0.45653	0.11
Mof_C 	C 	0.65583	0.06261	0.47167	0.267
Mof_C 	C 	0.69397	0.09447	0.47301	-0.209
Mof_H 	H 	0.69987	0.11573	0.48253	0.116
Mof_C 	C 	0.62862	0.08874	0.49847	0.249
Mof_H 	H 	0.63677	0.11363	0.49063	-0.047
Mof_H 	H 	0.64867	0.09333	0.50963	-0.05
Mof_C 	C 	0.58815	0.07375	0.50944	-0.419
Mof_C 	C 	0.55686	0.07164	0.49702	0.484
Mof_C 	C 	0.51926	0.05308	0.50624	-0.404
Mof_C 	C 	0.51324	0.04043	0.5284	0.51
Mof_C 	C 	0.54528	0.04403	0.54062	-0.405
Mof_C 	C 	0.58364	0.05932	0.53047	0.488
Mof_C 	C 	0.61676	0.05897	0.54375	-1.024
Mof_H 	H 	0.63267	0.05273	0.53403	0.34
Mof_H 	H 	0.60537	0.03923	0.55533	0.344
Mof_H 	H 	0.63337	0.08483	0.55033	0.332
Mof_C 	C 	0.56299	0.08972	0.47363	-0.995
Mof_H 	H 	0.58587	0.11613	0.47363	0.33
Mof_H 	H 	0.53977	0.09103	0.46933	0.335
Mof_H 	H 	0.56717	0.07333	0.46323	0.314
Mof_C 	C 	0.47253	0.02235	0.53854	-1.057
Mof_H 	H 	0.45667	0.03063	0.53023	0.355
Mof_H 	H 	0.47467	0.03103	0.55373	0.344
Mof_H 	H 	0.46007	0.99373	0.53813	0.339
Mof_C 	C 	0.48359	0.04592	0.49268	0.227
Mof_H 	H 	0.48877	0.04473	0.47693	-0.036
Mof_H 	H 	0.46057	0.02073	0.49693	-0.037
Mof_C 	C 	0.44292	0.07457	0.48619	0.229
Mof_C 	C 	0.41758	0.04221	0.47289	-0.223
Mof_H 	H 	0.42297	0.02163	0.47043	0.111
Mof_C 	C 	0.3841	0.04059	0.46322	0.068
Mof_H 	H 	0.36717	0.01893	0.45433	-0.005
Mof_C 	C 	0.37595	0.07133	0.46686	-0.107
Mof_H 	H 	0.35357	0.07023	0.46043	0.064
Mof_C 	C 	0.4013	0.1037	0.48016	-0.022
Mof_C 	C 	0.43478	0.10532	0.48983	-0.165
Mof_H 	H 	0.45167	0.12693	0.49873	0.112
Mof_C 	C 	0.39261	0.13617	0.48399	0.356
Mof_C 	C 	0.53882	0.02921	0.5646	0.271
Mof_H 	H 	0.56377	0.04313	0.57273	-0.052
Mof_H 	H 	0.51957	0.03473	0.57183	-0.062
Mof_C 	C 	0.51176	0.96878	0.58473	0.254
Mof_C 	C 	0.49732	0.92791	0.58387	-0.238
Mof_H 	H 	0.49727	0.91603	0.57033	0.113
Mof_C 	C 	0.48313	0.9049	0.60279	0.087
Mof_H 	H 	0.47277	0.87743	0.60203	-0.006
Mof_C 	C 	0.48431	0.92299	0.62327	-0.115
Mof_H 	H 	0.47577	0.90773	0.63623	0.074
Mof_C 	C 	0.49811	0.96344	0.62411	0.008
Mof_C 	C 	0.5127	0.98605	0.60469	-0.208
Mof_H 	H 	0.52327	0.01353	0.60543	0.114
Mof_C 	C 	0.49994	0.98355	0.64578	0.34
Mof_C 	C 	0.70758	0.20339	0.48991	0.381
Mof_C 	C 	0.68141	0.19966	0.47072	-0.017
Mof_C 	C 	0.65388	0.21271	0.47233	-0.097
Mof_H 	H 	0.65257	0.22533	0.48533	0.071
Mof_C 	C 	0.62836	0.20698	0.45458	0.058
Mof_H 	H 	0.60997	0.21573	0.45563	0.007
Mof_C 	C 	0.63036	0.18819	0.43521	-0.214
Mof_H 	H 	0.61327	0.18433	0.42333	0.11
Mof_C 	C 	0.65789	0.17514	0.4336	0.229
Mof_C 	C 	0.68341	0.18087	0.45136	-0.176
Mof_H 	H 	0.70177	0.17213	0.45033	0.104
Mof_C 	C 	0.67833	0.13665	0.41396	0.238
Mof_H 	H 	0.67337	0.12183	0.42783	-0.043
Mof_H 	H 	0.70677	0.15503	0.41273	-0.044
Mof_C 	C 	0.66393	0.10784	0.39412	-0.401
Mof_C 	C 	0.62823	0.07249	0.39541	0.543
Mof_C 	C 	0.61858	0.04388	0.3781	-0.413
Mof_C 	C 	0.64523	0.05116	0.36128	0.48
Mof_C 	C 	0.68048	0.08802	0.35929	-0.393
Mof_C 	C 	0.68924	0.11781	0.37492	0.461
Mof_C 	C 	0.72545	0.1589	0.37274	-0.969
Mof_H 	H 	0.71997	0.17823	0.37943	0.316
Mof_H 	H 	0.73167	0.16513	0.35723	0.315
Mof_H 	H 	0.74767	0.15943	0.38023	0.306
Mof_C 	C 	0.60109	0.0627	0.41427	-1.135
Mof_H 	H 	0.60397	0.04463	0.42413	0.363
Mof_H 	H 	0.57407	0.05033	0.40893	0.37
Mof_H 	H 	0.60737	0.08673	0.42223	0.371
Mof_C 	C 	0.63591	0.01763	0.34444	-0.999
Mof_H 	H 	0.62907	0.99343	0.35233	0.344
Mof_H 	H 	0.65897	0.02503	0.33523	0.34
Mof_H 	H 	0.61387	0.01353	0.33523	0.337
Mof_C 	C 	0.58043	0.005	0.37947	0.245
Mof_H 	H 	0.56167	0.00703	0.38933	-0.053
Mof_H 	H 	0.56827	0.99653	0.36483	-0.042
Mof_C 	C 	0.56537	0.93814	0.38609	0.24
Mof_C 	C 	0.57987	0.91215	0.38967	-0.217
Mof_H 	H 	0.60697	0.92223	0.39243	0.107
Mof_C 	C 	0.55396	0.8711	0.38909	0.08
Mof_H 	H 	0.56367	0.85373	0.39153	-0.002
Mof_C 	C 	0.51354	0.85604	0.38494	-0.108
Mof_H 	H 	0.49617	0.82853	0.38453	0.079
Mof_C 	C 	0.49902	0.88202	0.38137	0.001
Mof_C 	C 	0.52493	0.92307	0.38195	-0.183
Mof_H 	H 	0.51517	0.94043	0.37953	0.106
Mof_C 	C 	0.45698	0.86603	0.37726	0.305
Mof_C 	C 	0.71008	0.09181	0.34204	0.251
Mof_H 	H 	0.73467	0.11683	0.34423	-0.041
Mof_H 	H 	0.71587	0.07033	0.34403	-0.047
Mof_C 	C 	0.71146	0.07614	0.30408	0.225
Mof_C 	C 	0.69054	0.06536	0.28402	-0.206
Mof_H 	H 	0.66817	0.06813	0.28223	0.104
Mof_C 	C 	0.7031	0.05046	0.26662	0.066
Mof_H 	H 	0.68907	0.04323	0.25323	-0
Mof_C 	C 	0.73661	0.04636	0.26927	-0.108
Mof_H 	H 	0.74507	0.03643	0.25763	0.06
Mof_C 	C 	0.75753	0.05714	0.28933	-0.003
Mof_C 	C 	0.74497	0.07204	0.30673	-0.176
Mof_H 	H 	0.75897	0.07923	0.32013	0.1
Mof_C 	C 	0.79361	0.05342	0.29203	0.294
Mof_Mn	Mn	0.84518	0.16883	0.47235	0.824
Mof_Mn	Mn	0.78196	0.19335	0.50485	0.921
Mof_Mn	Mn	0.71239	0.19339	0.54085	0.736
Mof_O 	O 	0.79207	0.12192	0.45283	-0.365
Mof_O 	O 	0.7753	0.15178	0.47686	-0.407
Mof_O 	O 	0.62442	0.05831	0.48296	-0.314
Mof_O 	O 	0.52485	0.98845	0.56507	-0.314
Mof_O 	O 	0.51237	0.0203	0.64479	-0.374
Mof_O 	O 	0.48937	0.96307	0.66296	-0.389
Mof_O 	O 	0.47587	0.07822	0.49674	-0.286
Mof_O 	O 	0.41797	0.16797	0.49233	-0.369
Mof_O 	O 	0.35908	0.12949	0.47683	-0.41
Mof_O 	O 	0.73745	0.20223	0.48583	-0.38
Mof_O 	O 	0.69645	0.20778	0.50842	-0.384
Mof_O 	O 	0.65751	0.15794	0.41398	-0.298
Mof_O 	O 	0.59223	0.97688	0.38843	-0.292
Mof_O 	O 	0.44574	0.89012	0.37093	-0.397
Mof_O 	O 	0.4313	0.83058	0.38077	-0.307
Mof_O 	O 	0.69659	0.09054	0.32003	-0.293
Mof_O 	O 	0.80955	0.05905	0.3107	-0.376
Mof_O 	O 	0.80738	0.0447	0.275	-0.355
Mof_O 	O 	0.89357	0.16343	0.46203	-0.226
Mof_O 	O 	0.90197	0.16873	0.46493	-0.224
Mof_H 	H 	0.89647	0.14213	0.46243	-0.334
Mof_H 	H 	0.91527	0.18473	0.45213	0.334
Mof_H 	H 	0.92387	0.19543	0.46583	-0.011
Mof_H 	H 	0.90497	0.15273	0.47613	0.307
Mof_H 	H 	0.88547	0.13613	0.45923	0.432
Mof_H 	H 	0.90337	0.17833	0.44843	-0.203
Mof_H 	H 	0.91647	0.18953	0.46123	0.011
Mof_H 	H 	0.89867	0.14733	0.47203	-0.114
Mof_C 	C 	0.43179	0.45797	0.79671	0.33
Mof_C 	C 	0.39012	0.42784	0.79328	0.009
Mof_C 	C 	0.38024	0.39565	0.77891	-0.133
Mof_H 	H 	0.40003	0.39587	0.76997	0.086
Mof_C 	C 	0.34253	0.3642	0.77776	0.115
Mof_H 	H 	0.33643	0.34297	0.76817	-0.006
Mof_C 	C 	0.31419	0.36397	0.79051	-0.262
Mof_H 	H 	0.28843	0.34227	0.78987	0.11
Mof_C 	C 	0.32249	0.39595	0.80501	0.267
Mof_C 	C 	0.36063	0.42781	0.80635	-0.209
Mof_H 	H 	0.36653	0.44907	0.81587	0.116
Mof_C 	C 	0.29528	0.42208	0.83181	0.249
Mof_H 	H 	0.30343	0.44697	0.82397	-0.047
Mof_H 	H 	0.31533	0.42667	0.84297	-0.05
Mof_C 	C 	0.25481	0.40709	0.84278	-0.419
Mof_C 	C 	0.22352	0.40498	0.83036	0.484
Mof_C 	C 	0.18592	0.38642	0.83958	-0.404
Mof_C 	C 	0.1799	0.37377	0.86174	0.51
Mof_C 	C 	0.21194	0.37737	0.87396	-0.405
Mof_C 	C 	0.2503	0.39266	0.86381	0.488
Mof_C 	C 	0.28342	0.39231	0.87709	-1.024
Mof_H 	H 	0.29933	0.38607	0.86737	0.34
Mof_H 	H 	0.27203	0.37257	0.88867	0.344
Mof_H 	H 	0.30003	0.41817	0.88367	0.332
Mof_C 	C 	0.22965	0.42306	0.80697	-0.995
Mof_H 	H 	0.25253	0.44947	0.80697	0.33
Mof_H 	H 	0.20643	0.42437	0.80267	0.335
Mof_H 	H 	0.23383	0.40667	0.79657	0.314
Mof_C 	C 	0.13919	0.35569	0.87188	-1.057
Mof_H 	H 	0.12333	0.36397	0.86357	0.355
Mof_H 	H 	0.14133	0.36437	0.88707	0.344
Mof_H 	H 	0.12673	0.32707	0.87147	0.339
Mof_C 	C 	0.15025	0.37926	0.82602	0.227
Mof_H 	H 	0.15543	0.37807	0.81027	-0.036
Mof_H 	H 	0.12723	0.35407	0.83027	-0.037
Mof_C 	C 	0.10958	0.40791	0.81953	0.229
Mof_C 	C 	0.08424	0.37555	0.80623	-0.223
Mof_H 	H 	0.08963	0.35497	0.80377	0.111
Mof_C 	C 	0.05076	0.37393	0.79656	0.068
Mof_H 	H 	0.03383	0.35227	0.78767	-0.005
Mof_C 	C 	0.04261	0.40467	0.8002	-0.107
Mof_H 	H 	0.02023	0.40357	0.79377	0.064
Mof_C 	C 	0.06796	0.43704	0.8135	-0.022
Mof_C 	C 	0.10144	0.43866	0.82317	-0.165
Mof_H 	H 	0.11833	0.46027	0.83207	0.112
Mof_C 	C 	0.05927	0.46951	0.81733	0.356
Mof_C 	C 	0.20548	0.36255	0.89794	0.271
Mof_H 	H 	0.23043	0.37647	0.90607	-0.051
Mof_H 	H 	0.18623	0.36807	0.90517	-0.062
Mof_C 	C 	0.17842	0.30212	0.91807	0.254
Mof_C 	C 	0.16398	0.26125	0.91721	-0.238
Mof_H 	H 	0.16393	0.24937	0.90367	0.113
Mof_C 	C 	0.14979	0.23824	0.93613	0.087
Mof_H 	H 	0.13943	0.21077	0.93537	-0.006
Mof_C 	C 	0.15097	0.25633	0.95661	-0.115
Mof_H 	H 	0.14243	0.24107	0.96957	0.074
Mof_C 	C 	0.16477	0.29678	0.95745	0.008
Mof_C 	C 	0.17936	0.31939	0.93803	-0.208
Mof_H 	H 	0.18993	0.34687	0.93877	0.114
Mof_C 	C 	0.1666	0.31689	0.97912	0.34
Mof_C 	C 	0.37424	0.53673	0.82325	0.381
Mof_C 	C 	0.34807	0.533	0.80406	-0.017
Mof_C 	C 	0.32054	0.54605	0.80567	-0.097
Mof_H 	H 	0.31923	0.55867	0.81867	0.071
Mof_C 	C 	0.29502	0.54032	0.78792	0.058
Mof_H 	H 	0.27663	0.54907	0.78897	0.007
Mof_C 	C 	0.29702	0.52153	0.76855	-0.214
Mof_H 	H 	0.27993	0.51767	0.75667	0.11
Mof_C 	C 	0.32455	0.50848	0.76694	0.229
Mof_C 	C 	0.35007	0.51421	0.7847	-0.176
Mof_H 	H 	0.36843	0.50547	0.78367	0.104
Mof_C 	C 	0.34499	0.46999	0.7473	0.238
Mof_H 	H 	0.34003	0.45517	0.76117	-0.043
Mof_H 	H 	0.37343	0.48837	0.74607	-0.044
Mof_C 	C 	0.33059	0.44118	0.72746	-0.401
Mof_C 	C 	0.29489	0.40583	0.72875	0.543
Mof_C 	C 	0.28524	0.37722	0.71144	-0.413
Mof_C 	C 	0.31189	0.3845	0.69462	0.48
Mof_C 	C 	0.34714	0.42136	0.69263	-0.393
Mof_C 	C 	0.3559	0.45115	0.70826	0.461
Mof_C 	C 	0.39211	0.49224	0.70608	-0.969
Mof_H 	H 	0.38663	0.51157	0.71277	0.316
Mof_H 	H 	0.39833	0.49847	0.69057	0.315
Mof_H 	H 	0.41433	0.49277	0.71357	0.306
Mof_C 	C 	0.26775	0.39604	0.74761	-1.135
Mof_H 	H 	0.27063	0.37797	0.75747	0.363
Mof_H 	H 	0.24073	0.38367	0.74227	0.37
Mof_H 	H 	0.27403	0.42007	0.75557	0.371
Mof_C 	C 	0.30257	0.35097	0.67778	-0.999
Mof_H 	H 	0.29573	0.32677	0.68567	0.344
Mof_H 	H 	0.32563	0.35837	0.66857	0.34
Mof_H 	H 	0.28053	0.34687	0.66857	0.337
Mof_C 	C 	0.24709	0.33834	0.71281	0.245
Mof_H 	H 	0.22833	0.34037	0.72267	-0.053
Mof_H 	H 	0.23493	0.32987	0.69817	-0.041
Mof_C 	C 	0.23203	0.27148	0.71943	0.24
Mof_C 	C 	0.24653	0.24549	0.72301	-0.217
Mof_H 	H 	0.27363	0.25557	0.72577	0.107
Mof_C 	C 	0.22062	0.20444	0.72243	0.08
Mof_H 	H 	0.23033	0.18707	0.72487	-0.002
Mof_C 	C 	0.1802	0.18938	0.71828	-0.108
Mof_H 	H 	0.16283	0.16187	0.71787	0.079
Mof_C 	C 	0.16568	0.21536	0.71471	0.001
Mof_C 	C 	0.19159	0.25641	0.71529	-0.183
Mof_H 	H 	0.18183	0.27377	0.71287	0.106
Mof_C 	C 	0.12364	0.19937	0.7106	0.305
Mof_C 	C 	0.37674	0.42515	0.67538	0.251
Mof_H 	H 	0.40133	0.45017	0.67757	-0.041
Mof_H 	H 	0.38253	0.40367	0.67737	-0.047
Mof_C 	C 	0.37812	0.40948	0.63742	0.225
Mof_C 	C 	0.3572	0.3987	0.61736	-0.206
Mof_H 	H 	0.33483	0.40147	0.61557	0.104
Mof_C 	C 	0.36976	0.3838	0.59996	0.066
Mof_H 	H 	0.35573	0.37657	0.58657	-0
Mof_C 	C 	0.40327	0.3797	0.60261	-0.108
Mof_H 	H 	0.41173	0.36977	0.59097	0.06
Mof_C 	C 	0.42419	0.39048	0.62267	-0.003
Mof_C 	C 	0.41163	0.40538	0.64007	-0.176
Mof_H 	H 	0.42563	0.41257	0.65347	0.1
Mof_C 	C 	0.46027	0.38676	0.62537	0.294
Mof_Mn	Mn	0.51185	0.50216	0.80569	0.824
Mof_Mn	Mn	0.44863	0.52669	0.83818	0.921
Mof_Mn	Mn	0.37906	0.52672	0.87418	0.736
Mof_O 	O 	0.45873	0.45526	0.78617	-0.365
Mof_O 	O 	0.44196	0.48512	0.8102	-0.407
Mof_O 	O 	0.29108	0.39165	0.8163	-0.314
Mof_O 	O 	0.19151	0.32179	0.89841	-0.314
Mof_O 	O 	0.17903	0.35364	0.97813	-0.374
Mof_O 	O 	0.15603	0.29641	0.9963	-0.389
Mof_O 	O 	0.14253	0.41156	0.83008	-0.286
Mof_O 	O 	0.08463	0.50131	0.82567	-0.369
Mof_O 	O 	0.02574	0.46283	0.81017	-0.41
Mof_O 	O 	0.40411	0.53557	0.81917	-0.38
Mof_O 	O 	0.36311	0.54112	0.84176	-0.384
Mof_O 	O 	0.32417	0.49128	0.74732	-0.298
Mof_O 	O 	0.25889	0.31022	0.72177	-0.292
Mof_O 	O 	0.1124	0.22346	0.70427	-0.397
Mof_O 	O 	0.09796	0.16392	0.71411	-0.307
Mof_O 	O 	0.36325	0.42388	0.65337	-0.293
Mof_O 	O 	0.47621	0.39239	0.64404	-0.376
Mof_O 	O 	0.47404	0.37804	0.60834	-0.355
Mof_O 	O 	0.56023	0.49677	0.79537	-0.226
Mof_O 	O 	0.56863	0.50207	0.79827	-0.224
Mof_H 	H 	0.56313	0.47547	0.79577	-0.335
Mof_H 	H 	0.58193	0.51807	0.78547	0.334
Mof_H 	H 	0.59053	0.52877	0.79917	-0.011
Mof_H 	H 	0.57163	0.48607	0.80947	0.307
Mof_H 	H 	0.55213	0.46947	0.79257	0.432
Mof_H 	H 	0.57003	0.51167	0.78177	-0.203
Mof_H 	H 	0.58313	0.52287	0.79457	0.011
Mof_H 	H 	0.56533	0.48067	0.80537	-0.114
Mof_C 	C 	0.69284	0.90154	0.13004	0.33
Mof_C 	C 	0.70438	0.94321	0.12661	0.009
Mof_C 	C 	0.68207	0.95309	0.11224	-0.133
Mof_H 	H 	0.6625	0.9333	0.1033	0.086
Mof_C 	C 	0.68833	0.9908	0.11109	0.115
Mof_H 	H 	0.6732	0.9969	0.1015	-0.006
Mof_C 	C 	0.71644	0.01914	0.12384	-0.262
Mof_H 	H 	0.7205	0.0449	0.1232	0.11
Mof_C 	C 	0.74012	0.01084	0.13834	0.267
Mof_C 	C 	0.73384	0.9727	0.13968	-0.209
Mof_H 	H 	0.7492	0.9668	0.1492	0.116
Mof_C 	C 	0.79346	0.03805	0.16514	0.249
Mof_H 	H 	0.8102	0.0299	0.1573	-0.047
Mof_H 	H 	0.778	0.018	0.1763	-0.05
Mof_C 	C 	0.81894	0.07852	0.17611	-0.419
Mof_C 	C 	0.84812	0.10981	0.16369	0.484
Mof_C 	C 	0.86716	0.14741	0.17291	-0.404
Mof_C 	C 	0.86053	0.15343	0.19507	0.51
Mof_C 	C 	0.83209	0.12139	0.20729	-0.405
Mof_C 	C 	0.80902	0.08303	0.19714	0.488
Mof_C 	C 	0.77555	0.04991	0.21042	-1.024
Mof_H 	H 	0.7534	0.034	0.2007	0.34
Mof_H 	H 	0.7672	0.0613	0.222	0.344
Mof_H 	H 	0.7848	0.0333	0.217	0.332
Mof_C 	C 	0.86007	0.10368	0.1403	-0.995
Mof_H 	H 	0.8636	0.0808	0.1403	0.33
Mof_H 	H 	0.8846	0.1269	0.136	0.335
Mof_H 	H 	0.8395	0.0995	0.1299	0.314
Mof_C 	C 	0.88316	0.19414	0.20521	-1.057
Mof_H 	H 	0.9073	0.21	0.1969	0.355
Mof_H 	H 	0.8897	0.192	0.2204	0.344
Mof_H 	H 	0.867	0.2066	0.2048	0.339
Mof_C 	C 	0.89567	0.18308	0.15935	0.227
Mof_H 	H 	0.8893	0.1779	0.1436	-0.036
Mof_H 	H 	0.8935	0.2061	0.1636	-0.037
Mof_C 	C 	0.96499	0.22375	0.15286	0.229
Mof_C 	C 	0.95797	0.24909	0.13956	-0.223
Mof_H 	H 	0.932	0.2437	0.1371	0.111
Mof_C 	C 	0.98983	0.28257	0.12989	0.068
Mof_H 	H 	0.9851	0.2995	0.121	-0.005
Mof_C 	C 	0.02872	0.29072	0.13353	-0.107
Mof_H 	H 	0.05	0.3131	0.1271	0.064
Mof_C 	C 	0.03574	0.26537	0.14683	-0.022
Mof_C 	C 	0.00388	0.23189	0.1565	-0.165
Mof_H 	H 	0.0086	0.215	0.1654	0.112
Mof_C 	C 	0.0769	0.27406	0.15066	0.356
Mof_C 	C 	0.82373	0.12785	0.23127	0.271
Mof_H 	H 	0.8127	0.1029	0.2394	-0.051
Mof_H 	H 	0.8485	0.1471	0.2385	-0.062
Mof_C 	C 	0.79036	0.15491	0.2514	0.254
Mof_C 	C 	0.76393	0.16935	0.25054	-0.238
Mof_H 	H 	0.7521	0.1694	0.237	0.113
Mof_C 	C 	0.75511	0.18354	0.26946	0.087
Mof_H 	H 	0.738	0.1939	0.2687	-0.006
Mof_C 	C 	0.77202	0.18236	0.28994	-0.115
Mof_H 	H 	0.7653	0.1909	0.3029	0.074
Mof_C 	C 	0.79867	0.16856	0.29078	0.008
Mof_C 	C 	0.80669	0.15397	0.27136	-0.208
Mof_H 	H 	0.8236	0.1434	0.2721	0.114
Mof_C 	C 	0.81695	0.16673	0.31245	0.34
Mof_C 	C 	0.82915	0.95909	0.15658	0.381
Mof_C 	C 	0.85159	0.98526	0.13739	-0.017
Mof_C 	C 	0.89217	0.01279	0.139	-0.097
Mof_H 	H 	0.9061	0.0141	0.152	0.071
Mof_C 	C 	0.91196	0.03831	0.12125	0.058
Mof_H 	H 	0.9391	0.0567	0.1223	0.007
Mof_C 	C 	0.89117	0.03631	0.10188	-0.214
Mof_H 	H 	0.9044	0.0534	0.09	0.11
Mof_C 	C 	0.85059	0.00878	0.10027	0.229
Mof_C 	C 	0.8308	0.98326	0.11803	-0.176
Mof_H 	H 	0.8037	0.9649	0.117	0.104
Mof_C 	C 	0.79166	0.98834	0.08063	0.238
Mof_H 	H 	0.7818	0.9933	0.0945	-0.043
Mof_H 	H 	0.7816	0.9599	0.0794	-0.044
Mof_C 	C 	0.77725	0.00274	0.06079	-0.401
Mof_C 	C 	0.7776	0.03844	0.06208	0.543
Mof_C 	C 	0.75864	0.04809	0.04477	-0.413
Mof_C 	C 	0.73927	0.02144	0.02795	0.48
Mof_C 	C 	0.74088	0.98619	0.02596	-0.393
Mof_C 	C 	0.76191	0.97743	0.04159	0.461
Mof_C 	C 	0.76679	0.94122	0.03941	-0.969
Mof_H 	H 	0.7916	0.9467	0.0461	0.316
Mof_H 	H 	0.7668	0.935	0.0239	0.315
Mof_H 	H 	0.7451	0.919	0.0469	0.306
Mof_C 	C 	0.79495	0.06558	0.08094	-1.135
Mof_H 	H 	0.774	0.0627	0.0908	0.363
Mof_H 	H 	0.8096	0.0926	0.0756	0.37
Mof_H 	H 	0.8127	0.0593	0.0889	0.371
Mof_C 	C 	0.71506	0.03076	0.01111	-0.999
Mof_H 	H 	0.6977	0.0376	0.019	0.344
Mof_H 	H 	0.6994	0.0077	0.0019	0.34
Mof_H 	H 	0.733	0.0528	0.0019	0.337
Mof_C 	C 	0.75791	0.08624	0.04614	0.245
Mof_H 	H 	0.7787	0.105	0.056	-0.053
Mof_H 	H 	0.7616	0.0984	0.0315	-0.041
Mof_C 	C 	0.70611	0.1013	0.05276	0.24
Mof_C 	C 	0.66562	0.0868	0.05634	-0.217
Mof_H 	H 	0.6486	0.0597	0.0591	0.107
Mof_C 	C 	0.65048	0.11271	0.05576	0.08
Mof_H 	H 	0.6234	0.103	0.0582	-0.002
Mof_C 	C 	0.67584	0.15313	0.05161	-0.108
Mof_H 	H 	0.6657	0.1705	0.0512	0.079
Mof_C 	C 	0.71634	0.16765	0.04804	0.001
Mof_C 	C 	0.73148	0.14174	0.04862	-0.183
Mof_H 	H 	0.7586	0.1515	0.0462	0.106
Mof_C 	C 	0.74239	0.20969	0.04393	0.305
Mof_C 	C 	0.71507	0.95659	0.00871	0.251
Mof_H 	H 	0.7155	0.932	0.0109	-0.041
Mof_H 	H 	0.6878	0.9508	0.0107	-0.047
Mof_C 	C 	0.69802	0.95521	0.97075	0.225
Mof_C 	C 	0.70816	0.97613	0.95069	-0.206
Mof_H 	H 	0.7333	0.9985	0.9489	0.104
Mof_C 	C 	0.6807	0.96357	0.93329	0.066
Mof_H 	H 	0.6875	0.9776	0.9199	-0
Mof_C 	C 	0.64309	0.93006	0.93594	-0.108
Mof_H 	H 	0.6247	0.9216	0.9243	0.06
Mof_C 	C 	0.63295	0.90914	0.956	-0.003
Mof_C 	C 	0.66041	0.9217	0.9734	-0.176
Mof_H 	H 	0.6536	0.9077	0.9868	0.1
Mof_C 	C 	0.59315	0.87306	0.9587	0.294
Mof_Mn	Mn	0.65698	0.82149	0.13902	0.824
Mof_Mn	Mn	0.74473	0.88471	0.17152	0.921
Mof_Mn	Mn	0.81433	0.95427	0.20752	0.736
Mof_O 	O 	0.66319	0.8746	0.1195	-0.365
Mof_O 	O 	0.70982	0.89137	0.14353	-0.407
Mof_O 	O 	0.76723	0.04225	0.14963	-0.314
Mof_O 	O 	0.79694	0.14182	0.23174	-0.314
Mof_O 	O 	0.84127	0.1543	0.31146	-0.374
Mof_O 	O 	0.80704	0.1773	0.32963	-0.389
Mof_O 	O 	0.93569	0.1908	0.16341	-0.286
Mof_O 	O 	0.08334	0.2487	0.159	-0.369
Mof_O 	O 	0.10375	0.30759	0.1435	-0.41
Mof_O 	O 	0.79812	0.92922	0.1525	-0.38
Mof_O 	O 	0.84467	0.97022	0.17509	-0.384
Mof_O 	O 	0.83377	0.00916	0.08065	-0.298
Mof_O 	O 	0.71799	0.07444	0.0551	-0.292
Mof_O 	O 	0.77772	0.22093	0.0376	-0.397
Mof_O 	O 	0.73262	0.23537	0.04744	-0.307
Mof_O 	O 	0.72729	0.97008	0.9867	-0.293
Mof_O 	O 	0.58284	0.85712	0.97737	-0.376
Mof_O 	O 	0.57066	0.85929	0.94167	-0.355
Mof_O 	O 	0.6032	0.7731	0.1287	-0.226
Mof_O 	O 	0.6001	0.7647	0.1316	-0.224
Mof_H 	H 	0.579	0.7702	0.1291	-0.334
Mof_H 	H 	0.6028	0.7514	0.1188	0.334
Mof_H 	H 	0.6049	0.7428	0.1325	-0.011
Mof_H 	H 	0.5811	0.7617	0.1428	0.307
Mof_H 	H 	0.584	0.7812	0.1259	0.432
Mof_H 	H 	0.6083	0.7633	0.1151	-0.203
Mof_H 	H 	0.6064	0.7502	0.1279	0.011
Mof_H 	H 	0.582	0.768	0.1387	-0.114
Mof_C 	C 	0.35951	0.23487	0.46337	0.33
Mof_C 	C 	0.37105	0.27654	0.45994	0.009
Mof_C 	C 	0.34874	0.28642	0.44557	-0.133
Mof_H 	H 	0.32917	0.26663	0.43663	0.086
Mof_C 	C 	0.355	0.32413	0.44442	0.115
Mof_H 	H 	0.33987	0.33023	0.43483	-0.006
Mof_C 	C 	0.38311	0.35247	0.45717	-0.262
Mof_H 	H 	0.38717	0.37823	0.45653	0.11
Mof_C 	C 	0.40679	0.34417	0.47167	0.267
Mof_C 	C 	0.40051	0.30603	0.47301	-0.209
Mof_H 	H 	0.41587	0.30013	0.48253	0.116
Mof_C 	C 	0.46013	0.37138	0.49847	0.249
Mof_H 	H 	0.47687	0.36323	0.49063	-0.047
Mof_H 	H 	0.44467	0.35133	0.50963	-0.05
Mof_C 	C 	0.48561	0.41185	0.50944	-0.419
Mof_C 	C 	0.51479	0.44314	0.49702	0.484
Mof_C 	C 	0.53383	0.48074	0.50624	-0.404
Mof_C 	C 	0.5272	0.48676	0.5284	0.51
Mof_C 	C 	0.49876	0.45472	0.54062	-0.405
Mof_C 	C 	0.47569	0.41636	0.53047	0.488
Mof_C 	C 	0.44222	0.38324	0.54375	-1.024
Mof_H 	H 	0.42007	0.36733	0.53403	0.34
Mof_H 	H 	0.43387	0.39463	0.55533	0.344
Mof_H 	H 	0.45147	0.36663	0.55033	0.332
Mof_C 	C 	0.52674	0.43701	0.47363	-0.995
Mof_H 	H 	0.53027	0.41413	0.47363	0.33
Mof_H 	H 	0.55127	0.46023	0.46933	0.335
Mof_H 	H 	0.50617	0.43283	0.46323	0.314
Mof_C 	C 	0.54983	0.52747	0.53854	-1.057
Mof_H 	H 	0.57397	0.54333	0.53023	0.355
Mof_H 	H 	0.55637	0.52533	0.55373	0.344
Mof_H 	H 	0.53367	0.53993	0.53813	0.339
Mof_C 	C 	0.56234	0.51641	0.49268	0.227
Mof_H 	H 	0.55597	0.51123	0.47693	-0.036
Mof_H 	H 	0.56017	0.53943	0.49693	-0.037
Mof_C 	C 	0.63166	0.55708	0.48619	0.229
Mof_C 	C 	0.62464	0.58242	0.47289	-0.223
Mof_H 	H 	0.59867	0.57703	0.47043	0.111
Mof_C 	C 	0.6565	0.6159	0.46322	0.068
Mof_H 	H 	0.65177	0.63283	0.45433	-0.005
Mof_C 	C 	0.69539	0.62405	0.46686	-0.107
Mof_H 	H 	0.71667	0.64643	0.46043	0.064
Mof_C 	C 	0.70241	0.5987	0.48016	-0.022
Mof_C 	C 	0.67055	0.56522	0.48983	-0.165
Mof_H 	H 	0.67527	0.54833	0.49873	0.112
Mof_C 	C 	0.74357	0.60739	0.48399	0.356
Mof_C 	C 	0.4904	0.46118	0.5646	0.271
Mof_H 	H 	0.47937	0.43623	0.57273	-0.052
Mof_H 	H 	0.51517	0.48043	0.57183	-0.062
Mof_C 	C 	0.45703	0.48824	0.58473	0.254
Mof_C 	C 	0.4306	0.50268	0.58387	-0.238
Mof_H 	H 	0.41877	0.50273	0.57033	0.113
Mof_C 	C 	0.42178	0.51687	0.60279	0.087
Mof_H 	H 	0.40467	0.52723	0.60203	-0.006
Mof_C 	C 	0.43869	0.51569	0.62327	-0.115
Mof_H 	H 	0.43197	0.52423	0.63623	0.074
Mof_C 	C 	0.46534	0.50189	0.62411	0.008
Mof_C 	C 	0.47336	0.4873	0.60469	-0.208
Mof_H 	H 	0.49027	0.47673	0.60543	0.114
Mof_C 	C 	0.48362	0.50006	0.64578	0.34
Mof_C 	C 	0.49582	0.29242	0.48991	0.381
Mof_C 	C 	0.51826	0.31859	0.47072	-0.017
Mof_C 	C 	0.55884	0.34612	0.47233	-0.097
Mof_H 	H 	0.57277	0.34743	0.48533	0.071
Mof_C 	C 	0.57863	0.37164	0.45458	0.058
Mof_H 	H 	0.60577	0.39003	0.45563	0.007
Mof_C 	C 	0.55784	0.36964	0.43521	-0.214
Mof_H 	H 	0.57107	0.38673	0.42333	0.11
Mof_C 	C 	0.51726	0.34211	0.4336	0.229
Mof_C 	C 	0.49747	0.31659	0.45136	-0.176
Mof_H 	H 	0.47037	0.29823	0.45033	0.104
Mof_C 	C 	0.45833	0.32167	0.41396	0.238
Mof_H 	H 	0.44847	0.32663	0.42783	-0.043
Mof_H 	H 	0.44827	0.29323	0.41273	-0.044
Mof_C 	C 	0.44392	0.33607	0.39412	-0.401
Mof_C 	C 	0.44427	0.37177	0.39541	0.543
Mof_C 	C 	0.42531	0.38142	0.3781	-0.413
Mof_C 	C 	0.40594	0.35477	0.36128	0.48
Mof_C 	C 	0.40755	0.31952	0.35929	-0.393
Mof_C 	C 	0.42858	0.31076	0.37492	0.461
Mof_C 	C 	0.43346	0.27455	0.37274	-0.969
Mof_H 	H 	0.45827	0.28003	0.37943	0.316
Mof_H 	H 	0.43347	0.26833	0.35723	0.315
Mof_H 	H 	0.41177	0.25233	0.38023	0.306
Mof_C 	C 	0.46162	0.39891	0.41427	-1.135
Mof_H 	H 	0.44067	0.39603	0.42413	0.363
Mof_H 	H 	0.47627	0.42593	0.40893	0.37
Mof_H 	H 	0.47937	0.39263	0.42223	0.371
Mof_C 	C 	0.38173	0.36409	0.34444	-0.999
Mof_H 	H 	0.36437	0.37093	0.35233	0.344
Mof_H 	H 	0.36607	0.34103	0.33523	0.34
Mof_H 	H 	0.39967	0.38613	0.33523	0.337
Mof_C 	C 	0.42458	0.41957	0.37947	0.245
Mof_H 	H 	0.44537	0.43833	0.38933	-0.053
Mof_H 	H 	0.42827	0.43173	0.36483	-0.041
Mof_C 	C 	0.37278	0.43463	0.38609	0.24
Mof_C 	C 	0.33229	0.42013	0.38967	-0.217
Mof_H 	H 	0.31527	0.39303	0.39243	0.107
Mof_C 	C 	0.31715	0.44604	0.38909	0.08
Mof_H 	H 	0.29007	0.43633	0.39153	-0.002
Mof_C 	C 	0.34251	0.48646	0.38494	-0.108
Mof_H 	H 	0.33237	0.50383	0.38453	0.079
Mof_C 	C 	0.38301	0.50098	0.38137	0.001
Mof_C 	C 	0.39815	0.47507	0.38195	-0.183
Mof_H 	H 	0.42527	0.48483	0.37953	0.106
Mof_C 	C 	0.40906	0.54302	0.37726	0.305
Mof_C 	C 	0.38174	0.28992	0.34204	0.251
Mof_H 	H 	0.38217	0.26533	0.34423	-0.041
Mof_H 	H 	0.35447	0.28413	0.34403	-0.047
Mof_C 	C 	0.36469	0.28854	0.30408	0.225
Mof_C 	C 	0.37483	0.30946	0.28402	-0.206
Mof_H 	H 	0.39997	0.33183	0.28223	0.104
Mof_C 	C 	0.34737	0.2969	0.26662	0.066
Mof_H 	H 	0.35417	0.31093	0.25323	-0
Mof_C 	C 	0.30976	0.26339	0.26927	-0.108
Mof_H 	H 	0.29137	0.25493	0.25763	0.06
Mof_C 	C 	0.29962	0.24247	0.28933	-0.003
Mof_C 	C 	0.32708	0.25503	0.30673	-0.176
Mof_H 	H 	0.32027	0.24103	0.32013	0.1
Mof_C 	C 	0.25982	0.20639	0.29203	0.294
Mof_Mn	Mn	0.32365	0.15482	0.47235	0.824
Mof_Mn	Mn	0.41139	0.21804	0.50485	0.921
Mof_Mn	Mn	0.481	0.28761	0.54085	0.736
Mof_O 	O 	0.32986	0.20793	0.45283	-0.365
Mof_O 	O 	0.37649	0.2247	0.47686	-0.407
Mof_O 	O 	0.4339	0.37558	0.48296	-0.314
Mof_O 	O 	0.46361	0.47515	0.56507	-0.314
Mof_O 	O 	0.50794	0.48763	0.64479	-0.374
Mof_O 	O 	0.47371	0.51063	0.66296	-0.389
Mof_O 	O 	0.60236	0.52413	0.49674	-0.286
Mof_O 	O 	0.75001	0.58203	0.49233	-0.369
Mof_O 	O 	0.77042	0.64092	0.47683	-0.41
Mof_O 	O 	0.46479	0.26255	0.48583	-0.38
Mof_O 	O 	0.51134	0.30355	0.50842	-0.384
Mof_O 	O 	0.50044	0.34249	0.41398	-0.298
Mof_O 	O 	0.38466	0.40777	0.38843	-0.292
Mof_O 	O 	0.44439	0.55426	0.37093	-0.397
Mof_O 	O 	0.39929	0.5687	0.38077	-0.307
Mof_O 	O 	0.39396	0.30341	0.32003	-0.293
Mof_O 	O 	0.24951	0.19045	0.3107	-0.376
Mof_O 	O 	0.23733	0.19262	0.275	-0.355
Mof_O 	O 	0.26987	0.10643	0.46203	-0.226
Mof_O 	O 	0.26677	0.09803	0.46493	-0.224
Mof_H 	H 	0.24567	0.10353	0.46243	-0.334
Mof_H 	H 	0.26947	0.08473	0.45213	0.334
Mof_H 	H 	0.27157	0.07613	0.46583	-0.011
Mof_H 	H 	0.24777	0.09503	0.47613	0.307
Mof_H 	H 	0.25067	0.11453	0.45923	0.432
Mof_H 	H 	0.27497	0.09663	0.44843	-0.203
Mof_H 	H 	0.27307	0.08353	0.46123	0.011
Mof_H 	H 	0.24867	0.10133	0.47203	-0.114
Mof_C 	C 	0.02617	0.56821	0.79671	0.33
Mof_C 	C 	0.03771	0.60988	0.79328	0.009
Mof_C 	C 	0.0154	0.61976	0.77891	-0.133
Mof_H 	H 	0.99583	0.59997	0.76997	0.086
Mof_C 	C 	0.02166	0.65747	0.77776	0.115
Mof_H 	H 	0.00653	0.66357	0.76817	-0.006
Mof_C 	C 	0.04977	0.68581	0.79051	-0.262
Mof_H 	H 	0.05383	0.71157	0.78987	0.11
Mof_C 	C 	0.07345	0.67751	0.80501	0.267
Mof_C 	C 	0.06717	0.63937	0.80635	-0.209
Mof_H 	H 	0.08253	0.63347	0.81587	0.116
Mof_C 	C 	0.12679	0.70472	0.83181	0.249
Mof_H 	H 	0.14353	0.69657	0.82397	-0.047
Mof_H 	H 	0.11133	0.68467	0.84297	-0.05
Mof_C 	C 	0.15227	0.74519	0.84278	-0.419
Mof_C 	C 	0.18145	0.77648	0.83036	0.484
Mof_C 	C 	0.20049	0.81408	0.83958	-0.404
Mof_C 	C 	0.19386	0.8201	0.86174	0.51
Mof_C 	C 	0.16542	0.78806	0.87396	-0.405
Mof_C 	C 	0.14235	0.7497	0.86381	0.488
Mof_C 	C 	0.10888	0.71658	0.87709	-1.024
Mof_H 	H 	0.08673	0.70067	0.86737	0.34
Mof_H 	H 	0.10053	0.72797	0.88867	0.344
Mof_H 	H 	0.11813	0.69997	0.88367	0.332
Mof_C 	C 	0.1934	0.77035	0.80697	-0.995
Mof_H 	H 	0.19693	0.74747	0.80697	0.33
Mof_H 	H 	0.21793	0.79357	0.80267	0.335
Mof_H 	H 	0.17283	0.76617	0.79657	0.314
Mof_C 	C 	0.21649	0.86081	0.87188	-1.057
Mof_H 	H 	0.24063	0.87667	0.86357	0.355
Mof_H 	H 	0.22303	0.85867	0.88707	0.344
Mof_H 	H 	0.20033	0.87327	0.87147	0.339
Mof_C 	C 	0.229	0.84975	0.82602	0.227
Mof_H 	H 	0.22263	0.84457	0.81027	-0.036
Mof_H 	H 	0.22683	0.87277	0.83027	-0.037
Mof_C 	C 	0.29832	0.89042	0.81953	0.229
Mof_C 	C 	0.2913	0.91576	0.80623	-0.223
Mof_H 	H 	0.26533	0.91037	0.80377	0.111
Mof_C 	C 	0.32316	0.94924	0.79656	0.068
Mof_H 	H 	0.31843	0.96617	0.78767	-0.005
Mof_C 	C 	0.36205	0.95739	0.8002	-0.107
Mof_H 	H 	0.38333	0.97977	0.79377	0.064
Mof_C 	C 	0.36907	0.93204	0.8135	-0.022
Mof_C 	C 	0.33721	0.89856	0.82317	-0.165
Mof_H 	H 	0.34193	0.88167	0.83207	0.112
Mof_C 	C 	0.41023	0.94073	0.81733	0.356
Mof_C 	C 	0.15706	0.79452	0.89794	0.271
Mof_H 	H 	0.14603	0.76957	0.90607	-0.051
Mof_H 	H 	0.18183	0.81377	0.90517	-0.062
Mof_C 	C 	0.12369	0.82158	0.91807	0.254
Mof_C 	C 	0.09726	0.83602	0.91721	-0.238
Mof_H 	H 	0.08543	0.83607	0.90367	0.113
Mof_C 	C 	0.08844	0.85021	0.93613	0.087
Mof_H 	H 	0.07133	0.86057	0.93537	-0.006
Mof_C 	C 	0.10535	0.84903	0.95661	-0.115
Mof_H 	H 	0.09863	0.85757	0.96957	0.074
Mof_C 	C 	0.132	0.83523	0.95745	0.008
Mof_C 	C 	0.14002	0.82064	0.93803	-0.208
Mof_H 	H 	0.15693	0.81007	0.93877	0.114
Mof_C 	C 	0.15028	0.8334	0.97912	0.34
Mof_C 	C 	0.16248	0.62576	0.82325	0.381
Mof_C 	C 	0.18492	0.65193	0.80406	-0.017
Mof_C 	C 	0.2255	0.67946	0.80567	-0.097
Mof_H 	H 	0.23943	0.68077	0.81867	0.071
Mof_C 	C 	0.24529	0.70498	0.78792	0.058
Mof_H 	H 	0.27243	0.72337	0.78897	0.007
Mof_C 	C 	0.2245	0.70298	0.76855	-0.214
Mof_H 	H 	0.23773	0.72007	0.75667	0.11
Mof_C 	C 	0.18392	0.67545	0.76694	0.229
Mof_C 	C 	0.16413	0.64993	0.7847	-0.176
Mof_H 	H 	0.13703	0.63157	0.78367	0.104
Mof_C 	C 	0.12499	0.65501	0.7473	0.238
Mof_H 	H 	0.11513	0.65997	0.76117	-0.043
Mof_H 	H 	0.11493	0.62657	0.74607	-0.044
Mof_C 	C 	0.11058	0.66941	0.72746	-0.401
Mof_C 	C 	0.11093	0.70511	0.72875	0.543
Mof_C 	C 	0.09197	0.71476	0.71144	-0.413
Mof_C 	C 	0.0726	0.68811	0.69462	0.48
Mof_C 	C 	0.07421	0.65286	0.69263	-0.393
Mof_C 	C 	0.09524	0.6441	0.70826	0.461
Mof_C 	C 	0.10012	0.60789	0.70608	-0.969
Mof_H 	H 	0.12493	0.61337	0.71277	0.316
Mof_H 	H 	0.10013	0.60167	0.69057	0.315
Mof_H 	H 	0.07843	0.58567	0.71357	0.306
Mof_C 	C 	0.12828	0.73225	0.74761	-1.135
Mof_H 	H 	0.10733	0.72937	0.75747	0.363
Mof_H 	H 	0.14293	0.75927	0.74227	0.37
Mof_H 	H 	0.14603	0.72597	0.75557	0.371
Mof_C 	C 	0.04839	0.69743	0.67778	-0.999
Mof_H 	H 	0.03103	0.70427	0.68567	0.344
Mof_H 	H 	0.03273	0.67437	0.66857	0.34
Mof_H 	H 	0.06633	0.71947	0.66857	0.337
Mof_C 	C 	0.09124	0.75291	0.71281	0.245
Mof_H 	H 	0.11203	0.77167	0.72267	-0.053
Mof_H 	H 	0.09493	0.76507	0.69817	-0.041
Mof_C 	C 	0.03944	0.76797	0.71943	0.24
Mof_C 	C 	0.99895	0.75347	0.72301	-0.217
Mof_H 	H 	0.98193	0.72637	0.72577	0.107
Mof_C 	C 	0.98381	0.77938	0.72243	0.08
Mof_H 	H 	0.95673	0.76967	0.72487	-0.002
Mof_C 	C 	0.00917	0.8198	0.71828	-0.108
Mof_H 	H 	0.99903	0.83717	0.71787	0.079
Mof_C 	C 	0.04967	0.83432	0.71471	0.001
Mof_C 	C 	0.06481	0.80841	0.71529	-0.183
Mof_H 	H 	0.09193	0.81817	0.71287	0.106
Mof_C 	C 	0.07572	0.87636	0.7106	0.305
Mof_C 	C 	0.0484	0.62326	0.67538	0.251
Mof_H 	H 	0.04883	0.59867	0.67757	-0.041
Mof_H 	H 	0.02113	0.61747	0.67737	-0.047
Mof_C 	C 	0.03135	0.62188	0.63742	0.225
Mof_C 	C 	0.04149	0.6428	0.61736	-0.206
Mof_H 	H 	0.06663	0.66517	0.61557	0.104
Mof_C 	C 	0.01403	0.63024	0.59996	0.066
Mof_H 	H 	0.02083	0.64427	0.58657	-0
Mof_C 	C 	0.97642	0.59673	0.60261	-0.109
Mof_H 	H 	0.95803	0.58827	0.59097	0.06
Mof_C 	C 	0.96628	0.57581	0.62267	-0.003
Mof_C 	C 	0.99374	0.58837	0.64007	-0.176
Mof_H 	H 	0.98693	0.57437	0.65347	0.1
Mof_C 	C 	0.92648	0.53973	0.62537	0.294
Mof_Mn	Mn	0.99032	0.48815	0.80569	0.824
Mof_Mn	Mn	0.07806	0.55137	0.83818	0.921
Mof_Mn	Mn	0.14766	0.62094	0.87418	0.736
Mof_O 	O 	0.99652	0.54127	0.78617	-0.365
Mof_O 	O 	0.04315	0.55804	0.8102	-0.407
Mof_O 	O 	0.10056	0.70892	0.8163	-0.314
Mof_O 	O 	0.13027	0.80849	0.89841	-0.314
Mof_O 	O 	0.1746	0.82097	0.97813	-0.374
Mof_O 	O 	0.14037	0.84397	0.9963	-0.389
Mof_O 	O 	0.26902	0.85747	0.83008	-0.286
Mof_O 	O 	0.41667	0.91537	0.82567	-0.369
Mof_O 	O 	0.43708	0.97426	0.81017	-0.41
Mof_O 	O 	0.13145	0.59589	0.81917	-0.38
Mof_O 	O 	0.178	0.63689	0.84176	-0.384
Mof_O 	O 	0.1671	0.67583	0.74732	-0.298
Mof_O 	O 	0.05132	0.74111	0.72177	-0.292
Mof_O 	O 	0.11105	0.8876	0.70427	-0.397
Mof_O 	O 	0.06595	0.90204	0.71411	-0.307
Mof_O 	O 	0.06062	0.63675	0.65337	-0.293
Mof_O 	O 	0.91617	0.52379	0.64404	-0.376
Mof_O 	O 	0.90399	0.52596	0.60834	-0.355
Mof_O 	O 	0.93653	0.43977	0.79537	-0.226
Mof_O 	O 	0.93343	0.43137	0.79827	-0.224
Mof_H 	H 	0.91233	0.43687	0.79577	-0.334
Mof_H 	H 	0.93613	0.41807	0.78547	0.334
Mof_H 	H 	0.93823	0.40947	0.79917	-0.011
Mof_H 	H 	0.91443	0.42837	0.80947	0.307
Mof_H 	H 	0.91733	0.44787	0.79257	0.432
Mof_H 	H 	0.94163	0.42997	0.78177	-0.203
Mof_H 	H 	0.93973	0.41687	0.79457	0.011
Mof_H 	H 	0.91533	0.43467	0.80537	-0.114
Mof_C 	C 	0.69284	0.7913	0.63004	0.33
Mof_C 	C 	0.70438	0.76117	0.62661	0.009
Mof_C 	C 	0.68207	0.72898	0.61224	-0.133
Mof_H 	H 	0.6625	0.7292	0.6033	0.086
Mof_C 	C 	0.68833	0.69753	0.61109	0.115
Mof_H 	H 	0.6732	0.6763	0.6015	-0.006
Mof_C 	C 	0.71644	0.6973	0.62384	-0.262
Mof_H 	H 	0.7205	0.6756	0.6232	0.11
Mof_C 	C 	0.74012	0.72928	0.63834	0.267
Mof_C 	C 	0.73384	0.76114	0.63968	-0.209
Mof_H 	H 	0.7492	0.7824	0.6492	0.116
Mof_C 	C 	0.79346	0.75541	0.66514	0.249
Mof_H 	H 	0.8102	0.7803	0.6573	-0.047
Mof_H 	H 	0.778	0.76	0.6763	-0.05
Mof_C 	C 	0.81894	0.74042	0.67611	-0.419
Mof_C 	C 	0.84812	0.73831	0.66369	0.484
Mof_C 	C 	0.86716	0.71975	0.67291	-0.404
Mof_C 	C 	0.86053	0.7071	0.69507	0.51
Mof_C 	C 	0.83209	0.7107	0.70729	-0.405
Mof_C 	C 	0.80902	0.72599	0.69714	0.488
Mof_C 	C 	0.77555	0.72564	0.71042	-1.024
Mof_H 	H 	0.7534	0.7194	0.7007	0.34
Mof_H 	H 	0.7672	0.7059	0.722	0.344
Mof_H 	H 	0.7848	0.7515	0.717	0.332
Mof_C 	C 	0.86007	0.75639	0.6403	-0.995
Mof_H 	H 	0.8636	0.7828	0.6403	0.33
Mof_H 	H 	0.8846	0.7577	0.636	0.335
Mof_H 	H 	0.8395	0.74	0.6299	0.314
Mof_C 	C 	0.88316	0.68902	0.70521	-1.057
Mof_H 	H 	0.9073	0.6973	0.6969	0.355
Mof_H 	H 	0.8897	0.6977	0.7204	0.344
Mof_H 	H 	0.867	0.6604	0.7048	0.339
Mof_C 	C 	0.89567	0.71259	0.65935	0.227
Mof_H 	H 	0.8893	0.7114	0.6436	-0.036
Mof_H 	H 	0.8935	0.6874	0.6636	-0.037
Mof_C 	C 	0.96499	0.74124	0.65286	0.229
Mof_C 	C 	0.95797	0.70888	0.63956	-0.223
Mof_H 	H 	0.932	0.6883	0.6371	0.111
Mof_C 	C 	0.98983	0.70726	0.62989	0.068
Mof_H 	H 	0.9851	0.6856	0.621	-0.005
Mof_C 	C 	0.02872	0.738	0.63353	-0.107
Mof_H 	H 	0.05	0.7369	0.6271	0.064
Mof_C 	C 	0.03574	0.77037	0.64683	-0.022
Mof_C 	C 	0.00388	0.77199	0.6565	-0.165
Mof_H 	H 	0.0086	0.7936	0.6654	0.112
Mof_C 	C 	0.0769	0.80284	0.65066	0.356
Mof_C 	C 	0.82373	0.69588	0.73127	0.271
Mof_H 	H 	0.8127	0.7098	0.7394	-0.051
Mof_H 	H 	0.8485	0.7014	0.7385	-0.062
Mof_C 	C 	0.79036	0.63545	0.7514	0.254
Mof_C 	C 	0.76393	0.59458	0.75054	-0.238
Mof_H 	H 	0.7521	0.5827	0.737	0.113
Mof_C 	C 	0.75511	0.57157	0.76946	0.087
Mof_H 	H 	0.738	0.5441	0.7687	-0.006
Mof_C 	C 	0.77202	0.58966	0.78994	-0.115
Mof_H 	H 	0.7653	0.5744	0.8029	0.074
Mof_C 	C 	0.79867	0.63011	0.79078	0.008
Mof_C 	C 	0.80669	0.65272	0.77136	-0.208
Mof_H 	H 	0.8236	0.6802	0.7721	0.114
Mof_C 	C 	0.81695	0.65022	0.81245	0.34
Mof_C 	C 	0.82915	0.87006	0.65658	0.381
Mof_C 	C 	0.85159	0.86633	0.63739	-0.017
Mof_C 	C 	0.89217	0.87938	0.639	-0.097
Mof_H 	H 	0.9061	0.892	0.652	0.071
Mof_C 	C 	0.91196	0.87365	0.62125	0.058
Mof_H 	H 	0.9391	0.8824	0.6223	0.007
Mof_C 	C 	0.89117	0.85486	0.60188	-0.214
Mof_H 	H 	0.9044	0.851	0.59	0.11
Mof_C 	C 	0.85059	0.84181	0.60027	0.229
Mof_C 	C 	0.8308	0.84754	0.61803	-0.176
Mof_H 	H 	0.8037	0.8388	0.617	0.104
Mof_C 	C 	0.79166	0.80332	0.58063	0.238
Mof_H 	H 	0.7818	0.7885	0.5945	-0.043
Mof_H 	H 	0.7816	0.8217	0.5794	-0.044
Mof_C 	C 	0.77725	0.77451	0.56079	-0.401
Mof_C 	C 	0.7776	0.73916	0.56208	0.543
Mof_C 	C 	0.75864	0.71055	0.54477	-0.413
Mof_C 	C 	0.73927	0.71783	0.52795	0.48
Mof_C 	C 	0.74088	0.75469	0.52596	-0.393
Mof_C 	C 	0.76191	0.78448	0.54159	0.461
Mof_C 	C 	0.76679	0.82557	0.53941	-0.969
Mof_H 	H 	0.7916	0.8449	0.5461	0.316
Mof_H 	H 	0.7668	0.8318	0.5239	0.315
Mof_H 	H 	0.7451	0.8261	0.5469	0.306
Mof_C 	C 	0.79495	0.72937	0.58094	-1.135
Mof_H 	H 	0.774	0.7113	0.5908	0.363
Mof_H 	H 	0.8096	0.717	0.5756	0.37
Mof_H 	H 	0.8127	0.7534	0.5889	0.371
Mof_C 	C 	0.71506	0.6843	0.51111	-0.999
Mof_H 	H 	0.6977	0.6601	0.519	0.344
Mof_H 	H 	0.6994	0.6917	0.5019	0.34
Mof_H 	H 	0.733	0.6802	0.5019	0.337
Mof_C 	C 	0.75791	0.67167	0.54614	0.245
Mof_H 	H 	0.7787	0.6737	0.556	-0.053
Mof_H 	H 	0.7616	0.6632	0.5315	-0.042
Mof_C 	C 	0.70611	0.60481	0.55276	0.24
Mof_C 	C 	0.66562	0.57882	0.55634	-0.217
Mof_H 	H 	0.6486	0.5889	0.5591	0.107
Mof_C 	C 	0.65048	0.53777	0.55576	0.08
Mof_H 	H 	0.6234	0.5204	0.5582	-0.002
Mof_C 	C 	0.67584	0.52271	0.55161	-0.108
Mof_H 	H 	0.6657	0.4952	0.5512	0.079
Mof_C 	C 	0.71634	0.54869	0.54804	0.001
Mof_C 	C 	0.73148	0.58974	0.54862	-0.183
Mof_H 	H 	0.7586	0.6071	0.5462	0.106
Mof_C 	C 	0.74239	0.5327	0.54393	0.305
Mof_C 	C 	0.71507	0.75848	0.50871	0.251
Mof_H 	H 	0.7155	0.7835	0.5109	-0.041
Mof_H 	H 	0.6878	0.737	0.5107	-0.047
Mof_C 	C 	0.69802	0.74281	0.47075	0.225
Mof_C 	C 	0.70816	0.73203	0.45069	-0.206
Mof_H 	H 	0.7333	0.7348	0.4489	0.104
Mof_C 	C 	0.6807	0.71713	0.43329	0.066
Mof_H 	H 	0.6875	0.7099	0.4199	-0
Mof_C 	C 	0.64309	0.71303	0.43594	-0.108
Mof_H 	H 	0.6247	0.7031	0.4243	0.06
Mof_C 	C 	0.63295	0.72381	0.456	-0.003
Mof_C 	C 	0.66041	0.73871	0.4734	-0.176
Mof_H 	H 	0.6536	0.7459	0.4868	0.1
Mof_C 	C 	0.59315	0.72009	0.4587	0.294
Mof_Mn	Mn	0.65698	0.8355	0.63902	0.824
Mof_Mn	Mn	0.74473	0.86002	0.67152	0.921
Mof_Mn	Mn	0.81433	0.86006	0.70752	0.736
Mof_O 	O 	0.66319	0.78859	0.6195	-0.365
Mof_O 	O 	0.70982	0.81845	0.64353	-0.407
Mof_O 	O 	0.76723	0.72498	0.64963	-0.314
Mof_O 	O 	0.79694	0.65512	0.73174	-0.314
Mof_O 	O 	0.84127	0.68697	0.81146	-0.374
Mof_O 	O 	0.80704	0.62974	0.82963	-0.389
Mof_O 	O 	0.93569	0.74489	0.66341	-0.286
Mof_O 	O 	0.08334	0.83464	0.659	-0.369
Mof_O 	O 	0.10375	0.79616	0.6435	-0.41
Mof_O 	O 	0.79812	0.8689	0.6525	-0.38
Mof_O 	O 	0.84467	0.87445	0.67509	-0.384
Mof_O 	O 	0.83377	0.82461	0.58065	-0.298
Mof_O 	O 	0.71799	0.64355	0.5551	-0.292
Mof_O 	O 	0.77772	0.55679	0.5376	-0.397
Mof_O 	O 	0.73262	0.49725	0.54744	-0.307
Mof_O 	O 	0.72729	0.75721	0.4867	-0.293
Mof_O 	O 	0.58284	0.72572	0.47737	-0.376
Mof_O 	O 	0.57066	0.71137	0.44167	-0.355
Mof_O 	O 	0.6032	0.8301	0.6287	-0.226
Mof_O 	O 	0.6001	0.8354	0.6316	-0.224
Mof_H 	H 	0.579	0.8088	0.6291	-0.334
Mof_H 	H 	0.6028	0.8514	0.6188	0.334
Mof_H 	H 	0.6049	0.8621	0.6325	-0.011
Mof_H 	H 	0.5811	0.8194	0.6428	0.307
Mof_H 	H 	0.584	0.8028	0.6259	0.432
Mof_H 	H 	0.6083	0.845	0.6151	-0.203
Mof_H 	H 	0.6064	0.8562	0.6279	0.011
Mof_H 	H 	0.582	0.814	0.6387	-0.114
Mof_C 	C 	0.35951	0.12463	0.96337	0.33
Mof_C 	C 	0.37105	0.0945	0.95994	0.009
Mof_C 	C 	0.34874	0.06231	0.94557	-0.133
Mof_H 	H 	0.32917	0.06253	0.93663	0.086
Mof_C 	C 	0.355	0.03086	0.94442	0.115
Mof_H 	H 	0.33987	0.00963	0.93483	-0.006
Mof_C 	C 	0.38311	0.03063	0.95717	-0.262
Mof_H 	H 	0.38717	0.00893	0.95653	0.11
Mof_C 	C 	0.40679	0.06261	0.97167	0.267
Mof_C 	C 	0.40051	0.09447	0.97301	-0.209
Mof_H 	H 	0.41587	0.11573	0.98253	0.116
Mof_C 	C 	0.46013	0.08874	0.99847	0.249
Mof_H 	H 	0.47687	0.11363	0.99063	-0.047
Mof_H 	H 	0.44467	0.09333	0.00963	-0.05
Mof_C 	C 	0.48561	0.07375	0.00944	-0.419
Mof_C 	C 	0.51479	0.07164	0.99702	0.484
Mof_C 	C 	0.53383	0.05308	0.00624	-0.404
Mof_C 	C 	0.5272	0.04043	0.0284	0.51
Mof_C 	C 	0.49876	0.04403	0.04062	-0.405
Mof_C 	C 	0.47569	0.05932	0.03047	0.488
Mof_C 	C 	0.44222	0.05897	0.04375	-1.024
Mof_H 	H 	0.42007	0.05273	0.03403	0.34
Mof_H 	H 	0.43387	0.03923	0.05533	0.344
Mof_H 	H 	0.45147	0.08483	0.05033	0.332
Mof_C 	C 	0.52674	0.08972	0.97363	-0.995
Mof_H 	H 	0.53027	0.11613	0.97363	0.33
Mof_H 	H 	0.55127	0.09103	0.96933	0.335
Mof_H 	H 	0.50617	0.07333	0.96323	0.314
Mof_C 	C 	0.54983	0.02235	0.03854	-1.057
Mof_H 	H 	0.57397	0.03063	0.03023	0.355
Mof_H 	H 	0.55637	0.03103	0.05373	0.344
Mof_H 	H 	0.53367	0.99373	0.03813	0.339
Mof_C 	C 	0.56234	0.04592	0.99268	0.227
Mof_H 	H 	0.55597	0.04473	0.97693	-0.036
Mof_H 	H 	0.56017	0.02073	0.99693	-0.037
Mof_C 	C 	0.63166	0.07457	0.98619	0.229
Mof_C 	C 	0.62464	0.04221	0.97289	-0.223
Mof_H 	H 	0.59867	0.02163	0.97043	0.111
Mof_C 	C 	0.6565	0.04059	0.96322	0.068
Mof_H 	H 	0.65177	0.01893	0.95433	-0.005
Mof_C 	C 	0.69539	0.07133	0.96686	-0.107
Mof_H 	H 	0.71667	0.07023	0.96043	0.064
Mof_C 	C 	0.70241	0.1037	0.98016	-0.022
Mof_C 	C 	0.67055	0.10532	0.98983	-0.165
Mof_H 	H 	0.67527	0.12693	0.99873	0.112
Mof_C 	C 	0.74357	0.13617	0.98399	0.356
Mof_C 	C 	0.4904	0.02921	0.0646	0.271
Mof_H 	H 	0.47937	0.04313	0.07273	-0.052
Mof_H 	H 	0.51517	0.03473	0.07183	-0.062
Mof_C 	C 	0.45703	0.96878	0.08473	0.254
Mof_C 	C 	0.4306	0.92791	0.08387	-0.238
Mof_H 	H 	0.41877	0.91603	0.07033	0.113
Mof_C 	C 	0.42178	0.9049	0.10279	0.087
Mof_H 	H 	0.40467	0.87743	0.10203	-0.006
Mof_C 	C 	0.43869	0.92299	0.12327	-0.115
Mof_H 	H 	0.43197	0.90773	0.13623	0.074
Mof_C 	C 	0.46534	0.96344	0.12411	0.008
Mof_C 	C 	0.47336	0.98605	0.10469	-0.208
Mof_H 	H 	0.49027	0.01353	0.10543	0.114
Mof_C 	C 	0.48362	0.98355	0.14578	0.34
Mof_C 	C 	0.49582	0.20339	0.98991	0.38
Mof_C 	C 	0.51826	0.19966	0.97072	-0.017
Mof_C 	C 	0.55884	0.21271	0.97233	-0.097
Mof_H 	H 	0.57277	0.22533	0.98533	0.071
Mof_C 	C 	0.57863	0.20698	0.95458	0.058
Mof_H 	H 	0.60577	0.21573	0.95563	0.007
Mof_C 	C 	0.55784	0.18819	0.93521	-0.214
Mof_H 	H 	0.57107	0.18433	0.92333	0.11
Mof_C 	C 	0.51726	0.17514	0.9336	0.229
Mof_C 	C 	0.49747	0.18087	0.95136	-0.176
Mof_H 	H 	0.47037	0.17213	0.95033	0.104
Mof_C 	C 	0.45833	0.13665	0.91396	0.238
Mof_H 	H 	0.44847	0.12183	0.92783	-0.043
Mof_H 	H 	0.44827	0.15503	0.91273	-0.044
Mof_C 	C 	0.44392	0.10784	0.89412	-0.401
Mof_C 	C 	0.44427	0.07249	0.89541	0.543
Mof_C 	C 	0.42531	0.04388	0.8781	-0.413
Mof_C 	C 	0.40594	0.05116	0.86128	0.48
Mof_C 	C 	0.40755	0.08802	0.85929	-0.393
Mof_C 	C 	0.42858	0.11781	0.87492	0.461
Mof_C 	C 	0.43346	0.1589	0.87274	-0.969
Mof_H 	H 	0.45827	0.17823	0.87943	0.316
Mof_H 	H 	0.43347	0.16513	0.85723	0.315
Mof_H 	H 	0.41177	0.15943	0.88023	0.306
Mof_C 	C 	0.46162	0.0627	0.91427	-1.135
Mof_H 	H 	0.44067	0.04463	0.92413	0.363
Mof_H 	H 	0.47627	0.05033	0.90893	0.37
Mof_H 	H 	0.47937	0.08673	0.92223	0.371
Mof_C 	C 	0.38173	0.01763	0.84444	-0.999
Mof_H 	H 	0.36437	0.99343	0.85233	0.344
Mof_H 	H 	0.36607	0.02503	0.83523	0.34
Mof_H 	H 	0.39967	0.01353	0.83523	0.337
Mof_C 	C 	0.42458	0.005	0.87947	0.245
Mof_H 	H 	0.44537	0.00703	0.88933	-0.053
Mof_H 	H 	0.42827	0.99653	0.86483	-0.041
Mof_C 	C 	0.37278	0.93814	0.88609	0.24
Mof_C 	C 	0.33229	0.91215	0.88967	-0.217
Mof_H 	H 	0.31527	0.92223	0.89243	0.107
Mof_C 	C 	0.31715	0.8711	0.88909	0.08
Mof_H 	H 	0.29007	0.85373	0.89153	-0.002
Mof_C 	C 	0.34251	0.85604	0.88494	-0.108
Mof_H 	H 	0.33237	0.82853	0.88453	0.079
Mof_C 	C 	0.38301	0.88202	0.88137	0.001
Mof_C 	C 	0.39815	0.92307	0.88195	-0.183
Mof_H 	H 	0.42527	0.94043	0.87953	0.106
Mof_C 	C 	0.40906	0.86603	0.87726	0.305
Mof_C 	C 	0.38174	0.09181	0.84204	0.251
Mof_H 	H 	0.38217	0.11683	0.84423	-0.041
Mof_H 	H 	0.35447	0.07033	0.84403	-0.047
Mof_C 	C 	0.36469	0.07614	0.80408	0.225
Mof_C 	C 	0.37483	0.06536	0.78402	-0.206
Mof_H 	H 	0.39997	0.06813	0.78223	0.104
Mof_C 	C 	0.34737	0.05046	0.76662	0.066
Mof_H 	H 	0.35417	0.04323	0.75323	-0
Mof_C 	C 	0.30976	0.04636	0.76927	-0.108
Mof_H 	H 	0.29137	0.03643	0.75763	0.06
Mof_C 	C 	0.29962	0.05714	0.78933	-0.003
Mof_C 	C 	0.32708	0.07204	0.80673	-0.176
Mof_H 	H 	0.32027	0.07923	0.82013	0.1
Mof_C 	C 	0.25982	0.05342	0.79203	0.294
Mof_Mn	Mn	0.32365	0.16883	0.97235	0.824
Mof_Mn	Mn	0.41139	0.19335	0.00485	0.921
Mof_Mn	Mn	0.481	0.19339	0.04085	0.736
Mof_O 	O 	0.32986	0.12192	0.95283	-0.365
Mof_O 	O 	0.37649	0.15178	0.97686	-0.407
Mof_O 	O 	0.4339	0.05831	0.98296	-0.314
Mof_O 	O 	0.46361	0.98845	0.06507	-0.314
Mof_O 	O 	0.50794	0.0203	0.14479	-0.374
Mof_O 	O 	0.47371	0.96307	0.16296	-0.389
Mof_O 	O 	0.60236	0.07822	0.99674	-0.286
Mof_O 	O 	0.75001	0.16797	0.99233	-0.369
Mof_O 	O 	0.77042	0.12949	0.97683	-0.41
Mof_O 	O 	0.46479	0.20223	0.98583	-0.38
Mof_O 	O 	0.51134	0.20778	0.00842	-0.384
Mof_O 	O 	0.50044	0.15794	0.91398	-0.298
Mof_O 	O 	0.38466	0.97688	0.88843	-0.292
Mof_O 	O 	0.44439	0.89012	0.87093	-0.397
Mof_O 	O 	0.39929	0.83058	0.88077	-0.307
Mof_O 	O 	0.39396	0.09054	0.82003	-0.293
Mof_O 	O 	0.24951	0.05905	0.8107	-0.376
Mof_O 	O 	0.23733	0.0447	0.775	-0.355
Mof_O 	O 	0.26987	0.16343	0.96203	-0.226
Mof_O 	O 	0.26677	0.16873	0.96493	-0.224
Mof_H 	H 	0.24567	0.14213	0.96243	-0.334
Mof_H 	H 	0.26947	0.18473	0.95213	0.334
Mof_H 	H 	0.27157	0.19543	0.96583	-0.011
Mof_H 	H 	0.24777	0.15273	0.97613	0.307
Mof_H 	H 	0.25067	0.13613	0.95923	0.432
Mof_H 	H 	0.27497	0.17833	0.94843	-0.203
Mof_H 	H 	0.27307	0.18953	0.96123	0.011
Mof_H 	H 	0.24867	0.14733	0.97203	-0.114
Mof_C 	C 	0.02617	0.45797	0.29671	0.33
Mof_C 	C 	0.03771	0.42784	0.29328	0.009
Mof_C 	C 	0.0154	0.39565	0.27891	-0.133
Mof_H 	H 	0.99583	0.39587	0.26997	0.086
Mof_C 	C 	0.02166	0.3642	0.27776	0.115
Mof_H 	H 	0.00653	0.34297	0.26817	-0.006
Mof_C 	C 	0.04977	0.36397	0.29051	-0.262
Mof_H 	H 	0.05383	0.34227	0.28987	0.11
Mof_C 	C 	0.07345	0.39595	0.30501	0.267
Mof_C 	C 	0.06717	0.42781	0.30635	-0.209
Mof_H 	H 	0.08253	0.44907	0.31587	0.116
Mof_C 	C 	0.12679	0.42208	0.33181	0.249
Mof_H 	H 	0.14353	0.44697	0.32397	-0.047
Mof_H 	H 	0.11133	0.42667	0.34297	-0.05
Mof_C 	C 	0.15227	0.40709	0.34278	-0.419
Mof_C 	C 	0.18145	0.40498	0.33036	0.484
Mof_C 	C 	0.20049	0.38642	0.33958	-0.404
Mof_C 	C 	0.19386	0.37377	0.36174	0.51
Mof_C 	C 	0.16542	0.37737	0.37396	-0.405
Mof_C 	C 	0.14235	0.39266	0.36381	0.488
Mof_C 	C 	0.10888	0.39231	0.37709	-1.024
Mof_H 	H 	0.08673	0.38607	0.36737	0.34
Mof_H 	H 	0.10053	0.37257	0.38867	0.344
Mof_H 	H 	0.11813	0.41817	0.38367	0.332
Mof_C 	C 	0.1934	0.42306	0.30697	-0.995
Mof_H 	H 	0.19693	0.44947	0.30697	0.33
Mof_H 	H 	0.21793	0.42437	0.30267	0.335
Mof_H 	H 	0.17283	0.40667	0.29657	0.314
Mof_C 	C 	0.21649	0.35569	0.37188	-1.057
Mof_H 	H 	0.24063	0.36397	0.36357	0.355
Mof_H 	H 	0.22303	0.36437	0.38707	0.344
Mof_H 	H 	0.20033	0.32707	0.37147	0.339
Mof_C 	C 	0.229	0.37926	0.32602	0.227
Mof_H 	H 	0.22263	0.37807	0.31027	-0.036
Mof_H 	H 	0.22683	0.35407	0.33027	-0.037
Mof_C 	C 	0.29832	0.40791	0.31953	0.229
Mof_C 	C 	0.2913	0.37555	0.30623	-0.223
Mof_H 	H 	0.26533	0.35497	0.30377	0.111
Mof_C 	C 	0.32316	0.37393	0.29656	0.068
Mof_H 	H 	0.31843	0.35227	0.28767	-0.005
Mof_C 	C 	0.36205	0.40467	0.3002	-0.107
Mof_H 	H 	0.38333	0.40357	0.29377	0.064
Mof_C 	C 	0.36907	0.43704	0.3135	-0.022
Mof_C 	C 	0.33721	0.43866	0.32317	-0.165
Mof_H 	H 	0.34193	0.46027	0.33207	0.112
Mof_C 	C 	0.41023	0.46951	0.31733	0.356
Mof_C 	C 	0.15706	0.36255	0.39794	0.271
Mof_H 	H 	0.14603	0.37647	0.40607	-0.051
Mof_H 	H 	0.18183	0.36807	0.40517	-0.062
Mof_C 	C 	0.12369	0.30212	0.41807	0.254
Mof_C 	C 	0.09726	0.26125	0.41721	-0.238
Mof_H 	H 	0.08543	0.24937	0.40367	0.113
Mof_C 	C 	0.08844	0.23824	0.43613	0.087
Mof_H 	H 	0.07133	0.21077	0.43537	-0.006
Mof_C 	C 	0.10535	0.25633	0.45661	-0.115
Mof_H 	H 	0.09863	0.24107	0.46957	0.074
Mof_C 	C 	0.132	0.29678	0.45745	0.008
Mof_C 	C 	0.14002	0.31939	0.43803	-0.208
Mof_H 	H 	0.15693	0.34687	0.43877	0.114
Mof_C 	C 	0.15028	0.31689	0.47912	0.34
Mof_C 	C 	0.16248	0.53673	0.32325	0.381
Mof_C 	C 	0.18492	0.533	0.30406	-0.018
Mof_C 	C 	0.2255	0.54605	0.30567	-0.097
Mof_H 	H 	0.23943	0.55867	0.31867	0.071
Mof_C 	C 	0.24529	0.54032	0.28792	0.058
Mof_H 	H 	0.27243	0.54907	0.28897	0.007
Mof_C 	C 	0.2245	0.52153	0.26855	-0.214
Mof_H 	H 	0.23773	0.51767	0.25667	0.11
Mof_C 	C 	0.18392	0.50848	0.26694	0.229
Mof_C 	C 	0.16413	0.51421	0.2847	-0.176
Mof_H 	H 	0.13703	0.50547	0.28367	0.104
Mof_C 	C 	0.12499	0.46999	0.2473	0.238
Mof_H 	H 	0.11513	0.45517	0.26117	-0.043
Mof_H 	H 	0.11493	0.48837	0.24607	-0.044
Mof_C 	C 	0.11058	0.44118	0.22746	-0.401
Mof_C 	C 	0.11093	0.40583	0.22875	0.543
Mof_C 	C 	0.09197	0.37722	0.21144	-0.413
Mof_C 	C 	0.0726	0.3845	0.19462	0.48
Mof_C 	C 	0.07421	0.42136	0.19263	-0.393
Mof_C 	C 	0.09524	0.45115	0.20826	0.461
Mof_C 	C 	0.10012	0.49224	0.20608	-0.969
Mof_H 	H 	0.12493	0.51157	0.21277	0.316
Mof_H 	H 	0.10013	0.49847	0.19057	0.315
Mof_H 	H 	0.07843	0.49277	0.21357	0.306
Mof_C 	C 	0.12828	0.39604	0.24761	-1.135
Mof_H 	H 	0.10733	0.37797	0.25747	0.363
Mof_H 	H 	0.14293	0.38367	0.24227	0.37
Mof_H 	H 	0.14603	0.42007	0.25557	0.371
Mof_C 	C 	0.04839	0.35097	0.17778	-0.999
Mof_H 	H 	0.03103	0.32677	0.18567	0.344
Mof_H 	H 	0.03273	0.35837	0.16857	0.34
Mof_H 	H 	0.06633	0.34687	0.16857	0.337
Mof_C 	C 	0.09124	0.33834	0.21281	0.245
Mof_H 	H 	0.11203	0.34037	0.22267	-0.053
Mof_H 	H 	0.09493	0.32987	0.19817	-0.041
Mof_C 	C 	0.03944	0.27148	0.21943	0.24
Mof_C 	C 	0.99895	0.24549	0.22301	-0.217
Mof_H 	H 	0.98193	0.25557	0.22577	0.107
Mof_C 	C 	0.98381	0.20444	0.22243	0.08
Mof_H 	H 	0.95673	0.18707	0.22487	-0.002
Mof_C 	C 	0.00917	0.18938	0.21828	-0.108
Mof_H 	H 	0.99903	0.16187	0.21787	0.079
Mof_C 	C 	0.04967	0.21536	0.21471	0.001
Mof_C 	C 	0.06481	0.25641	0.21529	-0.183
Mof_H 	H 	0.09193	0.27377	0.21287	0.106
Mof_C 	C 	0.07572	0.19937	0.2106	0.305
Mof_C 	C 	0.0484	0.42515	0.17538	0.251
Mof_H 	H 	0.04883	0.45017	0.17757	-0.041
Mof_H 	H 	0.02113	0.40367	0.17737	-0.047
Mof_C 	C 	0.03135	0.40948	0.13742	0.225
Mof_C 	C 	0.04149	0.3987	0.11736	-0.206
Mof_H 	H 	0.06663	0.40147	0.11557	0.104
Mof_C 	C 	0.01403	0.3838	0.09996	0.066
Mof_H 	H 	0.02083	0.37657	0.08657	-0
Mof_C 	C 	0.97642	0.3797	0.10261	-0.109
Mof_H 	H 	0.95803	0.36977	0.09097	0.06
Mof_C 	C 	0.96628	0.39048	0.12267	-0.003
Mof_C 	C 	0.99374	0.40538	0.14007	-0.176
Mof_H 	H 	0.98693	0.41257	0.15347	0.1
Mof_C 	C 	0.92648	0.38676	0.12537	0.294
Mof_Mn	Mn	0.99032	0.50216	0.30569	0.824
Mof_Mn	Mn	0.07806	0.52669	0.33818	0.921
Mof_Mn	Mn	0.14766	0.52672	0.37418	0.736
Mof_O 	O 	0.99652	0.45526	0.28617	-0.365
Mof_O 	O 	0.04315	0.48512	0.3102	-0.407
Mof_O 	O 	0.10056	0.39165	0.3163	-0.314
Mof_O 	O 	0.13027	0.32179	0.39841	-0.314
Mof_O 	O 	0.1746	0.35364	0.47813	-0.374
Mof_O 	O 	0.14037	0.29641	0.4963	-0.389
Mof_O 	O 	0.26902	0.41156	0.33008	-0.286
Mof_O 	O 	0.41667	0.50131	0.32567	-0.369
Mof_O 	O 	0.43708	0.46283	0.31017	-0.41
Mof_O 	O 	0.13145	0.53557	0.31917	-0.38
Mof_O 	O 	0.178	0.54112	0.34176	-0.384
Mof_O 	O 	0.1671	0.49128	0.24732	-0.298
Mof_O 	O 	0.05132	0.31022	0.22177	-0.292
Mof_O 	O 	0.11105	0.22346	0.20427	-0.397
Mof_O 	O 	0.06595	0.16392	0.21411	-0.307
Mof_O 	O 	0.06062	0.42388	0.15337	-0.293
Mof_O 	O 	0.91617	0.39239	0.14404	-0.376
Mof_O 	O 	0.90399	0.37804	0.10834	-0.355
Mof_O 	O 	0.93653	0.49677	0.29537	-0.226
Mof_O 	O 	0.93343	0.50207	0.29827	-0.224
Mof_H 	H 	0.91233	0.47547	0.29577	-0.334
Mof_H 	H 	0.93613	0.51807	0.28547	0.334
Mof_H 	H 	0.93823	0.52877	0.29917	-0.011
Mof_H 	H 	0.91443	0.48607	0.30947	0.307
Mof_H 	H 	0.91733	0.46947	0.29257	0.432
Mof_H 	H 	0.94163	0.51167	0.28177	-0.203
Mof_H 	H 	0.93973	0.52287	0.29457	0.011
Mof_H 	H 	0.91533	0.48067	0.30537	-0.114
Mof_C 	C 	0.2087	0.90154	0.63004	0.33
Mof_C 	C 	0.23883	0.94321	0.62661	0.009
Mof_C 	C 	0.27102	0.95309	0.61224	-0.133
Mof_H 	H 	0.2708	0.9333	0.6033	0.086
Mof_C 	C 	0.30247	0.9908	0.61109	0.115
Mof_H 	H 	0.3237	0.9969	0.6015	-0.006
Mof_C 	C 	0.3027	0.01914	0.62384	-0.262
Mof_H 	H 	0.3244	0.0449	0.6232	0.11
Mof_C 	C 	0.27072	0.01084	0.63834	0.267
Mof_C 	C 	0.23886	0.9727	0.63968	-0.209
Mof_H 	H 	0.2176	0.9668	0.6492	0.116
Mof_C 	C 	0.24459	0.03805	0.66514	0.249
Mof_H 	H 	0.2197	0.0299	0.6573	-0.047
Mof_H 	H 	0.24	0.018	0.6763	-0.05
Mof_C 	C 	0.25958	0.07852	0.67611	-0.419
Mof_C 	C 	0.26169	0.10981	0.66369	0.484
Mof_C 	C 	0.28025	0.14741	0.67291	-0.404
Mof_C 	C 	0.2929	0.15343	0.69507	0.51
Mof_C 	C 	0.2893	0.12139	0.70729	-0.405
Mof_C 	C 	0.27401	0.08303	0.69714	0.488
Mof_C 	C 	0.27436	0.04991	0.71042	-1.024
Mof_H 	H 	0.2806	0.034	0.7007	0.34
Mof_H 	H 	0.2941	0.0613	0.722	0.344
Mof_H 	H 	0.2485	0.0333	0.717	0.332
Mof_C 	C 	0.24361	0.10368	0.6403	-0.995
Mof_H 	H 	0.2172	0.0808	0.6403	0.33
Mof_H 	H 	0.2423	0.1269	0.636	0.335
Mof_H 	H 	0.26	0.0995	0.6299	0.314
Mof_C 	C 	0.31098	0.19414	0.70521	-1.057
Mof_H 	H 	0.3027	0.21	0.6969	0.355
Mof_H 	H 	0.3023	0.192	0.7204	0.344
Mof_H 	H 	0.3396	0.2066	0.7048	0.339
Mof_C 	C 	0.28741	0.18308	0.65935	0.227
Mof_H 	H 	0.2886	0.1779	0.6436	-0.036
Mof_H 	H 	0.3126	0.2061	0.6636	-0.037
Mof_C 	C 	0.25876	0.22375	0.65286	0.229
Mof_C 	C 	0.29112	0.24909	0.63956	-0.223
Mof_H 	H 	0.3117	0.2437	0.6371	0.111
Mof_C 	C 	0.29274	0.28257	0.62989	0.068
Mof_H 	H 	0.3144	0.2995	0.621	-0.005
Mof_C 	C 	0.262	0.29072	0.63353	-0.107
Mof_H 	H 	0.2631	0.3131	0.6271	0.064
Mof_C 	C 	0.22963	0.26537	0.64683	-0.022
Mof_C 	C 	0.22801	0.23189	0.6565	-0.165
Mof_H 	H 	0.2064	0.215	0.6654	0.112
Mof_C 	C 	0.19716	0.27406	0.65066	0.356
Mof_C 	C 	0.30412	0.12785	0.73127	0.271
Mof_H 	H 	0.2902	0.1029	0.7394	-0.051
Mof_H 	H 	0.2986	0.1471	0.7385	-0.062
Mof_C 	C 	0.36455	0.15491	0.7514	0.254
Mof_C 	C 	0.40542	0.16935	0.75054	-0.238
Mof_H 	H 	0.4173	0.1694	0.737	0.113
Mof_C 	C 	0.42843	0.18354	0.76946	0.087
Mof_H 	H 	0.4559	0.1939	0.7687	-0.006
Mof_C 	C 	0.41034	0.18236	0.78994	-0.115
Mof_H 	H 	0.4256	0.1909	0.8029	0.074
Mof_C 	C 	0.36989	0.16856	0.79078	0.008
Mof_C 	C 	0.34728	0.15397	0.77136	-0.208
Mof_H 	H 	0.3198	0.1434	0.7721	0.114
Mof_C 	C 	0.34978	0.16673	0.81245	0.34
Mof_C 	C 	0.12994	0.95909	0.65658	0.381
Mof_C 	C 	0.13367	0.98526	0.63739	-0.017
Mof_C 	C 	0.12062	0.01279	0.639	-0.097
Mof_H 	H 	0.108	0.0141	0.652	0.071
Mof_C 	C 	0.12635	0.03831	0.62125	0.058
Mof_H 	H 	0.1176	0.0567	0.6223	0.007
Mof_C 	C 	0.14514	0.03631	0.60188	-0.214
Mof_H 	H 	0.149	0.0534	0.59	0.11
Mof_C 	C 	0.15819	0.00878	0.60027	0.229
Mof_C 	C 	0.15246	0.98326	0.61803	-0.176
Mof_H 	H 	0.1612	0.9649	0.617	0.104
Mof_C 	C 	0.19668	0.98834	0.58063	0.238
Mof_H 	H 	0.2115	0.9933	0.5945	-0.043
Mof_H 	H 	0.1783	0.9599	0.5794	-0.044
Mof_C 	C 	0.22549	0.00274	0.56079	-0.401
Mof_C 	C 	0.26084	0.03844	0.56208	0.543
Mof_C 	C 	0.28945	0.04809	0.54477	-0.413
Mof_C 	C 	0.28217	0.02144	0.52795	0.48
Mof_C 	C 	0.24531	0.98619	0.52596	-0.393
Mof_C 	C 	0.21552	0.97743	0.54159	0.461
Mof_C 	C 	0.17443	0.94122	0.53941	-0.969
Mof_H 	H 	0.1551	0.9467	0.5461	0.316
Mof_H 	H 	0.1682	0.935	0.5239	0.315
Mof_H 	H 	0.1739	0.919	0.5469	0.306
Mof_C 	C 	0.27063	0.06558	0.58094	-1.135
Mof_H 	H 	0.2887	0.0627	0.5908	0.363
Mof_H 	H 	0.283	0.0926	0.5756	0.37
Mof_H 	H 	0.2466	0.0593	0.5889	0.371
Mof_C 	C 	0.3157	0.03076	0.51111	-0.999
Mof_H 	H 	0.3399	0.0376	0.519	0.344
Mof_H 	H 	0.3083	0.0077	0.5019	0.34
Mof_H 	H 	0.3198	0.0528	0.5019	0.337
Mof_C 	C 	0.32833	0.08624	0.54614	0.245
Mof_H 	H 	0.3263	0.105	0.556	-0.053
Mof_H 	H 	0.3368	0.0984	0.5315	-0.041
Mof_C 	C 	0.39519	0.1013	0.55276	0.24
Mof_C 	C 	0.42118	0.0868	0.55634	-0.217
Mof_H 	H 	0.4111	0.0597	0.5591	0.107
Mof_C 	C 	0.46223	0.11271	0.55576	0.08
Mof_H 	H 	0.4796	0.103	0.5582	-0.002
Mof_C 	C 	0.47729	0.15313	0.55161	-0.108
Mof_H 	H 	0.5048	0.1705	0.5512	0.079
Mof_C 	C 	0.45131	0.16765	0.54804	0.001
Mof_C 	C 	0.41026	0.14174	0.54862	-0.183
Mof_H 	H 	0.3929	0.1515	0.5462	0.106
Mof_C 	C 	0.4673	0.20969	0.54393	0.305
Mof_C 	C 	0.24152	0.95659	0.50871	0.251
Mof_H 	H 	0.2165	0.932	0.5109	-0.041
Mof_H 	H 	0.263	0.9508	0.5107	-0.047
Mof_C 	C 	0.25719	0.95521	0.47075	0.225
Mof_C 	C 	0.26797	0.97613	0.45069	-0.206
Mof_H 	H 	0.2652	0.9985	0.4489	0.104
Mof_C 	C 	0.28287	0.96357	0.43329	0.066
Mof_H 	H 	0.2901	0.9776	0.4199	-0
Mof_C 	C 	0.28697	0.93006	0.43594	-0.108
Mof_H 	H 	0.2969	0.9216	0.4243	0.06
Mof_C 	C 	0.27619	0.90914	0.456	-0.003
Mof_C 	C 	0.26129	0.9217	0.4734	-0.176
Mof_H 	H 	0.2541	0.9077	0.4868	0.1
Mof_C 	C 	0.27991	0.87306	0.4587	0.294
Mof_Mn	Mn	0.1645	0.82149	0.63902	0.824
Mof_Mn	Mn	0.13998	0.88471	0.67152	0.921
Mof_Mn	Mn	0.13994	0.95427	0.70752	0.736
Mof_O 	O 	0.21141	0.8746	0.6195	-0.365
Mof_O 	O 	0.18155	0.89137	0.64353	-0.407
Mof_O 	O 	0.27502	0.04225	0.64963	-0.314
Mof_O 	O 	0.34488	0.14182	0.73174	-0.314
Mof_O 	O 	0.31303	0.1543	0.81146	-0.374
Mof_O 	O 	0.37026	0.1773	0.82963	-0.389
Mof_O 	O 	0.25511	0.1908	0.66341	-0.286
Mof_O 	O 	0.16536	0.2487	0.659	-0.369
Mof_O 	O 	0.20384	0.30759	0.6435	-0.41
Mof_O 	O 	0.1311	0.92922	0.6525	-0.38
Mof_O 	O 	0.12555	0.97022	0.67509	-0.384
Mof_O 	O 	0.17539	0.00916	0.58065	-0.298
Mof_O 	O 	0.35645	0.07444	0.5551	-0.292
Mof_O 	O 	0.44321	0.22093	0.5376	-0.397
Mof_O 	O 	0.50275	0.23537	0.54744	-0.307
Mof_O 	O 	0.24279	0.97008	0.4867	-0.293
Mof_O 	O 	0.27428	0.85712	0.47737	-0.376
Mof_O 	O 	0.28863	0.85929	0.44167	-0.355
Mof_O 	O 	0.1699	0.7731	0.6287	-0.226
Mof_O 	O 	0.1646	0.7647	0.6316	-0.224
Mof_H 	H 	0.1912	0.7702	0.6291	-0.334
Mof_H 	H 	0.1486	0.7514	0.6188	0.334
Mof_H 	H 	0.1379	0.7428	0.6325	-0.011
Mof_H 	H 	0.1806	0.7617	0.6428	0.307
Mof_H 	H 	0.1972	0.7812	0.6259	0.432
Mof_H 	H 	0.155	0.7633	0.6151	-0.203
Mof_H 	H 	0.1438	0.7502	0.6279	0.011
Mof_H 	H 	0.186	0.768	0.6387	-0.114
Mof_C 	C 	0.87537	0.23487	0.96337	0.33
Mof_C 	C 	0.9055	0.27654	0.95994	0.009
Mof_C 	C 	0.93769	0.28642	0.94557	-0.133
Mof_H 	H 	0.93747	0.26663	0.93663	0.086
Mof_C 	C 	0.96914	0.32413	0.94442	0.115
Mof_H 	H 	0.99037	0.33023	0.93483	-0.006
Mof_C 	C 	0.96937	0.35247	0.95717	-0.262
Mof_H 	H 	0.99107	0.37823	0.95653	0.11
Mof_C 	C 	0.93739	0.34417	0.97167	0.267
Mof_C 	C 	0.90553	0.30603	0.97301	-0.209
Mof_H 	H 	0.88427	0.30013	0.98253	0.116
Mof_C 	C 	0.91126	0.37138	0.99847	0.249
Mof_H 	H 	0.88637	0.36323	0.99063	-0.047
Mof_H 	H 	0.90667	0.35133	0.00963	-0.05
Mof_C 	C 	0.92625	0.41185	0.00944	-0.419
Mof_C 	C 	0.92836	0.44314	0.99702	0.484
Mof_C 	C 	0.94692	0.48074	0.00624	-0.404
Mof_C 	C 	0.95957	0.48676	0.0284	0.51
Mof_C 	C 	0.95597	0.45472	0.04062	-0.405
Mof_C 	C 	0.94068	0.41636	0.03047	0.488
Mof_C 	C 	0.94103	0.38324	0.04375	-1.024
Mof_H 	H 	0.94727	0.36733	0.03403	0.34
Mof_H 	H 	0.96077	0.39463	0.05533	0.344
Mof_H 	H 	0.91517	0.36663	0.05033	0.332
Mof_C 	C 	0.91028	0.43701	0.97363	-0.995
Mof_H 	H 	0.88387	0.41413	0.97363	0.33
Mof_H 	H 	0.90897	0.46023	0.96933	0.335
Mof_H 	H 	0.92667	0.43283	0.96323	0.314
Mof_C 	C 	0.97765	0.52747	0.03854	-1.057
Mof_H 	H 	0.96937	0.54333	0.03023	0.355
Mof_H 	H 	0.96897	0.52533	0.05373	0.344
Mof_H 	H 	0.00627	0.53993	0.03813	0.339
Mof_C 	C 	0.95408	0.51641	0.99268	0.227
Mof_H 	H 	0.95527	0.51123	0.97693	-0.036
Mof_H 	H 	0.97927	0.53943	0.99693	-0.037
Mof_C 	C 	0.92543	0.55708	0.98619	0.229
Mof_C 	C 	0.95779	0.58242	0.97289	-0.223
Mof_H 	H 	0.97837	0.57703	0.97043	0.111
Mof_C 	C 	0.95941	0.6159	0.96322	0.068
Mof_H 	H 	0.98107	0.63283	0.95433	-0.005
Mof_C 	C 	0.92867	0.62405	0.96686	-0.107
Mof_H 	H 	0.92977	0.64643	0.96043	0.064
Mof_C 	C 	0.8963	0.5987	0.98016	-0.022
Mof_C 	C 	0.89468	0.56522	0.98983	-0.165
Mof_H 	H 	0.87307	0.54833	0.99873	0.112
Mof_C 	C 	0.86383	0.60739	0.98399	0.356
Mof_C 	C 	0.97079	0.46118	0.0646	0.271
Mof_H 	H 	0.95687	0.43623	0.07273	-0.052
Mof_H 	H 	0.96527	0.48043	0.07183	-0.062
Mof_C 	C 	0.03122	0.48824	0.08473	0.254
Mof_C 	C 	0.07209	0.50268	0.08387	-0.238
Mof_H 	H 	0.08397	0.50273	0.07033	0.113
Mof_C 	C 	0.0951	0.51687	0.10279	0.087
Mof_H 	H 	0.12257	0.52723	0.10203	-0.006
Mof_C 	C 	0.07701	0.51569	0.12327	-0.115
Mof_H 	H 	0.09227	0.52423	0.13623	0.074
Mof_C 	C 	0.03656	0.50189	0.12411	0.008
Mof_C 	C 	0.01395	0.4873	0.10469	-0.208
Mof_H 	H 	0.98647	0.47673	0.10543	0.114
Mof_C 	C 	0.01645	0.50006	0.14578	0.34
Mof_C 	C 	0.79661	0.29242	0.98991	0.381
Mof_C 	C 	0.80034	0.31859	0.97072	-0.017
Mof_C 	C 	0.78729	0.34612	0.97233	-0.097
Mof_H 	H 	0.77467	0.34743	0.98533	0.071
Mof_C 	C 	0.79302	0.37164	0.95458	0.058
Mof_H 	H 	0.78427	0.39003	0.95563	0.007
Mof_C 	C 	0.81181	0.36964	0.93521	-0.214
Mof_H 	H 	0.81567	0.38673	0.92333	0.11
Mof_C 	C 	0.82486	0.34211	0.9336	0.229
Mof_C 	C 	0.81913	0.31659	0.95136	-0.176
Mof_H 	H 	0.82787	0.29823	0.95033	0.104
Mof_C 	C 	0.86335	0.32167	0.91396	0.238
Mof_H 	H 	0.87817	0.32663	0.92783	-0.043
Mof_H 	H 	0.84497	0.29323	0.91273	-0.044
Mof_C 	C 	0.89216	0.33607	0.89412	-0.401
Mof_C 	C 	0.92751	0.37177	0.89541	0.543
Mof_C 	C 	0.95612	0.38142	0.8781	-0.413
Mof_C 	C 	0.94884	0.35477	0.86128	0.48
Mof_C 	C 	0.91198	0.31952	0.85929	-0.393
Mof_C 	C 	0.88219	0.31076	0.87492	0.461
Mof_C 	C 	0.8411	0.27455	0.87274	-0.969
Mof_H 	H 	0.82177	0.28003	0.87943	0.316
Mof_H 	H 	0.83487	0.26833	0.85723	0.315
Mof_H 	H 	0.84057	0.25233	0.88023	0.306
Mof_C 	C 	0.9373	0.39891	0.91427	-1.135
Mof_H 	H 	0.95537	0.39603	0.92413	0.363
Mof_H 	H 	0.94967	0.42593	0.90893	0.37
Mof_H 	H 	0.91327	0.39263	0.92223	0.371
Mof_C 	C 	0.98237	0.36409	0.84444	-0.999
Mof_H 	H 	0.00657	0.37093	0.85233	0.344
Mof_H 	H 	0.97497	0.34103	0.83523	0.34
Mof_H 	H 	0.98647	0.38613	0.83523	0.337
Mof_C 	C 	0.995	0.41957	0.87947	0.245
Mof_H 	H 	0.99297	0.43833	0.88933	-0.053
Mof_H 	H 	0.00347	0.43173	0.86483	-0.042
Mof_C 	C 	0.06186	0.43463	0.88609	0.24
Mof_C 	C 	0.08785	0.42013	0.88967	-0.217
Mof_H 	H 	0.07777	0.39303	0.89243	0.107
Mof_C 	C 	0.1289	0.44604	0.88909	0.08
Mof_H 	H 	0.14627	0.43633	0.89153	-0.002
Mof_C 	C 	0.14396	0.48646	0.88494	-0.108
Mof_H 	H 	0.17147	0.50383	0.88453	0.079
Mof_C 	C 	0.11798	0.50098	0.88137	0.001
Mof_C 	C 	0.07693	0.47507	0.88195	-0.183
Mof_H 	H 	0.05957	0.48483	0.87953	0.106
Mof_C 	C 	0.13397	0.54302	0.87726	0.305
Mof_C 	C 	0.90819	0.28992	0.84204	0.251
Mof_H 	H 	0.88317	0.26533	0.84423	-0.041
Mof_H 	H 	0.92967	0.28413	0.84403	-0.047
Mof_C 	C 	0.92386	0.28854	0.80408	0.225
Mof_C 	C 	0.93464	0.30946	0.78402	-0.206
Mof_H 	H 	0.93187	0.33183	0.78223	0.104
Mof_C 	C 	0.94954	0.2969	0.76662	0.066
Mof_H 	H 	0.95677	0.31093	0.75323	-0
Mof_C 	C 	0.95364	0.26339	0.76927	-0.108
Mof_H 	H 	0.96357	0.25493	0.75763	0.06
Mof_C 	C 	0.94286	0.24247	0.78933	-0.003
Mof_C 	C 	0.92796	0.25503	0.80673	-0.176
Mof_H 	H 	0.92077	0.24103	0.82013	0.1
Mof_C 	C 	0.94658	0.20639	0.79203	0.294
Mof_Mn	Mn	0.83117	0.15482	0.97235	0.824
Mof_Mn	Mn	0.80665	0.21804	0.00485	0.921
Mof_Mn	Mn	0.80661	0.28761	0.04085	0.736
Mof_O 	O 	0.87808	0.20793	0.95283	-0.365
Mof_O 	O 	0.84822	0.2247	0.97686	-0.407
Mof_O 	O 	0.94169	0.37558	0.98296	-0.314
Mof_O 	O 	0.01155	0.47515	0.06507	-0.314
Mof_O 	O 	0.9797	0.48763	0.14479	-0.374
Mof_O 	O 	0.03693	0.51063	0.16296	-0.389
Mof_O 	O 	0.92178	0.52413	0.99674	-0.286
Mof_O 	O 	0.83203	0.58203	0.99233	-0.369
Mof_O 	O 	0.87051	0.64092	0.97683	-0.41
Mof_O 	O 	0.79777	0.26255	0.98583	-0.38
Mof_O 	O 	0.79222	0.30355	0.00842	-0.384
Mof_O 	O 	0.84206	0.34249	0.91398	-0.298
Mof_O 	O 	0.02312	0.40777	0.88843	-0.292
Mof_O 	O 	0.10988	0.55426	0.87093	-0.397
Mof_O 	O 	0.16942	0.5687	0.88077	-0.307
Mof_O 	O 	0.90946	0.30341	0.82003	-0.293
Mof_O 	O 	0.94095	0.19045	0.8107	-0.376
Mof_O 	O 	0.9553	0.19262	0.775	-0.355
Mof_O 	O 	0.83657	0.10643	0.96203	-0.226
Mof_O 	O 	0.83127	0.09803	0.96493	-0.224
Mof_H 	H 	0.85787	0.10353	0.96243	-0.334
Mof_H 	H 	0.81527	0.08473	0.95213	0.334
Mof_H 	H 	0.80457	0.07613	0.96583	-0.011
Mof_H 	H 	0.84727	0.09503	0.97613	0.307
Mof_H 	H 	0.86387	0.11453	0.95923	0.432
Mof_H 	H 	0.82167	0.09663	0.94843	-0.203
Mof_H 	H 	0.81047	0.08353	0.96123	0.011
Mof_H 	H 	0.85267	0.10133	0.97203	-0.114
Mof_C 	C 	0.54203	0.56821	0.29671	0.33
Mof_C 	C 	0.57216	0.60988	0.29328	0.009
Mof_C 	C 	0.60435	0.61976	0.27891	-0.133
Mof_H 	H 	0.60413	0.59997	0.26997	0.086
Mof_C 	C 	0.6358	0.65747	0.27776	0.115
Mof_H 	H 	0.65703	0.66357	0.26817	-0.006
Mof_C 	C 	0.63603	0.68581	0.29051	-0.262
Mof_H 	H 	0.65773	0.71157	0.28987	0.11
Mof_C 	C 	0.60405	0.67751	0.30501	0.267
Mof_C 	C 	0.57219	0.63937	0.30635	-0.209
Mof_H 	H 	0.55093	0.63347	0.31587	0.116
Mof_C 	C 	0.57792	0.70472	0.33181	0.249
Mof_H 	H 	0.55303	0.69657	0.32397	-0.047
Mof_H 	H 	0.57333	0.68467	0.34297	-0.05
Mof_C 	C 	0.59291	0.74519	0.34278	-0.419
Mof_C 	C 	0.59502	0.77648	0.33036	0.484
Mof_C 	C 	0.61358	0.81408	0.33958	-0.404
Mof_C 	C 	0.62623	0.8201	0.36174	0.51
Mof_C 	C 	0.62263	0.78806	0.37396	-0.405
Mof_C 	C 	0.60734	0.7497	0.36381	0.488
Mof_C 	C 	0.60769	0.71658	0.37709	-1.024
Mof_H 	H 	0.61393	0.70067	0.36737	0.34
Mof_H 	H 	0.62743	0.72797	0.38867	0.344
Mof_H 	H 	0.58183	0.69997	0.38367	0.332
Mof_C 	C 	0.57694	0.77035	0.30697	-0.995
Mof_H 	H 	0.55053	0.74747	0.30697	0.33
Mof_H 	H 	0.57563	0.79357	0.30267	0.335
Mof_H 	H 	0.59333	0.76617	0.29657	0.314
Mof_C 	C 	0.64431	0.86081	0.37188	-1.057
Mof_H 	H 	0.63603	0.87667	0.36357	0.355
Mof_H 	H 	0.63563	0.85867	0.38707	0.344
Mof_H 	H 	0.67293	0.87327	0.37147	0.339
Mof_C 	C 	0.62074	0.84975	0.32602	0.227
Mof_H 	H 	0.62193	0.84457	0.31027	-0.036
Mof_H 	H 	0.64593	0.87277	0.33027	-0.037
Mof_C 	C 	0.59209	0.89042	0.31953	0.229
Mof_C 	C 	0.62445	0.91576	0.30623	-0.223
Mof_H 	H 	0.64503	0.91037	0.30377	0.111
Mof_C 	C 	0.62607	0.94924	0.29656	0.068
Mof_H 	H 	0.64773	0.96617	0.28767	-0.005
Mof_C 	C 	0.59533	0.95739	0.3002	-0.107
Mof_H 	H 	0.59643	0.97977	0.29377	0.064
Mof_C 	C 	0.56296	0.93204	0.3135	-0.022
Mof_C 	C 	0.56134	0.89856	0.32317	-0.165
Mof_H 	H 	0.53973	0.88167	0.33207	0.112
Mof_C 	C 	0.53049	0.94073	0.31733	0.356
Mof_C 	C 	0.63745	0.79452	0.39794	0.271
Mof_H 	H 	0.62353	0.76957	0.40607	-0.051
Mof_H 	H 	0.63193	0.81377	0.40517	-0.062
Mof_C 	C 	0.69788	0.82158	0.41807	0.254
Mof_C 	C 	0.73875	0.83602	0.41721	-0.238
Mof_H 	H 	0.75063	0.83607	0.40367	0.113
Mof_C 	C 	0.76176	0.85021	0.43613	0.087
Mof_H 	H 	0.78923	0.86057	0.43537	-0.006
Mof_C 	C 	0.74367	0.84903	0.45661	-0.115
Mof_H 	H 	0.75893	0.85757	0.46957	0.074
Mof_C 	C 	0.70322	0.83523	0.45745	0.008
Mof_C 	C 	0.68061	0.82064	0.43803	-0.208
Mof_H 	H 	0.65313	0.81007	0.43877	0.114
Mof_C 	C 	0.68311	0.8334	0.47912	0.34
Mof_C 	C 	0.46327	0.62576	0.32325	0.381
Mof_C 	C 	0.467	0.65193	0.30406	-0.017
Mof_C 	C 	0.45395	0.67946	0.30567	-0.097
Mof_H 	H 	0.44133	0.68077	0.31867	0.071
Mof_C 	C 	0.45968	0.70498	0.28792	0.058
Mof_H 	H 	0.45093	0.72337	0.28897	0.007
Mof_C 	C 	0.47847	0.70298	0.26855	-0.214
Mof_H 	H 	0.48233	0.72007	0.25667	0.11
Mof_C 	C 	0.49152	0.67545	0.26694	0.229
Mof_C 	C 	0.48579	0.64993	0.2847	-0.176
Mof_H 	H 	0.49453	0.63157	0.28367	0.104
Mof_C 	C 	0.53001	0.65501	0.2473	0.238
Mof_H 	H 	0.54483	0.65997	0.26117	-0.043
Mof_H 	H 	0.51163	0.62657	0.24607	-0.044
Mof_C 	C 	0.55882	0.66941	0.22746	-0.401
Mof_C 	C 	0.59417	0.70511	0.22875	0.543
Mof_C 	C 	0.62278	0.71476	0.21144	-0.413
Mof_C 	C 	0.6155	0.68811	0.19462	0.48
Mof_C 	C 	0.57864	0.65286	0.19263	-0.393
Mof_C 	C 	0.54885	0.6441	0.20826	0.461
Mof_C 	C 	0.50776	0.60789	0.20608	-0.969
Mof_H 	H 	0.48843	0.61337	0.21277	0.316
Mof_H 	H 	0.50153	0.60167	0.19057	0.315
Mof_H 	H 	0.50723	0.58567	0.21357	0.306
Mof_C 	C 	0.60396	0.73225	0.24761	-1.135
Mof_H 	H 	0.62203	0.72937	0.25747	0.363
Mof_H 	H 	0.61633	0.75927	0.24227	0.37
Mof_H 	H 	0.57993	0.72597	0.25557	0.371
Mof_C 	C 	0.64903	0.69743	0.17778	-0.999
Mof_H 	H 	0.67323	0.70427	0.18567	0.344
Mof_H 	H 	0.64163	0.67437	0.16857	0.34
Mof_H 	H 	0.65313	0.71947	0.16857	0.337
Mof_C 	C 	0.66166	0.75291	0.21281	0.245
Mof_H 	H 	0.65963	0.77167	0.22267	-0.053
Mof_H 	H 	0.67013	0.76507	0.19817	-0.041
Mof_C 	C 	0.72852	0.76797	0.21943	0.24
Mof_C 	C 	0.75451	0.75347	0.22301	-0.217
Mof_H 	H 	0.74443	0.72637	0.22577	0.107
Mof_C 	C 	0.79556	0.77938	0.22243	0.08
Mof_H 	H 	0.81293	0.76967	0.22487	-0.002
Mof_C 	C 	0.81062	0.8198	0.21828	-0.108
Mof_H 	H 	0.83813	0.83717	0.21787	0.079
Mof_C 	C 	0.78464	0.83432	0.21471	0.001
Mof_C 	C 	0.74359	0.80841	0.21529	-0.183
Mof_H 	H 	0.72623	0.81817	0.21287	0.106
Mof_C 	C 	0.80063	0.87636	0.2106	0.305
Mof_C 	C 	0.57485	0.62326	0.17538	0.251
Mof_H 	H 	0.54983	0.59867	0.17757	-0.041
Mof_H 	H 	0.59633	0.61747	0.17737	-0.047
Mof_C 	C 	0.59052	0.62188	0.13742	0.225
Mof_C 	C 	0.6013	0.6428	0.11736	-0.206
Mof_H 	H 	0.59853	0.66517	0.11557	0.104
Mof_C 	C 	0.6162	0.63024	0.09996	0.066
Mof_H 	H 	0.62343	0.64427	0.08657	-0
Mof_C 	C 	0.6203	0.59673	0.10261	-0.108
Mof_H 	H 	0.63023	0.58827	0.09097	0.06
Mof_C 	C 	0.60952	0.57581	0.12267	-0.003
Mof_C 	C 	0.59462	0.58837	0.14007	-0.176
Mof_H 	H 	0.58743	0.57437	0.15347	0.1
Mof_C 	C 	0.61324	0.53973	0.12537	0.294
Mof_Mn	Mn	0.49784	0.48815	0.30569	0.824
Mof_Mn	Mn	0.47331	0.55137	0.33818	0.921
Mof_Mn	Mn	0.47328	0.62094	0.37418	0.736
Mof_O 	O 	0.54474	0.54127	0.28617	-0.365
Mof_O 	O 	0.51488	0.55804	0.3102	-0.407
Mof_O 	O 	0.60835	0.70892	0.3163	-0.314
Mof_O 	O 	0.67821	0.80849	0.39841	-0.314
Mof_O 	O 	0.64636	0.82097	0.47813	-0.374
Mof_O 	O 	0.70359	0.84397	0.4963	-0.389
Mof_O 	O 	0.58844	0.85747	0.33008	-0.286
Mof_O 	O 	0.49869	0.91537	0.32567	-0.369
Mof_O 	O 	0.53717	0.97426	0.31017	-0.41
Mof_O 	O 	0.46443	0.59589	0.31917	-0.38
Mof_O 	O 	0.45888	0.63689	0.34176	-0.384
Mof_O 	O 	0.50872	0.67583	0.24732	-0.298
Mof_O 	O 	0.68978	0.74111	0.22177	-0.292
Mof_O 	O 	0.77654	0.8876	0.20427	-0.397
Mof_O 	O 	0.83608	0.90204	0.21411	-0.307
Mof_O 	O 	0.57612	0.63675	0.15337	-0.293
Mof_O 	O 	0.60761	0.52379	0.14404	-0.376
Mof_O 	O 	0.62196	0.52596	0.10834	-0.355
Mof_O 	O 	0.50323	0.43977	0.29537	-0.226
Mof_O 	O 	0.49793	0.43137	0.29827	-0.224
Mof_H 	H 	0.52453	0.43687	0.29577	-0.335
Mof_H 	H 	0.48193	0.41807	0.28547	0.334
Mof_H 	H 	0.47123	0.40947	0.29917	-0.011
Mof_H 	H 	0.51393	0.42837	0.30947	0.307
Mof_H 	H 	0.53053	0.44787	0.29257	0.432
Mof_H 	H 	0.48833	0.42997	0.28177	-0.203
Mof_H 	H 	0.47713	0.41687	0.29457	0.011
Mof_H 	H 	0.51933	0.43467	0.30537	-0.114
Mof_C 	C 	0.09846	0.30716	0.63004	0.33
Mof_C 	C 	0.05679	0.29562	0.62661	0.009
Mof_C 	C 	0.04691	0.31793	0.61224	-0.133
Mof_H 	H 	0.0667	0.3375	0.6033	0.086
Mof_C 	C 	0.0092	0.31167	0.61109	0.115
Mof_H 	H 	0.0031	0.3268	0.6015	-0.006
Mof_C 	C 	0.98086	0.28356	0.62384	-0.262
Mof_H 	H 	0.9551	0.2795	0.6232	0.11
Mof_C 	C 	0.98916	0.25988	0.63834	0.267
Mof_C 	C 	0.0273	0.26616	0.63968	-0.209
Mof_H 	H 	0.0332	0.2508	0.6492	0.116
Mof_C 	C 	0.96195	0.20654	0.66514	0.249
Mof_H 	H 	0.9701	0.1898	0.6573	-0.047
Mof_H 	H 	0.982	0.222	0.6763	-0.05
Mof_C 	C 	0.92148	0.18106	0.67611	-0.419
Mof_C 	C 	0.89019	0.15188	0.66369	0.484
Mof_C 	C 	0.85259	0.13284	0.67291	-0.404
Mof_C 	C 	0.84657	0.13947	0.69507	0.51
Mof_C 	C 	0.87861	0.16791	0.70729	-0.405
Mof_C 	C 	0.91697	0.19098	0.69714	0.488
Mof_C 	C 	0.95009	0.22445	0.71042	-1.024
Mof_H 	H 	0.966	0.2466	0.7007	0.34
Mof_H 	H 	0.9387	0.2328	0.722	0.344
Mof_H 	H 	0.9667	0.2152	0.717	0.332
Mof_C 	C 	0.89632	0.13993	0.6403	-0.995
Mof_H 	H 	0.9192	0.1364	0.6403	0.33
Mof_H 	H 	0.8731	0.1154	0.636	0.335
Mof_H 	H 	0.9005	0.1605	0.6299	0.314
Mof_C 	C 	0.80586	0.11684	0.70521	-1.057
Mof_H 	H 	0.79	0.0927	0.6969	0.355
Mof_H 	H 	0.808	0.1103	0.7204	0.344
Mof_H 	H 	0.7934	0.133	0.7048	0.339
Mof_C 	C 	0.81692	0.10433	0.65935	0.227
Mof_H 	H 	0.8221	0.1107	0.6436	-0.036
Mof_H 	H 	0.7939	0.1065	0.6636	-0.037
Mof_C 	C 	0.77625	0.03501	0.65286	0.229
Mof_C 	C 	0.75091	0.04203	0.63956	-0.223
Mof_H 	H 	0.7563	0.068	0.6371	0.111
Mof_C 	C 	0.71743	0.01017	0.62989	0.068
Mof_H 	H 	0.7005	0.0149	0.621	-0.005
Mof_C 	C 	0.70928	0.97128	0.63353	-0.107
Mof_H 	H 	0.6869	0.95	0.6271	0.064
Mof_C 	C 	0.73463	0.96426	0.64683	-0.022
Mof_C 	C 	0.76811	0.99612	0.6565	-0.165
Mof_H 	H 	0.785	0.9914	0.6654	0.112
Mof_C 	C 	0.72594	0.9231	0.65066	0.356
Mof_C 	C 	0.87215	0.17627	0.73127	0.271
Mof_H 	H 	0.8971	0.1873	0.7394	-0.051
Mof_H 	H 	0.8529	0.1515	0.7385	-0.062
Mof_C 	C 	0.84509	0.20964	0.7514	0.254
Mof_C 	C 	0.83065	0.23607	0.75054	-0.238
Mof_H 	H 	0.8306	0.2479	0.737	0.113
Mof_C 	C 	0.81646	0.24489	0.76946	0.087
Mof_H 	H 	0.8061	0.262	0.7687	-0.006
Mof_C 	C 	0.81764	0.22798	0.78994	-0.115
Mof_H 	H 	0.8091	0.2347	0.8029	0.074
Mof_C 	C 	0.83144	0.20133	0.79078	0.008
Mof_C 	C 	0.84603	0.19331	0.77136	-0.208
Mof_H 	H 	0.8566	0.1764	0.7721	0.114
Mof_C 	C 	0.83327	0.18305	0.81245	0.34
Mof_C 	C 	0.04091	0.17085	0.65658	0.381
Mof_C 	C 	0.01474	0.14841	0.63739	-0.017
Mof_C 	C 	0.98721	0.10783	0.639	-0.097
Mof_H 	H 	0.9859	0.0939	0.652	0.071
Mof_C 	C 	0.96169	0.08804	0.62125	0.058
Mof_H 	H 	0.9433	0.0609	0.6223	0.007
Mof_C 	C 	0.96369	0.10883	0.60188	-0.214
Mof_H 	H 	0.9466	0.0956	0.59	0.11
Mof_C 	C 	0.99122	0.14941	0.60027	0.229
Mof_C 	C 	0.01674	0.1692	0.61803	-0.176
Mof_H 	H 	0.0351	0.1963	0.617	0.104
Mof_C 	C 	0.01166	0.20834	0.58063	0.238
Mof_H 	H 	0.0067	0.2182	0.5945	-0.043
Mof_H 	H 	0.0401	0.2184	0.5794	-0.044
Mof_C 	C 	0.99726	0.22275	0.56079	-0.401
Mof_C 	C 	0.96156	0.2224	0.56208	0.543
Mof_C 	C 	0.95191	0.24136	0.54477	-0.413
Mof_C 	C 	0.97856	0.26073	0.52795	0.48
Mof_C 	C 	0.01381	0.25912	0.52596	-0.393
Mof_C 	C 	0.02257	0.23809	0.54159	0.461
Mof_C 	C 	0.05878	0.23321	0.53941	-0.969
Mof_H 	H 	0.0533	0.2084	0.5461	0.316
Mof_H 	H 	0.065	0.2332	0.5239	0.315
Mof_H 	H 	0.081	0.2549	0.5469	0.306
Mof_C 	C 	0.93442	0.20505	0.58094	-1.135
Mof_H 	H 	0.9373	0.226	0.5908	0.363
Mof_H 	H 	0.9074	0.1904	0.5756	0.37
Mof_H 	H 	0.9407	0.1873	0.5889	0.371
Mof_C 	C 	0.96924	0.28494	0.51111	-0.999
Mof_H 	H 	0.9624	0.3023	0.519	0.344
Mof_H 	H 	0.9923	0.3006	0.5019	0.34
Mof_H 	H 	0.9472	0.267	0.5019	0.337
Mof_C 	C 	0.91376	0.24209	0.54614	0.245
Mof_H 	H 	0.895	0.2213	0.556	-0.053
Mof_H 	H 	0.9016	0.2384	0.5315	-0.041
Mof_C 	C 	0.8987	0.29389	0.55276	0.24
Mof_C 	C 	0.9132	0.33438	0.55634	-0.217
Mof_H 	H 	0.9403	0.3514	0.5591	0.107
Mof_C 	C 	0.88729	0.34952	0.55576	0.08
Mof_H 	H 	0.897	0.3766	0.5582	-0.002
Mof_C 	C 	0.84687	0.32416	0.55161	-0.108
Mof_H 	H 	0.8295	0.3343	0.5512	0.079
Mof_C 	C 	0.83235	0.28366	0.54804	0.001
Mof_C 	C 	0.85826	0.26852	0.54862	-0.183
Mof_H 	H 	0.8485	0.2414	0.5462	0.106
Mof_C 	C 	0.79031	0.25761	0.54393	0.305
Mof_C 	C 	0.04341	0.28493	0.50871	0.251
Mof_H 	H 	0.068	0.2845	0.5109	-0.041
Mof_H 	H 	0.0492	0.3122	0.5107	-0.047
Mof_C 	C 	0.04479	0.30198	0.47075	0.225
Mof_C 	C 	0.02387	0.29184	0.45069	-0.206
Mof_H 	H 	0.0015	0.2667	0.4489	0.104
Mof_C 	C 	0.03643	0.3193	0.43329	0.066
Mof_H 	H 	0.0224	0.3125	0.4199	-0
Mof_C 	C 	0.06994	0.35691	0.43594	-0.108
Mof_H 	H 	0.0784	0.3753	0.4243	0.06
Mof_C 	C 	0.09086	0.36705	0.456	-0.003
Mof_C 	C 	0.0783	0.33959	0.4734	-0.176
Mof_H 	H 	0.0923	0.3464	0.4868	0.1
Mof_C 	C 	0.12694	0.40685	0.4587	0.294
Mof_Mn	Mn	0.17851	0.34302	0.63902	0.824
Mof_Mn	Mn	0.11529	0.25527	0.67152	0.921
Mof_Mn	Mn	0.04573	0.18567	0.70752	0.736
Mof_O 	O 	0.1254	0.33681	0.6195	-0.365
Mof_O 	O 	0.10863	0.29018	0.64353	-0.407
Mof_O 	O 	0.95775	0.23277	0.64963	-0.314
Mof_O 	O 	0.85818	0.20306	0.73174	-0.314
Mof_O 	O 	0.8457	0.15873	0.81146	-0.374
Mof_O 	O 	0.8227	0.19296	0.82963	-0.389
Mof_O 	O 	0.8092	0.06431	0.66341	-0.286
Mof_O 	O 	0.7513	0.91666	0.659	-0.369
Mof_O 	O 	0.69241	0.89625	0.6435	-0.41
Mof_O 	O 	0.07078	0.20188	0.6525	-0.38
Mof_O 	O 	0.02978	0.15533	0.67509	-0.384
Mof_O 	O 	0.99084	0.16623	0.58065	-0.298
Mof_O 	O 	0.92556	0.28201	0.5551	-0.292
Mof_O 	O 	0.77907	0.22228	0.5376	-0.397
Mof_O 	O 	0.76463	0.26738	0.54744	-0.307
Mof_O 	O 	0.02992	0.27271	0.4867	-0.293
Mof_O 	O 	0.14288	0.41716	0.47737	-0.376
Mof_O 	O 	0.14071	0.42934	0.44167	-0.355
Mof_O 	O 	0.2269	0.3968	0.6287	-0.226
Mof_O 	O 	0.2353	0.3999	0.6316	-0.224
Mof_H 	H 	0.2298	0.421	0.6291	-0.334
Mof_H 	H 	0.2486	0.3972	0.6188	0.334
Mof_H 	H 	0.2572	0.3951	0.6325	-0.011
Mof_H 	H 	0.2383	0.4189	0.6428	0.307
Mof_H 	H 	0.2188	0.416	0.6259	0.432
Mof_H 	H 	0.2367	0.3917	0.6151	-0.203
Mof_H 	H 	0.2498	0.3936	0.6279	0.011
Mof_H 	H 	0.232	0.418	0.6387	-0.114
Mof_C 	C 	0.76513	0.64049	0.96337	0.33
Mof_C 	C 	0.72346	0.62895	0.95994	0.009
Mof_C 	C 	0.71358	0.65126	0.94557	-0.133
Mof_H 	H 	0.73337	0.67083	0.93663	0.086
Mof_C 	C 	0.67587	0.645	0.94442	0.115
Mof_H 	H 	0.66977	0.66013	0.93483	-0.006
Mof_C 	C 	0.64753	0.61689	0.95717	-0.262
Mof_H 	H 	0.62177	0.61283	0.95653	0.11
Mof_C 	C 	0.65583	0.59321	0.97167	0.267
Mof_C 	C 	0.69397	0.59949	0.97301	-0.209
Mof_H 	H 	0.69987	0.58413	0.98253	0.116
Mof_C 	C 	0.62862	0.53987	0.99847	0.249
Mof_H 	H 	0.63677	0.52313	0.99063	-0.047
Mof_H 	H 	0.64867	0.55533	0.00963	-0.05
Mof_C 	C 	0.58815	0.51439	0.00944	-0.419
Mof_C 	C 	0.55686	0.48521	0.99702	0.484
Mof_C 	C 	0.51926	0.46617	0.00624	-0.404
Mof_C 	C 	0.51324	0.4728	0.0284	0.51
Mof_C 	C 	0.54528	0.50124	0.04062	-0.405
Mof_C 	C 	0.58364	0.52431	0.03047	0.488
Mof_C 	C 	0.61676	0.55778	0.04375	-1.024
Mof_H 	H 	0.63267	0.57993	0.03403	0.34
Mof_H 	H 	0.60537	0.56613	0.05533	0.344
Mof_H 	H 	0.63337	0.54853	0.05033	0.332
Mof_C 	C 	0.56299	0.47326	0.97363	-0.995
Mof_H 	H 	0.58587	0.46973	0.97363	0.33
Mof_H 	H 	0.53977	0.44873	0.96933	0.335
Mof_H 	H 	0.56717	0.49383	0.96323	0.314
Mof_C 	C 	0.47253	0.45017	0.03854	-1.057
Mof_H 	H 	0.45667	0.42603	0.03023	0.355
Mof_H 	H 	0.47467	0.44363	0.05373	0.344
Mof_H 	H 	0.46007	0.46633	0.03813	0.339
Mof_C 	C 	0.48359	0.43766	0.99268	0.227
Mof_H 	H 	0.48877	0.44403	0.97693	-0.036
Mof_H 	H 	0.46057	0.43983	0.99693	-0.037
Mof_C 	C 	0.44292	0.36834	0.98619	0.229
Mof_C 	C 	0.41758	0.37536	0.97289	-0.223
Mof_H 	H 	0.42297	0.40133	0.97043	0.111
Mof_C 	C 	0.3841	0.3435	0.96322	0.068
Mof_H 	H 	0.36717	0.34823	0.95433	-0.005
Mof_C 	C 	0.37595	0.30461	0.96686	-0.107
Mof_H 	H 	0.35357	0.28333	0.96043	0.064
Mof_C 	C 	0.4013	0.29759	0.98016	-0.022
Mof_C 	C 	0.43478	0.32945	0.98983	-0.165
Mof_H 	H 	0.45167	0.32473	0.99873	0.112
Mof_C 	C 	0.39261	0.25643	0.98399	0.356
Mof_C 	C 	0.53882	0.5096	0.0646	0.271
Mof_H 	H 	0.56377	0.52063	0.07273	-0.052
Mof_H 	H 	0.51957	0.48483	0.07183	-0.062
Mof_C 	C 	0.51176	0.54297	0.08473	0.254
Mof_C 	C 	0.49732	0.5694	0.08387	-0.238
Mof_H 	H 	0.49727	0.58123	0.07033	0.113
Mof_C 	C 	0.48313	0.57822	0.10279	0.087
Mof_H 	H 	0.47277	0.59533	0.10203	-0.006
Mof_C 	C 	0.48431	0.56131	0.12327	-0.115
Mof_H 	H 	0.47577	0.56803	0.13623	0.074
Mof_C 	C 	0.49811	0.53466	0.12411	0.008
Mof_C 	C 	0.5127	0.52664	0.10469	-0.208
Mof_H 	H 	0.52327	0.50973	0.10543	0.114
Mof_C 	C 	0.49994	0.51638	0.14578	0.34
Mof_C 	C 	0.70758	0.50418	0.98991	0.381
Mof_C 	C 	0.68141	0.48174	0.97072	-0.017
Mof_C 	C 	0.65388	0.44116	0.97233	-0.097
Mof_H 	H 	0.65257	0.42723	0.98533	0.071
Mof_C 	C 	0.62836	0.42137	0.95458	0.058
Mof_H 	H 	0.60997	0.39423	0.95563	0.007
Mof_C 	C 	0.63036	0.44216	0.93521	-0.214
Mof_H 	H 	0.61327	0.42893	0.92333	0.11
Mof_C 	C 	0.65789	0.48274	0.9336	0.229
Mof_C 	C 	0.68341	0.50253	0.95136	-0.176
Mof_H 	H 	0.70177	0.52963	0.95033	0.104
Mof_C 	C 	0.67833	0.54167	0.91396	0.238
Mof_H 	H 	0.67337	0.55153	0.92783	-0.043
Mof_H 	H 	0.70677	0.55173	0.91273	-0.044
Mof_C 	C 	0.66393	0.55608	0.89412	-0.401
Mof_C 	C 	0.62823	0.55573	0.89541	0.543
Mof_C 	C 	0.61858	0.57469	0.8781	-0.413
Mof_C 	C 	0.64523	0.59406	0.86128	0.48
Mof_C 	C 	0.68048	0.59245	0.85929	-0.393
Mof_C 	C 	0.68924	0.57142	0.87492	0.461
Mof_C 	C 	0.72545	0.56654	0.87274	-0.969
Mof_H 	H 	0.71997	0.54173	0.87943	0.316
Mof_H 	H 	0.73167	0.56653	0.85723	0.315
Mof_H 	H 	0.74767	0.58823	0.88023	0.306
Mof_C 	C 	0.60109	0.53838	0.91427	-1.135
Mof_H 	H 	0.60397	0.55933	0.92413	0.363
Mof_H 	H 	0.57407	0.52373	0.90893	0.37
Mof_H 	H 	0.60737	0.52063	0.92223	0.371
Mof_C 	C 	0.63591	0.61827	0.84444	-0.999
Mof_H 	H 	0.62907	0.63563	0.85233	0.344
Mof_H 	H 	0.65897	0.63393	0.83523	0.34
Mof_H 	H 	0.61387	0.60033	0.83523	0.337
Mof_C 	C 	0.58043	0.57542	0.87947	0.245
Mof_H 	H 	0.56167	0.55463	0.88933	-0.053
Mof_H 	H 	0.56827	0.57173	0.86483	-0.041
Mof_C 	C 	0.56537	0.62722	0.88609	0.24
Mof_C 	C 	0.57987	0.66771	0.88967	-0.217
Mof_H 	H 	0.60697	0.68473	0.89243	0.107
Mof_C 	C 	0.55396	0.68285	0.88909	0.08
Mof_H 	H 	0.56367	0.70993	0.89153	-0.002
Mof_C 	C 	0.51354	0.65749	0.88494	-0.108
Mof_H 	H 	0.49617	0.66763	0.88453	0.079
Mof_C 	C 	0.49902	0.61699	0.88137	0.001
Mof_C 	C 	0.52493	0.60185	0.88195	-0.183
Mof_H 	H 	0.51517	0.57473	0.87953	0.106
Mof_C 	C 	0.45698	0.59094	0.87726	0.305
Mof_C 	C 	0.71008	0.61826	0.84204	0.251
Mof_H 	H 	0.73467	0.61783	0.84423	-0.041
Mof_H 	H 	0.71587	0.64553	0.84403	-0.047
Mof_C 	C 	0.71146	0.63531	0.80408	0.225
Mof_C 	C 	0.69054	0.62517	0.78402	-0.206
Mof_H 	H 	0.66817	0.60003	0.78223	0.104
Mof_C 	C 	0.7031	0.65263	0.76662	0.066
Mof_H 	H 	0.68907	0.64583	0.75323	-0
Mof_C 	C 	0.73661	0.69024	0.76927	-0.108
Mof_H 	H 	0.74507	0.70863	0.75763	0.06
Mof_C 	C 	0.75753	0.70038	0.78933	-0.003
Mof_C 	C 	0.74497	0.67292	0.80673	-0.176
Mof_H 	H 	0.75897	0.67973	0.82013	0.1
Mof_C 	C 	0.79361	0.74018	0.79203	0.294
Mof_Mn	Mn	0.84518	0.67635	0.97235	0.824
Mof_Mn	Mn	0.78196	0.58861	0.00485	0.921
Mof_Mn	Mn	0.71239	0.519	0.04085	0.736
Mof_O 	O 	0.79207	0.67014	0.95283	-0.365
Mof_O 	O 	0.7753	0.62351	0.97686	-0.407
Mof_O 	O 	0.62442	0.5661	0.98296	-0.314
Mof_O 	O 	0.52485	0.53639	0.06507	-0.314
Mof_O 	O 	0.51237	0.49206	0.14479	-0.374
Mof_O 	O 	0.48937	0.52629	0.16296	-0.389
Mof_O 	O 	0.47587	0.39764	0.99674	-0.286
Mof_O 	O 	0.41797	0.24999	0.99233	-0.369
Mof_O 	O 	0.35908	0.22958	0.97683	-0.41
Mof_O 	O 	0.73745	0.53521	0.98583	-0.38
Mof_O 	O 	0.69645	0.48866	0.00842	-0.384
Mof_O 	O 	0.65751	0.49956	0.91398	-0.298
Mof_O 	O 	0.59223	0.61534	0.88843	-0.292
Mof_O 	O 	0.44574	0.55561	0.87093	-0.397
Mof_O 	O 	0.4313	0.60071	0.88077	-0.307
Mof_O 	O 	0.69659	0.60604	0.82003	-0.293
Mof_O 	O 	0.80955	0.75049	0.8107	-0.376
Mof_O 	O 	0.80738	0.76267	0.775	-0.355
Mof_O 	O 	0.89357	0.73013	0.96203	-0.226
Mof_O 	O 	0.90197	0.73323	0.96493	-0.224
Mof_H 	H 	0.89647	0.75433	0.96243	-0.334
Mof_H 	H 	0.91527	0.73053	0.95213	0.334
Mof_H 	H 	0.92387	0.72843	0.96583	-0.011
Mof_H 	H 	0.90497	0.75223	0.97613	0.307
Mof_H 	H 	0.88547	0.74933	0.95923	0.432
Mof_H 	H 	0.90337	0.72503	0.94843	-0.203
Mof_H 	H 	0.91647	0.72693	0.96123	0.011
Mof_H 	H 	0.89867	0.75133	0.97203	-0.114
Mof_C 	C 	0.43179	0.97383	0.29671	0.33
Mof_C 	C 	0.39012	0.96229	0.29328	0.009
Mof_C 	C 	0.38024	0.9846	0.27891	-0.133
Mof_H 	H 	0.40003	0.00417	0.26997	0.086
Mof_C 	C 	0.34253	0.97834	0.27776	0.115
Mof_H 	H 	0.33643	0.99347	0.26817	-0.006
Mof_C 	C 	0.31419	0.95023	0.29051	-0.262
Mof_H 	H 	0.28843	0.94617	0.28987	0.11
Mof_C 	C 	0.32249	0.92655	0.30501	0.267
Mof_C 	C 	0.36063	0.93283	0.30635	-0.209
Mof_H 	H 	0.36653	0.91747	0.31587	0.116
Mof_C 	C 	0.29528	0.87321	0.33181	0.249
Mof_H 	H 	0.30343	0.85647	0.32397	-0.047
Mof_H 	H 	0.31533	0.88867	0.34297	-0.05
Mof_C 	C 	0.25481	0.84773	0.34278	-0.419
Mof_C 	C 	0.22352	0.81855	0.33036	0.484
Mof_C 	C 	0.18592	0.79951	0.33958	-0.404
Mof_C 	C 	0.1799	0.80614	0.36174	0.51
Mof_C 	C 	0.21194	0.83458	0.37396	-0.405
Mof_C 	C 	0.2503	0.85765	0.36381	0.488
Mof_C 	C 	0.28342	0.89112	0.37709	-1.024
Mof_H 	H 	0.29933	0.91327	0.36737	0.34
Mof_H 	H 	0.27203	0.89947	0.38867	0.344
Mof_H 	H 	0.30003	0.88187	0.38367	0.332
Mof_C 	C 	0.22965	0.8066	0.30697	-0.995
Mof_H 	H 	0.25253	0.80307	0.30697	0.33
Mof_H 	H 	0.20643	0.78207	0.30267	0.335
Mof_H 	H 	0.23383	0.82717	0.29657	0.314
Mof_C 	C 	0.13919	0.78351	0.37188	-1.057
Mof_H 	H 	0.12333	0.75937	0.36357	0.355
Mof_H 	H 	0.14133	0.77697	0.38707	0.344
Mof_H 	H 	0.12673	0.79967	0.37147	0.339
Mof_C 	C 	0.15025	0.771	0.32602	0.227
Mof_H 	H 	0.15543	0.77737	0.31027	-0.036
Mof_H 	H 	0.12723	0.77317	0.33027	-0.037
Mof_C 	C 	0.10958	0.70168	0.31953	0.229
Mof_C 	C 	0.08424	0.7087	0.30623	-0.223
Mof_H 	H 	0.08963	0.73467	0.30377	0.111
Mof_C 	C 	0.05076	0.67684	0.29656	0.068
Mof_H 	H 	0.03383	0.68157	0.28767	-0.005
Mof_C 	C 	0.04261	0.63795	0.3002	-0.107
Mof_H 	H 	0.02023	0.61667	0.29377	0.064
Mof_C 	C 	0.06796	0.63093	0.3135	-0.022
Mof_C 	C 	0.10144	0.66279	0.32317	-0.165
Mof_H 	H 	0.11833	0.65807	0.33207	0.112
Mof_C 	C 	0.05927	0.58977	0.31733	0.356
Mof_C 	C 	0.20548	0.84294	0.39794	0.271
Mof_H 	H 	0.23043	0.85397	0.40607	-0.051
Mof_H 	H 	0.18623	0.81817	0.40517	-0.062
Mof_C 	C 	0.17842	0.87631	0.41807	0.254
Mof_C 	C 	0.16398	0.90274	0.41721	-0.238
Mof_H 	H 	0.16393	0.91457	0.40367	0.113
Mof_C 	C 	0.14979	0.91156	0.43613	0.087
Mof_H 	H 	0.13943	0.92867	0.43537	-0.006
Mof_C 	C 	0.15097	0.89465	0.45661	-0.115
Mof_H 	H 	0.14243	0.90137	0.46957	0.074
Mof_C 	C 	0.16477	0.868	0.45745	0.008
Mof_C 	C 	0.17936	0.85998	0.43803	-0.208
Mof_H 	H 	0.18993	0.84307	0.43877	0.114
Mof_C 	C 	0.1666	0.84972	0.47912	0.34
Mof_C 	C 	0.37424	0.83752	0.32325	0.381
Mof_C 	C 	0.34807	0.81508	0.30406	-0.017
Mof_C 	C 	0.32054	0.7745	0.30567	-0.097
Mof_H 	H 	0.31923	0.76057	0.31867	0.071
Mof_C 	C 	0.29502	0.75471	0.28792	0.058
Mof_H 	H 	0.27663	0.72757	0.28897	0.007
Mof_C 	C 	0.29702	0.7755	0.26855	-0.214
Mof_H 	H 	0.27993	0.76227	0.25667	0.11
Mof_C 	C 	0.32455	0.81608	0.26694	0.229
Mof_C 	C 	0.35007	0.83587	0.2847	-0.176
Mof_H 	H 	0.36843	0.86297	0.28367	0.104
Mof_C 	C 	0.34499	0.87501	0.2473	0.238
Mof_H 	H 	0.34003	0.88487	0.26117	-0.043
Mof_H 	H 	0.37343	0.88507	0.24607	-0.044
Mof_C 	C 	0.33059	0.88942	0.22746	-0.401
Mof_C 	C 	0.29489	0.88907	0.22875	0.543
Mof_C 	C 	0.28524	0.90803	0.21144	-0.413
Mof_C 	C 	0.31189	0.9274	0.19462	0.48
Mof_C 	C 	0.34714	0.92579	0.19263	-0.393
Mof_C 	C 	0.3559	0.90476	0.20826	0.461
Mof_C 	C 	0.39211	0.89988	0.20608	-0.969
Mof_H 	H 	0.38663	0.87507	0.21277	0.316
Mof_H 	H 	0.39833	0.89987	0.19057	0.315
Mof_H 	H 	0.41433	0.92157	0.21357	0.306
Mof_C 	C 	0.26775	0.87172	0.24761	-1.135
Mof_H 	H 	0.27063	0.89267	0.25747	0.363
Mof_H 	H 	0.24073	0.85707	0.24227	0.37
Mof_H 	H 	0.27403	0.85397	0.25557	0.371
Mof_C 	C 	0.30257	0.95161	0.17778	-0.999
Mof_H 	H 	0.29573	0.96897	0.18567	0.344
Mof_H 	H 	0.32563	0.96727	0.16857	0.34
Mof_H 	H 	0.28053	0.93367	0.16857	0.337
Mof_C 	C 	0.24709	0.90876	0.21281	0.245
Mof_H 	H 	0.22833	0.88797	0.22267	-0.053
Mof_H 	H 	0.23493	0.90507	0.19817	-0.041
Mof_C 	C 	0.23203	0.96056	0.21943	0.24
Mof_C 	C 	0.24653	0.00105	0.22301	-0.217
Mof_H 	H 	0.27363	0.01807	0.22577	0.107
Mof_C 	C 	0.22062	0.01619	0.22243	0.08
Mof_H 	H 	0.23033	0.04327	0.22487	-0.002
Mof_C 	C 	0.1802	0.99083	0.21828	-0.108
Mof_H 	H 	0.16283	0.00097	0.21787	0.079
Mof_C 	C 	0.16568	0.95033	0.21471	0.001
Mof_C 	C 	0.19159	0.93519	0.21529	-0.183
Mof_H 	H 	0.18183	0.90807	0.21287	0.106
Mof_C 	C 	0.12364	0.92428	0.2106	0.305
Mof_C 	C 	0.37674	0.9516	0.17538	0.251
Mof_H 	H 	0.40133	0.95117	0.17757	-0.041
Mof_H 	H 	0.38253	0.97887	0.17737	-0.047
Mof_C 	C 	0.37812	0.96865	0.13742	0.225
Mof_C 	C 	0.3572	0.95851	0.11736	-0.206
Mof_H 	H 	0.33483	0.93337	0.11557	0.104
Mof_C 	C 	0.36976	0.98597	0.09996	0.066
Mof_H 	H 	0.35573	0.97917	0.08657	-0
Mof_C 	C 	0.40327	0.02358	0.10261	-0.109
Mof_H 	H 	0.41173	0.04197	0.09097	0.06
Mof_C 	C 	0.42419	0.03372	0.12267	-0.003
Mof_C 	C 	0.41163	0.00626	0.14007	-0.176
Mof_H 	H 	0.42563	0.01307	0.15347	0.1
Mof_C 	C 	0.46027	0.07352	0.12537	0.294
Mof_Mn	Mn	0.51185	0.00968	0.30569	0.824
Mof_Mn	Mn	0.44863	0.92194	0.33818	0.921
Mof_Mn	Mn	0.37906	0.85234	0.37418	0.736
Mof_O 	O 	0.45873	0.00348	0.28617	-0.365
Mof_O 	O 	0.44196	0.95685	0.3102	-0.407
Mof_O 	O 	0.29108	0.89944	0.3163	-0.314
Mof_O 	O 	0.19151	0.86973	0.39841	-0.314
Mof_O 	O 	0.17903	0.8254	0.47813	-0.374
Mof_O 	O 	0.15603	0.85963	0.4963	-0.389
Mof_O 	O 	0.14253	0.73098	0.33008	-0.286
Mof_O 	O 	0.08463	0.58333	0.32567	-0.369
Mof_O 	O 	0.02574	0.56292	0.31017	-0.41
Mof_O 	O 	0.40411	0.86855	0.31917	-0.38
Mof_O 	O 	0.36311	0.822	0.34176	-0.384
Mof_O 	O 	0.32417	0.8329	0.24732	-0.298
Mof_O 	O 	0.25889	0.94868	0.22177	-0.292
Mof_O 	O 	0.1124	0.88895	0.20427	-0.397
Mof_O 	O 	0.09796	0.93405	0.21411	-0.307
Mof_O 	O 	0.36325	0.93938	0.15337	-0.293
Mof_O 	O 	0.47621	0.08383	0.14404	-0.376
Mof_O 	O 	0.47404	0.09601	0.10834	-0.355
Mof_O 	O 	0.56023	0.06347	0.29537	-0.226
Mof_O 	O 	0.56863	0.06657	0.29827	-0.224
Mof_H 	H 	0.56313	0.08767	0.29577	-0.334
Mof_H 	H 	0.58193	0.06387	0.28547	0.334
Mof_H 	H 	0.59053	0.06177	0.29917	-0.011
Mof_H 	H 	0.57163	0.08557	0.30947	0.307
Mof_H 	H 	0.55213	0.08267	0.29257	0.432
Mof_H 	H 	0.57003	0.05837	0.28177	-0.203
Mof_H 	H 	0.58313	0.06027	0.29457	0.011
Mof_H 	H 	0.56533	0.08467	0.30537	-0.114
Mof_C 	C 	0.7913	0.69284	0.86996	0.33
Mof_C 	C 	0.76117	0.70438	0.87339	0.009
Mof_C 	C 	0.72898	0.68207	0.88776	-0.133
Mof_H 	H 	0.7292	0.6625	0.8967	0.086
Mof_C 	C 	0.69753	0.68833	0.88891	0.115
Mof_H 	H 	0.6763	0.6732	0.8985	-0.006
Mof_C 	C 	0.6973	0.71644	0.87616	-0.262
Mof_H 	H 	0.6756	0.7205	0.8768	0.11
Mof_C 	C 	0.72928	0.74012	0.86166	0.267
Mof_C 	C 	0.76114	0.73384	0.86032	-0.209
Mof_H 	H 	0.7824	0.7492	0.8508	0.116
Mof_C 	C 	0.75541	0.79346	0.83486	0.249
Mof_H 	H 	0.7803	0.8102	0.8427	-0.047
Mof_H 	H 	0.76	0.778	0.8237	-0.05
Mof_C 	C 	0.74042	0.81894	0.82389	-0.419
Mof_C 	C 	0.73831	0.84812	0.83631	0.484
Mof_C 	C 	0.71975	0.86716	0.82709	-0.404
Mof_C 	C 	0.7071	0.86053	0.80493	0.51
Mof_C 	C 	0.7107	0.83209	0.79271	-0.405
Mof_C 	C 	0.72599	0.80902	0.80286	0.488
Mof_C 	C 	0.72564	0.77555	0.78958	-1.024
Mof_H 	H 	0.7194	0.7534	0.7993	0.34
Mof_H 	H 	0.7059	0.7672	0.778	0.344
Mof_H 	H 	0.7515	0.7848	0.783	0.332
Mof_C 	C 	0.75639	0.86007	0.8597	-0.995
Mof_H 	H 	0.7828	0.8636	0.8597	0.33
Mof_H 	H 	0.7577	0.8846	0.864	0.335
Mof_H 	H 	0.74	0.8395	0.8701	0.314
Mof_C 	C 	0.68902	0.88316	0.79479	-1.057
Mof_H 	H 	0.6973	0.9073	0.8031	0.355
Mof_H 	H 	0.6977	0.8897	0.7796	0.344
Mof_H 	H 	0.6604	0.867	0.7952	0.339
Mof_C 	C 	0.71259	0.89567	0.84065	0.227
Mof_H 	H 	0.7114	0.8893	0.8564	-0.036
Mof_H 	H 	0.6874	0.8935	0.8364	-0.037
Mof_C 	C 	0.74124	0.96499	0.84714	0.229
Mof_C 	C 	0.70888	0.95797	0.86044	-0.223
Mof_H 	H 	0.6883	0.932	0.8629	0.111
Mof_C 	C 	0.70726	0.98983	0.87011	0.068
Mof_H 	H 	0.6856	0.9851	0.879	-0.005
Mof_C 	C 	0.738	0.02872	0.86647	-0.107
Mof_H 	H 	0.7369	0.05	0.8729	0.064
Mof_C 	C 	0.77037	0.03574	0.85317	-0.022
Mof_C 	C 	0.77199	0.00388	0.8435	-0.165
Mof_H 	H 	0.7936	0.0086	0.8346	0.112
Mof_C 	C 	0.80284	0.0769	0.84934	0.356
Mof_C 	C 	0.69588	0.82373	0.76873	0.271
Mof_H 	H 	0.7098	0.8127	0.7606	-0.051
Mof_H 	H 	0.7014	0.8485	0.7615	-0.062
Mof_C 	C 	0.63545	0.79036	0.7486	0.254
Mof_C 	C 	0.59458	0.76393	0.74946	-0.238
Mof_H 	H 	0.5827	0.7521	0.763	0.113
Mof_C 	C 	0.57157	0.75511	0.73054	0.087
Mof_H 	H 	0.5441	0.738	0.7313	-0.006
Mof_C 	C 	0.58966	0.77202	0.71006	-0.115
Mof_H 	H 	0.5744	0.7653	0.6971	0.074
Mof_C 	C 	0.63011	0.79867	0.70922	0.008
Mof_C 	C 	0.65272	0.80669	0.72864	-0.208
Mof_H 	H 	0.6802	0.8236	0.7279	0.114
Mof_C 	C 	0.65022	0.81695	0.68755	0.34
Mof_C 	C 	0.87006	0.82915	0.84342	0.381
Mof_C 	C 	0.86633	0.85159	0.86261	-0.017
Mof_C 	C 	0.87938	0.89217	0.861	-0.097
Mof_H 	H 	0.892	0.9061	0.848	0.071
Mof_C 	C 	0.87365	0.91196	0.87875	0.058
Mof_H 	H 	0.8824	0.9391	0.8777	0.007
Mof_C 	C 	0.85486	0.89117	0.89812	-0.214
Mof_H 	H 	0.851	0.9044	0.91	0.11
Mof_C 	C 	0.84181	0.85059	0.89973	0.229
Mof_C 	C 	0.84754	0.8308	0.88197	-0.176
Mof_H 	H 	0.8388	0.8037	0.883	0.104
Mof_C 	C 	0.80332	0.79166	0.91937	0.238
Mof_H 	H 	0.7885	0.7818	0.9055	-0.043
Mof_H 	H 	0.8217	0.7816	0.9206	-0.044
Mof_C 	C 	0.77451	0.77725	0.93921	-0.401
Mof_C 	C 	0.73916	0.7776	0.93792	0.543
Mof_C 	C 	0.71055	0.75864	0.95523	-0.413
Mof_C 	C 	0.71783	0.73927	0.97205	0.48
Mof_C 	C 	0.75469	0.74088	0.97404	-0.393
Mof_C 	C 	0.78448	0.76191	0.95841	0.461
Mof_C 	C 	0.82557	0.76679	0.96059	-0.969
Mof_H 	H 	0.8449	0.7916	0.9539	0.316
Mof_H 	H 	0.8318	0.7668	0.9761	0.315
Mof_H 	H 	0.8261	0.7451	0.9531	0.306
Mof_C 	C 	0.72937	0.79495	0.91906	-1.135
Mof_H 	H 	0.7113	0.774	0.9092	0.363
Mof_H 	H 	0.717	0.8096	0.9244	0.37
Mof_H 	H 	0.7534	0.8127	0.9111	0.371
Mof_C 	C 	0.6843	0.71506	0.98889	-0.999
Mof_H 	H 	0.6601	0.6977	0.981	0.344
Mof_H 	H 	0.6917	0.6994	0.9981	0.34
Mof_H 	H 	0.6802	0.733	0.9981	0.337
Mof_C 	C 	0.67167	0.75791	0.95386	0.245
Mof_H 	H 	0.6737	0.7787	0.944	-0.053
Mof_H 	H 	0.6632	0.7616	0.9685	-0.042
Mof_C 	C 	0.60481	0.70611	0.94724	0.24
Mof_C 	C 	0.57882	0.66562	0.94366	-0.217
Mof_H 	H 	0.5889	0.6486	0.9409	0.107
Mof_C 	C 	0.53777	0.65048	0.94424	0.08
Mof_H 	H 	0.5204	0.6234	0.9418	-0.002
Mof_C 	C 	0.52271	0.67584	0.94839	-0.108
Mof_H 	H 	0.4952	0.6657	0.9488	0.079
Mof_C 	C 	0.54869	0.71634	0.95196	0.001
Mof_C 	C 	0.58974	0.73148	0.95138	-0.183
Mof_H 	H 	0.6071	0.7586	0.9538	0.106
Mof_C 	C 	0.5327	0.74239	0.95607	0.305
Mof_C 	C 	0.75848	0.71507	0.99129	0.251
Mof_H 	H 	0.7835	0.7155	0.9891	-0.041
Mof_H 	H 	0.737	0.6878	0.9893	-0.047
Mof_C 	C 	0.74281	0.69802	0.02925	0.225
Mof_C 	C 	0.73203	0.70816	0.04931	-0.206
Mof_H 	H 	0.7348	0.7333	0.0511	0.104
Mof_C 	C 	0.71713	0.6807	0.06671	0.066
Mof_H 	H 	0.7099	0.6875	0.0801	-0
Mof_C 	C 	0.71303	0.64309	0.06406	-0.108
Mof_H 	H 	0.7031	0.6247	0.0757	0.06
Mof_C 	C 	0.72381	0.63295	0.044	-0.003
Mof_C 	C 	0.73871	0.66041	0.0266	-0.176
Mof_H 	H 	0.7459	0.6536	0.0132	0.1
Mof_C 	C 	0.72009	0.59315	0.0413	0.294
Mof_Mn	Mn	0.8355	0.65698	0.86098	0.824
Mof_Mn	Mn	0.86002	0.74473	0.82848	0.921
Mof_Mn	Mn	0.86006	0.81433	0.79248	0.736
Mof_O 	O 	0.78859	0.66319	0.8805	-0.365
Mof_O 	O 	0.81845	0.70982	0.85647	-0.407
Mof_O 	O 	0.72498	0.76723	0.85037	-0.314
Mof_O 	O 	0.65512	0.79694	0.76826	-0.314
Mof_O 	O 	0.68697	0.84127	0.68854	-0.374
Mof_O 	O 	0.62974	0.80704	0.67037	-0.389
Mof_O 	O 	0.74489	0.93569	0.83659	-0.286
Mof_O 	O 	0.83464	0.08334	0.841	-0.369
Mof_O 	O 	0.79616	0.10375	0.8565	-0.41
Mof_O 	O 	0.8689	0.79812	0.8475	-0.38
Mof_O 	O 	0.87445	0.84467	0.82491	-0.384
Mof_O 	O 	0.82461	0.83377	0.91935	-0.298
Mof_O 	O 	0.64355	0.71799	0.9449	-0.292
Mof_O 	O 	0.55679	0.77772	0.9624	-0.397
Mof_O 	O 	0.49725	0.73262	0.95256	-0.307
Mof_O 	O 	0.75721	0.72729	0.0133	-0.293
Mof_O 	O 	0.72572	0.58284	0.02263	-0.376
Mof_O 	O 	0.71137	0.57066	0.05833	-0.355
Mof_O 	O 	0.8301	0.6032	0.8713	-0.226
Mof_O 	O 	0.8354	0.6001	0.8684	-0.224
Mof_H 	H 	0.8088	0.579	0.8709	-0.334
Mof_H 	H 	0.8514	0.6028	0.8812	0.334
Mof_H 	H 	0.8621	0.6049	0.8675	-0.011
Mof_H 	H 	0.8194	0.5811	0.8572	0.307
Mof_H 	H 	0.8028	0.584	0.8741	0.432
Mof_H 	H 	0.845	0.6083	0.8849	-0.203
Mof_H 	H 	0.8562	0.6064	0.8721	0.011
Mof_H 	H 	0.814	0.582	0.8613	-0.114
Mof_C 	C 	0.45797	0.02617	0.20329	0.33
Mof_C 	C 	0.42784	0.03771	0.20672	0.009
Mof_C 	C 	0.39565	0.0154	0.22109	-0.133
Mof_H 	H 	0.39587	0.99583	0.23003	0.086
Mof_C 	C 	0.3642	0.02166	0.22224	0.115
Mof_H 	H 	0.34297	0.00653	0.23183	-0.006
Mof_C 	C 	0.36397	0.04977	0.20949	-0.262
Mof_H 	H 	0.34227	0.05383	0.21013	0.11
Mof_C 	C 	0.39595	0.07345	0.19499	0.267
Mof_C 	C 	0.42781	0.06717	0.19365	-0.209
Mof_H 	H 	0.44907	0.08253	0.18413	0.116
Mof_C 	C 	0.42208	0.12679	0.16819	0.249
Mof_H 	H 	0.44697	0.14353	0.17603	-0.047
Mof_H 	H 	0.42667	0.11133	0.15703	-0.05
Mof_C 	C 	0.40709	0.15227	0.15722	-0.419
Mof_C 	C 	0.40498	0.18145	0.16964	0.484
Mof_C 	C 	0.38642	0.20049	0.16042	-0.404
Mof_C 	C 	0.37377	0.19386	0.13826	0.51
Mof_C 	C 	0.37737	0.16542	0.12604	-0.405
Mof_C 	C 	0.39266	0.14235	0.13619	0.488
Mof_C 	C 	0.39231	0.10888	0.12291	-1.024
Mof_H 	H 	0.38607	0.08673	0.13263	0.34
Mof_H 	H 	0.37257	0.10053	0.11133	0.344
Mof_H 	H 	0.41817	0.11813	0.11633	0.332
Mof_C 	C 	0.42306	0.1934	0.19303	-0.995
Mof_H 	H 	0.44947	0.19693	0.19303	0.33
Mof_H 	H 	0.42437	0.21793	0.19733	0.335
Mof_H 	H 	0.40667	0.17283	0.20343	0.314
Mof_C 	C 	0.35569	0.21649	0.12812	-1.057
Mof_H 	H 	0.36397	0.24063	0.13643	0.355
Mof_H 	H 	0.36437	0.22303	0.11293	0.344
Mof_H 	H 	0.32707	0.20033	0.12853	0.339
Mof_C 	C 	0.37926	0.229	0.17398	0.227
Mof_H 	H 	0.37807	0.22263	0.18973	-0.036
Mof_H 	H 	0.35407	0.22683	0.16973	-0.037
Mof_C 	C 	0.40791	0.29832	0.18047	0.229
Mof_C 	C 	0.37555	0.2913	0.19377	-0.223
Mof_H 	H 	0.35497	0.26533	0.19623	0.111
Mof_C 	C 	0.37393	0.32316	0.20344	0.068
Mof_H 	H 	0.35227	0.31843	0.21233	-0.005
Mof_C 	C 	0.40467	0.36205	0.1998	-0.107
Mof_H 	H 	0.40357	0.38333	0.20623	0.064
Mof_C 	C 	0.43704	0.36907	0.1865	-0.022
Mof_C 	C 	0.43866	0.33721	0.17683	-0.165
Mof_H 	H 	0.46027	0.34193	0.16793	0.112
Mof_C 	C 	0.46951	0.41023	0.18267	0.356
Mof_C 	C 	0.36255	0.15706	0.10206	0.271
Mof_H 	H 	0.37647	0.14603	0.09393	-0.051
Mof_H 	H 	0.36807	0.18183	0.09483	-0.062
Mof_C 	C 	0.30212	0.12369	0.08193	0.254
Mof_C 	C 	0.26125	0.09726	0.08279	-0.238
Mof_H 	H 	0.24937	0.08543	0.09633	0.113
Mof_C 	C 	0.23824	0.08844	0.06387	0.087
Mof_H 	H 	0.21077	0.07133	0.06463	-0.006
Mof_C 	C 	0.25633	0.10535	0.04339	-0.115
Mof_H 	H 	0.24107	0.09863	0.03043	0.074
Mof_C 	C 	0.29678	0.132	0.04255	0.008
Mof_C 	C 	0.31939	0.14002	0.06197	-0.208
Mof_H 	H 	0.34687	0.15693	0.06123	0.114
Mof_C 	C 	0.31689	0.15028	0.02088	0.34
Mof_C 	C 	0.53673	0.16248	0.17675	0.381
Mof_C 	C 	0.533	0.18492	0.19594	-0.018
Mof_C 	C 	0.54605	0.2255	0.19433	-0.097
Mof_H 	H 	0.55867	0.23943	0.18133	0.071
Mof_C 	C 	0.54032	0.24529	0.21208	0.058
Mof_H 	H 	0.54907	0.27243	0.21103	0.007
Mof_C 	C 	0.52153	0.2245	0.23145	-0.214
Mof_H 	H 	0.51767	0.23773	0.24333	0.11
Mof_C 	C 	0.50848	0.18392	0.23306	0.229
Mof_C 	C 	0.51421	0.16413	0.2153	-0.176
Mof_H 	H 	0.50547	0.13703	0.21633	0.104
Mof_C 	C 	0.46999	0.12499	0.2527	0.238
Mof_H 	H 	0.45517	0.11513	0.23883	-0.043
Mof_H 	H 	0.48837	0.11493	0.25393	-0.044
Mof_C 	C 	0.44118	0.11058	0.27254	-0.401
Mof_C 	C 	0.40583	0.11093	0.27125	0.543
Mof_C 	C 	0.37722	0.09197	0.28856	-0.413
Mof_C 	C 	0.3845	0.0726	0.30538	0.48
Mof_C 	C 	0.42136	0.07421	0.30737	-0.393
Mof_C 	C 	0.45115	0.09524	0.29174	0.461
Mof_C 	C 	0.49224	0.10012	0.29392	-0.969
Mof_H 	H 	0.51157	0.12493	0.28723	0.316
Mof_H 	H 	0.49847	0.10013	0.30943	0.315
Mof_H 	H 	0.49277	0.07843	0.28643	0.306
Mof_C 	C 	0.39604	0.12828	0.25239	-1.135
Mof_H 	H 	0.37797	0.10733	0.24253	0.363
Mof_H 	H 	0.38367	0.14293	0.25773	0.37
Mof_H 	H 	0.42007	0.14603	0.24443	0.371
Mof_C 	C 	0.35097	0.04839	0.32222	-0.999
Mof_H 	H 	0.32677	0.03103	0.31433	0.344
Mof_H 	H 	0.35837	0.03273	0.33143	0.34
Mof_H 	H 	0.34687	0.06633	0.33143	0.337
Mof_C 	C 	0.33834	0.09124	0.28719	0.245
Mof_H 	H 	0.34037	0.11203	0.27733	-0.053
Mof_H 	H 	0.32987	0.09493	0.30183	-0.041
Mof_C 	C 	0.27148	0.03944	0.28057	0.24
Mof_C 	C 	0.24549	0.99895	0.27699	-0.217
Mof_H 	H 	0.25557	0.98193	0.27423	0.107
Mof_C 	C 	0.20444	0.98381	0.27757	0.08
Mof_H 	H 	0.18707	0.95673	0.27513	-0.002
Mof_C 	C 	0.18938	0.00917	0.28172	-0.108
Mof_H 	H 	0.16187	0.99903	0.28213	0.079
Mof_C 	C 	0.21536	0.04967	0.28529	0.001
Mof_C 	C 	0.25641	0.06481	0.28471	-0.183
Mof_H 	H 	0.27377	0.09193	0.28713	0.106
Mof_C 	C 	0.19937	0.07572	0.2894	0.305
Mof_C 	C 	0.42515	0.0484	0.32462	0.251
Mof_H 	H 	0.45017	0.04883	0.32243	-0.041
Mof_H 	H 	0.40367	0.02113	0.32263	-0.047
Mof_C 	C 	0.40948	0.03135	0.36258	0.225
Mof_C 	C 	0.3987	0.04149	0.38264	-0.206
Mof_H 	H 	0.40147	0.06663	0.38443	0.104
Mof_C 	C 	0.3838	0.01403	0.40004	0.066
Mof_H 	H 	0.37657	0.02083	0.41343	-0
Mof_C 	C 	0.3797	0.97642	0.39739	-0.109
Mof_H 	H 	0.36977	0.95803	0.40903	0.06
Mof_C 	C 	0.39048	0.96628	0.37733	-0.003
Mof_C 	C 	0.40538	0.99374	0.35993	-0.176
Mof_H 	H 	0.41257	0.98693	0.34653	0.1
Mof_C 	C 	0.38676	0.92648	0.37463	0.294
Mof_Mn	Mn	0.50216	0.99032	0.19431	0.824
Mof_Mn	Mn	0.52669	0.07806	0.16182	0.921
Mof_Mn	Mn	0.52672	0.14766	0.12582	0.736
Mof_O 	O 	0.45526	0.99652	0.21383	-0.365
Mof_O 	O 	0.48512	0.04315	0.1898	-0.407
Mof_O 	O 	0.39165	0.10056	0.1837	-0.314
Mof_O 	O 	0.32179	0.13027	0.10159	-0.314
Mof_O 	O 	0.35364	0.1746	0.02187	-0.374
Mof_O 	O 	0.29641	0.14037	0.0037	-0.389
Mof_O 	O 	0.41156	0.26902	0.16992	-0.286
Mof_O 	O 	0.50131	0.41667	0.17433	-0.369
Mof_O 	O 	0.46283	0.43708	0.18983	-0.41
Mof_O 	O 	0.53557	0.13145	0.18083	-0.38
Mof_O 	O 	0.54112	0.178	0.15824	-0.384
Mof_O 	O 	0.49128	0.1671	0.25268	-0.298
Mof_O 	O 	0.31022	0.05132	0.27823	-0.292
Mof_O 	O 	0.22346	0.11105	0.29573	-0.397
Mof_O 	O 	0.16392	0.06595	0.28589	-0.307
Mof_O 	O 	0.42388	0.06062	0.34663	-0.293
Mof_O 	O 	0.39239	0.91617	0.35596	-0.376
Mof_O 	O 	0.37804	0.90399	0.39166	-0.355
Mof_O 	O 	0.49677	0.93653	0.20463	-0.226
Mof_O 	O 	0.50207	0.93343	0.20173	-0.224
Mof_H 	H 	0.47547	0.91233	0.20423	-0.334
Mof_H 	H 	0.51807	0.93613	0.21453	0.334
Mof_H 	H 	0.52877	0.93823	0.20083	-0.011
Mof_H 	H 	0.48607	0.91443	0.19053	0.307
Mof_H 	H 	0.46947	0.91733	0.20743	0.432
Mof_H 	H 	0.51167	0.94163	0.21823	-0.203
Mof_H 	H 	0.52287	0.93973	0.20543	0.011
Mof_H 	H 	0.48067	0.91533	0.19463	-0.114
Mof_C 	C 	0.12463	0.35951	0.53663	0.33
Mof_C 	C 	0.0945	0.37105	0.54006	0.009
Mof_C 	C 	0.06231	0.34874	0.55443	-0.133
Mof_H 	H 	0.06253	0.32917	0.56337	0.086
Mof_C 	C 	0.03086	0.355	0.55558	0.115
Mof_H 	H 	0.00963	0.33987	0.56517	-0.006
Mof_C 	C 	0.03063	0.38311	0.54283	-0.262
Mof_H 	H 	0.00893	0.38717	0.54347	0.11
Mof_C 	C 	0.06261	0.40679	0.52833	0.267
Mof_C 	C 	0.09447	0.40051	0.52699	-0.209
Mof_H 	H 	0.11573	0.41587	0.51747	0.116
Mof_C 	C 	0.08874	0.46013	0.50153	0.249
Mof_H 	H 	0.11363	0.47687	0.50937	-0.047
Mof_H 	H 	0.09333	0.44467	0.49037	-0.05
Mof_C 	C 	0.07375	0.48561	0.49056	-0.419
Mof_C 	C 	0.07164	0.51479	0.50298	0.484
Mof_C 	C 	0.05308	0.53383	0.49376	-0.404
Mof_C 	C 	0.04043	0.5272	0.4716	0.51
Mof_C 	C 	0.04403	0.49876	0.45938	-0.405
Mof_C 	C 	0.05932	0.47569	0.46953	0.488
Mof_C 	C 	0.05897	0.44222	0.45625	-1.024
Mof_H 	H 	0.05273	0.42007	0.46597	0.34
Mof_H 	H 	0.03923	0.43387	0.44467	0.344
Mof_H 	H 	0.08483	0.45147	0.44967	0.332
Mof_C 	C 	0.08972	0.52674	0.52637	-0.995
Mof_H 	H 	0.11613	0.53027	0.52637	0.33
Mof_H 	H 	0.09103	0.55127	0.53067	0.335
Mof_H 	H 	0.07333	0.50617	0.53677	0.314
Mof_C 	C 	0.02235	0.54983	0.46146	-1.057
Mof_H 	H 	0.03063	0.57397	0.46977	0.355
Mof_H 	H 	0.03103	0.55637	0.44627	0.344
Mof_H 	H 	0.99373	0.53367	0.46187	0.339
Mof_C 	C 	0.04592	0.56234	0.50732	0.227
Mof_H 	H 	0.04473	0.55597	0.52307	-0.036
Mof_H 	H 	0.02073	0.56017	0.50307	-0.037
Mof_C 	C 	0.07457	0.63166	0.51381	0.229
Mof_C 	C 	0.04221	0.62464	0.52711	-0.223
Mof_H 	H 	0.02163	0.59867	0.52957	0.111
Mof_C 	C 	0.04059	0.6565	0.53678	0.068
Mof_H 	H 	0.01893	0.65177	0.54567	-0.005
Mof_C 	C 	0.07133	0.69539	0.53314	-0.107
Mof_H 	H 	0.07023	0.71667	0.53957	0.064
Mof_C 	C 	0.1037	0.70241	0.51984	-0.022
Mof_C 	C 	0.10532	0.67055	0.51017	-0.165
Mof_H 	H 	0.12693	0.67527	0.50127	0.112
Mof_C 	C 	0.13617	0.74357	0.51601	0.356
Mof_C 	C 	0.02921	0.4904	0.4354	0.271
Mof_H 	H 	0.04313	0.47937	0.42727	-0.052
Mof_H 	H 	0.03473	0.51517	0.42817	-0.062
Mof_C 	C 	0.96878	0.45703	0.41527	0.254
Mof_C 	C 	0.92791	0.4306	0.41613	-0.238
Mof_H 	H 	0.91603	0.41877	0.42967	0.113
Mof_C 	C 	0.9049	0.42178	0.39721	0.087
Mof_H 	H 	0.87743	0.40467	0.39797	-0.006
Mof_C 	C 	0.92299	0.43869	0.37673	-0.115
Mof_H 	H 	0.90773	0.43197	0.36377	0.074
Mof_C 	C 	0.96344	0.46534	0.37589	0.008
Mof_C 	C 	0.98605	0.47336	0.39531	-0.208
Mof_H 	H 	0.01353	0.49027	0.39457	0.114
Mof_C 	C 	0.98355	0.48362	0.35422	0.34
Mof_C 	C 	0.20339	0.49582	0.51009	0.38
Mof_C 	C 	0.19966	0.51826	0.52928	-0.017
Mof_C 	C 	0.21271	0.55884	0.52767	-0.097
Mof_H 	H 	0.22533	0.57277	0.51467	0.071
Mof_C 	C 	0.20698	0.57863	0.54542	0.058
Mof_H 	H 	0.21573	0.60577	0.54437	0.007
Mof_C 	C 	0.18819	0.55784	0.56479	-0.214
Mof_H 	H 	0.18433	0.57107	0.57667	0.11
Mof_C 	C 	0.17514	0.51726	0.5664	0.229
Mof_C 	C 	0.18087	0.49747	0.54864	-0.176
Mof_H 	H 	0.17213	0.47037	0.54967	0.104
Mof_C 	C 	0.13665	0.45833	0.58604	0.238
Mof_H 	H 	0.12183	0.44847	0.57217	-0.043
Mof_H 	H 	0.15503	0.44827	0.58727	-0.044
Mof_C 	C 	0.10784	0.44392	0.60588	-0.401
Mof_C 	C 	0.07249	0.44427	0.60459	0.543
Mof_C 	C 	0.04388	0.42531	0.6219	-0.413
Mof_C 	C 	0.05116	0.40594	0.63872	0.48
Mof_C 	C 	0.08802	0.40755	0.64071	-0.393
Mof_C 	C 	0.11781	0.42858	0.62508	0.461
Mof_C 	C 	0.1589	0.43346	0.62726	-0.969
Mof_H 	H 	0.17823	0.45827	0.62057	0.316
Mof_H 	H 	0.16513	0.43347	0.64277	0.315
Mof_H 	H 	0.15943	0.41177	0.61977	0.306
Mof_C 	C 	0.0627	0.46162	0.58573	-1.135
Mof_H 	H 	0.04463	0.44067	0.57587	0.363
Mof_H 	H 	0.05033	0.47627	0.59107	0.37
Mof_H 	H 	0.08673	0.47937	0.57777	0.371
Mof_C 	C 	0.01763	0.38173	0.65556	-0.999
Mof_H 	H 	0.99343	0.36437	0.64767	0.344
Mof_H 	H 	0.02503	0.36607	0.66477	0.34
Mof_H 	H 	0.01353	0.39967	0.66477	0.337
Mof_C 	C 	0.005	0.42458	0.62053	0.245
Mof_H 	H 	0.00703	0.44537	0.61067	-0.053
Mof_H 	H 	0.99653	0.42827	0.63517	-0.041
Mof_C 	C 	0.93814	0.37278	0.61391	0.24
Mof_C 	C 	0.91215	0.33229	0.61033	-0.217
Mof_H 	H 	0.92223	0.31527	0.60757	0.107
Mof_C 	C 	0.8711	0.31715	0.61091	0.08
Mof_H 	H 	0.85373	0.29007	0.60847	-0.002
Mof_C 	C 	0.85604	0.34251	0.61506	-0.108
Mof_H 	H 	0.82853	0.33237	0.61547	0.079
Mof_C 	C 	0.88202	0.38301	0.61863	0.001
Mof_C 	C 	0.92307	0.39815	0.61805	-0.183
Mof_H 	H 	0.94043	0.42527	0.62047	0.106
Mof_C 	C 	0.86603	0.40906	0.62274	0.305
Mof_C 	C 	0.09181	0.38174	0.65796	0.251
Mof_H 	H 	0.11683	0.38217	0.65577	-0.041
Mof_H 	H 	0.07033	0.35447	0.65597	-0.047
Mof_C 	C 	0.07614	0.36469	0.69592	0.225
Mof_C 	C 	0.06536	0.37483	0.71598	-0.206
Mof_H 	H 	0.06813	0.39997	0.71777	0.104
Mof_C 	C 	0.05046	0.34737	0.73338	0.066
Mof_H 	H 	0.04323	0.35417	0.74677	-0
Mof_C 	C 	0.04636	0.30976	0.73073	-0.108
Mof_H 	H 	0.03643	0.29137	0.74237	0.06
Mof_C 	C 	0.05714	0.29962	0.71067	-0.003
Mof_C 	C 	0.07204	0.32708	0.69327	-0.176
Mof_H 	H 	0.07923	0.32027	0.67987	0.1
Mof_C 	C 	0.05342	0.25982	0.70797	0.294
Mof_Mn	Mn	0.16883	0.32365	0.52765	0.824
Mof_Mn	Mn	0.19335	0.41139	0.49515	0.921
Mof_Mn	Mn	0.19339	0.481	0.45915	0.736
Mof_O 	O 	0.12192	0.32986	0.54717	-0.365
Mof_O 	O 	0.15178	0.37649	0.52314	-0.407
Mof_O 	O 	0.05831	0.4339	0.51704	-0.314
Mof_O 	O 	0.98845	0.46361	0.43493	-0.314
Mof_O 	O 	0.0203	0.50794	0.35521	-0.374
Mof_O 	O 	0.96307	0.47371	0.33704	-0.389
Mof_O 	O 	0.07822	0.60236	0.50326	-0.286
Mof_O 	O 	0.16797	0.75001	0.50767	-0.369
Mof_O 	O 	0.12949	0.77042	0.52317	-0.41
Mof_O 	O 	0.20223	0.46479	0.51417	-0.38
Mof_O 	O 	0.20778	0.51134	0.49158	-0.384
Mof_O 	O 	0.15794	0.50044	0.58602	-0.298
Mof_O 	O 	0.97688	0.38466	0.61157	-0.292
Mof_O 	O 	0.89012	0.44439	0.62907	-0.397
Mof_O 	O 	0.83058	0.39929	0.61923	-0.307
Mof_O 	O 	0.09054	0.39396	0.67997	-0.293
Mof_O 	O 	0.05905	0.24951	0.6893	-0.376
Mof_O 	O 	0.0447	0.23733	0.725	-0.355
Mof_O 	O 	0.16343	0.26987	0.53797	-0.226
Mof_O 	O 	0.16873	0.26677	0.53507	-0.224
Mof_H 	H 	0.14213	0.24567	0.53757	-0.334
Mof_H 	H 	0.18473	0.26947	0.54787	0.334
Mof_H 	H 	0.19543	0.27157	0.53417	-0.011
Mof_H 	H 	0.15273	0.24777	0.52387	0.307
Mof_H 	H 	0.13613	0.25067	0.54077	0.432
Mof_H 	H 	0.17833	0.27497	0.55157	-0.203
Mof_H 	H 	0.18953	0.27307	0.53877	0.011
Mof_H 	H 	0.14733	0.24867	0.52797	-0.114
Mof_C 	C 	0.90154	0.2087	0.86996	0.33
Mof_C 	C 	0.94321	0.23883	0.87339	0.009
Mof_C 	C 	0.95309	0.27102	0.88776	-0.133
Mof_H 	H 	0.9333	0.2708	0.8967	0.086
Mof_C 	C 	0.9908	0.30247	0.88891	0.115
Mof_H 	H 	0.9969	0.3237	0.8985	-0.006
Mof_C 	C 	0.01914	0.3027	0.87616	-0.262
Mof_H 	H 	0.0449	0.3244	0.8768	0.11
Mof_C 	C 	0.01084	0.27072	0.86166	0.267
Mof_C 	C 	0.9727	0.23886	0.86032	-0.209
Mof_H 	H 	0.9668	0.2176	0.8508	0.116
Mof_C 	C 	0.03805	0.24459	0.83486	0.249
Mof_H 	H 	0.0299	0.2197	0.8427	-0.047
Mof_H 	H 	0.018	0.24	0.8237	-0.05
Mof_C 	C 	0.07852	0.25958	0.82389	-0.419
Mof_C 	C 	0.10981	0.26169	0.83631	0.484
Mof_C 	C 	0.14741	0.28025	0.82709	-0.404
Mof_C 	C 	0.15343	0.2929	0.80493	0.51
Mof_C 	C 	0.12139	0.2893	0.79271	-0.405
Mof_C 	C 	0.08303	0.27401	0.80286	0.488
Mof_C 	C 	0.04991	0.27436	0.78958	-1.024
Mof_H 	H 	0.034	0.2806	0.7993	0.34
Mof_H 	H 	0.0613	0.2941	0.778	0.344
Mof_H 	H 	0.0333	0.2485	0.783	0.332
Mof_C 	C 	0.10368	0.24361	0.8597	-0.995
Mof_H 	H 	0.0808	0.2172	0.8597	0.33
Mof_H 	H 	0.1269	0.2423	0.864	0.335
Mof_H 	H 	0.0995	0.26	0.8701	0.314
Mof_C 	C 	0.19414	0.31098	0.79479	-1.057
Mof_H 	H 	0.21	0.3027	0.8031	0.355
Mof_H 	H 	0.192	0.3023	0.7796	0.344
Mof_H 	H 	0.2066	0.3396	0.7952	0.339
Mof_C 	C 	0.18308	0.28741	0.84065	0.227
Mof_H 	H 	0.1779	0.2886	0.8564	-0.036
Mof_H 	H 	0.2061	0.3126	0.8364	-0.037
Mof_C 	C 	0.22375	0.25876	0.84714	0.229
Mof_C 	C 	0.24909	0.29112	0.86044	-0.223
Mof_H 	H 	0.2437	0.3117	0.8629	0.111
Mof_C 	C 	0.28257	0.29274	0.87011	0.068
Mof_H 	H 	0.2995	0.3144	0.879	-0.005
Mof_C 	C 	0.29072	0.262	0.86647	-0.107
Mof_H 	H 	0.3131	0.2631	0.8729	0.064
Mof_C 	C 	0.26537	0.22963	0.85317	-0.022
Mof_C 	C 	0.23189	0.22801	0.8435	-0.165
Mof_H 	H 	0.215	0.2064	0.8346	0.112
Mof_C 	C 	0.27406	0.19716	0.84934	0.356
Mof_C 	C 	0.12785	0.30412	0.76873	0.271
Mof_H 	H 	0.1029	0.2902	0.7606	-0.051
Mof_H 	H 	0.1471	0.2986	0.7615	-0.062
Mof_C 	C 	0.15491	0.36455	0.7486	0.254
Mof_C 	C 	0.16935	0.40542	0.74946	-0.238
Mof_H 	H 	0.1694	0.4173	0.763	0.113
Mof_C 	C 	0.18354	0.42843	0.73054	0.087
Mof_H 	H 	0.1939	0.4559	0.7313	-0.006
Mof_C 	C 	0.18236	0.41034	0.71006	-0.115
Mof_H 	H 	0.1909	0.4256	0.6971	0.074
Mof_C 	C 	0.16856	0.36989	0.70922	0.008
Mof_C 	C 	0.15397	0.34728	0.72864	-0.208
Mof_H 	H 	0.1434	0.3198	0.7279	0.114
Mof_C 	C 	0.16673	0.34978	0.68755	0.34
Mof_C 	C 	0.95909	0.12994	0.84342	0.381
Mof_C 	C 	0.98526	0.13367	0.86261	-0.017
Mof_C 	C 	0.01279	0.12062	0.861	-0.097
Mof_H 	H 	0.0141	0.108	0.848	0.071
Mof_C 	C 	0.03831	0.12635	0.87875	0.058
Mof_H 	H 	0.0567	0.1176	0.8777	0.007
Mof_C 	C 	0.03631	0.14514	0.89812	-0.214
Mof_H 	H 	0.0534	0.149	0.91	0.11
Mof_C 	C 	0.00878	0.15819	0.89973	0.229
Mof_C 	C 	0.98326	0.15246	0.88197	-0.176
Mof_H 	H 	0.9649	0.1612	0.883	0.104
Mof_C 	C 	0.98834	0.19668	0.91937	0.238
Mof_H 	H 	0.9933	0.2115	0.9055	-0.043
Mof_H 	H 	0.9599	0.1783	0.9206	-0.044
Mof_C 	C 	0.00274	0.22549	0.93921	-0.401
Mof_C 	C 	0.03844	0.26084	0.93792	0.543
Mof_C 	C 	0.04809	0.28945	0.95523	-0.413
Mof_C 	C 	0.02144	0.28217	0.97205	0.48
Mof_C 	C 	0.98619	0.24531	0.97404	-0.393
Mof_C 	C 	0.97743	0.21552	0.95841	0.461
Mof_C 	C 	0.94122	0.17443	0.96059	-0.969
Mof_H 	H 	0.9467	0.1551	0.9539	0.316
Mof_H 	H 	0.935	0.1682	0.9761	0.315
Mof_H 	H 	0.919	0.1739	0.9531	0.306
Mof_C 	C 	0.06558	0.27063	0.91906	-1.135
Mof_H 	H 	0.0627	0.2887	0.9092	0.363
Mof_H 	H 	0.0926	0.283	0.9244	0.37
Mof_H 	H 	0.0593	0.2466	0.9111	0.371
Mof_C 	C 	0.03076	0.3157	0.98889	-0.999
Mof_H 	H 	0.0376	0.3399	0.981	0.344
Mof_H 	H 	0.0077	0.3083	0.9981	0.34
Mof_H 	H 	0.0528	0.3198	0.9981	0.337
Mof_C 	C 	0.08624	0.32833	0.95386	0.245
Mof_H 	H 	0.105	0.3263	0.944	-0.053
Mof_H 	H 	0.0984	0.3368	0.9685	-0.041
Mof_C 	C 	0.1013	0.39519	0.94724	0.24
Mof_C 	C 	0.0868	0.42118	0.94366	-0.217
Mof_H 	H 	0.0597	0.4111	0.9409	0.107
Mof_C 	C 	0.11271	0.46223	0.94424	0.08
Mof_H 	H 	0.103	0.4796	0.9418	-0.002
Mof_C 	C 	0.15313	0.47729	0.94839	-0.108
Mof_H 	H 	0.1705	0.5048	0.9488	0.079
Mof_C 	C 	0.16765	0.45131	0.95196	0.001
Mof_C 	C 	0.14174	0.41026	0.95138	-0.183
Mof_H 	H 	0.1515	0.3929	0.9538	0.106
Mof_C 	C 	0.20969	0.4673	0.95607	0.305
Mof_C 	C 	0.95659	0.24152	0.99129	0.251
Mof_H 	H 	0.932	0.2165	0.9891	-0.041
Mof_H 	H 	0.9508	0.263	0.9893	-0.047
Mof_C 	C 	0.95521	0.25719	0.02925	0.225
Mof_C 	C 	0.97613	0.26797	0.04931	-0.206
Mof_H 	H 	0.9985	0.2652	0.0511	0.104
Mof_C 	C 	0.96357	0.28287	0.06671	0.066
Mof_H 	H 	0.9776	0.2901	0.0801	-0
Mof_C 	C 	0.93006	0.28697	0.06406	-0.108
Mof_H 	H 	0.9216	0.2969	0.0757	0.06
Mof_C 	C 	0.90914	0.27619	0.044	-0.003
Mof_C 	C 	0.9217	0.26129	0.0266	-0.176
Mof_H 	H 	0.9077	0.2541	0.0132	0.1
Mof_C 	C 	0.87306	0.27991	0.0413	0.294
Mof_Mn	Mn	0.82149	0.1645	0.86098	0.824
Mof_Mn	Mn	0.88471	0.13998	0.82848	0.921
Mof_Mn	Mn	0.95427	0.13994	0.79248	0.736
Mof_O 	O 	0.8746	0.21141	0.8805	-0.365
Mof_O 	O 	0.89137	0.18155	0.85647	-0.407
Mof_O 	O 	0.04225	0.27502	0.85037	-0.314
Mof_O 	O 	0.14182	0.34488	0.76826	-0.314
Mof_O 	O 	0.1543	0.31303	0.68854	-0.374
Mof_O 	O 	0.1773	0.37026	0.67037	-0.389
Mof_O 	O 	0.1908	0.25511	0.83659	-0.286
Mof_O 	O 	0.2487	0.16536	0.841	-0.369
Mof_O 	O 	0.30759	0.20384	0.8565	-0.41
Mof_O 	O 	0.92922	0.1311	0.8475	-0.38
Mof_O 	O 	0.97022	0.12555	0.82491	-0.384
Mof_O 	O 	0.00916	0.17539	0.91935	-0.298
Mof_O 	O 	0.07444	0.35645	0.9449	-0.292
Mof_O 	O 	0.22093	0.44321	0.9624	-0.397
Mof_O 	O 	0.23537	0.50275	0.95256	-0.307
Mof_O 	O 	0.97008	0.24279	0.0133	-0.293
Mof_O 	O 	0.85712	0.27428	0.02263	-0.376
Mof_O 	O 	0.85929	0.28863	0.05833	-0.355
Mof_O 	O 	0.7731	0.1699	0.8713	-0.226
Mof_O 	O 	0.7647	0.1646	0.8684	-0.224
Mof_H 	H 	0.7702	0.1912	0.8709	-0.334
Mof_H 	H 	0.7514	0.1486	0.8812	0.334
Mof_H 	H 	0.7428	0.1379	0.8675	-0.011
Mof_H 	H 	0.7617	0.1806	0.8572	0.307
Mof_H 	H 	0.7812	0.1972	0.8741	0.432
Mof_H 	H 	0.7633	0.155	0.8849	-0.203
Mof_H 	H 	0.7502	0.1438	0.8721	0.011
Mof_H 	H 	0.768	0.186	0.8613	-0.114
Mof_C 	C 	0.56821	0.54203	0.20329	0.33
Mof_C 	C 	0.60988	0.57216	0.20672	0.009
Mof_C 	C 	0.61976	0.60435	0.22109	-0.133
Mof_H 	H 	0.59997	0.60413	0.23003	0.086
Mof_C 	C 	0.65747	0.6358	0.22224	0.115
Mof_H 	H 	0.66357	0.65703	0.23183	-0.006
Mof_C 	C 	0.68581	0.63603	0.20949	-0.262
Mof_H 	H 	0.71157	0.65773	0.21013	0.11
Mof_C 	C 	0.67751	0.60405	0.19499	0.267
Mof_C 	C 	0.63937	0.57219	0.19365	-0.209
Mof_H 	H 	0.63347	0.55093	0.18413	0.116
Mof_C 	C 	0.70472	0.57792	0.16819	0.249
Mof_H 	H 	0.69657	0.55303	0.17603	-0.047
Mof_H 	H 	0.68467	0.57333	0.15703	-0.05
Mof_C 	C 	0.74519	0.59291	0.15722	-0.419
Mof_C 	C 	0.77648	0.59502	0.16964	0.484
Mof_C 	C 	0.81408	0.61358	0.16042	-0.404
Mof_C 	C 	0.8201	0.62623	0.13826	0.51
Mof_C 	C 	0.78806	0.62263	0.12604	-0.405
Mof_C 	C 	0.7497	0.60734	0.13619	0.488
Mof_C 	C 	0.71658	0.60769	0.12291	-1.024
Mof_H 	H 	0.70067	0.61393	0.13263	0.34
Mof_H 	H 	0.72797	0.62743	0.11133	0.344
Mof_H 	H 	0.69997	0.58183	0.11633	0.332
Mof_C 	C 	0.77035	0.57694	0.19303	-0.995
Mof_H 	H 	0.74747	0.55053	0.19303	0.33
Mof_H 	H 	0.79357	0.57563	0.19733	0.335
Mof_H 	H 	0.76617	0.59333	0.20343	0.314
Mof_C 	C 	0.86081	0.64431	0.12812	-1.057
Mof_H 	H 	0.87667	0.63603	0.13643	0.355
Mof_H 	H 	0.85867	0.63563	0.11293	0.344
Mof_H 	H 	0.87327	0.67293	0.12853	0.339
Mof_C 	C 	0.84975	0.62074	0.17398	0.227
Mof_H 	H 	0.84457	0.62193	0.18973	-0.036
Mof_H 	H 	0.87277	0.64593	0.16973	-0.037
Mof_C 	C 	0.89042	0.59209	0.18047	0.229
Mof_C 	C 	0.91576	0.62445	0.19377	-0.223
Mof_H 	H 	0.91037	0.64503	0.19623	0.111
Mof_C 	C 	0.94924	0.62607	0.20344	0.068
Mof_H 	H 	0.96617	0.64773	0.21233	-0.005
Mof_C 	C 	0.95739	0.59533	0.1998	-0.107
Mof_H 	H 	0.97977	0.59643	0.20623	0.064
Mof_C 	C 	0.93204	0.56296	0.1865	-0.022
Mof_C 	C 	0.89856	0.56134	0.17683	-0.165
Mof_H 	H 	0.88167	0.53973	0.16793	0.112
Mof_C 	C 	0.94073	0.53049	0.18267	0.356
Mof_C 	C 	0.79452	0.63745	0.10206	0.271
Mof_H 	H 	0.76957	0.62353	0.09393	-0.051
Mof_H 	H 	0.81377	0.63193	0.09483	-0.062
Mof_C 	C 	0.82158	0.69788	0.08193	0.254
Mof_C 	C 	0.83602	0.73875	0.08279	-0.238
Mof_H 	H 	0.83607	0.75063	0.09633	0.113
Mof_C 	C 	0.85021	0.76176	0.06387	0.087
Mof_H 	H 	0.86057	0.78923	0.06463	-0.006
Mof_C 	C 	0.84903	0.74367	0.04339	-0.115
Mof_H 	H 	0.85757	0.75893	0.03043	0.074
Mof_C 	C 	0.83523	0.70322	0.04255	0.008
Mof_C 	C 	0.82064	0.68061	0.06197	-0.208
Mof_H 	H 	0.81007	0.65313	0.06123	0.114
Mof_C 	C 	0.8334	0.68311	0.02088	0.34
Mof_C 	C 	0.62576	0.46327	0.17675	0.381
Mof_C 	C 	0.65193	0.467	0.19594	-0.017
Mof_C 	C 	0.67946	0.45395	0.19433	-0.097
Mof_H 	H 	0.68077	0.44133	0.18133	0.071
Mof_C 	C 	0.70498	0.45968	0.21208	0.058
Mof_H 	H 	0.72337	0.45093	0.21103	0.007
Mof_C 	C 	0.70298	0.47847	0.23145	-0.214
Mof_H 	H 	0.72007	0.48233	0.24333	0.11
Mof_C 	C 	0.67545	0.49152	0.23306	0.229
Mof_C 	C 	0.64993	0.48579	0.2153	-0.176
Mof_H 	H 	0.63157	0.49453	0.21633	0.104
Mof_C 	C 	0.65501	0.53001	0.2527	0.238
Mof_H 	H 	0.65997	0.54483	0.23883	-0.043
Mof_H 	H 	0.62657	0.51163	0.25393	-0.044
Mof_C 	C 	0.66941	0.55882	0.27254	-0.401
Mof_C 	C 	0.70511	0.59417	0.27125	0.543
Mof_C 	C 	0.71476	0.62278	0.28856	-0.413
Mof_C 	C 	0.68811	0.6155	0.30538	0.48
Mof_C 	C 	0.65286	0.57864	0.30737	-0.393
Mof_C 	C 	0.6441	0.54885	0.29174	0.461
Mof_C 	C 	0.60789	0.50776	0.29392	-0.969
Mof_H 	H 	0.61337	0.48843	0.28723	0.316
Mof_H 	H 	0.60167	0.50153	0.30943	0.315
Mof_H 	H 	0.58567	0.50723	0.28643	0.306
Mof_C 	C 	0.73225	0.60396	0.25239	-1.135
Mof_H 	H 	0.72937	0.62203	0.24253	0.363
Mof_H 	H 	0.75927	0.61633	0.25773	0.37
Mof_H 	H 	0.72597	0.57993	0.24443	0.371
Mof_C 	C 	0.69743	0.64903	0.32222	-0.999
Mof_H 	H 	0.70427	0.67323	0.31433	0.344
Mof_H 	H 	0.67437	0.64163	0.33143	0.34
Mof_H 	H 	0.71947	0.65313	0.33143	0.337
Mof_C 	C 	0.75291	0.66166	0.28719	0.245
Mof_H 	H 	0.77167	0.65963	0.27733	-0.053
Mof_H 	H 	0.76507	0.67013	0.30183	-0.041
Mof_C 	C 	0.76797	0.72852	0.28057	0.24
Mof_C 	C 	0.75347	0.75451	0.27699	-0.217
Mof_H 	H 	0.72637	0.74443	0.27423	0.107
Mof_C 	C 	0.77938	0.79556	0.27757	0.08
Mof_H 	H 	0.76967	0.81293	0.27513	-0.002
Mof_C 	C 	0.8198	0.81062	0.28172	-0.108
Mof_H 	H 	0.83717	0.83813	0.28213	0.079
Mof_C 	C 	0.83432	0.78464	0.28529	0.001
Mof_C 	C 	0.80841	0.74359	0.28471	-0.183
Mof_H 	H 	0.81817	0.72623	0.28713	0.106
Mof_C 	C 	0.87636	0.80063	0.2894	0.305
Mof_C 	C 	0.62326	0.57485	0.32462	0.251
Mof_H 	H 	0.59867	0.54983	0.32243	-0.041
Mof_H 	H 	0.61747	0.59633	0.32263	-0.047
Mof_C 	C 	0.62188	0.59052	0.36258	0.225
Mof_C 	C 	0.6428	0.6013	0.38264	-0.206
Mof_H 	H 	0.66517	0.59853	0.38443	0.104
Mof_C 	C 	0.63024	0.6162	0.40004	0.066
Mof_H 	H 	0.64427	0.62343	0.41343	-0
Mof_C 	C 	0.59673	0.6203	0.39739	-0.108
Mof_H 	H 	0.58827	0.63023	0.40903	0.06
Mof_C 	C 	0.57581	0.60952	0.37733	-0.003
Mof_C 	C 	0.58837	0.59462	0.35993	-0.176
Mof_H 	H 	0.57437	0.58743	0.34653	0.1
Mof_C 	C 	0.53973	0.61324	0.37463	0.294
Mof_Mn	Mn	0.48815	0.49784	0.19431	0.824
Mof_Mn	Mn	0.55137	0.47331	0.16182	0.921
Mof_Mn	Mn	0.62094	0.47328	0.12582	0.736
Mof_O 	O 	0.54127	0.54474	0.21383	-0.365
Mof_O 	O 	0.55804	0.51488	0.1898	-0.407
Mof_O 	O 	0.70892	0.60835	0.1837	-0.314
Mof_O 	O 	0.80849	0.67821	0.10159	-0.314
Mof_O 	O 	0.82097	0.64636	0.02187	-0.374
Mof_O 	O 	0.84397	0.70359	0.0037	-0.389
Mof_O 	O 	0.85747	0.58844	0.16992	-0.286
Mof_O 	O 	0.91537	0.49869	0.17433	-0.369
Mof_O 	O 	0.97426	0.53717	0.18983	-0.41
Mof_O 	O 	0.59589	0.46443	0.18083	-0.38
Mof_O 	O 	0.63689	0.45888	0.15824	-0.384
Mof_O 	O 	0.67583	0.50872	0.25268	-0.298
Mof_O 	O 	0.74111	0.68978	0.27823	-0.292
Mof_O 	O 	0.8876	0.77654	0.29573	-0.397
Mof_O 	O 	0.90204	0.83608	0.28589	-0.307
Mof_O 	O 	0.63675	0.57612	0.34663	-0.293
Mof_O 	O 	0.52379	0.60761	0.35596	-0.376
Mof_O 	O 	0.52596	0.62196	0.39166	-0.355
Mof_O 	O 	0.43977	0.50323	0.20463	-0.226
Mof_O 	O 	0.43137	0.49793	0.20173	-0.224
Mof_H 	H 	0.43687	0.52453	0.20423	-0.335
Mof_H 	H 	0.41807	0.48193	0.21453	0.334
Mof_H 	H 	0.40947	0.47123	0.20083	-0.011
Mof_H 	H 	0.42837	0.51393	0.19053	0.307
Mof_H 	H 	0.44787	0.53053	0.20743	0.432
Mof_H 	H 	0.42997	0.48833	0.21823	-0.203
Mof_H 	H 	0.41687	0.47713	0.20543	0.011
Mof_H 	H 	0.43467	0.51933	0.19463	-0.114
Mof_C 	C 	0.23487	0.87537	0.53663	0.33
Mof_C 	C 	0.27654	0.9055	0.54006	0.009
Mof_C 	C 	0.28642	0.93769	0.55443	-0.133
Mof_H 	H 	0.26663	0.93747	0.56337	0.086
Mof_C 	C 	0.32413	0.96914	0.55558	0.115
Mof_H 	H 	0.33023	0.99037	0.56517	-0.006
Mof_C 	C 	0.35247	0.96937	0.54283	-0.262
Mof_H 	H 	0.37823	0.99107	0.54347	0.11
Mof_C 	C 	0.34417	0.93739	0.52833	0.267
Mof_C 	C 	0.30603	0.90553	0.52699	-0.209
Mof_H 	H 	0.30013	0.88427	0.51747	0.116
Mof_C 	C 	0.37138	0.91126	0.50153	0.249
Mof_H 	H 	0.36323	0.88637	0.50937	-0.047
Mof_H 	H 	0.35133	0.90667	0.49037	-0.05
Mof_C 	C 	0.41185	0.92625	0.49056	-0.419
Mof_C 	C 	0.44314	0.92836	0.50298	0.484
Mof_C 	C 	0.48074	0.94692	0.49376	-0.404
Mof_C 	C 	0.48676	0.95957	0.4716	0.51
Mof_C 	C 	0.45472	0.95597	0.45938	-0.405
Mof_C 	C 	0.41636	0.94068	0.46953	0.488
Mof_C 	C 	0.38324	0.94103	0.45625	-1.024
Mof_H 	H 	0.36733	0.94727	0.46597	0.34
Mof_H 	H 	0.39463	0.96077	0.44467	0.344
Mof_H 	H 	0.36663	0.91517	0.44967	0.332
Mof_C 	C 	0.43701	0.91028	0.52637	-0.995
Mof_H 	H 	0.41413	0.88387	0.52637	0.33
Mof_H 	H 	0.46023	0.90897	0.53067	0.335
Mof_H 	H 	0.43283	0.92667	0.53677	0.314
Mof_C 	C 	0.52747	0.97765	0.46146	-1.057
Mof_H 	H 	0.54333	0.96937	0.46977	0.355
Mof_H 	H 	0.52533	0.96897	0.44627	0.344
Mof_H 	H 	0.53993	0.00627	0.46187	0.339
Mof_C 	C 	0.51641	0.95408	0.50732	0.227
Mof_H 	H 	0.51123	0.95527	0.52307	-0.036
Mof_H 	H 	0.53943	0.97927	0.50307	-0.037
Mof_C 	C 	0.55708	0.92543	0.51381	0.229
Mof_C 	C 	0.58242	0.95779	0.52711	-0.223
Mof_H 	H 	0.57703	0.97837	0.52957	0.111
Mof_C 	C 	0.6159	0.95941	0.53678	0.068
Mof_H 	H 	0.63283	0.98107	0.54567	-0.005
Mof_C 	C 	0.62405	0.92867	0.53314	-0.107
Mof_H 	H 	0.64643	0.92977	0.53957	0.064
Mof_C 	C 	0.5987	0.8963	0.51984	-0.022
Mof_C 	C 	0.56522	0.89468	0.51017	-0.165
Mof_H 	H 	0.54833	0.87307	0.50127	0.112
Mof_C 	C 	0.60739	0.86383	0.51601	0.356
Mof_C 	C 	0.46118	0.97079	0.4354	0.271
Mof_H 	H 	0.43623	0.95687	0.42727	-0.052
Mof_H 	H 	0.48043	0.96527	0.42817	-0.062
Mof_C 	C 	0.48824	0.03122	0.41527	0.254
Mof_C 	C 	0.50268	0.07209	0.41613	-0.238
Mof_H 	H 	0.50273	0.08397	0.42967	0.113
Mof_C 	C 	0.51687	0.0951	0.39721	0.087
Mof_H 	H 	0.52723	0.12257	0.39797	-0.006
Mof_C 	C 	0.51569	0.07701	0.37673	-0.115
Mof_H 	H 	0.52423	0.09227	0.36377	0.074
Mof_C 	C 	0.50189	0.03656	0.37589	0.008
Mof_C 	C 	0.4873	0.01395	0.39531	-0.208
Mof_H 	H 	0.47673	0.98647	0.39457	0.114
Mof_C 	C 	0.50006	0.01645	0.35422	0.34
Mof_C 	C 	0.29242	0.79661	0.51009	0.381
Mof_C 	C 	0.31859	0.80034	0.52928	-0.017
Mof_C 	C 	0.34612	0.78729	0.52767	-0.097
Mof_H 	H 	0.34743	0.77467	0.51467	0.071
Mof_C 	C 	0.37164	0.79302	0.54542	0.058
Mof_H 	H 	0.39003	0.78427	0.54437	0.007
Mof_C 	C 	0.36964	0.81181	0.56479	-0.214
Mof_H 	H 	0.38673	0.81567	0.57667	0.11
Mof_C 	C 	0.34211	0.82486	0.5664	0.229
Mof_C 	C 	0.31659	0.81913	0.54864	-0.176
Mof_H 	H 	0.29823	0.82787	0.54967	0.104
Mof_C 	C 	0.32167	0.86335	0.58604	0.238
Mof_H 	H 	0.32663	0.87817	0.57217	-0.043
Mof_H 	H 	0.29323	0.84497	0.58727	-0.044
Mof_C 	C 	0.33607	0.89216	0.60588	-0.401
Mof_C 	C 	0.37177	0.92751	0.60459	0.543
Mof_C 	C 	0.38142	0.95612	0.6219	-0.413
Mof_C 	C 	0.35477	0.94884	0.63872	0.48
Mof_C 	C 	0.31952	0.91198	0.64071	-0.393
Mof_C 	C 	0.31076	0.88219	0.62508	0.461
Mof_C 	C 	0.27455	0.8411	0.62726	-0.969
Mof_H 	H 	0.28003	0.82177	0.62057	0.316
Mof_H 	H 	0.26833	0.83487	0.64277	0.315
Mof_H 	H 	0.25233	0.84057	0.61977	0.306
Mof_C 	C 	0.39891	0.9373	0.58573	-1.135
Mof_H 	H 	0.39603	0.95537	0.57587	0.363
Mof_H 	H 	0.42593	0.94967	0.59107	0.37
Mof_H 	H 	0.39263	0.91327	0.57777	0.371
Mof_C 	C 	0.36409	0.98237	0.65556	-0.999
Mof_H 	H 	0.37093	0.00657	0.64767	0.344
Mof_H 	H 	0.34103	0.97497	0.66477	0.34
Mof_H 	H 	0.38613	0.98647	0.66477	0.337
Mof_C 	C 	0.41957	0.995	0.62053	0.245
Mof_H 	H 	0.43833	0.99297	0.61067	-0.053
Mof_H 	H 	0.43173	0.00347	0.63517	-0.042
Mof_C 	C 	0.43463	0.06186	0.61391	0.24
Mof_C 	C 	0.42013	0.08785	0.61033	-0.217
Mof_H 	H 	0.39303	0.07777	0.60757	0.107
Mof_C 	C 	0.44604	0.1289	0.61091	0.08
Mof_H 	H 	0.43633	0.14627	0.60847	-0.002
Mof_C 	C 	0.48646	0.14396	0.61506	-0.108
Mof_H 	H 	0.50383	0.17147	0.61547	0.079
Mof_C 	C 	0.50098	0.11798	0.61863	0.001
Mof_C 	C 	0.47507	0.07693	0.61805	-0.183
Mof_H 	H 	0.48483	0.05957	0.62047	0.106
Mof_C 	C 	0.54302	0.13397	0.62274	0.305
Mof_C 	C 	0.28992	0.90819	0.65796	0.251
Mof_H 	H 	0.26533	0.88317	0.65577	-0.041
Mof_H 	H 	0.28413	0.92967	0.65597	-0.047
Mof_C 	C 	0.28854	0.92386	0.69592	0.225
Mof_C 	C 	0.30946	0.93464	0.71598	-0.206
Mof_H 	H 	0.33183	0.93187	0.71777	0.104
Mof_C 	C 	0.2969	0.94954	0.73338	0.066
Mof_H 	H 	0.31093	0.95677	0.74677	-0
Mof_C 	C 	0.26339	0.95364	0.73073	-0.108
Mof_H 	H 	0.25493	0.96357	0.74237	0.06
Mof_C 	C 	0.24247	0.94286	0.71067	-0.003
Mof_C 	C 	0.25503	0.92796	0.69327	-0.176
Mof_H 	H 	0.24103	0.92077	0.67987	0.1
Mof_C 	C 	0.20639	0.94658	0.70797	0.294
Mof_Mn	Mn	0.15482	0.83117	0.52765	0.824
Mof_Mn	Mn	0.21804	0.80665	0.49515	0.921
Mof_Mn	Mn	0.28761	0.80661	0.45915	0.736
Mof_O 	O 	0.20793	0.87808	0.54717	-0.365
Mof_O 	O 	0.2247	0.84822	0.52314	-0.407
Mof_O 	O 	0.37558	0.94169	0.51704	-0.314
Mof_O 	O 	0.47515	0.01155	0.43493	-0.314
Mof_O 	O 	0.48763	0.9797	0.35521	-0.374
Mof_O 	O 	0.51063	0.03693	0.33704	-0.389
Mof_O 	O 	0.52413	0.92178	0.50326	-0.286
Mof_O 	O 	0.58203	0.83203	0.50767	-0.369
Mof_O 	O 	0.64092	0.87051	0.52317	-0.41
Mof_O 	O 	0.26255	0.79777	0.51417	-0.38
Mof_O 	O 	0.30355	0.79222	0.49158	-0.384
Mof_O 	O 	0.34249	0.84206	0.58602	-0.298
Mof_O 	O 	0.40777	0.02312	0.61157	-0.292
Mof_O 	O 	0.55426	0.10988	0.62907	-0.397
Mof_O 	O 	0.5687	0.16942	0.61923	-0.307
Mof_O 	O 	0.30341	0.90946	0.67997	-0.293
Mof_O 	O 	0.19045	0.94095	0.6893	-0.376
Mof_O 	O 	0.19262	0.9553	0.725	-0.355
Mof_O 	O 	0.10643	0.83657	0.53797	-0.226
Mof_O 	O 	0.09803	0.83127	0.53507	-0.224
Mof_H 	H 	0.10353	0.85787	0.53757	-0.334
Mof_H 	H 	0.08473	0.81527	0.54787	0.334
Mof_H 	H 	0.07613	0.80457	0.53417	-0.011
Mof_H 	H 	0.09503	0.84727	0.52387	0.307
Mof_H 	H 	0.11453	0.86387	0.54077	0.432
Mof_H 	H 	0.09663	0.82167	0.55157	-0.203
Mof_H 	H 	0.08353	0.81047	0.53877	0.011
Mof_H 	H 	0.10133	0.85267	0.52797	-0.114
Mof_C 	C 	0.30716	0.09846	0.86996	0.33
Mof_C 	C 	0.29562	0.05679	0.87339	0.009
Mof_C 	C 	0.31793	0.04691	0.88776	-0.133
Mof_H 	H 	0.3375	0.0667	0.8967	0.086
Mof_C 	C 	0.31167	0.0092	0.88891	0.115
Mof_H 	H 	0.3268	0.0031	0.8985	-0.006
Mof_C 	C 	0.28356	0.98086	0.87616	-0.262
Mof_H 	H 	0.2795	0.9551	0.8768	0.11
Mof_C 	C 	0.25988	0.98916	0.86166	0.267
Mof_C 	C 	0.26616	0.0273	0.86032	-0.209
Mof_H 	H 	0.2508	0.0332	0.8508	0.116
Mof_C 	C 	0.20654	0.96195	0.83486	0.249
Mof_H 	H 	0.1898	0.9701	0.8427	-0.047
Mof_H 	H 	0.222	0.982	0.8237	-0.05
Mof_C 	C 	0.18106	0.92148	0.82389	-0.419
Mof_C 	C 	0.15188	0.89019	0.83631	0.484
Mof_C 	C 	0.13284	0.85259	0.82709	-0.404
Mof_C 	C 	0.13947	0.84657	0.80493	0.51
Mof_C 	C 	0.16791	0.87861	0.79271	-0.405
Mof_C 	C 	0.19098	0.91697	0.80286	0.488
Mof_C 	C 	0.22445	0.95009	0.78958	-1.024
Mof_H 	H 	0.2466	0.966	0.7993	0.34
Mof_H 	H 	0.2328	0.9387	0.778	0.344
Mof_H 	H 	0.2152	0.9667	0.783	0.332
Mof_C 	C 	0.13993	0.89632	0.8597	-0.995
Mof_H 	H 	0.1364	0.9192	0.8597	0.33
Mof_H 	H 	0.1154	0.8731	0.864	0.335
Mof_H 	H 	0.1605	0.9005	0.8701	0.314
Mof_C 	C 	0.11684	0.80586	0.79479	-1.057
Mof_H 	H 	0.0927	0.79	0.8031	0.355
Mof_H 	H 	0.1103	0.808	0.7796	0.344
Mof_H 	H 	0.133	0.7934	0.7952	0.339
Mof_C 	C 	0.10433	0.81692	0.84065	0.227
Mof_H 	H 	0.1107	0.8221	0.8564	-0.036
Mof_H 	H 	0.1065	0.7939	0.8364	-0.037
Mof_C 	C 	0.03501	0.77625	0.84714	0.229
Mof_C 	C 	0.04203	0.75091	0.86044	-0.223
Mof_H 	H 	0.068	0.7563	0.8629	0.111
Mof_C 	C 	0.01017	0.71743	0.87011	0.068
Mof_H 	H 	0.0149	0.7005	0.879	-0.005
Mof_C 	C 	0.97128	0.70928	0.86647	-0.107
Mof_H 	H 	0.95	0.6869	0.8729	0.064
Mof_C 	C 	0.96426	0.73463	0.85317	-0.022
Mof_C 	C 	0.99612	0.76811	0.8435	-0.165
Mof_H 	H 	0.9914	0.785	0.8346	0.112
Mof_C 	C 	0.9231	0.72594	0.84934	0.356
Mof_C 	C 	0.17627	0.87215	0.76873	0.271
Mof_H 	H 	0.1873	0.8971	0.7606	-0.051
Mof_H 	H 	0.1515	0.8529	0.7615	-0.062
Mof_C 	C 	0.20964	0.84509	0.7486	0.254
Mof_C 	C 	0.23607	0.83065	0.74946	-0.238
Mof_H 	H 	0.2479	0.8306	0.763	0.113
Mof_C 	C 	0.24489	0.81646	0.73054	0.087
Mof_H 	H 	0.262	0.8061	0.7313	-0.006
Mof_C 	C 	0.22798	0.81764	0.71006	-0.115
Mof_H 	H 	0.2347	0.8091	0.6971	0.074
Mof_C 	C 	0.20133	0.83144	0.70922	0.008
Mof_C 	C 	0.19331	0.84603	0.72864	-0.208
Mof_H 	H 	0.1764	0.8566	0.7279	0.114
Mof_C 	C 	0.18305	0.83327	0.68755	0.34
Mof_C 	C 	0.17085	0.04091	0.84342	0.381
Mof_C 	C 	0.14841	0.01474	0.86261	-0.017
Mof_C 	C 	0.10783	0.98721	0.861	-0.097
Mof_H 	H 	0.0939	0.9859	0.848	0.071
Mof_C 	C 	0.08804	0.96169	0.87875	0.058
Mof_H 	H 	0.0609	0.9433	0.8777	0.007
Mof_C 	C 	0.10883	0.96369	0.89812	-0.214
Mof_H 	H 	0.0956	0.9466	0.91	0.11
Mof_C 	C 	0.14941	0.99122	0.89973	0.229
Mof_C 	C 	0.1692	0.01674	0.88197	-0.176
Mof_H 	H 	0.1963	0.0351	0.883	0.104
Mof_C 	C 	0.20834	0.01166	0.91937	0.238
Mof_H 	H 	0.2182	0.0067	0.9055	-0.043
Mof_H 	H 	0.2184	0.0401	0.9206	-0.044
Mof_C 	C 	0.22275	0.99726	0.93921	-0.401
Mof_C 	C 	0.2224	0.96156	0.93792	0.543
Mof_C 	C 	0.24136	0.95191	0.95523	-0.413
Mof_C 	C 	0.26073	0.97856	0.97205	0.48
Mof_C 	C 	0.25912	0.01381	0.97404	-0.393
Mof_C 	C 	0.23809	0.02257	0.95841	0.461
Mof_C 	C 	0.23321	0.05878	0.96059	-0.969
Mof_H 	H 	0.2084	0.0533	0.9539	0.316
Mof_H 	H 	0.2332	0.065	0.9761	0.315
Mof_H 	H 	0.2549	0.081	0.9531	0.306
Mof_C 	C 	0.20505	0.93442	0.91906	-1.135
Mof_H 	H 	0.226	0.9373	0.9092	0.363
Mof_H 	H 	0.1904	0.9074	0.9244	0.37
Mof_H 	H 	0.1873	0.9407	0.9111	0.371
Mof_C 	C 	0.28494	0.96924	0.98889	-0.999
Mof_H 	H 	0.3023	0.9624	0.981	0.344
Mof_H 	H 	0.3006	0.9923	0.9981	0.34
Mof_H 	H 	0.267	0.9472	0.9981	0.337
Mof_C 	C 	0.24209	0.91376	0.95386	0.245
Mof_H 	H 	0.2213	0.895	0.944	-0.053
Mof_H 	H 	0.2384	0.9016	0.9685	-0.041
Mof_C 	C 	0.29389	0.8987	0.94724	0.24
Mof_C 	C 	0.33438	0.9132	0.94366	-0.217
Mof_H 	H 	0.3514	0.9403	0.9409	0.107
Mof_C 	C 	0.34952	0.88729	0.94424	0.08
Mof_H 	H 	0.3766	0.897	0.9418	-0.002
Mof_C 	C 	0.32416	0.84687	0.94839	-0.108
Mof_H 	H 	0.3343	0.8295	0.9488	0.079
Mof_C 	C 	0.28366	0.83235	0.95196	0.001
Mof_C 	C 	0.26852	0.85826	0.95138	-0.183
Mof_H 	H 	0.2414	0.8485	0.9538	0.106
Mof_C 	C 	0.25761	0.79031	0.95607	0.305
Mof_C 	C 	0.28493	0.04341	0.99129	0.251
Mof_H 	H 	0.2845	0.068	0.9891	-0.041
Mof_H 	H 	0.3122	0.0492	0.9893	-0.047
Mof_C 	C 	0.30198	0.04479	0.02925	0.225
Mof_C 	C 	0.29184	0.02387	0.04931	-0.206
Mof_H 	H 	0.2667	0.0015	0.0511	0.104
Mof_C 	C 	0.3193	0.03643	0.06671	0.066
Mof_H 	H 	0.3125	0.0224	0.0801	-0
Mof_C 	C 	0.35691	0.06994	0.06406	-0.108
Mof_H 	H 	0.3753	0.0784	0.0757	0.06
Mof_C 	C 	0.36705	0.09086	0.044	-0.003
Mof_C 	C 	0.33959	0.0783	0.0266	-0.176
Mof_H 	H 	0.3464	0.0923	0.0132	0.1
Mof_C 	C 	0.40685	0.12694	0.0413	0.294
Mof_Mn	Mn	0.34302	0.17851	0.86098	0.824
Mof_Mn	Mn	0.25527	0.11529	0.82848	0.921
Mof_Mn	Mn	0.18567	0.04573	0.79248	0.736
Mof_O 	O 	0.33681	0.1254	0.8805	-0.365
Mof_O 	O 	0.29018	0.10863	0.85647	-0.407
Mof_O 	O 	0.23277	0.95775	0.85037	-0.314
Mof_O 	O 	0.20306	0.85818	0.76826	-0.314
Mof_O 	O 	0.15873	0.8457	0.68854	-0.374
Mof_O 	O 	0.19296	0.8227	0.67037	-0.389
Mof_O 	O 	0.06431	0.8092	0.83659	-0.286
Mof_O 	O 	0.91666	0.7513	0.841	-0.369
Mof_O 	O 	0.89625	0.69241	0.8565	-0.41
Mof_O 	O 	0.20188	0.07078	0.8475	-0.38
Mof_O 	O 	0.15533	0.02978	0.82491	-0.384
Mof_O 	O 	0.16623	0.99084	0.91935	-0.298
Mof_O 	O 	0.28201	0.92556	0.9449	-0.292
Mof_O 	O 	0.22228	0.77907	0.9624	-0.397
Mof_O 	O 	0.26738	0.76463	0.95256	-0.307
Mof_O 	O 	0.27271	0.02992	0.0133	-0.293
Mof_O 	O 	0.41716	0.14288	0.02263	-0.376
Mof_O 	O 	0.42934	0.14071	0.05833	-0.355
Mof_O 	O 	0.3968	0.2269	0.8713	-0.226
Mof_O 	O 	0.3999	0.2353	0.8684	-0.224
Mof_H 	H 	0.421	0.2298	0.8709	-0.334
Mof_H 	H 	0.3972	0.2486	0.8812	0.334
Mof_H 	H 	0.3951	0.2572	0.8675	-0.011
Mof_H 	H 	0.4189	0.2383	0.8572	0.307
Mof_H 	H 	0.416	0.2188	0.8741	0.432
Mof_H 	H 	0.3917	0.2367	0.8849	-0.203
Mof_H 	H 	0.3936	0.2498	0.8721	0.011
Mof_H 	H 	0.418	0.232	0.8613	-0.114
Mof_C 	C 	0.97383	0.43179	0.20329	0.33
Mof_C 	C 	0.96229	0.39012	0.20672	0.009
Mof_C 	C 	0.9846	0.38024	0.22109	-0.133
Mof_H 	H 	0.00417	0.40003	0.23003	0.086
Mof_C 	C 	0.97834	0.34253	0.22224	0.115
Mof_H 	H 	0.99347	0.33643	0.23183	-0.006
Mof_C 	C 	0.95023	0.31419	0.20949	-0.262
Mof_H 	H 	0.94617	0.28843	0.21013	0.11
Mof_C 	C 	0.92655	0.32249	0.19499	0.267
Mof_C 	C 	0.93283	0.36063	0.19365	-0.209
Mof_H 	H 	0.91747	0.36653	0.18413	0.116
Mof_C 	C 	0.87321	0.29528	0.16819	0.249
Mof_H 	H 	0.85647	0.30343	0.17603	-0.047
Mof_H 	H 	0.88867	0.31533	0.15703	-0.05
Mof_C 	C 	0.84773	0.25481	0.15722	-0.419
Mof_C 	C 	0.81855	0.22352	0.16964	0.484
Mof_C 	C 	0.79951	0.18592	0.16042	-0.404
Mof_C 	C 	0.80614	0.1799	0.13826	0.51
Mof_C 	C 	0.83458	0.21194	0.12604	-0.405
Mof_C 	C 	0.85765	0.2503	0.13619	0.488
Mof_C 	C 	0.89112	0.28342	0.12291	-1.024
Mof_H 	H 	0.91327	0.29933	0.13263	0.34
Mof_H 	H 	0.89947	0.27203	0.11133	0.344
Mof_H 	H 	0.88187	0.30003	0.11633	0.332
Mof_C 	C 	0.8066	0.22965	0.19303	-0.995
Mof_H 	H 	0.80307	0.25253	0.19303	0.33
Mof_H 	H 	0.78207	0.20643	0.19733	0.335
Mof_H 	H 	0.82717	0.23383	0.20343	0.314
Mof_C 	C 	0.78351	0.13919	0.12812	-1.057
Mof_H 	H 	0.75937	0.12333	0.13643	0.355
Mof_H 	H 	0.77697	0.14133	0.11293	0.344
Mof_H 	H 	0.79967	0.12673	0.12853	0.339
Mof_C 	C 	0.771	0.15025	0.17398	0.227
Mof_H 	H 	0.77737	0.15543	0.18973	-0.036
Mof_H 	H 	0.77317	0.12723	0.16973	-0.037
Mof_C 	C 	0.70168	0.10958	0.18047	0.229
Mof_C 	C 	0.7087	0.08424	0.19377	-0.223
Mof_H 	H 	0.73467	0.08963	0.19623	0.111
Mof_C 	C 	0.67684	0.05076	0.20344	0.068
Mof_H 	H 	0.68157	0.03383	0.21233	-0.005
Mof_C 	C 	0.63795	0.04261	0.1998	-0.107
Mof_H 	H 	0.61667	0.02023	0.20623	0.064
Mof_C 	C 	0.63093	0.06796	0.1865	-0.022
Mof_C 	C 	0.66279	0.10144	0.17683	-0.165
Mof_H 	H 	0.65807	0.11833	0.16793	0.112
Mof_C 	C 	0.58977	0.05927	0.18267	0.356
Mof_C 	C 	0.84294	0.20548	0.10206	0.271
Mof_H 	H 	0.85397	0.23043	0.09393	-0.051
Mof_H 	H 	0.81817	0.18623	0.09483	-0.062
Mof_C 	C 	0.87631	0.17842	0.08193	0.254
Mof_C 	C 	0.90274	0.16398	0.08279	-0.238
Mof_H 	H 	0.91457	0.16393	0.09633	0.113
Mof_C 	C 	0.91156	0.14979	0.06387	0.087
Mof_H 	H 	0.92867	0.13943	0.06463	-0.006
Mof_C 	C 	0.89465	0.15097	0.04339	-0.115
Mof_H 	H 	0.90137	0.14243	0.03043	0.074
Mof_C 	C 	0.868	0.16477	0.04255	0.008
Mof_C 	C 	0.85998	0.17936	0.06197	-0.208
Mof_H 	H 	0.84307	0.18993	0.06123	0.114
Mof_C 	C 	0.84972	0.1666	0.02088	0.34
Mof_C 	C 	0.83752	0.37424	0.17675	0.381
Mof_C 	C 	0.81508	0.34807	0.19594	-0.017
Mof_C 	C 	0.7745	0.32054	0.19433	-0.097
Mof_H 	H 	0.76057	0.31923	0.18133	0.071
Mof_C 	C 	0.75471	0.29502	0.21208	0.058
Mof_H 	H 	0.72757	0.27663	0.21103	0.007
Mof_C 	C 	0.7755	0.29702	0.23145	-0.214
Mof_H 	H 	0.76227	0.27993	0.24333	0.11
Mof_C 	C 	0.81608	0.32455	0.23306	0.229
Mof_C 	C 	0.83587	0.35007	0.2153	-0.176
Mof_H 	H 	0.86297	0.36843	0.21633	0.104
Mof_C 	C 	0.87501	0.34499	0.2527	0.238
Mof_H 	H 	0.88487	0.34003	0.23883	-0.043
Mof_H 	H 	0.88507	0.37343	0.25393	-0.044
Mof_C 	C 	0.88942	0.33059	0.27254	-0.401
Mof_C 	C 	0.88907	0.29489	0.27125	0.543
Mof_C 	C 	0.90803	0.28524	0.28856	-0.413
Mof_C 	C 	0.9274	0.31189	0.30538	0.48
Mof_C 	C 	0.92579	0.34714	0.30737	-0.393
Mof_C 	C 	0.90476	0.3559	0.29174	0.461
Mof_C 	C 	0.89988	0.39211	0.29392	-0.969
Mof_H 	H 	0.87507	0.38663	0.28723	0.316
Mof_H 	H 	0.89987	0.39833	0.30943	0.315
Mof_H 	H 	0.92157	0.41433	0.28643	0.306
Mof_C 	C 	0.87172	0.26775	0.25239	-1.135
Mof_H 	H 	0.89267	0.27063	0.24253	0.363
Mof_H 	H 	0.85707	0.24073	0.25773	0.37
Mof_H 	H 	0.85397	0.27403	0.24443	0.371
Mof_C 	C 	0.95161	0.30257	0.32222	-0.999
Mof_H 	H 	0.96897	0.29573	0.31433	0.344
Mof_H 	H 	0.96727	0.32563	0.33143	0.34
Mof_H 	H 	0.93367	0.28053	0.33143	0.337
Mof_C 	C 	0.90876	0.24709	0.28719	0.245
Mof_H 	H 	0.88797	0.22833	0.27733	-0.053
Mof_H 	H 	0.90507	0.23493	0.30183	-0.041
Mof_C 	C 	0.96056	0.23203	0.28057	0.24
Mof_C 	C 	0.00105	0.24653	0.27699	-0.217
Mof_H 	H 	0.01807	0.27363	0.27423	0.107
Mof_C 	C 	0.01619	0.22062	0.27757	0.08
Mof_H 	H 	0.04327	0.23033	0.27513	-0.002
Mof_C 	C 	0.99083	0.1802	0.28172	-0.108
Mof_H 	H 	0.00097	0.16283	0.28213	0.079
Mof_C 	C 	0.95033	0.16568	0.28529	0.001
Mof_C 	C 	0.93519	0.19159	0.28471	-0.183
Mof_H 	H 	0.90807	0.18183	0.28713	0.106
Mof_C 	C 	0.92428	0.12364	0.2894	0.305
Mof_C 	C 	0.9516	0.37674	0.32462	0.251
Mof_H 	H 	0.95117	0.40133	0.32243	-0.041
Mof_H 	H 	0.97887	0.38253	0.32263	-0.047
Mof_C 	C 	0.96865	0.37812	0.36258	0.225
Mof_C 	C 	0.95851	0.3572	0.38264	-0.206
Mof_H 	H 	0.93337	0.33483	0.38443	0.104
Mof_C 	C 	0.98597	0.36976	0.40004	0.066
Mof_H 	H 	0.97917	0.35573	0.41343	-0
Mof_C 	C 	0.02358	0.40327	0.39739	-0.109
Mof_H 	H 	0.04197	0.41173	0.40903	0.06
Mof_C 	C 	0.03372	0.42419	0.37733	-0.003
Mof_C 	C 	0.00626	0.41163	0.35993	-0.176
Mof_H 	H 	0.01307	0.42563	0.34653	0.1
Mof_C 	C 	0.07352	0.46027	0.37463	0.294
Mof_Mn	Mn	0.00968	0.51185	0.19431	0.824
Mof_Mn	Mn	0.92194	0.44863	0.16182	0.921
Mof_Mn	Mn	0.85234	0.37906	0.12582	0.736
Mof_O 	O 	0.00348	0.45873	0.21383	-0.365
Mof_O 	O 	0.95685	0.44196	0.1898	-0.407
Mof_O 	O 	0.89944	0.29108	0.1837	-0.314
Mof_O 	O 	0.86973	0.19151	0.10159	-0.314
Mof_O 	O 	0.8254	0.17903	0.02187	-0.374
Mof_O 	O 	0.85963	0.15603	0.0037	-0.389
Mof_O 	O 	0.73098	0.14253	0.16992	-0.286
Mof_O 	O 	0.58333	0.08463	0.17433	-0.369
Mof_O 	O 	0.56292	0.02574	0.18983	-0.41
Mof_O 	O 	0.86855	0.40411	0.18083	-0.38
Mof_O 	O 	0.822	0.36311	0.15824	-0.384
Mof_O 	O 	0.8329	0.32417	0.25268	-0.298
Mof_O 	O 	0.94868	0.25889	0.27823	-0.292
Mof_O 	O 	0.88895	0.1124	0.29573	-0.397
Mof_O 	O 	0.93405	0.09796	0.28589	-0.307
Mof_O 	O 	0.93938	0.36325	0.34663	-0.293
Mof_O 	O 	0.08383	0.47621	0.35596	-0.376
Mof_O 	O 	0.09601	0.47404	0.39166	-0.355
Mof_O 	O 	0.06347	0.56023	0.20463	-0.226
Mof_O 	O 	0.06657	0.56863	0.20173	-0.224
Mof_H 	H 	0.08767	0.56313	0.20423	-0.334
Mof_H 	H 	0.06387	0.58193	0.21453	0.334
Mof_H 	H 	0.06177	0.59053	0.20083	-0.011
Mof_H 	H 	0.08557	0.57163	0.19053	0.307
Mof_H 	H 	0.08267	0.55213	0.20743	0.432
Mof_H 	H 	0.05837	0.57003	0.21823	-0.203
Mof_H 	H 	0.06027	0.58313	0.20543	0.011
Mof_H 	H 	0.08467	0.56533	0.19463	-0.114
Mof_C 	C 	0.64049	0.76513	0.53663	0.33
Mof_C 	C 	0.62895	0.72346	0.54006	0.009
Mof_C 	C 	0.65126	0.71358	0.55443	-0.133
Mof_H 	H 	0.67083	0.73337	0.56337	0.086
Mof_C 	C 	0.645	0.67587	0.55558	0.115
Mof_H 	H 	0.66013	0.66977	0.56517	-0.006
Mof_C 	C 	0.61689	0.64753	0.54283	-0.262
Mof_H 	H 	0.61283	0.62177	0.54347	0.11
Mof_C 	C 	0.59321	0.65583	0.52833	0.267
Mof_C 	C 	0.59949	0.69397	0.52699	-0.209
Mof_H 	H 	0.58413	0.69987	0.51747	0.116
Mof_C 	C 	0.53987	0.62862	0.50153	0.249
Mof_H 	H 	0.52313	0.63677	0.50937	-0.047
Mof_H 	H 	0.55533	0.64867	0.49037	-0.05
Mof_C 	C 	0.51439	0.58815	0.49056	-0.419
Mof_C 	C 	0.48521	0.55686	0.50298	0.484
Mof_C 	C 	0.46617	0.51926	0.49376	-0.404
Mof_C 	C 	0.4728	0.51324	0.4716	0.51
Mof_C 	C 	0.50124	0.54528	0.45938	-0.405
Mof_C 	C 	0.52431	0.58364	0.46953	0.488
Mof_C 	C 	0.55778	0.61676	0.45625	-1.024
Mof_H 	H 	0.57993	0.63267	0.46597	0.34
Mof_H 	H 	0.56613	0.60537	0.44467	0.344
Mof_H 	H 	0.54853	0.63337	0.44967	0.332
Mof_C 	C 	0.47326	0.56299	0.52637	-0.995
Mof_H 	H 	0.46973	0.58587	0.52637	0.33
Mof_H 	H 	0.44873	0.53977	0.53067	0.335
Mof_H 	H 	0.49383	0.56717	0.53677	0.314
Mof_C 	C 	0.45017	0.47253	0.46146	-1.057
Mof_H 	H 	0.42603	0.45667	0.46977	0.355
Mof_H 	H 	0.44363	0.47467	0.44627	0.344
Mof_H 	H 	0.46633	0.46007	0.46187	0.339
Mof_C 	C 	0.43766	0.48359	0.50732	0.227
Mof_H 	H 	0.44403	0.48877	0.52307	-0.036
Mof_H 	H 	0.43983	0.46057	0.50307	-0.037
Mof_C 	C 	0.36834	0.44292	0.51381	0.229
Mof_C 	C 	0.37536	0.41758	0.52711	-0.223
Mof_H 	H 	0.40133	0.42297	0.52957	0.111
Mof_C 	C 	0.3435	0.3841	0.53678	0.068
Mof_H 	H 	0.34823	0.36717	0.54567	-0.005
Mof_C 	C 	0.30461	0.37595	0.53314	-0.107
Mof_H 	H 	0.28333	0.35357	0.53957	0.064
Mof_C 	C 	0.29759	0.4013	0.51984	-0.022
Mof_C 	C 	0.32945	0.43478	0.51017	-0.165
Mof_H 	H 	0.32473	0.45167	0.50127	0.112
Mof_C 	C 	0.25643	0.39261	0.51601	0.356
Mof_C 	C 	0.5096	0.53882	0.4354	0.271
Mof_H 	H 	0.52063	0.56377	0.42727	-0.052
Mof_H 	H 	0.48483	0.51957	0.42817	-0.062
Mof_C 	C 	0.54297	0.51176	0.41527	0.254
Mof_C 	C 	0.5694	0.49732	0.41613	-0.238
Mof_H 	H 	0.58123	0.49727	0.42967	0.113
Mof_C 	C 	0.57822	0.48313	0.39721	0.087
Mof_H 	H 	0.59533	0.47277	0.39797	-0.006
Mof_C 	C 	0.56131	0.48431	0.37673	-0.115
Mof_H 	H 	0.56803	0.47577	0.36377	0.074
Mof_C 	C 	0.53466	0.49811	0.37589	0.008
Mof_C 	C 	0.52664	0.5127	0.39531	-0.208
Mof_H 	H 	0.50973	0.52327	0.39457	0.114
Mof_C 	C 	0.51638	0.49994	0.35422	0.34
Mof_C 	C 	0.50418	0.70758	0.51009	0.381
Mof_C 	C 	0.48174	0.68141	0.52928	-0.017
Mof_C 	C 	0.44116	0.65388	0.52767	-0.097
Mof_H 	H 	0.42723	0.65257	0.51467	0.071
Mof_C 	C 	0.42137	0.62836	0.54542	0.058
Mof_H 	H 	0.39423	0.60997	0.54437	0.007
Mof_C 	C 	0.44216	0.63036	0.56479	-0.214
Mof_H 	H 	0.42893	0.61327	0.57667	0.11
Mof_C 	C 	0.48274	0.65789	0.5664	0.229
Mof_C 	C 	0.50253	0.68341	0.54864	-0.176
Mof_H 	H 	0.52963	0.70177	0.54967	0.104
Mof_C 	C 	0.54167	0.67833	0.58604	0.238
Mof_H 	H 	0.55153	0.67337	0.57217	-0.043
Mof_H 	H 	0.55173	0.70677	0.58727	-0.044
Mof_C 	C 	0.55608	0.66393	0.60588	-0.401
Mof_C 	C 	0.55573	0.62823	0.60459	0.543
Mof_C 	C 	0.57469	0.61858	0.6219	-0.413
Mof_C 	C 	0.59406	0.64523	0.63872	0.48
Mof_C 	C 	0.59245	0.68048	0.64071	-0.393
Mof_C 	C 	0.57142	0.68924	0.62508	0.461
Mof_C 	C 	0.56654	0.72545	0.62726	-0.969
Mof_H 	H 	0.54173	0.71997	0.62057	0.316
Mof_H 	H 	0.56653	0.73167	0.64277	0.315
Mof_H 	H 	0.58823	0.74767	0.61977	0.306
Mof_C 	C 	0.53838	0.60109	0.58573	-1.135
Mof_H 	H 	0.55933	0.60397	0.57587	0.363
Mof_H 	H 	0.52373	0.57407	0.59107	0.37
Mof_H 	H 	0.52063	0.60737	0.57777	0.371
Mof_C 	C 	0.61827	0.63591	0.65556	-0.999
Mof_H 	H 	0.63563	0.62907	0.64767	0.344
Mof_H 	H 	0.63393	0.65897	0.66477	0.34
Mof_H 	H 	0.60033	0.61387	0.66477	0.337
Mof_C 	C 	0.57542	0.58043	0.62053	0.245
Mof_H 	H 	0.55463	0.56167	0.61067	-0.053
Mof_H 	H 	0.57173	0.56827	0.63517	-0.041
Mof_C 	C 	0.62722	0.56537	0.61391	0.24
Mof_C 	C 	0.66771	0.57987	0.61033	-0.217
Mof_H 	H 	0.68473	0.60697	0.60757	0.107
Mof_C 	C 	0.68285	0.55396	0.61091	0.08
Mof_H 	H 	0.70993	0.56367	0.60847	-0.002
Mof_C 	C 	0.65749	0.51354	0.61506	-0.108
Mof_H 	H 	0.66763	0.49617	0.61547	0.079
Mof_C 	C 	0.61699	0.49902	0.61863	0.001
Mof_C 	C 	0.60185	0.52493	0.61805	-0.183
Mof_H 	H 	0.57473	0.51517	0.62047	0.106
Mof_C 	C 	0.59094	0.45698	0.62274	0.305
Mof_C 	C 	0.61826	0.71008	0.65796	0.251
Mof_H 	H 	0.61783	0.73467	0.65577	-0.041
Mof_H 	H 	0.64553	0.71587	0.65597	-0.047
Mof_C 	C 	0.63531	0.71146	0.69592	0.225
Mof_C 	C 	0.62517	0.69054	0.71598	-0.206
Mof_H 	H 	0.60003	0.66817	0.71777	0.104
Mof_C 	C 	0.65263	0.7031	0.73338	0.066
Mof_H 	H 	0.64583	0.68907	0.74677	-0
Mof_C 	C 	0.69024	0.73661	0.73073	-0.108
Mof_H 	H 	0.70863	0.74507	0.74237	0.06
Mof_C 	C 	0.70038	0.75753	0.71067	-0.003
Mof_C 	C 	0.67292	0.74497	0.69327	-0.176
Mof_H 	H 	0.67973	0.75897	0.67987	0.1
Mof_C 	C 	0.74018	0.79361	0.70797	0.294
Mof_Mn	Mn	0.67635	0.84518	0.52765	0.824
Mof_Mn	Mn	0.58861	0.78196	0.49515	0.921
Mof_Mn	Mn	0.519	0.71239	0.45915	0.736
Mof_O 	O 	0.67014	0.79207	0.54717	-0.365
Mof_O 	O 	0.62351	0.7753	0.52314	-0.407
Mof_O 	O 	0.5661	0.62442	0.51704	-0.314
Mof_O 	O 	0.53639	0.52485	0.43493	-0.314
Mof_O 	O 	0.49206	0.51237	0.35521	-0.374
Mof_O 	O 	0.52629	0.48937	0.33704	-0.389
Mof_O 	O 	0.39764	0.47587	0.50326	-0.286
Mof_O 	O 	0.24999	0.41797	0.50767	-0.369
Mof_O 	O 	0.22958	0.35908	0.52317	-0.41
Mof_O 	O 	0.53521	0.73745	0.51417	-0.38
Mof_O 	O 	0.48866	0.69645	0.49158	-0.384
Mof_O 	O 	0.49956	0.65751	0.58602	-0.298
Mof_O 	O 	0.61534	0.59223	0.61157	-0.292
Mof_O 	O 	0.55561	0.44574	0.62907	-0.397
Mof_O 	O 	0.60071	0.4313	0.61923	-0.307
Mof_O 	O 	0.60604	0.69659	0.67997	-0.293
Mof_O 	O 	0.75049	0.80955	0.6893	-0.376
Mof_O 	O 	0.76267	0.80738	0.725	-0.355
Mof_O 	O 	0.73013	0.89357	0.53797	-0.226
Mof_O 	O 	0.73323	0.90197	0.53507	-0.224
Mof_H 	H 	0.75433	0.89647	0.53757	-0.334
Mof_H 	H 	0.73053	0.91527	0.54787	0.334
Mof_H 	H 	0.72843	0.92387	0.53417	-0.011
Mof_H 	H 	0.75223	0.90497	0.52387	0.307
Mof_H 	H 	0.74933	0.88547	0.54077	0.432
Mof_H 	H 	0.72503	0.90337	0.55157	-0.203
Mof_H 	H 	0.72693	0.91647	0.53877	0.011
Mof_H 	H 	0.75133	0.89867	0.52797	-0.114
_end
