# CIF file generated by openbabel 3.1.0, see https://openbabel.org
data_I
_chemical_name_common 'image0'
_cell_length_a 10.6427
_cell_length_b 11.5008
_cell_length_c 13.4731
_cell_angle_alpha 69.142
_cell_angle_beta 78.865
_cell_angle_gamma 63.208
_space_group_name_H-M_alt 'P 1'
_space_group_name_Hall 'P 1'
loop_
    _symmetry_equiv_pos_as_xyz
    x,y,z
loop_
    _atom_site_label
    _atom_site_type_symbol
    _atom_site_fract_x
    _atom_site_fract_y
    _atom_site_fract_z
    _atom_site_occupancy
    U1       U        0.62579    0.71128    0.83650    1.000
    Eu1      Eu       0.60329    0.22800    0.75140    1.000
    O1       O        0.85100    0.53630    0.91320    1.000
    O2       O        0.76510    0.49370    0.80230    1.000
    O3       O        0.82110    0.23140    0.76990    1.000
    O4       O        0.89050    0.36220    0.62590    1.000
    O5       O        0.41860    0.91730    0.82050    1.000
    O6       O        0.50260    0.07640    0.75360    1.000
    O7       O        0.48270    0.17630    0.91850    1.000
    O8       O        0.32460    0.19800    0.05390    1.000
    O9       O        0.50320    0.69340    0.71850    1.000
    O10      O        0.41490    0.70090    0.57840    1.000
    O11      O        0.73620    0.63400    0.53540    1.000
    O12      O        0.86360    0.74950    0.47820    1.000
    C1       C        0.00170    0.34230    0.85120    1.000
    C2       C        0.11370    0.31320    0.90790    1.000
    H1       H        0.09880    0.36010    0.95580    1.000
    C3       C        0.24770    0.21520    0.89450    1.000
    C4       C        0.26750    0.14310    0.82420    1.000
    C5       C        0.15140    0.16370    0.77520    1.000
    H2       H        0.16310    0.10820    0.73500    1.000
    C6       C        0.01940    0.26530    0.78570    1.000
    C7       C        0.62600    0.00120    0.44960    1.000
    H3       H        0.71120    0.00130    0.41660    1.000
    C8       C        0.61530    0.87630    0.50560    1.000
    C9       C        0.49160    0.87570    0.55620    1.000
    C10      C        0.86680    0.46290    0.85660    1.000
    C11      C        0.36240    0.19370    0.95810    1.000
    C12      C        0.41010    0.03770    0.79770    1.000
    C13      C        0.90060    0.29040    0.72310    1.000
    C14      C        0.47080    0.74450    0.62170    1.000
    C15      C        0.74620    0.74620    0.50770    1.000
    U2       U        0.37421    0.28872    0.16350    1.000
    Eu2      Eu       0.39671    0.77200    0.24860    1.000
    O13      O        0.14900    0.46370    0.08680    1.000
    O14      O        0.23490    0.50630    0.19770    1.000
    O15      O        0.17890    0.76860    0.23010    1.000
    O16      O        0.10950    0.63780    0.37410    1.000
    O17      O        0.58140    0.08270    0.17950    1.000
    O18      O        0.49740    0.92360    0.24640    1.000
    O19      O        0.51730    0.82370    0.08150    1.000
    O20      O        0.67540    0.80200    0.94610    1.000
    O21      O        0.49680    0.30660    0.28150    1.000
    O22      O        0.58510    0.29910    0.42160    1.000
    O23      O        0.26380    0.36600    0.46460    1.000
    O24      O        0.13640    0.25050    0.52180    1.000
    C16      C        0.99830    0.65770    0.14880    1.000
    C17      C        0.88630    0.68680    0.09210    1.000
    H4       H        0.90120    0.63990    0.04420    1.000
    C18      C        0.75230    0.78480    0.10550    1.000
    C19      C        0.73250    0.85690    0.17580    1.000
    C20      C        0.84860    0.83630    0.22480    1.000
    H5       H        0.83690    0.89180    0.26500    1.000
    C21      C        0.98060    0.73470    0.21430    1.000
    C22      C        0.37400    0.99880    0.55040    1.000
    H6       H        0.28880    0.99870    0.58340    1.000
    C23      C        0.38470    0.12370    0.49440    1.000
    C24      C        0.50840    0.12430    0.44380    1.000
    C25      C        0.13320    0.53710    0.14340    1.000
    C26      C        0.63760    0.80630    0.04190    1.000
    C27      C        0.58990    0.96230    0.20230    1.000
    C28      C        0.09940    0.70960    0.27690    1.000
    C29      C        0.52920    0.25550    0.37830    1.000
    C30      C        0.25380    0.25380    0.49230    1.000
    U3       U        0.00000    0.50000    0.50000    1.000
