data_functionalizedCrystal
_audit_creation_method	'EQeq! by Chris Wilmer'
_symmetry_space_group_name_H-M	'P1'
_symmetry_Int_Tables_number	1
_symmetry_cell_setting	triclinic
loop_
_symmetry_equiv_pos_as_xyz
  x,y,z
_cell_length_a	14.4927
_cell_length_b	44.273
_cell_length_c	50.103
_cell_angle_alpha	90
_cell_angle_beta	90
_cell_angle_gamma	90
loop_
_atom_site_label
_atom_site_type_symbol
_atom_site_fract_x
_atom_site_fract_y
_atom_site_fract_z
_atom_site_charge
Mof_C 	C 	0.4167	0.60655	0.91544	0.507
Mof_C 	C 	0.33005	0.58954	0.92059	-0.194
Mof_C 	C 	0.25505	0.59416	0.90379	0.146
Mof_H 	H 	0.2593	0.6079	0.8898	-0.031
Mof_C 	C 	0.17364	0.57821	0.90787	-0.203
Mof_C 	C 	0.16724	0.55765	0.92875	0.01
Mof_H 	H 	0.1128	0.547	0.9315	0.046
Mof_C 	C 	0.24224	0.55303	0.94555	0.055
Mof_C 	C 	0.32365	0.56897	0.94147	0.004
Mof_H 	H 	0.3738	0.5659	0.9527	0.041
Mof_C 	C 	0.0968	0.5833	0.88934	0.554
Mof_C 	C 	0.1713	0.51793	0.97692	0.215
Mof_C 	C 	0.19079	0.49695	0.00035	0.018
Mof_C 	C 	0.12375	0.49318	0.01991	-0.115
Mof_H 	H 	0.0682	0.5036	0.0187	0.095
Mof_C 	C 	0.13979	0.47385	0.04128	0.089
Mof_H 	H 	0.0949	0.4713	0.0544	-0.002
Mof_C 	C 	0.22286	0.4583	0.04309	-0.194
Mof_C 	C 	0.2899	0.46206	0.02353	0.087
Mof_H 	H 	0.3455	0.4517	0.0247	0.005
Mof_C 	C 	0.27386	0.48139	0.00216	-0.118
Mof_H 	H 	0.3187	0.4839	0.9891	0.067
Mof_C 	C 	0.239	0.43716	0.06608	0.544
Mof_N 	N 	0.2436	0.53197	0.96745	-0.218
Mof_H 	H 	0.2984	0.5282	0.9752	0.114
Mof_O 	O 	0.485	0.60119	0.93052	-0.516
Mof_O 	O 	0.4285	0.62707	0.89966	-0.572
Mof_O 	O 	0.1325	0.58595	0.86751	-0.517
Mof_O 	O 	0.014	0.58463	0.89463	-0.625
Mof_O 	O 	0.0927	0.52094	0.96991	-0.24
Mof_O 	O 	0.2066	0.44253	0.08804	-0.591
Mof_O 	O 	0.2866	0.41636	0.05758	-0.514
Mof_C 	C 	0.4167	0.10655	0.41544	0.507
Mof_C 	C 	0.33005	0.08954	0.42059	-0.194
Mof_C 	C 	0.25505	0.09416	0.40379	0.146
Mof_H 	H 	0.2593	0.1079	0.3898	-0.031
Mof_C 	C 	0.17364	0.07821	0.40787	-0.203
Mof_C 	C 	0.16724	0.05765	0.42875	0.01
Mof_H 	H 	0.1128	0.047	0.4315	0.045
Mof_C 	C 	0.24224	0.05303	0.44555	0.054
Mof_C 	C 	0.32365	0.06897	0.44147	0.003
Mof_H 	H 	0.3738	0.0659	0.4527	0.04
Mof_C 	C 	0.0968	0.0833	0.38934	0.553
Mof_C 	C 	0.1713	0.01793	0.47692	0.214
Mof_C 	C 	0.19079	0.99695	0.50035	0.017
Mof_C 	C 	0.12375	0.99318	0.51991	-0.116
Mof_H 	H 	0.0682	0.0036	0.5187	0.094
Mof_C 	C 	0.13979	0.97385	0.54128	0.089
Mof_H 	H 	0.0949	0.9713	0.5544	-0.003
Mof_C 	C 	0.22286	0.9583	0.54309	-0.195
Mof_C 	C 	0.2899	0.96206	0.52353	0.086
Mof_H 	H 	0.3455	0.9517	0.5247	0.004
Mof_C 	C 	0.27386	0.98139	0.50216	-0.119
Mof_H 	H 	0.3187	0.9839	0.4891	0.066
Mof_C 	C 	0.239	0.93716	0.56608	0.543
Mof_N 	N 	0.2436	0.03197	0.46745	-0.219
Mof_H 	H 	0.2984	0.0282	0.4752	0.113
Mof_O 	O 	0.485	0.10119	0.43052	-0.517
Mof_O 	O 	0.4285	0.12707	0.39966	-0.573
Mof_O 	O 	0.1325	0.08595	0.36751	-0.518
Mof_O 	O 	0.014	0.08463	0.39463	-0.626
Mof_O 	O 	0.0927	0.02094	0.46991	-0.241
Mof_O 	O 	0.2066	0.94253	0.58804	-0.592
Mof_O 	O 	0.2866	0.91636	0.55758	-0.515
Mof_C 	C 	0.9167	0.60655	0.41544	0.506
Mof_C 	C 	0.83005	0.58954	0.42059	-0.195
Mof_C 	C 	0.75505	0.59416	0.40379	0.145
Mof_H 	H 	0.7593	0.6079	0.3898	-0.032
Mof_C 	C 	0.67364	0.57821	0.40787	-0.204
Mof_C 	C 	0.66724	0.55765	0.42875	0.009
Mof_H 	H 	0.6128	0.547	0.4315	0.045
Mof_C 	C 	0.74224	0.55303	0.44555	0.054
Mof_C 	C 	0.82365	0.56897	0.44147	0.003
Mof_H 	H 	0.8738	0.5659	0.4527	0.04
Mof_C 	C 	0.5968	0.5833	0.38934	0.553
Mof_C 	C 	0.6713	0.51793	0.47692	0.214
Mof_C 	C 	0.69079	0.49695	0.50035	0.017
Mof_C 	C 	0.62375	0.49318	0.51991	-0.116
Mof_H 	H 	0.5682	0.5036	0.5187	0.094
Mof_C 	C 	0.63979	0.47385	0.54128	0.089
Mof_H 	H 	0.5949	0.4713	0.5544	-0.003
Mof_C 	C 	0.72286	0.4583	0.54309	-0.195
Mof_C 	C 	0.7899	0.46206	0.52353	0.086
Mof_H 	H 	0.8455	0.4517	0.5247	0.004
Mof_C 	C 	0.77386	0.48139	0.50216	-0.119
Mof_H 	H 	0.8187	0.4839	0.4891	0.066
Mof_C 	C 	0.739	0.43716	0.56608	0.543
Mof_N 	N 	0.7436	0.53197	0.46745	-0.219
Mof_H 	H 	0.7984	0.5282	0.4752	0.113
Mof_O 	O 	0.985	0.60119	0.43052	-0.517
Mof_O 	O 	0.9285	0.62707	0.39966	-0.573
Mof_O 	O 	0.6325	0.58595	0.36751	-0.518
Mof_O 	O 	0.514	0.58463	0.39463	-0.626
Mof_O 	O 	0.5927	0.52094	0.46991	-0.241
Mof_O 	O 	0.7066	0.44253	0.58804	-0.592
Mof_O 	O 	0.7866	0.41636	0.55758	-0.515
Mof_C 	C 	0.9167	0.10655	0.91544	0.506
Mof_C 	C 	0.83005	0.08954	0.92059	-0.195
Mof_C 	C 	0.75505	0.09416	0.90379	0.145
Mof_H 	H 	0.7593	0.1079	0.8898	-0.032
Mof_C 	C 	0.67364	0.07821	0.90787	-0.204
Mof_C 	C 	0.66724	0.05765	0.92875	0.009
Mof_H 	H 	0.6128	0.047	0.9315	0.045
Mof_C 	C 	0.74224	0.05303	0.94555	0.054
Mof_C 	C 	0.82365	0.06897	0.94147	0.003
Mof_H 	H 	0.8738	0.0659	0.9527	0.04
Mof_C 	C 	0.5968	0.0833	0.88934	0.553
Mof_C 	C 	0.6713	0.01793	0.97692	0.214
Mof_C 	C 	0.69079	0.99695	0.00035	0.017
Mof_C 	C 	0.62375	0.99318	0.01991	-0.116
Mof_H 	H 	0.5682	0.0036	0.0187	0.094
Mof_C 	C 	0.63979	0.97385	0.04128	0.089
Mof_H 	H 	0.5949	0.9713	0.0544	-0.003
Mof_C 	C 	0.72286	0.9583	0.04309	-0.195
Mof_C 	C 	0.7899	0.96206	0.02353	0.086
Mof_H 	H 	0.8455	0.9517	0.0247	0.004
Mof_C 	C 	0.77386	0.98139	0.00216	-0.119
Mof_H 	H 	0.8187	0.9839	0.9891	0.066
Mof_C 	C 	0.739	0.93716	0.06608	0.543
Mof_N 	N 	0.7436	0.03197	0.96745	-0.219
Mof_H 	H 	0.7984	0.0282	0.9752	0.113
Mof_O 	O 	0.985	0.10119	0.93052	-0.517
Mof_O 	O 	0.9285	0.12707	0.89966	-0.573
Mof_O 	O 	0.6325	0.08595	0.86751	-0.518
Mof_O 	O 	0.514	0.08463	0.89463	-0.626
Mof_O 	O 	0.5927	0.02094	0.96991	-0.241
Mof_O 	O 	0.7066	0.94253	0.08804	-0.592
Mof_O 	O 	0.7866	0.91636	0.05758	-0.515
Mof_C 	C 	0.3333	0.14345	0.91544	0.506
Mof_C 	C 	0.41995	0.16046	0.92059	-0.195
Mof_C 	C 	0.49495	0.15584	0.90379	0.145
Mof_H 	H 	0.4907	0.1421	0.8898	-0.032
Mof_C 	C 	0.57636	0.17179	0.90787	-0.204
Mof_C 	C 	0.58276	0.19235	0.92875	0.009
Mof_H 	H 	0.6372	0.203	0.9315	0.045
Mof_C 	C 	0.50776	0.19697	0.94555	0.054
Mof_C 	C 	0.42635	0.18103	0.94147	0.003
Mof_H 	H 	0.3762	0.1841	0.9527	0.04
Mof_C 	C 	0.6532	0.1667	0.88934	0.553
Mof_C 	C 	0.5787	0.23207	0.97692	0.214
Mof_C 	C 	0.55921	0.25305	0.00035	0.017
Mof_C 	C 	0.62625	0.25682	0.01991	-0.116
Mof_H 	H 	0.6818	0.2464	0.0187	0.094
Mof_C 	C 	0.61021	0.27615	0.04128	0.089
Mof_H 	H 	0.6551	0.2787	0.0544	-0.003
Mof_C 	C 	0.52714	0.2917	0.04309	-0.195
Mof_C 	C 	0.4601	0.28794	0.02353	0.086
Mof_H 	H 	0.4045	0.2983	0.0247	0.004
Mof_C 	C 	0.47614	0.26861	0.00216	-0.119
Mof_H 	H 	0.4313	0.2661	0.9891	0.066
Mof_C 	C 	0.511	0.31284	0.06608	0.543
Mof_N 	N 	0.5064	0.21803	0.96745	-0.219
Mof_H 	H 	0.4516	0.2218	0.9752	0.113
Mof_O 	O 	0.265	0.14881	0.93052	-0.517
Mof_O 	O 	0.3215	0.12293	0.89966	-0.573
Mof_O 	O 	0.6175	0.16405	0.86751	-0.518
Mof_O 	O 	0.736	0.16537	0.89463	-0.626
Mof_O 	O 	0.6573	0.22906	0.96991	-0.241
Mof_O 	O 	0.5434	0.30747	0.08804	-0.592
Mof_O 	O 	0.4634	0.33364	0.05758	-0.515
Mof_C 	C 	0.3333	0.64345	0.41544	0.506
Mof_C 	C 	0.41995	0.66046	0.42059	-0.195
Mof_C 	C 	0.49495	0.65584	0.40379	0.145
Mof_H 	H 	0.4907	0.6421	0.3898	-0.032
Mof_C 	C 	0.57636	0.67179	0.40787	-0.204
Mof_C 	C 	0.58276	0.69235	0.42875	0.009
Mof_H 	H 	0.6372	0.703	0.4315	0.045
Mof_C 	C 	0.50776	0.69697	0.44555	0.054
Mof_C 	C 	0.42635	0.68103	0.44147	0.003
Mof_H 	H 	0.3762	0.6841	0.4527	0.04
Mof_C 	C 	0.6532	0.6667	0.38934	0.553
Mof_C 	C 	0.5787	0.73207	0.47692	0.214
Mof_C 	C 	0.55921	0.75305	0.50035	0.017
Mof_C 	C 	0.62625	0.75682	0.51991	-0.116
Mof_H 	H 	0.6818	0.7464	0.5187	0.094
Mof_C 	C 	0.61021	0.77615	0.54128	0.089
Mof_H 	H 	0.6551	0.7787	0.5544	-0.003
Mof_C 	C 	0.52714	0.7917	0.54309	-0.195
Mof_C 	C 	0.4601	0.78794	0.52353	0.086
Mof_H 	H 	0.4045	0.7983	0.5247	0.004
Mof_C 	C 	0.47614	0.76861	0.50216	-0.119
Mof_H 	H 	0.4313	0.7661	0.4891	0.066
Mof_C 	C 	0.511	0.81284	0.56608	0.543
Mof_N 	N 	0.5064	0.71803	0.46745	-0.219
Mof_H 	H 	0.4516	0.7218	0.4752	0.113
Mof_O 	O 	0.265	0.64881	0.43052	-0.517
Mof_O 	O 	0.3215	0.62293	0.39966	-0.573
Mof_O 	O 	0.6175	0.66405	0.36751	-0.518
Mof_O 	O 	0.736	0.66537	0.39463	-0.626
Mof_O 	O 	0.6573	0.72906	0.46991	-0.241
Mof_O 	O 	0.5434	0.80747	0.58804	-0.592
Mof_O 	O 	0.4634	0.83364	0.55758	-0.515
Mof_C 	C 	0.8333	0.14345	0.41544	0.506
Mof_C 	C 	0.91995	0.16046	0.42059	-0.195
Mof_C 	C 	0.99495	0.15584	0.40379	0.145
Mof_H 	H 	0.9907	0.1421	0.3898	-0.032
Mof_C 	C 	0.07636	0.17179	0.40787	-0.204
Mof_C 	C 	0.08276	0.19235	0.42875	0.009
Mof_H 	H 	0.1372	0.203	0.4315	0.045
Mof_C 	C 	0.00776	0.19697	0.44555	0.054
Mof_C 	C 	0.92635	0.18103	0.44147	0.003
Mof_H 	H 	0.8762	0.1841	0.4527	0.04
Mof_C 	C 	0.1532	0.1667	0.38934	0.553
Mof_C 	C 	0.0787	0.23207	0.47692	0.214
Mof_C 	C 	0.05921	0.25305	0.50035	0.017
Mof_C 	C 	0.12625	0.25682	0.51991	-0.116
Mof_H 	H 	0.1818	0.2464	0.5187	0.094
Mof_C 	C 	0.11021	0.27615	0.54128	0.089
Mof_H 	H 	0.1551	0.2787	0.5544	-0.003
Mof_C 	C 	0.02714	0.2917	0.54309	-0.195
Mof_C 	C 	0.9601	0.28794	0.52353	0.086
Mof_H 	H 	0.9045	0.2983	0.5247	0.004
Mof_C 	C 	0.97614	0.26861	0.50216	-0.119
Mof_H 	H 	0.9313	0.2661	0.4891	0.066
Mof_C 	C 	0.011	0.31284	0.56608	0.543
Mof_N 	N 	0.0064	0.21803	0.46745	-0.219
Mof_H 	H 	0.9516	0.2218	0.4752	0.113
Mof_O 	O 	0.765	0.14881	0.43052	-0.517
Mof_O 	O 	0.8215	0.12293	0.39966	-0.573
Mof_O 	O 	0.1175	0.16405	0.36751	-0.518
Mof_O 	O 	0.236	0.16537	0.39463	-0.626
Mof_O 	O 	0.1573	0.22906	0.46991	-0.241
Mof_O 	O 	0.0434	0.30747	0.58804	-0.592
Mof_O 	O 	0.9634	0.33364	0.55758	-0.515
Mof_C 	C 	0.8333	0.64345	0.91544	0.506
Mof_C 	C 	0.91995	0.66046	0.92059	-0.195
Mof_C 	C 	0.99495	0.65584	0.90379	0.145
Mof_H 	H 	0.9907	0.6421	0.8898	-0.032
Mof_C 	C 	0.07636	0.67179	0.90787	-0.204
Mof_C 	C 	0.08276	0.69235	0.92875	0.009
Mof_H 	H 	0.1372	0.703	0.9315	0.045
Mof_C 	C 	0.00776	0.69697	0.94555	0.054
Mof_C 	C 	0.92635	0.68103	0.94147	0.003
Mof_H 	H 	0.8762	0.6841	0.9527	0.04
Mof_C 	C 	0.1532	0.6667	0.88934	0.553
Mof_C 	C 	0.0787	0.73207	0.97692	0.214
Mof_C 	C 	0.05921	0.75305	0.00035	0.017
Mof_C 	C 	0.12625	0.75682	0.01991	-0.116
Mof_H 	H 	0.1818	0.7464	0.0187	0.094
Mof_C 	C 	0.11021	0.77615	0.04128	0.089
Mof_H 	H 	0.1551	0.7787	0.0544	-0.003
Mof_C 	C 	0.02714	0.7917	0.04309	-0.195
Mof_C 	C 	0.9601	0.78794	0.02353	0.086
Mof_H 	H 	0.9045	0.7983	0.0247	0.004
Mof_C 	C 	0.97614	0.76861	0.00216	-0.119
Mof_H 	H 	0.9313	0.7661	0.9891	0.066
Mof_C 	C 	0.011	0.81284	0.06608	0.543
Mof_N 	N 	0.0064	0.71803	0.96745	-0.219
Mof_H 	H 	0.9516	0.7218	0.9752	0.113
Mof_O 	O 	0.765	0.64881	0.93052	-0.517
Mof_O 	O 	0.8215	0.62293	0.89966	-0.573
Mof_O 	O 	0.1175	0.66405	0.86751	-0.518
Mof_O 	O 	0.236	0.66537	0.89463	-0.626
Mof_O 	O 	0.1573	0.72906	0.96991	-0.241
Mof_O 	O 	0.0434	0.80747	0.08804	-0.592
Mof_O 	O 	0.9634	0.83364	0.05758	-0.515
Mof_C 	C 	0.3333	0.60655	0.83456	0.506
Mof_C 	C 	0.41995	0.58954	0.82941	-0.195
Mof_C 	C 	0.49495	0.59416	0.84621	0.145
Mof_H 	H 	0.4907	0.6079	0.8602	-0.032
Mof_C 	C 	0.57636	0.57821	0.84213	-0.204
Mof_C 	C 	0.58276	0.55765	0.82125	0.009
Mof_H 	H 	0.6372	0.547	0.8185	0.045
Mof_C 	C 	0.50776	0.55303	0.80445	0.054
Mof_C 	C 	0.42635	0.56897	0.80853	0.003
Mof_H 	H 	0.3762	0.5659	0.7973	0.04
Mof_C 	C 	0.6532	0.5833	0.86066	0.553
Mof_C 	C 	0.5787	0.51793	0.77308	0.214
Mof_C 	C 	0.55921	0.49695	0.74965	0.017
Mof_C 	C 	0.62625	0.49318	0.73009	-0.116
Mof_H 	H 	0.6818	0.5036	0.7313	0.094
Mof_C 	C 	0.61021	0.47385	0.70872	0.089
Mof_H 	H 	0.6551	0.4713	0.6956	-0.003
Mof_C 	C 	0.52714	0.4583	0.70691	-0.195
Mof_C 	C 	0.4601	0.46206	0.72647	0.086
Mof_H 	H 	0.4045	0.4517	0.7253	0.004
Mof_C 	C 	0.47614	0.48139	0.74784	-0.119
Mof_H 	H 	0.4313	0.4839	0.7609	0.066
Mof_C 	C 	0.511	0.43716	0.68392	0.543
Mof_N 	N 	0.5064	0.53197	0.78255	-0.219
Mof_H 	H 	0.4516	0.5282	0.7748	0.113
Mof_O 	O 	0.265	0.60119	0.81948	-0.517
Mof_O 	O 	0.3215	0.62707	0.85034	-0.573
Mof_O 	O 	0.6175	0.58595	0.88249	-0.518
Mof_O 	O 	0.736	0.58463	0.85537	-0.626
Mof_O 	O 	0.6573	0.52094	0.78009	-0.241
Mof_O 	O 	0.5434	0.44253	0.66196	-0.592
Mof_O 	O 	0.4634	0.41636	0.69242	-0.515
Mof_C 	C 	0.3333	0.10655	0.33456	0.506
Mof_C 	C 	0.41995	0.08954	0.32941	-0.195
Mof_C 	C 	0.49495	0.09416	0.34621	0.145
Mof_H 	H 	0.4907	0.1079	0.3602	-0.032
Mof_C 	C 	0.57636	0.07821	0.34213	-0.204
Mof_C 	C 	0.58276	0.05765	0.32125	0.009
Mof_H 	H 	0.6372	0.047	0.3185	0.045
Mof_C 	C 	0.50776	0.05303	0.30445	0.054
Mof_C 	C 	0.42635	0.06897	0.30853	0.003
Mof_H 	H 	0.3762	0.0659	0.2973	0.04
Mof_C 	C 	0.6532	0.0833	0.36066	0.553
Mof_C 	C 	0.5787	0.01793	0.27308	0.214
Mof_C 	C 	0.55921	0.99695	0.24965	0.017
Mof_C 	C 	0.62625	0.99318	0.23009	-0.116
Mof_H 	H 	0.6818	0.0036	0.2313	0.094
Mof_C 	C 	0.61021	0.97385	0.20872	0.088
Mof_H 	H 	0.6551	0.9713	0.1956	-0.003
Mof_C 	C 	0.52714	0.9583	0.20691	-0.195
Mof_C 	C 	0.4601	0.96206	0.22647	0.086
Mof_H 	H 	0.4045	0.9517	0.2253	0.004
Mof_C 	C 	0.47614	0.98139	0.24784	-0.119
Mof_H 	H 	0.4313	0.9839	0.2609	0.066
Mof_C 	C 	0.511	0.93716	0.18392	0.543
Mof_N 	N 	0.5064	0.03197	0.28255	-0.219
Mof_H 	H 	0.4516	0.0282	0.2748	0.113
Mof_O 	O 	0.265	0.10119	0.31948	-0.517
Mof_O 	O 	0.3215	0.12707	0.35034	-0.573
Mof_O 	O 	0.6175	0.08595	0.38249	-0.518
Mof_O 	O 	0.736	0.08463	0.35537	-0.626
Mof_O 	O 	0.6573	0.02094	0.28009	-0.241
Mof_O 	O 	0.5434	0.94253	0.16196	-0.592
Mof_O 	O 	0.4634	0.91636	0.19242	-0.515
Mof_C 	C 	0.8333	0.60655	0.33456	0.506
Mof_C 	C 	0.91995	0.58954	0.32941	-0.195
Mof_C 	C 	0.99495	0.59416	0.34621	0.145
Mof_H 	H 	0.9907	0.6079	0.3602	-0.032
Mof_C 	C 	0.07636	0.57821	0.34213	-0.204
Mof_C 	C 	0.08276	0.55765	0.32125	0.009
Mof_H 	H 	0.1372	0.547	0.3185	0.045
Mof_C 	C 	0.00776	0.55303	0.30445	0.054
Mof_C 	C 	0.92635	0.56897	0.30853	0.003
Mof_H 	H 	0.8762	0.5659	0.2973	0.04
Mof_C 	C 	0.1532	0.5833	0.36066	0.553
Mof_C 	C 	0.0787	0.51793	0.27308	0.214
Mof_C 	C 	0.05921	0.49695	0.24965	0.017
Mof_C 	C 	0.12625	0.49318	0.23009	-0.116
Mof_H 	H 	0.1818	0.5036	0.2313	0.094
Mof_C 	C 	0.11021	0.47385	0.20872	0.089
Mof_H 	H 	0.1551	0.4713	0.1956	-0.003
Mof_C 	C 	0.02714	0.4583	0.20691	-0.195
Mof_C 	C 	0.9601	0.46206	0.22647	0.086
Mof_H 	H 	0.9045	0.4517	0.2253	0.004
Mof_C 	C 	0.97614	0.48139	0.24784	-0.119
Mof_H 	H 	0.9313	0.4839	0.2609	0.066
Mof_C 	C 	0.011	0.43716	0.18392	0.543
Mof_N 	N 	0.0064	0.53197	0.28255	-0.219
Mof_H 	H 	0.9516	0.5282	0.2748	0.113
Mof_O 	O 	0.765	0.60119	0.31948	-0.517
Mof_O 	O 	0.8215	0.62707	0.35034	-0.573
Mof_O 	O 	0.1175	0.58595	0.38249	-0.518
Mof_O 	O 	0.236	0.58463	0.35537	-0.626
Mof_O 	O 	0.1573	0.52094	0.28009	-0.241
Mof_O 	O 	0.0434	0.44253	0.16196	-0.592
Mof_O 	O 	0.9634	0.41636	0.19242	-0.515
Mof_C 	C 	0.8333	0.10655	0.83456	0.506
Mof_C 	C 	0.91995	0.08954	0.82941	-0.195
Mof_C 	C 	0.99495	0.09416	0.84621	0.145
Mof_H 	H 	0.9907	0.1079	0.8602	-0.032
Mof_C 	C 	0.07636	0.07821	0.84213	-0.203
Mof_C 	C 	0.08276	0.05765	0.82125	0.009
Mof_H 	H 	0.1372	0.047	0.8185	0.045
Mof_C 	C 	0.00776	0.05303	0.80445	0.054
Mof_C 	C 	0.92635	0.06897	0.80853	0.003
Mof_H 	H 	0.8762	0.0659	0.7973	0.04
Mof_C 	C 	0.1532	0.0833	0.86066	0.553
Mof_C 	C 	0.0787	0.01793	0.77308	0.214
Mof_C 	C 	0.05921	0.99695	0.74965	0.017
Mof_C 	C 	0.12625	0.99318	0.73009	-0.116
Mof_H 	H 	0.1818	0.0036	0.7313	0.094
Mof_C 	C 	0.11021	0.97385	0.70872	0.089
Mof_H 	H 	0.1551	0.9713	0.6956	-0.003
Mof_C 	C 	0.02714	0.9583	0.70691	-0.195
Mof_C 	C 	0.9601	0.96206	0.72647	0.086
Mof_H 	H 	0.9045	0.9517	0.7253	0.004
Mof_C 	C 	0.97614	0.98139	0.74784	-0.119
Mof_H 	H 	0.9313	0.9839	0.7609	0.066
Mof_C 	C 	0.011	0.93716	0.68392	0.543
Mof_N 	N 	0.0064	0.03197	0.78255	-0.219
Mof_H 	H 	0.9516	0.0282	0.7748	0.113
Mof_O 	O 	0.765	0.10119	0.81948	-0.517
Mof_O 	O 	0.8215	0.12707	0.85034	-0.573
Mof_O 	O 	0.1175	0.08595	0.88249	-0.518
Mof_O 	O 	0.236	0.08463	0.85537	-0.626
Mof_O 	O 	0.1573	0.02094	0.78009	-0.241
Mof_O 	O 	0.0434	0.94253	0.66196	-0.592
Mof_O 	O 	0.9634	0.91636	0.69242	-0.515
Mof_C 	C 	0.4167	0.14345	0.83456	0.506
Mof_C 	C 	0.33005	0.16046	0.82941	-0.195
Mof_C 	C 	0.25505	0.15584	0.84621	0.145
Mof_H 	H 	0.2593	0.1421	0.8602	-0.032
Mof_C 	C 	0.17364	0.17179	0.84213	-0.204
Mof_C 	C 	0.16724	0.19235	0.82125	0.009
Mof_H 	H 	0.1128	0.203	0.8185	0.045
Mof_C 	C 	0.24224	0.19697	0.80445	0.054
Mof_C 	C 	0.32365	0.18103	0.80853	0.003
Mof_H 	H 	0.3738	0.1841	0.7973	0.04
Mof_C 	C 	0.0968	0.1667	0.86066	0.553
Mof_C 	C 	0.1713	0.23207	0.77308	0.214
Mof_C 	C 	0.19079	0.25305	0.74965	0.017
Mof_C 	C 	0.12375	0.25682	0.73009	-0.116
Mof_H 	H 	0.0682	0.2464	0.7313	0.094
Mof_C 	C 	0.13979	0.27615	0.70872	0.088
Mof_H 	H 	0.0949	0.2787	0.6956	-0.003
Mof_C 	C 	0.22286	0.2917	0.70691	-0.195
Mof_C 	C 	0.2899	0.28794	0.72647	0.086
Mof_H 	H 	0.3455	0.2983	0.7253	0.004
Mof_C 	C 	0.27386	0.26861	0.74784	-0.119
Mof_H 	H 	0.3187	0.2661	0.7609	0.066
Mof_C 	C 	0.239	0.31284	0.68392	0.543
Mof_N 	N 	0.2436	0.21803	0.78255	-0.219
Mof_H 	H 	0.2984	0.2218	0.7748	0.113
Mof_O 	O 	0.485	0.14881	0.81948	-0.517
Mof_O 	O 	0.4285	0.12293	0.85034	-0.573
Mof_O 	O 	0.1325	0.16405	0.88249	-0.518
Mof_O 	O 	0.014	0.16537	0.85537	-0.626
Mof_O 	O 	0.0927	0.22906	0.78009	-0.241
Mof_O 	O 	0.2066	0.30747	0.66196	-0.592
Mof_O 	O 	0.2866	0.33364	0.69242	-0.515
Mof_C 	C 	0.4167	0.64345	0.33456	0.506
Mof_C 	C 	0.33005	0.66046	0.32941	-0.195
Mof_C 	C 	0.25505	0.65584	0.34621	0.145
Mof_H 	H 	0.2593	0.6421	0.3602	-0.032
Mof_C 	C 	0.17364	0.67179	0.34213	-0.204
Mof_C 	C 	0.16724	0.69235	0.32125	0.009
Mof_H 	H 	0.1128	0.703	0.3185	0.045
Mof_C 	C 	0.24224	0.69697	0.30445	0.054
Mof_C 	C 	0.32365	0.68103	0.30853	0.003
Mof_H 	H 	0.3738	0.6841	0.2973	0.04
Mof_C 	C 	0.0968	0.6667	0.36066	0.553
Mof_C 	C 	0.1713	0.73207	0.27308	0.214
Mof_C 	C 	0.19079	0.75305	0.24965	0.017
Mof_C 	C 	0.12375	0.75682	0.23009	-0.116
Mof_H 	H 	0.0682	0.7464	0.2313	0.094
Mof_C 	C 	0.13979	0.77615	0.20872	0.088
Mof_H 	H 	0.0949	0.7787	0.1956	-0.003
Mof_C 	C 	0.22286	0.7917	0.20691	-0.195
Mof_C 	C 	0.2899	0.78794	0.22647	0.086
Mof_H 	H 	0.3455	0.7983	0.2253	0.004
Mof_C 	C 	0.27386	0.76861	0.24784	-0.119
Mof_H 	H 	0.3187	0.7661	0.2609	0.066
Mof_C 	C 	0.239	0.81284	0.18392	0.543
Mof_N 	N 	0.2436	0.71803	0.28255	-0.219
Mof_H 	H 	0.2984	0.7218	0.2748	0.113
Mof_O 	O 	0.485	0.64881	0.31948	-0.517
Mof_O 	O 	0.4285	0.62293	0.35034	-0.573
Mof_O 	O 	0.1325	0.66405	0.38249	-0.518
Mof_O 	O 	0.014	0.66537	0.35537	-0.626
Mof_O 	O 	0.0927	0.72906	0.28009	-0.241
Mof_O 	O 	0.2066	0.80747	0.16196	-0.592
Mof_O 	O 	0.2866	0.83364	0.19242	-0.515
Mof_C 	C 	0.9167	0.14345	0.33456	0.506
Mof_C 	C 	0.83005	0.16046	0.32941	-0.195
Mof_C 	C 	0.75505	0.15584	0.34621	0.145
Mof_H 	H 	0.7593	0.1421	0.3602	-0.032
Mof_C 	C 	0.67364	0.17179	0.34213	-0.204
Mof_C 	C 	0.66724	0.19235	0.32125	0.009
Mof_H 	H 	0.6128	0.203	0.3185	0.045
Mof_C 	C 	0.74224	0.19697	0.30445	0.054
Mof_C 	C 	0.82365	0.18103	0.30853	0.003
Mof_H 	H 	0.8738	0.1841	0.2973	0.04
Mof_C 	C 	0.5968	0.1667	0.36066	0.553
Mof_C 	C 	0.6713	0.23207	0.27308	0.214
Mof_C 	C 	0.69079	0.25305	0.24965	0.017
Mof_C 	C 	0.62375	0.25682	0.23009	-0.116
Mof_H 	H 	0.5682	0.2464	0.2313	0.094
Mof_C 	C 	0.63979	0.27615	0.20872	0.089
Mof_H 	H 	0.5949	0.2787	0.1956	-0.003
Mof_C 	C 	0.72286	0.2917	0.20691	-0.195
Mof_C 	C 	0.7899	0.28794	0.22647	0.086
Mof_H 	H 	0.8455	0.2983	0.2253	0.004
Mof_C 	C 	0.77386	0.26861	0.24784	-0.119
Mof_H 	H 	0.8187	0.2661	0.2609	0.066
Mof_C 	C 	0.739	0.31284	0.18392	0.543
Mof_N 	N 	0.7436	0.21803	0.28255	-0.219
Mof_H 	H 	0.7984	0.2218	0.2748	0.113
Mof_O 	O 	0.985	0.14881	0.31948	-0.517
Mof_O 	O 	0.9285	0.12293	0.35034	-0.573
Mof_O 	O 	0.6325	0.16405	0.38249	-0.518
Mof_O 	O 	0.514	0.16537	0.35537	-0.626
Mof_O 	O 	0.5927	0.22906	0.28009	-0.241
Mof_O 	O 	0.7066	0.30747	0.16196	-0.592
Mof_O 	O 	0.7866	0.33364	0.19242	-0.515
Mof_C 	C 	0.9167	0.64345	0.83456	0.506
Mof_C 	C 	0.83005	0.66046	0.82941	-0.195
Mof_C 	C 	0.75505	0.65584	0.84621	0.145
Mof_H 	H 	0.7593	0.6421	0.8602	-0.032
Mof_C 	C 	0.67364	0.67179	0.84213	-0.204
Mof_C 	C 	0.66724	0.69235	0.82125	0.009
Mof_H 	H 	0.6128	0.703	0.8185	0.045
Mof_C 	C 	0.74224	0.69697	0.80445	0.054
Mof_C 	C 	0.82365	0.68103	0.80853	0.003
Mof_H 	H 	0.8738	0.6841	0.7973	0.04
Mof_C 	C 	0.5968	0.6667	0.86066	0.553
Mof_C 	C 	0.6713	0.73207	0.77308	0.214
Mof_C 	C 	0.69079	0.75305	0.74965	0.017
Mof_C 	C 	0.62375	0.75682	0.73009	-0.116
Mof_H 	H 	0.5682	0.7464	0.7313	0.094
Mof_C 	C 	0.63979	0.77615	0.70872	0.089
Mof_H 	H 	0.5949	0.7787	0.6956	-0.003
Mof_C 	C 	0.72286	0.7917	0.70691	-0.195
Mof_C 	C 	0.7899	0.78794	0.72647	0.086
Mof_H 	H 	0.8455	0.7983	0.7253	0.004
Mof_C 	C 	0.77386	0.76861	0.74784	-0.119
Mof_H 	H 	0.8187	0.7661	0.7609	0.066
Mof_C 	C 	0.739	0.81284	0.68392	0.543
Mof_N 	N 	0.7436	0.71803	0.78255	-0.219
Mof_H 	H 	0.7984	0.7218	0.7748	0.113
Mof_O 	O 	0.985	0.64881	0.81948	-0.517
Mof_O 	O 	0.9285	0.62293	0.85034	-0.573
Mof_O 	O 	0.6325	0.66405	0.88249	-0.518
Mof_O 	O 	0.514	0.66537	0.85537	-0.626
Mof_O 	O 	0.5927	0.72906	0.78009	-0.241
Mof_O 	O 	0.7066	0.80747	0.66196	-0.592
Mof_O 	O 	0.7866	0.83364	0.69242	-0.515
Mof_C 	C 	0.5833	0.39345	0.08456	0.506
Mof_C 	C 	0.66995	0.41046	0.07941	-0.195
Mof_C 	C 	0.74495	0.40584	0.09621	0.145
Mof_H 	H 	0.7407	0.3921	0.1102	-0.032
Mof_C 	C 	0.82636	0.42179	0.09213	-0.204
Mof_C 	C 	0.83276	0.44235	0.07125	0.009
Mof_H 	H 	0.8872	0.453	0.0685	0.045
Mof_C 	C 	0.75776	0.44697	0.05445	0.054
Mof_C 	C 	0.67635	0.43103	0.05853	0.003
Mof_H 	H 	0.6262	0.4341	0.0473	0.04
Mof_C 	C 	0.9032	0.4167	0.11066	0.553
Mof_C 	C 	0.8287	0.48207	0.02308	0.214
Mof_C 	C 	0.80921	0.50305	0.99965	0.017
Mof_C 	C 	0.87625	0.50682	0.98009	-0.116
Mof_H 	H 	0.9318	0.4964	0.9813	0.094
Mof_C 	C 	0.86021	0.52615	0.95872	0.088
Mof_H 	H 	0.9051	0.5287	0.9456	-0.003
Mof_C 	C 	0.77714	0.5417	0.95691	-0.195
Mof_C 	C 	0.7101	0.53794	0.97647	0.086
Mof_H 	H 	0.6545	0.5483	0.9753	0.004
Mof_C 	C 	0.72614	0.51861	0.99784	-0.119
Mof_H 	H 	0.6813	0.5161	0.0109	0.066
Mof_C 	C 	0.761	0.56284	0.93392	0.543
Mof_N 	N 	0.7564	0.46803	0.03255	-0.219
Mof_H 	H 	0.7016	0.4718	0.0248	0.113
Mof_O 	O 	0.515	0.39881	0.06948	-0.517
Mof_O 	O 	0.5715	0.37293	0.10034	-0.573
Mof_O 	O 	0.8675	0.41405	0.13249	-0.518
Mof_O 	O 	0.986	0.41537	0.10537	-0.626
Mof_O 	O 	0.9073	0.47906	0.03009	-0.241
Mof_O 	O 	0.7934	0.55747	0.91196	-0.592
Mof_O 	O 	0.7134	0.58364	0.94242	-0.515
Mof_C 	C 	0.5833	0.89345	0.58456	0.506
Mof_C 	C 	0.66995	0.91046	0.57941	-0.195
Mof_C 	C 	0.74495	0.90584	0.59621	0.145
Mof_H 	H 	0.7407	0.8921	0.6102	-0.032
Mof_C 	C 	0.82636	0.92179	0.59213	-0.204
Mof_C 	C 	0.83276	0.94235	0.57125	0.009
Mof_H 	H 	0.8872	0.953	0.5685	0.045
Mof_C 	C 	0.75776	0.94697	0.55445	0.054
Mof_C 	C 	0.67635	0.93103	0.55853	0.003
Mof_H 	H 	0.6262	0.9341	0.5473	0.04
Mof_C 	C 	0.9032	0.9167	0.61066	0.553
Mof_C 	C 	0.8287	0.98207	0.52308	0.214
Mof_C 	C 	0.80921	0.00305	0.49965	0.017
Mof_C 	C 	0.87625	0.00682	0.48009	-0.116
Mof_H 	H 	0.9318	0.9964	0.4813	0.094
Mof_C 	C 	0.86021	0.02615	0.45872	0.089
Mof_H 	H 	0.9051	0.0287	0.4456	-0.003
Mof_C 	C 	0.77714	0.0417	0.45691	-0.195
Mof_C 	C 	0.7101	0.03794	0.47647	0.086
Mof_H 	H 	0.6545	0.0483	0.4753	0.004
Mof_C 	C 	0.72614	0.01861	0.49784	-0.119
Mof_H 	H 	0.6813	0.0161	0.5109	0.066
Mof_C 	C 	0.761	0.06284	0.43392	0.543
Mof_N 	N 	0.7564	0.96803	0.53255	-0.219
Mof_H 	H 	0.7016	0.9718	0.5248	0.113
Mof_O 	O 	0.515	0.89881	0.56948	-0.517
Mof_O 	O 	0.5715	0.87293	0.60034	-0.573
Mof_O 	O 	0.8675	0.91405	0.63249	-0.518
Mof_O 	O 	0.986	0.91537	0.60537	-0.626
Mof_O 	O 	0.9073	0.97906	0.53009	-0.241
Mof_O 	O 	0.7934	0.05747	0.41196	-0.592
Mof_O 	O 	0.7134	0.08364	0.44242	-0.515
Mof_C 	C 	0.0833	0.39345	0.58456	0.506
Mof_C 	C 	0.16995	0.41046	0.57941	-0.195
Mof_C 	C 	0.24495	0.40584	0.59621	0.145
Mof_H 	H 	0.2407	0.3921	0.6102	-0.032
Mof_C 	C 	0.32636	0.42179	0.59213	-0.204
Mof_C 	C 	0.33276	0.44235	0.57125	0.009
Mof_H 	H 	0.3872	0.453	0.5685	0.045
Mof_C 	C 	0.25776	0.44697	0.55445	0.054
Mof_C 	C 	0.17635	0.43103	0.55853	0.003
Mof_H 	H 	0.1262	0.4341	0.5473	0.04
Mof_C 	C 	0.4032	0.4167	0.61066	0.553
Mof_C 	C 	0.3287	0.48207	0.52308	0.214
Mof_C 	C 	0.30921	0.50305	0.49965	0.017
Mof_C 	C 	0.37625	0.50682	0.48009	-0.116
Mof_H 	H 	0.4318	0.4964	0.4813	0.094
Mof_C 	C 	0.36021	0.52615	0.45872	0.089
Mof_H 	H 	0.4051	0.5287	0.4456	-0.003
Mof_C 	C 	0.27714	0.5417	0.45691	-0.195
Mof_C 	C 	0.2101	0.53794	0.47647	0.086
Mof_H 	H 	0.1545	0.5483	0.4753	0.004
Mof_C 	C 	0.22614	0.51861	0.49784	-0.119
Mof_H 	H 	0.1813	0.5161	0.5109	0.066
Mof_C 	C 	0.261	0.56284	0.43392	0.543
Mof_N 	N 	0.2564	0.46803	0.53255	-0.219
Mof_H 	H 	0.2016	0.4718	0.5248	0.113
Mof_O 	O 	0.015	0.39881	0.56948	-0.517
Mof_O 	O 	0.0715	0.37293	0.60034	-0.573
Mof_O 	O 	0.3675	0.41405	0.63249	-0.518
Mof_O 	O 	0.486	0.41537	0.60537	-0.626
Mof_O 	O 	0.4073	0.47906	0.53009	-0.241
Mof_O 	O 	0.2934	0.55747	0.41196	-0.592
Mof_O 	O 	0.2134	0.58364	0.44242	-0.515
Mof_C 	C 	0.0833	0.89345	0.08456	0.506
Mof_C 	C 	0.16995	0.91046	0.07941	-0.195
Mof_C 	C 	0.24495	0.90584	0.09621	0.145
Mof_H 	H 	0.2407	0.8921	0.1102	-0.032
Mof_C 	C 	0.32636	0.92179	0.09213	-0.204
Mof_C 	C 	0.33276	0.94235	0.07125	0.009
Mof_H 	H 	0.3872	0.953	0.0685	0.045
Mof_C 	C 	0.25776	0.94697	0.05445	0.054
Mof_C 	C 	0.17635	0.93103	0.05853	0.003
Mof_H 	H 	0.1262	0.9341	0.0473	0.04
Mof_C 	C 	0.4032	0.9167	0.11066	0.553
Mof_C 	C 	0.3287	0.98207	0.02308	0.214
Mof_C 	C 	0.30921	0.00305	0.99965	0.017
Mof_C 	C 	0.37625	0.00682	0.98009	-0.116
Mof_H 	H 	0.4318	0.9964	0.9813	0.094
Mof_C 	C 	0.36021	0.02615	0.95872	0.089
Mof_H 	H 	0.4051	0.0287	0.9456	-0.003
Mof_C 	C 	0.27714	0.0417	0.95691	-0.195
Mof_C 	C 	0.2101	0.03794	0.97647	0.086
Mof_H 	H 	0.1545	0.0483	0.9753	0.004
Mof_C 	C 	0.22614	0.01861	0.99784	-0.119
Mof_H 	H 	0.1813	0.0161	0.0109	0.066
Mof_C 	C 	0.261	0.06284	0.93392	0.543
Mof_N 	N 	0.2564	0.96803	0.03255	-0.219
Mof_H 	H 	0.2016	0.9718	0.0248	0.113
Mof_O 	O 	0.015	0.89881	0.06948	-0.517
Mof_O 	O 	0.0715	0.87293	0.10034	-0.573
Mof_O 	O 	0.3675	0.91405	0.13249	-0.518
Mof_O 	O 	0.486	0.91537	0.10537	-0.626
Mof_O 	O 	0.4073	0.97906	0.03009	-0.241
Mof_O 	O 	0.2934	0.05747	0.91196	-0.592
Mof_O 	O 	0.2134	0.08364	0.94242	-0.515
Mof_C 	C 	0.6667	0.85655	0.08456	0.506
Mof_C 	C 	0.58005	0.83954	0.07941	-0.195
Mof_C 	C 	0.50505	0.84416	0.09621	0.145
Mof_H 	H 	0.5093	0.8579	0.1102	-0.032
Mof_C 	C 	0.42364	0.82821	0.09213	-0.204
Mof_C 	C 	0.41724	0.80765	0.07125	0.009
Mof_H 	H 	0.3628	0.797	0.0685	0.045
Mof_C 	C 	0.49224	0.80303	0.05445	0.054
Mof_C 	C 	0.57365	0.81897	0.05853	0.003
Mof_H 	H 	0.6238	0.8159	0.0473	0.04
Mof_C 	C 	0.3468	0.8333	0.11066	0.553
Mof_C 	C 	0.4213	0.76793	0.02308	0.214
Mof_C 	C 	0.44079	0.74695	0.99965	0.017
Mof_C 	C 	0.37375	0.74318	0.98009	-0.116
Mof_H 	H 	0.3182	0.7536	0.9813	0.094
Mof_C 	C 	0.38979	0.72385	0.95872	0.089
Mof_H 	H 	0.3449	0.7213	0.9456	-0.003
Mof_C 	C 	0.47286	0.7083	0.95691	-0.195
Mof_C 	C 	0.5399	0.71206	0.97647	0.086
Mof_H 	H 	0.5955	0.7017	0.9753	0.004
Mof_C 	C 	0.52386	0.73139	0.99784	-0.119
Mof_H 	H 	0.5687	0.7339	0.0109	0.066
Mof_C 	C 	0.489	0.68716	0.93392	0.543
Mof_N 	N 	0.4936	0.78197	0.03255	-0.219
Mof_H 	H 	0.5484	0.7782	0.0248	0.113
Mof_O 	O 	0.735	0.85119	0.06948	-0.517
Mof_O 	O 	0.6785	0.87707	0.10034	-0.573
Mof_O 	O 	0.3825	0.83595	0.13249	-0.518
Mof_O 	O 	0.264	0.83463	0.10537	-0.626
Mof_O 	O 	0.3427	0.77094	0.03009	-0.241
Mof_O 	O 	0.4566	0.69253	0.91196	-0.592
Mof_O 	O 	0.5366	0.66636	0.94242	-0.515
Mof_C 	C 	0.6667	0.35655	0.58456	0.506
Mof_C 	C 	0.58005	0.33954	0.57941	-0.195
Mof_C 	C 	0.50505	0.34416	0.59621	0.145
Mof_H 	H 	0.5093	0.3579	0.6102	-0.032
Mof_C 	C 	0.42364	0.32821	0.59213	-0.204
Mof_C 	C 	0.41724	0.30765	0.57125	0.009
Mof_H 	H 	0.3628	0.297	0.5685	0.045
Mof_C 	C 	0.49224	0.30303	0.55445	0.054
Mof_C 	C 	0.57365	0.31897	0.55853	0.003
Mof_H 	H 	0.6238	0.3159	0.5473	0.04
Mof_C 	C 	0.3468	0.3333	0.61066	0.553
Mof_C 	C 	0.4213	0.26793	0.52308	0.214
Mof_C 	C 	0.44079	0.24695	0.49965	0.017
Mof_C 	C 	0.37375	0.24318	0.48009	-0.116
Mof_H 	H 	0.3182	0.2536	0.4813	0.094
Mof_C 	C 	0.38979	0.22385	0.45872	0.089
Mof_H 	H 	0.3449	0.2213	0.4456	-0.003
Mof_C 	C 	0.47286	0.2083	0.45691	-0.195
Mof_C 	C 	0.5399	0.21206	0.47647	0.086
Mof_H 	H 	0.5955	0.2017	0.4753	0.004
Mof_C 	C 	0.52386	0.23139	0.49784	-0.119
Mof_H 	H 	0.5687	0.2339	0.5109	0.066
Mof_C 	C 	0.489	0.18716	0.43392	0.543
Mof_N 	N 	0.4936	0.28197	0.53255	-0.219
Mof_H 	H 	0.5484	0.2782	0.5248	0.113
Mof_O 	O 	0.735	0.35119	0.56948	-0.517
Mof_O 	O 	0.6785	0.37707	0.60034	-0.573
Mof_O 	O 	0.3825	0.33595	0.63249	-0.518
Mof_O 	O 	0.264	0.33463	0.60537	-0.626
Mof_O 	O 	0.3427	0.27094	0.53009	-0.241
Mof_O 	O 	0.4566	0.19253	0.41196	-0.592
Mof_O 	O 	0.5366	0.16636	0.44242	-0.515
Mof_C 	C 	0.1667	0.85655	0.58456	0.506
Mof_C 	C 	0.08005	0.83954	0.57941	-0.195
Mof_C 	C 	0.00505	0.84416	0.59621	0.145
Mof_H 	H 	0.0093	0.8579	0.6102	-0.032
Mof_C 	C 	0.92364	0.82821	0.59213	-0.204
Mof_C 	C 	0.91724	0.80765	0.57125	0.009
Mof_H 	H 	0.8628	0.797	0.5685	0.045
Mof_C 	C 	0.99224	0.80303	0.55445	0.054
Mof_C 	C 	0.07365	0.81897	0.55853	0.003
Mof_H 	H 	0.1238	0.8159	0.5473	0.04
Mof_C 	C 	0.8468	0.8333	0.61066	0.553
Mof_C 	C 	0.9213	0.76793	0.52308	0.214
Mof_C 	C 	0.94079	0.74695	0.49965	0.017
Mof_C 	C 	0.87375	0.74318	0.48009	-0.116
Mof_H 	H 	0.8182	0.7536	0.4813	0.094
Mof_C 	C 	0.88979	0.72385	0.45872	0.089
Mof_H 	H 	0.8449	0.7213	0.4456	-0.003
Mof_C 	C 	0.97286	0.7083	0.45691	-0.195
Mof_C 	C 	0.0399	0.71206	0.47647	0.086
Mof_H 	H 	0.0955	0.7017	0.4753	0.004
Mof_C 	C 	0.02386	0.73139	0.49784	-0.119
Mof_H 	H 	0.0687	0.7339	0.5109	0.066
Mof_C 	C 	0.989	0.68716	0.43392	0.543
Mof_N 	N 	0.9936	0.78197	0.53255	-0.219
Mof_H 	H 	0.0484	0.7782	0.5248	0.113
Mof_O 	O 	0.235	0.85119	0.56948	-0.517
Mof_O 	O 	0.1785	0.87707	0.60034	-0.573
Mof_O 	O 	0.8825	0.83595	0.63249	-0.518
Mof_O 	O 	0.764	0.83463	0.60537	-0.626
Mof_O 	O 	0.8427	0.77094	0.53009	-0.241
Mof_O 	O 	0.9566	0.69253	0.41196	-0.592
Mof_O 	O 	0.0366	0.66636	0.44242	-0.515
Mof_C 	C 	0.1667	0.35655	0.08456	0.506
Mof_C 	C 	0.08005	0.33954	0.07941	-0.195
Mof_C 	C 	0.00505	0.34416	0.09621	0.145
Mof_H 	H 	0.0093	0.3579	0.1102	-0.032
Mof_C 	C 	0.92364	0.32821	0.09213	-0.204
Mof_C 	C 	0.91724	0.30765	0.07125	0.009
Mof_H 	H 	0.8628	0.297	0.0685	0.045
Mof_C 	C 	0.99224	0.30303	0.05445	0.054
Mof_C 	C 	0.07365	0.31897	0.05853	0.003
Mof_H 	H 	0.1238	0.3159	0.0473	0.04
Mof_C 	C 	0.8468	0.3333	0.11066	0.553
Mof_C 	C 	0.9213	0.26793	0.02308	0.214
Mof_C 	C 	0.94079	0.24695	0.99965	0.017
Mof_C 	C 	0.87375	0.24318	0.98009	-0.116
Mof_H 	H 	0.8182	0.2536	0.9813	0.094
Mof_C 	C 	0.88979	0.22385	0.95872	0.089
Mof_H 	H 	0.8449	0.2213	0.9456	-0.003
Mof_C 	C 	0.97286	0.2083	0.95691	-0.195
Mof_C 	C 	0.0399	0.21206	0.97647	0.086
Mof_H 	H 	0.0955	0.2017	0.9753	0.004
Mof_C 	C 	0.02386	0.23139	0.99784	-0.119
Mof_H 	H 	0.0687	0.2339	0.0109	0.066
Mof_C 	C 	0.989	0.18716	0.93392	0.543
Mof_N 	N 	0.9936	0.28197	0.03255	-0.219
Mof_H 	H 	0.0484	0.2782	0.0248	0.113
Mof_O 	O 	0.235	0.35119	0.06948	-0.517
Mof_O 	O 	0.1785	0.37707	0.10034	-0.573
Mof_O 	O 	0.8825	0.33595	0.13249	-0.518
Mof_O 	O 	0.764	0.33463	0.10537	-0.626
Mof_O 	O 	0.8427	0.27094	0.03009	-0.241
Mof_O 	O 	0.9566	0.19253	0.91196	-0.592
Mof_O 	O 	0.0366	0.16636	0.94242	-0.515
Mof_C 	C 	0.6667	0.39345	0.16544	0.506
Mof_C 	C 	0.58005	0.41046	0.17059	-0.195
Mof_C 	C 	0.50505	0.40584	0.15379	0.145
Mof_H 	H 	0.5093	0.3921	0.1398	-0.032
Mof_C 	C 	0.42364	0.42179	0.15787	-0.204
Mof_C 	C 	0.41724	0.44235	0.17875	0.009
Mof_H 	H 	0.3628	0.453	0.1815	0.045
Mof_C 	C 	0.49224	0.44697	0.19555	0.054
Mof_C 	C 	0.57365	0.43103	0.19147	0.003
Mof_H 	H 	0.6238	0.4341	0.2027	0.04
Mof_C 	C 	0.3468	0.4167	0.13934	0.553
Mof_C 	C 	0.4213	0.48207	0.22692	0.214
Mof_C 	C 	0.44079	0.50305	0.25035	0.017
Mof_C 	C 	0.37375	0.50682	0.26991	-0.116
Mof_H 	H 	0.3182	0.4964	0.2687	0.094
Mof_C 	C 	0.38979	0.52615	0.29128	0.089
Mof_H 	H 	0.3449	0.5287	0.3044	-0.003
Mof_C 	C 	0.47286	0.5417	0.29309	-0.195
Mof_C 	C 	0.5399	0.53794	0.27353	0.086
Mof_H 	H 	0.5955	0.5483	0.2747	0.004
Mof_C 	C 	0.52386	0.51861	0.25216	-0.119
Mof_H 	H 	0.5687	0.5161	0.2391	0.066
Mof_C 	C 	0.489	0.56284	0.31608	0.543
Mof_N 	N 	0.4936	0.46803	0.21745	-0.219
Mof_H 	H 	0.5484	0.4718	0.2252	0.113
Mof_O 	O 	0.735	0.39881	0.18052	-0.517
Mof_O 	O 	0.6785	0.37293	0.14966	-0.573
Mof_O 	O 	0.3825	0.41405	0.11751	-0.518
Mof_O 	O 	0.264	0.41537	0.14463	-0.626
Mof_O 	O 	0.3427	0.47906	0.21991	-0.241
Mof_O 	O 	0.4566	0.55747	0.33804	-0.592
Mof_O 	O 	0.5366	0.58364	0.30758	-0.515
Mof_C 	C 	0.6667	0.89345	0.66544	0.506
Mof_C 	C 	0.58005	0.91046	0.67059	-0.195
Mof_C 	C 	0.50505	0.90584	0.65379	0.145
Mof_H 	H 	0.5093	0.8921	0.6398	-0.032
Mof_C 	C 	0.42364	0.92179	0.65787	-0.204
Mof_C 	C 	0.41724	0.94235	0.67875	0.009
Mof_H 	H 	0.3628	0.953	0.6815	0.045
Mof_C 	C 	0.49224	0.94697	0.69555	0.054
Mof_C 	C 	0.57365	0.93103	0.69147	0.003
Mof_H 	H 	0.6238	0.9341	0.7027	0.04
Mof_C 	C 	0.3468	0.9167	0.63934	0.553
Mof_C 	C 	0.4213	0.98207	0.72692	0.214
Mof_C 	C 	0.44079	0.00305	0.75035	0.017
Mof_C 	C 	0.37375	0.00682	0.76991	-0.116
Mof_H 	H 	0.3182	0.9964	0.7687	0.094
Mof_C 	C 	0.38979	0.02615	0.79128	0.088
Mof_H 	H 	0.3449	0.0287	0.8044	-0.003
Mof_C 	C 	0.47286	0.0417	0.79309	-0.195
Mof_C 	C 	0.5399	0.03794	0.77353	0.086
Mof_H 	H 	0.5955	0.0483	0.7747	0.004
Mof_C 	C 	0.52386	0.01861	0.75216	-0.119
Mof_H 	H 	0.5687	0.0161	0.7391	0.066
Mof_C 	C 	0.489	0.06284	0.81608	0.543
Mof_N 	N 	0.4936	0.96803	0.71745	-0.219
Mof_H 	H 	0.5484	0.9718	0.7252	0.113
Mof_O 	O 	0.735	0.89881	0.68052	-0.517
Mof_O 	O 	0.6785	0.87293	0.64966	-0.573
Mof_O 	O 	0.3825	0.91405	0.61751	-0.518
Mof_O 	O 	0.264	0.91537	0.64463	-0.626
Mof_O 	O 	0.3427	0.97906	0.71991	-0.241
Mof_O 	O 	0.4566	0.05747	0.83804	-0.592
Mof_O 	O 	0.5366	0.08364	0.80758	-0.515
Mof_C 	C 	0.1667	0.39345	0.66544	0.506
Mof_C 	C 	0.08005	0.41046	0.67059	-0.195
Mof_C 	C 	0.00505	0.40584	0.65379	0.145
Mof_H 	H 	0.0093	0.3921	0.6398	-0.032
Mof_C 	C 	0.92364	0.42179	0.65787	-0.204
Mof_C 	C 	0.91724	0.44235	0.67875	0.009
Mof_H 	H 	0.8628	0.453	0.6815	0.045
Mof_C 	C 	0.99224	0.44697	0.69555	0.054
Mof_C 	C 	0.07365	0.43103	0.69147	0.003
Mof_H 	H 	0.1238	0.4341	0.7027	0.04
Mof_C 	C 	0.8468	0.4167	0.63934	0.553
Mof_C 	C 	0.9213	0.48207	0.72692	0.214
Mof_C 	C 	0.94079	0.50305	0.75035	0.017
Mof_C 	C 	0.87375	0.50682	0.76991	-0.116
Mof_H 	H 	0.8182	0.4964	0.7687	0.094
Mof_C 	C 	0.88979	0.52615	0.79128	0.089
Mof_H 	H 	0.8449	0.5287	0.8044	-0.003
Mof_C 	C 	0.97286	0.5417	0.79309	-0.195
Mof_C 	C 	0.0399	0.53794	0.77353	0.086
Mof_H 	H 	0.0955	0.5483	0.7747	0.004
Mof_C 	C 	0.02386	0.51861	0.75216	-0.119
Mof_H 	H 	0.0687	0.5161	0.7391	0.066
Mof_C 	C 	0.989	0.56284	0.81608	0.543
Mof_N 	N 	0.9936	0.46803	0.71745	-0.219
Mof_H 	H 	0.0484	0.4718	0.7252	0.113
Mof_O 	O 	0.235	0.39881	0.68052	-0.517
Mof_O 	O 	0.1785	0.37293	0.64966	-0.573
Mof_O 	O 	0.8825	0.41405	0.61751	-0.518
Mof_O 	O 	0.764	0.41537	0.64463	-0.626
Mof_O 	O 	0.8427	0.47906	0.71991	-0.241
Mof_O 	O 	0.9566	0.55747	0.83804	-0.592
Mof_O 	O 	0.0366	0.58364	0.80758	-0.515
Mof_C 	C 	0.1667	0.89345	0.16544	0.506
Mof_C 	C 	0.08005	0.91046	0.17059	-0.195
Mof_C 	C 	0.00505	0.90584	0.15379	0.145
Mof_H 	H 	0.0093	0.8921	0.1398	-0.032
Mof_C 	C 	0.92364	0.92179	0.15787	-0.203
Mof_C 	C 	0.91724	0.94235	0.17875	0.009
Mof_H 	H 	0.8628	0.953	0.1815	0.045
Mof_C 	C 	0.99224	0.94697	0.19555	0.054
Mof_C 	C 	0.07365	0.93103	0.19147	0.003
Mof_H 	H 	0.1238	0.9341	0.2027	0.04
Mof_C 	C 	0.8468	0.9167	0.13934	0.553
Mof_C 	C 	0.9213	0.98207	0.22692	0.214
Mof_C 	C 	0.94079	0.00305	0.25035	0.017
Mof_C 	C 	0.87375	0.00682	0.26991	-0.116
Mof_H 	H 	0.8182	0.9964	0.2687	0.094
Mof_C 	C 	0.88979	0.02615	0.29128	0.089
Mof_H 	H 	0.8449	0.0287	0.3044	-0.003
Mof_C 	C 	0.97286	0.0417	0.29309	-0.195
Mof_C 	C 	0.0399	0.03794	0.27353	0.086
Mof_H 	H 	0.0955	0.0483	0.2747	0.004
Mof_C 	C 	0.02386	0.01861	0.25216	-0.119
Mof_H 	H 	0.0687	0.0161	0.2391	0.066
Mof_C 	C 	0.989	0.06284	0.31608	0.543
Mof_N 	N 	0.9936	0.96803	0.21745	-0.219
Mof_H 	H 	0.0484	0.9718	0.2252	0.113
Mof_O 	O 	0.235	0.89881	0.18052	-0.517
Mof_O 	O 	0.1785	0.87293	0.14966	-0.573
Mof_O 	O 	0.8825	0.91405	0.11751	-0.518
Mof_O 	O 	0.764	0.91537	0.14463	-0.626
Mof_O 	O 	0.8427	0.97906	0.21991	-0.241
Mof_O 	O 	0.9566	0.05747	0.33804	-0.592
Mof_O 	O 	0.0366	0.08364	0.30758	-0.515
Mof_C 	C 	0.5833	0.85655	0.16544	0.506
Mof_C 	C 	0.66995	0.83954	0.17059	-0.195
Mof_C 	C 	0.74495	0.84416	0.15379	0.145
Mof_H 	H 	0.7407	0.8579	0.1398	-0.032
Mof_C 	C 	0.82636	0.82821	0.15787	-0.204
Mof_C 	C 	0.83276	0.80765	0.17875	0.009
Mof_H 	H 	0.8872	0.797	0.1815	0.045
Mof_C 	C 	0.75776	0.80303	0.19555	0.054
Mof_C 	C 	0.67635	0.81897	0.19147	0.003
Mof_H 	H 	0.6262	0.8159	0.2027	0.04
Mof_C 	C 	0.9032	0.8333	0.13934	0.553
Mof_C 	C 	0.8287	0.76793	0.22692	0.214
Mof_C 	C 	0.80921	0.74695	0.25035	0.017
Mof_C 	C 	0.87625	0.74318	0.26991	-0.116
Mof_H 	H 	0.9318	0.7536	0.2687	0.094
Mof_C 	C 	0.86021	0.72385	0.29128	0.088
Mof_H 	H 	0.9051	0.7213	0.3044	-0.003
Mof_C 	C 	0.77714	0.7083	0.29309	-0.195
Mof_C 	C 	0.7101	0.71206	0.27353	0.086
Mof_H 	H 	0.6545	0.7017	0.2747	0.004
Mof_C 	C 	0.72614	0.73139	0.25216	-0.119
Mof_H 	H 	0.6813	0.7339	0.2391	0.066
Mof_C 	C 	0.761	0.68716	0.31608	0.543
Mof_N 	N 	0.7564	0.78197	0.21745	-0.219
Mof_H 	H 	0.7016	0.7782	0.2252	0.113
Mof_O 	O 	0.515	0.85119	0.18052	-0.517
Mof_O 	O 	0.5715	0.87707	0.14966	-0.573
Mof_O 	O 	0.8675	0.83595	0.11751	-0.518
Mof_O 	O 	0.986	0.83463	0.14463	-0.626
Mof_O 	O 	0.9073	0.77094	0.21991	-0.241
Mof_O 	O 	0.7934	0.69253	0.33804	-0.592
Mof_O 	O 	0.7134	0.66636	0.30758	-0.515
Mof_C 	C 	0.5833	0.35655	0.66544	0.506
Mof_C 	C 	0.66995	0.33954	0.67059	-0.195
Mof_C 	C 	0.74495	0.34416	0.65379	0.145
Mof_H 	H 	0.7407	0.3579	0.6398	-0.032
Mof_C 	C 	0.82636	0.32821	0.65787	-0.204
Mof_C 	C 	0.83276	0.30765	0.67875	0.009
Mof_H 	H 	0.8872	0.297	0.6815	0.045
Mof_C 	C 	0.75776	0.30303	0.69555	0.054
Mof_C 	C 	0.67635	0.31897	0.69147	0.003
Mof_H 	H 	0.6262	0.3159	0.7027	0.04
Mof_C 	C 	0.9032	0.3333	0.63934	0.553
Mof_C 	C 	0.8287	0.26793	0.72692	0.214
Mof_C 	C 	0.80921	0.24695	0.75035	0.017
Mof_C 	C 	0.87625	0.24318	0.76991	-0.116
Mof_H 	H 	0.9318	0.2536	0.7687	0.094
Mof_C 	C 	0.86021	0.22385	0.79128	0.088
Mof_H 	H 	0.9051	0.2213	0.8044	-0.003
Mof_C 	C 	0.77714	0.2083	0.79309	-0.195
Mof_C 	C 	0.7101	0.21206	0.77353	0.086
Mof_H 	H 	0.6545	0.2017	0.7747	0.004
Mof_C 	C 	0.72614	0.23139	0.75216	-0.119
Mof_H 	H 	0.6813	0.2339	0.7391	0.066
Mof_C 	C 	0.761	0.18716	0.81608	0.543
Mof_N 	N 	0.7564	0.28197	0.71745	-0.219
Mof_H 	H 	0.7016	0.2782	0.7252	0.113
Mof_O 	O 	0.515	0.35119	0.68052	-0.517
Mof_O 	O 	0.5715	0.37707	0.64966	-0.573
Mof_O 	O 	0.8675	0.33595	0.61751	-0.518
Mof_O 	O 	0.986	0.33463	0.64463	-0.626
Mof_O 	O 	0.9073	0.27094	0.71991	-0.241
Mof_O 	O 	0.7934	0.19253	0.83804	-0.592
Mof_O 	O 	0.7134	0.16636	0.80758	-0.515
Mof_C 	C 	0.0833	0.85655	0.66544	0.506
Mof_C 	C 	0.16995	0.83954	0.67059	-0.195
Mof_C 	C 	0.24495	0.84416	0.65379	0.145
Mof_H 	H 	0.2407	0.8579	0.6398	-0.032
Mof_C 	C 	0.32636	0.82821	0.65787	-0.204
Mof_C 	C 	0.33276	0.80765	0.67875	0.009
Mof_H 	H 	0.3872	0.797	0.6815	0.045
Mof_C 	C 	0.25776	0.80303	0.69555	0.054
Mof_C 	C 	0.17635	0.81897	0.69147	0.003
Mof_H 	H 	0.1262	0.8159	0.7027	0.04
Mof_C 	C 	0.4032	0.8333	0.63934	0.553
Mof_C 	C 	0.3287	0.76793	0.72692	0.214
Mof_C 	C 	0.30921	0.74695	0.75035	0.017
Mof_C 	C 	0.37625	0.74318	0.76991	-0.116
Mof_H 	H 	0.4318	0.7536	0.7687	0.094
Mof_C 	C 	0.36021	0.72385	0.79128	0.089
Mof_H 	H 	0.4051	0.7213	0.8044	-0.003
Mof_C 	C 	0.27714	0.7083	0.79309	-0.195
Mof_C 	C 	0.2101	0.71206	0.77353	0.086
Mof_H 	H 	0.1545	0.7017	0.7747	0.004
Mof_C 	C 	0.22614	0.73139	0.75216	-0.119
Mof_H 	H 	0.1813	0.7339	0.7391	0.066
Mof_C 	C 	0.261	0.68716	0.81608	0.543
Mof_N 	N 	0.2564	0.78197	0.71745	-0.219
Mof_H 	H 	0.2016	0.7782	0.7252	0.113
Mof_O 	O 	0.015	0.85119	0.68052	-0.517
Mof_O 	O 	0.0715	0.87707	0.64966	-0.573
Mof_O 	O 	0.3675	0.83595	0.61751	-0.518
Mof_O 	O 	0.486	0.83463	0.64463	-0.626
Mof_O 	O 	0.4073	0.77094	0.71991	-0.241
Mof_O 	O 	0.2934	0.69253	0.83804	-0.592
Mof_O 	O 	0.2134	0.66636	0.80758	-0.515
Mof_C 	C 	0.0833	0.35655	0.16544	0.506
Mof_C 	C 	0.16995	0.33954	0.17059	-0.195
Mof_C 	C 	0.24495	0.34416	0.15379	0.145
Mof_H 	H 	0.2407	0.3579	0.1398	-0.032
Mof_C 	C 	0.32636	0.32821	0.15787	-0.204
Mof_C 	C 	0.33276	0.30765	0.17875	0.009
Mof_H 	H 	0.3872	0.297	0.1815	0.045
Mof_C 	C 	0.25776	0.30303	0.19555	0.054
Mof_C 	C 	0.17635	0.31897	0.19147	0.003
Mof_H 	H 	0.1262	0.3159	0.2027	0.04
Mof_C 	C 	0.4032	0.3333	0.13934	0.553
Mof_C 	C 	0.3287	0.26793	0.22692	0.214
Mof_C 	C 	0.30921	0.24695	0.25035	0.017
Mof_C 	C 	0.37625	0.24318	0.26991	-0.116
Mof_H 	H 	0.4318	0.2536	0.2687	0.094
Mof_C 	C 	0.36021	0.22385	0.29128	0.089
Mof_H 	H 	0.4051	0.2213	0.3044	-0.003
Mof_C 	C 	0.27714	0.2083	0.29309	-0.195
Mof_C 	C 	0.2101	0.21206	0.27353	0.086
Mof_H 	H 	0.1545	0.2017	0.2747	0.004
Mof_C 	C 	0.22614	0.23139	0.25216	-0.119
Mof_H 	H 	0.1813	0.2339	0.2391	0.066
Mof_C 	C 	0.261	0.18716	0.31608	0.543
Mof_N 	N 	0.2564	0.28197	0.21745	-0.219
Mof_H 	H 	0.2016	0.2782	0.2252	0.113
Mof_O 	O 	0.015	0.35119	0.18052	-0.517
Mof_O 	O 	0.0715	0.37707	0.14966	-0.573
Mof_O 	O 	0.3675	0.33595	0.11751	-0.518
Mof_O 	O 	0.486	0.33463	0.14463	-0.626
Mof_O 	O 	0.4073	0.27094	0.21991	-0.241
Mof_O 	O 	0.2934	0.19253	0.33804	-0.592
Mof_O 	O 	0.2134	0.16636	0.30758	-0.515
Mof_Tb	Tb	0.625	0.625	0.91981	1.992
Mof_Tb	Tb	0.625	0.125	0.41981	1.992
Mof_Tb	Tb	0.125	0.125	0.91981	1.992
Mof_Tb	Tb	0.125	0.625	0.41981	1.992
Mof_Tb	Tb	0.125	0.625	0.83019	1.992
Mof_Tb	Tb	0.125	0.125	0.33019	1.992
Mof_Tb	Tb	0.625	0.625	0.33019	1.992
Mof_Tb	Tb	0.625	0.125	0.83019	1.992
Mof_Tb	Tb	0.375	0.375	0.08019	1.992
Mof_Tb	Tb	0.375	0.875	0.58019	1.992
Mof_Tb	Tb	0.875	0.875	0.08019	1.992
Mof_Tb	Tb	0.875	0.375	0.58019	1.992
Mof_Tb	Tb	0.875	0.375	0.16981	1.992
Mof_Tb	Tb	0.875	0.875	0.66981	1.992
Mof_Tb	Tb	0.375	0.875	0.16981	1.992
Mof_Tb	Tb	0.375	0.375	0.66981	1.992
Mof_Tb	Tb	0.375	0.67129	0.875	2.174
Mof_Tb	Tb	0.375	0.17129	0.375	2.174
Mof_Tb	Tb	0.875	0.67129	0.375	2.174
Mof_Tb	Tb	0.875	0.17129	0.875	2.174
Mof_Tb	Tb	0.375	0.07871	0.875	2.174
Mof_Tb	Tb	0.375	0.57871	0.375	2.174
Mof_Tb	Tb	0.875	0.07871	0.375	2.174
Mof_Tb	Tb	0.875	0.57871	0.875	2.174
Mof_Tb	Tb	0.625	0.32871	0.125	2.174
Mof_Tb	Tb	0.625	0.82871	0.625	2.174
Mof_Tb	Tb	0.125	0.32871	0.625	2.174
Mof_Tb	Tb	0.125	0.82871	0.125	2.174
Mof_Tb	Tb	0.625	0.92129	0.125	2.174
Mof_Tb	Tb	0.625	0.42129	0.625	2.174
Mof_Tb	Tb	0.125	0.92129	0.625	2.174
Mof_Tb	Tb	0.125	0.42129	0.125	2.174
_end
