data_functionalizedCrystal
_audit_creation_method	'EQeq! by Chris Wilmer'
_symmetry_space_group_name_H-M	'P1'
_symmetry_Int_Tables_number	1
_symmetry_cell_setting	triclinic
loop_
_symmetry_equiv_pos_as_xyz
  x,y,z
_cell_length_a	14.044
_cell_length_b	18.034
_cell_length_c	12.931
_cell_angle_alpha	90
_cell_angle_beta	111.47
_cell_angle_gamma	90
loop_
_atom_site_label
_atom_site_type_symbol
_atom_site_fract_x
_atom_site_fract_y
_atom_site_fract_z
_atom_site_charge
Mof_Cd	Cd	0.42565	0.36008	0.42064	0.276
Mof_N 	N 	0.1721	0.3688	0.3109	-0.146
Mof_C 	C 	0.2587	0.3681	0.3447	-0.015
Mof_N 	N 	0.0086	0.269	0.3846	-0.141
Mof_C 	C 	0.4737	0.2743	0.5488	-0.011
Mof_C 	C 	0.4848	0.4701	0.4846	-0.07
Mof_C 	C 	0.4879	0.3447	0.2871	-0.068
Mof_Cd	Cd	0.92565	0.86008	0.42064	0.275
Mof_N 	N 	0.6721	0.8688	0.3109	-0.143
Mof_C 	C 	0.7587	0.8681	0.3447	-0.008
Mof_N 	N 	0.5086	0.769	0.3846	-0.138
Mof_C 	C 	0.9737	0.7743	0.5488	-0.004
Mof_C 	C 	0.9848	0.9701	0.4846	-0.034
Mof_C 	C 	0.9879	0.8447	0.2871	-0.026
Mof_Cd	Cd	0.57435	0.36008	0.07936	0.28
Mof_N 	N 	0.8279	0.3688	0.1891	-0.136
Mof_C 	C 	0.7413	0.3681	0.1553	-0.007
Mof_N 	N 	0.9914	0.269	0.1154	-0.13
Mof_C 	C 	0.5263	0.2743	0.9512	-0.014
Mof_C 	C 	0.5152	0.4701	0.0154	-0.062
Mof_C 	C 	0.5121	0.3447	0.2129	-0.067
Mof_Cd	Cd	0.07435	0.86008	0.07936	0.281
Mof_N 	N 	0.3279	0.8688	0.1891	-0.144
Mof_C 	C 	0.2413	0.8681	0.1553	-0.013
Mof_N 	N 	0.4914	0.769	0.1154	-0.138
Mof_C 	C 	0.0263	0.7743	0.9512	-0.02
Mof_C 	C 	0.0152	0.9701	0.0154	-0.101
Mof_C 	C 	0.0121	0.8447	0.2129	-0.109
Mof_Cd	Cd	0.57435	0.63992	0.57936	0.278
Mof_N 	N 	0.8279	0.6312	0.6891	-0.137
Mof_C 	C 	0.7413	0.6319	0.6553	-0.009
Mof_N 	N 	0.9914	0.731	0.6154	-0.131
Mof_C 	C 	0.5263	0.7257	0.4512	-0.011
Mof_C 	C 	0.5152	0.5299	0.5154	-0.07
Mof_C 	C 	0.5121	0.6553	0.7129	-0.068
Mof_Cd	Cd	0.07435	0.13992	0.57936	0.279
Mof_N 	N 	0.3279	0.1312	0.6891	-0.144
Mof_C 	C 	0.2413	0.1319	0.6553	-0.014
Mof_N 	N 	0.4914	0.231	0.6154	-0.138
Mof_C 	C 	0.0263	0.2257	0.4512	-0.017
Mof_C 	C 	0.0152	0.0299	0.5154	-0.106
Mof_C 	C 	0.0121	0.1553	0.7129	-0.108
Mof_Cd	Cd	0.42565	0.63992	0.92064	0.275
Mof_N 	N 	0.1721	0.6312	0.8109	-0.145
Mof_C 	C 	0.2587	0.6319	0.8447	-0.015
Mof_N 	N 	0.0086	0.731	0.8846	-0.141
Mof_C 	C 	0.4737	0.7257	0.0488	-0.007
Mof_C 	C 	0.4848	0.5299	0.9846	-0.077
Mof_C 	C 	0.4879	0.6553	0.7871	-0.069
Mof_Cd	Cd	0.92565	0.13992	0.92064	0.273
Mof_N 	N 	0.6721	0.1312	0.8109	-0.143
Mof_C 	C 	0.7587	0.1319	0.8447	-0.01
Mof_N 	N 	0.5086	0.231	0.8846	-0.138
Mof_C 	C 	0.9737	0.2257	0.0488	-0
Mof_C 	C 	0.9848	0.0299	0.9846	-0.04
Mof_C 	C 	0.9879	0.1553	0.7871	-0.028
Mof_Cd	Cd	1.17896e-33	0.35448	0.25	0.315
Mof_Cd	Cd	0.5	0.85448	0.25	0.333
Mof_Cd	Cd	7.46033e-17	0.64552	0.75	0.314
Mof_Cd	Cd	0.5	0.14552	0.75	0.332
_end
