data_functionalizedCrystal
_audit_creation_method	'EQeq! by Chris Wilmer'
_symmetry_space_group_name_H-M	'P1'
_symmetry_Int_Tables_number	1
_symmetry_cell_setting	triclinic
loop_
_symmetry_equiv_pos_as_xyz
  x,y,z
_cell_length_a	10.88
_cell_length_b	10.918
_cell_length_c	14.122
_cell_angle_alpha	89.335
_cell_angle_beta	89.171
_cell_angle_gamma	78.38
loop_
_atom_site_label
_atom_site_type_symbol
_atom_site_fract_x
_atom_site_fract_y
_atom_site_fract_z
_atom_site_charge
Mof_Zn	Zn	0.72699	0.33722	0.80226	1.22
Mof_Zn	Zn	0.7307	0.34033	0.59258	1.217
Mof_H 	H 	0.7886	0.7247	0.5687	0.044
Mof_H 	H 	0.8128	0.9325	0.5754	0.052
Mof_H 	H 	0.6929	0.9547	0.8421	0.05
Mof_H 	H 	0.6762	0.7483	0.8418	0.048
Mof_H 	H 	0.3334	0.3708	0.5523	0.057
Mof_H 	H 	0.1175	0.3686	0.5511	0.051
Mof_H 	H 	0.1255	0.307	0.839	0.053
Mof_H 	H 	0.3404	0.3145	0.838	0.05
Mof_H 	H 	0.916	0.3135	0.4296	0.004
Mof_H 	H 	0.9212	0.3093	0.2668	0.076
Mof_H 	H 	0.5418	0.356	0.2709	0.078
Mof_H 	H 	0.5509	0.35	0.4357	0.011
Mof_H 	H 	0.8923	0.1984	0.1194	0.079
Mof_H 	H 	0.881	0.2161	0.9543	-0.005
Mof_H 	H 	0.5712	0.4658	0.9647	-0.008
Mof_H 	H 	0.5714	0.4583	0.1293	0.084
Mof_C 	C 	0.713	0.5778	0.7004	0.386
Mof_C 	C 	0.7248	0.7121	0.7009	-0.087
Mof_C 	C 	0.767	0.77	0.6255	-0.009
Mof_C 	C 	0.778	0.896	0.6284	-0.011
Mof_C 	C 	0.7422	0.9632	0.704	-0.085
Mof_C 	C 	0.709	0.908	0.7855	-0.012
Mof_C 	C 	0.7	0.786	0.7852	-0.015
Mof_C 	C 	0.7472	0.1002	0.7036	0.398
Mof_C 	C 	0.4927	0.3498	0.6956	0.367
Mof_C 	C 	0.3561	0.3472	0.6942	-0.073
Mof_C 	C 	0.2907	0.3598	0.61	-0.015
Mof_C 	C 	0.1626	0.3566	0.6087	-0.019
Mof_C 	C 	0.1023	0.3353	0.6942	-0.068
Mof_C 	C 	0.1675	0.3203	0.7815	-0.02
Mof_C 	C 	0.2947	0.3255	0.7806	-0.014
Mof_C 	C 	0.9654	0.3308	0.6941	0.356
Mof_C 	C 	0.8393	0.3217	0.3966	0.075
Mof_C 	C 	0.843	0.32	0.2997	-0.118
Mof_C 	C 	0.7309	0.3343	0.2492	0.05
Mof_C 	C 	0.6204	0.3464	0.3016	-0.116
Mof_C 	C 	0.6267	0.3442	0.4003	0.077
Mof_C 	C 	0.7309	0.3335	0.1444	0.063
Mof_C 	C 	0.8256	0.2551	0.0901	-0.13
Mof_C 	C 	0.8161	0.2655	0.9911	0.089
Mof_C 	C 	0.6366	0.4104	0.9964	0.084
Mof_C 	C 	0.6381	0.407	0.0953	-0.135
Mof_N 	N 	0.7322	0.3344	0.4468	-0.246
Mof_N 	N 	0.7259	0.3369	0.9462	-0.255
Mof_O 	O 	0.7085	0.5232	0.7785	-0.465
Mof_O 	O 	0.7087	0.5281	0.6216	-0.461
Mof_O 	O 	0.7503	0.1541	0.6254	-0.463
Mof_O 	O 	0.749	0.1504	0.7816	-0.463
Mof_O 	O 	0.5433	0.3499	0.7746	-0.466
Mof_O 	O 	0.5456	0.3532	0.6143	-0.453
Mof_O 	O 	0.9147	0.3288	0.6131	-0.452
Mof_O 	O 	0.911	0.3241	0.7735	-0.454
Mof_Zn	Zn	0.27301	0.66278	0.19774	1.219
Mof_Zn	Zn	0.2693	0.65967	0.40742	1.216
Mof_H 	H 	0.2114	0.2753	0.4313	0.044
Mof_H 	H 	0.1872	0.0675	0.4246	0.052
Mof_H 	H 	0.3071	0.0453	0.1579	0.05
Mof_H 	H 	0.3238	0.2517	0.1582	0.048
Mof_H 	H 	0.6666	0.6292	0.4477	0.057
Mof_H 	H 	0.8825	0.6314	0.4489	0.051
Mof_H 	H 	0.8745	0.693	0.161	0.053
Mof_H 	H 	0.6596	0.6855	0.162	0.05
Mof_H 	H 	0.084	0.6865	0.5704	0.004
Mof_H 	H 	0.0788	0.6907	0.7332	0.076
Mof_H 	H 	0.4582	0.644	0.7291	0.078
Mof_H 	H 	0.4491	0.65	0.5643	0.011
Mof_H 	H 	0.1077	0.8016	0.8806	0.079
Mof_H 	H 	0.119	0.7839	0.0457	-0.005
Mof_H 	H 	0.4288	0.5342	0.0353	-0.008
Mof_H 	H 	0.4286	0.5417	0.8707	0.084
Mof_C 	C 	0.287	0.4222	0.2996	0.386
Mof_C 	C 	0.2752	0.2879	0.2991	-0.087
Mof_C 	C 	0.233	0.23	0.3745	-0.009
Mof_C 	C 	0.222	0.104	0.3716	-0.011
Mof_C 	C 	0.2578	0.0368	0.296	-0.085
Mof_C 	C 	0.291	0.092	0.2145	-0.012
Mof_C 	C 	0.3	0.214	0.2148	-0.015
Mof_C 	C 	0.2528	0.8998	0.2964	0.398
Mof_C 	C 	0.5073	0.6502	0.3044	0.367
Mof_C 	C 	0.6439	0.6528	0.3058	-0.073
Mof_C 	C 	0.7093	0.6402	0.39	-0.015
Mof_C 	C 	0.8374	0.6434	0.3913	-0.019
Mof_C 	C 	0.8977	0.6647	0.3058	-0.068
Mof_C 	C 	0.8325	0.6797	0.2185	-0.02
Mof_C 	C 	0.7053	0.6745	0.2194	-0.014
Mof_C 	C 	0.0346	0.6692	0.3059	0.356
Mof_C 	C 	0.1607	0.6783	0.6034	0.075
Mof_C 	C 	0.157	0.68	0.7003	-0.118
Mof_C 	C 	0.2691	0.6657	0.7508	0.05
Mof_C 	C 	0.3796	0.6536	0.6984	-0.116
Mof_C 	C 	0.3733	0.6558	0.5997	0.077
Mof_C 	C 	0.2691	0.6665	0.8556	0.063
Mof_C 	C 	0.1744	0.7449	0.9099	-0.13
Mof_C 	C 	0.1839	0.7345	0.0089	0.089
Mof_C 	C 	0.3634	0.5896	0.0036	0.084
Mof_C 	C 	0.3619	0.593	0.9047	-0.135
Mof_N 	N 	0.2678	0.6656	0.5532	-0.246
Mof_N 	N 	0.2741	0.6631	0.0538	-0.255
Mof_O 	O 	0.2915	0.4768	0.2215	-0.465
Mof_O 	O 	0.2913	0.4719	0.3784	-0.461
Mof_O 	O 	0.2497	0.8459	0.3746	-0.463
Mof_O 	O 	0.251	0.8496	0.2184	-0.463
Mof_O 	O 	0.4567	0.6501	0.2254	-0.466
Mof_O 	O 	0.4544	0.6468	0.3857	-0.453
Mof_O 	O 	0.0853	0.6712	0.3869	-0.452
Mof_O 	O 	0.089	0.6759	0.2265	-0.454
_end
