data_functionalizedCrystal
_audit_creation_method	'EQeq! by Chris Wilmer'
_symmetry_space_group_name_H-M	'P1'
_symmetry_Int_Tables_number	1
_symmetry_cell_setting	triclinic
loop_
_symmetry_equiv_pos_as_xyz
  x,y,z
_cell_length_a	10.853
_cell_length_b	13.291
_cell_length_c	14.337
_cell_angle_alpha	90
_cell_angle_beta	90
_cell_angle_gamma	90.032
loop_
_atom_site_label
_atom_site_type_symbol
_atom_site_fract_x
_atom_site_fract_y
_atom_site_fract_z
_atom_site_charge
Mof_Gd	Gd	0.75557	0.78529	0.7822	1.918
Mof_Gd	Gd	0.00454	0.13225	0.86169	1.635
Mof_Gd	Gd	0.74443	0.71471	0.2822	1.92
Mof_Gd	Gd	0.49546	0.36775	0.36169	1.659
Mof_Gd	Gd	0.24443	0.21471	0.2178	1.918
Mof_Gd	Gd	0.99546	0.86775	0.13831	1.635
Mof_Gd	Gd	0.25557	0.28529	0.7178	1.92
Mof_Gd	Gd	0.50454	0.63225	0.63831	1.659
Mof_H 	H 	0.5608	0.0869	0.8677	0.039
Mof_H 	H 	0.8763	0.8674	0.5448	0.04
Mof_H 	H 	0.0309	0.5643	0.8528	0.046
Mof_H 	H 	0.9392	0.4131	0.3677	0.039
Mof_H 	H 	0.6237	0.6326	0.0448	0.039
Mof_H 	H 	0.4691	0.9357	0.3528	0.045
Mof_H 	H 	0.4392	0.9131	0.1323	0.039
Mof_H 	H 	0.1237	0.1326	0.4552	0.04
Mof_H 	H 	0.9691	0.4357	0.1472	0.046
Mof_H 	H 	0.0608	0.5869	0.6323	0.039
Mof_H 	H 	0.3763	0.3674	0.9552	0.039
Mof_H 	H 	0.5309	0.0643	0.6472	0.045
Mof_C 	C 	0.7539	0.9935	0.9334	0.425
Mof_C 	C 	0.6229	0.9972	0.9716	-0.079
Mof_C 	C 	0.5874	0.9447	0.0523	-0.075
Mof_C 	C 	0.6812	0.8881	0.1114	0.421
Mof_C 	C 	0.5359	0.052	0.9207	0.022
Mof_C 	C 	0.9104	0.9793	0.6888	0.434
Mof_C 	C 	0.9608	0.9928	0.5927	-0.101
Mof_C 	C 	0.0355	0.0729	0.5661	-0.059
Mof_C 	C 	0.0864	0.1526	0.6303	0.334
Mof_C 	C 	0.9262	0.9209	0.5266	0.018
Mof_C 	C 	0.9599	0.7107	0.9532	0.478
Mof_C 	C 	0.978	0.6032	0.9828	-0.11
Mof_C 	C 	0.9574	0.563	0.0723	-0.061
Mof_C 	C 	0.9033	0.6225	0.1527	0.319
Mof_C 	C 	0.019	0.5384	0.9123	0.011
Mof_C 	C 	0.7461	0.5065	0.4334	0.435
Mof_C 	C 	0.8771	0.5028	0.4716	-0.08
Mof_C 	C 	0.9126	0.5553	0.5523	-0.073
Mof_C 	C 	0.8188	0.6119	0.6114	0.421
Mof_C 	C 	0.9641	0.448	0.4207	0.022
Mof_C 	C 	0.5896	0.5207	0.1888	0.447
Mof_C 	C 	0.5392	0.5072	0.0927	-0.102
Mof_C 	C 	0.4645	0.4271	0.0661	-0.056
Mof_C 	C 	0.4136	0.3474	0.1303	0.334
Mof_C 	C 	0.5738	0.5791	0.0266	0.018
Mof_C 	C 	0.5401	0.7893	0.4532	0.485
Mof_C 	C 	0.522	0.8968	0.4828	-0.116
Mof_C 	C 	0.5426	0.937	0.5723	-0.058
Mof_C 	C 	0.5967	0.8775	0.6527	0.319
Mof_C 	C 	0.481	0.9616	0.4123	0.014
Mof_C 	C 	0.2461	0.0065	0.0666	0.425
Mof_C 	C 	0.3771	0.0028	0.0284	-0.079
Mof_C 	C 	0.4126	0.0553	0.9477	-0.075
Mof_C 	C 	0.3188	0.1119	0.8886	0.421
Mof_C 	C 	0.4641	0.948	0.0793	0.022
Mof_C 	C 	0.0896	0.0207	0.3112	0.434
Mof_C 	C 	0.0392	0.0072	0.4073	-0.101
Mof_C 	C 	0.9645	0.9271	0.4339	-0.059
Mof_C 	C 	0.9136	0.8474	0.3697	0.334
Mof_C 	C 	0.0738	0.0791	0.4734	0.018
Mof_C 	C 	0.0401	0.2893	0.0468	0.478
Mof_C 	C 	0.022	0.3968	0.0172	-0.11
Mof_C 	C 	0.0426	0.437	0.9277	-0.061
Mof_C 	C 	0.0967	0.3775	0.8473	0.319
Mof_C 	C 	0.981	0.4616	0.0877	0.011
Mof_C 	C 	0.2539	0.4935	0.5666	0.435
Mof_C 	C 	0.1229	0.4972	0.5284	-0.08
Mof_C 	C 	0.0874	0.4447	0.4477	-0.073
Mof_C 	C 	0.1812	0.3881	0.3886	0.421
Mof_C 	C 	0.0359	0.552	0.5793	0.022
Mof_C 	C 	0.4104	0.4793	0.8112	0.447
Mof_C 	C 	0.4608	0.4928	0.9073	-0.102
Mof_C 	C 	0.5355	0.5729	0.9339	-0.056
Mof_C 	C 	0.5864	0.6526	0.8697	0.334
Mof_C 	C 	0.4262	0.4209	0.9734	0.018
Mof_C 	C 	0.4599	0.2107	0.5468	0.485
Mof_C 	C 	0.478	0.1032	0.5172	-0.116
Mof_C 	C 	0.4574	0.063	0.4277	-0.058
Mof_C 	C 	0.4033	0.1225	0.3473	0.319
Mof_C 	C 	0.519	0.0384	0.5877	0.014
Mof_O 	O 	0.8191	0.0721	0.9414	-0.433
Mof_O 	O 	0.7866	0.9154	0.892	-0.469
Mof_O 	O 	0.7926	0.9067	0.094	-0.469
Mof_O 	O 	0.6428	0.8305	0.1753	-0.439
Mof_O 	O 	0.8914	0.055	0.7393	-0.459
Mof_O 	O 	0.8909	0.8888	0.7107	-0.5
Mof_O 	O 	0.1068	0.2385	0.5973	-0.422
Mof_O 	O 	0.1177	0.133	0.7143	-0.542
Mof_O 	O 	0.9001	0.7209	0.8792	-0.509
Mof_O 	O 	0.0102	0.7812	0.9962	-0.471
Mof_O 	O 	0.8875	0.5808	0.2297	-0.413
Mof_O 	O 	0.8674	0.7123	0.1389	-0.538
Mof_O 	O 	0.6809	0.4279	0.4414	-0.444
Mof_O 	O 	0.7134	0.5846	0.392	-0.471
Mof_O 	O 	0.7074	0.5933	0.594	-0.469
Mof_O 	O 	0.8572	0.6695	0.6753	-0.439
Mof_O 	O 	0.6086	0.445	0.2393	-0.474
Mof_O 	O 	0.6091	0.6112	0.2107	-0.502
Mof_O 	O 	0.3932	0.2615	0.0973	-0.421
Mof_O 	O 	0.3823	0.367	0.2143	-0.542
Mof_O 	O 	0.5999	0.7791	0.3792	-0.511
Mof_O 	O 	0.4898	0.7188	0.4962	-0.478
Mof_O 	O 	0.6125	0.9192	0.7297	-0.413
Mof_O 	O 	0.6326	0.7877	0.6389	-0.539
Mof_O 	O 	0.1809	0.9279	0.0586	-0.433
Mof_O 	O 	0.2134	0.0846	0.108	-0.469
Mof_O 	O 	0.2074	0.0933	0.906	-0.469
Mof_O 	O 	0.3572	0.1695	0.8247	-0.439
Mof_O 	O 	0.1086	0.945	0.2607	-0.459
Mof_O 	O 	0.1091	0.1112	0.2893	-0.5
Mof_O 	O 	0.8932	0.7615	0.4027	-0.422
Mof_O 	O 	0.8823	0.867	0.2857	-0.542
Mof_O 	O 	0.0999	0.2791	0.1208	-0.509
Mof_O 	O 	0.9898	0.2188	0.0038	-0.471
Mof_O 	O 	0.1125	0.4192	0.7703	-0.413
Mof_O 	O 	0.1326	0.2877	0.8611	-0.538
Mof_O 	O 	0.3191	0.5721	0.5586	-0.444
Mof_O 	O 	0.2866	0.4154	0.608	-0.471
Mof_O 	O 	0.2926	0.4067	0.406	-0.469
Mof_O 	O 	0.1428	0.3305	0.3247	-0.439
Mof_O 	O 	0.3914	0.555	0.7607	-0.474
Mof_O 	O 	0.3909	0.3888	0.7893	-0.502
Mof_O 	O 	0.6068	0.7385	0.9027	-0.421
Mof_O 	O 	0.6177	0.633	0.7857	-0.542
Mof_O 	O 	0.4001	0.2209	0.6208	-0.511
Mof_O 	O 	0.5102	0.2812	0.5038	-0.478
Mof_O 	O 	0.3875	0.0808	0.2703	-0.413
Mof_O 	O 	0.3674	0.2123	0.3611	-0.539
_end
