# CIF file generated by openbabel 3.1.0, see https://openbabel.org
data_I
_chemical_name_common 'image0'
_cell_length_a 28.667
_cell_length_b 14.9105
_cell_length_c 12.013
_cell_angle_alpha 90
_cell_angle_beta 106.274
_cell_angle_gamma 90
_space_group_name_H-M_alt 'P 1'
_space_group_name_Hall 'P 1'
loop_
    _symmetry_equiv_pos_as_xyz
    x,y,z
loop_
    _atom_site_label
    _atom_site_type_symbol
    _atom_site_fract_x
    _atom_site_fract_y
    _atom_site_fract_z
    _atom_site_occupancy
    Ce1      Ce       0.32237    0.22084    0.56942    1.000
    O1       O        0.39463    0.17790    0.49510    1.000
    O2       O        0.38788    0.32150    0.53320    1.000
    O3       O        0.73305    0.65110    0.46910    1.000
    O4       O        0.79820    0.56880    0.48180    1.000
    O5       O        0.77688    0.31120    0.20810    1.000
    O6       O        0.70267    0.24990    0.13940    1.000
    N1       N        0.59800    0.41520    0.35690    1.000
    C1       C        0.40820    0.25840    0.49510    1.000
    C2       C        0.45160    0.27990    0.45260    1.000
    C3       C        0.47990    0.21090    0.42990    1.000
    H1       H        0.47050    0.15160    0.43430    1.000
    C4       C        0.52220    0.23050    0.40060    1.000
    H2       H        0.54160    0.18410    0.38710    1.000
    C5       C        0.53560    0.31870    0.39130    1.000
    C6       C        0.50580    0.38890    0.40930    1.000
    H3       H        0.51360    0.44830    0.39900    1.000
    C7       C        0.46440    0.36810    0.44290    1.000
    H4       H        0.44530    0.41390    0.45890    1.000
    C8       C        0.58260    0.33670    0.36820    1.000
    C9       C        0.75270    0.57770    0.45050    1.000
    C10      C        0.72180    0.50170    0.39280    1.000
    C11      C        0.67420    0.49470    0.39760    1.000
    H5       H        0.66130    0.53770    0.43670    1.000
    C12      C        0.64540    0.42190    0.34260    1.000
    C13      C        0.66400    0.36240    0.27720    1.000
    H6       H        0.64440    0.31690    0.23590    1.000
    C14      C        0.71180    0.37050    0.27290    1.000
    C15      C        0.74050    0.43930    0.33140    1.000
    H7       H        0.77260    0.44390    0.32960    1.000
    C16      C        0.73200    0.30600    0.20190    1.000
    O7       O        0.37630    0.11680    0.71750    1.000
    H8       H        0.59500    0.28100    0.34900    1.000
    O8       O        0.36910    0.08400    0.69800    1.000
    C17      C        0.38440    0.11600    0.81300    1.000
    H9       H        0.40150    0.06900    0.86260    1.000
    H10      H        0.35660    0.13360    0.83710    1.000
    H11      H        0.40560    0.16640    0.81700    1.000
    Ce2      Ce       0.82237    0.72084    0.56942    1.000
    O9       O        0.89463    0.67790    0.49510    1.000
    O10      O        0.88788    0.82150    0.53320    1.000
    O11      O        0.23305    0.15110    0.46910    1.000
    O12      O        0.29820    0.06880    0.48180    1.000
    O13      O        0.27688    0.81120    0.20810    1.000
    O14      O        0.20267    0.74990    0.13940    1.000
    N2       N        0.09800    0.91520    0.35690    1.000
    C18      C        0.90820    0.75840    0.49510    1.000
    C19      C        0.95160    0.77990    0.45260    1.000
    C20      C        0.97990    0.71090    0.42990    1.000
    H12      H        0.97050    0.65160    0.43430    1.000
    C21      C        0.02220    0.73050    0.40060    1.000
    H13      H        0.04160    0.68410    0.38710    1.000
    C22      C        0.03560    0.81870    0.39130    1.000
    C23      C        0.00580    0.88890    0.40930    1.000
    H14      H        0.01360    0.94830    0.39900    1.000
    C24      C        0.96440    0.86810    0.44290    1.000
    H15      H        0.94530    0.91390    0.45890    1.000
    C25      C        0.08260    0.83670    0.36820    1.000
    C26      C        0.25270    0.07770    0.45050    1.000
    C27      C        0.22180    0.00170    0.39280    1.000
    C28      C        0.17420    0.99470    0.39760    1.000
    H16      H        0.16130    0.03770    0.43670    1.000
    C29      C        0.14540    0.92190    0.34260    1.000
    C30      C        0.16400    0.86240    0.27720    1.000
    H17      H        0.14440    0.81690    0.23590    1.000
    C31      C        0.21180    0.87050    0.27290    1.000
    C32      C        0.24050    0.93930    0.33140    1.000
    H18      H        0.27260    0.94390    0.32960    1.000
    C33      C        0.23200    0.80600    0.20190    1.000
    O15      O        0.87630    0.61680    0.71750    1.000
    H19      H        0.09500    0.78100    0.34900    1.000
    O16      O        0.86910    0.58400    0.69800    1.000
    C34      C        0.88440    0.61600    0.81300    1.000
    H20      H        0.90150    0.56900    0.86260    1.000
    H21      H        0.85660    0.63360    0.83710    1.000
    H22      H        0.90560    0.66640    0.81700    1.000
    Ce3      Ce       0.67763    0.22084    0.93058    1.000
    O17      O        0.60537    0.17790    0.00490    1.000
    O18      O        0.61212    0.32150    0.96680    1.000
    O19      O        0.26695    0.65110    0.03090    1.000
    O20      O        0.20180    0.56880    0.01820    1.000
    O21      O        0.22312    0.31120    0.29190    1.000
    O22      O        0.29733    0.24990    0.36060    1.000
    N3       N        0.40200    0.41520    0.14310    1.000
    C35      C        0.59180    0.25840    0.00490    1.000
    C36      C        0.54840    0.27990    0.04740    1.000
    C37      C        0.52010    0.21090    0.07010    1.000
    H23      H        0.52950    0.15160    0.06570    1.000
    C38      C        0.47780    0.23050    0.09940    1.000
    H24      H        0.45840    0.18410    0.11290    1.000
    C39      C        0.46440    0.31870    0.10870    1.000
    C40      C        0.49420    0.38890    0.09070    1.000
    H25      H        0.48640    0.44830    0.10100    1.000
    C41      C        0.53560    0.36810    0.05710    1.000
    H26      H        0.55470    0.41390    0.04110    1.000
    C42      C        0.41740    0.33670    0.13180    1.000
    C43      C        0.24730    0.57770    0.04950    1.000
    C44      C        0.27820    0.50170    0.10720    1.000
    C45      C        0.32580    0.49470    0.10240    1.000
    H27      H        0.33870    0.53770    0.06330    1.000
    C46      C        0.35460    0.42190    0.15740    1.000
    C47      C        0.33600    0.36240    0.22280    1.000
    H28      H        0.35560    0.31690    0.26410    1.000
    C48      C        0.28820    0.37050    0.22710    1.000
    C49      C        0.25950    0.43930    0.16860    1.000
    H29      H        0.22740    0.44390    0.17040    1.000
    C50      C        0.26800    0.30600    0.29810    1.000
    O23      O        0.62370    0.11680    0.78250    1.000
    H30      H        0.40500    0.28100    0.15100    1.000
    O24      O        0.63090    0.08400    0.80200    1.000
    C51      C        0.61560    0.11600    0.68700    1.000
    H31      H        0.59850    0.06900    0.63740    1.000
    H32      H        0.64340    0.13360    0.66290    1.000
    H33      H        0.59440    0.16640    0.68300    1.000
    Ce4      Ce       0.17763    0.72084    0.93058    1.000
    O25      O        0.10537    0.67790    0.00490    1.000
    O26      O        0.11212    0.82150    0.96680    1.000
    O27      O        0.76695    0.15110    0.03090    1.000
    O28      O        0.70180    0.06880    0.01820    1.000
    O29      O        0.72312    0.81120    0.29190    1.000
    O30      O        0.79733    0.74990    0.36060    1.000
    N4       N        0.90200    0.91520    0.14310    1.000
    C52      C        0.09180    0.75840    0.00490    1.000
    C53      C        0.04840    0.77990    0.04740    1.000
    C54      C        0.02010    0.71090    0.07010    1.000
    H34      H        0.02950    0.65160    0.06570    1.000
    C55      C        0.97780    0.73050    0.09940    1.000
    H35      H        0.95840    0.68410    0.11290    1.000
    C56      C        0.96440    0.81870    0.10870    1.000
    C57      C        0.99420    0.88890    0.09070    1.000
    H36      H        0.98640    0.94830    0.10100    1.000
    C58      C        0.03560    0.86810    0.05710    1.000
    H37      H        0.05470    0.91390    0.04110    1.000
    C59      C        0.91740    0.83670    0.13180    1.000
    C60      C        0.74730    0.07770    0.04950    1.000
    C61      C        0.77820    0.00170    0.10720    1.000
    C62      C        0.82580    0.99470    0.10240    1.000
    H38      H        0.83870    0.03770    0.06330    1.000
    C63      C        0.85460    0.92190    0.15740    1.000
    C64      C        0.83600    0.86240    0.22280    1.000
    H39      H        0.85560    0.81690    0.26410    1.000
    C65      C        0.78820    0.87050    0.22710    1.000
    C66      C        0.75950    0.93930    0.16860    1.000
    H40      H        0.72740    0.94390    0.17040    1.000
    C67      C        0.76800    0.80600    0.29810    1.000
    O31      O        0.12370    0.61680    0.78250    1.000
    H41      H        0.90500    0.78100    0.15100    1.000
    O32      O        0.13090    0.58400    0.80200    1.000
    C68      C        0.11560    0.61600    0.68700    1.000
    H42      H        0.09850    0.56900    0.63740    1.000
    H43      H        0.14340    0.63360    0.66290    1.000
    H44      H        0.09440    0.66640    0.68300    1.000
    Ce5      Ce       0.67763    0.77916    0.43058    1.000
    O33      O        0.60537    0.82210    0.50490    1.000
    O34      O        0.61212    0.67850    0.46680    1.000
    O35      O        0.26695    0.34890    0.53090    1.000
    O36      O        0.20180    0.43120    0.51820    1.000
    O37      O        0.22312    0.68880    0.79190    1.000
    O38      O        0.29733    0.75010    0.86060    1.000
    N5       N        0.40200    0.58480    0.64310    1.000
    C69      C        0.59180    0.74160    0.50490    1.000
    C70      C        0.54840    0.72010    0.54740    1.000
    C71      C        0.52010    0.78910    0.57010    1.000
    H45      H        0.52950    0.84840    0.56570    1.000
    C72      C        0.47780    0.76950    0.59940    1.000
    H46      H        0.45840    0.81590    0.61290    1.000
    C73      C        0.46440    0.68130    0.60870    1.000
    C74      C        0.49420    0.61110    0.59070    1.000
    H47      H        0.48640    0.55170    0.60100    1.000
    C75      C        0.53560    0.63190    0.55710    1.000
    H48      H        0.55470    0.58610    0.54110    1.000
    C76      C        0.41740    0.66330    0.63180    1.000
    C77      C        0.24730    0.42230    0.54950    1.000
    C78      C        0.27820    0.49830    0.60720    1.000
    C79      C        0.32580    0.50530    0.60240    1.000
    H49      H        0.33870    0.46230    0.56330    1.000
    C80      C        0.35460    0.57810    0.65740    1.000
    C81      C        0.33600    0.63760    0.72280    1.000
    H50      H        0.35560    0.68310    0.76410    1.000
    C82      C        0.28820    0.62950    0.72710    1.000
    C83      C        0.25950    0.56070    0.66860    1.000
    H51      H        0.22740    0.55610    0.67040    1.000
    C84      C        0.26800    0.69400    0.79810    1.000
    O39      O        0.62370    0.88320    0.28250    1.000
    H52      H        0.40500    0.71900    0.65100    1.000
    O40      O        0.63090    0.91600    0.30200    1.000
    C85      C        0.61560    0.88400    0.18700    1.000
    H53      H        0.59850    0.93100    0.13740    1.000
    H54      H        0.64340    0.86640    0.16290    1.000
    H55      H        0.59440    0.83360    0.18300    1.000
    Ce6      Ce       0.17763    0.27916    0.43058    1.000
    O41      O        0.10537    0.32210    0.50490    1.000
    O42      O        0.11212    0.17850    0.46680    1.000
    O43      O        0.76695    0.84890    0.53090    1.000
    O44      O        0.70180    0.93120    0.51820    1.000
    O45      O        0.72312    0.18880    0.79190    1.000
    O46      O        0.79733    0.25010    0.86060    1.000
    N6       N        0.90200    0.08480    0.64310    1.000
    C86      C        0.09180    0.24160    0.50490    1.000
    C87      C        0.04840    0.22010    0.54740    1.000
    C88      C        0.02010    0.28910    0.57010    1.000
    H56      H        0.02950    0.34840    0.56570    1.000
    C89      C        0.97780    0.26950    0.59940    1.000
    H57      H        0.95840    0.31590    0.61290    1.000
    C90      C        0.96440    0.18130    0.60870    1.000
    C91      C        0.99420    0.11110    0.59070    1.000
    H58      H        0.98640    0.05170    0.60100    1.000
    C92      C        0.03560    0.13190    0.55710    1.000
    H59      H        0.05470    0.08610    0.54110    1.000
    C93      C        0.91740    0.16330    0.63180    1.000
    C94      C        0.74730    0.92230    0.54950    1.000
    C95      C        0.77820    0.99830    0.60720    1.000
    C96      C        0.82580    0.00530    0.60240    1.000
    H60      H        0.83870    0.96230    0.56330    1.000
    C97      C        0.85460    0.07810    0.65740    1.000
    C98      C        0.83600    0.13760    0.72280    1.000
    H61      H        0.85560    0.18310    0.76410    1.000
    C99      C        0.78820    0.12950    0.72710    1.000
    C100     C        0.75950    0.06070    0.66860    1.000
    H62      H        0.72740    0.05610    0.67040    1.000
    C101     C        0.76800    0.19400    0.79810    1.000
    O47      O        0.12370    0.38320    0.28250    1.000
    H63      H        0.90500    0.21900    0.65100    1.000
    O48      O        0.13090    0.41600    0.30200    1.000
    C102     C        0.11560    0.38400    0.18700    1.000
    H64      H        0.09850    0.43100    0.13740    1.000
    H65      H        0.14340    0.36640    0.16290    1.000
    H66      H        0.09440    0.33360    0.18300    1.000
    Ce7      Ce       0.32237    0.77916    0.06942    1.000
    O49      O        0.39463    0.82210    0.99510    1.000
    O50      O        0.38788    0.67850    0.03320    1.000
    O51      O        0.73305    0.34890    0.96910    1.000
    O52      O        0.79820    0.43120    0.98180    1.000
    O53      O        0.77688    0.68880    0.70810    1.000
    O54      O        0.70267    0.75010    0.63940    1.000
    N7       N        0.59800    0.58480    0.85690    1.000
    C103     C        0.40820    0.74160    0.99510    1.000
    C104     C        0.45160    0.72010    0.95260    1.000
    C105     C        0.47990    0.78910    0.92990    1.000
    H67      H        0.47050    0.84840    0.93430    1.000
    C106     C        0.52220    0.76950    0.90060    1.000
    H68      H        0.54160    0.81590    0.88710    1.000
    C107     C        0.53560    0.68130    0.89130    1.000
    C108     C        0.50580    0.61110    0.90930    1.000
    H69      H        0.51360    0.55170    0.89900    1.000
    C109     C        0.46440    0.63190    0.94290    1.000
    H70      H        0.44530    0.58610    0.95890    1.000
    C110     C        0.58260    0.66330    0.86820    1.000
    C111     C        0.75270    0.42230    0.95050    1.000
    C112     C        0.72180    0.49830    0.89280    1.000
    C113     C        0.67420    0.50530    0.89760    1.000
    H71      H        0.66130    0.46230    0.93670    1.000
    C114     C        0.64540    0.57810    0.84260    1.000
    C115     C        0.66400    0.63760    0.77720    1.000
    H72      H        0.64440    0.68310    0.73590    1.000
    C116     C        0.71180    0.62950    0.77290    1.000
    C117     C        0.74050    0.56070    0.83140    1.000
    H73      H        0.77260    0.55610    0.82960    1.000
    C118     C        0.73200    0.69400    0.70190    1.000
    O55      O        0.37630    0.88320    0.21750    1.000
    H74      H        0.59500    0.71900    0.84900    1.000
    O56      O        0.36910    0.91600    0.19800    1.000
    C119     C        0.38440    0.88400    0.31300    1.000
    H75      H        0.40150    0.93100    0.36260    1.000
    H76      H        0.35660    0.86640    0.33710    1.000
    H77      H        0.40560    0.83360    0.31700    1.000
    Ce8      Ce       0.82237    0.27916    0.06942    1.000
    O57      O        0.89463    0.32210    0.99510    1.000
    O58      O        0.88788    0.17850    0.03320    1.000
    O59      O        0.23305    0.84890    0.96910    1.000
    O60      O        0.29820    0.93120    0.98180    1.000
    O61      O        0.27688    0.18880    0.70810    1.000
    O62      O        0.20267    0.25010    0.63940    1.000
    N8       N        0.09800    0.08480    0.85690    1.000
    C120     C        0.90820    0.24160    0.99510    1.000
    C121     C        0.95160    0.22010    0.95260    1.000
    C122     C        0.97990    0.28910    0.92990    1.000
    H78      H        0.97050    0.34840    0.93430    1.000
    C123     C        0.02220    0.26950    0.90060    1.000
    H79      H        0.04160    0.31590    0.88710    1.000
    C124     C        0.03560    0.18130    0.89130    1.000
    C125     C        0.00580    0.11110    0.90930    1.000
    H80      H        0.01360    0.05170    0.89900    1.000
    C126     C        0.96440    0.13190    0.94290    1.000
    H81      H        0.94530    0.08610    0.95890    1.000
    C127     C        0.08260    0.16330    0.86820    1.000
    C128     C        0.25270    0.92230    0.95050    1.000
    C129     C        0.22180    0.99830    0.89280    1.000
    C130     C        0.17420    0.00530    0.89760    1.000
    H82      H        0.16130    0.96230    0.93670    1.000
    C131     C        0.14540    0.07810    0.84260    1.000
    C132     C        0.16400    0.13760    0.77720    1.000
    H83      H        0.14440    0.18310    0.73590    1.000
    C133     C        0.21180    0.12950    0.77290    1.000
    C134     C        0.24050    0.06070    0.83140    1.000
    H84      H        0.27260    0.05610    0.82960    1.000
    C135     C        0.23200    0.19400    0.70190    1.000
    O63      O        0.87630    0.38320    0.21750    1.000
    H85      H        0.09500    0.21900    0.84900    1.000
    O64      O        0.86910    0.41600    0.19800    1.000
    C136     C        0.88440    0.38400    0.31300    1.000
    H86      H        0.90150    0.43100    0.36260    1.000
    H87      H        0.85660    0.36640    0.33710    1.000
    H88      H        0.90560    0.33360    0.31700    1.000
