# CIF file generated by openbabel 3.1.0, see https://openbabel.org
data_I
_chemical_name_common 'GOJDOZ_clean'
_cell_length_a 6.6059
_cell_length_b 9.8638
_cell_length_c 13.187
_cell_angle_alpha 79.317
_cell_angle_beta 86.349
_cell_angle_gamma 83.794
_space_group_name_H-M_alt 'P 1'
_space_group_name_Hall 'P 1'
loop_
    _symmetry_equiv_pos_as_xyz
    x,y,z
loop_
    _atom_site_label
    _atom_site_type_symbol
    _atom_site_fract_x
    _atom_site_fract_y
    _atom_site_fract_z
    _atom_site_occupancy
    U1       U        0.61684    0.38640    0.19348    1.000
    U2       U        0.94876    0.83166    0.25478    1.000
    U3       U        0.38316    0.61360    0.80652    1.000
    U4       U        0.05124    0.16834    0.74522    1.000
    H1       H        0.33980    0.39800    0.44820    1.000
    H2       H        0.68060    0.35950    0.46890    1.000
    H3       H        0.77300    0.96450    0.97620    1.000
    H4       H        0.54360    0.81830    0.05160    1.000
    H5       H        0.66020    0.60200    0.55180    1.000
    H6       H        0.31940    0.64050    0.53110    1.000
    H7       H        0.22700    0.03550    0.02380    1.000
    H8       H        0.45640    0.18170    0.94840    1.000
    C1       C        0.32840    0.58280    0.34420    1.000
    C2       C        0.39920    0.48630    0.44130    1.000
    C3       C        0.63390    0.45870    0.45750    1.000
    C4       C        0.75870    0.54110    0.37210    1.000
    C5       C        0.74040    0.10010    0.07960    1.000
    C6       C        0.66120    0.01360    0.01160    1.000
    C7       C        0.50220    0.91180    0.06540    1.000
    C8       C        0.44780    0.90520    0.17770    1.000
    C9       C        0.67160    0.41720    0.65580    1.000
    C10      C        0.60080    0.51370    0.55870    1.000
    C11      C        0.36610    0.54130    0.54250    1.000
    C12      C        0.24130    0.45890    0.62790    1.000
    C13      C        0.25960    0.89990    0.92040    1.000
    C14      C        0.33880    0.98640    0.98840    1.000
    C15      C        0.49780    0.08820    0.93460    1.000
    C16      C        0.55220    0.09480    0.82230    1.000
    O1       O        0.40680    0.56270    0.25750    1.000
    O2       O        0.19420    0.67910    0.35500    1.000
    O3       O        0.81750    0.48570    0.29540    1.000
    O4       O        0.78520    0.66180    0.37890    1.000
    O5       O        0.65530    0.21810    0.08400    1.000
    O6       O        0.89410    0.04630    0.13210    1.000
    O7       O        0.58770    0.88750    0.24140    1.000
    O8       O        0.26360    0.92270    0.20850    1.000
    O9       O        0.59320    0.43730    0.74250    1.000
    O10      O        0.80580    0.32090    0.64500    1.000
    O11      O        0.18250    0.51430    0.70460    1.000
    O12      O        0.21480    0.33820    0.62110    1.000
    O13      O        0.34470    0.78190    0.91600    1.000
    O14      O        0.10590    0.95370    0.86790    1.000
    O15      O        0.41230    0.11250    0.75860    1.000
    O16      O        0.73640    0.07730    0.79150    1.000
