# CIF file generated by openbabel 3.1.0, see https://openbabel.org
data_I
_chemical_name_common 'image0'
_cell_length_a 26.255
_cell_length_b 26.255
_cell_length_c 26.255
_cell_angle_alpha 90
_cell_angle_beta 90
_cell_angle_gamma 90
_space_group_name_H-M_alt 'P 1'
_space_group_name_Hall 'P 1'
loop_
    _symmetry_equiv_pos_as_xyz
    x,y,z
loop_
    _atom_site_label
    _atom_site_type_symbol
    _atom_site_fract_x
    _atom_site_fract_y
    _atom_site_fract_z
    _atom_site_occupancy
    Zr1      Zr       0.51192    0.51385    0.09265    1.000
    O1       O        0.55110    0.56770    0.03760    1.000
    O2       O        0.58880    0.52930    0.12109    1.000
    O3       O        0.64260    0.52820    0.05353    1.000
    O4       O        0.87680    0.49460    0.40761    1.000
    O5       O        0.94481    0.51060    0.35570    1.000
    C1       C        0.75540    0.53660    0.20450    1.000
    C2       C        0.76430    0.54830    0.15550    1.000
    H1       H        0.79700    0.55760    0.14550    1.000
    C3       C        0.72550    0.54660    0.11930    1.000
    H2       H        0.73240    0.55130    0.08480    1.000
    C4       C        0.67640    0.53780    0.13640    1.000
    C5       C        0.66810    0.53160    0.18870    1.000
    H3       H        0.63480    0.52950    0.20070    1.000
    C6       C        0.79430    0.53240    0.24530    1.000
    C7       C        0.84570    0.53820    0.23520    1.000
    H4       H        0.85680    0.54680    0.20270    1.000
    C8       C        0.88000    0.53100    0.27380    1.000
    H5       H        0.91460    0.53620    0.26840    1.000
    C9       C        0.86210    0.51570    0.32160    1.000
    C10      C        0.81000    0.50990    0.32900    1.000
    H6       H        0.79720    0.49980    0.36050    1.000
    C11      C        0.63320    0.53120    0.10020    1.000
    C12      C        0.89780    0.50630    0.36520    1.000
    N1       N        0.70710    0.52850    0.22220    1.000
    N2       N        0.77860    0.51910    0.29030    1.000
    Fe1      Fe       0.69656    0.51619    0.30068    1.000
    Br1      Br       0.66010    0.43420    0.30270    1.000
    Br2      Br       0.68430    0.59360    0.34610    1.000
    O6       O        0.53840    0.55010    0.02810    1.000
    Br3      Br       0.60610    0.49080    0.29840    1.000
    Br4      Br       0.69370    0.53440    0.39410    1.000
    Zr2      Zr       0.98808    0.48615    0.59265    1.000
    O7       O        0.94890    0.43230    0.53760    1.000
    O8       O        0.91120    0.47070    0.62109    1.000
    O9       O        0.85740    0.47180    0.55353    1.000
    O10      O        0.62320    0.50540    0.90761    1.000
    O11      O        0.55519    0.48940    0.85570    1.000
    C13      C        0.74460    0.46340    0.70450    1.000
    C14      C        0.73570    0.45170    0.65550    1.000
    H7       H        0.70300    0.44240    0.64550    1.000
    C15      C        0.77450    0.45340    0.61930    1.000
    H8       H        0.76760    0.44870    0.58480    1.000
    C16      C        0.82360    0.46220    0.63640    1.000
    C17      C        0.83190    0.46840    0.68870    1.000
    H9       H        0.86520    0.47050    0.70070    1.000
    C18      C        0.70570    0.46760    0.74530    1.000
    C19      C        0.65430    0.46180    0.73520    1.000
    H10      H        0.64320    0.45320    0.70270    1.000
    C20      C        0.62000    0.46900    0.77380    1.000
    H11      H        0.58540    0.46380    0.76840    1.000
    C21      C        0.63790    0.48430    0.82160    1.000
    C22      C        0.69000    0.49010    0.82900    1.000
    H12      H        0.70280    0.50020    0.86050    1.000
    C23      C        0.86680    0.46880    0.60020    1.000
    C24      C        0.60220    0.49370    0.86520    1.000
    N3       N        0.79290    0.47150    0.72220    1.000
    N4       N        0.72140    0.48090    0.79030    1.000
    Fe2      Fe       0.80344    0.48381    0.80068    1.000
    Br5      Br       0.83990    0.56580    0.80270    1.000
    Br6      Br       0.81570    0.40640    0.84610    1.000
    O12      O        0.96160    0.44990    0.52810    1.000
    Br7      Br       0.89390    0.50920    0.79840    1.000
    Br8      Br       0.80630    0.46560    0.89410    1.000
    Zr3      Zr       0.48808    0.01385    0.40735    1.000
    O13      O        0.44890    0.06770    0.46240    1.000
    O14      O        0.41120    0.02930    0.37891    1.000
    O15      O        0.35740    0.02820    0.44647    1.000
    O16      O        0.12320    0.99460    0.09239    1.000
    O17      O        0.05519    0.01060    0.14430    1.000
    C25      C        0.24460    0.03660    0.29550    1.000
    C26      C        0.23570    0.04830    0.34450    1.000
    H13      H        0.20300    0.05760    0.35450    1.000
    C27      C        0.27450    0.04660    0.38070    1.000
    H14      H        0.26760    0.05130    0.41520    1.000
    C28      C        0.32360    0.03780    0.36360    1.000
    C29      C        0.33190    0.03160    0.31130    1.000
    H15      H        0.36520    0.02950    0.29930    1.000
    C30      C        0.20570    0.03240    0.25470    1.000
    C31      C        0.15430    0.03820    0.26480    1.000
    H16      H        0.14320    0.04680    0.29730    1.000
    C32      C        0.12000    0.03100    0.22620    1.000
    H17      H        0.08540    0.03620    0.23160    1.000
    C33      C        0.13790    0.01570    0.17840    1.000
    C34      C        0.19000    0.00990    0.17100    1.000
    H18      H        0.20280    0.99980    0.13950    1.000
    C35      C        0.36680    0.03120    0.39980    1.000
    C36      C        0.10220    0.00630    0.13480    1.000
    N5       N        0.29290    0.02850    0.27780    1.000
    N6       N        0.22140    0.01910    0.20970    1.000
    Fe3      Fe       0.30344    0.01619    0.19932    1.000
    Br9      Br       0.33990    0.93420    0.19730    1.000
    Br10     Br       0.31570    0.09360    0.15390    1.000
    O18      O        0.46160    0.05010    0.47190    1.000
    Br11     Br       0.39390    0.99080    0.20160    1.000
    Br12     Br       0.30630    0.03440    0.10590    1.000
    Zr4      Zr       0.01192    0.98615    0.90735    1.000
    O19      O        0.05110    0.93230    0.96240    1.000
    O20      O        0.08880    0.97070    0.87891    1.000
    O21      O        0.14260    0.97180    0.94647    1.000
    O22      O        0.37680    0.00540    0.59239    1.000
    O23      O        0.44481    0.98940    0.64430    1.000
    C37      C        0.25540    0.96340    0.79550    1.000
    C38      C        0.26430    0.95170    0.84450    1.000
    H19      H        0.29700    0.94240    0.85450    1.000
    C39      C        0.22550    0.95340    0.88070    1.000
    H20      H        0.23240    0.94870    0.91520    1.000
    C40      C        0.17640    0.96220    0.86360    1.000
    C41      C        0.16810    0.96840    0.81130    1.000
    H21      H        0.13480    0.97050    0.79930    1.000
    C42      C        0.29430    0.96760    0.75470    1.000
    C43      C        0.34570    0.96180    0.76480    1.000
    H22      H        0.35680    0.95320    0.79730    1.000
    C44      C        0.38000    0.96900    0.72620    1.000
    H23      H        0.41460    0.96380    0.73160    1.000
    C45      C        0.36210    0.98430    0.67840    1.000
    C46      C        0.31000    0.99010    0.67100    1.000
    H24      H        0.29720    0.00020    0.63950    1.000
    C47      C        0.13320    0.96880    0.89980    1.000
    C48      C        0.39780    0.99370    0.63480    1.000
    N7       N        0.20710    0.97150    0.77780    1.000
    N8       N        0.27860    0.98090    0.70970    1.000
    Fe4      Fe       0.19656    0.98381    0.69932    1.000
    Br13     Br       0.16010    0.06580    0.69730    1.000
    Br14     Br       0.18430    0.90640    0.65390    1.000
    O24      O        0.03840    0.94990    0.97190    1.000
    Br15     Br       0.10610    0.00920    0.70160    1.000
    Br16     Br       0.19370    0.96560    0.60590    1.000
    Zr5      Zr       0.09265    0.51192    0.51385    1.000
    O25      O        0.03760    0.55110    0.56770    1.000
    O26      O        0.12109    0.58880    0.52930    1.000
    O27      O        0.05353    0.64260    0.52820    1.000
    O28      O        0.40761    0.87680    0.49460    1.000
    O29      O        0.35570    0.94481    0.51060    1.000
    C49      C        0.20450    0.75540    0.53660    1.000
    C50      C        0.15550    0.76430    0.54830    1.000
    H25      H        0.14550    0.79700    0.55760    1.000
    C51      C        0.11930    0.72550    0.54660    1.000
    H26      H        0.08480    0.73240    0.55130    1.000
    C52      C        0.13640    0.67640    0.53780    1.000
    C53      C        0.18870    0.66810    0.53160    1.000
    H27      H        0.20070    0.63480    0.52950    1.000
    C54      C        0.24530    0.79430    0.53240    1.000
    C55      C        0.23520    0.84570    0.53820    1.000
    H28      H        0.20270    0.85680    0.54680    1.000
    C56      C        0.27380    0.88000    0.53100    1.000
    H29      H        0.26840    0.91460    0.53620    1.000
    C57      C        0.32160    0.86210    0.51570    1.000
    C58      C        0.32900    0.81000    0.50990    1.000
    H30      H        0.36050    0.79720    0.49980    1.000
    C59      C        0.10020    0.63320    0.53120    1.000
    C60      C        0.36520    0.89780    0.50630    1.000
    N9       N        0.22220    0.70710    0.52850    1.000
    N10      N        0.29030    0.77860    0.51910    1.000
    Fe5      Fe       0.30068    0.69656    0.51619    1.000
    Br17     Br       0.30270    0.66010    0.43420    1.000
    Br18     Br       0.34610    0.68430    0.59360    1.000
    O30      O        0.02810    0.53840    0.55010    1.000
    Br19     Br       0.29840    0.60610    0.49080    1.000
    Br20     Br       0.39410    0.69370    0.53440    1.000
    Zr6      Zr       0.59265    0.98808    0.48615    1.000
    O31      O        0.53760    0.94890    0.43230    1.000
    O32      O        0.62109    0.91120    0.47070    1.000
    O33      O        0.55353    0.85740    0.47180    1.000
    O34      O        0.90761    0.62320    0.50540    1.000
    O35      O        0.85570    0.55519    0.48940    1.000
    C61      C        0.70450    0.74460    0.46340    1.000
    C62      C        0.65550    0.73570    0.45170    1.000
    H31      H        0.64550    0.70300    0.44240    1.000
    C63      C        0.61930    0.77450    0.45340    1.000
    H32      H        0.58480    0.76760    0.44870    1.000
    C64      C        0.63640    0.82360    0.46220    1.000
    C65      C        0.68870    0.83190    0.46840    1.000
    H33      H        0.70070    0.86520    0.47050    1.000
    C66      C        0.74530    0.70570    0.46760    1.000
    C67      C        0.73520    0.65430    0.46180    1.000
    H34      H        0.70270    0.64320    0.45320    1.000
    C68      C        0.77380    0.62000    0.46900    1.000
    H35      H        0.76840    0.58540    0.46380    1.000
    C69      C        0.82160    0.63790    0.48430    1.000
    C70      C        0.82900    0.69000    0.49010    1.000
    H36      H        0.86050    0.70280    0.50020    1.000
    C71      C        0.60020    0.86680    0.46880    1.000
    C72      C        0.86520    0.60220    0.49370    1.000
    N11      N        0.72220    0.79290    0.47150    1.000
    N12      N        0.79030    0.72140    0.48090    1.000
    Fe6      Fe       0.80068    0.80344    0.48381    1.000
    Br21     Br       0.80270    0.83990    0.56580    1.000
    Br22     Br       0.84610    0.81570    0.40640    1.000
    O36      O        0.52810    0.96160    0.44990    1.000
    Br23     Br       0.79840    0.89390    0.50920    1.000
    Br24     Br       0.89410    0.80630    0.46560    1.000
    Zr7      Zr       0.40735    0.48808    0.01385    1.000
    O37      O        0.46240    0.44890    0.06770    1.000
    O38      O        0.37891    0.41120    0.02930    1.000
    O39      O        0.44647    0.35740    0.02820    1.000
    O40      O        0.09239    0.12320    0.99460    1.000
    O41      O        0.14430    0.05519    0.01060    1.000
    C73      C        0.29550    0.24460    0.03660    1.000
    C74      C        0.34450    0.23570    0.04830    1.000
    H37      H        0.35450    0.20300    0.05760    1.000
    C75      C        0.38070    0.27450    0.04660    1.000
    H38      H        0.41520    0.26760    0.05130    1.000
    C76      C        0.36360    0.32360    0.03780    1.000
    C77      C        0.31130    0.33190    0.03160    1.000
    H39      H        0.29930    0.36520    0.02950    1.000
    C78      C        0.25470    0.20570    0.03240    1.000
    C79      C        0.26480    0.15430    0.03820    1.000
    H40      H        0.29730    0.14320    0.04680    1.000
    C80      C        0.22620    0.12000    0.03100    1.000
    H41      H        0.23160    0.08540    0.03620    1.000
    C81      C        0.17840    0.13790    0.01570    1.000
    C82      C        0.17100    0.19000    0.00990    1.000
    H42      H        0.13950    0.20280    0.99980    1.000
    C83      C        0.39980    0.36680    0.03120    1.000
    C84      C        0.13480    0.10220    0.00630    1.000
    N13      N        0.27780    0.29290    0.02850    1.000
    N14      N        0.20970    0.22140    0.01910    1.000
    Fe7      Fe       0.19932    0.30344    0.01619    1.000
    Br25     Br       0.19730    0.33990    0.93420    1.000
    Br26     Br       0.15390    0.31570    0.09360    1.000
    O42      O        0.47190    0.46160    0.05010    1.000
    Br27     Br       0.20160    0.39390    0.99080    1.000
    Br28     Br       0.10590    0.30630    0.03440    1.000
    Zr8      Zr       0.90735    0.01192    0.98615    1.000
    O43      O        0.96240    0.05110    0.93230    1.000
    O44      O        0.87891    0.08880    0.97070    1.000
    O45      O        0.94647    0.14260    0.97180    1.000
    O46      O        0.59239    0.37680    0.00540    1.000
    O47      O        0.64430    0.44481    0.98940    1.000
    C85      C        0.79550    0.25540    0.96340    1.000
    C86      C        0.84450    0.26430    0.95170    1.000
    H43      H        0.85450    0.29700    0.94240    1.000
    C87      C        0.88070    0.22550    0.95340    1.000
    H44      H        0.91520    0.23240    0.94870    1.000
    C88      C        0.86360    0.17640    0.96220    1.000
    C89      C        0.81130    0.16810    0.96840    1.000
    H45      H        0.79930    0.13480    0.97050    1.000
    C90      C        0.75470    0.29430    0.96760    1.000
    C91      C        0.76480    0.34570    0.96180    1.000
    H46      H        0.79730    0.35680    0.95320    1.000
    C92      C        0.72620    0.38000    0.96900    1.000
    H47      H        0.73160    0.41460    0.96380    1.000
    C93      C        0.67840    0.36210    0.98430    1.000
    C94      C        0.67100    0.31000    0.99010    1.000
    H48      H        0.63950    0.29720    0.00020    1.000
    C95      C        0.89980    0.13320    0.96880    1.000
    C96      C        0.63480    0.39780    0.99370    1.000
    N15      N        0.77780    0.20710    0.97150    1.000
    N16      N        0.70970    0.27860    0.98090    1.000
    Fe8      Fe       0.69932    0.19656    0.98381    1.000
    Br29     Br       0.69730    0.16010    0.06580    1.000
    Br30     Br       0.65390    0.18430    0.90640    1.000
    O48      O        0.97190    0.03840    0.94990    1.000
    Br31     Br       0.70160    0.10610    0.00920    1.000
    Br32     Br       0.60590    0.19370    0.96560    1.000
    Zr9      Zr       0.51385    0.09265    0.51192    1.000
    O49      O        0.56770    0.03760    0.55110    1.000
    O50      O        0.52930    0.12109    0.58880    1.000
    O51      O        0.52820    0.05353    0.64260    1.000
    O52      O        0.49460    0.40761    0.87680    1.000
    O53      O        0.51060    0.35570    0.94481    1.000
    C97      C        0.53660    0.20450    0.75540    1.000
    C98      C        0.54830    0.15550    0.76430    1.000
    H49      H        0.55760    0.14550    0.79700    1.000
    C99      C        0.54660    0.11930    0.72550    1.000
    H50      H        0.55130    0.08480    0.73240    1.000
    C100     C        0.53780    0.13640    0.67640    1.000
    C101     C        0.53160    0.18870    0.66810    1.000
    H51      H        0.52950    0.20070    0.63480    1.000
    C102     C        0.53240    0.24530    0.79430    1.000
    C103     C        0.53820    0.23520    0.84570    1.000
    H52      H        0.54680    0.20270    0.85680    1.000
    C104     C        0.53100    0.27380    0.88000    1.000
    H53      H        0.53620    0.26840    0.91460    1.000
    C105     C        0.51570    0.32160    0.86210    1.000
    C106     C        0.50990    0.32900    0.81000    1.000
    H54      H        0.49980    0.36050    0.79720    1.000
    C107     C        0.53120    0.10020    0.63320    1.000
    C108     C        0.50630    0.36520    0.89780    1.000
    N17      N        0.52850    0.22220    0.70710    1.000
    N18      N        0.51910    0.29030    0.77860    1.000
    Fe9      Fe       0.51619    0.30068    0.69656    1.000
    Br33     Br       0.43420    0.30270    0.66010    1.000
    Br34     Br       0.59360    0.34610    0.68430    1.000
    O54      O        0.55010    0.02810    0.53840    1.000
    Br35     Br       0.49080    0.29840    0.60610    1.000
    Br36     Br       0.53440    0.39410    0.69370    1.000
    Zr10     Zr       0.48615    0.59265    0.98808    1.000
    O55      O        0.43230    0.53760    0.94890    1.000
    O56      O        0.47070    0.62109    0.91120    1.000
    O57      O        0.47180    0.55353    0.85740    1.000
    O58      O        0.50540    0.90761    0.62320    1.000
    O59      O        0.48940    0.85570    0.55519    1.000
    C109     C        0.46340    0.70450    0.74460    1.000
    C110     C        0.45170    0.65550    0.73570    1.000
    H55      H        0.44240    0.64550    0.70300    1.000
    C111     C        0.45340    0.61930    0.77450    1.000
    H56      H        0.44870    0.58480    0.76760    1.000
    C112     C        0.46220    0.63640    0.82360    1.000
    C113     C        0.46840    0.68870    0.83190    1.000
    H57      H        0.47050    0.70070    0.86520    1.000
    C114     C        0.46760    0.74530    0.70570    1.000
    C115     C        0.46180    0.73520    0.65430    1.000
    H58      H        0.45320    0.70270    0.64320    1.000
    C116     C        0.46900    0.77380    0.62000    1.000
    H59      H        0.46380    0.76840    0.58540    1.000
    C117     C        0.48430    0.82160    0.63790    1.000
    C118     C        0.49010    0.82900    0.69000    1.000
    H60      H        0.50020    0.86050    0.70280    1.000
    C119     C        0.46880    0.60020    0.86680    1.000
    C120     C        0.49370    0.86520    0.60220    1.000
    N19      N        0.47150    0.72220    0.79290    1.000
    N20      N        0.48090    0.79030    0.72140    1.000
    Fe10     Fe       0.48381    0.80068    0.80344    1.000
    Br37     Br       0.56580    0.80270    0.83990    1.000
    Br38     Br       0.40640    0.84610    0.81570    1.000
    O60      O        0.44990    0.52810    0.96160    1.000
    Br39     Br       0.50920    0.79840    0.89390    1.000
    Br40     Br       0.46560    0.89410    0.80630    1.000
    Zr11     Zr       0.01385    0.40735    0.48808    1.000
    O61      O        0.06770    0.46240    0.44890    1.000
    O62      O        0.02930    0.37891    0.41120    1.000
    O63      O        0.02820    0.44647    0.35740    1.000
    O64      O        0.99460    0.09239    0.12320    1.000
    O65      O        0.01060    0.14430    0.05519    1.000
    C121     C        0.03660    0.29550    0.24460    1.000
    C122     C        0.04830    0.34450    0.23570    1.000
    H61      H        0.05760    0.35450    0.20300    1.000
    C123     C        0.04660    0.38070    0.27450    1.000
    H62      H        0.05130    0.41520    0.26760    1.000
    C124     C        0.03780    0.36360    0.32360    1.000
    C125     C        0.03160    0.31130    0.33190    1.000
    H63      H        0.02950    0.29930    0.36520    1.000
    C126     C        0.03240    0.25470    0.20570    1.000
    C127     C        0.03820    0.26480    0.15430    1.000
    H64      H        0.04680    0.29730    0.14320    1.000
    C128     C        0.03100    0.22620    0.12000    1.000
    H65      H        0.03620    0.23160    0.08540    1.000
    C129     C        0.01570    0.17840    0.13790    1.000
    C130     C        0.00990    0.17100    0.19000    1.000
    H66      H        0.99980    0.13950    0.20280    1.000
    C131     C        0.03120    0.39980    0.36680    1.000
    C132     C        0.00630    0.13480    0.10220    1.000
    N21      N        0.02850    0.27780    0.29290    1.000
    N22      N        0.01910    0.20970    0.22140    1.000
    Fe11     Fe       0.01619    0.19932    0.30344    1.000
    Br41     Br       0.93420    0.19730    0.33990    1.000
    Br42     Br       0.09360    0.15390    0.31570    1.000
    O66      O        0.05010    0.47190    0.46160    1.000
    Br43     Br       0.99080    0.20160    0.39390    1.000
    Br44     Br       0.03440    0.10590    0.30630    1.000
    Zr12     Zr       0.98615    0.90735    0.01192    1.000
    O67      O        0.93230    0.96240    0.05110    1.000
    O68      O        0.97070    0.87891    0.08880    1.000
    O69      O        0.97180    0.94647    0.14260    1.000
    O70      O        0.00540    0.59239    0.37680    1.000
    O71      O        0.98940    0.64430    0.44481    1.000
    C133     C        0.96340    0.79550    0.25540    1.000
    C134     C        0.95170    0.84450    0.26430    1.000
    H67      H        0.94240    0.85450    0.29700    1.000
    C135     C        0.95340    0.88070    0.22550    1.000
    H68      H        0.94870    0.91520    0.23240    1.000
    C136     C        0.96220    0.86360    0.17640    1.000
    C137     C        0.96840    0.81130    0.16810    1.000
    H69      H        0.97050    0.79930    0.13480    1.000
    C138     C        0.96760    0.75470    0.29430    1.000
    C139     C        0.96180    0.76480    0.34570    1.000
    H70      H        0.95320    0.79730    0.35680    1.000
    C140     C        0.96900    0.72620    0.38000    1.000
    H71      H        0.96380    0.73160    0.41460    1.000
    C141     C        0.98430    0.67840    0.36210    1.000
    C142     C        0.99010    0.67100    0.31000    1.000
    H72      H        0.00020    0.63950    0.29720    1.000
    C143     C        0.96880    0.89980    0.13320    1.000
    C144     C        0.99370    0.63480    0.39780    1.000
    N23      N        0.97150    0.77780    0.20710    1.000
    N24      N        0.98090    0.70970    0.27860    1.000
    Fe12     Fe       0.98381    0.69932    0.19656    1.000
    Br45     Br       0.06580    0.69730    0.16010    1.000
    Br46     Br       0.90640    0.65390    0.18430    1.000
    O72      O        0.94990    0.97190    0.03840    1.000
    Br47     Br       0.00920    0.70160    0.10610    1.000
    Br48     Br       0.96560    0.60590    0.19370    1.000
    Zr13     Zr       0.48808    0.48615    0.90735    1.000
    O73      O        0.44890    0.43230    0.96240    1.000
    O74      O        0.41120    0.47070    0.87891    1.000
    O75      O        0.35740    0.47180    0.94647    1.000
    O76      O        0.12320    0.50540    0.59239    1.000
    O77      O        0.05519    0.48940    0.64430    1.000
    C145     C        0.24460    0.46340    0.79550    1.000
    C146     C        0.23570    0.45170    0.84450    1.000
    H73      H        0.20300    0.44240    0.85450    1.000
    C147     C        0.27450    0.45340    0.88070    1.000
    H74      H        0.26760    0.44870    0.91520    1.000
    C148     C        0.32360    0.46220    0.86360    1.000
    C149     C        0.33190    0.46840    0.81130    1.000
    H75      H        0.36520    0.47050    0.79930    1.000
    C150     C        0.20570    0.46760    0.75470    1.000
    C151     C        0.15430    0.46180    0.76480    1.000
    H76      H        0.14320    0.45320    0.79730    1.000
    C152     C        0.12000    0.46900    0.72620    1.000
    H77      H        0.08540    0.46380    0.73160    1.000
    C153     C        0.13790    0.48430    0.67840    1.000
    C154     C        0.19000    0.49010    0.67100    1.000
    H78      H        0.20280    0.50020    0.63950    1.000
    C155     C        0.36680    0.46880    0.89980    1.000
    C156     C        0.10220    0.49370    0.63480    1.000
    N25      N        0.29290    0.47150    0.77780    1.000
    N26      N        0.22140    0.48090    0.70970    1.000
    Fe13     Fe       0.30344    0.48381    0.69932    1.000
    Br49     Br       0.33990    0.56580    0.69730    1.000
    Br50     Br       0.31570    0.40640    0.65390    1.000
    O78      O        0.46160    0.44990    0.97190    1.000
    Br51     Br       0.39390    0.50920    0.70160    1.000
    Br52     Br       0.30630    0.46560    0.60590    1.000
    Zr14     Zr       0.01192    0.51385    0.40735    1.000
    O79      O        0.05110    0.56770    0.46240    1.000
    O80      O        0.08880    0.52930    0.37891    1.000
    O81      O        0.14260    0.52820    0.44647    1.000
    O82      O        0.37680    0.49460    0.09239    1.000
    O83      O        0.44481    0.51060    0.14430    1.000
    C157     C        0.25540    0.53660    0.29550    1.000
    C158     C        0.26430    0.54830    0.34450    1.000
    H79      H        0.29700    0.55760    0.35450    1.000
    C159     C        0.22550    0.54660    0.38070    1.000
    H80      H        0.23240    0.55130    0.41520    1.000
    C160     C        0.17640    0.53780    0.36360    1.000
    C161     C        0.16810    0.53160    0.31130    1.000
    H81      H        0.13480    0.52950    0.29930    1.000
    C162     C        0.29430    0.53240    0.25470    1.000
    C163     C        0.34570    0.53820    0.26480    1.000
    H82      H        0.35680    0.54680    0.29730    1.000
    C164     C        0.38000    0.53100    0.22620    1.000
    H83      H        0.41460    0.53620    0.23160    1.000
    C165     C        0.36210    0.51570    0.17840    1.000
    C166     C        0.31000    0.50990    0.17100    1.000
    H84      H        0.29720    0.49980    0.13950    1.000
    C167     C        0.13320    0.53120    0.39980    1.000
    C168     C        0.39780    0.50630    0.13480    1.000
    N27      N        0.20710    0.52850    0.27780    1.000
    N28      N        0.27860    0.51910    0.20970    1.000
    Fe14     Fe       0.19656    0.51619    0.19932    1.000
    Br53     Br       0.16010    0.43420    0.19730    1.000
    Br54     Br       0.18430    0.59360    0.15390    1.000
    O84      O        0.03840    0.55010    0.47190    1.000
    Br55     Br       0.10610    0.49080    0.20160    1.000
    Br56     Br       0.19370    0.53440    0.10590    1.000
    Zr15     Zr       0.51192    0.98615    0.59265    1.000
    O85      O        0.55110    0.93230    0.53760    1.000
    O86      O        0.58880    0.97070    0.62109    1.000
    O87      O        0.64260    0.97180    0.55353    1.000
    O88      O        0.87680    0.00540    0.90761    1.000
    O89      O        0.94481    0.98940    0.85570    1.000
    C169     C        0.75540    0.96340    0.70450    1.000
    C170     C        0.76430    0.95170    0.65550    1.000
    H85      H        0.79700    0.94240    0.64550    1.000
    C171     C        0.72550    0.95340    0.61930    1.000
    H86      H        0.73240    0.94870    0.58480    1.000
    C172     C        0.67640    0.96220    0.63640    1.000
    C173     C        0.66810    0.96840    0.68870    1.000
    H87      H        0.63480    0.97050    0.70070    1.000
    C174     C        0.79430    0.96760    0.74530    1.000
    C175     C        0.84570    0.96180    0.73520    1.000
    H88      H        0.85680    0.95320    0.70270    1.000
    C176     C        0.88000    0.96900    0.77380    1.000
    H89      H        0.91460    0.96380    0.76840    1.000
    C177     C        0.86210    0.98430    0.82160    1.000
    C178     C        0.81000    0.99010    0.82900    1.000
    H90      H        0.79720    0.00020    0.86050    1.000
    C179     C        0.63320    0.96880    0.60020    1.000
    C180     C        0.89780    0.99370    0.86520    1.000
    N29      N        0.70710    0.97150    0.72220    1.000
    N30      N        0.77860    0.98090    0.79030    1.000
    Fe15     Fe       0.69656    0.98381    0.80068    1.000
    Br57     Br       0.66010    0.06580    0.80270    1.000
    Br58     Br       0.68430    0.90640    0.84610    1.000
    O90      O        0.53840    0.94990    0.52810    1.000
    Br59     Br       0.60610    0.00920    0.79840    1.000
    Br60     Br       0.69370    0.96560    0.89410    1.000
    Zr16     Zr       0.98808    0.01385    0.09265    1.000
    O91      O        0.94890    0.06770    0.03760    1.000
    O92      O        0.91120    0.02930    0.12109    1.000
    O93      O        0.85740    0.02820    0.05353    1.000
    O94      O        0.62320    0.99460    0.40761    1.000
    O95      O        0.55519    0.01060    0.35570    1.000
    C181     C        0.74460    0.03660    0.20450    1.000
    C182     C        0.73570    0.04830    0.15550    1.000
    H91      H        0.70300    0.05760    0.14550    1.000
    C183     C        0.77450    0.04660    0.11930    1.000
    H92      H        0.76760    0.05130    0.08480    1.000
    C184     C        0.82360    0.03780    0.13640    1.000
    C185     C        0.83190    0.03160    0.18870    1.000
    H93      H        0.86520    0.02950    0.20070    1.000
    C186     C        0.70570    0.03240    0.24530    1.000
    C187     C        0.65430    0.03820    0.23520    1.000
    H94      H        0.64320    0.04680    0.20270    1.000
    C188     C        0.62000    0.03100    0.27380    1.000
    H95      H        0.58540    0.03620    0.26840    1.000
    C189     C        0.63790    0.01570    0.32160    1.000
    C190     C        0.69000    0.00990    0.32900    1.000
    H96      H        0.70280    0.99980    0.36050    1.000
    C191     C        0.86680    0.03120    0.10020    1.000
    C192     C        0.60220    0.00630    0.36520    1.000
    N31      N        0.79290    0.02850    0.22220    1.000
    N32      N        0.72140    0.01910    0.29030    1.000
    Fe16     Fe       0.80344    0.01619    0.30068    1.000
    Br61     Br       0.83990    0.93420    0.30270    1.000
    Br62     Br       0.81570    0.09360    0.34610    1.000
    O96      O        0.96160    0.05010    0.02810    1.000
    Br63     Br       0.89390    0.99080    0.29840    1.000
    Br64     Br       0.80630    0.03440    0.39410    1.000
    Zr17     Zr       0.90735    0.48808    0.48615    1.000
    O97      O        0.96240    0.44890    0.43230    1.000
    O98      O        0.87891    0.41120    0.47070    1.000
    O99      O        0.94647    0.35740    0.47180    1.000
    O100     O        0.59239    0.12320    0.50540    1.000
    O101     O        0.64430    0.05519    0.48940    1.000
    C193     C        0.79550    0.24460    0.46340    1.000
    C194     C        0.84450    0.23570    0.45170    1.000
    H97      H        0.85450    0.20300    0.44240    1.000
    C195     C        0.88070    0.27450    0.45340    1.000
    H98      H        0.91520    0.26760    0.44870    1.000
    C196     C        0.86360    0.32360    0.46220    1.000
    C197     C        0.81130    0.33190    0.46840    1.000
    H99      H        0.79930    0.36520    0.47050    1.000
    C198     C        0.75470    0.20570    0.46760    1.000
    C199     C        0.76480    0.15430    0.46180    1.000
    H100     H        0.79730    0.14320    0.45320    1.000
    C200     C        0.72620    0.12000    0.46900    1.000
    H101     H        0.73160    0.08540    0.46380    1.000
    C201     C        0.67840    0.13790    0.48430    1.000
    C202     C        0.67100    0.19000    0.49010    1.000
    H102     H        0.63950    0.20280    0.50020    1.000
    C203     C        0.89980    0.36680    0.46880    1.000
    C204     C        0.63480    0.10220    0.49370    1.000
    N33      N        0.77780    0.29290    0.47150    1.000
    N34      N        0.70970    0.22140    0.48090    1.000
    Fe17     Fe       0.69932    0.30344    0.48381    1.000
    Br65     Br       0.69730    0.33990    0.56580    1.000
    Br66     Br       0.65390    0.31570    0.40640    1.000
    O102     O        0.97190    0.46160    0.44990    1.000
    Br67     Br       0.70160    0.39390    0.50920    1.000
    Br68     Br       0.60590    0.30630    0.46560    1.000
    Zr18     Zr       0.40735    0.01192    0.51385    1.000
    O103     O        0.46240    0.05110    0.56770    1.000
    O104     O        0.37891    0.08880    0.52930    1.000
    O105     O        0.44647    0.14260    0.52820    1.000
    O106     O        0.09239    0.37680    0.49460    1.000
    O107     O        0.14430    0.44481    0.51060    1.000
    C205     C        0.29550    0.25540    0.53660    1.000
    C206     C        0.34450    0.26430    0.54830    1.000
    H103     H        0.35450    0.29700    0.55760    1.000
    C207     C        0.38070    0.22550    0.54660    1.000
    H104     H        0.41520    0.23240    0.55130    1.000
    C208     C        0.36360    0.17640    0.53780    1.000
    C209     C        0.31130    0.16810    0.53160    1.000
    H105     H        0.29930    0.13480    0.52950    1.000
    C210     C        0.25470    0.29430    0.53240    1.000
    C211     C        0.26480    0.34570    0.53820    1.000
    H106     H        0.29730    0.35680    0.54680    1.000
    C212     C        0.22620    0.38000    0.53100    1.000
    H107     H        0.23160    0.41460    0.53620    1.000
    C213     C        0.17840    0.36210    0.51570    1.000
    C214     C        0.17100    0.31000    0.50990    1.000
    H108     H        0.13950    0.29720    0.49980    1.000
    C215     C        0.39980    0.13320    0.53120    1.000
    C216     C        0.13480    0.39780    0.50630    1.000
    N35      N        0.27780    0.20710    0.52850    1.000
    N36      N        0.20970    0.27860    0.51910    1.000
    Fe18     Fe       0.19932    0.19656    0.51619    1.000
    Br69     Br       0.19730    0.16010    0.43420    1.000
    Br70     Br       0.15390    0.18430    0.59360    1.000
    O108     O        0.47190    0.03840    0.55010    1.000
    Br71     Br       0.20160    0.10610    0.49080    1.000
    Br72     Br       0.10590    0.19370    0.53440    1.000
    Zr19     Zr       0.59265    0.51192    0.98615    1.000
    O109     O        0.53760    0.55110    0.93230    1.000
    O110     O        0.62109    0.58880    0.97070    1.000
    O111     O        0.55353    0.64260    0.97180    1.000
    O112     O        0.90761    0.87680    0.00540    1.000
    O113     O        0.85570    0.94481    0.98940    1.000
    C217     C        0.70450    0.75540    0.96340    1.000
    C218     C        0.65550    0.76430    0.95170    1.000
    H109     H        0.64550    0.79700    0.94240    1.000
    C219     C        0.61930    0.72550    0.95340    1.000
    H110     H        0.58480    0.73240    0.94870    1.000
    C220     C        0.63640    0.67640    0.96220    1.000
    C221     C        0.68870    0.66810    0.96840    1.000
    H111     H        0.70070    0.63480    0.97050    1.000
    C222     C        0.74530    0.79430    0.96760    1.000
    C223     C        0.73520    0.84570    0.96180    1.000
    H112     H        0.70270    0.85680    0.95320    1.000
    C224     C        0.77380    0.88000    0.96900    1.000
    H113     H        0.76840    0.91460    0.96380    1.000
    C225     C        0.82160    0.86210    0.98430    1.000
    C226     C        0.82900    0.81000    0.99010    1.000
    H114     H        0.86050    0.79720    0.00020    1.000
    C227     C        0.60020    0.63320    0.96880    1.000
    C228     C        0.86520    0.89780    0.99370    1.000
    N37      N        0.72220    0.70710    0.97150    1.000
    N38      N        0.79030    0.77860    0.98090    1.000
    Fe19     Fe       0.80068    0.69656    0.98381    1.000
    Br73     Br       0.80270    0.66010    0.06580    1.000
    Br74     Br       0.84610    0.68430    0.90640    1.000
    O114     O        0.52810    0.53840    0.94990    1.000
    Br75     Br       0.79840    0.60610    0.00920    1.000
    Br76     Br       0.89410    0.69370    0.96560    1.000
    Zr20     Zr       0.09265    0.98808    0.01385    1.000
    O115     O        0.03760    0.94890    0.06770    1.000
    O116     O        0.12109    0.91120    0.02930    1.000
    O117     O        0.05353    0.85740    0.02820    1.000
    O118     O        0.40761    0.62320    0.99460    1.000
    O119     O        0.35570    0.55519    0.01060    1.000
    C229     C        0.20450    0.74460    0.03660    1.000
    C230     C        0.15550    0.73570    0.04830    1.000
    H115     H        0.14550    0.70300    0.05760    1.000
    C231     C        0.11930    0.77450    0.04660    1.000
    H116     H        0.08480    0.76760    0.05130    1.000
    C232     C        0.13640    0.82360    0.03780    1.000
    C233     C        0.18870    0.83190    0.03160    1.000
    H117     H        0.20070    0.86520    0.02950    1.000
    C234     C        0.24530    0.70570    0.03240    1.000
    C235     C        0.23520    0.65430    0.03820    1.000
    H118     H        0.20270    0.64320    0.04680    1.000
    C236     C        0.27380    0.62000    0.03100    1.000
    H119     H        0.26840    0.58540    0.03620    1.000
    C237     C        0.32160    0.63790    0.01570    1.000
    C238     C        0.32900    0.69000    0.00990    1.000
    H120     H        0.36050    0.70280    0.99980    1.000
    C239     C        0.10020    0.86680    0.03120    1.000
    C240     C        0.36520    0.60220    0.00630    1.000
    N39      N        0.22220    0.79290    0.02850    1.000
    N40      N        0.29030    0.72140    0.01910    1.000
    Fe20     Fe       0.30068    0.80344    0.01619    1.000
    Br77     Br       0.30270    0.83990    0.93420    1.000
    Br78     Br       0.34610    0.81570    0.09360    1.000
    O120     O        0.02810    0.96160    0.05010    1.000
    Br79     Br       0.29840    0.89390    0.99080    1.000
    Br80     Br       0.39410    0.80630    0.03440    1.000
    Zr21     Zr       0.48615    0.90735    0.48808    1.000
    O121     O        0.43230    0.96240    0.44890    1.000
    O122     O        0.47070    0.87891    0.41120    1.000
    O123     O        0.47180    0.94647    0.35740    1.000
    O124     O        0.50540    0.59239    0.12320    1.000
    O125     O        0.48940    0.64430    0.05519    1.000
    C241     C        0.46340    0.79550    0.24460    1.000
    C242     C        0.45170    0.84450    0.23570    1.000
    H121     H        0.44240    0.85450    0.20300    1.000
    C243     C        0.45340    0.88070    0.27450    1.000
    H122     H        0.44870    0.91520    0.26760    1.000
    C244     C        0.46220    0.86360    0.32360    1.000
    C245     C        0.46840    0.81130    0.33190    1.000
    H123     H        0.47050    0.79930    0.36520    1.000
    C246     C        0.46760    0.75470    0.20570    1.000
    C247     C        0.46180    0.76480    0.15430    1.000
    H124     H        0.45320    0.79730    0.14320    1.000
    C248     C        0.46900    0.72620    0.12000    1.000
    H125     H        0.46380    0.73160    0.08540    1.000
    C249     C        0.48430    0.67840    0.13790    1.000
    C250     C        0.49010    0.67100    0.19000    1.000
    H126     H        0.50020    0.63950    0.20280    1.000
    C251     C        0.46880    0.89980    0.36680    1.000
    C252     C        0.49370    0.63480    0.10220    1.000
    N41      N        0.47150    0.77780    0.29290    1.000
    N42      N        0.48090    0.70970    0.22140    1.000
    Fe21     Fe       0.48381    0.69932    0.30344    1.000
    Br81     Br       0.56580    0.69730    0.33990    1.000
    Br82     Br       0.40640    0.65390    0.31570    1.000
    O126     O        0.44990    0.97190    0.46160    1.000
    Br83     Br       0.50920    0.70160    0.39390    1.000
    Br84     Br       0.46560    0.60590    0.30630    1.000
    Zr22     Zr       0.51385    0.40735    0.01192    1.000
    O127     O        0.56770    0.46240    0.05110    1.000
    O128     O        0.52930    0.37891    0.08880    1.000
    O129     O        0.52820    0.44647    0.14260    1.000
    O130     O        0.49460    0.09239    0.37680    1.000
    O131     O        0.51060    0.14430    0.44481    1.000
    C253     C        0.53660    0.29550    0.25540    1.000
    C254     C        0.54830    0.34450    0.26430    1.000
    H127     H        0.55760    0.35450    0.29700    1.000
    C255     C        0.54660    0.38070    0.22550    1.000
    H128     H        0.55130    0.41520    0.23240    1.000
    C256     C        0.53780    0.36360    0.17640    1.000
    C257     C        0.53160    0.31130    0.16810    1.000
    H129     H        0.52950    0.29930    0.13480    1.000
    C258     C        0.53240    0.25470    0.29430    1.000
    C259     C        0.53820    0.26480    0.34570    1.000
    H130     H        0.54680    0.29730    0.35680    1.000
    C260     C        0.53100    0.22620    0.38000    1.000
    H131     H        0.53620    0.23160    0.41460    1.000
    C261     C        0.51570    0.17840    0.36210    1.000
    C262     C        0.50990    0.17100    0.31000    1.000
    H132     H        0.49980    0.13950    0.29720    1.000
    C263     C        0.53120    0.39980    0.13320    1.000
    C264     C        0.50630    0.13480    0.39780    1.000
    N43      N        0.52850    0.27780    0.20710    1.000
    N44      N        0.51910    0.20970    0.27860    1.000
    Fe22     Fe       0.51619    0.19932    0.19656    1.000
    Br85     Br       0.43420    0.19730    0.16010    1.000
    Br86     Br       0.59360    0.15390    0.18430    1.000
    O132     O        0.55010    0.47190    0.03840    1.000
    Br87     Br       0.49080    0.20160    0.10610    1.000
    Br88     Br       0.53440    0.10590    0.19370    1.000
    Zr23     Zr       0.98615    0.59265    0.51192    1.000
    O133     O        0.93230    0.53760    0.55110    1.000
    O134     O        0.97070    0.62109    0.58880    1.000
    O135     O        0.97180    0.55353    0.64260    1.000
    O136     O        0.00540    0.90761    0.87680    1.000
    O137     O        0.98940    0.85570    0.94481    1.000
    C265     C        0.96340    0.70450    0.75540    1.000
    C266     C        0.95170    0.65550    0.76430    1.000
    H133     H        0.94240    0.64550    0.79700    1.000
    C267     C        0.95340    0.61930    0.72550    1.000
    H134     H        0.94870    0.58480    0.73240    1.000
    C268     C        0.96220    0.63640    0.67640    1.000
    C269     C        0.96840    0.68870    0.66810    1.000
    H135     H        0.97050    0.70070    0.63480    1.000
    C270     C        0.96760    0.74530    0.79430    1.000
    C271     C        0.96180    0.73520    0.84570    1.000
    H136     H        0.95320    0.70270    0.85680    1.000
    C272     C        0.96900    0.77380    0.88000    1.000
    H137     H        0.96380    0.76840    0.91460    1.000
    C273     C        0.98430    0.82160    0.86210    1.000
    C274     C        0.99010    0.82900    0.81000    1.000
    H138     H        0.00020    0.86050    0.79720    1.000
    C275     C        0.96880    0.60020    0.63320    1.000
    C276     C        0.99370    0.86520    0.89780    1.000
    N45      N        0.97150    0.72220    0.70710    1.000
    N46      N        0.98090    0.79030    0.77860    1.000
    Fe23     Fe       0.98381    0.80068    0.69656    1.000
    Br89     Br       0.06580    0.80270    0.66010    1.000
    Br90     Br       0.90640    0.84610    0.68430    1.000
    O138     O        0.94990    0.52810    0.53840    1.000
    Br91     Br       0.00920    0.79840    0.60610    1.000
    Br92     Br       0.96560    0.89410    0.69370    1.000
    Zr24     Zr       0.01385    0.09265    0.98808    1.000
    O139     O        0.06770    0.03760    0.94890    1.000
    O140     O        0.02930    0.12109    0.91120    1.000
    O141     O        0.02820    0.05353    0.85740    1.000
    O142     O        0.99460    0.40761    0.62320    1.000
    O143     O        0.01060    0.35570    0.55519    1.000
    C277     C        0.03660    0.20450    0.74460    1.000
    C278     C        0.04830    0.15550    0.73570    1.000
    H139     H        0.05760    0.14550    0.70300    1.000
    C279     C        0.04660    0.11930    0.77450    1.000
    H140     H        0.05130    0.08480    0.76760    1.000
    C280     C        0.03780    0.13640    0.82360    1.000
    C281     C        0.03160    0.18870    0.83190    1.000
    H141     H        0.02950    0.20070    0.86520    1.000
    C282     C        0.03240    0.24530    0.70570    1.000
    C283     C        0.03820    0.23520    0.65430    1.000
    H142     H        0.04680    0.20270    0.64320    1.000
    C284     C        0.03100    0.27380    0.62000    1.000
    H143     H        0.03620    0.26840    0.58540    1.000
    C285     C        0.01570    0.32160    0.63790    1.000
    C286     C        0.00990    0.32900    0.69000    1.000
    H144     H        0.99980    0.36050    0.70280    1.000
    C287     C        0.03120    0.10020    0.86680    1.000
    C288     C        0.00630    0.36520    0.60220    1.000
    N47      N        0.02850    0.22220    0.79290    1.000
    N48      N        0.01910    0.29030    0.72140    1.000
    Fe24     Fe       0.01619    0.30068    0.80344    1.000
    Br93     Br       0.93420    0.30270    0.83990    1.000
    Br94     Br       0.09360    0.34610    0.81570    1.000
    O144     O        0.05010    0.02810    0.96160    1.000
    Br95     Br       0.99080    0.29840    0.89390    1.000
    Br96     Br       0.03440    0.39410    0.80630    1.000
    O145     O        0.44690    0.55310    0.05310    1.000
    O146     O        0.46070    0.53930    0.03930    1.000
    O147     O        0.05310    0.44690    0.55310    1.000
    O148     O        0.03930    0.46070    0.53930    1.000
    O149     O        0.55310    0.05310    0.44690    1.000
    O150     O        0.53930    0.03930    0.46070    1.000
    O151     O        0.94690    0.94690    0.94690    1.000
    O152     O        0.96070    0.96070    0.96070    1.000
    O153     O        0.55310    0.44690    0.94690    1.000
    O154     O        0.53930    0.46070    0.96070    1.000
    O155     O        0.94690    0.55310    0.44690    1.000
    O156     O        0.96070    0.53930    0.46070    1.000
    O157     O        0.44690    0.94690    0.55310    1.000
    O158     O        0.46070    0.96070    0.53930    1.000
    O159     O        0.05310    0.05310    0.05310    1.000
    O160     O        0.03930    0.03930    0.03930    1.000
