data_functionalizedCrystal
_audit_creation_method	'EQeq! by Chris Wilmer'
_symmetry_space_group_name_H-M	'P1'
_symmetry_Int_Tables_number	1
_symmetry_cell_setting	triclinic
loop_
_symmetry_equiv_pos_as_xyz
  x,y,z
_cell_length_a	15.8471
_cell_length_b	15.8471
_cell_length_c	21.767
_cell_angle_alpha	90
_cell_angle_beta	90
_cell_angle_gamma	90
loop_
_atom_site_label
_atom_site_type_symbol
_atom_site_fract_x
_atom_site_fract_y
_atom_site_fract_z
_atom_site_charge
Mof_Cd	Cd	0.05986	0.94014	0.25	0.382
Mof_Cd	Cd	0.94014	0.05986	0.75	0.382
Mof_Cd	Cd	0.55986	0.55986	0.5	0.384
Mof_Cd	Cd	0.44014	0.44014	-0	0.382
Mof_H 	H 	0.385	0.4631	0.149	0.031
Mof_H 	H 	0.2868	0.4117	0.2155	0.093
Mof_H 	H 	0.2631	0.21	0.1063	0.097
Mof_H 	H 	0.3584	0.2686	0.0418	0.009
Mof_H 	H 	0.2052	0.3431	0.2817	0.069
Mof_H 	H 	0.0904	0.2936	0.3356	0.022
Mof_H 	H 	0.9978	0.1988	0.2913	0.07
Mof_H 	H 	0.1415	0.1947	0.1398	0.088
Mof_H 	H 	0.8786	0.9541	0.042	0.071
Mof_H 	H 	0.7666	0.9313	0.9764	0.019
Mof_H 	H 	0.6632	0.0332	0.9658	0.062
Mof_H 	H 	0.7752	0.1723	0.0961	0.069
Mof_H 	H 	0.598	0.1479	0.9397	0.081
Mof_H 	H 	0.5593	0.3398	0.0923	0.012
Mof_H 	H 	0.6517	0.2321	0.108	0.076
Mof_H 	H 	0.5063	0.2579	0.9291	0.011
Mof_H 	H 	0.9707	0.2558	0.1083	0.131
Mof_H 	H 	0.8999	0.2584	0.1507	0.118
Mof_H 	H 	0.615	0.5369	0.649	0.032
Mof_H 	H 	0.7132	0.5883	0.7155	0.094
Mof_H 	H 	0.7369	0.79	0.6063	0.098
Mof_H 	H 	0.6416	0.7314	0.5418	0.01
Mof_H 	H 	0.7948	0.6569	0.7817	0.07
Mof_H 	H 	0.9096	0.7064	0.8356	0.023
Mof_H 	H 	0.0022	0.8012	0.7913	0.07
Mof_H 	H 	0.8585	0.8053	0.6398	0.089
Mof_H 	H 	0.1214	0.0459	0.542	0.069
Mof_H 	H 	0.2334	0.0687	0.4764	0.022
Mof_H 	H 	0.3368	0.9668	0.4658	0.06
Mof_H 	H 	0.2248	0.8277	0.5961	0.067
Mof_H 	H 	0.402	0.8521	0.4397	0.082
Mof_H 	H 	0.4407	0.6602	0.5923	0.011
Mof_H 	H 	0.3483	0.7679	0.608	0.076
Mof_H 	H 	0.4937	0.7421	0.4291	0.011
Mof_H 	H 	0.0293	0.7442	0.6083	0.132
Mof_H 	H 	0.1001	0.7416	0.6507	0.118
Mof_H 	H 	0.0369	0.885	0.399	0.031
Mof_H 	H 	0.0883	0.7868	0.4655	0.093
Mof_H 	H 	0.29	0.7631	0.3563	0.097
Mof_H 	H 	0.2314	0.8584	0.2918	0.01
Mof_H 	H 	0.1569	0.7052	0.5317	0.071
Mof_H 	H 	0.2064	0.5904	0.5856	0.022
Mof_H 	H 	0.3012	0.4978	0.5413	0.072
Mof_H 	H 	0.3053	0.6415	0.3898	0.089
Mof_H 	H 	0.5459	0.3786	0.292	0.069
Mof_H 	H 	0.5687	0.2666	0.2264	0.022
Mof_H 	H 	0.4668	0.1632	0.2158	0.06
Mof_H 	H 	0.3277	0.2752	0.3461	0.068
Mof_H 	H 	0.3521	0.098	0.1897	0.082
Mof_H 	H 	0.1602	0.0593	0.3423	0.012
Mof_H 	H 	0.2679	0.1517	0.358	0.076
Mof_H 	H 	0.2421	0.0063	0.1791	0.012
Mof_H 	H 	0.2442	0.4707	0.3583	0.132
Mof_H 	H 	0.2416	0.3999	0.4007	0.118
Mof_H 	H 	0.9631	0.115	0.899	0.032
Mof_H 	H 	0.9117	0.2132	0.9655	0.093
Mof_H 	H 	0.71	0.2369	0.8563	0.097
Mof_H 	H 	0.7686	0.1416	0.7918	0.011
Mof_H 	H 	0.8431	0.2948	0.0317	0.073
Mof_H 	H 	0.7936	0.4096	0.0856	0.019
Mof_H 	H 	0.6988	0.5022	0.0413	0.075
Mof_H 	H 	0.6947	0.3585	0.8898	0.091
Mof_H 	H 	0.4541	0.6214	0.792	0.069
Mof_H 	H 	0.4313	0.7334	0.7264	0.022
Mof_H 	H 	0.5332	0.8368	0.7158	0.06
Mof_H 	H 	0.6723	0.7248	0.8461	0.068
Mof_H 	H 	0.6479	0.902	0.6897	0.082
Mof_H 	H 	0.8398	0.9407	0.8423	0.012
Mof_H 	H 	0.7321	0.8483	0.858	0.077
Mof_H 	H 	0.7579	0.9937	0.6791	0.012
Mof_H 	H 	0.7558	0.5293	0.8583	0.132
Mof_H 	H 	0.7584	0.6001	0.9007	0.119
Mof_H 	H 	0.115	0.9631	0.101	0.031
Mof_H 	H 	0.2132	0.9117	0.0345	0.093
Mof_H 	H 	0.2369	0.71	0.1437	0.098
Mof_H 	H 	0.1416	0.7686	0.2082	0.01
Mof_H 	H 	0.2948	0.8431	0.9683	0.068
Mof_H 	H 	0.4096	0.7936	0.9144	0.025
Mof_H 	H 	0.5022	0.6988	0.9587	0.069
Mof_H 	H 	0.3585	0.6947	0.1102	0.087
Mof_H 	H 	0.6214	0.4541	0.208	0.069
Mof_H 	H 	0.7334	0.4313	0.2736	0.022
Mof_H 	H 	0.8368	0.5332	0.2842	0.06
Mof_H 	H 	0.7248	0.6723	0.1539	0.067
Mof_H 	H 	0.902	0.6479	0.3103	0.082
Mof_H 	H 	0.9407	0.8398	0.1577	0.011
Mof_H 	H 	0.8483	0.7321	0.142	0.076
Mof_H 	H 	0.9937	0.7579	0.3209	0.012
Mof_H 	H 	0.5293	0.7558	0.1417	0.132
Mof_H 	H 	0.6001	0.7584	0.0993	0.118
Mof_H 	H 	0.885	0.0369	0.601	0.031
Mof_H 	H 	0.7868	0.0883	0.5345	0.093
Mof_H 	H 	0.7631	0.29	0.6437	0.097
Mof_H 	H 	0.8584	0.2314	0.7082	0.01
Mof_H 	H 	0.7052	0.1569	0.4683	0.071
Mof_H 	H 	0.5904	0.2064	0.4144	0.022
Mof_H 	H 	0.4978	0.3012	0.4587	0.072
Mof_H 	H 	0.6415	0.3053	0.6102	0.089
Mof_H 	H 	0.3786	0.5459	0.708	0.069
Mof_H 	H 	0.2666	0.5687	0.7736	0.022
Mof_H 	H 	0.1632	0.4668	0.7842	0.06
Mof_H 	H 	0.2752	0.3277	0.6539	0.068
Mof_H 	H 	0.098	0.3521	0.8103	0.082
Mof_H 	H 	0.0593	0.1602	0.6577	0.012
Mof_H 	H 	0.1517	0.2679	0.642	0.076
Mof_H 	H 	0.0063	0.2421	0.8209	0.012
Mof_H 	H 	0.4707	0.2442	0.6417	0.132
Mof_H 	H 	0.3999	0.2416	0.5993	0.118
Mof_H 	H 	0.4631	0.385	0.851	0.032
Mof_H 	H 	0.4117	0.2868	0.7845	0.094
Mof_H 	H 	0.21	0.2631	0.8937	0.098
Mof_H 	H 	0.2686	0.3584	0.9582	0.011
Mof_H 	H 	0.3431	0.2052	0.7183	0.07
Mof_H 	H 	0.2936	0.0904	0.6644	0.023
Mof_H 	H 	0.1988	0.9978	0.7087	0.07
Mof_H 	H 	0.1947	0.1415	0.8602	0.089
Mof_H 	H 	0.9541	0.8786	0.958	0.068
Mof_H 	H 	0.9313	0.7666	0.0236	0.022
Mof_H 	H 	0.0332	0.6632	0.0342	0.061
Mof_H 	H 	0.1723	0.7752	0.9039	0.067
Mof_H 	H 	0.1479	0.598	0.0603	0.082
Mof_H 	H 	0.3398	0.5593	0.9077	0.011
Mof_H 	H 	0.2321	0.6517	0.892	0.077
Mof_H 	H 	0.2579	0.5063	0.0709	0.012
Mof_H 	H 	0.2558	0.9707	0.8917	0.132
Mof_H 	H 	0.2584	0.8999	0.8493	0.118
Mof_H 	H 	0.5369	0.615	0.351	0.032
Mof_H 	H 	0.5883	0.7132	0.2845	0.094
Mof_H 	H 	0.79	0.7369	0.3937	0.098
Mof_H 	H 	0.7314	0.6416	0.4582	0.01
Mof_H 	H 	0.6569	0.7948	0.2183	0.07
Mof_H 	H 	0.7064	0.9096	0.1644	0.022
Mof_H 	H 	0.8012	0.0022	0.2087	0.07
Mof_H 	H 	0.8053	0.8585	0.3602	0.089
Mof_H 	H 	0.0459	0.1214	0.458	0.069
Mof_H 	H 	0.0687	0.2334	0.5236	0.022
Mof_H 	H 	0.9668	0.3368	0.5342	0.06
Mof_H 	H 	0.8277	0.2248	0.4039	0.067
Mof_H 	H 	0.8521	0.402	0.5603	0.082
Mof_H 	H 	0.6602	0.4407	0.4077	0.011
Mof_H 	H 	0.7679	0.3483	0.392	0.076
Mof_H 	H 	0.7421	0.4937	0.5709	0.011
Mof_H 	H 	0.7442	0.0293	0.3917	0.132
Mof_H 	H 	0.7416	0.1001	0.3493	0.118
Mof_C 	C 	0.3581	0.4126	0.1394	0.076
Mof_C 	C 	0.2989	0.3822	0.1797	-0.135
Mof_C 	C 	0.2565	0.3062	0.16653	0.071
Mof_C 	C 	0.2845	0.2633	0.1149	-0.146
Mof_C 	C 	0.343	0.2984	0.0768	0.088
Mof_C 	C 	0.185	0.2754	0.20401	0.034
Mof_C 	C 	0.1691	0.3041	0.26364	-0.099
Mof_C 	C 	0.1	0.2746	0.2958	0.019
Mof_C 	C 	0.045	0.2171	0.26968	-0.095
Mof_C 	C 	0.0606	0.1872	0.2109	0.035
Mof_C 	C 	0.1306	0.2158	0.1789	-0.103
Mof_C 	C 	0.0045	0.1255	0.1807	0.095
Mof_C 	C 	0.9086	0.0746	0.1188	0.098
Mof_C 	C 	0.8384	0.0663	0.0751	0.036
Mof_C 	C 	0.8355	0.9938	0.0392	-0.096
Mof_C 	C 	0.7692	0.9806	0.9995	0.022
Mof_C 	C 	0.7064	0.0409	0.9941	-0.092
Mof_C 	C 	0.7072	0.1126	0.0305	0.025
Mof_C 	C 	0.774	0.1246	0.0713	-0.096
Mof_C 	C 	0.6402	0.1786	0.0241	0.069
Mof_C 	C 	0.5925	0.187	0.9713	-0.139
Mof_C 	C 	0.5676	0.301	0.0609	0.082
Mof_C 	C 	0.6241	0.2368	0.0704	-0.139
Mof_C 	C 	0.5367	0.2533	0.9655	0.085
Mof_C 	C 	0.6419	0.5874	0.6394	0.076
Mof_C 	C 	0.7011	0.6178	0.6797	-0.135
Mof_C 	C 	0.7435	0.6938	0.66653	0.072
Mof_C 	C 	0.7155	0.7367	0.6149	-0.146
Mof_C 	C 	0.657	0.7016	0.5768	0.088
Mof_C 	C 	0.815	0.7246	0.70401	0.034
Mof_C 	C 	0.8309	0.6959	0.76364	-0.098
Mof_C 	C 	0.9	0.7254	0.7958	0.019
Mof_C 	C 	0.955	0.7829	0.76968	-0.095
Mof_C 	C 	0.9394	0.8128	0.7109	0.035
Mof_C 	C 	0.8694	0.7842	0.6789	-0.103
Mof_C 	C 	0.9955	0.8745	0.6807	0.095
Mof_C 	C 	0.0914	0.9254	0.6188	0.1
Mof_C 	C 	0.1616	0.9337	0.5751	0.032
Mof_C 	C 	0.1645	0.0062	0.5392	-0.087
Mof_C 	C 	0.2308	0.0194	0.4995	0.012
Mof_C 	C 	0.2936	0.9591	0.4941	-0.089
Mof_C 	C 	0.2928	0.8874	0.5305	0.023
Mof_C 	C 	0.226	0.8754	0.5713	-0.092
Mof_C 	C 	0.3598	0.8214	0.5241	0.072
Mof_C 	C 	0.4075	0.813	0.4713	-0.142
Mof_C 	C 	0.4324	0.699	0.5609	0.083
Mof_C 	C 	0.3759	0.7632	0.5704	-0.14
Mof_C 	C 	0.4633	0.7467	0.4655	0.085
Mof_C 	C 	0.0874	0.8581	0.3894	0.076
Mof_C 	C 	0.1178	0.7989	0.4297	-0.134
Mof_C 	C 	0.1938	0.7565	0.41653	0.071
Mof_C 	C 	0.2367	0.7845	0.3649	-0.145
Mof_C 	C 	0.2016	0.843	0.3268	0.088
Mof_C 	C 	0.2246	0.685	0.45401	0.036
Mof_C 	C 	0.1959	0.6691	0.51364	-0.1
Mof_C 	C 	0.2254	0.6	0.5458	0.022
Mof_C 	C 	0.2829	0.545	0.51968	-0.099
Mof_C 	C 	0.3128	0.5606	0.4609	0.037
Mof_C 	C 	0.2842	0.6306	0.4289	-0.105
Mof_C 	C 	0.3745	0.5045	0.4307	0.093
Mof_C 	C 	0.4254	0.4086	0.3688	0.099
Mof_C 	C 	0.4337	0.3384	0.3251	0.034
Mof_C 	C 	0.5062	0.3355	0.2892	-0.089
Mof_C 	C 	0.5194	0.2692	0.2495	0.012
Mof_C 	C 	0.4591	0.2064	0.2441	-0.087
Mof_C 	C 	0.3874	0.2072	0.2805	0.023
Mof_C 	C 	0.3754	0.274	0.3213	-0.093
Mof_C 	C 	0.3214	0.1402	0.2741	0.072
Mof_C 	C 	0.313	0.0925	0.2213	-0.142
Mof_C 	C 	0.199	0.0676	0.3109	0.083
Mof_C 	C 	0.2632	0.1241	0.3204	-0.14
Mof_C 	C 	0.2467	0.0367	0.2155	0.084
Mof_C 	C 	0.9126	0.1419	0.8894	0.075
Mof_C 	C 	0.8822	0.2011	0.9297	-0.132
Mof_C 	C 	0.8062	0.2435	0.91653	0.068
Mof_C 	C 	0.7633	0.2155	0.8649	-0.143
Mof_C 	C 	0.7984	0.157	0.8268	0.087
Mof_C 	C 	0.7754	0.315	0.95401	0.043
Mof_C 	C 	0.8041	0.3309	0.01364	-0.109
Mof_C 	C 	0.7746	0.4	0.0458	0.029
Mof_C 	C 	0.7171	0.455	0.01968	-0.108
Mof_C 	C 	0.6872	0.4394	0.9609	0.044
Mof_C 	C 	0.7158	0.3694	0.9289	-0.11
Mof_C 	C 	0.6255	0.4955	0.9307	0.092
Mof_C 	C 	0.5746	0.5914	0.8688	0.1
Mof_C 	C 	0.5663	0.6616	0.8251	0.034
Mof_C 	C 	0.4938	0.6645	0.7892	-0.089
Mof_C 	C 	0.4806	0.7308	0.7495	0.012
Mof_C 	C 	0.5409	0.7936	0.7441	-0.087
Mof_C 	C 	0.6126	0.7928	0.7805	0.023
Mof_C 	C 	0.6246	0.726	0.8213	-0.093
Mof_C 	C 	0.6786	0.8598	0.7741	0.072
Mof_C 	C 	0.687	0.9075	0.7213	-0.142
Mof_C 	C 	0.801	0.9324	0.8109	0.083
Mof_C 	C 	0.7368	0.8759	0.8204	-0.14
Mof_C 	C 	0.7533	0.9633	0.7155	0.085
Mof_C 	C 	0.1419	0.9126	0.1106	0.077
Mof_C 	C 	0.2011	0.8822	0.0703	-0.137
Mof_C 	C 	0.2435	0.8062	0.08347	0.074
Mof_C 	C 	0.2155	0.7633	0.1351	-0.148
Mof_C 	C 	0.157	0.7984	0.1732	0.089
Mof_C 	C 	0.315	0.7754	0.04599	0.027
Mof_C 	C 	0.3309	0.8041	0.98636	-0.09
Mof_C 	C 	0.4	0.7746	0.9542	0.013
Mof_C 	C 	0.455	0.7171	0.98032	-0.089
Mof_C 	C 	0.4394	0.6872	0.0391	0.029
Mof_C 	C 	0.3694	0.7158	0.0711	-0.098
Mof_C 	C 	0.4955	0.6255	0.0693	0.095
Mof_C 	C 	0.5914	0.5746	0.1312	0.099
Mof_C 	C 	0.6616	0.5663	0.1749	0.033
Mof_C 	C 	0.6645	0.4938	0.2108	-0.089
Mof_C 	C 	0.7308	0.4806	0.2505	0.012
Mof_C 	C 	0.7936	0.5409	0.2559	-0.087
Mof_C 	C 	0.7928	0.6126	0.2195	0.023
Mof_C 	C 	0.726	0.6246	0.1787	-0.093
Mof_C 	C 	0.8598	0.6786	0.2259	0.072
Mof_C 	C 	0.9075	0.687	0.2787	-0.142
Mof_C 	C 	0.9324	0.801	0.1891	0.083
Mof_C 	C 	0.8759	0.7368	0.1796	-0.14
Mof_C 	C 	0.9633	0.7533	0.2845	0.085
Mof_C 	C 	0.8581	0.0874	0.6106	0.076
Mof_C 	C 	0.7989	0.1178	0.5703	-0.134
Mof_C 	C 	0.7565	0.1938	0.58347	0.071
Mof_C 	C 	0.7845	0.2367	0.6351	-0.145
Mof_C 	C 	0.843	0.2016	0.6732	0.088
Mof_C 	C 	0.685	0.2246	0.54599	0.036
Mof_C 	C 	0.6691	0.1959	0.48636	-0.1
Mof_C 	C 	0.6	0.2254	0.4542	0.022
Mof_C 	C 	0.545	0.2829	0.48032	-0.099
Mof_C 	C 	0.5606	0.3128	0.5391	0.037
Mof_C 	C 	0.6306	0.2842	0.5711	-0.105
Mof_C 	C 	0.5045	0.3745	0.5693	0.093
Mof_C 	C 	0.4086	0.4254	0.6312	0.099
Mof_C 	C 	0.3384	0.4337	0.6749	0.034
Mof_C 	C 	0.3355	0.5062	0.7108	-0.089
Mof_C 	C 	0.2692	0.5194	0.7505	0.012
Mof_C 	C 	0.2064	0.4591	0.7559	-0.087
Mof_C 	C 	0.2072	0.3874	0.7195	0.023
Mof_C 	C 	0.274	0.3754	0.6787	-0.093
Mof_C 	C 	0.1402	0.3214	0.7259	0.072
Mof_C 	C 	0.0925	0.313	0.7787	-0.142
Mof_C 	C 	0.0676	0.199	0.6891	0.083
Mof_C 	C 	0.1241	0.2632	0.6796	-0.14
Mof_C 	C 	0.0367	0.2467	0.7845	0.085
Mof_C 	C 	0.4126	0.3581	0.8606	0.076
Mof_C 	C 	0.3822	0.2989	0.8203	-0.134
Mof_C 	C 	0.3062	0.2565	0.83347	0.071
Mof_C 	C 	0.2633	0.2845	0.8851	-0.145
Mof_C 	C 	0.2984	0.343	0.9232	0.088
Mof_C 	C 	0.2754	0.185	0.79599	0.035
Mof_C 	C 	0.3041	0.1691	0.73636	-0.099
Mof_C 	C 	0.2746	0.1	0.7042	0.02
Mof_C 	C 	0.2171	0.045	0.73032	-0.096
Mof_C 	C 	0.1872	0.0606	0.7891	0.036
Mof_C 	C 	0.2158	0.1306	0.8211	-0.104
Mof_C 	C 	0.1255	0.0045	0.8193	0.095
Mof_C 	C 	0.0746	0.9086	0.8812	0.1
Mof_C 	C 	0.0663	0.8384	0.9249	0.031
Mof_C 	C 	0.9938	0.8355	0.9608	-0.083
Mof_C 	C 	0.9806	0.7692	0.0005	0.009
Mof_C 	C 	0.0409	0.7064	0.0059	-0.091
Mof_C 	C 	0.1126	0.7072	0.9695	0.025
Mof_C 	C 	0.1246	0.774	0.9287	-0.092
Mof_C 	C 	0.1786	0.6402	0.9759	0.075
Mof_C 	C 	0.187	0.5925	0.0287	-0.146
Mof_C 	C 	0.301	0.5676	0.9391	0.084
Mof_C 	C 	0.2368	0.6241	0.9296	-0.141
Mof_C 	C 	0.2533	0.5367	0.0345	0.083
Mof_C 	C 	0.5874	0.6419	0.3606	0.076
Mof_C 	C 	0.6178	0.7011	0.3203	-0.135
Mof_C 	C 	0.6938	0.7435	0.33347	0.071
Mof_C 	C 	0.7367	0.7155	0.3851	-0.145
Mof_C 	C 	0.7016	0.657	0.4232	0.088
Mof_C 	C 	0.7246	0.815	0.29599	0.035
Mof_C 	C 	0.6959	0.8309	0.23636	-0.099
Mof_C 	C 	0.7254	0.9	0.2042	0.02
Mof_C 	C 	0.7829	0.955	0.23032	-0.096
Mof_C 	C 	0.8128	0.9394	0.2891	0.036
Mof_C 	C 	0.7842	0.8694	0.3211	-0.104
Mof_C 	C 	0.8745	0.9955	0.3193	0.095
Mof_C 	C 	0.9254	0.0914	0.3812	0.1
Mof_C 	C 	0.9337	0.1616	0.4249	0.032
Mof_C 	C 	0.0062	0.1645	0.4608	-0.087
Mof_C 	C 	0.0194	0.2308	0.5005	0.012
Mof_C 	C 	0.9591	0.2936	0.5059	-0.088
Mof_C 	C 	0.8874	0.2928	0.4695	0.023
Mof_C 	C 	0.8754	0.226	0.4287	-0.092
Mof_C 	C 	0.8214	0.3598	0.4759	0.072
Mof_C 	C 	0.813	0.4075	0.5287	-0.142
Mof_C 	C 	0.699	0.4324	0.4391	0.083
Mof_C 	C 	0.7632	0.3759	0.4296	-0.14
Mof_C 	C 	0.7467	0.4633	0.5345	0.085
Mof_N 	N 	0.0074	0.043	0.18407	-0.112
Mof_N 	N 	0.9462	0.0106	0.1452	-0.1
Mof_N 	N 	0.9434	0.14752	0.13989	-0.102
Mof_N 	N 	0.9235	0.2299	0.12	-0.223
Mof_N 	N 	0.3795	0.3734	0.0867	-0.153
Mof_N 	N 	0.5238	0.311	0.00889	-0.152
Mof_N 	N 	0.9926	0.957	0.68407	-0.112
Mof_N 	N 	0.0538	0.9894	0.6452	-0.1
Mof_N 	N 	0.0566	0.85248	0.63989	-0.102
Mof_N 	N 	0.0765	0.7701	0.62	-0.223
Mof_N 	N 	0.6205	0.6266	0.5867	-0.153
Mof_N 	N 	0.4762	0.689	0.50889	-0.152
Mof_N 	N 	0.457	0.5074	0.43407	-0.113
Mof_N 	N 	0.4894	0.4462	0.3952	-0.099
Mof_N 	N 	0.35248	0.4434	0.38989	-0.101
Mof_N 	N 	0.2701	0.4235	0.37	-0.223
Mof_N 	N 	0.1266	0.8795	0.3367	-0.153
Mof_N 	N 	0.189	0.0238	0.25889	-0.151
Mof_N 	N 	0.543	0.4926	0.93407	-0.112
Mof_N 	N 	0.5106	0.5538	0.8952	-0.099
Mof_N 	N 	0.64752	0.5566	0.88989	-0.101
Mof_N 	N 	0.7299	0.5765	0.87	-0.223
Mof_N 	N 	0.8734	0.1205	0.8367	-0.153
Mof_N 	N 	0.811	0.9762	0.75889	-0.151
Mof_N 	N 	0.4926	0.543	0.06593	-0.114
Mof_N 	N 	0.5538	0.5106	0.1048	-0.099
Mof_N 	N 	0.5566	0.64752	0.11011	-0.102
Mof_N 	N 	0.5765	0.7299	0.13	-0.223
Mof_N 	N 	0.1205	0.8734	0.1633	-0.154
Mof_N 	N 	0.9762	0.811	0.24111	-0.151
Mof_N 	N 	0.5074	0.457	0.56593	-0.113
Mof_N 	N 	0.4462	0.4894	0.6048	-0.099
Mof_N 	N 	0.4434	0.35248	0.61011	-0.101
Mof_N 	N 	0.4235	0.2701	0.63	-0.223
Mof_N 	N 	0.8795	0.1266	0.6633	-0.153
Mof_N 	N 	0.0238	0.189	0.74111	-0.151
Mof_N 	N 	0.043	0.0074	0.81593	-0.112
Mof_N 	N 	0.0106	0.9462	0.8548	-0.1
Mof_N 	N 	0.14752	0.9434	0.86011	-0.102
Mof_N 	N 	0.2299	0.9235	0.88	-0.223
Mof_N 	N 	0.3734	0.3795	0.9133	-0.152
Mof_N 	N 	0.311	0.5238	0.99111	-0.15
Mof_N 	N 	0.957	0.9926	0.31593	-0.112
Mof_N 	N 	0.9894	0.0538	0.3548	-0.1
Mof_N 	N 	0.85248	0.0566	0.36011	-0.102
Mof_N 	N 	0.7701	0.0765	0.38	-0.223
Mof_N 	N 	0.6266	0.6205	0.4133	-0.153
Mof_N 	N 	0.689	0.4762	0.49111	-0.152
Mof_Cl	Cl	0.12405	0.12405	-0	-0.248
Mof_O 	O 	0.1384	0.21	0.9948	-0.033
Mof_O 	O 	0.137	0.0783	0.9496	-0.023
Mof_O 	O 	0.21	0.1384	0.0052	-0.036
Mof_O 	O 	0.0783	0.137	0.0504	-0.025
Mof_Cl	Cl	0.87595	0.87595	0.5	-0.243
Mof_O 	O 	0.8616	0.79	0.4948	-0.035
Mof_O 	O 	0.863	0.9217	0.4496	-0.025
Mof_O 	O 	0.79	0.8616	0.5052	-0.035
Mof_O 	O 	0.9217	0.863	0.5504	-0.025
Mof_Cl	Cl	0.37595	0.62405	0.25	-0.243
Mof_O 	O 	0.29	0.6384	0.2448	-0.035
Mof_O 	O 	0.4217	0.637	0.1996	-0.026
Mof_O 	O 	0.3616	0.71	0.2552	-0.035
Mof_O 	O 	0.363	0.5783	0.3004	-0.026
Mof_Cl	Cl	0.62405	0.37595	0.75	-0.243
Mof_O 	O 	0.71	0.3616	0.7448	-0.035
Mof_O 	O 	0.5783	0.363	0.6996	-0.026
Mof_O 	O 	0.6384	0.29	0.7552	-0.035
Mof_O 	O 	0.637	0.4217	0.8004	-0.026
_end
