data_functionalizedCrystal
_audit_creation_method	'EQeq! by Chris Wilmer'
_symmetry_space_group_name_H-M	'P1'
_symmetry_Int_Tables_number	1
_symmetry_cell_setting	triclinic
loop_
_symmetry_equiv_pos_as_xyz
  x,y,z
_cell_length_a	14.3384
_cell_length_b	13.3522
_cell_length_c	12.3444
_cell_angle_alpha	90
_cell_angle_beta	90
_cell_angle_gamma	90
loop_
_atom_site_label
_atom_site_type_symbol
_atom_site_fract_x
_atom_site_fract_y
_atom_site_fract_z
_atom_site_charge
Mof_C 	C 	0.4581	0.4856	0.1302	-0.334
Mof_C 	C 	0.3189	0.4709	0.9192	-0.23
Mof_C 	C 	0.4724	0.4879	0.4685	-0.22
Mof_C 	C 	0.3646	0.2946	0.365	-0.213
Mof_C 	C 	0.4689	0.2933	0.9591	-0.227
Mof_Cu	Cu	0.44566	0.43738	0.96104	0.789
Mof_Cu	Cu	0.37818	0.44357	0.36343	0.827
Mof_N 	N 	0.425	0.4712	0.2115	-0.186
Mof_N 	N 	0.2454	0.4951	0.8933	-0.211
Mof_C 	C 	0.0419	0.5144	0.6302	-0.333
Mof_C 	C 	0.1811	0.5291	0.4192	-0.229
Mof_C 	C 	0.0276	0.5121	0.9685	-0.218
Mof_C 	C 	0.1354	0.7054	0.865	-0.212
Mof_C 	C 	0.0311	0.7067	0.4591	-0.226
Mof_Cu	Cu	0.05434	0.56262	0.46104	0.79
Mof_Cu	Cu	0.12182	0.55643	0.86343	0.827
Mof_N 	N 	0.075	0.5288	0.7115	-0.186
Mof_N 	N 	0.2546	0.5049	0.3933	-0.211
Mof_C 	C 	0.5419	0.9856	0.8698	-0.333
Mof_C 	C 	0.6811	0.9709	0.0808	-0.229
Mof_C 	C 	0.5276	0.9879	0.5315	-0.219
Mof_C 	C 	0.6354	0.7946	0.635	-0.212
Mof_C 	C 	0.5311	0.7933	0.0409	-0.226
Mof_Cu	Cu	0.55434	0.93738	0.03896	0.79
Mof_Cu	Cu	0.62182	0.94357	0.63657	0.827
Mof_N 	N 	0.575	0.9712	0.7885	-0.186
Mof_N 	N 	0.7546	0.9951	0.1067	-0.212
Mof_C 	C 	0.9581	0.0144	0.3698	-0.334
Mof_C 	C 	0.8189	0.0291	0.5808	-0.229
Mof_C 	C 	0.9724	0.0121	0.0315	-0.218
Mof_C 	C 	0.8646	0.2054	0.135	-0.212
Mof_C 	C 	0.9689	0.2067	0.5409	-0.226
Mof_Cu	Cu	0.94566	0.06262	0.53896	0.79
Mof_Cu	Cu	0.87818	0.05643	0.13657	0.827
Mof_N 	N 	0.925	0.0288	0.2885	-0.186
Mof_N 	N 	0.7454	0.0049	0.6067	-0.212
Mof_C 	C 	0.5419	0.5144	0.8698	-0.333
Mof_C 	C 	0.6811	0.5291	0.0808	-0.229
Mof_C 	C 	0.5276	0.5121	0.5315	-0.219
Mof_C 	C 	0.6354	0.7054	0.635	-0.212
Mof_C 	C 	0.5311	0.7067	0.0409	-0.226
Mof_Cu	Cu	0.55434	0.56262	0.03896	0.79
Mof_Cu	Cu	0.62182	0.55643	0.63657	0.827
Mof_N 	N 	0.575	0.5288	0.7885	-0.186
Mof_N 	N 	0.7546	0.5049	0.1067	-0.211
Mof_C 	C 	0.9581	0.4856	0.3698	-0.333
Mof_C 	C 	0.8189	0.4709	0.5808	-0.229
Mof_C 	C 	0.9724	0.4879	0.0315	-0.218
Mof_C 	C 	0.8646	0.2946	0.135	-0.212
Mof_C 	C 	0.9689	0.2933	0.5409	-0.226
Mof_Cu	Cu	0.94566	0.43738	0.53896	0.79
Mof_Cu	Cu	0.87818	0.44357	0.13657	0.827
Mof_N 	N 	0.925	0.4712	0.2885	-0.186
Mof_N 	N 	0.7454	0.4951	0.6067	-0.211
Mof_C 	C 	0.4581	0.0144	0.1302	-0.333
Mof_C 	C 	0.3189	0.0291	0.9192	-0.229
Mof_C 	C 	0.4724	0.0121	0.4685	-0.219
Mof_C 	C 	0.3646	0.2054	0.365	-0.212
Mof_C 	C 	0.4689	0.2067	0.9591	-0.226
Mof_Cu	Cu	0.44566	0.06262	0.96104	0.79
Mof_Cu	Cu	0.37818	0.05643	0.36343	0.827
Mof_N 	N 	0.425	0.0288	0.2115	-0.186
Mof_N 	N 	0.2454	0.0049	0.8933	-0.212
Mof_C 	C 	0.0419	0.9856	0.6302	-0.334
Mof_C 	C 	0.1811	0.9709	0.4192	-0.229
Mof_C 	C 	0.0276	0.9879	0.9685	-0.218
Mof_C 	C 	0.1354	0.7946	0.865	-0.212
Mof_C 	C 	0.0311	0.7933	0.4591	-0.226
Mof_Cu	Cu	0.05434	0.93738	0.46104	0.79
Mof_Cu	Cu	0.12182	0.94357	0.86343	0.827
Mof_N 	N 	0.075	0.9712	0.7115	-0.186
Mof_N 	N 	0.2546	0.9951	0.3933	-0.212
_end
