data_functionalizedCrystal
_audit_creation_method	'EQeq! by Chris Wilmer'
_symmetry_space_group_name_H-M	'P1'
_symmetry_Int_Tables_number	1
_symmetry_cell_setting	triclinic
loop_
_symmetry_equiv_pos_as_xyz
  x,y,z
_cell_length_a	7.3084
_cell_length_b	7.3084
_cell_length_c	8.1705
_cell_angle_alpha	90
_cell_angle_beta	90
_cell_angle_gamma	120
loop_
_atom_site_label
_atom_site_type_symbol
_atom_site_fract_x
_atom_site_fract_y
_atom_site_fract_z
_atom_site_charge
Mof_O 	O 	0.11017	0.69445	0.39488	-0.365
Mof_O 	O 	0.30555	0.41572	0.39488	-0.398
Mof_O 	O 	0.58428	0.88983	0.39488	-0.308
Mof_O 	O 	0.88983	0.30555	0.89488	-0.248
Mof_O 	O 	0.69445	0.58428	0.89488	-0.27
Mof_O 	O 	0.41572	0.11017	0.89488	-0.279
Mof_O 	O 	0.69445	0.11017	0.60512	-0.357
Mof_O 	O 	0.41572	0.30555	0.60512	-0.391
Mof_O 	O 	0.88983	0.58428	0.60512	-0.319
Mof_O 	O 	0.30555	0.88983	0.10512	-0.296
Mof_O 	O 	0.58428	0.69445	0.10512	-0.343
Mof_O 	O 	0.11017	0.41572	0.10512	-0.362
Mof_Zn	Zn	0.33333	0.66667	0.25	1.246
Mof_Zn	Zn	0.66667	0.33333	0.75	1.248
Mof_C 	C 	6.74615e-18	0.5623	0.5	0.36
Mof_H 	H 	6.74615e-18	0.43	0.5	-0.076
Mof_C 	C 	0.4377	0.4377	0.5	0.435
Mof_H 	H 	0.57	0.57	0.5	-0.076
Mof_C 	C 	0.5623	0	0.5	0.329
Mof_H 	H 	0.43	0	0.5	-0.072
Mof_C 	C 	-0	0.4377	-0	0.231
Mof_H 	H 	-0	0.57	-0	-0.056
Mof_C 	C 	0.5623	0.5623	-0	0.297
Mof_H 	H 	0.43	0.43	-0	-0.072
Mof_C 	C 	0.4377	0	-0	0.195
Mof_H 	H 	0.57	0	-0	-0.053
_end
