data_functionalizedCrystal
_audit_creation_method	'EQeq! by Chris Wilmer'
_symmetry_space_group_name_H-M	'P1'
_symmetry_Int_Tables_number	1
_symmetry_cell_setting	triclinic
loop_
_symmetry_equiv_pos_as_xyz
  x,y,z
_cell_length_a	9.3468
_cell_length_b	15.2267
_cell_length_c	17.6517
_cell_angle_alpha	90
_cell_angle_beta	95.599
_cell_angle_gamma	90
loop_
_atom_site_label
_atom_site_type_symbol
_atom_site_fract_x
_atom_site_fract_y
_atom_site_fract_z
_atom_site_charge
Mof_Zn	Zn	0.92742	0.60963	0.3377	1.25
Mof_O 	O 	0.7332	0.5694	0.3588	-0.417
Mof_O 	O 	0.8032	0.4622	0.4418	-0.39
Mof_O 	O 	0.4547	0.5377	0.3752	-0.144
Mof_O 	O 	0.2034	0.6203	0.327	-0.319
Mof_O 	O 	0.0749	0.5236	0.3835	-0.571
Mof_O 	O 	0.9416	0.7192	0.3983	-0.387
Mof_O 	O 	0.9457	0.6435	0.5084	-0.365
Mof_O 	O 	0.9161	0.7988	0.5854	-0.138
Mof_O 	O 	0.8802	0.9843	0.7057	-0.239
Mof_O 	O 	0.9101	0.8434	0.7332	-0.354
Mof_C 	C 	0.7106	0.5049	0.4004	0.346
Mof_C 	C 	0.5586	0.4797	0.4036	0.033
Mof_C 	C 	0.4965	0.4069	0.4326	-0.027
Mof_H 	H 	0.5438	0.3578	0.4542	0.077
Mof_C 	C 	0.3451	0.4214	0.4229	-0.045
Mof_H 	H 	0.2741	0.3837	0.4371	0.072
Mof_C 	C 	0.3248	0.5005	0.389	0.024
Mof_C 	C 	0.1959	0.5543	0.3647	0.317
Mof_C 	C 	0.9382	0.7118	0.4708	0.337
Mof_C 	C 	0.916	0.7986	0.5079	0.054
Mof_C 	C 	0.8924	0.88	0.48	-0.022
Mof_H 	H 	0.8864	0.8965	0.429	0.095
Mof_C 	C 	0.8785	0.9355	0.5426	-0.047
Mof_H 	H 	0.8626	0.9958	0.5408	0.103
Mof_C 	C 	0.8922	0.886	0.6044	0.075
Mof_C 	C 	0.8953	0.9074	0.6869	0.288
Mof_Zn	Zn	0.07258	0.10963	0.1623	1.213
Mof_O 	O 	0.2668	0.0694	0.1412	-0.416
Mof_O 	O 	0.1968	0.9622	0.0582	-0.407
Mof_O 	O 	0.5453	0.0377	0.1248	-0.169
Mof_O 	O 	0.7966	0.1203	0.173	-0.252
Mof_O 	O 	0.9251	0.0236	0.1165	-0.481
Mof_O 	O 	0.0584	0.2192	0.1017	-0.423
Mof_O 	O 	0.0543	0.1435	0.9916	-0.372
Mof_O 	O 	0.0839	0.2988	0.9146	-0.176
Mof_O 	O 	0.1198	0.4843	0.7943	-0.306
Mof_O 	O 	0.0899	0.3434	0.7668	-0.404
Mof_C 	C 	0.2894	0.0049	0.0996	0.252
Mof_C 	C 	0.4414	0.9797	0.0964	0.117
Mof_C 	C 	0.5035	0.9069	0.0674	-0.091
Mof_H 	H 	0.4562	0.8578	0.0458	0.083
Mof_C 	C 	0.6549	0.9214	0.0771	0.027
Mof_H 	H 	0.7259	0.8837	0.0629	0.053
Mof_C 	C 	0.6752	0.0005	0.111	-0.012
Mof_C 	C 	0.8041	0.0543	0.1353	0.318
Mof_C 	C 	0.0618	0.2118	0.0292	0.218
Mof_C 	C 	0.084	0.2986	0.9921	0.162
Mof_C 	C 	0.1076	0.38	0.02	-0.22
Mof_H 	H 	0.1136	0.3965	0.071	0.112
Mof_C 	C 	0.1215	0.4355	0.9574	0.063
Mof_H 	H 	0.1374	0.4958	0.9592	0.022
Mof_C 	C 	0.1078	0.386	0.8956	0.007
Mof_C 	C 	0.1047	0.4074	0.8131	0.303
Mof_Zn	Zn	0.07258	0.39037	0.6623	1.218
Mof_O 	O 	0.2668	0.4306	0.6412	-0.432
Mof_O 	O 	0.1968	0.5378	0.5582	-0.454
Mof_O 	O 	0.5453	0.4623	0.6248	-0.139
Mof_O 	O 	0.7966	0.3797	0.673	-0.245
Mof_O 	O 	0.9251	0.4764	0.6165	-0.467
Mof_O 	O 	0.0584	0.2808	0.6017	-0.443
Mof_O 	O 	0.0543	0.3565	0.4916	-0.426
Mof_O 	O 	0.0839	0.2012	0.4146	-0.159
Mof_O 	O 	0.1198	0.0157	0.2943	-0.318
Mof_O 	O 	0.0899	0.1566	0.2668	-0.405
Mof_C 	C 	0.2894	0.4951	0.5996	0.356
Mof_C 	C 	0.4414	0.5203	0.5964	0.02
Mof_C 	C 	0.5035	0.5931	0.5674	-0.016
Mof_H 	H 	0.4562	0.6422	0.5458	0.062
Mof_C 	C 	0.6549	0.5786	0.5771	-0.056
Mof_H 	H 	0.7259	0.6163	0.5629	0.081
Mof_C 	C 	0.6752	0.4995	0.611	0.046
Mof_C 	C 	0.8041	0.4457	0.6353	0.303
Mof_C 	C 	0.0618	0.2882	0.5292	0.331
Mof_C 	C 	0.084	0.2014	0.4921	0.027
Mof_C 	C 	0.1076	0.12	0.52	-0.047
Mof_H 	H 	0.1136	0.1035	0.571	0.051
Mof_C 	C 	0.1215	0.0645	0.4574	-0.061
Mof_H 	H 	0.1374	0.0042	0.4592	0.045
Mof_C 	C 	0.1078	0.114	0.3956	0.038
Mof_C 	C 	0.1047	0.0926	0.3131	0.288
Mof_Zn	Zn	0.92742	0.89037	0.8377	1.251
Mof_O 	O 	0.7332	0.9306	0.8588	-0.426
Mof_O 	O 	0.8032	0.0378	0.9418	-0.411
Mof_O 	O 	0.4547	0.9623	0.8752	-0.125
Mof_O 	O 	0.2034	0.8797	0.827	-0.309
Mof_O 	O 	0.0749	0.9764	0.8835	-0.546
Mof_O 	O 	0.9416	0.7808	0.8983	-0.401
Mof_O 	O 	0.9457	0.8565	0.0084	-0.392
Mof_O 	O 	0.9161	0.7012	0.0854	-0.127
Mof_O 	O 	0.8802	0.5157	0.2057	-0.244
Mof_O 	O 	0.9101	0.6566	0.2332	-0.352
Mof_C 	C 	0.7106	0.9951	0.9004	0.409
Mof_C 	C 	0.5586	0.0203	0.9036	-0.03
Mof_C 	C 	0.4965	0.0931	0.9326	0.027
Mof_H 	H 	0.5438	0.1422	0.9542	0.065
Mof_C 	C 	0.3451	0.0786	0.9229	-0.11
Mof_H 	H 	0.2741	0.1163	0.9371	0.095
Mof_C 	C 	0.3248	0.9995	0.889	0.074
Mof_C 	C 	0.1959	0.9457	0.8647	0.303
Mof_C 	C 	0.9382	0.7882	0.9708	0.403
Mof_C 	C 	0.916	0.7014	0.0079	-0.033
Mof_C 	C 	0.8924	0.62	0.98	0.093
Mof_H 	H 	0.8864	0.6035	0.929	0.052
Mof_C 	C 	0.8785	0.5645	0.0426	-0.132
Mof_H 	H 	0.8626	0.5042	0.0408	0.117
Mof_C 	C 	0.8922	0.614	0.1044	0.097
Mof_C 	C 	0.8953	0.5926	0.1869	0.277
Mof_Zn	Zn	3.88585e-33	0.5	0.5	1.187
Mof_Zn	Zn	-0	0	-0	1.163
_end
