# CIF file generated by openbabel 3.1.0, see https://openbabel.org
data_I
_chemical_name_common 'image0'
_cell_length_a 6.682
_cell_length_b 18.446
_cell_length_c 8.477
_cell_angle_alpha 90
_cell_angle_beta 90
_cell_angle_gamma 90
_space_group_name_H-M_alt 'P 1'
_space_group_name_Hall 'P 1'
loop_
    _symmetry_equiv_pos_as_xyz
    x,y,z
loop_
    _atom_site_label
    _atom_site_type_symbol
    _atom_site_fract_x
    _atom_site_fract_y
    _atom_site_fract_z
    _atom_site_occupancy
    C1       C        0.73400    0.74400    0.02640    1.000
    H1       H        0.71260    0.78270    0.95820    1.000
    O1       O        0.33580    0.90537    0.26900    1.000
    O2       O        0.98640    0.95020    0.43170    1.000
    O3       O        0.81930    0.75750    0.15260    1.000
    O4       O        0.67420    0.68314    0.98220    1.000
    C2       C        0.23400    0.24400    0.02640    1.000
    H2       H        0.21260    0.28270    0.95820    1.000
    O5       O        0.83580    0.40537    0.26900    1.000
    O6       O        0.48640    0.45020    0.43170    1.000
    O7       O        0.31930    0.25750    0.15260    1.000
    O8       O        0.17420    0.18314    0.98220    1.000
    C3       C        0.26600    0.25600    0.52640    1.000
    H3       H        0.28740    0.21730    0.45820    1.000
    O9       O        0.66420    0.09463    0.76900    1.000
    O10      O        0.01360    0.04980    0.93170    1.000
    O11      O        0.18070    0.24250    0.65260    1.000
    O12      O        0.32580    0.31686    0.48220    1.000
    C4       C        0.76600    0.75600    0.52640    1.000
    H4       H        0.78740    0.71730    0.45820    1.000
    O13      O        0.16420    0.59463    0.76900    1.000
    O14      O        0.51360    0.54980    0.93170    1.000
    O15      O        0.68070    0.74250    0.65260    1.000
    O16      O        0.82580    0.81686    0.48220    1.000
    C5       C        0.26600    0.74400    0.47360    1.000
    H5       H        0.28740    0.78270    0.54180    1.000
    O17      O        0.66420    0.90537    0.23100    1.000
    O18      O        0.01360    0.95020    0.06830    1.000
    O19      O        0.18070    0.75750    0.34740    1.000
    O20      O        0.32580    0.68314    0.51780    1.000
    C6       C        0.76600    0.24400    0.47360    1.000
    H6       H        0.78740    0.28270    0.54180    1.000
    O21      O        0.16420    0.40537    0.23100    1.000
    O22      O        0.51360    0.45020    0.06830    1.000
    O23      O        0.68070    0.25750    0.34740    1.000
    O24      O        0.82580    0.18314    0.51780    1.000
    C7       C        0.73400    0.25600    0.97360    1.000
    H7       H        0.71260    0.21730    0.04180    1.000
    O25      O        0.33580    0.09463    0.73100    1.000
    O26      O        0.98640    0.04980    0.56830    1.000
    O27      O        0.81930    0.24250    0.84740    1.000
    O28      O        0.67420    0.31686    0.01780    1.000
    C8       C        0.23400    0.75600    0.97360    1.000
    H8       H        0.21260    0.71730    0.04180    1.000
    O29      O        0.83580    0.59463    0.73100    1.000
    O30      O        0.48640    0.54980    0.56830    1.000
    O31      O        0.31930    0.74250    0.84740    1.000
    O32      O        0.17420    0.81686    0.01780    1.000
    C9       C        0.50000    0.87520    0.25000    1.000
    H9       H        0.50000    0.82480    0.25000    1.000
    C10      C        0.00000    0.37520    0.25000    1.000
    H10      H        0.00000    0.32480    0.25000    1.000
    C11      C        0.50000    0.12480    0.75000    1.000
    H11      H        0.50000    0.17520    0.75000    1.000
    C12      C        0.00000    0.62480    0.75000    1.000
    H12      H        0.00000    0.67520    0.75000    1.000
    C13      C        0.07390    0.00000    0.50000    1.000
    H13      H        0.21310    0.00000    0.50000    1.000
    C14      C        0.57390    0.50000    0.50000    1.000
    H14      H        0.71310    0.50000    0.50000    1.000
    C15      C        0.92610    0.00000    0.00000    1.000
    H15      H        0.78690    0.00000    0.00000    1.000
    C16      C        0.42610    0.50000    0.00000    1.000
    H16      H        0.28690    0.50000    0.00000    1.000
    Dy1      Dy       0.00000    0.85736    0.25000    1.000
    Dy2      Dy       0.50000    0.35736    0.25000    1.000
    Dy3      Dy       0.00000    0.14264    0.75000    1.000
    Dy4      Dy       0.50000    0.64264    0.75000    1.000
