data_functionalizedCrystal
_audit_creation_method	'EQeq! by Chris Wilmer'
_symmetry_space_group_name_H-M	'P1'
_symmetry_Int_Tables_number	1
_symmetry_cell_setting	triclinic
loop_
_symmetry_equiv_pos_as_xyz
  x,y,z
_cell_length_a	32.032
_cell_length_b	32.032
_cell_length_c	16.7024
_cell_angle_alpha	90
_cell_angle_beta	90
_cell_angle_gamma	120
loop_
_atom_site_label
_atom_site_type_symbol
_atom_site_fract_x
_atom_site_fract_y
_atom_site_fract_z
_atom_site_charge
Mof_O 	O 	0.6592	0.2502	0.9128	-0.486
Mof_C 	C 	0.5348	0.1432	0.7382	-0.24
Mof_H 	H 	0.5037	0.1314	0.7187	0.116
Mof_C 	C 	0.5522	0.1779	0.7969	0.159
Mof_H 	H 	0.5324	0.1888	0.8179	-0.005
Mof_O 	O 	0.7498	0.409	0.9128	-0.486
Mof_C 	C 	0.8568	0.3916	0.7382	-0.24
Mof_H 	H 	0.8686	0.3723	0.7187	0.116
Mof_C 	C 	0.8221	0.3743	0.7969	0.159
Mof_H 	H 	0.8112	0.3436	0.8179	-0.004
Mof_O 	O 	0.591	0.3408	0.9128	-0.487
Mof_C 	C 	0.6084	0.4652	0.7382	-0.239
Mof_H 	H 	0.6277	0.4963	0.7187	0.116
Mof_C 	C 	0.6257	0.4478	0.7969	0.159
Mof_H 	H 	0.6564	0.4676	0.8179	-0.004
Mof_O 	O 	0.3408	0.7498	0.9128	-0.487
Mof_C 	C 	0.4652	0.8568	0.7382	-0.24
Mof_H 	H 	0.4963	0.8686	0.7187	0.117
Mof_C 	C 	0.4478	0.8221	0.7969	0.159
Mof_H 	H 	0.4676	0.8112	0.8179	-0.004
Mof_O 	O 	0.2502	0.591	0.9128	-0.487
Mof_C 	C 	0.1432	0.6084	0.7382	-0.24
Mof_H 	H 	0.1314	0.6277	0.7187	0.116
Mof_C 	C 	0.1779	0.6257	0.7969	0.159
Mof_H 	H 	0.1888	0.6564	0.8179	-0.004
Mof_O 	O 	0.409	0.6592	0.9128	-0.486
Mof_C 	C 	0.3916	0.5348	0.7382	-0.24
Mof_H 	H 	0.3723	0.5037	0.7187	0.116
Mof_C 	C 	0.3743	0.5522	0.7969	0.159
Mof_H 	H 	0.3436	0.5324	0.8179	-0.004
Mof_O 	O 	0.2502	0.6592	0.0872	-0.57
Mof_C 	C 	0.1432	0.5348	0.2618	-0.269
Mof_H 	H 	0.1314	0.5037	0.2813	0.112
Mof_C 	C 	0.1779	0.5522	0.2031	0.177
Mof_H 	H 	0.1888	0.5324	0.1821	-0.037
Mof_O 	O 	0.409	0.7498	0.0872	-0.57
Mof_C 	C 	0.3916	0.8568	0.2618	-0.269
Mof_H 	H 	0.3723	0.8686	0.2813	0.113
Mof_C 	C 	0.3743	0.8221	0.2031	0.177
Mof_H 	H 	0.3436	0.8112	0.1821	-0.036
Mof_O 	O 	0.3408	0.591	0.0872	-0.57
Mof_C 	C 	0.4652	0.6084	0.2618	-0.269
Mof_H 	H 	0.4963	0.6277	0.2813	0.112
Mof_C 	C 	0.4478	0.6257	0.2031	0.177
Mof_H 	H 	0.4676	0.6564	0.1821	-0.036
Mof_O 	O 	0.7498	0.3408	0.0872	-0.57
Mof_C 	C 	0.8568	0.4652	0.2618	-0.269
Mof_H 	H 	0.8686	0.4963	0.2813	0.113
Mof_C 	C 	0.8221	0.4478	0.2031	0.178
Mof_H 	H 	0.8112	0.4676	0.1821	-0.036
Mof_O 	O 	0.591	0.2502	0.0872	-0.57
Mof_C 	C 	0.6084	0.1432	0.2618	-0.269
Mof_H 	H 	0.6277	0.1314	0.2813	0.112
Mof_C 	C 	0.6257	0.1779	0.2031	0.177
Mof_H 	H 	0.6564	0.1888	0.1821	-0.036
Mof_O 	O 	0.6592	0.409	0.0872	-0.57
Mof_C 	C 	0.5348	0.3916	0.2618	-0.269
Mof_H 	H 	0.5037	0.3723	0.2813	0.112
Mof_C 	C 	0.5522	0.3743	0.2031	0.177
Mof_H 	H 	0.5324	0.3436	0.1821	-0.036
Mof_O 	O 	0.3408	0.7498	0.0872	-0.57
Mof_C 	C 	0.4652	0.8568	0.2618	-0.269
Mof_H 	H 	0.4963	0.8686	0.2813	0.113
Mof_C 	C 	0.4478	0.8221	0.2031	0.178
Mof_H 	H 	0.4676	0.8112	0.1821	-0.036
Mof_O 	O 	0.2502	0.591	0.0872	-0.57
Mof_C 	C 	0.1432	0.6084	0.2618	-0.269
Mof_H 	H 	0.1314	0.6277	0.2813	0.112
Mof_C 	C 	0.1779	0.6257	0.2031	0.177
Mof_H 	H 	0.1888	0.6564	0.1821	-0.036
Mof_O 	O 	0.409	0.6592	0.0872	-0.57
Mof_C 	C 	0.3916	0.5348	0.2618	-0.269
Mof_H 	H 	0.3723	0.5037	0.2813	0.112
Mof_C 	C 	0.3743	0.5522	0.2031	0.177
Mof_H 	H 	0.3436	0.5324	0.1821	-0.036
Mof_O 	O 	0.6592	0.2502	0.0872	-0.57
Mof_C 	C 	0.5348	0.1432	0.2618	-0.269
Mof_H 	H 	0.5037	0.1314	0.2813	0.112
Mof_C 	C 	0.5522	0.1779	0.2031	0.177
Mof_H 	H 	0.5324	0.1888	0.1821	-0.037
Mof_O 	O 	0.7498	0.409	0.0872	-0.57
Mof_C 	C 	0.8568	0.3916	0.2618	-0.269
Mof_H 	H 	0.8686	0.3723	0.2813	0.113
Mof_C 	C 	0.8221	0.3743	0.2031	0.177
Mof_H 	H 	0.8112	0.3436	0.1821	-0.036
Mof_O 	O 	0.591	0.3408	0.0872	-0.57
Mof_C 	C 	0.6084	0.4652	0.2618	-0.269
Mof_H 	H 	0.6277	0.4963	0.2813	0.112
Mof_C 	C 	0.6257	0.4478	0.2031	0.177
Mof_H 	H 	0.6564	0.4676	0.1821	-0.036
Mof_O 	O 	0.7498	0.3408	0.9128	-0.487
Mof_C 	C 	0.8568	0.4652	0.7382	-0.24
Mof_H 	H 	0.8686	0.4963	0.7187	0.117
Mof_C 	C 	0.8221	0.4478	0.7969	0.159
Mof_H 	H 	0.8112	0.4676	0.8179	-0.004
Mof_O 	O 	0.591	0.2502	0.9128	-0.487
Mof_C 	C 	0.6084	0.1432	0.7382	-0.24
Mof_H 	H 	0.6277	0.1314	0.7187	0.116
Mof_C 	C 	0.6257	0.1779	0.7969	0.159
Mof_H 	H 	0.6564	0.1888	0.8179	-0.004
Mof_O 	O 	0.6592	0.409	0.9128	-0.486
Mof_C 	C 	0.5348	0.3916	0.7382	-0.24
Mof_H 	H 	0.5037	0.3723	0.7187	0.116
Mof_C 	C 	0.5522	0.3743	0.7969	0.159
Mof_H 	H 	0.5324	0.3436	0.8179	-0.004
Mof_O 	O 	0.2502	0.6592	0.9128	-0.487
Mof_C 	C 	0.1432	0.5348	0.7382	-0.24
Mof_H 	H 	0.1314	0.5037	0.7187	0.116
Mof_C 	C 	0.1779	0.5522	0.7969	0.159
Mof_H 	H 	0.1888	0.5324	0.8179	-0.005
Mof_O 	O 	0.409	0.7498	0.9128	-0.486
Mof_C 	C 	0.3916	0.8568	0.7382	-0.24
Mof_H 	H 	0.3723	0.8686	0.7187	0.116
Mof_C 	C 	0.3743	0.8221	0.7969	0.159
Mof_H 	H 	0.3436	0.8112	0.8179	-0.004
Mof_O 	O 	0.3408	0.591	0.9128	-0.487
Mof_C 	C 	0.4652	0.6084	0.7382	-0.239
Mof_H 	H 	0.4963	0.6277	0.7187	0.116
Mof_C 	C 	0.4478	0.6257	0.7969	0.159
Mof_H 	H 	0.4676	0.6564	0.8179	-0.004
Mof_Mg	Mg	0.70262	0.29738	-0	1.466
Mof_Mg	Mg	0.70262	0.40524	-0	1.466
Mof_Mg	Mg	0.59476	0.29738	-0	1.465
Mof_Mg	Mg	0.29738	0.70262	-0	1.466
Mof_Mg	Mg	0.29738	0.59476	-0	1.465
Mof_Mg	Mg	0.40524	0.70262	-0	1.466
Mof_Co	Co	0.5073	0	0.5	0.573
Mof_Co	Co	-9.32088e-17	0.5073	0.5	0.573
Mof_Co	Co	0.4927	0.4927	0.5	0.573
Mof_Co	Co	0.4927	0	0.5	0.572
Mof_Co	Co	-3.19283e-17	0.4927	0.5	0.572
Mof_Co	Co	0.5073	0.5073	0.5	0.574
Mof_C 	C 	0.51985	0.0397	0.6667	0.116
Mof_C 	C 	0.5434	0.0868	0.6448	-0.184
Mof_C 	C 	0.5501	0.1002	0.5649	0.113
Mof_C 	C 	0.5122	0.0244	0.7478	-0.099
Mof_H 	H 	0.5221	0.0442	0.7927	0.079
Mof_C 	C 	0.57515	0.1503	0.5407	-0.09
Mof_H 	H 	0.58855	0.1771	0.5742	0.064
Mof_C 	C 	0.5628	0.1256	0.7082	0.192
Mof_C 	C 	0.5984	0.1968	0.8248	-0.214
Mof_C 	C 	0.6182	0.2364	0.8889	0.511
Mof_C 	C 	0.9603	0.48015	0.6667	0.115
Mof_C 	C 	0.9132	0.4566	0.6448	-0.182
Mof_C 	C 	0.8998	0.4499	0.5649	0.114
Mof_C 	C 	0.9756	0.4878	0.7478	-0.078
Mof_H 	H 	0.9558	0.4779	0.7927	0.074
Mof_C 	C 	0.8497	0.42485	0.5407	-0.09
Mof_H 	H 	0.8229	0.41145	0.5742	0.064
Mof_C 	C 	0.8744	0.4372	0.7082	0.191
Mof_C 	C 	0.8032	0.4016	0.8248	-0.214
Mof_C 	C 	0.7636	0.3818	0.8889	0.511
Mof_C 	C 	0.51985	0.48015	0.6667	0.113
Mof_C 	C 	0.5434	0.4566	0.6448	-0.182
Mof_C 	C 	0.5501	0.4499	0.5649	0.113
Mof_C 	C 	0.5122	0.4878	0.7478	-0.088
Mof_H 	H 	0.5221	0.4779	0.7927	0.076
Mof_C 	C 	0.57515	0.42485	0.5407	-0.09
Mof_H 	H 	0.58855	0.41145	0.5742	0.064
Mof_C 	C 	0.5628	0.4372	0.7082	0.191
Mof_C 	C 	0.5984	0.4016	0.8248	-0.214
Mof_C 	C 	0.6182	0.3818	0.8889	0.511
Mof_C 	C 	0.48015	0.9603	0.6667	0.115
Mof_C 	C 	0.4566	0.9132	0.6448	-0.182
Mof_C 	C 	0.4499	0.8998	0.5649	0.114
Mof_C 	C 	0.4878	0.9756	0.7478	-0.078
Mof_H 	H 	0.4779	0.9558	0.7927	0.074
Mof_C 	C 	0.42485	0.8497	0.5407	-0.09
Mof_H 	H 	0.41145	0.8229	0.5742	0.064
Mof_C 	C 	0.4372	0.8744	0.7082	0.191
Mof_C 	C 	0.4016	0.8032	0.8248	-0.214
Mof_C 	C 	0.3818	0.7636	0.8889	0.511
Mof_C 	C 	0.0397	0.51985	0.6667	0.116
Mof_C 	C 	0.0868	0.5434	0.6448	-0.184
Mof_C 	C 	0.1002	0.5501	0.5649	0.113
Mof_C 	C 	0.0244	0.5122	0.7478	-0.099
Mof_H 	H 	0.0442	0.5221	0.7927	0.079
Mof_C 	C 	0.1503	0.57515	0.5407	-0.09
Mof_H 	H 	0.1771	0.58855	0.5742	0.064
Mof_C 	C 	0.1256	0.5628	0.7082	0.192
Mof_C 	C 	0.1968	0.5984	0.8248	-0.214
Mof_C 	C 	0.2364	0.6182	0.8889	0.511
Mof_C 	C 	0.48015	0.51985	0.6667	0.113
Mof_C 	C 	0.4566	0.5434	0.6448	-0.182
Mof_C 	C 	0.4499	0.5501	0.5649	0.113
Mof_C 	C 	0.4878	0.5122	0.7478	-0.088
Mof_H 	H 	0.4779	0.5221	0.7927	0.076
Mof_C 	C 	0.42485	0.57515	0.5407	-0.09
Mof_H 	H 	0.41145	0.58855	0.5742	0.064
Mof_C 	C 	0.4372	0.5628	0.7082	0.191
Mof_C 	C 	0.4016	0.5984	0.8248	-0.214
Mof_C 	C 	0.3818	0.6182	0.8889	0.511
Mof_C 	C 	0.0397	0.51985	0.3333	0.111
Mof_C 	C 	0.0868	0.5434	0.3552	-0.193
Mof_C 	C 	0.1002	0.5501	0.4351	0.115
Mof_C 	C 	0.0244	0.5122	0.2522	-0.109
Mof_H 	H 	0.0442	0.5221	0.2073	0.052
Mof_C 	C 	0.1503	0.57515	0.4593	-0.093
Mof_H 	H 	0.1771	0.58855	0.4258	0.064
Mof_C 	C 	0.1256	0.5628	0.2918	0.203
Mof_C 	C 	0.1968	0.5984	0.1752	-0.26
Mof_C 	C 	0.2364	0.6182	0.1111	0.528
Mof_C 	C 	0.48015	0.9603	0.3333	0.11
Mof_C 	C 	0.4566	0.9132	0.3552	-0.191
Mof_C 	C 	0.4499	0.8998	0.4351	0.115
Mof_C 	C 	0.4878	0.9756	0.2522	-0.088
Mof_H 	H 	0.4779	0.9558	0.2073	0.047
Mof_C 	C 	0.42485	0.8497	0.4593	-0.093
Mof_H 	H 	0.41145	0.8229	0.4258	0.065
Mof_C 	C 	0.4372	0.8744	0.2918	0.203
Mof_C 	C 	0.4016	0.8032	0.1752	-0.26
Mof_C 	C 	0.3818	0.7636	0.1111	0.528
Mof_C 	C 	0.48015	0.51985	0.3333	0.108
Mof_C 	C 	0.4566	0.5434	0.3552	-0.191
Mof_C 	C 	0.4499	0.5501	0.4351	0.114
Mof_C 	C 	0.4878	0.5122	0.2522	-0.098
Mof_H 	H 	0.4779	0.5221	0.2073	0.049
Mof_C 	C 	0.42485	0.57515	0.4593	-0.093
Mof_H 	H 	0.41145	0.58855	0.4258	0.064
Mof_C 	C 	0.4372	0.5628	0.2918	0.202
Mof_C 	C 	0.4016	0.5984	0.1752	-0.26
Mof_C 	C 	0.3818	0.6182	0.1111	0.528
Mof_C 	C 	0.9603	0.48015	0.3333	0.11
Mof_C 	C 	0.9132	0.4566	0.3552	-0.191
Mof_C 	C 	0.8998	0.4499	0.4351	0.115
Mof_C 	C 	0.9756	0.4878	0.2522	-0.088
Mof_H 	H 	0.9558	0.4779	0.2073	0.047
Mof_C 	C 	0.8497	0.42485	0.4593	-0.093
Mof_H 	H 	0.8229	0.41145	0.4258	0.065
Mof_C 	C 	0.8744	0.4372	0.2918	0.203
Mof_C 	C 	0.8032	0.4016	0.1752	-0.26
Mof_C 	C 	0.7636	0.3818	0.1111	0.528
Mof_C 	C 	0.51985	0.0397	0.3333	0.111
Mof_C 	C 	0.5434	0.0868	0.3552	-0.193
Mof_C 	C 	0.5501	0.1002	0.4351	0.115
Mof_C 	C 	0.5122	0.0244	0.2522	-0.109
Mof_H 	H 	0.5221	0.0442	0.2073	0.052
Mof_C 	C 	0.57515	0.1503	0.4593	-0.093
Mof_H 	H 	0.58855	0.1771	0.4258	0.064
Mof_C 	C 	0.5628	0.1256	0.2918	0.203
Mof_C 	C 	0.5984	0.1968	0.1752	-0.26
Mof_C 	C 	0.6182	0.2364	0.1111	0.528
Mof_C 	C 	0.51985	0.48015	0.3333	0.108
Mof_C 	C 	0.5434	0.4566	0.3552	-0.191
Mof_C 	C 	0.5501	0.4499	0.4351	0.114
Mof_C 	C 	0.5122	0.4878	0.2522	-0.098
Mof_H 	H 	0.5221	0.4779	0.2073	0.049
Mof_C 	C 	0.57515	0.42485	0.4593	-0.093
Mof_H 	H 	0.58855	0.41145	0.4258	0.064
Mof_C 	C 	0.5628	0.4372	0.2918	0.202
Mof_C 	C 	0.5984	0.4016	0.1752	-0.26
Mof_C 	C 	0.6182	0.3818	0.1111	0.528
Mof_N 	N 	0.5	0	0.6158	-0.304
Mof_N 	N 	-3.93229e-17	0.5	0.6158	-0.304
Mof_N 	N 	0.5	0.5	0.6158	-0.301
Mof_N 	N 	-5.5174e-17	0.5	0.3842	-0.306
Mof_N 	N 	0.5	3.40175e-33	0.3842	-0.306
Mof_N 	N 	0.5	0.5	0.3842	-0.303
Mof_N 	N 	0.5359	0.0718	0.5	-0.298
Mof_N 	N 	0.9282	0.4641	0.5	-0.296
Mof_N 	N 	0.5359	0.4641	0.5	-0.297
Mof_N 	N 	0.4641	0.9282	0.5	-0.296
Mof_N 	N 	0.0718	0.5359	0.5	-0.298
Mof_N 	N 	0.4641	0.5359	0.5	-0.297
Mof_O 	O 	0.66667	0.33333	-0	-0.83
Mof_O 	O 	0.33333	0.66667	-0	-0.83
_end
