data_functionalizedCrystal
_audit_creation_method	'EQeq! by Chris Wilmer'
_symmetry_space_group_name_H-M	'P1'
_symmetry_Int_Tables_number	1
_symmetry_cell_setting	triclinic
loop_
_symmetry_equiv_pos_as_xyz
  x,y,z
_cell_length_a	6.5228
_cell_length_b	6.5228
_cell_length_c	6.5228
_cell_angle_alpha	90
_cell_angle_beta	90
_cell_angle_gamma	90
loop_
_atom_site_label
_atom_site_type_symbol
_atom_site_fract_x
_atom_site_fract_y
_atom_site_fract_z
_atom_site_charge
Mof_Cd	Cd	-0	0	-0	0.417
Mof_N 	N 	-4.65565e-33	0.3453	0.085	-0.036
Mof_N 	N 	3.87181e-33	0.6547	0.085	-0.034
Mof_N 	N 	3.4307e-33	0.3453	0.915	0.004
Mof_N 	N 	3.4307e-33	0.6547	0.915	0.004
Mof_N 	N 	0.085	-2.84249e-33	0.3453	-0.037
Mof_N 	N 	0.085	0	0.6547	-0.035
Mof_N 	N 	0.915	-2.84249e-33	0.3453	0.003
Mof_N 	N 	0.915	0	0.6547	0.004
Mof_N 	N 	0.3453	0.085	-0	-0.037
Mof_N 	N 	0.6547	0.085	-0	-0.035
Mof_N 	N 	0.3453	0.915	-0	0.003
Mof_N 	N 	0.6547	0.915	-0	0.004
Mof_N 	N 	0.3453	0	0.915	0.003
Mof_N 	N 	0.6547	0	0.915	0.004
Mof_N 	N 	0.3453	-7.10621e-34	0.085	-0.037
Mof_N 	N 	0.6547	-7.10621e-34	0.085	-0.035
Mof_N 	N 	2.45473e-33	0.085	0.6547	-0.035
Mof_N 	N 	-4.3903e-33	0.085	0.3453	-0.037
Mof_N 	N 	2.45473e-33	0.915	0.6547	0.004
Mof_N 	N 	9.82212e-33	0.915	0.3453	0.003
Mof_N 	N 	0.085	0.3453	-0	-0.037
Mof_N 	N 	0.085	0.6547	-0	-0.035
Mof_N 	N 	0.915	0.3453	-0	0.003
Mof_N 	N 	0.915	0.6547	-0	0.004
Mof_N 	N 	-5.68497e-33	0.5	-0	-0.01
Mof_N 	N 	-3.81027e-33	-5.68497e-33	0.5	-0.01
Mof_N 	N 	0.5	0	-0	-0.01
_end
