# CIF file generated by openbabel 3.1.0, see https://openbabel.org
data_I
_chemical_name_common 'image0'
_cell_length_a 13.971
_cell_length_b 12.841
_cell_length_c 7.137
_cell_angle_alpha 90
_cell_angle_beta 90.74
_cell_angle_gamma 90
_space_group_name_H-M_alt 'P 1'
_space_group_name_Hall 'P 1'
loop_
    _symmetry_equiv_pos_as_xyz
    x,y,z
loop_
    _atom_site_label
    _atom_site_type_symbol
    _atom_site_fract_x
    _atom_site_fract_y
    _atom_site_fract_z
    _atom_site_occupancy
    C1       C        0.13670    0.26550    0.82100    1.000
    H1       H        0.11380    0.29740    0.71260    1.000
    C2       C        0.14460    0.26560    0.12700    1.000
    H2       H        0.13320    0.29470    0.24400    1.000
    C3       C        0.20550    0.17260    0.11500    1.000
    H3       H        0.22340    0.13580    0.22170    1.000
    C4       C        0.19570    0.18300    0.79200    1.000
    H4       H        0.20750    0.15750    0.67250    1.000
    C5       C        0.23510    0.14170    0.94200    1.000
    C6       C        0.30220    0.04330    0.92600    1.000
    H5       H        0.27190    0.98440    0.98650    1.000
    H6       H        0.31020    0.02610    0.79500    1.000
    C7       C        0.45030    0.15180    0.97300    1.000
    H7       H        0.41940    0.21030    0.03350    1.000
    H8       H        0.44590    0.16330    0.83880    1.000
    N1       N        0.10630    0.30800    0.97940    1.000
    N2       N        0.39890    0.06170    0.01520    1.000
    H9       H        0.42260    0.01680    0.09210    1.000
    O1       O        0.01720    0.43040    0.29920    1.000
    C8       C        0.63670    0.76550    0.82100    1.000
    H10      H        0.61380    0.79740    0.71260    1.000
    C9       C        0.64460    0.76560    0.12700    1.000
    H11      H        0.63320    0.79470    0.24400    1.000
    C10      C        0.70550    0.67260    0.11500    1.000
    H12      H        0.72340    0.63580    0.22170    1.000
    C11      C        0.69570    0.68300    0.79200    1.000
    H13      H        0.70750    0.65750    0.67250    1.000
    C12      C        0.73510    0.64170    0.94200    1.000
    C13      C        0.80220    0.54330    0.92600    1.000
    H14      H        0.77190    0.48440    0.98650    1.000
    H15      H        0.81020    0.52610    0.79500    1.000
    C14      C        0.95030    0.65180    0.97300    1.000
    H16      H        0.91940    0.71030    0.03350    1.000
    H17      H        0.94590    0.66330    0.83880    1.000
    N3       N        0.60630    0.80800    0.97940    1.000
    N4       N        0.89890    0.56170    0.01520    1.000
    H18      H        0.92260    0.51680    0.09210    1.000
    O2       O        0.51720    0.93040    0.29920    1.000
    C15      C        0.86330    0.26550    0.17900    1.000
    H19      H        0.88620    0.29740    0.28740    1.000
    C16      C        0.85540    0.26560    0.87300    1.000
    H20      H        0.86680    0.29470    0.75600    1.000
    C17      C        0.79450    0.17260    0.88500    1.000
    H21      H        0.77660    0.13580    0.77830    1.000
    C18      C        0.80430    0.18300    0.20800    1.000
    H22      H        0.79250    0.15750    0.32750    1.000
    C19      C        0.76490    0.14170    0.05800    1.000
    C20      C        0.69780    0.04330    0.07400    1.000
    H23      H        0.72810    0.98440    0.01350    1.000
    H24      H        0.68980    0.02610    0.20500    1.000
    C21      C        0.54970    0.15180    0.02700    1.000
    H25      H        0.58060    0.21030    0.96650    1.000
    H26      H        0.55410    0.16330    0.16120    1.000
    N5       N        0.89370    0.30800    0.02060    1.000
    N6       N        0.60110    0.06170    0.98480    1.000
    H27      H        0.57740    0.01680    0.90790    1.000
    O3       O        0.98280    0.43040    0.70080    1.000
    C22      C        0.36330    0.76550    0.17900    1.000
    H28      H        0.38620    0.79740    0.28740    1.000
    C23      C        0.35540    0.76560    0.87300    1.000
    H29      H        0.36680    0.79470    0.75600    1.000
    C24      C        0.29450    0.67260    0.88500    1.000
    H30      H        0.27660    0.63580    0.77830    1.000
    C25      C        0.30430    0.68300    0.20800    1.000
    H31      H        0.29250    0.65750    0.32750    1.000
    C26      C        0.26490    0.64170    0.05800    1.000
    C27      C        0.19780    0.54330    0.07400    1.000
    H32      H        0.22810    0.48440    0.01350    1.000
    H33      H        0.18980    0.52610    0.20500    1.000
    C28      C        0.04970    0.65180    0.02700    1.000
    H34      H        0.08060    0.71030    0.96650    1.000
    H35      H        0.05410    0.66330    0.16120    1.000
    N7       N        0.39370    0.80800    0.02060    1.000
    N8       N        0.10110    0.56170    0.98480    1.000
    H36      H        0.07740    0.51680    0.90790    1.000
    O4       O        0.48280    0.93040    0.70080    1.000
    Mo1      Mo       0.00000    0.50868    0.50000    1.000
    Mo2      Mo       0.50000    0.00868    0.50000    1.000
    Zn1      Zn       0.00000    0.42832    0.00000    1.000
    Zn2      Zn       0.50000    0.92832    0.00000    1.000
