# CIF file generated by openbabel 3.1.0, see https://openbabel.org
data_I
_chemical_name_common 'image0'
_cell_length_a 20.6712
_cell_length_b 21.0386
_cell_length_c 21.6281
_cell_angle_alpha 62.477
_cell_angle_beta 79.558
_cell_angle_gamma 67.086
_space_group_name_H-M_alt 'P 1'
_space_group_name_Hall 'P 1'
loop_
    _symmetry_equiv_pos_as_xyz
    x,y,z
loop_
    _atom_site_label
    _atom_site_type_symbol
    _atom_site_fract_x
    _atom_site_fract_y
    _atom_site_fract_z
    _atom_site_occupancy
    O1       O        0.66217    0.46465    0.76776    1.000
    O2       O        0.74807    0.40560    0.84336    1.000
    N1       N        0.89820    0.48820    0.47950    1.000
    H1       H        0.89790    0.50970    0.50610    1.000
    N2       N        0.02700    0.38430    0.59920    1.000
    H2       H        0.00080    0.43090    0.59410    1.000
    C1       C        0.88660    0.52630    0.40900    1.000
    C2       C        0.89310    0.47240    0.38700    1.000
    H3       H        0.88900    0.48170    0.34030    1.000
    C3       C        0.90670    0.40090    0.44580    1.000
    H4       H        0.91220    0.35390    0.44590    1.000
    C4       C        0.91070    0.41140    0.50280    1.000
    C5       C        0.92790    0.35390    0.57810    1.000
    C6       C        0.00300    0.33450    0.59430    1.000
    C7       C        0.05980    0.26920    0.60480    1.000
    H5       H        0.05930    0.22440    0.60440    1.000
    C8       C        0.12000    0.27960    0.61640    1.000
    H6       H        0.16650    0.24360    0.62480    1.000
    C9       C        0.09790    0.35140    0.61310    1.000
    C10      C        0.13850    0.38730    0.62920    1.000
    C11      C        0.91860    0.27970    0.58890    1.000
    H7       H        0.86880    0.28970    0.58460    1.000
    H8       H        0.93540    0.23940    0.63540    1.000
    H9       H        0.94580    0.26320    0.55350    1.000
    C12      C        0.21700    0.35570    0.60870    1.000
    H10      H        0.23740    0.30100    0.63940    1.000
    H11      H        0.24330    0.38310    0.61360    1.000
    H12      H        0.21970    0.36310    0.56020    1.000
    C13      C        0.13370    0.36310    0.70860    1.000
    H13      H        0.08650    0.39050    0.72050    1.000
    H14      H        0.16840    0.37550    0.72220    1.000
    H15      H        0.14330    0.30780    0.73350    1.000
    C14      C        0.87620    0.38010    0.63020    1.000
    C15      C        0.80510    0.42080    0.61330    1.000
    H16      H        0.78960    0.43820    0.56760    1.000
    C16      C        0.75710    0.43590    0.66300    1.000
    H17      H        0.70880    0.46330    0.65100    1.000
    C17      C        0.77840    0.41170    0.72930    1.000
    C18      C        0.84850    0.37240    0.74640    1.000
    H18      H        0.86360    0.35590    0.79200    1.000
    C19      C        0.89750    0.35680    0.69690    1.000
    H19      H        0.94580    0.32990    0.70900    1.000
    C20      C        0.72570    0.42810    0.78330    1.000
    O3       O        0.33099    0.64613    0.99643    1.000
    O4       O        0.36090    0.73160    0.89899    1.000
    C21      C        0.90770    0.90050    0.94370    1.000
    H20      H        0.88480    0.90760    0.90550    1.000
    N3       N        0.04780    0.02300    0.89110    1.000
    H21      H        0.06840    0.99340    0.93210    1.000
    C22      C        0.88040    0.88760    0.01070    1.000
    H22      H        0.83580    0.88280    0.02610    1.000
    C23      C        0.92810    0.88300    0.05120    1.000
    N4       N        0.98500    0.89120    0.01020    1.000
    H23      H        0.02320    0.89050    0.02340    1.000
    C24      C        0.97420    0.90090    0.94370    1.000
    C25      C        0.02560    0.91780    0.88530    1.000
    C26      C        0.02210    0.00010    0.85740    1.000
    C27      C        0.99190    0.06470    0.79500    1.000
    H24      H        0.96840    0.06580    0.76050    1.000
    C28      C        0.00330    0.12580    0.79410    1.000
    H25      H        0.98920    0.17650    0.75800    1.000
    C29      C        0.03810    0.10140    0.85310    1.000
    C30      C        0.07140    0.14050    0.87330    1.000
    C31      C        0.10180    0.86310    0.90330    1.000
    C32      C        0.15680    0.88590    0.86300    1.000
    H26      H        0.14670    0.93600    0.82610    1.000
    C33      C        0.22500    0.83670    0.87650    1.000
    H27      H        0.26160    0.85240    0.84770    1.000
    C34      C        0.24120    0.76440    0.93140    1.000
    C35      C        0.18700    0.74120    0.97440    1.000
    H28      H        0.19800    0.69200    0.01260    1.000
    C36      C        0.11790    0.79000    0.96100    1.000
    H29      H        0.08130    0.77450    0.99020    1.000
    C37      C        0.31510    0.71240    0.94340    1.000
    C38      C        0.00470    0.90690    0.82660    1.000
    H30      H        0.99250    0.86050    0.84710    1.000
    H31      H        0.04410    0.90190    0.79430    1.000
    H32      H        0.96400    0.95130    0.80140    1.000
    C39      C        0.14900    0.12300    0.84180    1.000
    H33      H        0.17220    0.15190    0.84870    1.000
    H34      H        0.14660    0.13820    0.79180    1.000
    H35      H        0.17580    0.06810    0.86550    1.000
    C40      C        0.03260    0.22790    0.83550    1.000
    H36      H        0.98670    0.24180    0.85750    1.000
    H37      H        0.02600    0.24250    0.78640    1.000
    H38      H        0.06050    0.25470    0.83870    1.000
    O5       O        0.50569    0.52833    0.85161    1.000
    O6       O        0.43740    0.64826    0.79554    1.000
    N5       N        0.48790    0.40920    0.60699    1.000
    H39      H        0.50650    0.44510    0.59100    1.000
    N6       N        0.39410    0.59310    0.50763    1.000
    H40      H        0.43530    0.58640    0.52020    1.000
    C41      C        0.52420    0.33480    0.61730    1.000
    C42      C        0.47670    0.29750    0.64160    1.000
    H41      H        0.48670    0.24520    0.65310    1.000
    C43      C        0.40970    0.35110    0.64640    1.000
    H42      H        0.36720    0.34110    0.66160    1.000
    C44      C        0.41820    0.41990    0.62520    1.000
    C45      C        0.36710    0.49450    0.62450    1.000
    C46      C        0.34930    0.55590    0.55060    1.000
    C47      C        0.29050    0.58230    0.51200    1.000
    H43      H        0.25050    0.56720    0.52780    1.000
    C48      C        0.30080    0.63590    0.44430    1.000
    H44      H        0.26860    0.66310    0.40660    1.000
    C49      C        0.36500    0.64200    0.44240    1.000
    C50      C        0.39710    0.69730    0.38490    1.000
    C51      C        0.29830    0.48190    0.66120    1.000
    H45      H        0.27830    0.46510    0.63610    1.000
    H46      H        0.26450    0.52990    0.66130    1.000
    H47      H        0.30870    0.44260    0.70930    1.000
    C52      C        0.36980    0.71590    0.31370    1.000
    H48      H        0.39240    0.74880    0.27560    1.000
    H49      H        0.31880    0.74250    0.31120    1.000
    H50      H        0.38100    0.66820    0.30970    1.000
    C53      C        0.37280    0.77120    0.39300    1.000
    H51      H        0.38660    0.75990    0.43910    1.000
    H52      H        0.32160    0.79490    0.38840    1.000
    H53      H        0.39470    0.80630    0.35680    1.000
    C54      C        0.39580    0.51860    0.66770    1.000
    C55      C        0.37010    0.59390    0.65890    1.000
    H54      H        0.33670    0.63200    0.62340    1.000
    C56      C        0.39280    0.61410    0.70150    1.000
    H55      H        0.37410    0.66580    0.69510    1.000
    C57      C        0.44280    0.55990    0.75380    1.000
    C58      C        0.46780    0.48480    0.76280    1.000
    H56      H        0.50160    0.44690    0.79800    1.000
    C59      C        0.44450    0.46390    0.72150    1.000
    H57      H        0.46160    0.41170    0.72960    1.000
    C60      C        0.46320    0.58130    0.80110    1.000
    O7       O        0.53850    0.66454    0.86750    1.000
    O8       O        0.61710    0.59341    0.81700    1.000
    N7       N        0.61120    0.91150    0.51180    1.000
    H58      H        0.57300    0.90150    0.53160    1.000
    N8       N        0.51410    0.01330    0.59810    1.000
    H59      H        0.49870    0.98090    0.59590    1.000
    C61      C        0.63670    0.91440    0.44690    1.000
    C62      C        0.69490    0.93330    0.43540    1.000
    H60      H        0.72340    0.94010    0.39480    1.000
    C63      C        0.70670    0.94150    0.49450    1.000
    H61      H        0.74370    0.95460    0.50000    1.000
    C64      C        0.65440    0.92670    0.54070    1.000
    C65      C        0.64020    0.92810    0.61170    1.000
    C66      C        0.58260    0.99920    0.60750    1.000
    C67      C        0.58400    0.06500    0.60810    1.000
    H62      H        0.62430    0.07270    0.61380    1.000
    C68      C        0.51640    0.11610    0.59880    1.000
    H63      H        0.50220    0.16570    0.59690    1.000
    C69      C        0.47230    0.08450    0.59250    1.000
    C70      C        0.39580    0.11070    0.59190    1.000
    C71      C        0.70850    0.92380    0.63630    1.000
    H64      H        0.72220    0.96710    0.60200    1.000
    H65      H        0.74610    0.87580    0.64080    1.000
    H66      H        0.70020    0.92590    0.68150    1.000
    C72      C        0.36460    0.19960    0.55810    1.000
    H67      H        0.37480    0.21840    0.58780    1.000
    H68      H        0.31370    0.21660    0.55320    1.000
    H69      H        0.38570    0.21980    0.51200    1.000
    C73      C        0.36790    0.08100    0.66910    1.000
    H70      H        0.38810    0.02500    0.69220    1.000
    H71      H        0.31660    0.09720    0.66880    1.000
    H72      H        0.38170    0.10230    0.69430    1.000
    C74      C        0.62420    0.85670    0.66700    1.000
    C75      C        0.58140    0.85900    0.72380    1.000
    H73      H        0.56000    0.90580    0.72790    1.000
    C76      C        0.56950    0.79370    0.77480    1.000
    H74      H        0.54060    0.79600    0.81380    1.000
    C77      C        0.60010    0.72480    0.76900    1.000
    C78      C        0.64400    0.72170    0.71340    1.000
    H75      H        0.66670    0.67450    0.71010    1.000
    C79      C        0.65530    0.78750    0.66240    1.000
    H76      H        0.68470    0.78500    0.62370    1.000
    C80      C        0.58390    0.65560    0.82180    1.000
    O9       O        0.59530    0.36004    0.89434    1.000
    O10      O        0.52350    0.37416    0.98122    1.000
    N9       N        0.40010    0.09040    0.02068    1.000
    H77      H        0.44420    0.08250    0.02620    1.000
    N10      N        0.50760    0.08490    0.88620    1.000
    H78      H        0.52640    0.07880    0.92280    1.000
    C81      C        0.35900    0.05400    0.07110    1.000
    C82      C        0.29450    0.08100    0.04320    1.000
    H79      H        0.25570    0.06570    0.06610    1.000
    C83      C        0.29600    0.13670    0.97280    1.000
    H80      H        0.25810    0.16540    0.94070    1.000
    C84      C        0.36170    0.14160    0.95990    1.000
    C85      C        0.39400    0.18760    0.89370    1.000
    C86      C        0.44190    0.13470    0.86090    1.000
    C87      C        0.43220    0.12710    0.80400    1.000
    H81      H        0.39150    0.15460    0.77550    1.000
    C88      C        0.49410    0.07050    0.79540    1.000
    H82      H        0.50190    0.05320    0.76020    1.000
    C89      C        0.54020    0.04550    0.84630    1.000
    C90      C        0.61700    0.99670    0.85430    1.000
    C91      C        0.33370    0.25010    0.84250    1.000
    H83      H        0.30910    0.22580    0.83030    1.000
    H84      H        0.35300    0.28210    0.80010    1.000
    H85      H        0.30070    0.28180    0.86450    1.000
    C92      C        0.63180    0.94540    0.81670    1.000
    H86      H        0.68170    0.91350    0.82130    1.000
    H87      H        0.61990    0.97760    0.76730    1.000
    H88      H        0.60340    0.91260    0.83780    1.000
    C93      C        0.65990    0.05040    0.81880    1.000
    H89      H        0.65150    0.08240    0.84310    1.000
    H90      H        0.64530    0.08320    0.77000    1.000
    H91      H        0.71000    0.01980    0.82080    1.000
    C94      C        0.43370    0.22840    0.90670    1.000
    C95      C        0.48770    0.24720    0.86170    1.000
    H92      H        0.50000    0.23350    0.82380    1.000
    C96      C        0.52380    0.28590    0.87110    1.000
    H93      H        0.56090    0.29750    0.84040    1.000
    C97      C        0.50540    0.30760    0.92590    1.000
    C98      C        0.45080    0.29020    0.97000    1.000
    H94      H        0.43740    0.30540    0.00690    1.000
    C99      C        0.41510    0.25060    0.96060    1.000
    H95      H        0.37800    0.23890    0.99140    1.000
    C100     C        0.54400    0.34970    0.93470    1.000
    O11      O        0.56503    0.50504    0.97291    1.000
    Pr1      Pr       0.63163    0.45980    0.88764    1.000
    Pr2      Pr       0.45233    0.60465    0.92593    1.000
    O12      O        0.35390    0.56590    0.90890    1.000
    N11      N        0.27140    0.55030    0.86810    1.000
    C101     C        0.33700    0.53080    0.88850    1.000
    C102     C        0.21640    0.62050    0.87160    1.000
    H96      H        0.17150    0.62820    0.85550    1.000
    H97      H        0.21160    0.61430    0.91980    1.000
    H98      H        0.23030    0.66510    0.84180    1.000
    C103     C        0.26070    0.49850    0.84410    1.000
    H99      H        0.21160    0.51770    0.83060    1.000
    H100     H        0.29120    0.49740    0.80400    1.000
    H101     H        0.27250    0.44670    0.88210    1.000
    O13      O        0.35600    0.57940    0.89880    1.000
    N12      N        0.25780    0.60460    0.84770    1.000
    C104     C        0.30890    0.62250    0.85850    1.000
    C105     C        0.26030    0.52460    0.88950    1.000
    H102     H        0.22130    0.51680    0.87750    1.000
    H103     H        0.30490    0.48710    0.88440    1.000
    H104     H        0.25510    0.51810    0.93780    1.000
    C106     C        0.20740    0.67160    0.79430    1.000
    H105     H        0.17180    0.65420    0.78950    1.000
    H106     H        0.18450    0.71620    0.80440    1.000
    H107     H        0.23410    0.68560    0.75070    1.000
    O14      O        0.33783    0.53535    0.23224    1.000
    O15      O        0.25193    0.59440    0.15664    1.000
    N13      N        0.10180    0.51180    0.52050    1.000
    H108     H        0.10210    0.49030    0.49390    1.000
    N14      N        0.97300    0.61570    0.40080    1.000
    H109     H        0.99920    0.56910    0.40590    1.000
    C107     C        0.11340    0.47370    0.59100    1.000
    C108     C        0.10690    0.52760    0.61300    1.000
    H110     H        0.11100    0.51830    0.65970    1.000
    C109     C        0.09330    0.59910    0.55420    1.000
    H111     H        0.08780    0.64610    0.55410    1.000
    C110     C        0.08930    0.58860    0.49720    1.000
    C111     C        0.07210    0.64610    0.42190    1.000
    C112     C        0.99700    0.66550    0.40570    1.000
    C113     C        0.94020    0.73080    0.39520    1.000
    H112     H        0.94070    0.77560    0.39560    1.000
    C114     C        0.88000    0.72040    0.38360    1.000
    H113     H        0.83350    0.75640    0.37520    1.000
    C115     C        0.90210    0.64860    0.38690    1.000
    C116     C        0.86150    0.61270    0.37080    1.000
    C117     C        0.08140    0.72030    0.41110    1.000
    H114     H        0.13120    0.71030    0.41540    1.000
    H115     H        0.06460    0.76060    0.36460    1.000
    H116     H        0.05420    0.73680    0.44650    1.000
    C118     C        0.78300    0.64430    0.39130    1.000
    H117     H        0.76260    0.69900    0.36060    1.000
    H118     H        0.75670    0.61690    0.38640    1.000
    H119     H        0.78030    0.63690    0.43980    1.000
    C119     C        0.86630    0.63690    0.29140    1.000
    H120     H        0.91350    0.60950    0.27950    1.000
    H121     H        0.83160    0.62450    0.27780    1.000
    H122     H        0.85670    0.69220    0.26650    1.000
    C120     C        0.12380    0.61990    0.36980    1.000
    C121     C        0.19490    0.57920    0.38670    1.000
    H123     H        0.21040    0.56180    0.43240    1.000
    C122     C        0.24290    0.56410    0.33700    1.000
    H124     H        0.29120    0.53670    0.34900    1.000
    C123     C        0.22160    0.58830    0.27070    1.000
    C124     C        0.15150    0.62760    0.25360    1.000
    H125     H        0.13640    0.64410    0.20800    1.000
    C125     C        0.10250    0.64320    0.30310    1.000
    H126     H        0.05420    0.67010    0.29100    1.000
    C126     C        0.27430    0.57190    0.21670    1.000
    O16      O        0.66901    0.35387    0.00357    1.000
    O17      O        0.63910    0.26840    0.10101    1.000
    C127     C        0.09230    0.09950    0.05630    1.000
    H127     H        0.11520    0.09240    0.09450    1.000
    N15      N        0.95220    0.97700    0.10890    1.000
    H128     H        0.93160    0.00660    0.06790    1.000
    C128     C        0.11960    0.11240    0.98930    1.000
    H129     H        0.16420    0.11720    0.97390    1.000
    C129     C        0.07190    0.11700    0.94880    1.000
    N16      N        0.01500    0.10880    0.98980    1.000
    H130     H        0.97680    0.10950    0.97660    1.000
    C130     C        0.02580    0.09910    0.05630    1.000
    C131     C        0.97440    0.08220    0.11470    1.000
    C132     C        0.97790    0.99990    0.14260    1.000
    C133     C        0.00810    0.93530    0.20500    1.000
    H131     H        0.03160    0.93420    0.23950    1.000
    C134     C        0.99670    0.87420    0.20590    1.000
    H132     H        0.01080    0.82350    0.24200    1.000
    C135     C        0.96190    0.89860    0.14690    1.000
    C136     C        0.92860    0.85950    0.12670    1.000
    C137     C        0.89820    0.13690    0.09670    1.000
    C138     C        0.84320    0.11410    0.13700    1.000
    H133     H        0.85330    0.06400    0.17390    1.000
    C139     C        0.77500    0.16330    0.12350    1.000
    H134     H        0.73840    0.14760    0.15230    1.000
    C140     C        0.75880    0.23560    0.06860    1.000
    C141     C        0.81300    0.25880    0.02560    1.000
    H135     H        0.80200    0.30800    0.98740    1.000
    C142     C        0.88210    0.21000    0.03900    1.000
    H136     H        0.91870    0.22550    0.00980    1.000
    C143     C        0.68490    0.28760    0.05660    1.000
    C144     C        0.99530    0.09310    0.17340    1.000
    H137     H        0.00750    0.13950    0.15290    1.000
    H138     H        0.95590    0.09810    0.20570    1.000
    H139     H        0.03600    0.04870    0.19860    1.000
    C145     C        0.85100    0.87700    0.15820    1.000
    H140     H        0.82780    0.84810    0.15130    1.000
    H141     H        0.85340    0.86180    0.20820    1.000
    H142     H        0.82420    0.93190    0.13450    1.000
    C146     C        0.96740    0.77210    0.16450    1.000
    H143     H        0.01330    0.75820    0.14250    1.000
    H144     H        0.97400    0.75750    0.21360    1.000
    H145     H        0.93950    0.74530    0.16130    1.000
    O18      O        0.49431    0.47167    0.14839    1.000
    O19      O        0.56260    0.35174    0.20446    1.000
    N17      N        0.51210    0.59080    0.39301    1.000
    H146     H        0.49350    0.55490    0.40900    1.000
    N18      N        0.60590    0.40690    0.49237    1.000
    H147     H        0.56470    0.41360    0.47980    1.000
    C147     C        0.47580    0.66520    0.38270    1.000
    C148     C        0.52330    0.70250    0.35840    1.000
    H148     H        0.51330    0.75480    0.34690    1.000
    C149     C        0.59030    0.64890    0.35360    1.000
    H149     H        0.63280    0.65890    0.33840    1.000
    C150     C        0.58180    0.58010    0.37480    1.000
    C151     C        0.63290    0.50550    0.37550    1.000
    C152     C        0.65070    0.44410    0.44940    1.000
    C153     C        0.70950    0.41770    0.48800    1.000
    H150     H        0.74950    0.43280    0.47220    1.000
    C154     C        0.69920    0.36410    0.55570    1.000
    H151     H        0.73140    0.33690    0.59340    1.000
    C155     C        0.63500    0.35800    0.55760    1.000
    C156     C        0.60290    0.30270    0.61510    1.000
    C157     C        0.70170    0.51810    0.33880    1.000
    H152     H        0.72170    0.53490    0.36390    1.000
    H153     H        0.73550    0.47010    0.33870    1.000
    H154     H        0.69130    0.55740    0.29070    1.000
    C158     C        0.63020    0.28410    0.68630    1.000
    H155     H        0.60760    0.25120    0.72440    1.000
    H156     H        0.68120    0.25750    0.68880    1.000
    H157     H        0.61900    0.33180    0.69030    1.000
    C159     C        0.62720    0.22880    0.60700    1.000
    H158     H        0.61340    0.24010    0.56090    1.000
    H159     H        0.67840    0.20510    0.61160    1.000
    H160     H        0.60530    0.19370    0.64320    1.000
    C160     C        0.60420    0.48140    0.33230    1.000
    C161     C        0.62990    0.40610    0.34110    1.000
    H161     H        0.66330    0.36800    0.37660    1.000
    C162     C        0.60720    0.38590    0.29850    1.000
    H162     H        0.62590    0.33420    0.30490    1.000
    C163     C        0.55720    0.44010    0.24620    1.000
    C164     C        0.53220    0.51520    0.23720    1.000
    H163     H        0.49840    0.55310    0.20200    1.000
    C165     C        0.55550    0.53610    0.27850    1.000
    H164     H        0.53840    0.58830    0.27040    1.000
    C166     C        0.53680    0.41870    0.19890    1.000
    O20      O        0.46150    0.33546    0.13250    1.000
    O21      O        0.38290    0.40659    0.18300    1.000
    N19      N        0.38880    0.08850    0.48820    1.000
    H165     H        0.42700    0.09850    0.46840    1.000
    N20      N        0.48590    0.98670    0.40190    1.000
    H166     H        0.50130    0.01910    0.40410    1.000
    C167     C        0.36330    0.08560    0.55310    1.000
    C168     C        0.30510    0.06670    0.56460    1.000
    H167     H        0.27660    0.05990    0.60520    1.000
    C169     C        0.29330    0.05850    0.50550    1.000
    H168     H        0.25630    0.04540    0.50000    1.000
    C170     C        0.34560    0.07330    0.45930    1.000
    C171     C        0.35980    0.07190    0.38830    1.000
    C172     C        0.41740    0.00080    0.39250    1.000
    C173     C        0.41600    0.93500    0.39190    1.000
    H169     H        0.37570    0.92730    0.38620    1.000
    C174     C        0.48360    0.88390    0.40120    1.000
    H170     H        0.49780    0.83430    0.40310    1.000
    C175     C        0.52770    0.91550    0.40750    1.000
    C176     C        0.60420    0.88930    0.40810    1.000
    C177     C        0.29150    0.07620    0.36370    1.000
    H171     H        0.27780    0.03290    0.39800    1.000
    H172     H        0.25390    0.12420    0.35920    1.000
    H173     H        0.29980    0.07410    0.31850    1.000
    C178     C        0.63540    0.80040    0.44190    1.000
    H174     H        0.62520    0.78160    0.41220    1.000
    H175     H        0.68630    0.78340    0.44680    1.000
    H176     H        0.61430    0.78020    0.48800    1.000
    C179     C        0.63210    0.91900    0.33090    1.000
    H177     H        0.61190    0.97500    0.30780    1.000
    H178     H        0.68340    0.90280    0.33120    1.000
    H179     H        0.61830    0.89770    0.30570    1.000
    C180     C        0.37580    0.14330    0.33300    1.000
    C181     C        0.41860    0.14100    0.27620    1.000
    H180     H        0.44000    0.09420    0.27210    1.000
    C182     C        0.43050    0.20630    0.22520    1.000
    H181     H        0.45940    0.20400    0.18620    1.000
    C183     C        0.39990    0.27520    0.23100    1.000
    C184     C        0.35600    0.27830    0.28660    1.000
    H182     H        0.33330    0.32550    0.28990    1.000
    C185     C        0.34470    0.21250    0.33760    1.000
    H183     H        0.31530    0.21500    0.37630    1.000
    C186     C        0.41610    0.34440    0.17820    1.000
    O22      O        0.40470    0.63996    0.10566    1.000
    O23      O        0.47650    0.62584    0.01878    1.000
    N21      N        0.59990    0.90960    0.97932    1.000
    H184     H        0.55580    0.91750    0.97380    1.000
    N22      N        0.49240    0.91510    0.11380    1.000
    H185     H        0.47360    0.92120    0.07720    1.000
    C187     C        0.64100    0.94600    0.92890    1.000
    C188     C        0.70550    0.91900    0.95680    1.000
    H186     H        0.74430    0.93430    0.93390    1.000
    C189     C        0.70400    0.86330    0.02720    1.000
    H187     H        0.74190    0.83460    0.05930    1.000
    C190     C        0.63830    0.85840    0.04010    1.000
    C191     C        0.60600    0.81240    0.10630    1.000
    C192     C        0.55810    0.86530    0.13910    1.000
    C193     C        0.56780    0.87290    0.19600    1.000
    H188     H        0.60850    0.84540    0.22450    1.000
    C194     C        0.50590    0.92950    0.20460    1.000
    H189     H        0.49810    0.94680    0.23980    1.000
    C195     C        0.45980    0.95450    0.15370    1.000
    C196     C        0.38300    0.00330    0.14570    1.000
    C197     C        0.66630    0.74990    0.15750    1.000
    H190     H        0.69090    0.77420    0.16970    1.000
    H191     H        0.64700    0.71790    0.19990    1.000
    H192     H        0.69930    0.71820    0.13550    1.000
    C198     C        0.36820    0.05460    0.18330    1.000
    H193     H        0.31830    0.08650    0.17870    1.000
    H194     H        0.38010    0.02240    0.23270    1.000
    H195     H        0.39660    0.08740    0.16220    1.000
    C199     C        0.34010    0.94960    0.18120    1.000
    H196     H        0.34850    0.91760    0.15690    1.000
    H197     H        0.35470    0.91680    0.23000    1.000
    H198     H        0.29000    0.98020    0.17920    1.000
    C200     C        0.56630    0.77160    0.09330    1.000
    C201     C        0.51230    0.75280    0.13830    1.000
    H199     H        0.50000    0.76650    0.17620    1.000
    C202     C        0.47620    0.71410    0.12890    1.000
    H200     H        0.43910    0.70250    0.15960    1.000
    C203     C        0.49460    0.69240    0.07410    1.000
    C204     C        0.54920    0.70980    0.03000    1.000
    H201     H        0.56260    0.69460    0.99310    1.000
    C205     C        0.58490    0.74940    0.03940    1.000
    H202     H        0.62200    0.76110    0.00860    1.000
    C206     C        0.45600    0.65030    0.06530    1.000
    O24      O        0.43497    0.49496    0.02709    1.000
    Pr3      Pr       0.36837    0.54020    0.11236    1.000
    Pr4      Pr       0.54767    0.39535    0.07407    1.000
    O25      O        0.64610    0.43410    0.09110    1.000
    N23      N        0.72860    0.44970    0.13190    1.000
    C207     C        0.66300    0.46920    0.11150    1.000
    C208     C        0.78360    0.37950    0.12840    1.000
    H203     H        0.82850    0.37180    0.14450    1.000
    H204     H        0.78840    0.38570    0.08020    1.000
    H205     H        0.76970    0.33490    0.15820    1.000
    C209     C        0.73930    0.50150    0.15590    1.000
    H206     H        0.78840    0.48230    0.16940    1.000
    H207     H        0.70880    0.50260    0.19600    1.000
    H208     H        0.72750    0.55330    0.11790    1.000
    O26      O        0.64400    0.42060    0.10120    1.000
    N24      N        0.74220    0.39540    0.15230    1.000
    C210     C        0.69110    0.37750    0.14150    1.000
    C211     C        0.73970    0.47540    0.11050    1.000
    H209     H        0.77870    0.48320    0.12250    1.000
    H210     H        0.69510    0.51290    0.11560    1.000
    H211     H        0.74490    0.48190    0.06220    1.000
    C212     C        0.79260    0.32840    0.20570    1.000
    H212     H        0.82820    0.34580    0.21050    1.000
    H213     H        0.81550    0.28380    0.19560    1.000
    H214     H        0.76590    0.31440    0.24930    1.000
