# CIF file generated by openbabel 3.1.0, see https://openbabel.org
data_I
_chemical_name_common 'image0'
_cell_length_a 13.6605
_cell_length_b 15.0103
_cell_length_c 18.5345
_cell_angle_alpha 69.051
_cell_angle_beta 71.145
_cell_angle_gamma 65.014
_space_group_name_H-M_alt 'P 1'
_space_group_name_Hall 'P 1'
loop_
    _symmetry_equiv_pos_as_xyz
    x,y,z
loop_
    _atom_site_label
    _atom_site_type_symbol
    _atom_site_fract_x
    _atom_site_fract_y
    _atom_site_fract_z
    _atom_site_occupancy
    Dy1      Dy       0.84786    0.49709    0.13764    1.000
    Dy2      Dy       0.62999    0.50384    0.36986    1.000
    O1       O        0.40660    0.61360    0.51440    1.000
    O2       O        0.51730    0.65960    0.40180    1.000
    O3       O        0.64740    0.36580    0.32470    1.000
    O4       O        0.01140    0.37240    0.10310    1.000
    O5       O        0.92280    0.42950    0.24920    1.000
    O6       O        0.77100    0.37920    0.21260    1.000
    O7       O        0.09110    0.39720    0.97650    1.000
    O8       O        0.82280    0.63790    0.17700    1.000
    O9       O        0.67010    0.60560    0.12050    1.000
    O10      O        0.58750    0.58280    0.24600    1.000
    O11      O        0.73320    0.60880    0.30120    1.000
    O12      O        0.81430    0.39130    0.36610    1.000
    N1       N        0.42940    0.88450    0.05760    1.000
    N2       N        0.18730    0.06420    0.14630    1.000
    N3       N        0.81210    0.09550    0.19840    1.000
    N4       N        0.70470    0.88720    0.31880    1.000
    N5       N        0.32360    0.96080    0.36820    1.000
    N6       N        0.06460    0.12960    0.44780    1.000
    C1       C        0.07570    0.34230    0.04420    1.000
    C2       C        0.59410    0.63270    0.17610    1.000
    C3       C        0.35150    0.92450    0.11520    1.000
    C4       C        0.50310    0.79080    0.07770    1.000
    H1       H        0.55520    0.76230    0.03780    1.000
    C5       C        0.50480    0.73450    0.15570    1.000
    C6       C        0.42250    0.77540    0.21600    1.000
    H2       H        0.41980    0.73860    0.26850    1.000
    C7       C        0.34590    0.87120    0.19540    1.000
    H3       H        0.29120    0.90030    0.23400    1.000
    C8       C        0.27560    0.03040    0.09100    1.000
    C9       C        0.12400    0.16280    0.12800    1.000
    H4       H        0.06230    0.18660    0.16550    1.000
    C10      C        0.14450    0.22990    0.05780    1.000
    C11      C        0.23250    0.19360    0.00040    1.000
    H5       H        0.24690    0.23710    0.95110    1.000
    C12      C        0.29960    0.09160    0.01690    1.000
    H6       H        0.35890    0.06550    0.97900    1.000
    C13      C        0.71400    0.33400    0.26750    1.000
    C14      C        0.75500    0.03970    0.26010    1.000
    C15      C        0.79760    0.19170    0.20120    1.000
    H7       H        0.83420    0.23090    0.15960    1.000
    C16      C        0.72960    0.23010    0.26470    1.000
    C17      C        0.67720    0.16910    0.32760    1.000
    H8       H        0.63380    0.19320    0.37160    1.000
    C18      C        0.68850    0.07440    0.32590    1.000
    H9       H        0.65260    0.03480    0.36760    1.000
    C19      C        0.76280    0.94170    0.25620    1.000
    C20      C        0.71020    0.79620    0.31290    1.000
    H10      H        0.67260    0.75790    0.35440    1.000
    C21      C        0.77050    0.76020    0.24640    1.000
    C22      C        0.82840    0.81830    0.18440    1.000
    H11      H        0.86910    0.79540    0.13950    1.000
    C23      C        0.82530    0.90880    0.18960    1.000
    H12      H        0.86440    0.94670    0.14910    1.000
    C24      C        0.77580    0.66060    0.24120    1.000
    C25      C        0.90390    0.37510    0.31820    1.000
    C26      C        0.15210    0.09340    0.39280    1.000
    C27      C        0.99060    0.22200    0.42280    1.000
    H13      H        0.93060    0.24900    0.46000    1.000
    C28      C        0.99880    0.27920    0.34440    1.000
    C29      C        0.09020    0.24300    0.28930    1.000
    H14      H        0.10010    0.28070    0.23700    1.000
    C30      C        0.16680    0.14820    0.31470    1.000
    H15      H        0.22900    0.12120    0.27880    1.000
    C31      C        0.22820    0.98820    0.41850    1.000
    C32      C        0.38810    0.86360    0.38400    1.000
    H16      H        0.45570    0.84460    0.34970    1.000
    C33      C        0.36180    0.78950    0.44750    1.000
    C34      C        0.26520    0.82000    0.50180    1.000
    H17      H        0.24650    0.77370    0.54800    1.000
    C35      C        0.19770    0.92080    0.48590    1.000
    H18      H        0.13170    0.94280    0.52080    1.000
    C36      C        0.43530    0.67830    0.45600    1.000
    Dy3      Dy       0.15214    0.50291    0.86236    1.000
    Dy4      Dy       0.37001    0.49616    0.63014    1.000
    O13      O        0.59340    0.38640    0.48560    1.000
    O14      O        0.48270    0.34040    0.59820    1.000
    O15      O        0.35260    0.63420    0.67530    1.000
    O16      O        0.98860    0.62760    0.89690    1.000
    O17      O        0.07720    0.57050    0.75080    1.000
    O18      O        0.22900    0.62080    0.78740    1.000
    O19      O        0.90890    0.60280    0.02350    1.000
    O20      O        0.17720    0.36210    0.82300    1.000
    O21      O        0.32990    0.39440    0.87950    1.000
    O22      O        0.41250    0.41720    0.75400    1.000
    O23      O        0.26680    0.39120    0.69880    1.000
    O24      O        0.18570    0.60870    0.63390    1.000
    N7       N        0.57060    0.11550    0.94240    1.000
    N8       N        0.81270    0.93580    0.85370    1.000
    N9       N        0.18790    0.90450    0.80160    1.000
    N10      N        0.29530    0.11280    0.68120    1.000
    N11      N        0.67640    0.03920    0.63180    1.000
    N12      N        0.93540    0.87040    0.55220    1.000
    C37      C        0.92430    0.65770    0.95580    1.000
    C38      C        0.40590    0.36730    0.82390    1.000
    C39      C        0.64850    0.07550    0.88480    1.000
    C40      C        0.49690    0.20920    0.92230    1.000
    H19      H        0.44480    0.23770    0.96220    1.000
    C41      C        0.49520    0.26550    0.84430    1.000
    C42      C        0.57750    0.22460    0.78400    1.000
    H20      H        0.58020    0.26140    0.73150    1.000
    C43      C        0.65410    0.12880    0.80460    1.000
    H21      H        0.70880    0.09970    0.76600    1.000
    C44      C        0.72440    0.96960    0.90900    1.000
    C45      C        0.87600    0.83720    0.87200    1.000
    H22      H        0.93770    0.81340    0.83450    1.000
    C46      C        0.85550    0.77010    0.94220    1.000
    C47      C        0.76750    0.80640    0.99960    1.000
    H23      H        0.75310    0.76290    0.04890    1.000
    C48      C        0.70040    0.90840    0.98310    1.000
    H24      H        0.64110    0.93450    0.02100    1.000
    C49      C        0.28600    0.66600    0.73250    1.000
    C50      C        0.24500    0.96030    0.73990    1.000
    C51      C        0.20240    0.80830    0.79880    1.000
    H25      H        0.16580    0.76910    0.84040    1.000
    C52      C        0.27040    0.76990    0.73530    1.000
    C53      C        0.32280    0.83090    0.67240    1.000
    H26      H        0.36620    0.80680    0.62840    1.000
    C54      C        0.31150    0.92560    0.67410    1.000
    H27      H        0.34740    0.96520    0.63240    1.000
    C55      C        0.23720    0.05830    0.74380    1.000
    C56      C        0.28980    0.20380    0.68710    1.000
    H28      H        0.32740    0.24210    0.64560    1.000
    C57      C        0.22950    0.23980    0.75360    1.000
    C58      C        0.17160    0.18170    0.81560    1.000
    H29      H        0.13090    0.20460    0.86050    1.000
    C59      C        0.17470    0.09120    0.81040    1.000
    H30      H        0.13560    0.05330    0.85090    1.000
    C60      C        0.22420    0.33940    0.75880    1.000
    C61      C        0.09610    0.62490    0.68180    1.000
    C62      C        0.84790    0.90660    0.60720    1.000
    C63      C        0.00940    0.77800    0.57720    1.000
    H31      H        0.06940    0.75100    0.54000    1.000
    C64      C        0.00120    0.72080    0.65560    1.000
    C65      C        0.90980    0.75700    0.71070    1.000
    H32      H        0.89990    0.71930    0.76300    1.000
    C66      C        0.83320    0.85180    0.68530    1.000
    H33      H        0.77100    0.87880    0.72120    1.000
    C67      C        0.77180    0.01180    0.58150    1.000
    C68      C        0.61190    0.13640    0.61600    1.000
    H34      H        0.54430    0.15540    0.65030    1.000
    C69      C        0.63820    0.21050    0.55250    1.000
    C70      C        0.73480    0.18000    0.49820    1.000
    H35      H        0.75350    0.22630    0.45200    1.000
    C71      C        0.80230    0.07920    0.51410    1.000
    H36      H        0.86830    0.05720    0.47920    1.000
    C72      C        0.56470    0.32170    0.54400    1.000
