data_functionalizedCrystal
_audit_creation_method	'EQeq! by Chris Wilmer'
_symmetry_space_group_name_H-M	'P1'
_symmetry_Int_Tables_number	1
_symmetry_cell_setting	triclinic
loop_
_symmetry_equiv_pos_as_xyz
  x,y,z
_cell_length_a	7.3333
_cell_length_b	10.1729
_cell_length_c	18.153
_cell_angle_alpha	90
_cell_angle_beta	90
_cell_angle_gamma	94.379
loop_
_atom_site_label
_atom_site_type_symbol
_atom_site_fract_x
_atom_site_fract_y
_atom_site_fract_z
_atom_site_charge
Mof_Cu	Cu	0.86557	0.2171	0.90573	0.918
Mof_Cu	Cu	0.04401	0.93194	0.93145	0.934
Mof_Cu	Cu	0.63443	0.2829	0.40573	0.917
Mof_Cu	Cu	0.45599	0.56806	0.43145	0.939
Mof_Cu	Cu	0.13443	0.7829	0.09427	0.918
Mof_Cu	Cu	0.95599	0.06806	0.06855	0.934
Mof_Cu	Cu	0.36557	0.7171	0.59427	0.917
Mof_Cu	Cu	0.54401	0.43194	0.56855	0.939
Mof_H 	H 	0.7825	0.1656	0.6922	0.048
Mof_H 	H 	0.9379	0.7962	0.7067	0.035
Mof_H 	H 	0.7789	0.9381	0.5116	0.029
Mof_H 	H 	0.7175	0.3344	0.1922	0.045
Mof_H 	H 	0.5621	0.7038	0.2067	0.032
Mof_H 	H 	0.7211	0.5619	0.0116	0.029
Mof_H 	H 	0.2175	0.8344	0.3078	0.048
Mof_H 	H 	0.0621	0.2038	0.2933	0.035
Mof_H 	H 	0.2211	0.0619	0.4884	0.029
Mof_H 	H 	0.2825	0.6656	0.8078	0.045
Mof_H 	H 	0.4379	0.2962	0.7933	0.032
Mof_H 	H 	0.2789	0.4381	0.9884	0.029
Mof_C 	C 	0.8628	0.8497	0.6045	-0.147
Mof_C 	C 	0.7716	0.0701	0.5955	-0.129
Mof_C 	C 	0.8043	0.0859	0.67	0.061
Mof_C 	C 	0.8693	0.9852	0.7131	-0.122
Mof_C 	C 	0.9023	0.0093	0.7924	0.375
Mof_C 	C 	0.8969	0.8653	0.6793	0.064
Mof_C 	C 	0.8007	0.9503	0.5617	0.064
Mof_C 	C 	0.6997	0.183	0.5536	0.393
Mof_C 	C 	0.6372	0.6503	0.1045	-0.149
Mof_C 	C 	0.7284	0.4299	0.0955	-0.127
Mof_C 	C 	0.6957	0.4141	0.17	0.068
Mof_C 	C 	0.6307	0.5148	0.2131	-0.132
Mof_C 	C 	0.5977	0.4907	0.2924	0.385
Mof_C 	C 	0.6031	0.6347	0.1793	0.068
Mof_C 	C 	0.6993	0.5497	0.0617	0.061
Mof_C 	C 	0.8003	0.317	0.0536	0.389
Mof_C 	C 	0.1372	0.1503	0.3955	-0.147
Mof_C 	C 	0.2284	0.9299	0.4045	-0.129
Mof_C 	C 	0.1957	0.9141	0.33	0.061
Mof_C 	C 	0.1307	0.0148	0.2869	-0.122
Mof_C 	C 	0.0977	0.9907	0.2076	0.375
Mof_C 	C 	0.1031	0.1347	0.3207	0.064
Mof_C 	C 	0.1993	0.0497	0.4383	0.064
Mof_C 	C 	0.3003	0.817	0.4464	0.393
Mof_C 	C 	0.3628	0.3497	0.8955	-0.149
Mof_C 	C 	0.2716	0.5701	0.9045	-0.127
Mof_C 	C 	0.3043	0.5859	0.83	0.068
Mof_C 	C 	0.3693	0.4852	0.7869	-0.132
Mof_C 	C 	0.4023	0.5093	0.7076	0.385
Mof_C 	C 	0.3969	0.3653	0.8207	0.068
Mof_C 	C 	0.3007	0.4503	0.9383	0.061
Mof_C 	C 	0.1997	0.683	0.9464	0.389
Mof_S 	S 	0.88017	0.69104	0.56548	0.542
Mof_S 	S 	0.61983	0.80896	0.06548	0.54
Mof_S 	S 	0.11983	0.30896	0.43452	0.542
Mof_S 	S 	0.38017	0.19104	0.93452	0.54
Mof_O 	O 	0.9473	0.9141	0.8322	-0.372
Mof_O 	O 	0.8704	0.0571	0.9653	-0.486
Mof_O 	O 	0.6595	0.1635	0.487	-0.431
Mof_O 	O 	0.8816	0.1254	0.8142	-0.41
Mof_O 	O 	0.8718	0.7026	0.4872	-0.281
Mof_O 	O 	0.6869	0.2862	0.5901	-0.393
Mof_O 	O 	0.726	0.613	0.5968	-0.377
Mof_O 	O 	0.0498	0.645	0.5933	-0.314
Mof_O 	O 	0.5527	0.5859	0.3322	-0.379
Mof_O 	O 	0.6296	0.4429	0.4653	-0.487
Mof_O 	O 	0.8405	0.3365	0.987	-0.427
Mof_O 	O 	0.6184	0.3746	0.3142	-0.412
Mof_O 	O 	0.6282	0.7974	0.9872	-0.281
Mof_O 	O 	0.8131	0.2138	0.0901	-0.394
Mof_O 	O 	0.774	0.887	0.0968	-0.375
Mof_O 	O 	0.4502	0.855	0.0933	-0.311
Mof_O 	O 	0.0527	0.0859	0.1678	-0.372
Mof_O 	O 	0.1296	0.9429	0.0347	-0.486
Mof_O 	O 	0.3405	0.8365	0.513	-0.431
Mof_O 	O 	0.1184	0.8746	0.1858	-0.41
Mof_O 	O 	0.1282	0.2974	0.5128	-0.281
Mof_O 	O 	0.3131	0.7138	0.4099	-0.393
Mof_O 	O 	0.274	0.387	0.4032	-0.377
Mof_O 	O 	0.9502	0.355	0.4067	-0.314
Mof_O 	O 	0.4473	0.4141	0.6678	-0.379
Mof_O 	O 	0.3704	0.5571	0.5347	-0.487
Mof_O 	O 	0.1595	0.6635	0.013	-0.427
Mof_O 	O 	0.3816	0.6254	0.6858	-0.412
Mof_O 	O 	0.3718	0.2026	0.0128	-0.281
Mof_O 	O 	0.1869	0.7862	0.9099	-0.394
Mof_O 	O 	0.226	0.113	0.9032	-0.375
Mof_O 	O 	0.5498	0.145	0.9067	-0.311
_end
