data_functionalizedCrystal
_audit_creation_method	'EQeq! by Chris Wilmer'
_symmetry_space_group_name_H-M	'P1'
_symmetry_Int_Tables_number	1
_symmetry_cell_setting	triclinic
loop_
_symmetry_equiv_pos_as_xyz
  x,y,z
_cell_length_a	20.8616
_cell_length_b	35.5933
_cell_length_c	22.2038
_cell_angle_alpha	90
_cell_angle_beta	90
_cell_angle_gamma	90
loop_
_atom_site_label
_atom_site_type_symbol
_atom_site_fract_x
_atom_site_fract_y
_atom_site_fract_z
_atom_site_charge
Mof_Cd	Cd	0.40466	0.918	0.63419	0.378
Mof_Cd	Cd	0.26923	0.8435	0.61816	0.459
Mof_Cd	Cd	0.14386	0.16525	0.75714	0.464
Mof_Cd	Cd	0.1515	0.09194	0.63343	0.376
Mof_Cd	Cd	0.09534	0.582	0.13419	0.378
Mof_Cd	Cd	0.23077	0.6565	0.11816	0.459
Mof_Cd	Cd	0.35614	0.33475	0.25714	0.464
Mof_Cd	Cd	0.3485	0.40806	0.13343	0.376
Mof_Cd	Cd	0.40466	0.082	0.86581	0.378
Mof_Cd	Cd	0.26923	0.1565	0.88184	0.459
Mof_Cd	Cd	0.14386	0.83475	0.74286	0.464
Mof_Cd	Cd	0.1515	0.90806	0.86657	0.376
Mof_Cd	Cd	0.09534	0.418	0.36581	0.378
Mof_Cd	Cd	0.23077	0.3435	0.38184	0.459
Mof_Cd	Cd	0.35614	0.66525	0.24286	0.464
Mof_Cd	Cd	0.3485	0.59194	0.36657	0.376
Mof_Cd	Cd	0.59534	0.082	0.36581	0.378
Mof_Cd	Cd	0.73077	0.1565	0.38184	0.459
Mof_Cd	Cd	0.85614	0.83475	0.24286	0.463
Mof_Cd	Cd	0.8485	0.90806	0.36657	0.375
Mof_Cd	Cd	0.90466	0.418	0.86581	0.377
Mof_Cd	Cd	0.76923	0.3435	0.88184	0.458
Mof_Cd	Cd	0.64386	0.66525	0.74286	0.463
Mof_Cd	Cd	0.6515	0.59194	0.86657	0.375
Mof_Cd	Cd	0.59534	0.918	0.13419	0.377
Mof_Cd	Cd	0.73077	0.8435	0.11816	0.458
Mof_Cd	Cd	0.85614	0.16525	0.25714	0.463
Mof_Cd	Cd	0.8485	0.09194	0.13343	0.375
Mof_Cd	Cd	0.90466	0.582	0.63419	0.377
Mof_Cd	Cd	0.76923	0.6565	0.61816	0.458
Mof_Cd	Cd	0.64386	0.33475	0.75714	0.463
Mof_Cd	Cd	0.6515	0.40806	0.63343	0.375
Mof_H 	H 	0.566	0.804	0.7379	0.081
Mof_H 	H 	0.4341	0.73	0.6749	0.084
Mof_H 	H 	0.5051	0.6815	0.7032	0.033
Mof_H 	H 	0.6274	0.7536	0.7697	0.037
Mof_H 	H 	0.9479	0.8743	0.5793	0.086
Mof_H 	H 	0.0842	0.9002	0.4548	0.091
Mof_H 	H 	0.0024	0.912	0.3856	0.036
Mof_H 	H 	0.8705	0.8936	0.5079	0.015
Mof_H 	H 	0.2348	0.0191	0.6666	0.065
Mof_H 	H 	0.413	0.0542	0.714	0.07
Mof_H 	H 	0.4527	0.0012	0.6694	0.005
Mof_H 	H 	0.2807	0.9664	0.625	0.041
Mof_H 	H 	0.3221	0.7096	0.5406	0.079
Mof_H 	H 	0.2673	0.7801	0.402	0.086
Mof_H 	H 	0.2534	0.8267	0.474	0.029
Mof_H 	H 	0.2975	0.76	0.6052	0.044
Mof_H 	H 	0.934	0.696	0.2379	0.081
Mof_H 	H 	0.0659	0.77	0.1749	0.084
Mof_H 	H 	0.9949	0.8185	0.2032	0.033
Mof_H 	H 	0.8726	0.7464	0.2697	0.037
Mof_H 	H 	0.5521	0.6257	0.0793	0.086
Mof_H 	H 	0.4158	0.5998	0.9548	0.091
Mof_H 	H 	0.4976	0.588	0.8856	0.036
Mof_H 	H 	0.6295	0.6064	0.0079	0.015
Mof_H 	H 	0.2652	0.4809	0.1666	0.065
Mof_H 	H 	0.087	0.4458	0.214	0.07
Mof_H 	H 	0.0473	0.4988	0.1694	0.005
Mof_H 	H 	0.2193	0.5336	0.125	0.041
Mof_H 	H 	0.1779	0.7904	0.0406	0.079
Mof_H 	H 	0.2327	0.7199	0.902	0.086
Mof_H 	H 	0.2466	0.6733	0.974	0.029
Mof_H 	H 	0.2025	0.74	0.1052	0.044
Mof_H 	H 	0.566	0.196	0.7621	0.081
Mof_H 	H 	0.4341	0.27	0.8251	0.084
Mof_H 	H 	0.5051	0.3185	0.7968	0.033
Mof_H 	H 	0.6274	0.2464	0.7303	0.037
Mof_H 	H 	0.9479	0.1257	0.9207	0.085
Mof_H 	H 	0.0842	0.0998	0.0452	0.091
Mof_H 	H 	0.0024	0.088	0.1144	0.036
Mof_H 	H 	0.8705	0.1064	0.9921	0.015
Mof_H 	H 	0.2348	0.9809	0.8334	0.065
Mof_H 	H 	0.413	0.9458	0.786	0.07
Mof_H 	H 	0.4527	0.9988	0.8306	0.005
Mof_H 	H 	0.2807	0.0336	0.875	0.041
Mof_H 	H 	0.3221	0.2904	0.9594	0.079
Mof_H 	H 	0.2673	0.2199	0.098	0.086
Mof_H 	H 	0.2534	0.1733	0.026	0.029
Mof_H 	H 	0.2975	0.24	0.8948	0.044
Mof_H 	H 	0.934	0.304	0.2621	0.081
Mof_H 	H 	0.0659	0.23	0.3251	0.084
Mof_H 	H 	0.9949	0.1815	0.2968	0.033
Mof_H 	H 	0.8726	0.2536	0.2303	0.037
Mof_H 	H 	0.5521	0.3743	0.4207	0.086
Mof_H 	H 	0.4158	0.4002	0.5452	0.091
Mof_H 	H 	0.4976	0.412	0.6144	0.036
Mof_H 	H 	0.6295	0.3936	0.4921	0.015
Mof_H 	H 	0.2652	0.5191	0.3334	0.065
Mof_H 	H 	0.087	0.5542	0.286	0.07
Mof_H 	H 	0.0473	0.5012	0.3306	0.005
Mof_H 	H 	0.2193	0.4664	0.375	0.041
Mof_H 	H 	0.1779	0.2096	0.4594	0.079
Mof_H 	H 	0.2327	0.2801	0.598	0.086
Mof_H 	H 	0.2466	0.3267	0.526	0.029
Mof_H 	H 	0.2025	0.26	0.3948	0.044
Mof_H 	H 	0.434	0.196	0.2621	0.081
Mof_H 	H 	0.5659	0.27	0.3251	0.084
Mof_H 	H 	0.4949	0.3185	0.2968	0.033
Mof_H 	H 	0.3726	0.2464	0.2303	0.037
Mof_H 	H 	0.0521	0.1257	0.4207	0.086
Mof_H 	H 	0.9158	0.0998	0.5452	0.091
Mof_H 	H 	0.9976	0.088	0.6144	0.036
Mof_H 	H 	0.1295	0.1064	0.4921	0.015
Mof_H 	H 	0.7652	0.9809	0.3334	0.065
Mof_H 	H 	0.587	0.9458	0.286	0.07
Mof_H 	H 	0.5473	0.9988	0.3306	0.005
Mof_H 	H 	0.7193	0.0336	0.375	0.041
Mof_H 	H 	0.6779	0.2904	0.4594	0.079
Mof_H 	H 	0.7327	0.2199	0.598	0.086
Mof_H 	H 	0.7466	0.1733	0.526	0.029
Mof_H 	H 	0.7025	0.24	0.3948	0.044
Mof_H 	H 	0.066	0.304	0.7621	0.081
Mof_H 	H 	0.9341	0.23	0.8251	0.084
Mof_H 	H 	0.0051	0.1815	0.7968	0.033
Mof_H 	H 	0.1274	0.2536	0.7303	0.037
Mof_H 	H 	0.4479	0.3743	0.9207	0.086
Mof_H 	H 	0.5842	0.4002	0.0452	0.091
Mof_H 	H 	0.5024	0.412	0.1144	0.036
Mof_H 	H 	0.3705	0.3936	0.9921	0.015
Mof_H 	H 	0.7348	0.5191	0.8334	0.065
Mof_H 	H 	0.913	0.5542	0.786	0.07
Mof_H 	H 	0.9527	0.5012	0.8306	0.005
Mof_H 	H 	0.7807	0.4664	0.875	0.041
Mof_H 	H 	0.8221	0.2096	0.9594	0.079
Mof_H 	H 	0.7673	0.2801	0.098	0.086
Mof_H 	H 	0.7534	0.3267	0.026	0.029
Mof_H 	H 	0.7975	0.26	0.8948	0.044
Mof_H 	H 	0.434	0.804	0.2379	0.081
Mof_H 	H 	0.5659	0.73	0.1749	0.084
Mof_H 	H 	0.4949	0.6815	0.2032	0.033
Mof_H 	H 	0.3726	0.7536	0.2697	0.037
Mof_H 	H 	0.0521	0.8743	0.0793	0.085
Mof_H 	H 	0.9158	0.9002	0.9548	0.091
Mof_H 	H 	0.9976	0.912	0.8856	0.036
Mof_H 	H 	0.1295	0.8936	0.0079	0.015
Mof_H 	H 	0.7652	0.0191	0.1666	0.065
Mof_H 	H 	0.587	0.0542	0.214	0.07
Mof_H 	H 	0.5473	0.0012	0.1694	0.005
Mof_H 	H 	0.7193	0.9664	0.125	0.041
Mof_H 	H 	0.6779	0.7096	0.0406	0.079
Mof_H 	H 	0.7327	0.7801	0.902	0.086
Mof_H 	H 	0.7466	0.8267	0.974	0.029
Mof_H 	H 	0.7025	0.76	0.1052	0.044
Mof_H 	H 	0.066	0.696	0.7379	0.081
Mof_H 	H 	0.9341	0.77	0.6749	0.084
Mof_H 	H 	0.0051	0.8185	0.7032	0.033
Mof_H 	H 	0.1274	0.7464	0.7697	0.037
Mof_H 	H 	0.4479	0.6257	0.5793	0.086
Mof_H 	H 	0.5842	0.5998	0.4548	0.091
Mof_H 	H 	0.5024	0.588	0.3856	0.036
Mof_H 	H 	0.3705	0.6064	0.5079	0.015
Mof_H 	H 	0.7348	0.4809	0.6666	0.065
Mof_H 	H 	0.913	0.4458	0.714	0.07
Mof_H 	H 	0.9527	0.4988	0.6694	0.005
Mof_H 	H 	0.7807	0.5336	0.625	0.041
Mof_H 	H 	0.8221	0.7904	0.5406	0.079
Mof_H 	H 	0.7673	0.7199	0.402	0.086
Mof_H 	H 	0.7534	0.6733	0.474	0.029
Mof_H 	H 	0.7975	0.74	0.6052	0.044
Mof_C 	C 	0.4545	0.8034	0.6804	0.109
Mof_C 	C 	0.4929	0.7729	0.7015	0.047
Mof_C 	C 	0.5516	0.7791	0.7306	-0.1
Mof_C 	C 	0.4743	0.7358	0.6927	-0.101
Mof_C 	C 	0.5172	0.7067	0.7111	0.076
Mof_C 	C 	0.5885	0.7488	0.7487	0.071
Mof_C 	C 	0.074	0.8742	0.5666	0.102
Mof_C 	C 	0.023	0.8854	0.5225	0.062
Mof_C 	C 	0.9599	0.8828	0.5403	-0.115
Mof_C 	C 	0.0405	0.8974	0.4659	-0.118
Mof_C 	C 	0.9914	0.9053	0.4257	0.079
Mof_C 	C 	0.9145	0.8936	0.4969	0.07
Mof_C 	C 	0.2899	0.0736	0.7292	0.105
Mof_C 	C 	0.3187	0.0427	0.6972	0.033
Mof_C 	C 	0.2799	0.0156	0.6686	-0.098
Mof_C 	C 	0.3845	0.0365	0.6965	-0.108
Mof_C 	C 	0.4075	0.0047	0.6703	0.072
Mof_C 	C 	0.3073	0.9845	0.6441	0.059
Mof_C 	C 	0.302	0.7079	0.4203	0.11
Mof_C 	C 	0.2922	0.7387	0.4623	0.044
Mof_C 	C 	0.3057	0.7327	0.5256	-0.098
Mof_C 	C 	0.2739	0.7747	0.4435	-0.106
Mof_C 	C 	0.2659	0.8023	0.4869	0.079
Mof_C 	C 	0.2926	0.7636	0.5631	0.071
Mof_C 	C 	0.0455	0.6966	0.1804	0.109
Mof_C 	C 	0.0071	0.7271	0.2015	0.047
Mof_C 	C 	0.9484	0.7209	0.2306	-0.1
Mof_C 	C 	0.0257	0.7642	0.1927	-0.101
Mof_C 	C 	0.9828	0.7933	0.2111	0.076
Mof_C 	C 	0.9115	0.7512	0.2487	0.071
Mof_C 	C 	0.426	0.6258	0.0666	0.102
Mof_C 	C 	0.477	0.6146	0.0225	0.062
Mof_C 	C 	0.5401	0.6172	0.0403	-0.115
Mof_C 	C 	0.4595	0.6026	0.9659	-0.118
Mof_C 	C 	0.5086	0.5947	0.9257	0.079
Mof_C 	C 	0.5855	0.6064	0.9969	0.07
Mof_C 	C 	0.2101	0.4264	0.2292	0.105
Mof_C 	C 	0.1813	0.4573	0.1972	0.033
Mof_C 	C 	0.2201	0.4844	0.1686	-0.098
Mof_C 	C 	0.1155	0.4635	0.1965	-0.108
Mof_C 	C 	0.0925	0.4953	0.1703	0.071
Mof_C 	C 	0.1927	0.5155	0.1441	0.059
Mof_C 	C 	0.198	0.7921	0.9203	0.11
Mof_C 	C 	0.2078	0.7613	0.9623	0.044
Mof_C 	C 	0.1943	0.7673	0.0256	-0.097
Mof_C 	C 	0.2261	0.7253	0.9435	-0.106
Mof_C 	C 	0.2341	0.6977	0.9869	0.079
Mof_C 	C 	0.2074	0.7364	0.0631	0.071
Mof_C 	C 	0.4545	0.1966	0.8196	0.109
Mof_C 	C 	0.4929	0.2271	0.7985	0.047
Mof_C 	C 	0.5516	0.2209	0.7694	-0.1
Mof_C 	C 	0.4743	0.2642	0.8073	-0.101
Mof_C 	C 	0.5172	0.2933	0.7889	0.076
Mof_C 	C 	0.5885	0.2512	0.7513	0.071
Mof_C 	C 	0.074	0.1258	0.9334	0.102
Mof_C 	C 	0.023	0.1146	0.9775	0.062
Mof_C 	C 	0.9599	0.1172	0.9597	-0.114
Mof_C 	C 	0.0405	0.1026	0.0341	-0.118
Mof_C 	C 	0.9914	0.0947	0.0743	0.079
Mof_C 	C 	0.9145	0.1064	0.0031	0.07
Mof_C 	C 	0.2899	0.9264	0.7708	0.105
Mof_C 	C 	0.3187	0.9573	0.8028	0.033
Mof_C 	C 	0.2799	0.9844	0.8314	-0.099
Mof_C 	C 	0.3845	0.9635	0.8035	-0.108
Mof_C 	C 	0.4075	0.9953	0.8297	0.071
Mof_C 	C 	0.3073	0.0155	0.8559	0.06
Mof_C 	C 	0.302	0.2921	0.0797	0.11
Mof_C 	C 	0.2922	0.2613	0.0377	0.044
Mof_C 	C 	0.3057	0.2673	0.9744	-0.098
Mof_C 	C 	0.2739	0.2253	0.0565	-0.106
Mof_C 	C 	0.2659	0.1977	0.0131	0.079
Mof_C 	C 	0.2926	0.2364	0.9369	0.071
Mof_C 	C 	0.0455	0.3034	0.3196	0.109
Mof_C 	C 	0.0071	0.2729	0.2985	0.047
Mof_C 	C 	0.9484	0.2791	0.2694	-0.1
Mof_C 	C 	0.0257	0.2358	0.3073	-0.101
Mof_C 	C 	0.9828	0.2067	0.2889	0.076
Mof_C 	C 	0.9115	0.2488	0.2513	0.071
Mof_C 	C 	0.426	0.3742	0.4334	0.102
Mof_C 	C 	0.477	0.3854	0.4775	0.062
Mof_C 	C 	0.5401	0.3828	0.4597	-0.115
Mof_C 	C 	0.4595	0.3974	0.5341	-0.118
Mof_C 	C 	0.5086	0.4053	0.5743	0.079
Mof_C 	C 	0.5855	0.3936	0.5031	0.07
Mof_C 	C 	0.2101	0.5736	0.2708	0.105
Mof_C 	C 	0.1813	0.5427	0.3028	0.033
Mof_C 	C 	0.2201	0.5156	0.3314	-0.098
Mof_C 	C 	0.1155	0.5365	0.3035	-0.108
Mof_C 	C 	0.0925	0.5047	0.3297	0.071
Mof_C 	C 	0.1927	0.4845	0.3559	0.059
Mof_C 	C 	0.198	0.2079	0.5797	0.11
Mof_C 	C 	0.2078	0.2387	0.5377	0.044
Mof_C 	C 	0.1943	0.2327	0.4744	-0.098
Mof_C 	C 	0.2261	0.2747	0.5565	-0.106
Mof_C 	C 	0.2341	0.3023	0.5131	0.079
Mof_C 	C 	0.2074	0.2636	0.4369	0.071
Mof_C 	C 	0.5455	0.1966	0.3196	0.109
Mof_C 	C 	0.5071	0.2271	0.2985	0.047
Mof_C 	C 	0.4484	0.2209	0.2694	-0.1
Mof_C 	C 	0.5257	0.2642	0.3073	-0.101
Mof_C 	C 	0.4828	0.2933	0.2889	0.076
Mof_C 	C 	0.4115	0.2512	0.2513	0.071
Mof_C 	C 	0.926	0.1258	0.4334	0.102
Mof_C 	C 	0.977	0.1146	0.4775	0.062
Mof_C 	C 	0.0401	0.1172	0.4597	-0.115
Mof_C 	C 	0.9595	0.1026	0.5341	-0.118
Mof_C 	C 	0.0086	0.0947	0.5743	0.079
Mof_C 	C 	0.0855	0.1064	0.5031	0.07
Mof_C 	C 	0.7101	0.9264	0.2708	0.105
Mof_C 	C 	0.6813	0.9573	0.3028	0.033
Mof_C 	C 	0.7201	0.9844	0.3314	-0.098
Mof_C 	C 	0.6155	0.9635	0.3035	-0.108
Mof_C 	C 	0.5925	0.9953	0.3297	0.072
Mof_C 	C 	0.6927	0.0155	0.3559	0.059
Mof_C 	C 	0.698	0.2921	0.5797	0.11
Mof_C 	C 	0.7078	0.2613	0.5377	0.044
Mof_C 	C 	0.6943	0.2673	0.4744	-0.098
Mof_C 	C 	0.7261	0.2253	0.5565	-0.106
Mof_C 	C 	0.7341	0.1977	0.5131	0.079
Mof_C 	C 	0.7074	0.2364	0.4369	0.071
Mof_C 	C 	0.9545	0.3034	0.8196	0.109
Mof_C 	C 	0.9929	0.2729	0.7985	0.047
Mof_C 	C 	0.0516	0.2791	0.7694	-0.1
Mof_C 	C 	0.9743	0.2358	0.8073	-0.101
Mof_C 	C 	0.0172	0.2067	0.7889	0.076
Mof_C 	C 	0.0885	0.2488	0.7513	0.071
Mof_C 	C 	0.574	0.3742	0.9334	0.102
Mof_C 	C 	0.523	0.3854	0.9775	0.062
Mof_C 	C 	0.4599	0.3828	0.9597	-0.115
Mof_C 	C 	0.5405	0.3974	0.0341	-0.118
Mof_C 	C 	0.4914	0.4053	0.0743	0.079
Mof_C 	C 	0.4145	0.3936	0.0031	0.07
Mof_C 	C 	0.7899	0.5736	0.7708	0.105
Mof_C 	C 	0.8187	0.5427	0.8028	0.033
Mof_C 	C 	0.7799	0.5156	0.8314	-0.098
Mof_C 	C 	0.8845	0.5365	0.8035	-0.108
Mof_C 	C 	0.9075	0.5047	0.8297	0.071
Mof_C 	C 	0.8073	0.4845	0.8559	0.059
Mof_C 	C 	0.802	0.2079	0.0797	0.11
Mof_C 	C 	0.7922	0.2387	0.0377	0.044
Mof_C 	C 	0.8057	0.2327	0.9744	-0.097
Mof_C 	C 	0.7739	0.2747	0.0565	-0.106
Mof_C 	C 	0.7659	0.3023	0.0131	0.079
Mof_C 	C 	0.7926	0.2636	0.9369	0.071
Mof_C 	C 	0.5455	0.8034	0.1804	0.109
Mof_C 	C 	0.5071	0.7729	0.2015	0.047
Mof_C 	C 	0.4484	0.7791	0.2306	-0.1
Mof_C 	C 	0.5257	0.7358	0.1927	-0.101
Mof_C 	C 	0.4828	0.7067	0.2111	0.076
Mof_C 	C 	0.4115	0.7488	0.2487	0.071
Mof_C 	C 	0.926	0.8742	0.0666	0.102
Mof_C 	C 	0.977	0.8854	0.0225	0.062
Mof_C 	C 	0.0401	0.8828	0.0403	-0.114
Mof_C 	C 	0.9595	0.8974	0.9659	-0.118
Mof_C 	C 	0.0086	0.9053	0.9257	0.079
Mof_C 	C 	0.0855	0.8936	0.9969	0.07
Mof_C 	C 	0.7101	0.0736	0.2292	0.105
Mof_C 	C 	0.6813	0.0427	0.1972	0.033
Mof_C 	C 	0.7201	0.0156	0.1686	-0.099
Mof_C 	C 	0.6155	0.0365	0.1965	-0.108
Mof_C 	C 	0.5925	0.0047	0.1703	0.071
Mof_C 	C 	0.6927	0.9845	0.1441	0.06
Mof_C 	C 	0.698	0.7079	0.9203	0.11
Mof_C 	C 	0.7078	0.7387	0.9623	0.044
Mof_C 	C 	0.6943	0.7327	0.0256	-0.098
Mof_C 	C 	0.7261	0.7747	0.9435	-0.106
Mof_C 	C 	0.7341	0.8023	0.9869	0.079
Mof_C 	C 	0.7074	0.7636	0.0631	0.071
Mof_C 	C 	0.9545	0.6966	0.6804	0.109
Mof_C 	C 	0.9929	0.7271	0.7015	0.047
Mof_C 	C 	0.0516	0.7209	0.7306	-0.1
Mof_C 	C 	0.9743	0.7642	0.6927	-0.101
Mof_C 	C 	0.0172	0.7933	0.7111	0.076
Mof_C 	C 	0.0885	0.7512	0.7487	0.071
Mof_C 	C 	0.574	0.6258	0.5666	0.102
Mof_C 	C 	0.523	0.6146	0.5225	0.062
Mof_C 	C 	0.4599	0.6172	0.5403	-0.115
Mof_C 	C 	0.5405	0.6026	0.4659	-0.118
Mof_C 	C 	0.4914	0.5947	0.4257	0.079
Mof_C 	C 	0.4145	0.6064	0.4969	0.07
Mof_C 	C 	0.7899	0.4264	0.7292	0.105
Mof_C 	C 	0.8187	0.4573	0.6972	0.033
Mof_C 	C 	0.7799	0.4844	0.6686	-0.098
Mof_C 	C 	0.8845	0.4635	0.6965	-0.108
Mof_C 	C 	0.9075	0.4953	0.6703	0.071
Mof_C 	C 	0.8073	0.5155	0.6441	0.059
Mof_C 	C 	0.802	0.7921	0.4203	0.11
Mof_C 	C 	0.7922	0.7613	0.4623	0.044
Mof_C 	C 	0.8057	0.7673	0.5256	-0.098
Mof_C 	C 	0.7739	0.7253	0.4435	-0.106
Mof_C 	C 	0.7659	0.6977	0.4869	0.079
Mof_C 	C 	0.7926	0.7364	0.5631	0.071
Mof_N 	N 	0.4186	0.8574	0.6545	-0.076
Mof_N 	N 	0.3746	0.8312	0.6438	-0.06
Mof_N 	N 	0.4729	0.8392	0.6797	-0.093
Mof_N 	N 	0.3955	0.7969	0.6596	-0.082
Mof_N 	N 	0.5716	0.7124	0.7378	-0.139
Mof_N 	N 	0.1641	0.8587	0.6036	-0.064
Mof_N 	N 	0.1197	0.8545	0.6456	-0.06
Mof_N 	N 	0.0625	0.8637	0.623	-0.082
Mof_N 	N 	0.1362	0.872	0.5518	-0.081
Mof_N 	N 	0.9303	0.9041	0.4402	-0.146
Mof_N 	N 	0.2712	0.1165	0.7923	-0.057
Mof_N 	N 	0.2237	0.1167	0.754	-0.059
Mof_N 	N 	0.2337	0.09035	0.7136	-0.106
Mof_N 	N 	0.3133	0.08907	0.7772	-0.101
Mof_N 	N 	0.3714	0.9785	0.6463	-0.15
Mof_N 	N 	0.3237	0.6792	0.3392	-0.061
Mof_N 	N 	0.3187	0.6553	0.3829	-0.065
Mof_N 	N 	0.3083	0.6726	0.4366	-0.092
Mof_N 	N 	0.3117	0.7143	0.3614	-0.082
Mof_N 	N 	0.2744	0.7968	0.5447	-0.141
Mof_N 	N 	0.0814	0.6426	0.1545	-0.076
Mof_N 	N 	0.1254	0.6688	0.1438	-0.06
Mof_N 	N 	0.0271	0.6608	0.1797	-0.093
Mof_N 	N 	0.1045	0.7031	0.1596	-0.082
Mof_N 	N 	0.9284	0.7876	0.2378	-0.139
Mof_N 	N 	0.3359	0.6413	0.1036	-0.064
Mof_N 	N 	0.3803	0.6455	0.1456	-0.06
Mof_N 	N 	0.4375	0.6363	0.123	-0.082
Mof_N 	N 	0.3638	0.628	0.0518	-0.081
Mof_N 	N 	0.5697	0.5959	0.9402	-0.146
Mof_N 	N 	0.2288	0.3835	0.2923	-0.057
Mof_N 	N 	0.2763	0.3833	0.254	-0.059
Mof_N 	N 	0.2663	0.40965	0.2136	-0.106
Mof_N 	N 	0.1867	0.41093	0.2772	-0.101
Mof_N 	N 	0.1286	0.5215	0.1463	-0.15
Mof_N 	N 	0.1763	0.8208	0.8392	-0.061
Mof_N 	N 	0.1813	0.8447	0.8829	-0.065
Mof_N 	N 	0.1917	0.8274	0.9366	-0.092
Mof_N 	N 	0.1883	0.7857	0.8614	-0.082
Mof_N 	N 	0.2256	0.7032	0.0447	-0.141
Mof_N 	N 	0.4186	0.1426	0.8455	-0.076
Mof_N 	N 	0.3746	0.1688	0.8562	-0.06
Mof_N 	N 	0.4729	0.1608	0.8203	-0.093
Mof_N 	N 	0.3955	0.2031	0.8404	-0.082
Mof_N 	N 	0.5716	0.2876	0.7622	-0.139
Mof_N 	N 	0.1641	0.1413	0.8964	-0.064
Mof_N 	N 	0.1197	0.1455	0.8544	-0.06
Mof_N 	N 	0.0625	0.1363	0.877	-0.082
Mof_N 	N 	0.1362	0.128	0.9482	-0.081
Mof_N 	N 	0.9303	0.0959	0.0598	-0.146
Mof_N 	N 	0.2712	0.8835	0.7077	-0.057
Mof_N 	N 	0.2237	0.8833	0.746	-0.059
Mof_N 	N 	0.2337	0.90965	0.7864	-0.106
Mof_N 	N 	0.3133	0.91093	0.7228	-0.101
Mof_N 	N 	0.3714	0.0215	0.8537	-0.149
Mof_N 	N 	0.3237	0.3208	0.1608	-0.061
Mof_N 	N 	0.3187	0.3447	0.1171	-0.065
Mof_N 	N 	0.3083	0.3274	0.0634	-0.092
Mof_N 	N 	0.3117	0.2857	0.1386	-0.082
Mof_N 	N 	0.2744	0.2032	0.9553	-0.141
Mof_N 	N 	0.0814	0.3574	0.3455	-0.076
Mof_N 	N 	0.1254	0.3312	0.3562	-0.06
Mof_N 	N 	0.0271	0.3392	0.3203	-0.093
Mof_N 	N 	0.1045	0.2969	0.3404	-0.082
Mof_N 	N 	0.9284	0.2124	0.2622	-0.139
Mof_N 	N 	0.3359	0.3587	0.3964	-0.064
Mof_N 	N 	0.3803	0.3545	0.3544	-0.06
Mof_N 	N 	0.4375	0.3637	0.377	-0.082
Mof_N 	N 	0.3638	0.372	0.4482	-0.081
Mof_N 	N 	0.5697	0.4041	0.5598	-0.146
Mof_N 	N 	0.2288	0.6165	0.2077	-0.057
Mof_N 	N 	0.2763	0.6167	0.246	-0.059
Mof_N 	N 	0.2663	0.59035	0.2864	-0.106
Mof_N 	N 	0.1867	0.58907	0.2228	-0.101
Mof_N 	N 	0.1286	0.4785	0.3537	-0.15
Mof_N 	N 	0.1763	0.1792	0.6608	-0.061
Mof_N 	N 	0.1813	0.1553	0.6171	-0.065
Mof_N 	N 	0.1917	0.1726	0.5634	-0.092
Mof_N 	N 	0.1883	0.2143	0.6386	-0.082
Mof_N 	N 	0.2256	0.2968	0.4553	-0.141
Mof_N 	N 	0.5814	0.1426	0.3455	-0.076
Mof_N 	N 	0.6254	0.1688	0.3562	-0.06
Mof_N 	N 	0.5271	0.1608	0.3203	-0.093
Mof_N 	N 	0.6045	0.2031	0.3404	-0.082
Mof_N 	N 	0.4284	0.2876	0.2622	-0.139
Mof_N 	N 	0.8359	0.1413	0.3964	-0.064
Mof_N 	N 	0.8803	0.1455	0.3544	-0.06
Mof_N 	N 	0.9375	0.1363	0.377	-0.082
Mof_N 	N 	0.8638	0.128	0.4482	-0.081
Mof_N 	N 	0.0697	0.0959	0.5598	-0.146
Mof_N 	N 	0.7288	0.8835	0.2077	-0.057
Mof_N 	N 	0.7763	0.8833	0.246	-0.059
Mof_N 	N 	0.7663	0.90965	0.2864	-0.106
Mof_N 	N 	0.6867	0.91093	0.2228	-0.101
Mof_N 	N 	0.6286	0.0215	0.3537	-0.15
Mof_N 	N 	0.6763	0.3208	0.6608	-0.061
Mof_N 	N 	0.6813	0.3447	0.6171	-0.065
Mof_N 	N 	0.6917	0.3274	0.5634	-0.092
Mof_N 	N 	0.6883	0.2857	0.6386	-0.082
Mof_N 	N 	0.7256	0.2032	0.4553	-0.141
Mof_N 	N 	0.9186	0.3574	0.8455	-0.076
Mof_N 	N 	0.8746	0.3312	0.8562	-0.06
Mof_N 	N 	0.9729	0.3392	0.8203	-0.093
Mof_N 	N 	0.8955	0.2969	0.8404	-0.082
Mof_N 	N 	0.0716	0.2124	0.7622	-0.139
Mof_N 	N 	0.6641	0.3587	0.8964	-0.064
Mof_N 	N 	0.6197	0.3545	0.8544	-0.06
Mof_N 	N 	0.5625	0.3637	0.877	-0.082
Mof_N 	N 	0.6362	0.372	0.9482	-0.081
Mof_N 	N 	0.4303	0.4041	0.0598	-0.146
Mof_N 	N 	0.7712	0.6165	0.7077	-0.057
Mof_N 	N 	0.7237	0.6167	0.746	-0.059
Mof_N 	N 	0.7337	0.59035	0.7864	-0.106
Mof_N 	N 	0.8133	0.58907	0.7228	-0.101
Mof_N 	N 	0.8714	0.4785	0.8537	-0.15
Mof_N 	N 	0.8237	0.1792	0.1608	-0.061
Mof_N 	N 	0.8187	0.1553	0.1171	-0.065
Mof_N 	N 	0.8083	0.1726	0.0634	-0.092
Mof_N 	N 	0.8117	0.2143	0.1386	-0.082
Mof_N 	N 	0.7744	0.2968	0.9553	-0.141
Mof_N 	N 	0.5814	0.8574	0.1545	-0.076
Mof_N 	N 	0.6254	0.8312	0.1438	-0.06
Mof_N 	N 	0.5271	0.8392	0.1797	-0.093
Mof_N 	N 	0.6045	0.7969	0.1596	-0.082
Mof_N 	N 	0.4284	0.7124	0.2378	-0.139
Mof_N 	N 	0.8359	0.8587	0.1036	-0.064
Mof_N 	N 	0.8803	0.8545	0.1456	-0.06
Mof_N 	N 	0.9375	0.8637	0.123	-0.082
Mof_N 	N 	0.8638	0.872	0.0518	-0.081
Mof_N 	N 	0.0697	0.9041	0.9402	-0.146
Mof_N 	N 	0.7288	0.1165	0.2923	-0.057
Mof_N 	N 	0.7763	0.1167	0.254	-0.059
Mof_N 	N 	0.7663	0.09035	0.2136	-0.106
Mof_N 	N 	0.6867	0.08907	0.2772	-0.101
Mof_N 	N 	0.6286	0.9785	0.1463	-0.149
Mof_N 	N 	0.6763	0.6792	0.8392	-0.061
Mof_N 	N 	0.6813	0.6553	0.8829	-0.065
Mof_N 	N 	0.6917	0.6726	0.9366	-0.092
Mof_N 	N 	0.6883	0.7143	0.8614	-0.082
Mof_N 	N 	0.7256	0.7968	0.0447	-0.141
Mof_N 	N 	0.9186	0.6426	0.6545	-0.076
Mof_N 	N 	0.8746	0.6688	0.6438	-0.06
Mof_N 	N 	0.9729	0.6608	0.6797	-0.093
Mof_N 	N 	0.8955	0.7031	0.6596	-0.082
Mof_N 	N 	0.0716	0.7876	0.7378	-0.139
Mof_N 	N 	0.6641	0.6413	0.6036	-0.064
Mof_N 	N 	0.6197	0.6455	0.6456	-0.06
Mof_N 	N 	0.5625	0.6363	0.623	-0.082
Mof_N 	N 	0.6362	0.628	0.5518	-0.081
Mof_N 	N 	0.4303	0.5959	0.4402	-0.146
Mof_N 	N 	0.7712	0.3835	0.7923	-0.057
Mof_N 	N 	0.7237	0.3833	0.754	-0.059
Mof_N 	N 	0.7337	0.40965	0.7136	-0.106
Mof_N 	N 	0.8133	0.41093	0.7772	-0.101
Mof_N 	N 	0.8714	0.5215	0.6463	-0.15
Mof_N 	N 	0.8237	0.8208	0.3392	-0.061
Mof_N 	N 	0.8187	0.8447	0.3829	-0.065
Mof_N 	N 	0.8083	0.8274	0.4366	-0.092
Mof_N 	N 	0.8117	0.7857	0.3614	-0.082
Mof_N 	N 	0.7744	0.7032	0.5447	-0.141
Mof_Cl	Cl	0.31245	0.9014	0.55945	-0.372
Mof_Cl	Cl	0.23074	0.79197	0.69555	-0.364
Mof_Cl	Cl	0.06724	0.11483	0.71244	-0.369
Mof_Cl	Cl	0.18755	0.5986	0.05945	-0.372
Mof_Cl	Cl	0.26926	0.70803	0.19555	-0.364
Mof_Cl	Cl	0.43276	0.38517	0.21244	-0.369
Mof_Cl	Cl	0.31245	0.0986	0.94055	-0.372
Mof_Cl	Cl	0.23074	0.20803	0.80445	-0.364
Mof_Cl	Cl	0.06724	0.88517	0.78756	-0.369
Mof_Cl	Cl	0.18755	0.4014	0.44055	-0.372
Mof_Cl	Cl	0.26926	0.29197	0.30445	-0.364
Mof_Cl	Cl	0.43276	0.61483	0.28756	-0.369
Mof_Cl	Cl	0.68755	0.0986	0.44055	-0.372
Mof_Cl	Cl	0.76926	0.20803	0.30445	-0.364
Mof_Cl	Cl	0.93276	0.88517	0.28756	-0.369
Mof_Cl	Cl	0.81245	0.4014	0.94055	-0.372
Mof_Cl	Cl	0.73074	0.29197	0.80445	-0.364
Mof_Cl	Cl	0.56724	0.61483	0.78756	-0.369
Mof_Cl	Cl	0.68755	0.9014	0.05945	-0.372
Mof_Cl	Cl	0.76926	0.79197	0.19555	-0.364
Mof_Cl	Cl	0.93276	0.11483	0.21244	-0.369
Mof_Cl	Cl	0.81245	0.5986	0.55945	-0.372
Mof_Cl	Cl	0.73074	0.70803	0.69555	-0.364
Mof_Cl	Cl	0.56724	0.38517	0.71244	-0.369
_end
