# CIF file generated by openbabel 3.1.0, see https://openbabel.org
data_I
_chemical_name_common 'SIKYER_clean'
_cell_length_a 11.716
_cell_length_b 13.693
_cell_length_c 13.8
_cell_angle_alpha 90
_cell_angle_beta 99.44
_cell_angle_gamma 90
_space_group_name_H-M_alt 'P 1'
_space_group_name_Hall 'P 1'
loop_
    _symmetry_equiv_pos_as_xyz
    x,y,z
loop_
    _atom_site_label
    _atom_site_type_symbol
    _atom_site_fract_x
    _atom_site_fract_y
    _atom_site_fract_z
    _atom_site_occupancy
    Eu1      Eu       0.61352    0.04016    0.91342    1.000
    Eu2      Eu       0.88648    0.54016    0.58658    1.000
    Eu3      Eu       0.38648    0.95984    0.08658    1.000
    Eu4      Eu       0.11352    0.45984    0.41342    1.000
    H1       H        0.85550    0.76550    0.05900    1.000
    H2       H        0.94180    0.66330    0.18220    1.000
    H3       H        0.67800    0.70590    0.32870    1.000
    H4       H        0.59130    0.81050    0.20680    1.000
    H5       H        0.42990    0.12340    0.58860    1.000
    H6       H        0.64880    0.90100    0.57370    1.000
    H7       H        0.64450    0.26550    0.44100    1.000
    H8       H        0.55820    0.16330    0.31780    1.000
    H9       H        0.82200    0.20590    0.17130    1.000
    H10      H        0.90870    0.31050    0.29320    1.000
    H11      H        0.07010    0.62340    0.91140    1.000
    H12      H        0.85120    0.40100    0.92630    1.000
    H13      H        0.14450    0.23450    0.94100    1.000
    H14      H        0.05820    0.33670    0.81780    1.000
    H15      H        0.32200    0.29410    0.67130    1.000
    H16      H        0.40870    0.18950    0.79320    1.000
    H17      H        0.57010    0.87660    0.41140    1.000
    H18      H        0.35120    0.09900    0.42630    1.000
    H19      H        0.35550    0.73450    0.55900    1.000
    H20      H        0.44180    0.83670    0.68220    1.000
    H21      H        0.17800    0.79410    0.82870    1.000
    H22      H        0.09130    0.68950    0.70680    1.000
    H23      H        0.92990    0.37660    0.08860    1.000
    H24      H        0.14880    0.59900    0.07370    1.000
    C1       C        0.66480    0.87200    0.04390    1.000
    C2       C        0.71580    0.79990    0.12100    1.000
    C3       C        0.82020    0.75430    0.11360    1.000
    C4       C        0.87140    0.69270    0.18710    1.000
    C5       C        0.81890    0.67420    0.26860    1.000
    C6       C        0.71400    0.71850    0.27470    1.000
    C7       C        0.66170    0.78120    0.20180    1.000
    C8       C        0.87620    0.60780    0.34980    1.000
    C9       C        0.59590    0.03000    0.70510    1.000
    C10      C        0.54790    0.01470    0.59810    1.000
    C11      C        0.45820    0.07380    0.55310    1.000
    C12      C        0.58890    0.94090    0.54410    1.000
    C13      C        0.83520    0.37200    0.45610    1.000
    C14      C        0.78420    0.29990    0.37900    1.000
    C15      C        0.67980    0.25430    0.38640    1.000
    C16      C        0.62860    0.19270    0.31290    1.000
    C17      C        0.68110    0.17420    0.23140    1.000
    C18      C        0.78600    0.21850    0.22530    1.000
    C19      C        0.83830    0.28120    0.29820    1.000
    C20      C        0.62380    0.10780    0.15020    1.000
    C21      C        0.90410    0.53000    0.79490    1.000
    C22      C        0.95210    0.51470    0.90190    1.000
    C23      C        0.04180    0.57380    0.94690    1.000
    C24      C        0.91110    0.44090    0.95590    1.000
    C25      C        0.33520    0.12800    0.95610    1.000
    C26      C        0.28420    0.20010    0.87900    1.000
    C27      C        0.17980    0.24570    0.88640    1.000
    C28      C        0.12860    0.30730    0.81290    1.000
    C29      C        0.18110    0.32580    0.73140    1.000
    C30      C        0.28600    0.28150    0.72530    1.000
    C31      C        0.33830    0.21880    0.79820    1.000
    C32      C        0.12380    0.39220    0.65020    1.000
    C33      C        0.40410    0.97000    0.29490    1.000
    C34      C        0.45210    0.98530    0.40190    1.000
    C35      C        0.54180    0.92620    0.44690    1.000
    C36      C        0.41110    0.05910    0.45590    1.000
    C37      C        0.16480    0.62800    0.54390    1.000
    C38      C        0.21580    0.70010    0.62100    1.000
    C39      C        0.32020    0.74570    0.61360    1.000
    C40      C        0.37140    0.80730    0.68710    1.000
    C41      C        0.31890    0.82580    0.76860    1.000
    C42      C        0.21400    0.78150    0.77470    1.000
    C43      C        0.16170    0.71880    0.70180    1.000
    C44      C        0.37620    0.89220    0.84980    1.000
    C45      C        0.09590    0.47000    0.20510    1.000
    C46      C        0.04790    0.48530    0.09810    1.000
    C47      C        0.95820    0.42620    0.05310    1.000
    C48      C        0.08890    0.55910    0.04410    1.000
    O1       O        0.72207    0.89856    0.97981    1.000
    O2       O        0.56362    0.90632    0.04572    1.000
    O3       O        0.97124    0.57160    0.33863    1.000
    O4       O        0.82501    0.59473    0.42245    1.000
    O5       O        0.55973    0.10221    0.74835    1.000
    O6       O        0.66663    0.97029    0.75120    1.000
    O7       O        0.77793    0.39856    0.52019    1.000
    O8       O        0.93638    0.40632    0.45428    1.000
    O9       O        0.52876    0.07160    0.16137    1.000
    O10      O        0.67499    0.09473    0.07755    1.000
    O11      O        0.94027    0.60221    0.75165    1.000
    O12      O        0.83337    0.47029    0.74880    1.000
    O13      O        0.27793    0.10144    0.02019    1.000
    O14      O        0.43638    0.09368    0.95428    1.000
    O15      O        0.02876    0.42840    0.66137    1.000
    O16      O        0.17499    0.40527    0.57755    1.000
    O17      O        0.44027    0.89779    0.25165    1.000
    O18      O        0.33337    0.02971    0.24880    1.000
    O19      O        0.22207    0.60144    0.47981    1.000
    O20      O        0.06362    0.59368    0.54572    1.000
    O21      O        0.47124    0.92840    0.83863    1.000
    O22      O        0.32501    0.90527    0.92245    1.000
    O23      O        0.05973    0.39779    0.24835    1.000
    O24      O        0.16663    0.52971    0.25120    1.000
