data_functionalizedCrystal
_audit_creation_method	'EQeq! by Chris Wilmer'
_symmetry_space_group_name_H-M	'P1'
_symmetry_Int_Tables_number	1
_symmetry_cell_setting	triclinic
loop_
_symmetry_equiv_pos_as_xyz
  x,y,z
_cell_length_a	13.112
_cell_length_b	13.112
_cell_length_c	18.03
_cell_angle_alpha	92.6858
_cell_angle_beta	92.6858
_cell_angle_gamma	113.136
loop_
_atom_site_label
_atom_site_type_symbol
_atom_site_fract_x
_atom_site_fract_y
_atom_site_fract_z
_atom_site_charge
Mof_Co	Co	0.79551	0.71529	0.6944	0.973
Mof_Co	Co	0.28471	0.20449	0.8056	0.958
Mof_Co	Co	0.20449	0.28471	0.3056	0.951
Mof_Co	Co	0.71529	0.79551	0.1944	0.968
Mof_Co	Co	0.5	0	-0	0.929
Mof_Co	Co	-1.50106e-17	0.5	0.5	0.943
Mof_W 	W 	0.95188	0.53864	0.90875	0.359
Mof_W 	W 	0.06707	0.41733	0.94755	0.301
Mof_W 	W 	0.1334	0.62738	0.00202	0.24
Mof_W 	W 	0.46136	0.04812	0.59125	0.249
Mof_W 	W 	0.58267	0.93293	0.55245	0.35
Mof_W 	W 	0.37262	0.8666	0.49798	0.309
Mof_W 	W 	0.04812	0.46136	0.09125	0.233
Mof_W 	W 	0.93293	0.58267	0.05245	0.304
Mof_W 	W 	0.8666	0.37262	0.99798	0.363
Mof_W 	W 	0.53864	0.95188	0.40875	0.345
Mof_W 	W 	0.41733	0.06707	0.44755	0.253
Mof_W 	W 	0.62738	0.1334	0.50202	0.293
Mof_C 	C 	0.8951	0.5933	0.8092	-0.051
Mof_C 	C 	0.143	0.3218	0.8924	-0.07
Mof_C 	C 	0.2824	0.7722	0.0069	-0.064
Mof_C 	C 	0.4067	0.1049	0.6908	-0.069
Mof_C 	C 	0.6782	0.857	0.6076	-0.055
Mof_C 	C 	0.2278	0.7176	0.4931	-0.068
Mof_C 	C 	0.1049	0.4067	0.1908	-0.071
Mof_C 	C 	0.857	0.6782	0.1076	-0.062
Mof_C 	C 	0.7176	0.2278	0.9931	-0.058
Mof_C 	C 	0.5933	0.8951	0.3092	-0.052
Mof_C 	C 	0.3218	0.143	0.3924	-0.078
Mof_C 	C 	0.7722	0.2824	0.5069	-0.055
Mof_S 	S 	0.1396	0.5766	0.8696	-0.3
Mof_S 	S 	0.0184	0.729	0.9665	-0.303
Mof_S 	S 	0.8956	0.3424	0.8655	-0.272
Mof_S 	S 	0.2282	0.5072	0.0364	-0.326
Mof_S 	S 	0.4234	0.8604	0.6304	-0.281
Mof_S 	S 	0.271	0.9816	0.5335	-0.272
Mof_S 	S 	0.6576	0.1044	0.6345	-0.295
Mof_S 	S 	0.4928	0.7718	0.4636	-0.318
Mof_S 	S 	0.8604	0.4234	0.1304	-0.3
Mof_S 	S 	0.9816	0.271	0.0335	-0.314
Mof_S 	S 	0.1044	0.6576	0.1345	-0.294
Mof_S 	S 	0.7718	0.4928	0.9636	-0.293
Mof_S 	S 	0.5766	0.1396	0.3696	-0.319
Mof_S 	S 	0.729	0.0184	0.4665	-0.345
Mof_S 	S 	0.3424	0.8956	0.3655	-0.271
Mof_S 	S 	0.5072	0.2282	0.5364	-0.302
Mof_N 	N 	0.8591	0.6241	0.7601	-0.309
Mof_N 	N 	0.1882	0.2712	0.8635	-0.316
Mof_N 	N 	0.3641	0.8483	0.0031	-0.314
Mof_N 	N 	0.3759	0.1409	0.7399	-0.321
Mof_N 	N 	0.7288	0.8118	0.6365	-0.304
Mof_N 	N 	0.1517	0.6359	0.4969	-0.321
Mof_N 	N 	0.1409	0.3759	0.2399	-0.325
Mof_N 	N 	0.8118	0.7288	0.1365	-0.309
Mof_N 	N 	0.6359	0.1517	0.9969	-0.305
Mof_N 	N 	0.6241	0.8591	0.2601	-0.313
Mof_N 	N 	0.2712	0.1882	0.3635	-0.322
Mof_N 	N 	0.8483	0.3641	0.5031	-0.304
_end
