data_functionalizedCrystal
_audit_creation_method	'EQeq! by Chris Wilmer'
_symmetry_space_group_name_H-M	'P1'
_symmetry_Int_Tables_number	1
_symmetry_cell_setting	triclinic
loop_
_symmetry_equiv_pos_as_xyz
  x,y,z
_cell_length_a	10.0583
_cell_length_b	18.085
_cell_length_c	15.6192
_cell_angle_alpha	90
_cell_angle_beta	90
_cell_angle_gamma	90
loop_
_atom_site_label
_atom_site_type_symbol
_atom_site_fract_x
_atom_site_fract_y
_atom_site_fract_z
_atom_site_charge
Mof_P 	P 	0.1472	0.3287	0.31692	1.552
Mof_P 	P 	0.3813	0.31518	0.55893	1.367
Mof_P 	P 	0.1403	0.57538	0.48647	1.509
Mof_Al	Al	0.1816	0.21658	0.46414	7.071
Mof_Al	Al	0.3344	0.32547	0.14991	6.648
Mof_Al	Al	0.15	0.40296	0.4951	6.722
Mof_O 	O 	0.0002	0.3362	0.2911	-1.515
Mof_O 	O 	0.1781	0.2512	0.3497	-1.649
Mof_O 	O 	0.1827	0.3887	0.3828	-1.744
Mof_O 	O 	0.2338	0.3466	0.2389	-1.72
Mof_O 	O 	0.362	0.2724	0.6429	-1.748
Mof_O 	O 	0.343	0.2666	0.4829	-1.799
Mof_O 	O 	0.2924	0.3844	0.5623	-1.657
Mof_O 	O 	0.5249	0.3398	0.5495	-1.492
Mof_O 	O 	0.3741	0.0998	0.5805	-1.947
Mof_O 	O 	0.2793	0.1316	0.4341	-1.591
Mof_O 	O 	0.2069	0.5003	0.4821	-1.553
Mof_O 	O 	0.0007	0.4291	0.5509	-1.797
Mof_O 	O 	0.0933	0.3027	0.499	-2.999
Mof_O 	O 	0.1814	0.1872	0.5805	-2.354
Mof_H 	H 	0.0469	0.2971	0.5484	0.712
Mof_P 	P 	0.3528	0.6713	0.81692	1.551
Mof_P 	P 	0.1187	0.68482	0.05893	1.387
Mof_P 	P 	0.3597	0.42462	0.98647	1.505
Mof_Al	Al	0.3184	0.78342	0.96414	7.082
Mof_Al	Al	0.1656	0.67453	0.64991	6.615
Mof_Al	Al	0.35	0.59704	0.9951	6.725
Mof_O 	O 	0.4998	0.6638	0.7911	-1.526
Mof_O 	O 	0.3219	0.7488	0.8497	-1.655
Mof_O 	O 	0.3173	0.6113	0.8828	-1.747
Mof_O 	O 	0.2662	0.6534	0.7389	-1.717
Mof_O 	O 	0.138	0.7276	0.1429	-1.75
Mof_O 	O 	0.157	0.7334	0.9829	-1.811
Mof_O 	O 	0.2076	0.6156	0.0623	-1.653
Mof_O 	O 	0.9751	0.6602	0.0495	-1.506
Mof_O 	O 	0.1259	0.9002	0.0805	-1.941
Mof_O 	O 	0.2207	0.8684	0.9341	-1.592
Mof_O 	O 	0.2931	0.4997	0.9821	-1.555
Mof_O 	O 	0.4993	0.5709	0.0509	-1.792
Mof_O 	O 	0.4067	0.6973	0.999	-2.993
Mof_O 	O 	0.3186	0.8128	0.0805	-2.357
Mof_H 	H 	0.4531	0.7029	0.0484	0.709
Mof_P 	P 	0.8528	0.8287	0.18308	1.545
Mof_P 	P 	0.6187	0.81518	0.94107	1.375
Mof_P 	P 	0.8597	0.07538	0.01353	1.478
Mof_Al	Al	0.8184	0.71658	0.03586	7.045
Mof_Al	Al	0.6656	0.82547	0.35009	6.642
Mof_Al	Al	0.85	0.90296	0.0049	6.538
Mof_O 	O 	0.9998	0.8362	0.2089	-1.534
Mof_O 	O 	0.8219	0.7512	0.1503	-1.647
Mof_O 	O 	0.8173	0.8887	0.1172	-1.716
Mof_O 	O 	0.7662	0.8466	0.2611	-1.722
Mof_O 	O 	0.638	0.7724	0.8571	-1.748
Mof_O 	O 	0.657	0.7666	0.0171	-1.801
Mof_O 	O 	0.7076	0.8844	0.9377	-1.607
Mof_O 	O 	0.4751	0.8398	0.9505	-1.488
Mof_O 	O 	0.6259	0.5998	0.9195	-1.94
Mof_O 	O 	0.7207	0.6316	0.0659	-1.59
Mof_O 	O 	0.7931	0.0003	0.0179	-1.517
Mof_O 	O 	0.9993	0.9291	0.9491	-1.721
Mof_O 	O 	0.9067	0.8027	0.001	-3
Mof_O 	O 	0.8186	0.6872	0.9195	-2.335
Mof_H 	H 	0.9531	0.7971	0.9516	0.741
Mof_P 	P 	0.6472	0.1713	0.68308	1.552
Mof_P 	P 	0.8813	0.18482	0.44107	1.358
Mof_P 	P 	0.6403	0.92462	0.51353	1.508
Mof_Al	Al	0.6816	0.28342	0.53586	7.071
Mof_Al	Al	0.8344	0.17453	0.85009	6.655
Mof_Al	Al	0.65	0.09704	0.5049	6.709
Mof_O 	O 	0.5002	0.1638	0.7089	-1.527
Mof_O 	O 	0.6781	0.2488	0.6503	-1.651
Mof_O 	O 	0.6827	0.1113	0.6172	-1.745
Mof_O 	O 	0.7338	0.1534	0.7611	-1.724
Mof_O 	O 	0.862	0.2276	0.3571	-1.747
Mof_O 	O 	0.843	0.2334	0.5171	-1.799
Mof_O 	O 	0.7924	0.1156	0.4377	-1.657
Mof_O 	O 	0.0249	0.1602	0.4505	-1.486
Mof_O 	O 	0.8741	0.4002	0.4195	-1.944
Mof_O 	O 	0.7793	0.3684	0.5659	-1.592
Mof_O 	O 	0.7069	0.9997	0.5179	-1.551
Mof_O 	O 	0.5007	0.0709	0.4491	-1.791
Mof_O 	O 	0.5933	0.1973	0.501	-2.997
Mof_O 	O 	0.6814	0.3128	0.4195	-2.348
Mof_H 	H 	0.5469	0.2029	0.4516	0.713
Mof_P 	P 	0.8528	0.6713	0.68308	1.552
Mof_P 	P 	0.6187	0.68482	0.44107	1.367
Mof_P 	P 	0.8597	0.42462	0.51353	1.509
Mof_Al	Al	0.8184	0.78342	0.53586	7.071
Mof_Al	Al	0.6656	0.67453	0.85009	6.648
Mof_Al	Al	0.85	0.59704	0.5049	6.722
Mof_O 	O 	0.9998	0.6638	0.7089	-1.515
Mof_O 	O 	0.8219	0.7488	0.6503	-1.649
Mof_O 	O 	0.8173	0.6113	0.6172	-1.744
Mof_O 	O 	0.7662	0.6534	0.7611	-1.72
Mof_O 	O 	0.638	0.7276	0.3571	-1.748
Mof_O 	O 	0.657	0.7334	0.5171	-1.799
Mof_O 	O 	0.7076	0.6156	0.4377	-1.657
Mof_O 	O 	0.4751	0.6602	0.4505	-1.492
Mof_O 	O 	0.6259	0.9002	0.4195	-1.947
Mof_O 	O 	0.7207	0.8684	0.5659	-1.591
Mof_O 	O 	0.7931	0.4997	0.5179	-1.553
Mof_O 	O 	0.9993	0.5709	0.4491	-1.797
Mof_O 	O 	0.9067	0.6973	0.501	-2.999
Mof_O 	O 	0.8186	0.8128	0.4195	-2.354
Mof_H 	H 	0.9531	0.7029	0.4516	0.712
Mof_P 	P 	0.6472	0.3287	0.18308	1.551
Mof_P 	P 	0.8813	0.31518	0.94107	1.387
Mof_P 	P 	0.6403	0.57538	0.01353	1.505
Mof_Al	Al	0.6816	0.21658	0.03586	7.082
Mof_Al	Al	0.8344	0.32547	0.35009	6.615
Mof_Al	Al	0.65	0.40296	0.0049	6.725
Mof_O 	O 	0.5002	0.3362	0.2089	-1.526
Mof_O 	O 	0.6781	0.2512	0.1503	-1.655
Mof_O 	O 	0.6827	0.3887	0.1172	-1.747
Mof_O 	O 	0.7338	0.3466	0.2611	-1.717
Mof_O 	O 	0.862	0.2724	0.8571	-1.75
Mof_O 	O 	0.843	0.2666	0.0171	-1.811
Mof_O 	O 	0.7924	0.3844	0.9377	-1.653
Mof_O 	O 	0.0249	0.3398	0.9505	-1.506
Mof_O 	O 	0.8741	0.0998	0.9195	-1.941
Mof_O 	O 	0.7793	0.1316	0.0659	-1.592
Mof_O 	O 	0.7069	0.5003	0.0179	-1.555
Mof_O 	O 	0.5007	0.4291	0.9491	-1.792
Mof_O 	O 	0.5933	0.3027	0.001	-2.993
Mof_O 	O 	0.6814	0.1872	0.9195	-2.357
Mof_H 	H 	0.5469	0.2971	0.9516	0.709
Mof_P 	P 	0.1472	0.1713	0.81692	1.545
Mof_P 	P 	0.3813	0.18482	0.05893	1.375
Mof_P 	P 	0.1403	0.92462	0.98647	1.478
Mof_Al	Al	0.1816	0.28342	0.96414	7.045
Mof_Al	Al	0.3344	0.17453	0.64991	6.642
Mof_Al	Al	0.15	0.09704	0.9951	6.538
Mof_O 	O 	0.0002	0.1638	0.7911	-1.534
Mof_O 	O 	0.1781	0.2488	0.8497	-1.647
Mof_O 	O 	0.1827	0.1113	0.8828	-1.716
Mof_O 	O 	0.2338	0.1534	0.7389	-1.722
Mof_O 	O 	0.362	0.2276	0.1429	-1.748
Mof_O 	O 	0.343	0.2334	0.9829	-1.801
Mof_O 	O 	0.2924	0.1156	0.0623	-1.607
Mof_O 	O 	0.5249	0.1602	0.0495	-1.488
Mof_O 	O 	0.3741	0.4002	0.0805	-1.94
Mof_O 	O 	0.2793	0.3684	0.9341	-1.59
Mof_O 	O 	0.2069	0.9997	0.9821	-1.517
Mof_O 	O 	0.0007	0.0709	0.0509	-1.721
Mof_O 	O 	0.0933	0.1973	0.999	-3
Mof_O 	O 	0.1814	0.3128	0.0805	-2.335
Mof_H 	H 	0.0469	0.2029	0.0484	0.741
Mof_P 	P 	0.3528	0.8287	0.31692	1.552
Mof_P 	P 	0.1187	0.81518	0.55893	1.358
Mof_P 	P 	0.3597	0.07538	0.48647	1.508
Mof_Al	Al	0.3184	0.71658	0.46414	7.071
Mof_Al	Al	0.1656	0.82547	0.14991	6.655
Mof_Al	Al	0.35	0.90296	0.4951	6.709
Mof_O 	O 	0.4998	0.8362	0.2911	-1.527
Mof_O 	O 	0.3219	0.7512	0.3497	-1.651
Mof_O 	O 	0.3173	0.8887	0.3828	-1.745
Mof_O 	O 	0.2662	0.8466	0.2389	-1.724
Mof_O 	O 	0.138	0.7724	0.6429	-1.747
Mof_O 	O 	0.157	0.7666	0.4829	-1.799
Mof_O 	O 	0.2076	0.8844	0.5623	-1.657
Mof_O 	O 	0.9751	0.8398	0.5495	-1.486
Mof_O 	O 	0.1259	0.5998	0.5805	-1.944
Mof_O 	O 	0.2207	0.6316	0.4341	-1.592
Mof_O 	O 	0.2931	0.0003	0.4821	-1.551
Mof_O 	O 	0.4993	0.9291	0.5509	-1.791
Mof_O 	O 	0.4067	0.8027	0.499	-2.997
Mof_O 	O 	0.3186	0.6872	0.5805	-2.348
Mof_H 	H 	0.4531	0.7971	0.5484	0.713
_end
