data_functionalizedCrystal
_audit_creation_method	'EQeq! by Chris Wilmer'
_symmetry_space_group_name_H-M	'P1'
_symmetry_Int_Tables_number	1
_symmetry_cell_setting	triclinic
loop_
_symmetry_equiv_pos_as_xyz
  x,y,z
_cell_length_a	12.5611
_cell_length_b	12.5611
_cell_length_c	62.471
_cell_angle_alpha	90
_cell_angle_beta	90
_cell_angle_gamma	120
loop_
_atom_site_label
_atom_site_type_symbol
_atom_site_fract_x
_atom_site_fract_y
_atom_site_fract_z
_atom_site_charge
Mof_Ni	Ni	0.59427	0.18854	0.41667	1.061
Mof_Ni	Ni	0.59427	0.40573	0.75	1.063
Mof_Ni	Ni	0.81146	0.40573	0.08333	1.063
Mof_Ni	Ni	0.40573	0.81146	0.91667	1.063
Mof_Ni	Ni	0.40573	0.59427	0.25	1.063
Mof_Ni	Ni	0.18854	0.59427	0.58333	1.061
Mof_Ni	Ni	0.6961	0.34805	0.58333	1.062
Mof_Ni	Ni	0.65195	0.3039	0.91667	1.062
Mof_Ni	Ni	0.65195	0.34805	0.25	1.062
Mof_Ni	Ni	0.3039	0.65195	0.08333	1.062
Mof_Ni	Ni	0.34805	0.6961	0.41667	1.062
Mof_Ni	Ni	0.34805	0.65195	0.75	1.062
Mof_H 	H 	0.9636	0.1632	0.4443	0.126
Mof_H 	H 	0.9964	0.2899	0.434	0.127
Mof_H 	H 	0.9036	0.6132	0.5202	0.113
Mof_H 	H 	0.0152	0.6225	0.5331	0.105
Mof_H 	H 	0.9414	0.7303	0.4716	0.143
Mof_H 	H 	0.0002	0.7925	0.4497	0.127
Mof_H 	H 	0.5911	0.4341	0.4182	-0.031
Mof_H 	H 	0.6262	0.5879	0.4417	0.135
Mof_H 	H 	0.6621	0.3915	0.4882	0.137
Mof_H 	H 	0.6269	0.2432	0.464	-0.03
Mof_H 	H 	0.691	0.6828	0.4758	0.164
Mof_H 	H 	0.7536	0.6309	0.491	0.161
Mof_H 	H 	0.5605	0.5019	0.5073	-0.034
Mof_H 	H 	0.6279	0.3745	0.6291	-0.016
Mof_H 	H 	0.4722	0.2813	0.6528	0.13
Mof_H 	H 	0.2998	0.0024	0.6114	0.138
Mof_H 	H 	0.4637	0.103	0.5892	-0.048
Mof_H 	H 	0.2402	0.1266	0.6575	0.158
Mof_H 	H 	0.1826	0.0097	0.6427	0.157
Mof_H 	H 	0.3044	0.9426	0.6594	-0.027
Mof_H 	H 	0.903	0.1789	0.4713	0.125
Mof_H 	H 	0.8911	0.3943	0.5274	0.158
Mof_H 	H 	0.9752	0.6151	0.4391	0.117
Mof_H 	H 	0.2144	0.9074	0.4925	0.311
Mof_H 	H 	0.1996	0.0364	0.77763	0.122
Mof_H 	H 	0.2935	0.0036	0.76733	0.121
Mof_H 	H 	0.7096	0.0964	0.85353	0.12
Mof_H 	H 	0.6073	0.9848	0.86643	0.122
Mof_H 	H 	0.7889	0.0586	0.80493	0.123
Mof_H 	H 	0.7923	0.9998	0.78303	0.119
Mof_H 	H 	0.843	0.4089	0.75153	-0.028
Mof_H 	H 	0.9617	0.3738	0.77503	0.133
Mof_H 	H 	0.7294	0.3379	0.82153	0.133
Mof_H 	H 	0.6163	0.3731	0.79733	-0.027
Mof_H 	H 	0.9918	0.309	0.80913	0.155
Mof_H 	H 	0.8773	0.2464	0.82433	0.15
Mof_H 	H 	0.9414	0.4395	0.84063	-0.013
Mof_H 	H 	0.7466	0.3721	0.96243	-0.018
Mof_H 	H 	0.8091	0.5278	0.98613	0.135
Mof_H 	H 	0.7026	0.7002	0.94473	0.146
Mof_H 	H 	0.6393	0.5363	0.92253	-0.047
Mof_H 	H 	0.8864	0.7598	0.99083	0.173
Mof_H 	H 	0.8271	0.8174	0.97603	0.175
Mof_H 	H 	0.6382	0.6956	0.99273	-0.051
Mof_H 	H 	0.2759	0.097	0.80463	0.124
Mof_H 	H 	0.5032	0.1089	0.86073	0.156
Mof_H 	H 	0.6399	0.0248	0.77243	0.116
Mof_H 	H 	0.693	0.7856	0.82583	0.307
Mof_H 	H 	0.8368	0.8004	0.11097	0.126
Mof_H 	H 	0.7101	0.7065	0.10067	0.123
Mof_H 	H 	0.3868	0.2904	0.18687	0.118
Mof_H 	H 	0.3775	0.3927	0.19977	0.119
Mof_H 	H 	0.2697	0.2111	0.13827	0.125
Mof_H 	H 	0.2075	0.2077	0.11637	0.118
Mof_H 	H 	0.5659	0.157	0.08487	-0.029
Mof_H 	H 	0.4121	0.0383	0.10837	0.129
Mof_H 	H 	0.6085	0.2706	0.15487	0.133
Mof_H 	H 	0.7568	0.3837	0.13067	-0.027
Mof_H 	H 	0.3172	0.0082	0.14247	0.151
Mof_H 	H 	0.3691	0.1227	0.15767	0.149
Mof_H 	H 	0.4981	0.0586	0.17397	-0.02
Mof_H 	H 	0.6255	0.2534	0.29577	-0.017
Mof_H 	H 	0.7187	0.1909	0.31947	0.128
Mof_H 	H 	0.9976	0.2974	0.27807	0.143
Mof_H 	H 	0.897	0.3607	0.25587	-0.044
Mof_H 	H 	0.8734	0.1136	0.32417	0.155
Mof_H 	H 	0.9903	0.1729	0.30937	0.16
Mof_H 	H 	0.0574	0.3618	0.32607	-0.033
Mof_H 	H 	0.8211	0.7241	0.13797	0.125
Mof_H 	H 	0.6057	0.4968	0.19407	0.156
Mof_H 	H 	0.3849	0.3601	0.10577	0.116
Mof_H 	H 	0.0926	0.307	0.15917	0.307
Mof_H 	H 	0.0364	0.8368	0.9443	0.123
Mof_H 	H 	0.0036	0.7101	0.934	0.121
Mof_H 	H 	0.0964	0.3868	0.0202	0.119
Mof_H 	H 	0.9848	0.3775	0.0331	0.122
Mof_H 	H 	0.0586	0.2697	0.9716	0.12
Mof_H 	H 	0.9998	0.2075	0.9497	0.117
Mof_H 	H 	0.4089	0.5659	0.9182	-0.031
Mof_H 	H 	0.3738	0.4121	0.9417	0.134
Mof_H 	H 	0.3379	0.6085	0.9882	0.137
Mof_H 	H 	0.3731	0.7568	0.964	-0.029
Mof_H 	H 	0.309	0.3172	0.9758	0.161
Mof_H 	H 	0.2464	0.3691	0.991	0.158
Mof_H 	H 	0.4395	0.4981	0.0073	-0.033
Mof_H 	H 	0.3721	0.6255	0.1291	-0.016
Mof_H 	H 	0.5278	0.7187	0.1528	0.13
Mof_H 	H 	0.7002	0.9976	0.1114	0.144
Mof_H 	H 	0.5363	0.897	0.0892	-0.044
Mof_H 	H 	0.7598	0.8734	0.1575	0.16
Mof_H 	H 	0.8174	0.9903	0.1427	0.164
Mof_H 	H 	0.6956	0.0574	0.1594	-0.034
Mof_H 	H 	0.097	0.8211	0.9713	0.124
Mof_H 	H 	0.1089	0.6057	0.0274	0.156
Mof_H 	H 	0.0248	0.3849	0.9391	0.115
Mof_H 	H 	0.7856	0.0926	0.9925	0.306
Mof_H 	H 	0.8004	0.9636	0.27763	0.129
Mof_H 	H 	0.7065	0.9964	0.26733	0.128
Mof_H 	H 	0.2904	0.9036	0.35353	0.113
Mof_H 	H 	0.3927	0.0152	0.36643	0.104
Mof_H 	H 	0.2111	0.9414	0.30493	0.142
Mof_H 	H 	0.2077	0.0002	0.28303	0.125
Mof_H 	H 	0.157	0.5911	0.25153	-0.029
Mof_H 	H 	0.0383	0.6262	0.27503	0.13
Mof_H 	H 	0.2706	0.6621	0.32153	0.134
Mof_H 	H 	0.3837	0.6269	0.29733	-0.027
Mof_H 	H 	0.0082	0.691	0.30913	0.153
Mof_H 	H 	0.1227	0.7536	0.32433	0.151
Mof_H 	H 	0.0586	0.5605	0.34063	-0.022
Mof_H 	H 	0.2534	0.6279	0.46243	-0.018
Mof_H 	H 	0.1909	0.4722	0.48613	0.13
Mof_H 	H 	0.2974	0.2998	0.44473	0.143
Mof_H 	H 	0.3607	0.4637	0.42253	-0.046
Mof_H 	H 	0.1136	0.2402	0.49083	0.163
Mof_H 	H 	0.1729	0.1826	0.47603	0.166
Mof_H 	H 	0.3618	0.3044	0.49273	-0.046
Mof_H 	H 	0.7241	0.903	0.30463	0.127
Mof_H 	H 	0.4968	0.8911	0.36073	0.158
Mof_H 	H 	0.3601	0.9752	0.27243	0.117
Mof_H 	H 	0.307	0.2144	0.32583	0.31
Mof_H 	H 	0.1632	0.1996	0.61097	0.122
Mof_H 	H 	0.2899	0.2935	0.60067	0.123
Mof_H 	H 	0.6132	0.7096	0.68687	0.12
Mof_H 	H 	0.6225	0.6073	0.69977	0.12
Mof_H 	H 	0.7303	0.7889	0.63827	0.128
Mof_H 	H 	0.7925	0.7923	0.61637	0.123
Mof_H 	H 	0.4341	0.843	0.58487	-0.029
Mof_H 	H 	0.5879	0.9617	0.60837	0.134
Mof_H 	H 	0.3915	0.7294	0.65487	0.134
Mof_H 	H 	0.2432	0.6163	0.63067	-0.029
Mof_H 	H 	0.6828	0.9918	0.64247	0.157
Mof_H 	H 	0.6309	0.8773	0.65767	0.152
Mof_H 	H 	0.5019	0.9414	0.67397	-0.016
Mof_H 	H 	0.3745	0.7466	0.79577	-0.016
Mof_H 	H 	0.2813	0.8091	0.81947	0.131
Mof_H 	H 	0.0024	0.7026	0.77807	0.139
Mof_H 	H 	0.103	0.6393	0.75587	-0.048
Mof_H 	H 	0.1266	0.8864	0.82417	0.16
Mof_H 	H 	0.0097	0.8271	0.80937	0.16
Mof_H 	H 	0.9426	0.6382	0.82607	-0.027
Mof_H 	H 	0.1789	0.2759	0.63797	0.123
Mof_H 	H 	0.3943	0.5032	0.69407	0.156
Mof_H 	H 	0.6151	0.6399	0.60577	0.116
Mof_H 	H 	0.9074	0.693	0.65917	0.309
Mof_H 	H 	0.8004	0.8368	0.88903	0.126
Mof_H 	H 	0.7065	0.7101	0.89933	0.123
Mof_H 	H 	0.2904	0.3868	0.81313	0.118
Mof_H 	H 	0.3927	0.3775	0.80023	0.119
Mof_H 	H 	0.2111	0.2697	0.86173	0.125
Mof_H 	H 	0.2077	0.2075	0.88363	0.118
Mof_H 	H 	0.157	0.5659	0.91513	-0.029
Mof_H 	H 	0.0383	0.4121	0.89163	0.129
Mof_H 	H 	0.2706	0.6085	0.84513	0.133
Mof_H 	H 	0.3837	0.7568	0.86933	-0.027
Mof_H 	H 	0.0082	0.3172	0.85753	0.151
Mof_H 	H 	0.1227	0.3691	0.84233	0.149
Mof_H 	H 	0.0586	0.4981	0.82603	-0.02
Mof_H 	H 	0.2534	0.6255	0.70423	-0.017
Mof_H 	H 	0.1909	0.7187	0.68053	0.128
Mof_H 	H 	0.2974	0.9976	0.72193	0.143
Mof_H 	H 	0.3607	0.897	0.74413	-0.044
Mof_H 	H 	0.1136	0.8734	0.67583	0.155
Mof_H 	H 	0.1729	0.9903	0.69063	0.16
Mof_H 	H 	0.3618	0.0574	0.67393	-0.033
Mof_H 	H 	0.7241	0.8211	0.86203	0.125
Mof_H 	H 	0.4968	0.6057	0.80593	0.156
Mof_H 	H 	0.3601	0.3849	0.89423	0.116
Mof_H 	H 	0.307	0.0926	0.84083	0.307
Mof_H 	H 	0.1632	0.9636	0.5557	0.126
Mof_H 	H 	0.2899	0.9964	0.566	0.127
Mof_H 	H 	0.6132	0.9036	0.4798	0.113
Mof_H 	H 	0.6225	0.0152	0.4669	0.105
Mof_H 	H 	0.7303	0.9414	0.5284	0.143
Mof_H 	H 	0.7925	0.0002	0.5503	0.127
Mof_H 	H 	0.4341	0.5911	0.5818	-0.031
Mof_H 	H 	0.5879	0.6262	0.5583	0.135
Mof_H 	H 	0.3915	0.6621	0.5118	0.137
Mof_H 	H 	0.2432	0.6269	0.536	-0.03
Mof_H 	H 	0.6828	0.691	0.5242	0.164
Mof_H 	H 	0.6309	0.7536	0.509	0.161
Mof_H 	H 	0.5019	0.5605	0.4927	-0.034
Mof_H 	H 	0.3745	0.6279	0.3709	-0.016
Mof_H 	H 	0.2813	0.4722	0.3472	0.13
Mof_H 	H 	0.0024	0.2998	0.3886	0.138
Mof_H 	H 	0.103	0.4637	0.4108	-0.048
Mof_H 	H 	0.1266	0.2402	0.3425	0.158
Mof_H 	H 	0.0097	0.1826	0.3573	0.157
Mof_H 	H 	0.9426	0.3044	0.3406	-0.027
Mof_H 	H 	0.1789	0.903	0.5287	0.125
Mof_H 	H 	0.3943	0.8911	0.4726	0.158
Mof_H 	H 	0.6151	0.9752	0.5609	0.117
Mof_H 	H 	0.9074	0.2144	0.5075	0.311
Mof_H 	H 	0.0364	0.1996	0.22237	0.122
Mof_H 	H 	0.0036	0.2935	0.23267	0.121
Mof_H 	H 	0.0964	0.7096	0.14647	0.12
Mof_H 	H 	0.9848	0.6073	0.13357	0.122
Mof_H 	H 	0.0586	0.7889	0.19507	0.123
Mof_H 	H 	0.9998	0.7923	0.21697	0.119
Mof_H 	H 	0.4089	0.843	0.24847	-0.028
Mof_H 	H 	0.3738	0.9617	0.22497	0.133
Mof_H 	H 	0.3379	0.7294	0.17847	0.133
Mof_H 	H 	0.3731	0.6163	0.20267	-0.027
Mof_H 	H 	0.309	0.9918	0.19087	0.155
Mof_H 	H 	0.2464	0.8773	0.17567	0.15
Mof_H 	H 	0.4395	0.9414	0.15937	-0.013
Mof_H 	H 	0.3721	0.7466	0.03757	-0.018
Mof_H 	H 	0.5278	0.8091	0.01387	0.135
Mof_H 	H 	0.7002	0.7026	0.05527	0.146
Mof_H 	H 	0.5363	0.6393	0.07747	-0.047
Mof_H 	H 	0.7598	0.8864	0.00917	0.173
Mof_H 	H 	0.8174	0.8271	0.02397	0.175
Mof_H 	H 	0.6956	0.6382	0.00727	-0.051
Mof_H 	H 	0.097	0.2759	0.19537	0.124
Mof_H 	H 	0.1089	0.5032	0.13927	0.156
Mof_H 	H 	0.0248	0.6399	0.22757	0.116
Mof_H 	H 	0.7856	0.693	0.17417	0.307
Mof_H 	H 	0.1996	0.1632	0.38903	0.122
Mof_H 	H 	0.2935	0.2899	0.39933	0.123
Mof_H 	H 	0.7096	0.6132	0.31313	0.12
Mof_H 	H 	0.6073	0.6225	0.30023	0.12
Mof_H 	H 	0.7889	0.7303	0.36173	0.128
Mof_H 	H 	0.7923	0.7925	0.38363	0.123
Mof_H 	H 	0.843	0.4341	0.41513	-0.029
Mof_H 	H 	0.9617	0.5879	0.39163	0.134
Mof_H 	H 	0.7294	0.3915	0.34513	0.134
Mof_H 	H 	0.6163	0.2432	0.36933	-0.029
Mof_H 	H 	0.9918	0.6828	0.35753	0.157
Mof_H 	H 	0.8773	0.6309	0.34233	0.152
Mof_H 	H 	0.9414	0.5019	0.32603	-0.016
Mof_H 	H 	0.7466	0.3745	0.20423	-0.016
Mof_H 	H 	0.8091	0.2813	0.18053	0.131
Mof_H 	H 	0.7026	0.0024	0.22193	0.139
Mof_H 	H 	0.6393	0.103	0.24413	-0.048
Mof_H 	H 	0.8864	0.1266	0.17583	0.16
Mof_H 	H 	0.8271	0.0097	0.19063	0.16
Mof_H 	H 	0.6382	0.9426	0.17393	-0.027
Mof_H 	H 	0.2759	0.1789	0.36203	0.123
Mof_H 	H 	0.5032	0.3943	0.30593	0.156
Mof_H 	H 	0.6399	0.6151	0.39423	0.116
Mof_H 	H 	0.693	0.9074	0.34083	0.309
Mof_H 	H 	0.8368	0.0364	0.0557	0.123
Mof_H 	H 	0.7101	0.0036	0.066	0.121
Mof_H 	H 	0.3868	0.0964	0.9798	0.119
Mof_H 	H 	0.3775	0.9848	0.9669	0.122
Mof_H 	H 	0.2697	0.0586	0.0284	0.12
Mof_H 	H 	0.2075	0.9998	0.0503	0.117
Mof_H 	H 	0.5659	0.4089	0.0818	-0.031
Mof_H 	H 	0.4121	0.3738	0.0583	0.134
Mof_H 	H 	0.6085	0.3379	0.0118	0.137
Mof_H 	H 	0.7568	0.3731	0.036	-0.029
Mof_H 	H 	0.3172	0.309	0.0242	0.161
Mof_H 	H 	0.3691	0.2464	0.009	0.158
Mof_H 	H 	0.4981	0.4395	0.9927	-0.033
Mof_H 	H 	0.6255	0.3721	0.8709	-0.016
Mof_H 	H 	0.7187	0.5278	0.8472	0.13
Mof_H 	H 	0.9976	0.7002	0.8886	0.144
Mof_H 	H 	0.897	0.5363	0.9108	-0.044
Mof_H 	H 	0.8734	0.7598	0.8425	0.16
Mof_H 	H 	0.9903	0.8174	0.8573	0.164
Mof_H 	H 	0.0574	0.6956	0.8406	-0.034
Mof_H 	H 	0.8211	0.097	0.0287	0.124
Mof_H 	H 	0.6057	0.1089	0.9726	0.156
Mof_H 	H 	0.3849	0.0248	0.0609	0.115
Mof_H 	H 	0.0926	0.7856	0.0075	0.306
Mof_H 	H 	0.9636	0.8004	0.72237	0.129
Mof_H 	H 	0.9964	0.7065	0.73267	0.128
Mof_H 	H 	0.9036	0.2904	0.64647	0.113
Mof_H 	H 	0.0152	0.3927	0.63357	0.104
Mof_H 	H 	0.9414	0.2111	0.69507	0.142
Mof_H 	H 	0.0002	0.2077	0.71697	0.125
Mof_H 	H 	0.5911	0.157	0.74847	-0.029
Mof_H 	H 	0.6262	0.0383	0.72497	0.13
Mof_H 	H 	0.6621	0.2706	0.67847	0.134
Mof_H 	H 	0.6269	0.3837	0.70267	-0.027
Mof_H 	H 	0.691	0.0082	0.69087	0.153
Mof_H 	H 	0.7536	0.1227	0.67567	0.151
Mof_H 	H 	0.5605	0.0586	0.65937	-0.022
Mof_H 	H 	0.6279	0.2534	0.53757	-0.018
Mof_H 	H 	0.4722	0.1909	0.51387	0.13
Mof_H 	H 	0.2998	0.2974	0.55527	0.143
Mof_H 	H 	0.4637	0.3607	0.57747	-0.046
Mof_H 	H 	0.2402	0.1136	0.50917	0.163
Mof_H 	H 	0.1826	0.1729	0.52397	0.166
Mof_H 	H 	0.3044	0.3618	0.50727	-0.046
Mof_H 	H 	0.903	0.7241	0.69537	0.127
Mof_H 	H 	0.8911	0.4968	0.63927	0.158
Mof_H 	H 	0.9752	0.3601	0.72757	0.117
Mof_H 	H 	0.2144	0.307	0.67417	0.31
Mof_C 	C 	0.9239	0.3381	0.46903	0.196
Mof_C 	C 	0.9243	0.4515	0.49859	0.191
Mof_C 	C 	0.9586	0.5306	0.46546	0.186
Mof_C 	C 	0.9296	0.2136	0.43958	-0.268
Mof_C 	C 	0.818	0.1722	0.42599	0.41
Mof_C 	C 	0.9286	0.5695	0.52996	-0.215
Mof_C 	C 	0.8555	0.5416	0.55043	0.36
Mof_C 	C 	0.0042	0.7431	0.46126	-0.3
Mof_C 	C 	0.1308	0.8138	0.47199	0.464
Mof_C 	C 	0.6061	0.4251	0.43245	0.161
Mof_C 	C 	0.6272	0.5185	0.44659	-0.291
Mof_C 	C 	0.6496	0.5092	0.46789	0.283
Mof_C 	C 	0.6484	0.4027	0.47399	-0.285
Mof_C 	C 	0.6271	0.3136	0.45931	0.159
Mof_C 	C 	0.6779	0.6103	0.4836	-0.442
Mof_C 	C 	0.5607	0.2989	0.62539	0.151
Mof_C 	C 	0.4668	0.244	0.63971	-0.275
Mof_C 	C 	0.3635	0.1331	0.63478	0.256
Mof_C 	C 	0.365	0.0788	0.6153	-0.282
Mof_C 	C 	0.4641	0.1402	0.60208	0.153
Mof_C 	C 	0.2561	0.0672	0.65039	-0.422
Mof_C 	C 	0.4142	0.0761	0.80236	0.194
Mof_C 	C 	0.5272	0.0757	0.83192	0.188
Mof_C 	C 	0.572	0.0414	0.79879	0.185
Mof_C 	C 	0.284	0.0704	0.77291	-0.264
Mof_C 	C 	0.3542	0.182	0.75932	0.408
Mof_C 	C 	0.6409	0.0714	0.86329	-0.244
Mof_C 	C 	0.6861	0.1445	0.88376	0.367
Mof_C 	C 	0.7389	0.9958	0.79459	-0.258
Mof_C 	C 	0.683	0.8692	0.80532	0.454
Mof_C 	C 	0.819	0.3939	0.76578	0.156
Mof_C 	C 	0.8913	0.3728	0.77992	-0.279
Mof_C 	C 	0.8596	0.3504	0.80122	0.267
Mof_C 	C 	0.7543	0.3516	0.80732	-0.274
Mof_C 	C 	0.6865	0.3729	0.79264	0.154
Mof_C 	C 	0.9324	0.3221	0.81693	-0.402
Mof_C 	C 	0.7382	0.4393	0.95872	0.159
Mof_C 	C 	0.7772	0.5332	0.97304	-0.287
Mof_C 	C 	0.7696	0.6365	0.96811	0.277
Mof_C 	C 	0.7138	0.635	0.94863	-0.293
Mof_C 	C 	0.6761	0.5359	0.93541	0.161
Mof_C 	C 	0.8111	0.7439	0.98372	-0.466
Mof_C 	C 	0.6619	0.5858	0.1357	0.194
Mof_C 	C 	0.5485	0.4728	0.16526	0.188
Mof_C 	C 	0.4694	0.428	0.13213	0.185
Mof_C 	C 	0.7864	0.716	0.10625	-0.265
Mof_C 	C 	0.8278	0.6458	0.09266	0.409
Mof_C 	C 	0.4305	0.3591	0.19663	-0.24
Mof_C 	C 	0.4584	0.3139	0.2171	0.366
Mof_C 	C 	0.2569	0.2611	0.12793	-0.266
Mof_C 	C 	0.1862	0.317	0.13866	0.455
Mof_C 	C 	0.5749	0.181	0.09912	0.154
Mof_C 	C 	0.4815	0.1087	0.11326	-0.28
Mof_C 	C 	0.4908	0.1404	0.13456	0.266
Mof_C 	C 	0.5973	0.2457	0.14066	-0.274
Mof_C 	C 	0.6864	0.3135	0.12598	0.153
Mof_C 	C 	0.3897	0.0676	0.15027	-0.407
Mof_C 	C 	0.7011	0.2618	0.29206	0.15
Mof_C 	C 	0.756	0.2228	0.30638	-0.274
Mof_C 	C 	0.8669	0.2304	0.30145	0.255
Mof_C 	C 	0.9212	0.2862	0.28197	-0.28
Mof_C 	C 	0.8598	0.3239	0.26875	0.153
Mof_C 	C 	0.9328	0.1889	0.31706	-0.416
Mof_C 	C 	0.0761	0.6619	0.96903	0.193
Mof_C 	C 	0.0757	0.5485	0.99859	0.187
Mof_C 	C 	0.0414	0.4694	0.96546	0.184
Mof_C 	C 	0.0704	0.7864	0.93958	-0.264
Mof_C 	C 	0.182	0.8278	0.92599	0.408
Mof_C 	C 	0.0714	0.4305	0.02996	-0.245
Mof_C 	C 	0.1445	0.4584	0.05043	0.367
Mof_C 	C 	0.9958	0.2569	0.96126	-0.254
Mof_C 	C 	0.8692	0.1862	0.97199	0.452
Mof_C 	C 	0.3939	0.5749	0.93245	0.16
Mof_C 	C 	0.3728	0.4815	0.94659	-0.289
Mof_C 	C 	0.3504	0.4908	0.96789	0.281
Mof_C 	C 	0.3516	0.5973	0.97399	-0.283
Mof_C 	C 	0.3729	0.6864	0.95931	0.158
Mof_C 	C 	0.3221	0.3897	0.9836	-0.437
Mof_C 	C 	0.4393	0.7011	0.12539	0.152
Mof_C 	C 	0.5332	0.756	0.13971	-0.276
Mof_C 	C 	0.6365	0.8669	0.13478	0.259
Mof_C 	C 	0.635	0.9212	0.1153	-0.282
Mof_C 	C 	0.5359	0.8598	0.10208	0.155
Mof_C 	C 	0.7439	0.9328	0.15039	-0.42
Mof_C 	C 	0.5858	0.9239	0.30236	0.196
Mof_C 	C 	0.4728	0.9243	0.33192	0.191
Mof_C 	C 	0.428	0.9586	0.29879	0.186
Mof_C 	C 	0.716	0.9296	0.27291	-0.268
Mof_C 	C 	0.6458	0.818	0.25932	0.411
Mof_C 	C 	0.3591	0.9286	0.36329	-0.215
Mof_C 	C 	0.3139	0.8555	0.38376	0.36
Mof_C 	C 	0.2611	0.0042	0.29459	-0.3
Mof_C 	C 	0.317	0.1308	0.30532	0.463
Mof_C 	C 	0.181	0.6061	0.26578	0.155
Mof_C 	C 	0.1087	0.6272	0.27992	-0.281
Mof_C 	C 	0.1404	0.6496	0.30122	0.268
Mof_C 	C 	0.2457	0.6484	0.30732	-0.275
Mof_C 	C 	0.3135	0.6271	0.29264	0.153
Mof_C 	C 	0.0676	0.6779	0.31693	-0.412
Mof_C 	C 	0.2618	0.5607	0.45872	0.154
Mof_C 	C 	0.2228	0.4668	0.47304	-0.282
Mof_C 	C 	0.2304	0.3635	0.46811	0.267
Mof_C 	C 	0.2862	0.365	0.44863	-0.288
Mof_C 	C 	0.3239	0.4641	0.43541	0.157
Mof_C 	C 	0.1889	0.2561	0.48372	-0.449
Mof_C 	C 	0.3381	0.4142	0.6357	0.194
Mof_C 	C 	0.4515	0.5272	0.66526	0.188
Mof_C 	C 	0.5306	0.572	0.63213	0.185
Mof_C 	C 	0.2136	0.284	0.60625	-0.265
Mof_C 	C 	0.1722	0.3542	0.59266	0.408
Mof_C 	C 	0.5695	0.6409	0.69663	-0.24
Mof_C 	C 	0.5416	0.6861	0.7171	0.366
Mof_C 	C 	0.7431	0.7389	0.62793	-0.268
Mof_C 	C 	0.8138	0.683	0.63866	0.457
Mof_C 	C 	0.4251	0.819	0.59912	0.157
Mof_C 	C 	0.5185	0.8913	0.61326	-0.281
Mof_C 	C 	0.5092	0.8596	0.63456	0.27
Mof_C 	C 	0.4027	0.7543	0.64066	-0.276
Mof_C 	C 	0.3136	0.6865	0.62598	0.155
Mof_C 	C 	0.6103	0.9324	0.65027	-0.408
Mof_C 	C 	0.2989	0.7382	0.79206	0.152
Mof_C 	C 	0.244	0.7772	0.80638	-0.276
Mof_C 	C 	0.1331	0.7696	0.80145	0.258
Mof_C 	C 	0.0788	0.7138	0.78197	-0.283
Mof_C 	C 	0.1402	0.6761	0.76875	0.154
Mof_C 	C 	0.0672	0.8111	0.81706	-0.426
Mof_C 	C 	0.5858	0.6619	0.8643	0.194
Mof_C 	C 	0.4728	0.5485	0.83474	0.188
Mof_C 	C 	0.428	0.4694	0.86787	0.185
Mof_C 	C 	0.716	0.7864	0.89375	-0.265
Mof_C 	C 	0.6458	0.8278	0.90734	0.409
Mof_C 	C 	0.3591	0.4305	0.80337	-0.24
Mof_C 	C 	0.3139	0.4584	0.7829	0.366
Mof_C 	C 	0.2611	0.2569	0.87207	-0.266
Mof_C 	C 	0.317	0.1862	0.86134	0.455
Mof_C 	C 	0.181	0.5749	0.90088	0.154
Mof_C 	C 	0.1087	0.4815	0.88674	-0.28
Mof_C 	C 	0.1404	0.4908	0.86544	0.266
Mof_C 	C 	0.2457	0.5973	0.85934	-0.274
Mof_C 	C 	0.3135	0.6864	0.87402	0.153
Mof_C 	C 	0.0676	0.3897	0.84973	-0.407
Mof_C 	C 	0.2618	0.7011	0.70794	0.15
Mof_C 	C 	0.2228	0.756	0.69362	-0.274
Mof_C 	C 	0.2304	0.8669	0.69855	0.255
Mof_C 	C 	0.2862	0.9212	0.71803	-0.28
Mof_C 	C 	0.3239	0.8598	0.73125	0.153
Mof_C 	C 	0.1889	0.9328	0.68294	-0.416
Mof_C 	C 	0.3381	0.9239	0.53097	0.196
Mof_C 	C 	0.4515	0.9243	0.50141	0.191
Mof_C 	C 	0.5306	0.9586	0.53454	0.186
Mof_C 	C 	0.2136	0.9296	0.56042	-0.268
Mof_C 	C 	0.1722	0.818	0.57401	0.41
Mof_C 	C 	0.5695	0.9286	0.47004	-0.215
Mof_C 	C 	0.5416	0.8555	0.44957	0.36
Mof_C 	C 	0.7431	0.0042	0.53874	-0.3
Mof_C 	C 	0.8138	0.1308	0.52801	0.464
Mof_C 	C 	0.4251	0.6061	0.56755	0.161
Mof_C 	C 	0.5185	0.6272	0.55341	-0.291
Mof_C 	C 	0.5092	0.6496	0.53211	0.283
Mof_C 	C 	0.4027	0.6484	0.52601	-0.285
Mof_C 	C 	0.3136	0.6271	0.54069	0.159
Mof_C 	C 	0.6103	0.6779	0.5164	-0.442
Mof_C 	C 	0.2989	0.5607	0.37461	0.151
Mof_C 	C 	0.244	0.4668	0.36029	-0.275
Mof_C 	C 	0.1331	0.3635	0.36522	0.256
Mof_C 	C 	0.0788	0.365	0.3847	-0.282
Mof_C 	C 	0.1402	0.4641	0.39792	0.153
Mof_C 	C 	0.0672	0.2561	0.34961	-0.422
Mof_C 	C 	0.0761	0.4142	0.19764	0.194
Mof_C 	C 	0.0757	0.5272	0.16808	0.188
Mof_C 	C 	0.0414	0.572	0.20121	0.185
Mof_C 	C 	0.0704	0.284	0.22709	-0.264
Mof_C 	C 	0.182	0.3542	0.24068	0.408
Mof_C 	C 	0.0714	0.6409	0.13671	-0.244
Mof_C 	C 	0.1445	0.6861	0.11624	0.367
Mof_C 	C 	0.9958	0.7389	0.20541	-0.258
Mof_C 	C 	0.8692	0.683	0.19468	0.454
Mof_C 	C 	0.3939	0.819	0.23422	0.156
Mof_C 	C 	0.3728	0.8913	0.22008	-0.279
Mof_C 	C 	0.3504	0.8596	0.19878	0.267
Mof_C 	C 	0.3516	0.7543	0.19268	-0.274
Mof_C 	C 	0.3729	0.6865	0.20736	0.154
Mof_C 	C 	0.3221	0.9324	0.18307	-0.402
Mof_C 	C 	0.4393	0.7382	0.04128	0.159
Mof_C 	C 	0.5332	0.7772	0.02696	-0.287
Mof_C 	C 	0.6365	0.7696	0.03189	0.277
Mof_C 	C 	0.635	0.7138	0.05137	-0.293
Mof_C 	C 	0.5359	0.6761	0.06459	0.161
Mof_C 	C 	0.7439	0.8111	0.01628	-0.466
Mof_C 	C 	0.4142	0.3381	0.3643	0.194
Mof_C 	C 	0.5272	0.4515	0.33474	0.188
Mof_C 	C 	0.572	0.5306	0.36787	0.185
Mof_C 	C 	0.284	0.2136	0.39375	-0.265
Mof_C 	C 	0.3542	0.1722	0.40734	0.408
Mof_C 	C 	0.6409	0.5695	0.30337	-0.24
Mof_C 	C 	0.6861	0.5416	0.2829	0.366
Mof_C 	C 	0.7389	0.7431	0.37207	-0.268
Mof_C 	C 	0.683	0.8138	0.36134	0.457
Mof_C 	C 	0.819	0.4251	0.40088	0.157
Mof_C 	C 	0.8913	0.5185	0.38674	-0.281
Mof_C 	C 	0.8596	0.5092	0.36544	0.27
Mof_C 	C 	0.7543	0.4027	0.35934	-0.276
Mof_C 	C 	0.6865	0.3136	0.37402	0.155
Mof_C 	C 	0.9324	0.6103	0.34973	-0.408
Mof_C 	C 	0.7382	0.2989	0.20794	0.152
Mof_C 	C 	0.7772	0.244	0.19362	-0.276
Mof_C 	C 	0.7696	0.1331	0.19855	0.258
Mof_C 	C 	0.7138	0.0788	0.21803	-0.283
Mof_C 	C 	0.6761	0.1402	0.23125	0.154
Mof_C 	C 	0.8111	0.0672	0.18294	-0.426
Mof_C 	C 	0.6619	0.0761	0.03097	0.193
Mof_C 	C 	0.5485	0.0757	0.00141	0.187
Mof_C 	C 	0.4694	0.0414	0.03454	0.184
Mof_C 	C 	0.7864	0.0704	0.06042	-0.264
Mof_C 	C 	0.8278	0.182	0.07401	0.408
Mof_C 	C 	0.4305	0.0714	0.97004	-0.245
Mof_C 	C 	0.4584	0.1445	0.94957	0.367
Mof_C 	C 	0.2569	0.9958	0.03874	-0.254
Mof_C 	C 	0.1862	0.8692	0.02801	0.452
Mof_C 	C 	0.5749	0.3939	0.06755	0.16
Mof_C 	C 	0.4815	0.3728	0.05341	-0.289
Mof_C 	C 	0.4908	0.3504	0.03211	0.281
Mof_C 	C 	0.5973	0.3516	0.02601	-0.283
Mof_C 	C 	0.6864	0.3729	0.04069	0.158
Mof_C 	C 	0.3897	0.3221	0.0164	-0.437
Mof_C 	C 	0.7011	0.4393	0.87461	0.152
Mof_C 	C 	0.756	0.5332	0.86029	-0.276
Mof_C 	C 	0.8669	0.6365	0.86522	0.259
Mof_C 	C 	0.9212	0.635	0.8847	-0.282
Mof_C 	C 	0.8598	0.5359	0.89792	0.155
Mof_C 	C 	0.9328	0.7439	0.84961	-0.42
Mof_C 	C 	0.9239	0.5858	0.69764	0.196
Mof_C 	C 	0.9243	0.4728	0.66808	0.191
Mof_C 	C 	0.9586	0.428	0.70121	0.186
Mof_C 	C 	0.9296	0.716	0.72709	-0.268
Mof_C 	C 	0.818	0.6458	0.74068	0.411
Mof_C 	C 	0.9286	0.3591	0.63671	-0.215
Mof_C 	C 	0.8555	0.3139	0.61624	0.36
Mof_C 	C 	0.0042	0.2611	0.70541	-0.3
Mof_C 	C 	0.1308	0.317	0.69468	0.463
Mof_C 	C 	0.6061	0.181	0.73422	0.155
Mof_C 	C 	0.6272	0.1087	0.72008	-0.281
Mof_C 	C 	0.6496	0.1404	0.69878	0.268
Mof_C 	C 	0.6484	0.2457	0.69268	-0.275
Mof_C 	C 	0.6271	0.3135	0.70736	0.153
Mof_C 	C 	0.6779	0.0676	0.68307	-0.412
Mof_C 	C 	0.5607	0.2618	0.54128	0.154
Mof_C 	C 	0.4668	0.2228	0.52696	-0.282
Mof_C 	C 	0.3635	0.2304	0.53189	0.267
Mof_C 	C 	0.365	0.2862	0.55137	-0.288
Mof_C 	C 	0.4641	0.3239	0.56459	0.157
Mof_C 	C 	0.2561	0.1889	0.51628	-0.449
Mof_C 	C 	0.5767	0.5767	0.5	0.227
Mof_C 	C 	-2.80944e-17	0.4233	0.83333	0.171
Mof_C 	C 	0.4233	1.18289e-32	0.16667	0.171
Mof_C 	C 	0.4233	0.4233	-0	0.222
Mof_C 	C 	1.00726e-17	0.5767	0.33333	0.179
Mof_C 	C 	0.5767	4.73158e-32	0.66667	0.179
Mof_C 	C 	0.288	4.73158e-32	0.66667	0.211
Mof_C 	C 	0.712	0.712	-0	0.278
Mof_C 	C 	1.00726e-17	0.288	0.33333	0.211
Mof_C 	C 	0.712	1.18289e-32	0.16667	0.212
Mof_C 	C 	0.288	0.288	0.5	0.259
Mof_C 	C 	2.51785e-17	0.712	0.83333	0.212
Mof_N 	N 	0.947	0.4296	0.45588	-0.169
Mof_N 	N 	0.9088	0.3434	0.4909	-0.184
Mof_N 	N 	0.9519	0.5489	0.48671	-0.164
Mof_N 	N 	0.9163	0.2354	0.46218	-0.18
Mof_N 	N 	0.9109	0.4582	0.51964	-0.19
Mof_N 	N 	0.9782	0.625	0.45279	-0.159
Mof_N 	N 	0.6062	0.3226	0.43824	-0.261
Mof_N 	N 	0.5623	0.2509	0.60641	-0.275
Mof_N 	N 	0.4826	0.053	0.78921	-0.171
Mof_N 	N 	0.4346	0.0912	0.82423	-0.184
Mof_N 	N 	0.597	0.0481	0.82004	-0.166
Mof_N 	N 	0.3191	0.0837	0.79551	-0.181
Mof_N 	N 	0.5473	0.0891	0.85297	-0.187
Mof_N 	N 	0.6468	0.0218	0.78612	-0.17
Mof_N 	N 	0.7164	0.3938	0.77157	-0.259
Mof_N 	N 	0.6886	0.4377	0.93974	-0.277
Mof_N 	N 	0.5704	0.5174	0.12255	-0.17
Mof_N 	N 	0.6566	0.5654	0.15757	-0.184
Mof_N 	N 	0.4511	0.403	0.15338	-0.165
Mof_N 	N 	0.7646	0.6809	0.12885	-0.181
Mof_N 	N 	0.5418	0.4527	0.18631	-0.187
Mof_N 	N 	0.375	0.3532	0.11946	-0.168
Mof_N 	N 	0.6774	0.2836	0.10491	-0.259
Mof_N 	N 	0.7491	0.3114	0.27308	-0.274
Mof_N 	N 	0.053	0.5704	0.95588	-0.171
Mof_N 	N 	0.0912	0.6566	0.9909	-0.184
Mof_N 	N 	0.0481	0.4511	0.98671	-0.166
Mof_N 	N 	0.0837	0.7646	0.96218	-0.181
Mof_N 	N 	0.0891	0.5418	0.01964	-0.187
Mof_N 	N 	0.0218	0.375	0.95279	-0.171
Mof_N 	N 	0.3938	0.6774	0.93824	-0.26
Mof_N 	N 	0.4377	0.7491	0.10641	-0.275
Mof_N 	N 	0.5174	0.947	0.28921	-0.169
Mof_N 	N 	0.5654	0.9088	0.32423	-0.184
Mof_N 	N 	0.403	0.9519	0.32004	-0.164
Mof_N 	N 	0.6809	0.9163	0.29551	-0.18
Mof_N 	N 	0.4527	0.9109	0.35297	-0.19
Mof_N 	N 	0.3532	0.9782	0.28612	-0.159
Mof_N 	N 	0.2836	0.6062	0.27157	-0.259
Mof_N 	N 	0.3114	0.5623	0.43974	-0.276
Mof_N 	N 	0.4296	0.4826	0.62255	-0.17
Mof_N 	N 	0.3434	0.4346	0.65757	-0.184
Mof_N 	N 	0.5489	0.597	0.65338	-0.165
Mof_N 	N 	0.2354	0.3191	0.62885	-0.181
Mof_N 	N 	0.4582	0.5473	0.68631	-0.187
Mof_N 	N 	0.625	0.6468	0.61946	-0.167
Mof_N 	N 	0.3226	0.7164	0.60491	-0.259
Mof_N 	N 	0.2509	0.6886	0.77308	-0.275
Mof_N 	N 	0.5174	0.5704	0.87745	-0.17
Mof_N 	N 	0.5654	0.6566	0.84243	-0.184
Mof_N 	N 	0.403	0.4511	0.84662	-0.165
Mof_N 	N 	0.6809	0.7646	0.87115	-0.181
Mof_N 	N 	0.4527	0.5418	0.81369	-0.187
Mof_N 	N 	0.3532	0.375	0.88054	-0.168
Mof_N 	N 	0.2836	0.6774	0.89509	-0.259
Mof_N 	N 	0.3114	0.7491	0.72692	-0.274
Mof_N 	N 	0.4296	0.947	0.54412	-0.169
Mof_N 	N 	0.3434	0.9088	0.5091	-0.184
Mof_N 	N 	0.5489	0.9519	0.51329	-0.164
Mof_N 	N 	0.2354	0.9163	0.53782	-0.18
Mof_N 	N 	0.4582	0.9109	0.48036	-0.19
Mof_N 	N 	0.625	0.9782	0.54721	-0.159
Mof_N 	N 	0.3226	0.6062	0.56176	-0.261
Mof_N 	N 	0.2509	0.5623	0.39359	-0.275
Mof_N 	N 	0.053	0.4826	0.21079	-0.171
Mof_N 	N 	0.0912	0.4346	0.17577	-0.184
Mof_N 	N 	0.0481	0.597	0.17996	-0.166
Mof_N 	N 	0.0837	0.3191	0.20449	-0.181
Mof_N 	N 	0.0891	0.5473	0.14703	-0.187
Mof_N 	N 	0.0218	0.6468	0.21388	-0.17
Mof_N 	N 	0.3938	0.7164	0.22843	-0.259
Mof_N 	N 	0.4377	0.6886	0.06026	-0.277
Mof_N 	N 	0.4826	0.4296	0.37745	-0.17
Mof_N 	N 	0.4346	0.3434	0.34243	-0.184
Mof_N 	N 	0.597	0.5489	0.34662	-0.165
Mof_N 	N 	0.3191	0.2354	0.37115	-0.181
Mof_N 	N 	0.5473	0.4582	0.31369	-0.187
Mof_N 	N 	0.6468	0.625	0.38054	-0.167
Mof_N 	N 	0.7164	0.3226	0.39509	-0.259
Mof_N 	N 	0.6886	0.2509	0.22692	-0.275
Mof_N 	N 	0.5704	0.053	0.04412	-0.171
Mof_N 	N 	0.6566	0.0912	0.0091	-0.184
Mof_N 	N 	0.4511	0.0481	0.01329	-0.166
Mof_N 	N 	0.7646	0.0837	0.03782	-0.181
Mof_N 	N 	0.5418	0.0891	0.98036	-0.187
Mof_N 	N 	0.375	0.0218	0.04721	-0.171
Mof_N 	N 	0.6774	0.3938	0.06176	-0.26
Mof_N 	N 	0.7491	0.4377	0.89359	-0.275
Mof_N 	N 	0.947	0.5174	0.71079	-0.169
Mof_N 	N 	0.9088	0.5654	0.67577	-0.184
Mof_N 	N 	0.9519	0.403	0.67996	-0.164
Mof_N 	N 	0.9163	0.6809	0.70449	-0.18
Mof_N 	N 	0.9109	0.4527	0.64703	-0.19
Mof_N 	N 	0.9782	0.3532	0.71388	-0.159
Mof_N 	N 	0.6062	0.2836	0.72843	-0.259
Mof_N 	N 	0.5623	0.3114	0.56026	-0.276
Mof_O 	O 	0.733	0.185	0.43344	-0.438
Mof_O 	O 	0.8203	0.1299	0.40804	-0.313
Mof_O 	O 	0.8288	0.4432	0.56007	-0.413
Mof_O 	O 	0.8279	0.6203	0.55672	-0.293
Mof_O 	O 	0.1428	0.8743	0.48849	-0.558
Mof_O 	O 	0.2169	0.8057	0.46313	-0.313
Mof_O 	O 	0.452	0.267	0.76677	-0.436
Mof_O 	O 	0.3096	0.1797	0.74137	-0.314
Mof_O 	O 	0.6144	0.1712	0.8934	-0.417
Mof_O 	O 	0.7924	0.1721	0.89005	-0.296
Mof_O 	O 	0.7315	0.8572	0.82182	-0.55
Mof_O 	O 	0.5888	0.7831	0.79646	-0.309
Mof_O 	O 	0.815	0.548	0.10011	-0.436
Mof_O 	O 	0.8701	0.6904	0.07471	-0.311
Mof_O 	O 	0.5568	0.3856	0.22674	-0.416
Mof_O 	O 	0.3797	0.2076	0.22339	-0.3
Mof_O 	O 	0.1257	0.2685	0.15516	-0.554
Mof_O 	O 	0.1943	0.4112	0.1298	-0.31
Mof_O 	O 	0.267	0.815	0.93344	-0.436
Mof_O 	O 	0.1797	0.8701	0.90804	-0.312
Mof_O 	O 	0.1712	0.5568	0.06007	-0.417
Mof_O 	O 	0.1721	0.3797	0.05672	-0.299
Mof_O 	O 	0.8572	0.1257	0.98849	-0.551
Mof_O 	O 	0.7831	0.1943	0.96313	-0.309
Mof_O 	O 	0.548	0.733	0.26677	-0.436
Mof_O 	O 	0.6904	0.8203	0.24137	-0.309
Mof_O 	O 	0.3856	0.8288	0.3934	-0.413
Mof_O 	O 	0.2076	0.8279	0.39005	-0.295
Mof_O 	O 	0.2685	0.1428	0.32182	-0.56
Mof_O 	O 	0.4112	0.2169	0.29646	-0.314
Mof_O 	O 	0.185	0.452	0.60011	-0.437
Mof_O 	O 	0.1299	0.3096	0.57471	-0.316
Mof_O 	O 	0.4432	0.6144	0.72674	-0.416
Mof_O 	O 	0.6203	0.7924	0.72339	-0.295
Mof_O 	O 	0.8743	0.7315	0.65516	-0.55
Mof_O 	O 	0.8057	0.5888	0.6298	-0.309
Mof_O 	O 	0.548	0.815	0.89989	-0.436
Mof_O 	O 	0.6904	0.8701	0.92529	-0.311
Mof_O 	O 	0.3856	0.5568	0.77326	-0.416
Mof_O 	O 	0.2076	0.3797	0.77661	-0.3
Mof_O 	O 	0.2685	0.1257	0.84484	-0.554
Mof_O 	O 	0.4112	0.1943	0.8702	-0.31
Mof_O 	O 	0.185	0.733	0.56656	-0.438
Mof_O 	O 	0.1299	0.8203	0.59196	-0.313
Mof_O 	O 	0.4432	0.8288	0.43993	-0.413
Mof_O 	O 	0.6203	0.8279	0.44328	-0.293
Mof_O 	O 	0.8743	0.1428	0.51151	-0.558
Mof_O 	O 	0.8057	0.2169	0.53687	-0.313
Mof_O 	O 	0.267	0.452	0.23323	-0.436
Mof_O 	O 	0.1797	0.3096	0.25863	-0.314
Mof_O 	O 	0.1712	0.6144	0.1066	-0.417
Mof_O 	O 	0.1721	0.7924	0.10995	-0.296
Mof_O 	O 	0.8572	0.7315	0.17818	-0.55
Mof_O 	O 	0.7831	0.5888	0.20354	-0.309
Mof_O 	O 	0.452	0.185	0.39989	-0.437
Mof_O 	O 	0.3096	0.1299	0.42529	-0.316
Mof_O 	O 	0.6144	0.4432	0.27326	-0.416
Mof_O 	O 	0.7924	0.6203	0.27661	-0.295
Mof_O 	O 	0.7315	0.8743	0.34484	-0.55
Mof_O 	O 	0.5888	0.8057	0.3702	-0.309
Mof_O 	O 	0.815	0.267	0.06656	-0.436
Mof_O 	O 	0.8701	0.1797	0.09196	-0.312
Mof_O 	O 	0.5568	0.1712	0.93993	-0.417
Mof_O 	O 	0.3797	0.1721	0.94328	-0.299
Mof_O 	O 	0.1257	0.8572	0.01151	-0.551
Mof_O 	O 	0.1943	0.7831	0.03687	-0.309
Mof_O 	O 	0.733	0.548	0.73323	-0.436
Mof_O 	O 	0.8203	0.6904	0.75863	-0.309
Mof_O 	O 	0.8288	0.3856	0.6066	-0.413
Mof_O 	O 	0.8279	0.2076	0.60995	-0.295
Mof_O 	O 	0.1428	0.2685	0.67818	-0.56
Mof_O 	O 	0.2169	0.4112	0.70354	-0.314
_end
