data_functionalizedCrystal
_audit_creation_method	'EQeq! by Chris Wilmer'
_symmetry_space_group_name_H-M	'P1'
_symmetry_Int_Tables_number	1
_symmetry_cell_setting	triclinic
loop_
_symmetry_equiv_pos_as_xyz
  x,y,z
_cell_length_a	36.815
_cell_length_b	6.9805
_cell_length_c	6.2024
_cell_angle_alpha	90
_cell_angle_beta	97.42
_cell_angle_gamma	90
loop_
_atom_site_label
_atom_site_type_symbol
_atom_site_fract_x
_atom_site_fract_y
_atom_site_fract_z
_atom_site_charge
Mof_O 	O 	0.3462	0.4466	0.5153	-0.24
Mof_O 	O 	0.20069	0.1906	0.2129	-0.509
Mof_O 	O 	0.22415	0.345	0.6223	-0.73
Mof_N 	N 	0.45313	0.483	0.095	-0.115
Mof_C 	C 	0.4492	0.425	0.3037	0.08
Mof_H 	H 	0.4705	0.3839	0.4013	-0.054
Mof_C 	C 	0.415	0.424	0.373	-0.099
Mof_H 	H 	0.4117	0.3723	0.5137	0.06
Mof_C 	C 	0.3886	0.5446	0.0256	0.002
Mof_H 	H 	0.3671	0.5712	0.9229	0.048
Mof_C 	C 	0.4229	0.551	0.9577	0.071
Mof_H 	H 	0.4259	0.6022	0.8162	-0.029
Mof_C 	C 	0.17364	0.4148	0.9731	0.009
Mof_C 	C 	0.1399	0.4052	0.0544	-0.031
Mof_H 	H 	0.1387	0.3558	0.198	0.037
Mof_C 	C 	0.10799	0.4677	0.9267	0.016
Mof_H 	H 	0.0849	0.4616	0.9827	0.088
Mof_C 	C 	0.10974	0.5391	0.7174	0.018
Mof_H 	H 	0.0877	0.5776	0.6281	0.004
Mof_C 	C 	0.1435	0.5546	0.6374	0.156
Mof_H 	H 	0.1444	0.6037	0.4935	-0.042
Mof_C 	C 	0.2065	0.359	0.129	0.305
Mof_O 	O 	0.8462	0.9466	0.5153	-0.323
Mof_O 	O 	0.70069	0.6906	0.2129	-0.503
Mof_O 	O 	0.72415	0.845	0.6223	-0.741
Mof_N 	N 	0.95313	0.983	0.095	0.075
Mof_C 	C 	0.9492	0.925	0.3037	0.115
Mof_H 	H 	0.9705	0.8839	0.4013	-0.075
Mof_C 	C 	0.915	0.924	0.373	-0.47
Mof_H 	H 	0.9117	0.8723	0.5137	0.171
Mof_C 	C 	0.8886	0.0446	0.0256	-0.673
Mof_H 	H 	0.8671	0.0712	0.9229	0.264
Mof_C 	C 	0.9229	0.051	0.9577	-0.833
Mof_H 	H 	0.9259	0.1022	0.8162	0.248
Mof_C 	C 	0.67364	0.9148	0.9731	-0.033
Mof_C 	C 	0.6399	0.9052	0.0544	-0.143
Mof_H 	H 	0.6387	0.8558	0.198	0.072
Mof_C 	C 	0.60799	0.9677	0.9267	0.088
Mof_H 	H 	0.5849	0.9616	0.9827	-0.122
Mof_C 	C 	0.60974	0.0391	0.7174	-0.359
Mof_H 	H 	0.5877	0.0776	0.6281	0.123
Mof_C 	C 	0.6435	0.0546	0.6374	-0.561
Mof_H 	H 	0.6444	0.1037	0.4935	0.18
Mof_C 	C 	0.7065	0.859	0.129	0.302
Mof_O 	O 	0.6538	0.4466	0.4847	-0.247
Mof_O 	O 	0.79931	0.1906	0.7871	-0.509
Mof_O 	O 	0.77585	0.345	0.3777	-0.724
Mof_N 	N 	0.54687	0.483	0.905	-0.099
Mof_C 	C 	0.5508	0.425	0.6963	0.059
Mof_H 	H 	0.5295	0.3839	0.5987	-0.047
Mof_C 	C 	0.585	0.424	0.627	-0.073
Mof_H 	H 	0.5883	0.3723	0.4863	0.048
Mof_C 	C 	0.6114	0.5446	0.9744	0.058
Mof_H 	H 	0.6329	0.5712	0.0771	0.015
Mof_C 	C 	0.5771	0.551	0.0423	0.006
Mof_H 	H 	0.5741	0.6022	0.1838	-0.013
Mof_C 	C 	0.82636	0.4148	0.0269	-0.062
Mof_C 	C 	0.8601	0.4052	0.9456	0.041
Mof_H 	H 	0.8613	0.3558	0.802	0.016
Mof_C 	C 	0.89201	0.4677	0.0733	-0.023
Mof_H 	H 	0.9151	0.4616	0.0173	0.079
Mof_C 	C 	0.89026	0.5391	0.2826	0.021
Mof_H 	H 	0.9123	0.5776	0.3719	0.003
Mof_C 	C 	0.8565	0.5546	0.3626	0.108
Mof_H 	H 	0.8556	0.6037	0.5065	-0.024
Mof_C 	C 	0.7935	0.359	0.871	0.349
Mof_O 	O 	0.1538	0.9466	0.4847	-0.345
Mof_O 	O 	0.29931	0.6906	0.7871	-0.505
Mof_O 	O 	0.27585	0.845	0.3777	-0.746
Mof_N 	N 	0.04687	0.983	0.905	0.116
Mof_C 	C 	0.0508	0.925	0.6963	0.105
Mof_H 	H 	0.0295	0.8839	0.5987	-0.075
Mof_C 	C 	0.085	0.924	0.627	-0.498
Mof_H 	H 	0.0883	0.8723	0.4863	0.177
Mof_C 	C 	0.1114	0.0446	0.9744	-0.724
Mof_H 	H 	0.1329	0.0712	0.0771	0.262
Mof_C 	C 	0.0771	0.051	0.0423	-0.999
Mof_H 	H 	0.0741	0.1022	0.1838	0.294
Mof_C 	C 	0.32636	0.9148	0.0269	-0.101
Mof_C 	C 	0.3601	0.9052	0.9456	-0.099
Mof_H 	H 	0.3613	0.8558	0.802	0.061
Mof_C 	C 	0.39201	0.9677	0.0733	0.061
Mof_H 	H 	0.4151	0.9616	0.0173	-0.135
Mof_C 	C 	0.39026	0.0391	0.2826	-0.419
Mof_H 	H 	0.4123	0.0776	0.3719	0.141
Mof_C 	C 	0.3565	0.0546	0.3626	-0.737
Mof_H 	H 	0.3556	0.1037	0.5065	0.238
Mof_C 	C 	0.2935	0.859	0.871	0.336
Mof_O 	O 	0.6538	0.5534	0.4847	-0.281
Mof_O 	O 	0.79931	0.8094	0.7871	-0.513
Mof_O 	O 	0.77585	0.655	0.3777	-0.727
Mof_N 	N 	0.54687	0.517	0.905	-0.109
Mof_C 	C 	0.5508	0.575	0.6963	-0.088
Mof_H 	H 	0.5295	0.6161	0.5987	-0.004
Mof_C 	C 	0.585	0.576	0.627	0.032
Mof_H 	H 	0.5883	0.6277	0.4863	0.005
Mof_C 	C 	0.6114	0.4554	0.9744	-0.034
Mof_H 	H 	0.6329	0.4288	0.0771	0.046
Mof_C 	C 	0.5771	0.449	0.0423	-0.065
Mof_H 	H 	0.5741	0.3978	0.1838	0.006
Mof_C 	C 	0.82636	0.5852	0.0269	-0.053
Mof_C 	C 	0.8601	0.5948	0.9456	-0.029
Mof_H 	H 	0.8613	0.6442	0.802	0.029
Mof_C 	C 	0.89201	0.5323	0.0733	-0.028
Mof_H 	H 	0.9151	0.5384	0.0173	-0.065
Mof_C 	C 	0.89026	0.4609	0.2826	-0.079
Mof_H 	H 	0.9123	0.4224	0.3719	0.036
Mof_C 	C 	0.8565	0.4454	0.3626	-0.086
Mof_H 	H 	0.8556	0.3963	0.5065	0.034
Mof_C 	C 	0.7935	0.641	0.871	0.345
Mof_O 	O 	0.1538	0.0534	0.4847	-0.196
Mof_O 	O 	0.29931	0.3094	0.7871	-0.504
Mof_O 	O 	0.27585	0.155	0.3777	-0.721
Mof_N 	N 	0.04687	0.017	0.905	-0.329
Mof_C 	C 	0.0508	0.075	0.6963	-0.124
Mof_H 	H 	0.0295	0.1161	0.5987	0.017
Mof_C 	C 	0.085	0.076	0.627	0.428
Mof_H 	H 	0.0883	0.1277	0.4863	-0.115
Mof_C 	C 	0.1114	0.9554	0.9744	0.721
Mof_H 	H 	0.1329	0.9288	0.0771	-0.194
Mof_C 	C 	0.0771	0.949	0.0423	0.95
Mof_H 	H 	0.0741	0.8978	0.1838	-0.306
Mof_C 	C 	0.32636	0.0852	0.0269	-0.022
Mof_C 	C 	0.3601	0.0948	0.9456	0.116
Mof_H 	H 	0.3613	0.1442	0.802	-0.017
Mof_C 	C 	0.39201	0.0323	0.0733	-0.116
Mof_H 	H 	0.4151	0.0384	0.0173	0.149
Mof_C 	C 	0.39026	0.9609	0.2826	0.368
Mof_H 	H 	0.4123	0.9224	0.3719	-0.104
Mof_C 	C 	0.3565	0.9454	0.3626	0.745
Mof_H 	H 	0.3556	0.8963	0.5065	-0.222
Mof_C 	C 	0.2935	0.141	0.871	0.342
Mof_O 	O 	0.3462	0.5534	0.5153	-0.284
Mof_O 	O 	0.20069	0.8094	0.2129	-0.513
Mof_O 	O 	0.22415	0.655	0.6223	-0.734
Mof_N 	N 	0.45313	0.517	0.095	-0.127
Mof_C 	C 	0.4492	0.575	0.3037	-0.101
Mof_H 	H 	0.4705	0.6161	0.4013	-0.001
Mof_C 	C 	0.415	0.576	0.373	0.029
Mof_H 	H 	0.4117	0.6277	0.5137	0.008
Mof_C 	C 	0.3886	0.4554	0.0256	-0.113
Mof_H 	H 	0.3671	0.4288	0.9229	0.088
Mof_C 	C 	0.4229	0.449	0.9577	-0.022
Mof_H 	H 	0.4259	0.3978	0.8162	-0.004
Mof_C 	C 	0.17364	0.5852	0.9731	0.011
Mof_C 	C 	0.1399	0.5948	0.0544	-0.111
Mof_H 	H 	0.1387	0.6442	0.198	0.053
Mof_C 	C 	0.10799	0.5323	0.9267	0.016
Mof_H 	H 	0.0849	0.5384	0.9827	-0.084
Mof_C 	C 	0.10974	0.4609	0.7174	-0.113
Mof_H 	H 	0.0877	0.4224	0.6281	0.047
Mof_C 	C 	0.1435	0.4454	0.6374	-0.094
Mof_H 	H 	0.1444	0.3963	0.4935	0.034
Mof_C 	C 	0.2065	0.641	0.129	0.303
Mof_O 	O 	0.8462	0.0534	0.5153	-0.209
Mof_O 	O 	0.70069	0.3094	0.2129	-0.501
Mof_O 	O 	0.72415	0.155	0.6223	-0.723
Mof_N 	N 	0.95313	0.017	0.095	-0.318
Mof_C 	C 	0.9492	0.075	0.3037	-0.129
Mof_H 	H 	0.9705	0.1161	0.4013	0.021
Mof_C 	C 	0.915	0.076	0.373	0.378
Mof_H 	H 	0.9117	0.1277	0.5137	-0.096
Mof_C 	C 	0.8886	0.9554	0.0256	0.543
Mof_H 	H 	0.8671	0.9288	0.9229	-0.123
Mof_C 	C 	0.9229	0.949	0.9577	0.889
Mof_H 	H 	0.9259	0.8978	0.8162	-0.284
Mof_C 	C 	0.67364	0.0852	0.9731	0.045
Mof_C 	C 	0.6399	0.0948	0.0544	0.008
Mof_H 	H 	0.6387	0.1442	0.198	0.016
Mof_C 	C 	0.60799	0.0323	0.9267	-0.06
Mof_H 	H 	0.5849	0.0384	0.9827	0.128
Mof_C 	C 	0.60974	0.9609	0.7174	0.271
Mof_H 	H 	0.5877	0.9224	0.6281	-0.073
Mof_C 	C 	0.6435	0.9454	0.6374	0.611
Mof_H 	H 	0.6444	0.8963	0.4935	-0.182
Mof_C 	C 	0.7065	0.141	0.129	0.297
Mof_Eu	Eu	0.27998	0.5	0.479	2.597
Mof_O 	O 	0.3192	0.5	0.1927	-0.482
Mof_O 	O 	0.2328	0.5	0.1627	-0.579
Mof_C 	C 	0.38468	0.5	0.2341	-0.027
Mof_C 	C 	0.3478	0.5	0.318	0.339
Mof_C 	C 	0.17539	0.5	0.7639	-0.204
Mof_C 	C 	0.2099	0.5	0.6679	0.577
Mof_Eu	Eu	0.77998	0	0.479	2.635
Mof_O 	O 	0.8192	-1.99637e-33	0.1927	-0.48
Mof_O 	O 	0.7328	-1.99637e-33	0.1627	-0.572
Mof_C 	C 	0.88468	0	0.2341	0.004
Mof_C 	C 	0.8478	0	0.318	0.344
Mof_C 	C 	0.67539	-7.98549e-33	0.7639	-0.184
Mof_C 	C 	0.7099	-7.98549e-33	0.6679	0.584
Mof_Eu	Eu	0.72002	0.5	0.521	2.601
Mof_O 	O 	0.6808	0.5	0.8073	-0.475
Mof_O 	O 	0.7672	0.5	0.8373	-0.588
Mof_C 	C 	0.61532	0.5	0.7659	-0.073
Mof_C 	C 	0.6522	0.5	0.682	0.358
Mof_C 	C 	0.82461	0.5	0.2361	-0.152
Mof_C 	C 	0.7901	0.5	0.3321	0.551
Mof_Eu	Eu	0.22002	-3.99274e-33	0.521	2.655
Mof_O 	O 	0.1808	0	0.8073	-0.472
Mof_O 	O 	0.2672	-7.98549e-33	0.8373	-0.576
Mof_C 	C 	0.11532	0	0.7659	-0.033
Mof_C 	C 	0.1522	0	0.682	0.365
Mof_C 	C 	0.32461	-1.99637e-33	0.2361	-0.13
Mof_C 	C 	0.2901	-3.99274e-33	0.3321	0.566
Mof_Cu	Cu	0.5	0.5	-0	0.785
Mof_Cu	Cu	-0	0	-0	0.794
_end
