data_functionalizedCrystal
_audit_creation_method	'EQeq! by Chris Wilmer'
_symmetry_space_group_name_H-M	'P1'
_symmetry_Int_Tables_number	1
_symmetry_cell_setting	triclinic
loop_
_symmetry_equiv_pos_as_xyz
  x,y,z
_cell_length_a	24.4586
_cell_length_b	12.1823
_cell_length_c	25.8229
_cell_angle_alpha	90
_cell_angle_beta	103.108
_cell_angle_gamma	90
loop_
_atom_site_label
_atom_site_type_symbol
_atom_site_fract_x
_atom_site_fract_y
_atom_site_fract_z
_atom_site_charge
Mof_Ag	Ag	0.33128	0.67716	0.41206	0.622
Mof_Ag	Ag	0.16422	0.32384	0.55	0.575
Mof_Ag	Ag	0.06515	0.67668	0.19304	0.622
Mof_Ag	Ag	0.5317	0.8249	0.67618	0.256
Mof_N 	N 	0.4895	0.1676	0.7738	-0.143
Mof_N 	N 	0.10918	0.842	0.15142	-0.166
Mof_C 	C 	0.19462	0.6716	0.35629	0.111
Mof_N 	N 	0.27723	0.5797	0.46142	-0.183
Mof_C 	C 	0.19207	0.6731	0.41439	-0.261
Mof_H 	H 	0.2088	0.7429	0.4302	0.083
Mof_H 	H 	0.1521	0.6733	0.4163	0.089
Mof_N 	N 	0.14648	0.6795	0.26486	-0.151
Mof_N 	N 	0.10992	0.5104	0.14304	-0.164
Mof_N 	N 	0.99112	0.7168	0.11344	-0.177
Mof_C 	C 	0.0036	0.7558	0.06927	0.11
Mof_N 	N 	0.9874	0.3216	0.26048	-0.135
Mof_N 	N 	0.90728	0.7904	0.02927	-0.151
Mof_N 	N 	0.14928	0.3231	0.10072	-0.161
Mof_N 	N 	0.01794	0.5166	0.21777	-0.181
Mof_N 	N 	0.24429	0.6809	0.34441	-0.18
Mof_N 	N 	0.58566	0.9726	0.64362	-0.167
Mof_C 	C 	0.14595	0.6698	0.31605	-0.048
Mof_H 	H 	0.1109	0.6613	0.3255	0.03
Mof_N 	N 	0.13354	0.0336	0.1007	-0.152
Mof_N 	N 	0.21615	0.4197	0.50053	-0.158
Mof_N 	N 	0.598	0.6811	0.6499	-0.169
Mof_C 	C 	0.49114	0.7353	0.55388	0.114
Mof_N 	N 	0.5083	0.9744	0.7229	-0.176
Mof_N 	N 	0.47146	0.7697	0.59516	-0.171
Mof_C 	C 	0.1968	0.6906	0.2537	-0.004
Mof_H 	H 	0.1993	0.6988	0.2177	0.017
Mof_C 	C 	0.00945	0.4242	0.18909	0.118
Mof_C 	C 	0.09495	0.8539	0.09821	0.112
Mof_C 	C 	0.22099	0.5801	0.44788	0.112
Mof_C 	C 	0.01613	0.4281	0.13251	-0.263
Mof_H 	H 	0.9952	0.366	0.1125	0.092
Mof_H 	H 	0.9993	0.497	0.1157	0.094
Mof_C 	C 	0.19073	0.499	0.46773	-0.052
Mof_H 	H 	0.1509	0.5001	0.4576	0.033
Mof_C 	C 	0.6228	0.6046	0.6838	0.012
Mof_H 	H 	0.6337	0.6228	0.7205	0.014
Mof_C 	C 	0.2722	0.4194	0.5126	-0.006
Mof_H 	H 	0.2917	0.3632	0.5348	0.007
Mof_C 	C 	0.0764	0.4223	0.12829	0.111
Mof_C 	C 	0.5535	0.7344	0.55912	-0.268
Mof_H 	H 	0.5616	0.7184	0.524	0.094
Mof_H 	H 	0.5688	0.808	0.5703	0.098
Mof_C 	C 	0.8954	0.7496	0.07328	-0.005
Mof_H 	H 	0.8573	0.745	0.0759	0.017
Mof_C 	C 	0.5821	0.1603	0.62	-0.052
Mof_H 	H 	0.5605	0.2256	0.6125	0.03
Mof_N 	N 	0.39916	0.7006	0.5019	-0.142
Mof_C 	C 	0.4965	0.0666	0.63787	-0.268
Mof_H 	H 	0.4769	0.1323	0.6201	0.092
Mof_H 	H 	0.4767	0.0006	0.6208	0.091
Mof_C 	C 	0.2451	0.6905	0.293	0.01
Mof_H 	H 	0.2802	0.6974	0.2835	0.012
Mof_C 	C 	0.4868	0.1636	0.7213	-0.056
Mof_H 	H 	0.4781	0.2289	0.701	0.034
Mof_C 	C 	0.5566	0.0658	0.63232	0.115
Mof_C 	C 	0.5934	0.5456	0.58347	-0.055
Mof_H 	H 	0.5823	0.5266	0.5469	0.035
Mof_C 	C 	0.06449	0.7595	0.06635	-0.262
Mof_H 	H 	0.0669	0.7671	0.0288	0.091
Mof_H 	H 	0.0829	0.6897	0.0801	0.091
Mof_C 	C 	0.4961	0.068	0.6956	0.119
Mof_C 	C 	0.4536	0.6998	0.50766	-0.048
Mof_H 	H 	0.4684	0.6738	0.479	0.031
Mof_C 	C 	0.4156	0.7709	0.5894	0.007
Mof_H 	H 	0.4004	0.7966	0.6179	0.013
Mof_N 	N 	0.619	0.4694	0.6178	-0.151
Mof_C 	C 	0.3798	0.7361	0.5436	-0.008
Mof_H 	H 	0.3405	0.7372	0.5413	0.017
Mof_C 	C 	0.3024	0.4999	0.4932	0.01
Mof_H 	H 	0.3422	0.498	0.503	0.013
Mof_C 	C 	0.96115	0.7938	0.02761	-0.05
Mof_H 	H 	0.9711	0.8232	0.9969	0.029
Mof_C 	C 	0.0971	0.3288	0.10801	-0.051
Mof_H 	H 	0.0731	0.267	0.0991	0.028
Mof_C 	C 	0.9375	0.7136	0.11559	0.01
Mof_H 	H 	0.9276	0.6861	0.1467	0.016
Mof_C 	C 	0.1468	0.0229	0.15341	-0.001
Mof_H 	H 	0.165	0.0821	0.1744	0.016
Mof_C 	C 	0.10668	0.9487	0.0734	-0.055
Mof_H 	H 	0.0953	0.9537	0.0358	0.03
Mof_C 	C 	0.1619	0.5026	0.13659	0.008
Mof_H 	H 	0.1867	0.5629	0.147	0.015
Mof_C 	C 	0.994	0.3284	0.2108	-0.052
Mof_H 	H 	0.9877	0.2644	0.1892	0.036
Mof_C 	C 	0.996	0.415	0.28843	-0.012
Mof_H 	H 	0.9917	0.4151	0.3241	0.028
Mof_C 	C 	0.0107	0.5104	0.26705	0.019
Mof_H 	H 	0.0159	0.5748	0.2884	0.008
Mof_C 	C 	0.1821	0.4102	0.11523	-0.004
Mof_H 	H 	0.2196	0.4093	0.1109	0.008
Mof_C 	C 	0.64	0.9759	0.642	0.001
Mof_H 	H 	0.6618	0.9108	0.6493	0.018
Mof_C 	C 	0.135	0.9286	0.17867	0.004
Mof_H 	H 	0.1455	0.925	0.2164	0.021
Mof_C 	C 	0.5825	0.6508	0.59859	0.117
Mof_C 	C 	0.6654	0.0712	0.6299	0.002
Mof_H 	H 	0.7043	0.0708	0.6301	0.011
Mof_C 	C 	0.5037	0.074	0.8004	-0.006
Mof_H 	H 	0.5079	0.0734	0.8379	0.027
Mof_C 	C 	0.5125	0.979	0.7753	0.013
Mof_H 	H 	0.5219	0.9142	0.7958	0.01
Mof_C 	C 	0.6332	0.5008	0.6683	-0.003
Mof_H 	H 	0.6512	0.4497	0.6945	0.016
Mof_N 	N 	0.63616	0.1627	0.61817	-0.159
Mof_Ag	Ag	0.5408	0.8111	0.6819	0.264
Mof_Ag	Ag	0.66872	0.17716	0.08794	0.623
Mof_Ag	Ag	0.83578	0.82384	0.95	0.576
Mof_Ag	Ag	0.93485	0.17668	0.30696	0.623
Mof_Ag	Ag	0.4683	0.3249	0.82382	0.257
Mof_N 	N 	0.5105	0.6676	0.7262	-0.142
Mof_N 	N 	0.89082	0.342	0.34858	-0.165
Mof_C 	C 	0.80538	0.1716	0.14371	0.112
Mof_N 	N 	0.72277	0.0797	0.03858	-0.183
Mof_C 	C 	0.80793	0.1731	0.08561	-0.259
Mof_H 	H 	0.7912	0.2429	0.0698	0.084
Mof_H 	H 	0.8479	0.1733	0.0837	0.09
Mof_N 	N 	0.85352	0.1795	0.23514	-0.15
Mof_N 	N 	0.89008	0.0104	0.35696	-0.163
Mof_N 	N 	0.00888	0.2168	0.38656	-0.176
Mof_C 	C 	0.9964	0.2558	0.43073	0.112
Mof_N 	N 	0.0126	0.8216	0.23952	-0.134
Mof_N 	N 	0.09272	0.2904	0.47073	-0.149
Mof_N 	N 	0.85072	0.8231	0.39928	-0.16
Mof_N 	N 	0.98206	0.0166	0.28223	-0.18
Mof_N 	N 	0.75571	0.1809	0.15559	-0.179
Mof_N 	N 	0.41434	0.4726	0.85638	-0.165
Mof_C 	C 	0.85405	0.1698	0.18395	-0.047
Mof_H 	H 	0.8891	0.1613	0.1745	0.031
Mof_N 	N 	0.86646	0.5336	0.3993	-0.151
Mof_N 	N 	0.78385	0.9197	0.99947	-0.158
Mof_N 	N 	0.402	0.1811	0.8501	-0.168
Mof_C 	C 	0.50886	0.2353	0.94612	0.115
Mof_N 	N 	0.4917	0.4744	0.7771	-0.175
Mof_N 	N 	0.52854	0.2697	0.90484	-0.17
Mof_C 	C 	0.8032	0.1906	0.2463	-0.003
Mof_H 	H 	0.8007	0.1988	0.2823	0.017
Mof_C 	C 	0.99055	0.9242	0.31091	0.118
Mof_C 	C 	0.90505	0.3539	0.40179	0.112
Mof_C 	C 	0.77901	0.0801	0.05212	0.11
Mof_C 	C 	0.98387	0.9281	0.36749	-0.26
Mof_H 	H 	0.0048	0.866	0.3875	0.09
Mof_H 	H 	0.0007	0.997	0.3843	0.092
Mof_C 	C 	0.80927	0.999	0.03227	-0.049
Mof_H 	H 	0.8491	0.0001	0.0424	0.031
Mof_C 	C 	0.3772	0.1046	0.8162	0.011
Mof_H 	H 	0.3663	0.1228	0.7795	0.014
Mof_C 	C 	0.7278	0.9194	0.9874	-0.008
Mof_H 	H 	0.7083	0.8632	0.9652	0.007
Mof_C 	C 	0.9236	0.9223	0.37171	0.111
Mof_C 	C 	0.4465	0.2344	0.94088	-0.268
Mof_H 	H 	0.4384	0.2184	0.976	0.094
Mof_H 	H 	0.4312	0.308	0.9297	0.098
Mof_C 	C 	0.1046	0.2496	0.42672	-0.005
Mof_H 	H 	0.1427	0.245	0.4241	0.017
Mof_C 	C 	0.4179	0.6603	0.88	-0.052
Mof_H 	H 	0.4395	0.7256	0.8875	0.03
Mof_N 	N 	0.60084	0.2006	0.9981	-0.142
Mof_C 	C 	0.5035	0.5666	0.86213	-0.268
Mof_H 	H 	0.5231	0.6323	0.8799	0.092
Mof_H 	H 	0.5233	0.5006	0.8792	0.091
Mof_C 	C 	0.7549	0.1905	0.207	0.01
Mof_H 	H 	0.7198	0.1974	0.2165	0.012
Mof_C 	C 	0.5132	0.6636	0.7787	-0.056
Mof_H 	H 	0.5219	0.7289	0.799	0.034
Mof_C 	C 	0.4434	0.5658	0.86768	0.115
Mof_C 	C 	0.4066	0.0456	0.91653	-0.055
Mof_H 	H 	0.4177	0.0266	0.9531	0.035
Mof_C 	C 	0.93551	0.2595	0.43365	-0.263
Mof_H 	H 	0.9331	0.2671	0.4712	0.091
Mof_H 	H 	0.9171	0.1897	0.4199	0.091
Mof_C 	C 	0.5039	0.568	0.8044	0.118
Mof_C 	C 	0.5464	0.1998	0.99234	-0.048
Mof_H 	H 	0.5316	0.1738	0.021	0.031
Mof_C 	C 	0.5844	0.2709	0.9106	0.007
Mof_H 	H 	0.5996	0.2966	0.8821	0.013
Mof_N 	N 	0.381	0.9694	0.8822	-0.152
Mof_C 	C 	0.6202	0.2361	0.9564	-0.008
Mof_H 	H 	0.6595	0.2372	0.9587	0.017
Mof_C 	C 	0.6976	0.9999	0.0068	0.012
Mof_H 	H 	0.6578	0.998	0.997	0.011
Mof_C 	C 	0.03885	0.2938	0.47239	-0.051
Mof_H 	H 	0.0289	0.3232	0.5031	0.03
Mof_C 	C 	0.9029	0.8288	0.39199	-0.051
Mof_H 	H 	0.9269	0.767	0.4009	0.028
Mof_C 	C 	0.0625	0.2136	0.38441	0.01
Mof_H 	H 	0.0724	0.1861	0.3533	0.016
Mof_C 	C 	0.8532	0.5229	0.34659	-0.002
Mof_H 	H 	0.835	0.5821	0.3256	0.016
Mof_C 	C 	0.89332	0.4487	0.4266	-0.055
Mof_H 	H 	0.9047	0.4537	0.4642	0.03
Mof_C 	C 	0.8381	0.0026	0.36341	0.007
Mof_H 	H 	0.8133	0.0629	0.353	0.015
Mof_C 	C 	0.006	0.8284	0.2892	-0.053
Mof_H 	H 	0.0123	0.7644	0.3108	0.036
Mof_C 	C 	0.004	0.915	0.21157	-0.013
Mof_H 	H 	0.0083	0.9151	0.1759	0.028
Mof_C 	C 	0.9893	0.0104	0.23295	0.018
Mof_H 	H 	0.9841	0.0748	0.2116	0.008
Mof_C 	C 	0.8179	0.9102	0.38477	-0.003
Mof_H 	H 	0.7804	0.9093	0.3891	0.008
Mof_C 	C 	0.36	0.4759	0.858	0.001
Mof_H 	H 	0.3382	0.4108	0.8507	0.018
Mof_C 	C 	0.865	0.4286	0.32133	0.005
Mof_H 	H 	0.8545	0.425	0.2836	0.021
Mof_C 	C 	0.4175	0.1508	0.90141	0.117
Mof_C 	C 	0.3346	0.5712	0.8701	0.003
Mof_H 	H 	0.2957	0.5708	0.8699	0.011
Mof_C 	C 	0.4963	0.574	0.6996	-0.007
Mof_H 	H 	0.4921	0.5734	0.6621	0.027
Mof_C 	C 	0.4875	0.479	0.7247	0.013
Mof_H 	H 	0.4781	0.4142	0.7042	0.01
Mof_C 	C 	0.3668	0.0008	0.8317	-0.002
Mof_H 	H 	0.3488	0.9497	0.8055	0.015
Mof_N 	N 	0.36384	0.6627	0.88183	-0.159
Mof_Ag	Ag	0.4592	0.3111	0.8181	0.264
Mof_Ag	Ag	0.66872	0.32284	0.58794	0.623
Mof_Ag	Ag	0.83578	0.67616	0.45	0.576
Mof_Ag	Ag	0.93485	0.32332	0.80696	0.623
Mof_Ag	Ag	0.4683	0.1751	0.32382	0.257
Mof_N 	N 	0.5105	0.8324	0.2262	-0.142
Mof_N 	N 	0.89082	0.158	0.84858	-0.165
Mof_C 	C 	0.80538	0.3284	0.64371	0.112
Mof_N 	N 	0.72277	0.4203	0.53858	-0.182
Mof_C 	C 	0.80793	0.3269	0.58561	-0.26
Mof_H 	H 	0.7912	0.2571	0.5698	0.084
Mof_H 	H 	0.8479	0.3267	0.5837	0.09
Mof_N 	N 	0.85352	0.3205	0.73514	-0.15
Mof_N 	N 	0.89008	0.4896	0.85696	-0.163
Mof_N 	N 	0.00888	0.2832	0.88656	-0.176
Mof_C 	C 	0.9964	0.2442	0.93073	0.111
Mof_N 	N 	0.0126	0.6784	0.73952	-0.134
Mof_N 	N 	0.09272	0.2096	0.97073	-0.15
Mof_N 	N 	0.85072	0.6769	0.89928	-0.16
Mof_N 	N 	0.98206	0.4834	0.78223	-0.18
Mof_N 	N 	0.75571	0.3191	0.65559	-0.179
Mof_N 	N 	0.41434	0.0274	0.35638	-0.166
Mof_C 	C 	0.85405	0.3302	0.68395	-0.047
Mof_H 	H 	0.8891	0.3387	0.6745	0.031
Mof_N 	N 	0.86646	0.9664	0.8993	-0.151
Mof_N 	N 	0.78385	0.5803	0.49947	-0.157
Mof_N 	N 	0.402	0.3189	0.3501	-0.168
Mof_C 	C 	0.50886	0.2647	0.44612	0.115
Mof_N 	N 	0.4917	0.0256	0.2771	-0.175
Mof_N 	N 	0.52854	0.2303	0.40484	-0.17
Mof_C 	C 	0.8032	0.3094	0.7463	-0.003
Mof_H 	H 	0.8007	0.3012	0.7823	0.017
Mof_C 	C 	0.99055	0.5758	0.81091	0.118
Mof_C 	C 	0.90505	0.1461	0.90179	0.112
Mof_C 	C 	0.77901	0.4199	0.55212	0.112
Mof_C 	C 	0.98387	0.5719	0.86749	-0.263
Mof_H 	H 	0.0048	0.634	0.8875	0.092
Mof_H 	H 	0.0007	0.503	0.8843	0.094
Mof_C 	C 	0.80927	0.501	0.53227	-0.052
Mof_H 	H 	0.8491	0.4999	0.5424	0.033
Mof_C 	C 	0.3772	0.3954	0.3162	0.012
Mof_H 	H 	0.3663	0.3772	0.2795	0.014
Mof_C 	C 	0.7278	0.5806	0.4874	-0.006
Mof_H 	H 	0.7083	0.6368	0.4652	0.007
Mof_C 	C 	0.9236	0.5777	0.87171	0.111
Mof_C 	C 	0.4465	0.2656	0.44088	-0.268
Mof_H 	H 	0.4384	0.2816	0.476	0.094
Mof_H 	H 	0.4312	0.192	0.4297	0.098
Mof_C 	C 	0.1046	0.2504	0.92672	-0.005
Mof_H 	H 	0.1427	0.255	0.9241	0.017
Mof_C 	C 	0.4179	0.8397	0.38	-0.052
Mof_H 	H 	0.4395	0.7744	0.3875	0.03
Mof_N 	N 	0.60084	0.2994	0.4981	-0.142
Mof_C 	C 	0.5035	0.9334	0.36213	-0.268
Mof_H 	H 	0.5231	0.8677	0.3799	0.092
Mof_H 	H 	0.5233	0.9994	0.3792	0.091
Mof_C 	C 	0.7549	0.3095	0.707	0.01
Mof_H 	H 	0.7198	0.3026	0.7165	0.012
Mof_C 	C 	0.5132	0.8364	0.2787	-0.056
Mof_H 	H 	0.5219	0.7711	0.299	0.034
Mof_C 	C 	0.4434	0.9342	0.36768	0.115
Mof_C 	C 	0.4066	0.4544	0.41653	-0.055
Mof_H 	H 	0.4177	0.4734	0.4531	0.035
Mof_C 	C 	0.93551	0.2405	0.93365	-0.262
Mof_H 	H 	0.9331	0.2329	0.9712	0.091
Mof_H 	H 	0.9171	0.3103	0.9199	0.091
Mof_C 	C 	0.5039	0.932	0.3044	0.119
Mof_C 	C 	0.5464	0.3002	0.49234	-0.048
Mof_H 	H 	0.5316	0.3262	0.521	0.031
Mof_C 	C 	0.5844	0.2291	0.4106	0.007
Mof_H 	H 	0.5996	0.2034	0.3821	0.013
Mof_N 	N 	0.381	0.5306	0.3822	-0.151
Mof_C 	C 	0.6202	0.2639	0.4564	-0.008
Mof_H 	H 	0.6595	0.2628	0.4587	0.017
Mof_C 	C 	0.6976	0.5001	0.5068	0.01
Mof_H 	H 	0.6578	0.502	0.497	0.013
Mof_C 	C 	0.03885	0.2062	0.97239	-0.05
Mof_H 	H 	0.0289	0.1768	0.0031	0.029
Mof_C 	C 	0.9029	0.6712	0.89199	-0.051
Mof_H 	H 	0.9269	0.733	0.9009	0.028
Mof_C 	C 	0.0625	0.2864	0.88441	0.01
Mof_H 	H 	0.0724	0.3139	0.8533	0.016
Mof_C 	C 	0.8532	0.9771	0.84659	-0.001
Mof_H 	H 	0.835	0.9179	0.8256	0.016
Mof_C 	C 	0.89332	0.0513	0.9266	-0.055
Mof_H 	H 	0.9047	0.0463	0.9642	0.03
Mof_C 	C 	0.8381	0.4974	0.86341	0.008
Mof_H 	H 	0.8133	0.4371	0.853	0.015
Mof_C 	C 	0.006	0.6716	0.7892	-0.052
Mof_H 	H 	0.0123	0.7356	0.8108	0.036
Mof_C 	C 	0.004	0.585	0.71157	-0.012
Mof_H 	H 	0.0083	0.5849	0.6759	0.028
Mof_C 	C 	0.9893	0.4896	0.73295	0.019
Mof_H 	H 	0.9841	0.4252	0.7116	0.008
Mof_C 	C 	0.8179	0.5898	0.88477	-0.004
Mof_H 	H 	0.7804	0.5907	0.8891	0.008
Mof_C 	C 	0.36	0.0241	0.358	0.001
Mof_H 	H 	0.3382	0.0892	0.3507	0.018
Mof_C 	C 	0.865	0.0714	0.82133	0.004
Mof_H 	H 	0.8545	0.075	0.7836	0.021
Mof_C 	C 	0.4175	0.3492	0.40141	0.117
Mof_C 	C 	0.3346	0.9288	0.3701	0.002
Mof_H 	H 	0.2957	0.9292	0.3699	0.011
Mof_C 	C 	0.4963	0.926	0.1996	-0.006
Mof_H 	H 	0.4921	0.9266	0.1621	0.027
Mof_C 	C 	0.4875	0.021	0.2247	0.013
Mof_H 	H 	0.4781	0.0858	0.2042	0.01
Mof_C 	C 	0.3668	0.4992	0.3317	-0.003
Mof_H 	H 	0.3488	0.5503	0.3055	0.016
Mof_N 	N 	0.36384	0.8373	0.38183	-0.159
Mof_Ag	Ag	0.4592	0.1889	0.3181	0.264
Mof_Ag	Ag	0.33128	0.82284	0.91206	0.623
Mof_Ag	Ag	0.16422	0.17616	0.05	0.576
Mof_Ag	Ag	0.06515	0.82332	0.69304	0.623
Mof_Ag	Ag	0.5317	0.6751	0.17618	0.257
Mof_N 	N 	0.4895	0.3324	0.2738	-0.142
Mof_N 	N 	0.10918	0.658	0.65142	-0.165
Mof_C 	C 	0.19462	0.8284	0.85629	0.112
Mof_N 	N 	0.27723	0.9203	0.96142	-0.183
Mof_C 	C 	0.19207	0.8269	0.91439	-0.259
Mof_H 	H 	0.2088	0.7571	0.9302	0.084
Mof_H 	H 	0.1521	0.8267	0.9163	0.09
Mof_N 	N 	0.14648	0.8205	0.76486	-0.15
Mof_N 	N 	0.10992	0.9896	0.64304	-0.163
Mof_N 	N 	0.99112	0.7832	0.61344	-0.176
Mof_C 	C 	0.0036	0.7442	0.56927	0.112
Mof_N 	N 	0.9874	0.1784	0.76048	-0.134
Mof_N 	N 	0.90728	0.7096	0.52927	-0.149
Mof_N 	N 	0.14928	0.1769	0.60072	-0.16
Mof_N 	N 	0.01794	0.9834	0.71777	-0.18
Mof_N 	N 	0.24429	0.8191	0.84441	-0.179
Mof_N 	N 	0.58566	0.5274	0.14362	-0.165
Mof_C 	C 	0.14595	0.8302	0.81605	-0.047
Mof_H 	H 	0.1109	0.8387	0.8255	0.031
Mof_N 	N 	0.13354	0.4664	0.6007	-0.151
Mof_N 	N 	0.21615	0.0803	0.00053	-0.158
Mof_N 	N 	0.598	0.8189	0.1499	-0.168
Mof_C 	C 	0.49114	0.7647	0.05388	0.115
Mof_N 	N 	0.5083	0.5256	0.2229	-0.175
Mof_N 	N 	0.47146	0.7303	0.09516	-0.17
Mof_C 	C 	0.1968	0.8094	0.7537	-0.003
Mof_H 	H 	0.1993	0.8012	0.7177	0.017
Mof_C 	C 	0.00945	0.0758	0.68909	0.118
Mof_C 	C 	0.09495	0.6461	0.59821	0.112
Mof_C 	C 	0.22099	0.9199	0.94788	0.11
Mof_C 	C 	0.01613	0.0719	0.63251	-0.26
Mof_H 	H 	0.9952	0.134	0.6125	0.09
Mof_H 	H 	0.9993	0.003	0.6157	0.092
Mof_C 	C 	0.19073	0.001	0.96773	-0.049
Mof_H 	H 	0.1509	0.9999	0.9576	0.031
Mof_C 	C 	0.6228	0.8954	0.1838	0.011
Mof_H 	H 	0.6337	0.8772	0.2205	0.014
Mof_C 	C 	0.2722	0.0806	0.0126	-0.008
Mof_H 	H 	0.2917	0.1368	0.0348	0.007
Mof_C 	C 	0.0764	0.0777	0.62829	0.111
Mof_C 	C 	0.5535	0.7656	0.05912	-0.268
Mof_H 	H 	0.5616	0.7816	0.024	0.094
Mof_H 	H 	0.5688	0.692	0.0703	0.098
Mof_C 	C 	0.8954	0.7504	0.57328	-0.005
Mof_H 	H 	0.8573	0.755	0.5759	0.017
Mof_C 	C 	0.5821	0.3397	0.12	-0.052
Mof_H 	H 	0.5605	0.2744	0.1125	0.03
Mof_N 	N 	0.39916	0.7994	0.0019	-0.142
Mof_C 	C 	0.4965	0.4334	0.13787	-0.268
Mof_H 	H 	0.4769	0.3677	0.1201	0.092
Mof_H 	H 	0.4767	0.4994	0.1208	0.091
Mof_C 	C 	0.2451	0.8095	0.793	0.01
Mof_H 	H 	0.2802	0.8026	0.7835	0.012
Mof_C 	C 	0.4868	0.3364	0.2213	-0.056
Mof_H 	H 	0.4781	0.2711	0.201	0.034
Mof_C 	C 	0.5566	0.4342	0.13232	0.115
Mof_C 	C 	0.5934	0.9544	0.08347	-0.055
Mof_H 	H 	0.5823	0.9734	0.0469	0.035
Mof_C 	C 	0.06449	0.7405	0.56635	-0.263
Mof_H 	H 	0.0669	0.7329	0.5288	0.091
Mof_H 	H 	0.0829	0.8103	0.5801	0.091
Mof_C 	C 	0.4961	0.432	0.1956	0.118
Mof_C 	C 	0.4536	0.8002	0.00766	-0.048
Mof_H 	H 	0.4684	0.8262	0.979	0.031
Mof_C 	C 	0.4156	0.7291	0.0894	0.007
Mof_H 	H 	0.4004	0.7034	0.1179	0.013
Mof_N 	N 	0.619	0.0306	0.1178	-0.152
Mof_C 	C 	0.3798	0.7639	0.0436	-0.008
Mof_H 	H 	0.3405	0.7628	0.0413	0.017
Mof_C 	C 	0.3024	0.0001	0.9932	0.012
Mof_H 	H 	0.3422	0.002	0.003	0.011
Mof_C 	C 	0.96115	0.7062	0.52761	-0.051
Mof_H 	H 	0.9711	0.6768	0.4969	0.03
Mof_C 	C 	0.0971	0.1712	0.60801	-0.051
Mof_H 	H 	0.0731	0.233	0.5991	0.028
Mof_C 	C 	0.9375	0.7864	0.61559	0.01
Mof_H 	H 	0.9276	0.8139	0.6467	0.016
Mof_C 	C 	0.1468	0.4771	0.65341	-0.002
Mof_H 	H 	0.165	0.4179	0.6744	0.016
Mof_C 	C 	0.10668	0.5513	0.5734	-0.055
Mof_H 	H 	0.0953	0.5463	0.5358	0.03
Mof_C 	C 	0.1619	0.9974	0.63659	0.007
Mof_H 	H 	0.1867	0.9371	0.647	0.015
Mof_C 	C 	0.994	0.1716	0.7108	-0.053
Mof_H 	H 	0.9877	0.2356	0.6892	0.036
Mof_C 	C 	0.996	0.085	0.78843	-0.013
Mof_H 	H 	0.9917	0.0849	0.8241	0.028
Mof_C 	C 	0.0107	0.9896	0.76705	0.018
Mof_H 	H 	0.0159	0.9252	0.7884	0.008
Mof_C 	C 	0.1821	0.0898	0.61523	-0.003
Mof_H 	H 	0.2196	0.0907	0.6109	0.008
Mof_C 	C 	0.64	0.5241	0.142	0.001
Mof_H 	H 	0.6618	0.5892	0.1493	0.018
Mof_C 	C 	0.135	0.5714	0.67867	0.005
Mof_H 	H 	0.1455	0.575	0.7164	0.021
Mof_C 	C 	0.5825	0.8492	0.09859	0.117
Mof_C 	C 	0.6654	0.4288	0.1299	0.003
Mof_H 	H 	0.7043	0.4292	0.1301	0.011
Mof_C 	C 	0.5037	0.426	0.3004	-0.007
Mof_H 	H 	0.5079	0.4266	0.3379	0.027
Mof_C 	C 	0.5125	0.521	0.2753	0.013
Mof_H 	H 	0.5219	0.5858	0.2958	0.01
Mof_C 	C 	0.6332	0.9992	0.1683	-0.002
Mof_H 	H 	0.6512	0.0503	0.1945	0.015
Mof_N 	N 	0.63616	0.3373	0.11817	-0.159
Mof_Ag	Ag	0.5408	0.6889	0.1819	0.264
_end
