# CIF file generated by openbabel 3.1.0, see https://openbabel.org
data_I
_chemical_name_common 'image0'
_cell_length_a 16.614
_cell_length_b 16.64
_cell_length_c 22.194
_cell_angle_alpha 90
_cell_angle_beta 90
_cell_angle_gamma 90
_space_group_name_H-M_alt 'P 1'
_space_group_name_Hall 'P 1'
loop_
    _symmetry_equiv_pos_as_xyz
    x,y,z
loop_
    _atom_site_label
    _atom_site_type_symbol
    _atom_site_fract_x
    _atom_site_fract_y
    _atom_site_fract_z
    _atom_site_occupancy
    O1       O        0.91790    0.41550    0.54740    1.000
    C1       C        0.79990    0.29900    0.55510    1.000
    H1       H        0.81760    0.32080    0.59240    1.000
    C2       C        0.74490    0.23760    0.55490    1.000
    H2       H        0.72910    0.21270    0.59160    1.000
    N1       N        0.93510    0.45040    0.92320    1.000
    C3       C        0.94340    0.53880    0.69110    1.000
    H3       H        0.90070    0.56400    0.66970    1.000
    C4       C        0.93700    0.54780    0.75290    1.000
    H4       H        0.89860    0.57930    0.77400    1.000
    C5       C        0.94430    0.44690    0.86780    1.000
    C6       C        0.88900    0.38580    0.84450    1.000
    H5       H        0.87500    0.37860    0.80340    1.000
    C7       C        0.86050    0.34040    0.89180    1.000
    H6       H        0.84160    0.28650    0.89080    1.000
    C8       C        0.86590    0.39370    0.94415    1.000
    O2       O        0.08210    0.58450    0.54740    1.000
    C9       C        0.20010    0.70100    0.55510    1.000
    H7       H        0.18240    0.67920    0.59240    1.000
    C10      C        0.25510    0.76240    0.55490    1.000
    H8       H        0.27090    0.78730    0.59160    1.000
    N2       N        0.06490    0.54960    0.92320    1.000
    C11      C        0.05660    0.46120    0.69110    1.000
    H9       H        0.09930    0.43600    0.66970    1.000
    C12      C        0.06300    0.45220    0.75290    1.000
    H10      H        0.10140    0.42070    0.77400    1.000
    C13      C        0.05570    0.55310    0.86780    1.000
    C14      C        0.11100    0.61420    0.84450    1.000
    H11      H        0.12500    0.62140    0.80340    1.000
    C15      C        0.13950    0.65960    0.89180    1.000
    H12      H        0.15840    0.71350    0.89080    1.000
    C16      C        0.13410    0.60630    0.94415    1.000
    O3       O        0.08210    0.41550    0.45260    1.000
    C17      C        0.20010    0.29900    0.44490    1.000
    H13      H        0.18240    0.32080    0.40760    1.000
    C18      C        0.25510    0.23760    0.44510    1.000
    H14      H        0.27090    0.21270    0.40840    1.000
    N3       N        0.06490    0.45040    0.07680    1.000
    C19      C        0.05660    0.53880    0.30890    1.000
    H15      H        0.09930    0.56400    0.33030    1.000
    C20      C        0.06300    0.54780    0.24710    1.000
    H16      H        0.10140    0.57930    0.22600    1.000
    C21      C        0.05570    0.44690    0.13220    1.000
    C22      C        0.11100    0.38580    0.15550    1.000
    H17      H        0.12500    0.37860    0.19660    1.000
    C23      C        0.13950    0.34040    0.10820    1.000
    H18      H        0.15840    0.28650    0.10920    1.000
    C24      C        0.13410    0.39370    0.05585    1.000
    O4       O        0.91790    0.58450    0.45260    1.000
    C25      C        0.79990    0.70100    0.44490    1.000
    H19      H        0.81760    0.67920    0.40760    1.000
    C26      C        0.74490    0.76240    0.44510    1.000
    H20      H        0.72910    0.78730    0.40840    1.000
    N4       N        0.93510    0.54960    0.07680    1.000
    C27      C        0.94340    0.46120    0.30890    1.000
    H21      H        0.90070    0.43600    0.33030    1.000
    C28      C        0.93700    0.45220    0.24710    1.000
    H22      H        0.89860    0.42070    0.22600    1.000
    C29      C        0.94430    0.55310    0.13220    1.000
    C30      C        0.88900    0.61420    0.15550    1.000
    H23      H        0.87500    0.62140    0.19660    1.000
    C31      C        0.86050    0.65960    0.10820    1.000
    H24      H        0.84160    0.71350    0.10920    1.000
    C32      C        0.86590    0.60630    0.05585    1.000
    O5       O        0.08210    0.58450    0.45260    1.000
    C33      C        0.20010    0.70100    0.44490    1.000
    H25      H        0.18240    0.67920    0.40760    1.000
    C34      C        0.25510    0.76240    0.44510    1.000
    H26      H        0.27090    0.78730    0.40840    1.000
    N5       N        0.06490    0.54960    0.07680    1.000
    C35      C        0.05660    0.46120    0.30890    1.000
    H27      H        0.09930    0.43600    0.33030    1.000
    C36      C        0.06300    0.45220    0.24710    1.000
    H28      H        0.10140    0.42070    0.22600    1.000
    C37      C        0.05570    0.55310    0.13220    1.000
    C38      C        0.11100    0.61420    0.15550    1.000
    H29      H        0.12500    0.62140    0.19660    1.000
    C39      C        0.13950    0.65960    0.10820    1.000
    H30      H        0.15840    0.71350    0.10920    1.000
    C40      C        0.13410    0.60630    0.05585    1.000
    O6       O        0.91790    0.41550    0.45260    1.000
    C41      C        0.79990    0.29900    0.44490    1.000
    H31      H        0.81760    0.32080    0.40760    1.000
    C42      C        0.74490    0.23760    0.44510    1.000
    H32      H        0.72910    0.21270    0.40840    1.000
    N6       N        0.93510    0.45040    0.07680    1.000
    C43      C        0.94340    0.53880    0.30890    1.000
    H33      H        0.90070    0.56400    0.33030    1.000
    C44      C        0.93700    0.54780    0.24710    1.000
    H34      H        0.89860    0.57930    0.22600    1.000
    C45      C        0.94430    0.44690    0.13220    1.000
    C46      C        0.88900    0.38580    0.15550    1.000
    H35      H        0.87500    0.37860    0.19660    1.000
    C47      C        0.86050    0.34040    0.10820    1.000
    H36      H        0.84160    0.28650    0.10920    1.000
    C48      C        0.86590    0.39370    0.05585    1.000
    O7       O        0.91790    0.58450    0.54740    1.000
    C49      C        0.79990    0.70100    0.55510    1.000
    H37      H        0.81760    0.67920    0.59240    1.000
    C50      C        0.74490    0.76240    0.55490    1.000
    H38      H        0.72910    0.78730    0.59160    1.000
    N7       N        0.93510    0.54960    0.92320    1.000
    C51      C        0.94340    0.46120    0.69110    1.000
    H39      H        0.90070    0.43600    0.66970    1.000
    C52      C        0.93700    0.45220    0.75290    1.000
    H40      H        0.89860    0.42070    0.77400    1.000
    C53      C        0.94430    0.55310    0.86780    1.000
    C54      C        0.88900    0.61420    0.84450    1.000
    H41      H        0.87500    0.62140    0.80340    1.000
    C55      C        0.86050    0.65960    0.89180    1.000
    H42      H        0.84160    0.71350    0.89080    1.000
    C56      C        0.86590    0.60630    0.94415    1.000
    O8       O        0.08210    0.41550    0.54740    1.000
    C57      C        0.20010    0.29900    0.55510    1.000
    H43      H        0.18240    0.32080    0.59240    1.000
    C58      C        0.25510    0.23760    0.55490    1.000
    H44      H        0.27090    0.21270    0.59160    1.000
    N8       N        0.06490    0.45040    0.92320    1.000
    C59      C        0.05660    0.53880    0.69110    1.000
    H45      H        0.09930    0.56400    0.66970    1.000
    C60      C        0.06300    0.54780    0.75290    1.000
    H46      H        0.10140    0.57930    0.77400    1.000
    C61      C        0.05570    0.44690    0.86780    1.000
    C62      C        0.11100    0.38580    0.84450    1.000
    H47      H        0.12500    0.37860    0.80340    1.000
    C63      C        0.13950    0.34040    0.89180    1.000
    H48      H        0.15840    0.28650    0.89080    1.000
    C64      C        0.13410    0.39370    0.94415    1.000
    Zn1      Zn       0.00000    0.50000    0.56464    1.000
    N9       N        0.00000    0.50000    0.65260    1.000
    C65      C        0.00000    0.50000    0.77870    1.000
    C66      C        0.00000    0.50000    0.84770    1.000
    Zn2      Zn       0.00000    0.50000    0.43536    1.000
    N10      N        0.00000    0.50000    0.34740    1.000
    C67      C        0.00000    0.50000    0.22130    1.000
    C68      C        0.00000    0.50000    0.15230    1.000
    Fe1      Fe       0.50000    0.00000    0.50000    1.000
    F1       F        0.70250    0.40580    0.00000    1.000
    F2       F        0.56690    0.28820    0.00000    1.000
    F3       F        0.75940    0.07230    0.00000    1.000
    F4       F        0.88920    0.18370    0.00000    1.000
    C69      C        0.85700    0.35300    0.00000    1.000
    C70      C        0.78500    0.29000    0.00000    1.000
    C71      C        0.70500    0.31470    0.00000    1.000
    C72      C        0.64400    0.25800    0.00000    1.000
    C73      C        0.66300    0.17600    0.00000    1.000
    C74      C        0.74300    0.15200    0.00000    1.000
    C75      C        0.80400    0.20900    0.00000    1.000
    F5       F        0.29750    0.59420    0.00000    1.000
    F6       F        0.43310    0.71180    0.00000    1.000
    F7       F        0.24060    0.92770    0.00000    1.000
    F8       F        0.11080    0.81630    0.00000    1.000
    C76      C        0.14300    0.64700    0.00000    1.000
    C77      C        0.21500    0.71000    0.00000    1.000
    C78      C        0.29500    0.68530    0.00000    1.000
    C79      C        0.35600    0.74200    0.00000    1.000
    C80      C        0.33700    0.82400    0.00000    1.000
    C81      C        0.25700    0.84800    0.00000    1.000
    C82      C        0.19600    0.79100    0.00000    1.000
    F9       F        0.29750    0.40580    0.00000    1.000
    F10      F        0.43310    0.28820    0.00000    1.000
    F11      F        0.24060    0.07230    0.00000    1.000
    F12      F        0.11080    0.18370    0.00000    1.000
    C83      C        0.14300    0.35300    0.00000    1.000
    C84      C        0.21500    0.29000    0.00000    1.000
    C85      C        0.29500    0.31470    0.00000    1.000
    C86      C        0.35600    0.25800    0.00000    1.000
    C87      C        0.33700    0.17600    0.00000    1.000
    C88      C        0.25700    0.15200    0.00000    1.000
    C89      C        0.19600    0.20900    0.00000    1.000
    F13      F        0.70250    0.59420    0.00000    1.000
    F14      F        0.56690    0.71180    0.00000    1.000
    F15      F        0.75940    0.92770    0.00000    1.000
    F16      F        0.88920    0.81630    0.00000    1.000
    C90      C        0.85700    0.64700    0.00000    1.000
    C91      C        0.78500    0.71000    0.00000    1.000
    C92      C        0.70500    0.68530    0.00000    1.000
    C93      C        0.64400    0.74200    0.00000    1.000
    C94      C        0.66300    0.82400    0.00000    1.000
    C95      C        0.74300    0.84800    0.00000    1.000
    C96      C        0.80400    0.79100    0.00000    1.000
    Cl1      Cl       0.50000    0.00000    0.38470    1.000
    Cl2      Cl       0.50000    0.00000    0.61530    1.000
    N11      N        0.50000    0.11980    0.50000    1.000
    N12      N        0.50000    0.88020    0.50000    1.000
    N13      N        0.62240    0.00000    0.50000    1.000
    N14      N        0.37760    0.00000    0.50000    1.000
    C97      C        0.88970    0.39070    0.50000    1.000
    C98      C        0.83090    0.33070    0.50000    1.000
    C99      C        0.71240    0.21220    0.50000    1.000
    C100     C        0.64260    0.14530    0.50000    1.000
    C101     C        0.67510    0.06270    0.50000    1.000
    C102     C        0.74900    0.03830    0.50000    1.000
    H49      H        0.79540    0.07180    0.50000    1.000
    C103     C        0.56590    0.16840    0.50000    1.000
    C104     C        0.54410    0.25540    0.50000    1.000
    H50      H        0.57930    0.30040    0.50000    1.000
    C105     C        0.11030    0.60930    0.50000    1.000
    C106     C        0.16910    0.66930    0.50000    1.000
    C107     C        0.28760    0.78780    0.50000    1.000
    C108     C        0.35740    0.85470    0.50000    1.000
    C109     C        0.32490    0.93730    0.50000    1.000
    C110     C        0.25100    0.96170    0.50000    1.000
    H51      H        0.20460    0.92820    0.50000    1.000
    C111     C        0.43410    0.83160    0.50000    1.000
    C112     C        0.45590    0.74460    0.50000    1.000
    H52      H        0.42070    0.69960    0.50000    1.000
    C113     C        0.11030    0.39070    0.50000    1.000
    C114     C        0.16910    0.33070    0.50000    1.000
    C115     C        0.28760    0.21220    0.50000    1.000
    C116     C        0.35740    0.14530    0.50000    1.000
    C117     C        0.32490    0.06270    0.50000    1.000
    C118     C        0.25100    0.03830    0.50000    1.000
    H53      H        0.20460    0.07180    0.50000    1.000
    C119     C        0.43410    0.16840    0.50000    1.000
    C120     C        0.45590    0.25540    0.50000    1.000
    H54      H        0.42070    0.30040    0.50000    1.000
    C121     C        0.88970    0.60930    0.50000    1.000
    C122     C        0.83090    0.66930    0.50000    1.000
    C123     C        0.71240    0.78780    0.50000    1.000
    C124     C        0.64260    0.85470    0.50000    1.000
    C125     C        0.67510    0.93730    0.50000    1.000
    C126     C        0.74900    0.96170    0.50000    1.000
    H55      H        0.79540    0.92820    0.50000    1.000
    C127     C        0.56590    0.83160    0.50000    1.000
    C128     C        0.54410    0.74460    0.50000    1.000
    H56      H        0.57930    0.69960    0.50000    1.000
    Zn3      Zn       0.00000    0.50000    0.00000    1.000
