data_functionalizedCrystal
_audit_creation_method	'EQeq! by Chris Wilmer'
_symmetry_space_group_name_H-M	'P1'
_symmetry_Int_Tables_number	1
_symmetry_cell_setting	triclinic
loop_
_symmetry_equiv_pos_as_xyz
  x,y,z
_cell_length_a	8.921
_cell_length_b	11.935
_cell_length_c	13.274
_cell_angle_alpha	90
_cell_angle_beta	90
_cell_angle_gamma	90
loop_
_atom_site_label
_atom_site_type_symbol
_atom_site_fract_x
_atom_site_fract_y
_atom_site_fract_z
_atom_site_charge
Mof_Ca	Ca	-4.74645e-33	0.76175	0.75	0.964
Mof_Ca	Ca	0.5	0.73825	0.25	1.304
Mof_Ca	Ca	1.39473e-33	0.23825	0.25	0.815
Mof_Ca	Ca	0.5	0.26175	0.75	1.302
Mof_Ni	Ni	0.5	0.5	-0	1.036
Mof_Ni	Ni	-6.14118e-33	0	0.5	0.93
Mof_Ni	Ni	0.5	0.5	0.5	1.081
Mof_Ni	Ni	-0	0	-0	0.884
Mof_H 	H 	0.751	0.782	0.938	0.369
Mof_H 	H 	0.601	0.741	0.895	0.247
Mof_H 	H 	0.749	0.718	0.438	0.326
Mof_H 	H 	0.899	0.759	0.395	0.303
Mof_H 	H 	0.249	0.782	0.562	0.33
Mof_H 	H 	0.399	0.741	0.605	0.278
Mof_H 	H 	0.251	0.718	0.062	0.338
Mof_H 	H 	0.101	0.759	0.105	0.221
Mof_H 	H 	0.249	0.218	0.062	0.317
Mof_H 	H 	0.399	0.259	0.105	0.267
Mof_H 	H 	0.251	0.282	0.562	0.313
Mof_H 	H 	0.101	0.241	0.605	0.192
Mof_H 	H 	0.751	0.218	0.438	0.362
Mof_H 	H 	0.601	0.259	0.395	0.238
Mof_H 	H 	0.749	0.282	0.938	0.295
Mof_H 	H 	0.899	0.241	0.895	0.272
Mof_C 	C 	0.7531	0.6179	0.9027	0.545
Mof_C 	C 	0.6841	0.7256	0.942	-0.72
Mof_C 	C 	0.6221	0.7224	0.0478	0.457
Mof_C 	C 	0.7469	0.8821	0.4027	0.572
Mof_C 	C 	0.8159	0.7744	0.442	-0.834
Mof_C 	C 	0.8779	0.7776	0.5478	0.551
Mof_C 	C 	0.2469	0.6179	0.5973	0.572
Mof_C 	C 	0.3159	0.7256	0.558	-0.899
Mof_C 	C 	0.3779	0.7224	0.4522	0.566
Mof_C 	C 	0.2531	0.8821	0.0973	0.591
Mof_C 	C 	0.1841	0.7744	0.058	-0.997
Mof_C 	C 	0.1221	0.7776	0.9522	0.666
Mof_C 	C 	0.2469	0.3821	0.0973	0.588
Mof_C 	C 	0.3159	0.2744	0.058	-1.037
Mof_C 	C 	0.3779	0.2776	0.9522	0.683
Mof_C 	C 	0.2531	0.1179	0.5973	0.573
Mof_C 	C 	0.1841	0.2256	0.558	-0.868
Mof_C 	C 	0.1221	0.2224	0.4522	0.55
Mof_C 	C 	0.7531	0.3821	0.4027	0.565
Mof_C 	C 	0.6841	0.2744	0.442	-0.862
Mof_C 	C 	0.6221	0.2776	0.5478	0.572
Mof_C 	C 	0.7469	0.1179	0.9027	0.547
Mof_C 	C 	0.8159	0.2256	0.942	-0.682
Mof_C 	C 	0.8779	0.2224	0.0478	0.422
Mof_O 	O 	0.8545	0.6262	0.8386	-0.308
Mof_O 	O 	0.7073	0.5242	0.9348	-0.41
Mof_O 	O 	0.523	0.6498	0.0722	-0.588
Mof_O 	O 	0.8362	0.7058	0.6102	-0.348
Mof_O 	O 	0.6455	0.8738	0.3386	-0.42
Mof_O 	O 	0.7927	0.9758	0.4348	-0.335
Mof_O 	O 	0.977	0.8502	0.5722	-0.362
Mof_O 	O 	0.6638	0.7942	0.1102	-0.397
Mof_O 	O 	0.1455	0.6262	0.6614	-0.5
Mof_O 	O 	0.2927	0.5242	0.5652	-0.523
Mof_O 	O 	0.477	0.6498	0.4278	-0.594
Mof_O 	O 	0.1638	0.7058	0.8898	-0.463
Mof_O 	O 	0.3545	0.8738	0.1614	-0.458
Mof_O 	O 	0.2073	0.9758	0.0652	-0.482
Mof_O 	O 	0.023	0.8502	0.9278	-0.59
Mof_O 	O 	0.3362	0.7942	0.3898	-0.465
Mof_O 	O 	0.1455	0.3738	0.1614	-0.512
Mof_O 	O 	0.2927	0.4758	0.0652	-0.564
Mof_O 	O 	0.477	0.3502	0.9278	-0.581
Mof_O 	O 	0.1638	0.2942	0.3898	-0.468
Mof_O 	O 	0.3545	0.1262	0.6614	-0.498
Mof_O 	O 	0.2073	0.0242	0.5652	-0.59
Mof_O 	O 	0.023	0.1498	0.4278	-0.677
Mof_O 	O 	0.3362	0.2058	0.8898	-0.511
Mof_O 	O 	0.8545	0.3738	0.3386	-0.318
Mof_O 	O 	0.7073	0.4758	0.4348	-0.467
Mof_O 	O 	0.523	0.3502	0.5722	-0.591
Mof_O 	O 	0.8362	0.2942	0.1102	-0.346
Mof_O 	O 	0.6455	0.1262	0.8386	-0.456
Mof_O 	O 	0.7927	0.0242	0.9348	-0.416
Mof_O 	O 	0.977	0.1498	0.0722	-0.424
Mof_O 	O 	0.6638	0.2058	0.6102	-0.443
_end
