data_functionalizedCrystal
_audit_creation_method	'EQeq! by Chris Wilmer'
_symmetry_space_group_name_H-M	'P1'
_symmetry_Int_Tables_number	1
_symmetry_cell_setting	triclinic
loop_
_symmetry_equiv_pos_as_xyz
  x,y,z
_cell_length_a	12.8585
_cell_length_b	11.9873
_cell_length_c	7.6685
_cell_angle_alpha	90
_cell_angle_beta	98.896
_cell_angle_gamma	90
loop_
_atom_site_label
_atom_site_type_symbol
_atom_site_fract_x
_atom_site_fract_y
_atom_site_fract_z
_atom_site_charge
Mof_Co	Co	0.2657	0.4885	0.59428	1.121
Mof_O 	O 	0.1375	0.5855	0.4772	-0.466
Mof_O 	O 	0.1062	0.7475	0.3311	-0.332
Mof_O 	O 	0.2202	0.9881	0.3364	-0.457
Mof_O 	O 	0.1507	0.94	0.5711	-0.461
Mof_O 	O 	0.5968	0.9144	0.7875	-0.39
Mof_O 	O 	0.6434	0.7348	0.79	-0.286
Mof_N 	N 	0.3365	0.6464	0.5859	-0.223
Mof_C 	C 	0.1607	0.6844	0.4356	0.304
Mof_C 	C 	0.2689	0.7263	0.5179	0.009
Mof_C 	C 	0.2974	0.8377	0.5197	-0.109
Mof_C 	C 	0.3988	0.867	0.5934	0.054
Mof_H 	H 	0.4199	0.9412	0.5959	0.05
Mof_C 	C 	0.4688	0.7844	0.6636	-0.112
Mof_C 	C 	0.4346	0.6746	0.6549	0.086
Mof_H 	H 	0.4816	0.6187	0.6986	0.011
Mof_C 	C 	0.216	0.9285	0.4663	0.409
Mof_C 	C 	0.5787	0.813	0.7526	0.35
Mof_Co	Co	0.7343	0.9885	0.90572	1.187
Mof_O 	O 	0.8625	0.0855	0.0228	-0.417
Mof_O 	O 	0.8938	0.2475	0.1689	-0.245
Mof_O 	O 	0.7798	0.4881	0.1636	-0.44
Mof_O 	O 	0.8493	0.44	0.9289	-0.37
Mof_O 	O 	0.4032	0.4144	0.7125	-0.436
Mof_O 	O 	0.3566	0.2348	0.71	-0.347
Mof_N 	N 	0.6635	0.1464	0.9141	-0.239
Mof_C 	C 	0.8393	0.1844	0.0644	0.256
Mof_C 	C 	0.7311	0.2263	0.9821	0.038
Mof_C 	C 	0.7026	0.3377	0.9803	-0.082
Mof_C 	C 	0.6012	0.367	0.9066	0.048
Mof_H 	H 	0.5801	0.4412	0.9041	0.038
Mof_C 	C 	0.5312	0.2844	0.8364	-0.127
Mof_C 	C 	0.5654	0.1746	0.8451	0.094
Mof_H 	H 	0.5184	0.1187	0.8014	-0.014
Mof_C 	C 	0.784	0.4285	0.0337	0.334
Mof_C 	C 	0.4213	0.313	0.7474	0.361
Mof_Co	Co	0.7343	0.5115	0.40572	1.138
Mof_O 	O 	0.8625	0.4145	0.5228	-0.372
Mof_O 	O 	0.8938	0.2525	0.6689	-0.237
Mof_O 	O 	0.7798	0.0119	0.6636	-0.489
Mof_O 	O 	0.8493	0.06	0.4289	-0.435
Mof_O 	O 	0.4032	0.0856	0.2125	-0.482
Mof_O 	O 	0.3566	0.2652	0.21	-0.356
Mof_N 	N 	0.6635	0.3536	0.4141	-0.232
Mof_C 	C 	0.8393	0.3156	0.5644	0.277
Mof_C 	C 	0.7311	0.2737	0.4821	0.028
Mof_C 	C 	0.7026	0.1623	0.4803	-0.144
Mof_C 	C 	0.6012	0.133	0.4066	0.075
Mof_H 	H 	0.5801	0.0588	0.4041	-0.006
Mof_C 	C 	0.5312	0.2156	0.3364	-0.155
Mof_C 	C 	0.5654	0.3254	0.3451	0.095
Mof_H 	H 	0.5184	0.3813	0.3014	-0.002
Mof_C 	C 	0.784	0.0715	0.5337	0.415
Mof_C 	C 	0.4213	0.187	0.2474	0.363
Mof_Co	Co	0.2657	0.0115	0.09428	1.061
Mof_O 	O 	0.1375	0.9145	0.9772	-0.414
Mof_O 	O 	0.1062	0.7525	0.8311	-0.323
Mof_O 	O 	0.2202	0.5119	0.8364	-0.52
Mof_O 	O 	0.1507	0.56	0.0711	-0.549
Mof_O 	O 	0.5968	0.5856	0.2875	-0.432
Mof_O 	O 	0.6434	0.7652	0.29	-0.292
Mof_N 	N 	0.3365	0.8536	0.0859	-0.214
Mof_C 	C 	0.1607	0.8156	0.9356	0.322
Mof_C 	C 	0.2689	0.7737	0.0179	0.003
Mof_C 	C 	0.2974	0.6623	0.0197	-0.179
Mof_C 	C 	0.3988	0.633	0.0934	0.085
Mof_H 	H 	0.4199	0.5588	0.0959	0.003
Mof_C 	C 	0.4688	0.7156	0.1636	-0.14
Mof_C 	C 	0.4346	0.8254	0.1549	0.089
Mof_H 	H 	0.4816	0.8813	0.1986	0.024
Mof_C 	C 	0.216	0.5715	0.9663	0.5
Mof_C 	C 	0.5787	0.687	0.2526	0.352
Mof_Co	Co	1.29092e-33	0	0.5	0.96
Mof_Co	Co	5.40411e-33	0.5	-0	0.986
_end
