# CIF file generated by openbabel 3.1.0, see https://openbabel.org
data_I
_chemical_name_common 'image0'
_cell_length_a 9.6827
_cell_length_b 27.686
_cell_length_c 9.105
_cell_angle_alpha 90
_cell_angle_beta 121.794
_cell_angle_gamma 90
_space_group_name_H-M_alt 'P 1'
_space_group_name_Hall 'P 1'
loop_
    _symmetry_equiv_pos_as_xyz
    x,y,z
loop_
    _atom_site_label
    _atom_site_type_symbol
    _atom_site_fract_x
    _atom_site_fract_y
    _atom_site_fract_z
    _atom_site_occupancy
    Nd1      Nd       0.97432    0.50916    0.99873    1.000
    O1       O        0.12400    0.48330    0.29900    1.000
    O2       O        0.26100    0.46150    0.57000    1.000
    O3       O        0.82500    0.48390    0.69700    1.000
    O4       O        0.70000    0.46010    0.42900    1.000
    C1       C        0.25200    0.46740    0.43300    1.000
    C2       C        0.38800    0.45720    0.42100    1.000
    H1       H        0.38550    0.47850    0.33300    1.000
    H2       H        0.37950    0.42340    0.38160    1.000
    C3       C        0.54900    0.46360    0.59000    1.000
    H3       H        0.56780    0.43510    0.66390    1.000
    H4       H        0.54160    0.49230    0.64990    1.000
    C4       C        0.70100    0.46990    0.56700    1.000
    O5       O        0.90600    0.58370    0.82600    1.000
    O6       O        0.05900    0.58610    0.17200    1.000
    C5       C        0.93400    0.62540    0.90400    1.000
    C6       C        0.03500    0.62490    0.10600    1.000
    Nd2      Nd       0.99200    0.74104    0.99735    1.000
    O7       O        0.89400    0.66620    0.82600    1.000
    O8       O        0.08600    0.66460    0.17300    1.000
    O9       O        0.14600    0.76660    0.29900    1.000
    O10      O        0.28700    0.79140    0.56900    1.000
    O11      O        0.70600    0.79020    0.42900    1.000
    O12      O        0.84400    0.76530    0.69700    1.000
    C7       C        0.14700    0.78040    0.43200    1.000
    C8       C        0.98800    0.78600    0.42200    1.000
    H5       H        0.92770    0.81270    0.34080    1.000
    H6       H        0.92420    0.75610    0.36930    1.000
    C9       C        0.98500    0.79530    0.58000    1.000
    H7       H        0.07340    0.77650    0.67650    1.000
    H8       H        0.00800    0.82990    0.61010    1.000
    C10      C        0.83600    0.78340    0.56600    1.000
    Nd3      Nd       0.47432    0.00916    0.99873    1.000
    O13      O        0.62400    0.98330    0.29900    1.000
    O14      O        0.76100    0.96150    0.57000    1.000
    O15      O        0.32500    0.98390    0.69700    1.000
    O16      O        0.20000    0.96010    0.42900    1.000
    C11      C        0.75200    0.96740    0.43300    1.000
    C12      C        0.88800    0.95720    0.42100    1.000
    H9       H        0.88550    0.97850    0.33300    1.000
    H10      H        0.87950    0.92340    0.38160    1.000
    C13      C        0.04900    0.96360    0.59000    1.000
    H11      H        0.06780    0.93510    0.66390    1.000
    H12      H        0.04160    0.99230    0.64990    1.000
    C14      C        0.20100    0.96990    0.56700    1.000
    O17      O        0.40600    0.08370    0.82600    1.000
    O18      O        0.55900    0.08610    0.17200    1.000
    C15      C        0.43400    0.12540    0.90400    1.000
    C16      C        0.53500    0.12490    0.10600    1.000
    Nd4      Nd       0.49200    0.24104    0.99735    1.000
    O19      O        0.39400    0.16620    0.82600    1.000
    O20      O        0.58600    0.16460    0.17300    1.000
    O21      O        0.64600    0.26660    0.29900    1.000
    O22      O        0.78700    0.29140    0.56900    1.000
    O23      O        0.20600    0.29020    0.42900    1.000
    O24      O        0.34400    0.26530    0.69700    1.000
    C17      C        0.64700    0.28040    0.43200    1.000
    C18      C        0.48800    0.28600    0.42200    1.000
    H13      H        0.42770    0.31270    0.34080    1.000
    H14      H        0.42420    0.25610    0.36930    1.000
    C19      C        0.48500    0.29530    0.58000    1.000
    H15      H        0.57340    0.27650    0.67650    1.000
    H16      H        0.50800    0.32990    0.61010    1.000
    C20      C        0.33600    0.28340    0.56600    1.000
    Nd5      Nd       0.97432    0.49084    0.49873    1.000
    O25      O        0.12400    0.51670    0.79900    1.000
    O26      O        0.26100    0.53850    0.07000    1.000
    O27      O        0.82500    0.51610    0.19700    1.000
    O28      O        0.70000    0.53990    0.92900    1.000
    C21      C        0.25200    0.53260    0.93300    1.000
    C22      C        0.38800    0.54280    0.92100    1.000
    H17      H        0.38550    0.52150    0.83300    1.000
    H18      H        0.37950    0.57660    0.88160    1.000
    C23      C        0.54900    0.53640    0.09000    1.000
    H19      H        0.56780    0.56490    0.16390    1.000
    H20      H        0.54160    0.50770    0.14990    1.000
    C24      C        0.70100    0.53010    0.06700    1.000
    O29      O        0.90600    0.41630    0.32600    1.000
    O30      O        0.05900    0.41390    0.67200    1.000
    C25      C        0.93400    0.37460    0.40400    1.000
    C26      C        0.03500    0.37510    0.60600    1.000
    Nd6      Nd       0.99200    0.25896    0.49735    1.000
    O31      O        0.89400    0.33380    0.32600    1.000
    O32      O        0.08600    0.33540    0.67300    1.000
    O33      O        0.14600    0.23340    0.79900    1.000
    O34      O        0.28700    0.20860    0.06900    1.000
    O35      O        0.70600    0.20980    0.92900    1.000
    O36      O        0.84400    0.23470    0.19700    1.000
    C27      C        0.14700    0.21960    0.93200    1.000
    C28      C        0.98800    0.21400    0.92200    1.000
    H21      H        0.92770    0.18730    0.84080    1.000
    H22      H        0.92420    0.24390    0.86930    1.000
    C29      C        0.98500    0.20470    0.08000    1.000
    H23      H        0.07340    0.22350    0.17650    1.000
    H24      H        0.00800    0.17010    0.11010    1.000
    C30      C        0.83600    0.21660    0.06600    1.000
    Nd7      Nd       0.47432    0.99084    0.49873    1.000
    O37      O        0.62400    0.01670    0.79900    1.000
    O38      O        0.76100    0.03850    0.07000    1.000
    O39      O        0.32500    0.01610    0.19700    1.000
    O40      O        0.20000    0.03990    0.92900    1.000
    C31      C        0.75200    0.03260    0.93300    1.000
    C32      C        0.88800    0.04280    0.92100    1.000
    H25      H        0.88550    0.02150    0.83300    1.000
    H26      H        0.87950    0.07660    0.88160    1.000
    C33      C        0.04900    0.03640    0.09000    1.000
    H27      H        0.06780    0.06490    0.16390    1.000
    H28      H        0.04160    0.00770    0.14990    1.000
    C34      C        0.20100    0.03010    0.06700    1.000
    O41      O        0.40600    0.91630    0.32600    1.000
    O42      O        0.55900    0.91390    0.67200    1.000
    C35      C        0.43400    0.87460    0.40400    1.000
    C36      C        0.53500    0.87510    0.60600    1.000
    Nd8      Nd       0.49200    0.75896    0.49735    1.000
    O43      O        0.39400    0.83380    0.32600    1.000
    O44      O        0.58600    0.83540    0.67300    1.000
    O45      O        0.64600    0.73340    0.79900    1.000
    O46      O        0.78700    0.70860    0.06900    1.000
    O47      O        0.20600    0.70980    0.92900    1.000
    O48      O        0.34400    0.73470    0.19700    1.000
    C37      C        0.64700    0.71960    0.93200    1.000
    C38      C        0.48800    0.71400    0.92200    1.000
    H29      H        0.42770    0.68730    0.84080    1.000
    H30      H        0.42420    0.74390    0.86930    1.000
    C39      C        0.48500    0.70470    0.08000    1.000
    H31      H        0.57340    0.72350    0.17650    1.000
    H32      H        0.50800    0.67010    0.11010    1.000
    C40      C        0.33600    0.71660    0.06600    1.000
