data_functionalizedCrystal
_audit_creation_method	'EQeq! by Chris Wilmer'
_symmetry_space_group_name_H-M	'P1'
_symmetry_Int_Tables_number	1
_symmetry_cell_setting	triclinic
loop_
_symmetry_equiv_pos_as_xyz
  x,y,z
_cell_length_a	24.1412
_cell_length_b	24.3031
_cell_length_c	24.4706
_cell_angle_alpha	84.434
_cell_angle_beta	61.742
_cell_angle_gamma	61.494
loop_
_atom_site_label
_atom_site_type_symbol
_atom_site_fract_x
_atom_site_fract_y
_atom_site_fract_z
_atom_site_charge
Mof_Eu	Eu	0.85688	0.84933	0.70415	2.382
Mof_Eu	Eu	0.75273	0.71832	0.26645	2.389
Mof_Eu	Eu	0.34114	0.72143	0.86352	2.385
Mof_Eu	Eu	0.14312	0.15067	0.29585	2.382
Mof_Eu	Eu	0.24727	0.28168	0.73355	2.389
Mof_Eu	Eu	0.65886	0.27857	0.13648	2.385
Mof_H 	H 	0.7696	0.0055	0.6347	0.036
Mof_H 	H 	0.4393	0.1003	0.6633	0.065
Mof_H 	H 	0.5594	0.8275	0.4226	0.057
Mof_H 	H 	0.244	0.4025	0.6076	0.04
Mof_H 	H 	0.5552	0.0537	0.6507	0.128
Mof_H 	H 	0.8603	0.66	0.3638	0.058
Mof_H 	H 	0.1093	0.4686	0.7902	0.06
Mof_H 	H 	0.4718	0.1679	0.8102	0.118
Mof_H 	H 	0.6324	0.6442	0.3812	0.053
Mof_H 	H 	0.3587	0.2125	0.8193	0.043
Mof_H 	H 	0.7512	0.8272	0.1395	0.075
Mof_H 	H 	0.8598	0.8082	0.1787	0.035
Mof_H 	H 	0.7559	0.9153	0.6104	0.046
Mof_H 	H 	0.9383	0.795	0.8169	0.065
Mof_H 	H 	0.6354	0.9135	0.8093	0.06
Mof_H 	H 	0.6605	0.0619	0.6345	0.143
Mof_H 	H 	0.8995	0.7044	0.7955	0.029
Mof_H 	H 	0.0297	0.6951	0.573	0.053
Mof_H 	H 	0.1102	0.5983	0.5833	0.119
Mof_H 	H 	0.0411	0.837	0.5543	0.06
Mof_H 	H 	0.6681	0.0096	0.8187	0.047
Mof_H 	H 	0.7061	0.8395	0.9809	0.157
Mof_H 	H 	0.7059	0.8561	0.8866	0.069
Mof_H 	H 	0.5568	0.0672	0.8231	0.157
Mof_H 	H 	0.6475	0.2546	0.9856	0.038
Mof_H 	H 	0.5362	0.6376	0.6918	0.05
Mof_H 	H 	0.0134	0.7382	0.1681	0.091
Mof_H 	H 	0.6387	0.6797	0.7536	0.11
Mof_H 	H 	0.9192	0.7258	0.2506	0.041
Mof_H 	H 	0.1176	0.7955	0.9777	0.028
Mof_H 	H 	0.7377	0.338	0.2086	0.039
Mof_H 	H 	0.5845	0.636	0.4861	0.15
Mof_H 	H 	0.8075	0.5751	0.143	0.06
Mof_H 	H 	0.6991	0.7269	0.7054	0.101
Mof_H 	H 	0.7585	0.4241	0.2033	0.114
Mof_H 	H 	0.5819	0.6353	0.5837	0.121
Mof_H 	H 	0.0152	0.8078	0.839	0.12
Mof_H 	H 	0.5332	0.4568	0.2505	0.053
Mof_H 	H 	0.1587	0.7624	0.6536	0.111
Mof_H 	H 	0.8311	0.9921	0.1142	0.105
Mof_H 	H 	0.6041	0.6954	0.266	0.043
Mof_H 	H 	0.3153	0.7464	0.7122	0.059
Mof_H 	H 	0.1638	0.4853	0.5831	0.105
Mof_H 	H 	0.1473	0.8551	0.8748	0.023
Mof_H 	H 	0.4953	0.8331	0.8889	0.122
Mof_H 	H 	0.0678	0.8501	0.8485	0.111
Mof_H 	H 	0.6912	0.0564	0.94	0.11
Mof_H 	H 	0.804	0.0837	0.0717	0.027
Mof_H 	H 	0.7264	0.8808	0.549	0.147
Mof_H 	H 	0.6753	0.1673	0.9245	0.102
Mof_H 	H 	0.0566	0.5946	0.0576	0.095
Mof_H 	H 	0.887	0.9981	0.6761	0.036
Mof_H 	H 	0.2382	0.741	0.6828	0.119
Mof_H 	H 	0.5589	0.641	0.7955	0.056
Mof_H 	H 	0.0238	0.5506	0.7675	0.098
Mof_H 	H 	0.8929	0.0245	0.8159	0.084
Mof_H 	H 	0.9352	0.7471	0.4477	0.11
Mof_H 	H 	0.562	0.8684	0.8566	0.144
Mof_H 	H 	0.841	0.8994	0.135	0.108
Mof_H 	H 	0.6524	0.9971	0.2969	0.111
Mof_H 	H 	0.8419	0.159	0.9731	0.019
Mof_H 	H 	0.708	0.8624	0.4818	0.115
Mof_H 	H 	0.6732	0.8201	0.4312	0.057
Mof_H 	H 	0.5942	0.1523	0.1886	0.051
Mof_H 	H 	0.8986	0.698	0.414	0.106
Mof_H 	H 	0.4156	0.7941	0.9301	0.039
Mof_H 	H 	0.9122	0.0556	0.5948	0.085
Mof_H 	H 	0.6763	0.903	0.3383	0.067
Mof_H 	H 	0.9411	0.5859	0.7246	0.105
Mof_H 	H 	0.7408	0.8417	0.0489	0.149
Mof_H 	H 	0.8627	0.6812	0.7107	0.037
Mof_H 	H 	0.7205	0.9609	0.8944	0.067
Mof_H 	H 	0.9017	0.6841	0.8898	0.109
Mof_H 	H 	0.9624	0.7851	0.5079	0.038
Mof_H 	H 	0.9181	0.9316	0.7686	0.033
Mof_H 	H 	0.0776	0.753	0.6339	0.063
Mof_H 	H 	0.7696	0.7755	0.6622	0.037
Mof_H 	H 	0.8699	0.0721	0.913	0.106
Mof_H 	H 	0.5075	0.8233	0.5286	0.125
Mof_H 	H 	0.6178	0.0635	0.237	0.14
Mof_H 	H 	0.3793	0.8153	0.7235	0.035
Mof_H 	H 	0.4217	0.8147	0.6167	0.133
Mof_H 	H 	0.3228	0.6261	0.0031	0.036
Mof_H 	H 	0.5655	0.4837	0.8942	0.134
Mof_H 	H 	0.7809	0.4945	0.149	0.095
Mof_H 	H 	0.8866	0.6433	0.0733	0.051
Mof_H 	H 	0.5525	0.5431	0.2437	0.102
Mof_H 	H 	0.5737	0.6142	0.2771	0.103
Mof_H 	H 	0.9631	0.5852	0.1421	0.054
Mof_H 	H 	0.2547	0.609	0.9235	0.033
Mof_H 	H 	0.1756	0.5891	0.0113	0.089
Mof_H 	H 	0.5035	0.5383	0.8418	0.049
Mof_H 	H 	0.3834	0.5711	0.058	0.109
Mof_H 	H 	0.8717	0.6536	0.9839	0.096
Mof_H 	H 	0.0663	0.8948	0.4734	0.091
Mof_H 	H 	0.039	0.7776	0.0688	0.088
Mof_H 	H 	0.2304	0.9945	0.3653	0.036
Mof_H 	H 	0.5607	0.8997	0.3367	0.065
Mof_H 	H 	0.4406	0.1725	0.5774	0.057
Mof_H 	H 	0.756	0.5975	0.3924	0.04
Mof_H 	H 	0.4448	0.9463	0.3493	0.128
Mof_H 	H 	0.1397	0.34	0.6362	0.058
Mof_H 	H 	0.8907	0.5314	0.2098	0.06
Mof_H 	H 	0.5282	0.8321	0.1898	0.118
Mof_H 	H 	0.3676	0.3558	0.6188	0.053
Mof_H 	H 	0.6413	0.7875	0.1807	0.043
Mof_H 	H 	0.2488	0.1728	0.8605	0.075
Mof_H 	H 	0.1402	0.1918	0.8213	0.035
Mof_H 	H 	0.2441	0.0847	0.3896	0.046
Mof_H 	H 	0.0617	0.205	0.1831	0.065
Mof_H 	H 	0.3646	0.0865	0.1907	0.06
Mof_H 	H 	0.3395	0.9381	0.3655	0.143
Mof_H 	H 	0.1005	0.2956	0.2045	0.029
Mof_H 	H 	0.9703	0.3049	0.427	0.053
Mof_H 	H 	0.8898	0.4017	0.4167	0.119
Mof_H 	H 	0.9589	0.163	0.4457	0.06
Mof_H 	H 	0.3319	0.9904	0.1813	0.047
Mof_H 	H 	0.2939	0.1605	0.0191	0.157
Mof_H 	H 	0.2941	0.1439	0.1134	0.069
Mof_H 	H 	0.4432	0.9328	0.1769	0.157
Mof_H 	H 	0.3525	0.7454	0.0144	0.038
Mof_H 	H 	0.4638	0.3624	0.3082	0.05
Mof_H 	H 	0.9866	0.2618	0.8319	0.091
Mof_H 	H 	0.3613	0.3203	0.2464	0.11
Mof_H 	H 	0.0808	0.2742	0.7494	0.041
Mof_H 	H 	0.8824	0.2045	0.0223	0.028
Mof_H 	H 	0.2623	0.662	0.7914	0.039
Mof_H 	H 	0.4155	0.364	0.5139	0.15
Mof_H 	H 	0.1925	0.4249	0.857	0.06
Mof_H 	H 	0.3009	0.2731	0.2946	0.101
Mof_H 	H 	0.2415	0.5759	0.7967	0.114
Mof_H 	H 	0.4181	0.3647	0.4163	0.121
Mof_H 	H 	0.9848	0.1922	0.161	0.12
Mof_H 	H 	0.4668	0.5432	0.7495	0.053
Mof_H 	H 	0.8413	0.2376	0.3464	0.111
Mof_H 	H 	0.1689	0.0079	0.8858	0.105
Mof_H 	H 	0.3959	0.3046	0.734	0.043
Mof_H 	H 	0.6847	0.2536	0.2878	0.059
Mof_H 	H 	0.8362	0.5147	0.4169	0.105
Mof_H 	H 	0.8527	0.1449	0.1252	0.023
Mof_H 	H 	0.5047	0.1669	0.1111	0.122
Mof_H 	H 	0.9322	0.1499	0.1515	0.111
Mof_H 	H 	0.3088	0.9436	0.06	0.11
Mof_H 	H 	0.196	0.9163	0.9283	0.027
Mof_H 	H 	0.2736	0.1192	0.451	0.147
Mof_H 	H 	0.3247	0.8327	0.0755	0.102
Mof_H 	H 	0.9434	0.4054	0.9424	0.095
Mof_H 	H 	0.113	0.0019	0.3239	0.036
Mof_H 	H 	0.7618	0.259	0.3172	0.119
Mof_H 	H 	0.4411	0.359	0.2045	0.056
Mof_H 	H 	0.9762	0.4494	0.2325	0.098
Mof_H 	H 	0.1071	0.9755	0.1841	0.084
Mof_H 	H 	0.0648	0.2529	0.5523	0.11
Mof_H 	H 	0.438	0.1316	0.1434	0.144
Mof_H 	H 	0.159	0.1006	0.865	0.108
Mof_H 	H 	0.3476	0.0029	0.7031	0.111
Mof_H 	H 	0.1581	0.841	0.0269	0.019
Mof_H 	H 	0.292	0.1376	0.5182	0.115
Mof_H 	H 	0.3268	0.1799	0.5688	0.057
Mof_H 	H 	0.4058	0.8477	0.8114	0.051
Mof_H 	H 	0.1014	0.302	0.586	0.106
Mof_H 	H 	0.5844	0.2059	0.0699	0.039
Mof_H 	H 	0.0878	0.9444	0.4052	0.085
Mof_H 	H 	0.3237	0.097	0.6617	0.067
Mof_H 	H 	0.0589	0.4141	0.2754	0.105
Mof_H 	H 	0.2592	0.1583	0.9511	0.149
Mof_H 	H 	0.1373	0.3188	0.2893	0.037
Mof_H 	H 	0.2795	0.0391	0.1056	0.067
Mof_H 	H 	0.0983	0.3159	0.1102	0.109
Mof_H 	H 	0.0376	0.2149	0.4921	0.038
Mof_H 	H 	0.0819	0.0684	0.2314	0.033
Mof_H 	H 	0.9224	0.247	0.3661	0.063
Mof_H 	H 	0.2304	0.2245	0.3378	0.037
Mof_H 	H 	0.1301	0.9279	0.087	0.106
Mof_H 	H 	0.4925	0.1767	0.4714	0.125
Mof_H 	H 	0.3822	0.9365	0.763	0.14
Mof_H 	H 	0.6207	0.1847	0.2765	0.035
Mof_H 	H 	0.5783	0.1853	0.3833	0.133
Mof_H 	H 	0.6772	0.3739	0.9969	0.036
Mof_H 	H 	0.4345	0.5163	0.1058	0.134
Mof_H 	H 	0.2191	0.5055	0.851	0.095
Mof_H 	H 	0.1134	0.3567	0.9267	0.051
Mof_H 	H 	0.4475	0.4569	0.7563	0.102
Mof_H 	H 	0.4263	0.3858	0.7229	0.103
Mof_H 	H 	0.0369	0.4148	0.8579	0.054
Mof_H 	H 	0.7453	0.391	0.0765	0.033
Mof_H 	H 	0.8244	0.4109	0.9887	0.089
Mof_H 	H 	0.4965	0.4617	0.1582	0.049
Mof_H 	H 	0.6166	0.4289	0.942	0.109
Mof_H 	H 	0.1283	0.3464	0.0161	0.096
Mof_H 	H 	0.9337	0.1052	0.5266	0.091
Mof_H 	H 	0.961	0.2224	0.9312	0.088
Mof_C 	C 	0.7258	0.0174	0.6729	0.094
Mof_C 	C 	0.4465	0.1134	0.6937	0.099
Mof_C 	C 	0.5641	0.7883	0.4361	0.091
Mof_C 	C 	0.1993	0.4339	0.6403	0.096
Mof_C 	C 	0.5257	0.103	0.7311	0.085
Mof_C 	C 	0.5153	0.0851	0.6863	-0.081
Mof_C 	C 	0.8289	0.701	0.389	0.065
Mof_C 	C 	0.1201	0.4721	0.7477	0.084
Mof_C 	C 	0.4658	0.1526	0.7802	-0.085
Mof_C 	C 	0.6072	0.6807	0.4119	0.094
Mof_C 	C 	0.399	0.1793	0.7854	0.105
Mof_C 	C 	0.7771	0.7923	0.1068	0.079
Mof_C 	C 	0.8173	0.8472	0.2023	0.073
Mof_C 	C 	0.7925	0.8808	0.5766	0.1
Mof_C 	C 	0.8038	0.761	0.9456	0.105
Mof_C 	C 	0.9836	0.7887	0.7836	0.077
Mof_C 	C 	0.648	0.8751	0.7885	0.112
Mof_C 	C 	0.6612	0.0512	0.6727	-0.131
Mof_C 	C 	0.8601	0.7321	0.8338	0.091
Mof_C 	C 	0.0121	0.6727	0.6047	0.08
Mof_C 	C 	0.0598	0.6159	0.6112	-0.102
Mof_C 	C 	0.0144	0.8821	0.5628	0.065
Mof_C 	C 	0.6659	0.0201	0.7811	0.093
Mof_C 	C 	0.7465	0.8113	0.9433	-0.102
Mof_C 	C 	0.0342	0.5833	0.6592	0.074
Mof_C 	C 	0.7466	0.8213	0.8874	0.111
Mof_C 	C 	0.5998	0.0542	0.7839	-0.124
Mof_C 	C 	0.693	0.217	0.9711	0.073
Mof_C 	C 	0.5143	0.6743	0.676	0.097
Mof_C 	C 	0.003	0.7072	0.1611	-0.104
Mof_C 	C 	0.5926	0.7041	0.7892	-0.097
Mof_C 	C 	0.0421	0.6712	0.1043	0.068
Mof_C 	C 	0.9468	0.6998	0.2106	0.086
Mof_C 	C 	0.1296	0.7532	0.9852	0.079
Mof_C 	C 	0.7003	0.3801	0.2148	0.104
Mof_C 	C 	0.6583	0.4924	0.2207	0.085
Mof_C 	C 	0.5784	0.676	0.474	-0.117
Mof_C 	C 	0.7596	0.5828	0.1698	0.067
Mof_C 	C 	0.6848	0.7653	0.7277	-0.08
Mof_C 	C 	0.7127	0.4314	0.2116	-0.103
Mof_C 	C 	0.5411	0.673	0.6117	-0.091
Mof_C 	C 	0.0292	0.7962	0.7967	-0.094
Mof_C 	C 	0.5797	0.45	0.2393	0.105
Mof_C 	C 	0.1133	0.7699	0.6876	-0.091
Mof_C 	C 	0.7822	0.0247	0.1306	-0.101
Mof_C 	C 	0.64	0.654	0.2425	0.073
Mof_C 	C 	0.2647	0.767	0.74	0.081
Mof_C 	C 	0.1514	0.4824	0.6259	-0.099
Mof_C 	C 	0.1654	0.831	0.8361	0.087
Mof_C 	C 	0.5086	0.7941	0.8685	-0.099
Mof_C 	C 	0.1183	0.8282	0.8202	-0.119
Mof_C 	C 	0.7382	0.0309	0.9058	-0.078
Mof_C 	C 	0.7273	0.0168	0.1807	0.097
Mof_C 	C 	0.7659	0.0789	0.1052	0.103
Mof_C 	C 	0.775	0.86	0.5407	-0.12
Mof_C 	C 	0.7094	0.1643	0.9355	-0.112
Mof_C 	C 	0.0283	0.6227	0.0965	-0.098
Mof_C 	C 	0.9237	0.9766	0.6345	0.066
Mof_C 	C 	0.2189	0.7638	0.7226	-0.103
Mof_C 	C 	0.5459	0.6807	0.8144	0.094
Mof_C 	C 	0.0695	0.5212	0.7341	-0.082
Mof_C 	C 	0.8568	0.0122	0.8322	-0.081
Mof_C 	C 	0.8976	0.7818	0.4811	-0.125
Mof_C 	C 	0.604	0.8485	0.8167	-0.075
Mof_C 	C 	0.0954	0.7869	0.7484	0.067
Mof_C 	C 	0.8059	0.9011	0.1762	-0.097
Mof_C 	C 	0.6949	0.9585	0.2719	-0.08
Mof_C 	C 	0.8071	0.1607	0.9638	0.078
Mof_C 	C 	0.7395	0.8205	0.4587	-0.086
Mof_C 	C 	0.7193	0.7949	0.4284	0.075
Mof_C 	C 	0.6426	0.1195	0.1744	0.091
Mof_C 	C 	0.8517	0.7237	0.4185	-0.094
Mof_C 	C 	0.4614	0.7707	0.8937	0.087
Mof_C 	C 	0.7893	0.0515	0.8842	0.067
Mof_C 	C 	0.9392	0.0105	0.586	-0.1
Mof_C 	C 	0.709	0.9027	0.2965	0.076
Mof_C 	C 	0.96	0.6085	0.6942	-0.112
Mof_C 	C 	0.7709	0.8004	0.0531	-0.082
Mof_C 	C 	0.9134	0.6649	0.6863	0.076
Mof_C 	C 	0.7552	0.9748	0.8783	0.091
Mof_C 	C 	0.8615	0.7201	0.8896	-0.116
Mof_C 	C 	0.7729	0.109	0.9163	0.08
Mof_C 	C 	0.9137	0.8041	0.5166	0.094
Mof_C 	C 	0.5964	0.0697	0.7293	0.103
Mof_C 	C 	0.8723	0.9568	0.8042	0.084
Mof_C 	C 	0.5743	0.7632	0.8147	0.091
Mof_C 	C 	0.1446	0.7942	0.7639	0.077
Mof_C 	C 	0.0655	0.7635	0.6759	0.081
Mof_C 	C 	0.7269	0.7941	0.7019	0.099
Mof_C 	C 	0.5097	0.7256	0.5878	0.091
Mof_C 	C 	0.8234	0.1087	0.9288	-0.112
Mof_C 	C 	0.5335	0.7858	0.4989	-0.099
Mof_C 	C 	0.6566	0.0665	0.2024	-0.098
Mof_C 	C 	0.4218	0.779	0.6944	0.096
Mof_C 	C 	0.6218	0.7914	0.786	0.092
Mof_C 	C 	0.8071	0.7839	0.4551	0.06
Mof_C 	C 	0.447	0.7786	0.6313	-0.108
Mof_C 	C 	0.7437	0.9583	0.2094	0.078
Mof_C 	C 	0.5399	0.729	0.52	0.091
Mof_C 	C 	0.992	0.9811	0.5258	0.064
Mof_C 	C 	0.8274	0.8084	0.4921	0.089
Mof_C 	C 	0.3729	0.5959	0.9809	0.082
Mof_C 	C 	0.5149	0.5119	0.9177	-0.118
Mof_C 	C 	0.7438	0.5351	0.1739	-0.09
Mof_C 	C 	0.8559	0.6839	0.0683	0.077
Mof_C 	C 	0.5912	0.5013	0.2357	-0.098
Mof_C 	C 	0.6217	0.6056	0.249	-0.09
Mof_C 	C 	0.9727	0.6176	0.1467	0.08
Mof_C 	C 	0.21	0.6434	0.9531	0.067
Mof_C 	C 	0.1632	0.6318	0.0053	-0.103
Mof_C 	C 	0.4785	0.5447	0.8865	0.098
Mof_C 	C 	0.4089	0.5628	0.0133	-0.115
Mof_C 	C 	0.8487	0.6899	0.0141	-0.091
Mof_C 	C 	0.0293	0.9166	0.5148	-0.093
Mof_C 	C 	0.0824	0.7425	0.0391	-0.104
Mof_C 	C 	0.0853	0.5273	0.6726	0.077
Mof_C 	C 	0.8066	0.7509	0.0055	0.074
Mof_C 	C 	0.4808	0.5181	0.9826	0.077
Mof_C 	C 	0.0973	0.6812	0.0506	0.061
Mof_C 	C 	0.6751	0.5446	0.2136	0.062
Mof_C 	C 	0.2742	0.9826	0.3271	0.094
Mof_C 	C 	0.5535	0.8866	0.3063	0.099
Mof_C 	C 	0.4359	0.2117	0.5639	0.091
Mof_C 	C 	0.8007	0.5661	0.3597	0.096
Mof_C 	C 	0.4743	0.897	0.2689	0.085
Mof_C 	C 	0.4847	0.9149	0.3137	-0.081
Mof_C 	C 	0.1711	0.299	0.611	0.065
Mof_C 	C 	0.8799	0.5279	0.2523	0.084
Mof_C 	C 	0.5342	0.8474	0.2198	-0.085
Mof_C 	C 	0.3928	0.3193	0.5881	0.094
Mof_C 	C 	0.601	0.8207	0.2146	0.105
Mof_C 	C 	0.2229	0.2077	0.8932	0.079
Mof_C 	C 	0.1827	0.1528	0.7977	0.073
Mof_C 	C 	0.2075	0.1192	0.4234	0.1
Mof_C 	C 	0.1962	0.239	0.0544	0.105
Mof_C 	C 	0.0164	0.2113	0.2164	0.077
Mof_C 	C 	0.352	0.1249	0.2115	0.112
Mof_C 	C 	0.3388	0.9488	0.3273	-0.131
Mof_C 	C 	0.1399	0.2679	0.1662	0.091
Mof_C 	C 	0.9879	0.3273	0.3953	0.08
Mof_C 	C 	0.9402	0.3841	0.3888	-0.102
Mof_C 	C 	0.9856	0.1179	0.4372	0.065
Mof_C 	C 	0.3341	0.9799	0.2189	0.093
Mof_C 	C 	0.2535	0.1887	0.0567	-0.102
Mof_C 	C 	0.9658	0.4167	0.3408	0.074
Mof_C 	C 	0.2534	0.1787	0.1126	0.111
Mof_C 	C 	0.4002	0.9458	0.2161	-0.124
Mof_C 	C 	0.307	0.783	0.0289	0.073
Mof_C 	C 	0.4857	0.3257	0.324	0.097
Mof_C 	C 	0.997	0.2928	0.8389	-0.104
Mof_C 	C 	0.4074	0.2959	0.2108	-0.097
Mof_C 	C 	0.9579	0.3288	0.8957	0.068
Mof_C 	C 	0.0532	0.3002	0.7894	0.086
Mof_C 	C 	0.8704	0.2468	0.0148	0.079
Mof_C 	C 	0.2997	0.6199	0.7852	0.104
Mof_C 	C 	0.3417	0.5076	0.7793	0.085
Mof_C 	C 	0.4216	0.324	0.526	-0.117
Mof_C 	C 	0.2404	0.4172	0.8302	0.067
Mof_C 	C 	0.3152	0.2347	0.2723	-0.08
Mof_C 	C 	0.2873	0.5686	0.7884	-0.103
Mof_C 	C 	0.4589	0.327	0.3883	-0.091
Mof_C 	C 	0.9708	0.2038	0.2033	-0.094
Mof_C 	C 	0.4203	0.55	0.7607	0.105
Mof_C 	C 	0.8867	0.2301	0.3124	-0.091
Mof_C 	C 	0.2178	0.9753	0.8694	-0.101
Mof_C 	C 	0.36	0.346	0.7575	0.073
Mof_C 	C 	0.7353	0.233	0.26	0.081
Mof_C 	C 	0.8486	0.5176	0.3741	-0.099
Mof_C 	C 	0.8346	0.169	0.1639	0.087
Mof_C 	C 	0.4914	0.2059	0.1315	-0.099
Mof_C 	C 	0.8817	0.1718	0.1798	-0.119
Mof_C 	C 	0.2618	0.9691	0.0942	-0.078
Mof_C 	C 	0.2727	0.9832	0.8193	0.097
Mof_C 	C 	0.2341	0.9211	0.8948	0.103
Mof_C 	C 	0.225	0.14	0.4593	-0.12
Mof_C 	C 	0.2906	0.8357	0.0645	-0.112
Mof_C 	C 	0.9717	0.3773	0.9035	-0.098
Mof_C 	C 	0.0763	0.0234	0.3655	0.066
Mof_C 	C 	0.7811	0.2362	0.2774	-0.103
Mof_C 	C 	0.4541	0.3193	0.1856	0.094
Mof_C 	C 	0.9305	0.4788	0.2659	-0.082
Mof_C 	C 	0.1432	0.9878	0.1678	-0.081
Mof_C 	C 	0.1024	0.2182	0.5189	-0.125
Mof_C 	C 	0.396	0.1515	0.1833	-0.075
Mof_C 	C 	0.9046	0.2131	0.2516	0.067
Mof_C 	C 	0.1941	0.0989	0.8238	-0.097
Mof_C 	C 	0.3051	0.0415	0.7281	-0.08
Mof_C 	C 	0.1929	0.8393	0.0362	0.078
Mof_C 	C 	0.2605	0.1795	0.5413	-0.086
Mof_C 	C 	0.2807	0.2051	0.5716	0.075
Mof_C 	C 	0.3574	0.8805	0.8256	0.091
Mof_C 	C 	0.1483	0.2763	0.5815	-0.094
Mof_C 	C 	0.5386	0.2293	0.1063	0.087
Mof_C 	C 	0.2107	0.9485	0.1158	0.067
Mof_C 	C 	0.0608	0.9895	0.414	-0.1
Mof_C 	C 	0.291	0.0973	0.7035	0.076
Mof_C 	C 	0.04	0.3915	0.3058	-0.112
Mof_C 	C 	0.2291	0.1996	0.9469	-0.082
Mof_C 	C 	0.0866	0.3351	0.3137	0.076
Mof_C 	C 	0.2448	0.0252	0.1217	0.091
Mof_C 	C 	0.1385	0.2799	0.1104	-0.116
Mof_C 	C 	0.2271	0.891	0.0837	0.08
Mof_C 	C 	0.0863	0.1959	0.4834	0.094
Mof_C 	C 	0.4036	0.9303	0.2707	0.103
Mof_C 	C 	0.1277	0.0432	0.1958	0.084
Mof_C 	C 	0.4257	0.2368	0.1853	0.091
Mof_C 	C 	0.8554	0.2058	0.2361	0.077
Mof_C 	C 	0.9345	0.2365	0.3241	0.081
Mof_C 	C 	0.2731	0.2059	0.2981	0.099
Mof_C 	C 	0.4903	0.2744	0.4122	0.091
Mof_C 	C 	0.1766	0.8913	0.0712	-0.112
Mof_C 	C 	0.4665	0.2142	0.5011	-0.099
Mof_C 	C 	0.3434	0.9335	0.7976	-0.098
Mof_C 	C 	0.5782	0.221	0.3056	0.096
Mof_C 	C 	0.3782	0.2086	0.214	0.092
Mof_C 	C 	0.1929	0.2161	0.5449	0.06
Mof_C 	C 	0.553	0.2214	0.3687	-0.108
Mof_C 	C 	0.2563	0.0417	0.7906	0.078
Mof_C 	C 	0.4601	0.271	0.48	0.091
Mof_C 	C 	0.008	0.0189	0.4742	0.064
Mof_C 	C 	0.1726	0.1916	0.5079	0.089
Mof_C 	C 	0.6271	0.4041	0.0191	0.082
Mof_C 	C 	0.4851	0.4881	0.0823	-0.118
Mof_C 	C 	0.2562	0.4649	0.8261	-0.09
Mof_C 	C 	0.1441	0.3161	0.9317	0.077
Mof_C 	C 	0.4088	0.4987	0.7643	-0.098
Mof_C 	C 	0.3783	0.3944	0.751	-0.09
Mof_C 	C 	0.0273	0.3824	0.8533	0.08
Mof_C 	C 	0.79	0.3566	0.0469	0.067
Mof_C 	C 	0.8368	0.3682	0.9947	-0.103
Mof_C 	C 	0.5215	0.4553	0.1135	0.098
Mof_C 	C 	0.5911	0.4372	0.9867	-0.115
Mof_C 	C 	0.1513	0.3101	0.9859	-0.091
Mof_C 	C 	0.9707	0.0834	0.4852	-0.093
Mof_C 	C 	0.9176	0.2575	0.9609	-0.104
Mof_C 	C 	0.9147	0.4727	0.3274	0.077
Mof_C 	C 	0.1934	0.2491	0.9945	0.074
Mof_C 	C 	0.5192	0.4819	0.0174	0.077
Mof_C 	C 	0.9027	0.3188	0.9494	0.061
Mof_C 	C 	0.3249	0.4554	0.7864	0.062
Mof_N 	N 	0.7074	0.8485	0.7329	-0.055
Mof_N 	N 	0.8218	0.9384	0.8278	-0.047
Mof_N 	N 	0.0027	0.7723	0.7236	-0.055
Mof_N 	N 	0.9406	0.6972	0.6428	-0.065
Mof_N 	N 	0.9615	0.9126	0.6218	-0.054
Mof_N 	N 	0.728	0.001	0.726	-0.068
Mof_N 	N 	0.8035	0.7827	0.8335	-0.065
Mof_N 	N 	0.8615	0.853	0.5645	-0.067
Mof_N 	N 	0.7057	0.642	0.2046	-0.058
Mof_N 	N 	0.6348	0.3906	0.2268	-0.052
Mof_N 	N 	0.1925	0.7046	0.9431	-0.056
Mof_N 	N 	0.39	0.1586	0.7427	-0.052
Mof_N 	N 	0.9322	0.6563	0.2012	-0.06
Mof_N 	N 	0.8213	0.7328	0.1121	-0.057
Mof_N 	N 	0.457	0.7277	0.7157	-0.056
Mof_N 	N 	0.6983	0.1253	0.126	-0.061
Mof_N 	N 	0.6006	0.7365	0.3934	-0.062
Mof_N 	N 	0.7426	0.2138	0.9848	-0.064
Mof_N 	N 	0.7689	0.8483	0.2613	-0.057
Mof_N 	N 	0.4807	0.7143	0.8664	-0.063
Mof_N 	N 	0.1836	0.4301	0.7009	-0.055
Mof_N 	N 	0.7616	0.7365	0.3953	-0.052
Mof_N 	N 	0.2371	0.7992	0.7958	-0.067
Mof_N 	N 	0.409	0.5853	0.9176	-0.067
Mof_N 	N 	0.2926	0.1515	0.2671	-0.055
Mof_N 	N 	0.1782	0.0616	0.1722	-0.047
Mof_N 	N 	0.9973	0.2277	0.2764	-0.055
Mof_N 	N 	0.0594	0.3028	0.3572	-0.065
Mof_N 	N 	0.0385	0.0874	0.3782	-0.054
Mof_N 	N 	0.272	0.999	0.274	-0.068
Mof_N 	N 	0.1965	0.2173	0.1665	-0.065
Mof_N 	N 	0.1385	0.147	0.4355	-0.067
Mof_N 	N 	0.2943	0.358	0.7954	-0.058
Mof_N 	N 	0.3652	0.6094	0.7732	-0.052
Mof_N 	N 	0.8075	0.2954	0.0569	-0.056
Mof_N 	N 	0.61	0.8414	0.2573	-0.052
Mof_N 	N 	0.0678	0.3437	0.7988	-0.06
Mof_N 	N 	0.1787	0.2672	0.8879	-0.057
Mof_N 	N 	0.543	0.2723	0.2843	-0.056
Mof_N 	N 	0.3017	0.8747	0.874	-0.061
Mof_N 	N 	0.3994	0.2635	0.6066	-0.062
Mof_N 	N 	0.2574	0.7862	0.0152	-0.064
Mof_N 	N 	0.2311	0.1517	0.7387	-0.057
Mof_N 	N 	0.5193	0.2857	0.1336	-0.063
Mof_N 	N 	0.8164	0.5699	0.2991	-0.055
Mof_N 	N 	0.2384	0.2635	0.6047	-0.052
Mof_N 	N 	0.7629	0.2008	0.2042	-0.067
Mof_N 	N 	0.591	0.4147	0.0824	-0.067
Mof_O 	O 	0.8766	0.8743	0.6009	-0.334
Mof_O 	O 	0.7472	0.877	0.7079	-0.35
Mof_O 	O 	0.6836	0.1771	0.0995	-0.341
Mof_O 	O 	0.7385	0.7139	0.369	-0.354
Mof_O 	O 	0.8027	0.7943	0.7794	-0.334
Mof_O 	O 	0.78	0.7956	0.2855	-0.337
Mof_O 	O 	0.4354	0.7309	0.7773	-0.355
Mof_O 	O 	0.9577	0.7658	0.7118	-0.341
Mof_O 	O 	0.2322	0.3848	0.7148	-0.336
Mof_O 	O 	0.4352	0.6914	0.8899	-0.331
Mof_O 	O 	0.6304	0.7407	0.3328	-0.337
Mof_O 	O 	0.2814	0.8005	0.8131	-0.335
Mof_O 	O 	0.7909	0.9639	0.7244	-0.337
Mof_O 	O 	0.3245	0.1816	0.75	-0.329
Mof_O 	O 	0.8951	0.7552	0.6395	-0.332
Mof_O 	O 	0.9475	0.8791	0.6672	-0.352
Mof_O 	O 	0.373	0.6168	0.8863	-0.353
Mof_O 	O 	0.8377	0.8829	0.8031	-0.335
Mof_O 	O 	0.6248	0.3415	0.228	-0.319
Mof_O 	O 	0.8757	0.6528	0.2474	-0.321
Mof_O 	O 	0.2367	0.7158	0.8903	-0.363
Mof_O 	O 	0.7258	0.2617	0.0218	-0.33
Mof_O 	O 	0.8307	0.7244	0.1625	-0.347
Mof_O 	O 	0.7227	0.6879	0.1988	-0.345
Mof_O 	O 	0.1234	0.1257	0.3991	-0.334
Mof_O 	O 	0.2528	0.123	0.2921	-0.35
Mof_O 	O 	0.3164	0.8229	0.9005	-0.341
Mof_O 	O 	0.2615	0.2861	0.631	-0.354
Mof_O 	O 	0.1973	0.2057	0.2206	-0.334
Mof_O 	O 	0.22	0.2044	0.7145	-0.337
Mof_O 	O 	0.5646	0.2691	0.2227	-0.355
Mof_O 	O 	0.0423	0.2342	0.2882	-0.341
Mof_O 	O 	0.7678	0.6152	0.2852	-0.336
Mof_O 	O 	0.5648	0.3086	0.1101	-0.331
Mof_O 	O 	0.3696	0.2593	0.6672	-0.337
Mof_O 	O 	0.7186	0.1995	0.1869	-0.335
Mof_O 	O 	0.2091	0.0361	0.2756	-0.337
Mof_O 	O 	0.6755	0.8184	0.25	-0.329
Mof_O 	O 	0.1049	0.2448	0.3605	-0.332
Mof_O 	O 	0.0525	0.1209	0.3328	-0.352
Mof_O 	O 	0.627	0.3832	0.1137	-0.353
Mof_O 	O 	0.1623	0.1171	0.1969	-0.335
Mof_O 	O 	0.3752	0.6585	0.772	-0.319
Mof_O 	O 	0.1243	0.3472	0.7526	-0.321
Mof_O 	O 	0.7633	0.2842	0.1097	-0.363
Mof_O 	O 	0.2742	0.7383	0.9782	-0.33
Mof_O 	O 	0.1693	0.2756	0.8375	-0.347
Mof_O 	O 	0.2773	0.3121	0.8012	-0.345
Mof_C 	C 	0.8777	0.8922	0.9731	0.886
Mof_S 	S 	0.9408	0.8441	0.9979	0.244
Mof_O 	O 	0.0058	0.813	0.9395	-0.168
Mof_O 	O 	0.9169	0.8017	0.0347	-0.155
Mof_O 	O 	0.941	0.8897	0.0313	-0.171
Mof_F 	F 	0.8911	0.9331	0.942	-0.515
Mof_F 	F 	0.8673	0.8635	0.9415	-0.51
Mof_F 	F 	0.812	0.9271	0.0225	-0.459
Mof_C 	C 	0.5975	0.9796	0.1326	0.9
Mof_S 	S 	0.6183	0.0084	0.0609	0.237
Mof_O 	O 	0.6339	0.0546	0.0715	-0.13
Mof_O 	O 	0.5535	0.0378	0.0547	-0.068
Mof_O 	O 	0.6799	0.9529	0.016	-0.095
Mof_F 	F 	0.5464	0.0202	0.181	-0.478
Mof_F 	F 	0.6513	0.9494	0.1415	-0.496
Mof_F 	F 	0.578	0.9361	0.1333	-0.452
Mof_C 	C 	0.5658	0.8776	0.6503	0.885
Mof_S 	S 	0.514	0.916	0.6127	0.256
Mof_O 	O 	0.4655	0.8913	0.636	-0.163
Mof_O 	O 	0.5646	0.8933	0.5459	-0.121
Mof_O 	O 	0.4781	0.9823	0.6366	-0.118
Mof_F 	F 	0.5311	0.8854	0.7096	-0.48
Mof_F 	F 	0.6102	0.8192	0.6283	-0.506
Mof_F 	F 	0.6106	0.8999	0.64	-0.462
Mof_C 	C 	0.3046	0.5201	0.258	0.893
Mof_S 	S 	0.3438	0.4823	0.3053	0.248
Mof_O 	O 	0.3061	0.5314	0.357	-0.1
Mof_O 	O 	0.3277	0.4305	0.3237	-0.138
Mof_O 	O 	0.4188	0.4637	0.266	-0.162
Mof_F 	F 	0.3153	0.5655	0.2364	-0.491
Mof_F 	F 	0.238	0.5385	0.2828	-0.466
Mof_F 	F 	0.3343	0.4797	0.2061	-0.465
Mof_C 	C 	0.4272	0.6057	0.5743	0.885
Mof_S 	S 	0.3779	0.6763	0.5534	0.254
Mof_O 	O 	0.3723	0.7231	0.5894	-0.131
Mof_O 	O 	0.421	0.6717	0.486	-0.089
Mof_O 	O 	0.3099	0.6787	0.5748	-0.11
Mof_F 	F 	0.4416	0.5555	0.5465	-0.413
Mof_F 	F 	0.3995	0.6045	0.6327	-0.484
Mof_F 	F 	0.4928	0.5964	0.5583	-0.44
Mof_C 	C 	0.4527	0.1641	0.9859	0.891
Mof_S 	S 	0.5287	0.1719	0.9349	0.252
Mof_O 	O 	0.5071	0.2075	0.8921	-0.138
Mof_O 	O 	0.538	0.2061	0.9722	-0.15
Mof_O 	O 	0.585	0.1073	0.9062	-0.149
Mof_F 	F 	0.4307	0.1448	0.9582	-0.478
Mof_F 	F 	0.4581	0.1309	0.028	-0.486
Mof_F 	F 	0.3958	0.2207	0.0192	-0.46
Mof_C 	C 	0.6718	0.077	0.482	0.883
Mof_S 	S 	0.6393	0.0244	0.4887	0.252
Mof_O 	O 	0.5635	0.0666	0.518	-0.121
Mof_O 	O 	0.67	0.994	0.4253	-0.126
Mof_O 	O 	0.66	0.9843	0.53	-0.14
Mof_F 	F 	0.655	0.1202	0.45	-0.491
Mof_F 	F 	0.656	0.1022	0.534	-0.499
Mof_F 	F 	0.7442	0.0462	0.451	-0.452
Mof_C 	C 	0.1223	0.1078	0.0269	0.886
Mof_S 	S 	0.0592	0.1559	0.0021	0.244
Mof_O 	O 	0.9942	0.187	0.0605	-0.168
Mof_O 	O 	0.0831	0.1983	0.9653	-0.155
Mof_O 	O 	0.059	0.1103	0.9687	-0.171
Mof_F 	F 	0.1089	0.0669	0.058	-0.515
Mof_F 	F 	0.1327	0.1365	0.0585	-0.51
Mof_F 	F 	0.188	0.0729	0.9775	-0.459
Mof_C 	C 	0.4025	0.0204	0.8674	0.9
Mof_S 	S 	0.3817	0.9916	0.9391	0.237
Mof_O 	O 	0.3661	0.9454	0.9285	-0.13
Mof_O 	O 	0.4465	0.9622	0.9453	-0.068
Mof_O 	O 	0.3201	0.0471	0.984	-0.095
Mof_F 	F 	0.4536	0.9798	0.819	-0.478
Mof_F 	F 	0.3487	0.0506	0.8585	-0.496
Mof_F 	F 	0.422	0.0639	0.8667	-0.452
Mof_C 	C 	0.4342	0.1224	0.3497	0.885
Mof_S 	S 	0.486	0.084	0.3873	0.256
Mof_O 	O 	0.5345	0.1087	0.364	-0.163
Mof_O 	O 	0.4354	0.1067	0.4541	-0.121
Mof_O 	O 	0.5219	0.0177	0.3634	-0.118
Mof_F 	F 	0.4689	0.1146	0.2904	-0.48
Mof_F 	F 	0.3898	0.1808	0.3717	-0.506
Mof_F 	F 	0.3894	0.1001	0.36	-0.462
Mof_C 	C 	0.6954	0.4799	0.742	0.893
Mof_S 	S 	0.6562	0.5177	0.6947	0.248
Mof_O 	O 	0.6939	0.4686	0.643	-0.1
Mof_O 	O 	0.6723	0.5695	0.6763	-0.138
Mof_O 	O 	0.5812	0.5363	0.734	-0.162
Mof_F 	F 	0.6847	0.4345	0.7636	-0.491
Mof_F 	F 	0.762	0.4615	0.7172	-0.466
Mof_F 	F 	0.6657	0.5203	0.7939	-0.465
Mof_C 	C 	0.5728	0.3943	0.4257	0.885
Mof_S 	S 	0.6221	0.3237	0.4466	0.254
Mof_O 	O 	0.6277	0.2769	0.4106	-0.131
Mof_O 	O 	0.579	0.3283	0.514	-0.089
Mof_O 	O 	0.6901	0.3213	0.4252	-0.11
Mof_F 	F 	0.5584	0.4445	0.4535	-0.413
Mof_F 	F 	0.6005	0.3955	0.3673	-0.484
Mof_F 	F 	0.5072	0.4036	0.4417	-0.44
Mof_C 	C 	0.5473	0.8359	0.0141	0.891
Mof_S 	S 	0.4713	0.8281	0.0651	0.252
Mof_O 	O 	0.4929	0.7925	0.1079	-0.138
Mof_O 	O 	0.462	0.7939	0.0278	-0.15
Mof_O 	O 	0.415	0.8927	0.0938	-0.149
Mof_F 	F 	0.5693	0.8552	0.0418	-0.478
Mof_F 	F 	0.5419	0.8691	0.972	-0.486
Mof_F 	F 	0.6042	0.7793	0.9808	-0.46
Mof_C 	C 	0.3282	0.923	0.518	0.883
Mof_S 	S 	0.3607	0.9756	0.5113	0.252
Mof_O 	O 	0.4365	0.9334	0.482	-0.121
Mof_O 	O 	0.33	0.006	0.5747	-0.126
Mof_O 	O 	0.34	0.0157	0.47	-0.14
Mof_F 	F 	0.345	0.8798	0.55	-0.491
Mof_F 	F 	0.344	0.8978	0.466	-0.499
Mof_F 	F 	0.2558	0.9538	0.549	-0.452
Mof_Cl	Cl	0.2021	0.5884	0.6768	-0.156
Mof_Cl	Cl	0.2937	0.5209	0.5442	-0.116
Mof_Cl	Cl	0.3434	0.4827	0.6278	-0.105
Mof_Cl	Cl	0.9497	0.354	0.6947	-0.157
Mof_Cl	Cl	0.9919	0.4333	0.7127	-0.203
Mof_Cl	Cl	0.4292	0.0793	0.5693	-0.23
Mof_Cl	Cl	0.6077	0.9642	0.9168	-0.171
Mof_Cl	Cl	0.0641	0.6218	0.8425	-0.229
Mof_Cl	Cl	0.067	0.4774	0.8988	-0.277
Mof_Cl	Cl	0.1277	0.7255	0.5222	-0.241
Mof_Cl	Cl	0.7979	0.4116	0.3232	-0.156
Mof_Cl	Cl	0.7063	0.4791	0.4558	-0.116
Mof_Cl	Cl	0.6566	0.5173	0.3722	-0.105
Mof_Cl	Cl	0.0503	0.646	0.3053	-0.157
Mof_Cl	Cl	0.0081	0.5667	0.2873	-0.203
Mof_Cl	Cl	0.5708	0.9207	0.4307	-0.23
Mof_Cl	Cl	0.3923	0.0358	0.0832	-0.171
Mof_Cl	Cl	0.9359	0.3782	0.1575	-0.229
Mof_Cl	Cl	0.933	0.5226	0.1012	-0.277
Mof_Cl	Cl	0.8723	0.2745	0.4778	-0.241
_end
