# CIF file generated by openbabel 3.1.0, see https://openbabel.org
data_I
_chemical_name_common 'OTENEH_charged'
_cell_length_a 17.03
_cell_length_b 17.086
_cell_length_c 21.121
_cell_angle_alpha 90
_cell_angle_beta 90
_cell_angle_gamma 99.158
_space_group_name_H-M_alt 'P 1'
_space_group_name_Hall 'P 1'
loop_
    _symmetry_equiv_pos_as_xyz
    x,y,z
loop_
    _atom_site_label
    _atom_site_type_symbol
    _atom_site_fract_x
    _atom_site_fract_y
    _atom_site_fract_z
    _atom_site_occupancy
    Pr1      Pr       0.53776    0.72955    0.45168    1.000
    Pr2      Pr       0.87053    0.74901    0.58325    1.000
    Pr3      Pr       0.48266    0.63931    0.64381    1.000
    Pr4      Pr       0.56229    0.87287    0.15873    1.000
    Pr5      Pr       0.96224    0.27045    0.95169    1.000
    Pr6      Pr       0.62947    0.25099    0.08325    1.000
    Pr7      Pr       0.01734    0.36069    0.14381    1.000
    Pr8      Pr       0.93771    0.12713    0.65873    1.000
    Pr9      Pr       0.46224    0.27045    0.54831    1.000
    Pr10     Pr       0.12947    0.25099    0.41675    1.000
    Pr11     Pr       0.51734    0.36069    0.35619    1.000
    Pr12     Pr       0.43771    0.12713    0.84127    1.000
    Pr13     Pr       0.03776    0.72955    0.04831    1.000
    Pr14     Pr       0.37053    0.74901    0.91675    1.000
    Pr15     Pr       0.98266    0.63931    0.85619    1.000
    Pr16     Pr       0.06229    0.87287    0.34127    1.000
    H1       H        0.90670    0.81690    0.71662    1.000
    H2       H        0.97633    0.82150    0.68660    1.000
    H3       H        0.79760    0.58170    0.53990    1.000
    H4       H        0.85350    0.60130    0.49553    1.000
    H5       H        0.32890    0.66060    0.70788    1.000
    H6       H        0.31270    0.65550    0.64597    1.000
    H7       H        0.50710    0.69440    0.13540    1.000
    H8       H        0.56270    0.69420    0.17990    1.000
    H9       H        0.55510    0.81500    0.64870    1.000
    H10      H        0.47790    0.81610    0.66170    1.000
    H11      H        0.51280    0.85920    0.54795    1.000
    H12      H        0.57690    0.89130    0.51440    1.000
    H13      H        0.70770    0.77250    0.46694    1.000
    H14      H        0.70500    0.80230    0.40839    1.000
    H15      H        0.50760    0.65890    0.32040    1.000
    H16      H        0.57960    0.70460    0.31400    1.000
    H17      H        0.61560    0.88810    0.02260    1.000
    H18      H        0.65730    0.82980    0.03620    1.000
    H19      H        0.02230    0.68940    0.52610    1.000
    H20      H        0.00790    0.75700    0.49911    1.000
    H21      H        0.73310    0.86970    0.19820    1.000
    H22      H        0.69420    0.79670    0.20800    1.000
    H23      H        0.59330    0.18310    0.21662    1.000
    H24      H        0.52367    0.17850    0.18660    1.000
    H25      H        0.70240    0.41830    0.03990    1.000
    H26      H        0.64650    0.39870    0.99553    1.000
    H27      H        0.17110    0.33940    0.20788    1.000
    H28      H        0.18730    0.34450    0.14597    1.000
    H29      H        0.99290    0.30560    0.63540    1.000
    H30      H        0.93730    0.30580    0.67990    1.000
    H31      H        0.94490    0.18500    0.14870    1.000
    H32      H        0.02210    0.18390    0.16170    1.000
    H33      H        0.98720    0.14080    0.04795    1.000
    H34      H        0.92310    0.10870    0.01440    1.000
    H35      H        0.79230    0.22750    0.96694    1.000
    H36      H        0.79500    0.19770    0.90839    1.000
    H37      H        0.99240    0.34110    0.82040    1.000
    H38      H        0.92040    0.29540    0.81400    1.000
    H39      H        0.88440    0.11190    0.52260    1.000
    H40      H        0.84270    0.17020    0.53620    1.000
    H41      H        0.47770    0.31060    0.02610    1.000
    H42      H        0.49210    0.24300    0.99911    1.000
    H43      H        0.76690    0.13030    0.69820    1.000
    H44      H        0.80580    0.20330    0.70800    1.000
    H45      H        0.09330    0.18310    0.28338    1.000
    H46      H        0.02367    0.17850    0.31340    1.000
    H47      H        0.20240    0.41830    0.46010    1.000
    H48      H        0.14650    0.39870    0.50447    1.000
    H49      H        0.67110    0.33940    0.29212    1.000
    H50      H        0.68730    0.34450    0.35403    1.000
    H51      H        0.49290    0.30560    0.86460    1.000
    H52      H        0.43730    0.30580    0.82010    1.000
    H53      H        0.44490    0.18500    0.35130    1.000
    H54      H        0.52210    0.18390    0.33830    1.000
    H55      H        0.48720    0.14080    0.45205    1.000
    H56      H        0.42310    0.10870    0.48560    1.000
    H57      H        0.29230    0.22750    0.53306    1.000
    H58      H        0.29500    0.19770    0.59161    1.000
    H59      H        0.49240    0.34110    0.67960    1.000
    H60      H        0.42040    0.29540    0.68600    1.000
    H61      H        0.38440    0.11190    0.97740    1.000
    H62      H        0.34270    0.17020    0.96380    1.000
    H63      H        0.97770    0.31060    0.47390    1.000
    H64      H        0.99210    0.24300    0.50089    1.000
    H65      H        0.26690    0.13030    0.80180    1.000
    H66      H        0.30580    0.20330    0.79200    1.000
    H67      H        0.40670    0.81690    0.78338    1.000
    H68      H        0.47633    0.82150    0.81340    1.000
    H69      H        0.29760    0.58170    0.96010    1.000
    H70      H        0.35350    0.60130    0.00447    1.000
    H71      H        0.82890    0.66060    0.79212    1.000
    H72      H        0.81270    0.65550    0.85403    1.000
    H73      H        0.00710    0.69440    0.36460    1.000
    H74      H        0.06270    0.69420    0.32010    1.000
    H75      H        0.05510    0.81500    0.85130    1.000
    H76      H        0.97790    0.81610    0.83830    1.000
    H77      H        0.01280    0.85920    0.95205    1.000
    H78      H        0.07690    0.89130    0.98560    1.000
    H79      H        0.20770    0.77250    0.03306    1.000
    H80      H        0.20500    0.80230    0.09161    1.000
    H81      H        0.00760    0.65890    0.17960    1.000
    H82      H        0.07960    0.70460    0.18600    1.000
    H83      H        0.11560    0.88810    0.47740    1.000
    H84      H        0.15730    0.82980    0.46380    1.000
    H85      H        0.52230    0.68940    0.97390    1.000
    H86      H        0.50790    0.75700    0.00089    1.000
    H87      H        0.23310    0.86970    0.30180    1.000
    H88      H        0.19420    0.79670    0.29200    1.000
    C1       C        0.34200    0.72930    0.46870    1.000
    C2       C        0.35800    0.69620    0.52952    1.000
    C3       C        0.54650    0.95419    0.30691    1.000
    C4       C        0.54880    0.87041    0.32256    1.000
    C5       C        0.57111    0.53958    0.42553    1.000
    C6       C        0.48467    0.53381    0.42040    1.000
    C7       C        0.95110    0.54411    0.71418    1.000
    C8       C        0.95066    0.62784    0.69601    1.000
    C9       C        0.68284    0.68433    0.64550    1.000
    C10      C        0.66687    0.70803    0.57998    1.000
    C11      C        0.93452    0.94620    0.59264    1.000
    C12      C        0.85357    0.93878    0.61706    1.000
    C13      C        0.86270    0.83560    0.36568    1.000
    C14      C        0.89444    0.81066    0.42682    1.000
    C15      C        0.15800    0.27070    0.96870    1.000
    C16      C        0.14200    0.30380    0.02952    1.000
    C17      C        0.95350    0.04581    0.80691    1.000
    C18      C        0.95120    0.12959    0.82256    1.000
    C19      C        0.92889    0.46042    0.92553    1.000
    C20      C        0.01533    0.46619    0.92040    1.000
    C21      C        0.54890    0.45589    0.21418    1.000
    C22      C        0.54934    0.37216    0.19601    1.000
    C23      C        0.81716    0.31567    0.14550    1.000
    C24      C        0.83313    0.29197    0.07998    1.000
    C25      C        0.56548    0.05380    0.09264    1.000
    C26      C        0.64643    0.06122    0.11706    1.000
    C27      C        0.63730    0.16440    0.86568    1.000
    C28      C        0.60556    0.18934    0.92682    1.000
    C29      C        0.65800    0.27070    0.53130    1.000
    C30      C        0.64200    0.30380    0.47048    1.000
    C31      C        0.45350    0.04581    0.69309    1.000
    C32      C        0.45120    0.12959    0.67744    1.000
    C33      C        0.42889    0.46042    0.57447    1.000
    C34      C        0.51533    0.46619    0.57960    1.000
    C35      C        0.04890    0.45589    0.28582    1.000
    C36      C        0.04934    0.37216    0.30399    1.000
    C37      C        0.31716    0.31567    0.35450    1.000
    C38      C        0.33313    0.29197    0.42002    1.000
    C39      C        0.06548    0.05380    0.40736    1.000
    C40      C        0.14643    0.06122    0.38294    1.000
    C41      C        0.13730    0.16440    0.63432    1.000
    C42      C        0.10556    0.18934    0.57318    1.000
    C43      C        0.84200    0.72930    0.03130    1.000
    C44      C        0.85800    0.69620    0.97048    1.000
    C45      C        0.04650    0.95419    0.19309    1.000
    C46      C        0.04880    0.87041    0.17744    1.000
    C47      C        0.07111    0.53958    0.07447    1.000
    C48      C        0.98467    0.53381    0.07960    1.000
    C49      C        0.45110    0.54411    0.78582    1.000
    C50      C        0.45066    0.62784    0.80399    1.000
    C51      C        0.18284    0.68433    0.85450    1.000
    C52      C        0.16687    0.70803    0.92002    1.000
    C53      C        0.43452    0.94620    0.90736    1.000
    C54      C        0.35357    0.93878    0.88294    1.000
    C55      C        0.36270    0.83560    0.13432    1.000
    C56      C        0.39444    0.81066    0.07318    1.000
    N1       N        0.39833    0.75601    0.42741    1.000
    N2       N        0.36230    0.78480    0.37726    1.000
    N3       N        0.28570    0.77550    0.39100    1.000
    N4       N        0.26980    0.73630    0.44630    1.000
    N5       N        0.54140    0.01240    0.34778    1.000
    N6       N        0.54270    0.07750    0.30940    1.000
    N7       N        0.54740    0.05596    0.25024    1.000
    N8       N        0.54974    0.97824    0.24754    1.000
    N9       N        0.60795    0.48167    0.40877    1.000
    N10      N        0.68980    0.51260    0.42140    1.000
    N11      N        0.69500    0.58390    0.44310    1.000
    N12      N        0.61423    0.60480    0.44525    1.000
    N13      N        0.96520    0.52379    0.77241    1.000
    N14      N        0.95900    0.44486    0.77163    1.000
    N15      N        0.93810    0.41770    0.71476    1.000
    N16      N        0.93450    0.48000    0.67583    1.000
    N17      N        0.62903    0.65717    0.68948    1.000
    N18      N        0.67153    0.64371    0.74008    1.000
    N19      N        0.74679    0.66432    0.72805    1.000
    N20      N        0.75593    0.69072    0.66734    1.000
    N21      N        0.96393    0.88618    0.56449    1.000
    N22      N        0.04034    0.91728    0.54964    1.000
    N23      N        0.05482    0.99268    0.56897    1.000
    N24      N        0.98891    0.01177    0.59625    1.000
    N25      N        0.91101    0.86260    0.31776    1.000
    N26      N        0.86281    0.88160    0.27132    1.000
    N27      N        0.78880    0.86580    0.29224    1.000
    N28      N        0.78770    0.83880    0.35183    1.000
    N29      N        0.10167    0.24399    0.92741    1.000
    N30      N        0.13770    0.21520    0.87726    1.000
    N31      N        0.21430    0.22450    0.89100    1.000
    N32      N        0.23020    0.26370    0.94630    1.000
    N33      N        0.95860    0.98760    0.84778    1.000
    N34      N        0.95730    0.92250    0.80940    1.000
    N35      N        0.95260    0.94404    0.75024    1.000
    N36      N        0.95026    0.02176    0.74754    1.000
    N37      N        0.89205    0.51833    0.90877    1.000
    N38      N        0.81020    0.48740    0.92140    1.000
    N39      N        0.80500    0.41610    0.94310    1.000
    N40      N        0.88577    0.39520    0.94525    1.000
    N41      N        0.53480    0.47621    0.27241    1.000
    N42      N        0.54100    0.55514    0.27163    1.000
    N43      N        0.56190    0.58230    0.21476    1.000
    N44      N        0.56550    0.52000    0.17583    1.000
    N45      N        0.87097    0.34283    0.18948    1.000
    N46      N        0.82847    0.35629    0.24008    1.000
    N47      N        0.75321    0.33568    0.22805    1.000
    N48      N        0.74407    0.30928    0.16734    1.000
    N49      N        0.53607    0.11382    0.06449    1.000
    N50      N        0.45966    0.08272    0.04964    1.000
    N51      N        0.44518    0.00732    0.06897    1.000
    N52      N        0.51109    0.98823    0.09625    1.000
    N53      N        0.58899    0.13740    0.81776    1.000
    N54      N        0.63719    0.11840    0.77132    1.000
    N55      N        0.71120    0.13420    0.79224    1.000
    N56      N        0.71230    0.16120    0.85183    1.000
    N57      N        0.60167    0.24399    0.57259    1.000
    N58      N        0.63770    0.21520    0.62274    1.000
    N59      N        0.71430    0.22450    0.60900    1.000
    N60      N        0.73020    0.26370    0.55370    1.000
    N61      N        0.45860    0.98760    0.65222    1.000
    N62      N        0.45730    0.92250    0.69060    1.000
    N63      N        0.45260    0.94404    0.74976    1.000
    N64      N        0.45026    0.02176    0.75246    1.000
    N65      N        0.39205    0.51833    0.59123    1.000
    N66      N        0.31020    0.48740    0.57860    1.000
    N67      N        0.30500    0.41610    0.55690    1.000
    N68      N        0.38577    0.39520    0.55475    1.000
    N69      N        0.03480    0.47621    0.22759    1.000
    N70      N        0.04100    0.55514    0.22837    1.000
    N71      N        0.06190    0.58230    0.28524    1.000
    N72      N        0.06550    0.52000    0.32417    1.000
    N73      N        0.37097    0.34283    0.31052    1.000
    N74      N        0.32847    0.35629    0.25992    1.000
    N75      N        0.25321    0.33568    0.27195    1.000
    N76      N        0.24407    0.30928    0.33266    1.000
    N77      N        0.03607    0.11382    0.43551    1.000
    N78      N        0.95966    0.08272    0.45036    1.000
    N79      N        0.94518    0.00732    0.43103    1.000
    N80      N        0.01109    0.98823    0.40375    1.000
    N81      N        0.08899    0.13740    0.68224    1.000
    N82      N        0.13719    0.11840    0.72868    1.000
    N83      N        0.21120    0.13420    0.70776    1.000
    N84      N        0.21230    0.16120    0.64817    1.000
    N85      N        0.89833    0.75601    0.07259    1.000
    N86      N        0.86230    0.78480    0.12274    1.000
    N87      N        0.78570    0.77550    0.10900    1.000
    N88      N        0.76980    0.73630    0.05370    1.000
    N89      N        0.04140    0.01240    0.15222    1.000
    N90      N        0.04270    0.07750    0.19060    1.000
    N91      N        0.04740    0.05596    0.24976    1.000
    N92      N        0.04974    0.97824    0.25246    1.000
    N93      N        0.10795    0.48167    0.09123    1.000
    N94      N        0.18980    0.51260    0.07860    1.000
    N95      N        0.19500    0.58390    0.05690    1.000
    N96      N        0.11423    0.60480    0.05475    1.000
    N97      N        0.46520    0.52379    0.72759    1.000
    N98      N        0.45900    0.44486    0.72837    1.000
    N99      N        0.43810    0.41770    0.78524    1.000
    N100     N        0.43450    0.48000    0.82417    1.000
    N101     N        0.12903    0.65717    0.81052    1.000
    N102     N        0.17153    0.64371    0.75992    1.000
    N103     N        0.24679    0.66432    0.77195    1.000
    N104     N        0.25593    0.69072    0.83266    1.000
    N105     N        0.46393    0.88618    0.93551    1.000
    N106     N        0.54034    0.91728    0.95036    1.000
    N107     N        0.55482    0.99268    0.93103    1.000
    N108     N        0.48891    0.01177    0.90375    1.000
    N109     N        0.41101    0.86260    0.18224    1.000
    N110     N        0.36281    0.88160    0.22868    1.000
    N111     N        0.28880    0.86580    0.20776    1.000
    N112     N        0.28770    0.83880    0.14817    1.000
    O1       O        0.92789    0.80035    0.68382    1.000
    O2       O        0.43055    0.69136    0.54229    1.000
    O3       O        0.83278    0.61970    0.52778    1.000
    O4       O        0.34662    0.64545    0.67305    1.000
    O5       O        0.29870    0.67090    0.56387    1.000
    O6       O        0.53948    0.72571    0.15806    1.000
    O7       O        0.51099    0.78481    0.65477    1.000
    O8       O        0.54158    0.85027    0.51682    1.000
    O9       O        0.67553    0.78621    0.43976    1.000
    O10      O        0.54115    0.69280    0.33947    1.000
    O11      O        0.62901    0.86073    0.05319    1.000
    O12      O        0.99550    0.72686    0.53061    1.000
    O13      O        0.69069    0.83911    0.18787    1.000
    O14      O        0.54777    0.84866    0.37858    1.000
    O15      O        0.55389    0.82622    0.27363    1.000
    O16      O        0.44475    0.46756    0.40199    1.000
    O17      O        0.45227    0.59300    0.43285    1.000
    O18      O        0.97276    0.67630    0.74061    1.000
    O19      O        0.92715    0.64421    0.64349    1.000
    O20      O        0.59377    0.70115    0.56344    1.000
    O21      O        0.72489    0.73122    0.54687    1.000
    O22      O        0.81046    0.87243    0.61244    1.000
    O23      O        0.83360    0.00108    0.64219    1.000
    O24      O        0.96964    0.81315    0.42663    1.000
    O25      O        0.85000    0.78832    0.47111    1.000
    O26      O        0.57211    0.19965    0.18382    1.000
    O27      O        0.06945    0.30864    0.04229    1.000
    O28      O        0.66722    0.38030    0.02778    1.000
    O29      O        0.15338    0.35455    0.17305    1.000
    O30      O        0.20130    0.32910    0.06387    1.000
    O31      O        0.96052    0.27429    0.65806    1.000
    O32      O        0.98901    0.21519    0.15477    1.000
    O33      O        0.95842    0.14973    0.01682    1.000
    O34      O        0.82447    0.21379    0.93976    1.000
    O35      O        0.95885    0.30720    0.83947    1.000
    O36      O        0.87099    0.13927    0.55319    1.000
    O37      O        0.50450    0.27314    0.03061    1.000
    O38      O        0.80931    0.16089    0.68787    1.000
    O39      O        0.95223    0.15134    0.87858    1.000
    O40      O        0.94611    0.17378    0.77363    1.000
    O41      O        0.05525    0.53244    0.90199    1.000
    O42      O        0.04773    0.40700    0.93285    1.000
    O43      O        0.52724    0.32370    0.24061    1.000
    O44      O        0.57285    0.35579    0.14349    1.000
    O45      O        0.90623    0.29885    0.06344    1.000
    O46      O        0.77511    0.26878    0.04687    1.000
    O47      O        0.68954    0.12757    0.11244    1.000
    O48      O        0.66640    0.99892    0.14219    1.000
    O49      O        0.53036    0.18685    0.92663    1.000
    O50      O        0.65000    0.21168    0.97111    1.000
    O51      O        0.07211    0.19965    0.31618    1.000
    O52      O        0.56945    0.30864    0.45771    1.000
    O53      O        0.16722    0.38030    0.47222    1.000
    O54      O        0.65338    0.35455    0.32695    1.000
    O55      O        0.70130    0.32910    0.43613    1.000
    O56      O        0.46052    0.27429    0.84194    1.000
    O57      O        0.48901    0.21519    0.34523    1.000
    O58      O        0.45842    0.14973    0.48318    1.000
    O59      O        0.32447    0.21379    0.56024    1.000
    O60      O        0.45885    0.30720    0.66053    1.000
    O61      O        0.37099    0.13927    0.94681    1.000
    O62      O        0.00450    0.27314    0.46939    1.000
    O63      O        0.30931    0.16089    0.81213    1.000
    O64      O        0.45223    0.15134    0.62142    1.000
    O65      O        0.44611    0.17378    0.72637    1.000
    O66      O        0.55525    0.53244    0.59801    1.000
    O67      O        0.54773    0.40700    0.56715    1.000
    O68      O        0.02724    0.32370    0.25939    1.000
    O69      O        0.07285    0.35579    0.35651    1.000
    O70      O        0.40623    0.29885    0.43656    1.000
    O71      O        0.27511    0.26878    0.45313    1.000
    O72      O        0.18954    0.12757    0.38756    1.000
    O73      O        0.16640    0.99892    0.35781    1.000
    O74      O        0.03036    0.18685    0.57337    1.000
    O75      O        0.15000    0.21168    0.52889    1.000
    O76      O        0.42789    0.80035    0.81618    1.000
    O77      O        0.93055    0.69136    0.95771    1.000
    O78      O        0.33278    0.61970    0.97222    1.000
    O79      O        0.84662    0.64545    0.82695    1.000
    O80      O        0.79870    0.67090    0.93613    1.000
    O81      O        0.03948    0.72571    0.34194    1.000
    O82      O        0.01099    0.78481    0.84523    1.000
    O83      O        0.04158    0.85027    0.98318    1.000
    O84      O        0.17553    0.78621    0.06024    1.000
    O85      O        0.04115    0.69280    0.16053    1.000
    O86      O        0.12901    0.86073    0.44681    1.000
    O87      O        0.49550    0.72686    0.96939    1.000
    O88      O        0.19069    0.83911    0.31213    1.000
    O89      O        0.04777    0.84866    0.12142    1.000
    O90      O        0.05389    0.82622    0.22637    1.000
    O91      O        0.94475    0.46756    0.09801    1.000
    O92      O        0.95227    0.59300    0.06715    1.000
    O93      O        0.47276    0.67630    0.75939    1.000
    O94      O        0.42715    0.64421    0.85651    1.000
    O95      O        0.09377    0.70115    0.93656    1.000
    O96      O        0.22489    0.73122    0.95313    1.000
    O97      O        0.31046    0.87243    0.88756    1.000
    O98      O        0.33360    0.00108    0.85781    1.000
    O99      O        0.46964    0.81315    0.07337    1.000
    O100     O        0.35000    0.78832    0.02889    1.000
