data_functionalizedCrystal
_audit_creation_method	'EQeq! by Chris Wilmer'
_symmetry_space_group_name_H-M	'P1'
_symmetry_Int_Tables_number	1
_symmetry_cell_setting	triclinic
loop_
_symmetry_equiv_pos_as_xyz
  x,y,z
_cell_length_a	14.4802
_cell_length_b	14.4802
_cell_length_c	8.7884
_cell_angle_alpha	90
_cell_angle_beta	90
_cell_angle_gamma	120
loop_
_atom_site_label
_atom_site_type_symbol
_atom_site_fract_x
_atom_site_fract_y
_atom_site_fract_z
_atom_site_charge
Mof_Ag	Ag	0.89594	0.59922	0.10093	0.567
Mof_C 	C 	0.911	0.5306	0.7839	0.343
Mof_C 	C 	0.9569	0.5152	0.6361	-0.137
Mof_C 	C 	0.9923	0.5932	0.522	0.033
Mof_C 	C 	0.9825	0.6863	0.5352	-0.094
Mof_H 	H 	0.9553	0.6976	0.6246	0.056
Mof_C 	C 	0.0116	0.7579	0.4219	-0.038
Mof_H 	H 	0.0029	0.8169	0.4332	0.021
Mof_C 	C 	0.0557	0.7442	0.2846	-0.057
Mof_H 	H 	0.0762	0.7946	0.2073	0.008
Mof_C 	C 	0.0679	0.6569	0.2661	-0.134
Mof_H 	H 	0.0974	0.649	0.1764	0.05
Mof_C 	C 	0.9641	0.4223	0.617	0.029
Mof_C 	C 	0.5646	0.3187	0.3607	0.012
Mof_H 	H 	0.5064	0.2516	0.3979	0.006
Mof_H 	H 	0.5539	0.3756	0.3982	0.012
Mof_C 	C 	0.6526	0.4213	0.1381	0.008
Mof_H 	H 	0.6525	0.4224	0.0277	0.017
Mof_H 	H 	0.643	0.4793	0.174	0.018
Mof_N 	N 	0.5628	0.3186	0.1923	-0.157
Mof_O 	O 	0.8133	0.4748	0.809	-0.377
Mof_O 	O 	0.9766	0.6008	0.8733	-0.364
Mof_Ag	Ag	0.40078	0.29672	0.10093	0.57
Mof_C 	C 	0.4694	0.3804	0.7839	0.342
Mof_C 	C 	0.4848	0.4417	0.6361	-0.139
Mof_C 	C 	0.4068	0.3991	0.522	0.033
Mof_C 	C 	0.3137	0.2962	0.5352	-0.095
Mof_H 	H 	0.3024	0.2577	0.6246	0.055
Mof_C 	C 	0.2421	0.2537	0.4219	-0.039
Mof_H 	H 	0.1831	0.186	0.4332	0.02
Mof_C 	C 	0.2558	0.3115	0.2846	-0.059
Mof_H 	H 	0.2054	0.2816	0.2073	0.006
Mof_C 	C 	0.3431	0.411	0.2661	-0.135
Mof_H 	H 	0.351	0.4484	0.1764	0.049
Mof_C 	C 	0.5777	0.5418	0.617	0.029
Mof_C 	C 	0.6813	0.2459	0.3607	0.012
Mof_H 	H 	0.7484	0.2548	0.3979	0.006
Mof_H 	H 	0.6244	0.1783	0.3982	0.011
Mof_C 	C 	0.5787	0.2313	0.1381	0.009
Mof_H 	H 	0.5776	0.2301	0.0277	0.016
Mof_H 	H 	0.5207	0.1637	0.174	0.018
Mof_N 	N 	0.6814	0.2442	0.1923	-0.157
Mof_O 	O 	0.5252	0.3385	0.809	-0.378
Mof_O 	O 	0.3992	0.3758	0.8733	-0.366
Mof_Ag	Ag	0.70328	0.10406	0.10093	0.562
Mof_C 	C 	0.6196	0.089	0.7839	0.341
Mof_C 	C 	0.5583	0.0431	0.6361	-0.138
Mof_C 	C 	0.6009	0.0077	0.522	0.032
Mof_C 	C 	0.7038	0.0175	0.5352	-0.096
Mof_H 	H 	0.7423	0.0447	0.6246	0.055
Mof_C 	C 	0.7463	0.9884	0.4219	-0.039
Mof_H 	H 	0.814	0.9971	0.4332	0.02
Mof_C 	C 	0.6885	0.9443	0.2846	-0.058
Mof_H 	H 	0.7184	0.9238	0.2073	0.006
Mof_C 	C 	0.589	0.9321	0.2661	-0.134
Mof_H 	H 	0.5516	0.9026	0.1764	0.05
Mof_C 	C 	0.4582	0.0359	0.617	0.029
Mof_C 	C 	0.7541	0.4354	0.3607	0.012
Mof_H 	H 	0.7452	0.4936	0.3979	0.006
Mof_H 	H 	0.8217	0.4461	0.3982	0.011
Mof_C 	C 	0.7687	0.3474	0.1381	0.009
Mof_H 	H 	0.7699	0.3475	0.0277	0.016
Mof_H 	H 	0.8363	0.357	0.174	0.017
Mof_N 	N 	0.7558	0.4372	0.1923	-0.157
Mof_O 	O 	0.6615	0.1867	0.809	-0.377
Mof_O 	O 	0.6242	0.0234	0.8733	-0.363
Mof_Ag	Ag	0.10406	0.40078	0.89907	0.566
Mof_C 	C 	0.089	0.4694	0.2161	0.342
Mof_C 	C 	0.0431	0.4848	0.3639	-0.138
Mof_C 	C 	0.0077	0.4068	0.478	0.032
Mof_C 	C 	0.0175	0.3137	0.4648	-0.095
Mof_H 	H 	0.0447	0.3024	0.3754	0.055
Mof_C 	C 	0.9884	0.2421	0.5781	-0.039
Mof_H 	H 	0.9971	0.1831	0.5668	0.02
Mof_C 	C 	0.9443	0.2558	0.7154	-0.058
Mof_H 	H 	0.9238	0.2054	0.7927	0.007
Mof_C 	C 	0.9321	0.3431	0.7339	-0.134
Mof_H 	H 	0.9026	0.351	0.8236	0.05
Mof_C 	C 	0.0359	0.5777	0.383	0.029
Mof_C 	C 	0.4354	0.6813	0.6393	0.012
Mof_H 	H 	0.4936	0.7484	0.6021	0.006
Mof_H 	H 	0.4461	0.6244	0.6018	0.012
Mof_C 	C 	0.3474	0.5787	0.8619	0.008
Mof_H 	H 	0.3475	0.5776	0.9723	0.017
Mof_H 	H 	0.357	0.5207	0.826	0.018
Mof_N 	N 	0.4372	0.6814	0.8077	-0.157
Mof_O 	O 	0.1867	0.5252	0.191	-0.377
Mof_O 	O 	0.0234	0.3992	0.1267	-0.364
Mof_Ag	Ag	0.59922	0.70328	0.89907	0.57
Mof_C 	C 	0.5306	0.6196	0.2161	0.342
Mof_C 	C 	0.5152	0.5583	0.3639	-0.139
Mof_C 	C 	0.5932	0.6009	0.478	0.033
Mof_C 	C 	0.6863	0.7038	0.4648	-0.095
Mof_H 	H 	0.6976	0.7423	0.3754	0.055
Mof_C 	C 	0.7579	0.7463	0.5781	-0.039
Mof_H 	H 	0.8169	0.814	0.5668	0.02
Mof_C 	C 	0.7442	0.6885	0.7154	-0.059
Mof_H 	H 	0.7946	0.7184	0.7927	0.006
Mof_C 	C 	0.6569	0.589	0.7339	-0.135
Mof_H 	H 	0.649	0.5516	0.8236	0.049
Mof_C 	C 	0.4223	0.4582	0.383	0.029
Mof_C 	C 	0.3187	0.7541	0.6393	0.012
Mof_H 	H 	0.2516	0.7452	0.6021	0.006
Mof_H 	H 	0.3756	0.8217	0.6018	0.011
Mof_C 	C 	0.4213	0.7687	0.8619	0.009
Mof_H 	H 	0.4224	0.7699	0.9723	0.016
Mof_H 	H 	0.4793	0.8363	0.826	0.018
Mof_N 	N 	0.3186	0.7558	0.8077	-0.157
Mof_O 	O 	0.4748	0.6615	0.191	-0.378
Mof_O 	O 	0.6008	0.6242	0.1267	-0.366
Mof_Ag	Ag	0.29672	0.89594	0.89907	0.562
Mof_C 	C 	0.3804	0.911	0.2161	0.341
Mof_C 	C 	0.4417	0.9569	0.3639	-0.138
Mof_C 	C 	0.3991	0.9923	0.478	0.032
Mof_C 	C 	0.2962	0.9825	0.4648	-0.096
Mof_H 	H 	0.2577	0.9553	0.3754	0.055
Mof_C 	C 	0.2537	0.0116	0.5781	-0.039
Mof_H 	H 	0.186	0.0029	0.5668	0.02
Mof_C 	C 	0.3115	0.0557	0.7154	-0.058
Mof_H 	H 	0.2816	0.0762	0.7927	0.006
Mof_C 	C 	0.411	0.0679	0.7339	-0.134
Mof_H 	H 	0.4484	0.0974	0.8236	0.05
Mof_C 	C 	0.5418	0.9641	0.383	0.029
Mof_C 	C 	0.2459	0.5646	0.6393	0.012
Mof_H 	H 	0.2548	0.5064	0.6021	0.006
Mof_H 	H 	0.1783	0.5539	0.6018	0.011
Mof_C 	C 	0.2313	0.6526	0.8619	0.009
Mof_H 	H 	0.2301	0.6525	0.9723	0.016
Mof_H 	H 	0.1637	0.643	0.826	0.017
Mof_N 	N 	0.2442	0.5628	0.8077	-0.157
Mof_O 	O 	0.3385	0.8133	0.191	-0.377
Mof_O 	O 	0.3758	0.9766	0.1267	-0.363
Mof_Ag	Ag	0.66667	0.33333	0.68141	0.743
Mof_N 	N 	0.66667	0.33333	0.4206	-0.172
Mof_Ag	Ag	0.33333	0.66667	0.31859	0.743
Mof_N 	N 	0.33333	0.66667	0.5794	-0.172
_end
