data_functionalizedCrystal
_audit_creation_method	'EQeq! by Chris Wilmer'
_symmetry_space_group_name_H-M	'P1'
_symmetry_Int_Tables_number	1
_symmetry_cell_setting	triclinic
loop_
_symmetry_equiv_pos_as_xyz
  x,y,z
_cell_length_a	9.481
_cell_length_b	15.126
_cell_length_c	15.232
_cell_angle_alpha	64.815
_cell_angle_beta	78.717
_cell_angle_gamma	78.977
loop_
_atom_site_label
_atom_site_type_symbol
_atom_site_fract_x
_atom_site_fract_y
_atom_site_fract_z
_atom_site_charge
Mof_Co	Co	0.08969	0.39744	0.00843	1.157
Mof_Co	Co	0.59289	0.00726	0.39888	1.162
Mof_Co	Co	0.80015	0.4211	0.18581	1.132
Mof_Co	Co	0.298	0.18547	0.41906	1.129
Mof_Co	Co	0.24375	0.09128	0.9075	1.063
Mof_S 	S 	0.9595	0.4336	0.80013	0.511
Mof_S 	S 	0.4641	0.7977	0.43538	0.519
Mof_O 	O 	0.0882	0.2585	0.0056	-0.437
Mof_O 	O 	0.0337	0.1534	0.9534	-0.472
Mof_O 	O 	0.0335	0.3659	0.7571	-0.274
Mof_O 	O 	0.0551	0.4547	0.8526	-0.494
Mof_O 	O 	0.8896	0.5217	0.7322	-0.292
Mof_O 	O 	0.3886	0.4849	0.8544	-0.45
Mof_O 	O 	0.3137	0.3573	0.9878	-0.429
Mof_O 	O 	0.5459	0.9537	0.1539	-0.454
Mof_O 	O 	0.5948	0.0037	0.2621	-0.436
Mof_O 	O 	0.5567	0.8529	0.4565	-0.498
Mof_O 	O 	0.5414	0.7554	0.3679	-0.277
Mof_O 	O 	0.3928	0.7286	0.5225	-0.291
Mof_O 	O 	0.8927	0.854	0.4875	-0.446
Mof_O 	O 	0.8181	0.9876	0.3594	-0.428
Mof_O 	O 	0.8775	0.4541	0.0408	-0.692
Mof_H 	H 	0.8092	0.445	0.0055	0.176
Mof_O 	O 	0.3777	0.0396	0.4536	-0.691
Mof_H 	H 	0.3108	0.0028	0.445	0.175
Mof_N 	N 	0.1084	0.3319	0.1568	-0.213
Mof_N 	N 	0.9868	0.327	0.2245	-0.225
Mof_N 	N 	0.1729	0.2391	0.3041	-0.256
Mof_N 	N 	0.4887	0.2238	0.3262	-0.222
Mof_N 	N 	0.6068	0.1559	0.3321	-0.211
Mof_N 	N 	0.6752	0.3055	0.2388	-0.254
Mof_C 	C 	0.0314	0.2717	0.3097	0.109
Mof_H 	H 	0.9703	0.2566	0.3686	-0.016
Mof_C 	C 	0.2153	0.278	0.2073	0.11
Mof_H 	H 	0.3099	0.2681	0.1789	-0.018
Mof_C 	C 	0.7163	0.2075	0.279	0.103
Mof_H 	H 	0.8111	0.1789	0.2707	-0.014
Mof_C 	C 	0.5315	0.3106	0.2709	0.106
Mof_H 	H 	0.4697	0.3694	0.2555	-0.016
Mof_C 	C 	0.8536	0.279	0.9644	-0.102
Mof_C 	C 	0.8221	0.3703	0.8906	-0.084
Mof_C 	C 	0.6787	0.4122	0.8776	0.007
Mof_H 	H 	0.6589	0.4723	0.8258	0.047
Mof_C 	C 	0.5657	0.3632	0.9429	-0.093
Mof_C 	C 	0.5961	0.2727	0.0194	-0.026
Mof_H 	H 	0.5213	0.2402	0.0638	0.043
Mof_C 	C 	0.7384	0.2316	0.0289	-0.02
Mof_H 	H 	0.7581	0.1707	0.0796	0.022
Mof_C 	C 	0.0033	0.226	0.9735	0.377
Mof_C 	C 	0.4098	0.4066	0.9265	0.369
Mof_C 	C 	0.3591	0.9606	0.2793	-0.078
Mof_C 	C 	0.3255	0.8873	0.3726	-0.095
Mof_C 	C 	0.1816	0.8778	0.4132	0.019
Mof_H 	H 	0.1603	0.8277	0.4742	0.042
Mof_C 	C 	0.0695	0.9413	0.3647	-0.103
Mof_C 	C 	0.1016	0.0159	0.274	-0.015
Mof_H 	H 	0.0274	0.0595	0.2407	0.037
Mof_C 	C 	0.2455	0.0251	0.233	-0.04
Mof_H 	H 	0.2661	0.0763	0.1725	0.028
Mof_C 	C 	0.5123	0.9738	0.2293	0.353
Mof_C 	C 	0.9143	0.9264	0.4079	0.365
Mof_Co	Co	0.91031	0.60256	0.99157	1.158
Mof_Co	Co	0.40711	0.99274	0.60112	1.163
Mof_Co	Co	0.19985	0.5789	0.81419	1.132
Mof_Co	Co	0.702	0.81453	0.58094	1.129
Mof_Co	Co	0.75625	0.90872	0.0925	1.063
Mof_S 	S 	0.0405	0.5664	0.19987	0.511
Mof_S 	S 	0.5359	0.2023	0.56462	0.519
Mof_O 	O 	0.9118	0.7415	0.9944	-0.437
Mof_O 	O 	0.9663	0.8466	0.0466	-0.472
Mof_O 	O 	0.9665	0.6341	0.2429	-0.274
Mof_O 	O 	0.9449	0.5453	0.1474	-0.494
Mof_O 	O 	0.1104	0.4783	0.2678	-0.292
Mof_O 	O 	0.6114	0.5151	0.1456	-0.45
Mof_O 	O 	0.6863	0.6427	0.0122	-0.429
Mof_O 	O 	0.4541	0.0463	0.8461	-0.454
Mof_O 	O 	0.4052	0.9963	0.7379	-0.436
Mof_O 	O 	0.4433	0.1471	0.5435	-0.498
Mof_O 	O 	0.4586	0.2446	0.6321	-0.277
Mof_O 	O 	0.6072	0.2714	0.4775	-0.291
Mof_O 	O 	0.1073	0.146	0.5125	-0.446
Mof_O 	O 	0.1819	0.0124	0.6406	-0.428
Mof_O 	O 	0.1225	0.5459	0.9592	-0.692
Mof_H 	H 	0.1908	0.555	0.9945	0.176
Mof_O 	O 	0.6223	0.9604	0.5464	-0.691
Mof_H 	H 	0.6892	0.9972	0.555	0.175
Mof_N 	N 	0.8916	0.6681	0.8432	-0.213
Mof_N 	N 	0.0132	0.673	0.7755	-0.225
Mof_N 	N 	0.8271	0.7609	0.6959	-0.256
Mof_N 	N 	0.5113	0.7762	0.6738	-0.222
Mof_N 	N 	0.3932	0.8441	0.6679	-0.211
Mof_N 	N 	0.3248	0.6945	0.7612	-0.254
Mof_C 	C 	0.9686	0.7283	0.6903	0.109
Mof_H 	H 	0.0297	0.7434	0.6314	-0.016
Mof_C 	C 	0.7847	0.722	0.7927	0.11
Mof_H 	H 	0.6901	0.7319	0.8211	-0.018
Mof_C 	C 	0.2837	0.7925	0.721	0.103
Mof_H 	H 	0.1889	0.8211	0.7293	-0.014
Mof_C 	C 	0.4685	0.6894	0.7291	0.106
Mof_H 	H 	0.5303	0.6306	0.7445	-0.016
Mof_C 	C 	0.1464	0.721	0.0356	-0.102
Mof_C 	C 	0.1779	0.6297	0.1094	-0.084
Mof_C 	C 	0.3213	0.5878	0.1224	0.007
Mof_H 	H 	0.3411	0.5277	0.1742	0.047
Mof_C 	C 	0.4343	0.6368	0.0571	-0.093
Mof_C 	C 	0.4039	0.7273	0.9806	-0.026
Mof_H 	H 	0.4787	0.7598	0.9362	0.043
Mof_C 	C 	0.2616	0.7684	0.9711	-0.02
Mof_H 	H 	0.2419	0.8293	0.9204	0.022
Mof_C 	C 	0.9967	0.774	0.0265	0.377
Mof_C 	C 	0.5902	0.5934	0.0735	0.369
Mof_C 	C 	0.6409	0.0394	0.7207	-0.078
Mof_C 	C 	0.6745	0.1127	0.6274	-0.095
Mof_C 	C 	0.8184	0.1222	0.5868	0.019
Mof_H 	H 	0.8397	0.1723	0.5258	0.042
Mof_C 	C 	0.9305	0.0587	0.6353	-0.103
Mof_C 	C 	0.8984	0.9841	0.726	-0.015
Mof_H 	H 	0.9726	0.9405	0.7593	0.037
Mof_C 	C 	0.7545	0.9749	0.767	-0.04
Mof_H 	H 	0.7339	0.9237	0.8275	0.028
Mof_C 	C 	0.4877	0.0262	0.7707	0.353
Mof_C 	C 	0.0857	0.0736	0.5921	0.365
_end
