data_functionalizedCrystal
_audit_creation_method	'EQeq! by Chris Wilmer'
_symmetry_space_group_name_H-M	'P1'
_symmetry_Int_Tables_number	1
_symmetry_cell_setting	triclinic
loop_
_symmetry_equiv_pos_as_xyz
  x,y,z
_cell_length_a	9.5161
_cell_length_b	30.1575
_cell_length_c	45.9367
_cell_angle_alpha	90
_cell_angle_beta	90
_cell_angle_gamma	90
loop_
_atom_site_label
_atom_site_type_symbol
_atom_site_fract_x
_atom_site_fract_y
_atom_site_fract_z
_atom_site_charge
Mof_Zn	Zn	0.99646	0.17173	0.73679	1.168
Mof_Zn	Zn	0.15798	0.68311	0.18749	1.17
Mof_Zn	Zn	0.08772	0.23741	0.42481	1.167
Mof_Zn	Zn	0.58772	0.26259	0.57519	1.168
Mof_Zn	Zn	0.66414	0.00355	0.85796	1.168
Mof_Zn	Zn	0.65175	0.28162	0.02992	1.174
Mof_Zn	Zn	0.42792	0.86846	0.69598	1.17
Mof_Zn	Zn	0.41228	0.76259	0.92481	1.169
Mof_Zn	Zn	0.65511	0.47074	0.06723	1.17
Mof_Zn	Zn	0.08599	0.35769	0.52476	1.169
Mof_Zn	Zn	0.91401	0.85769	0.97524	1.169
Mof_Zn	Zn	0.92962	0.77058	0.65271	1.171
Mof_Zn	Zn	0.15175	0.21838	0.97008	1.175
Mof_Zn	Zn	0.50354	0.82827	0.23679	1.17
Mof_Zn	Zn	0.49855	0.0544	0.73536	1.17
Mof_Zn	Zn	0.92792	0.63154	0.30402	1.17
Mof_Zn	Zn	0.42962	0.72942	0.34729	1.171
Mof_Zn	Zn	0.57038	0.22942	0.15271	1.171
Mof_Zn	Zn	0.49646	0.32827	0.26321	1.17
Mof_Zn	Zn	0.50145	0.5544	0.76464	1.17
Mof_Zn	Zn	0.34202	0.31689	0.68749	1.171
Mof_Zn	Zn	0.41401	0.64231	0.02476	1.169
Mof_Zn	Zn	0.00145	0.9456	0.23536	1.169
Mof_Zn	Zn	0.84825	0.71838	0.52992	1.175
Mof_Zn	Zn	0.07208	0.13154	0.19598	1.17
Mof_Zn	Zn	0.58599	0.14231	0.47524	1.169
Mof_Zn	Zn	0.84489	0.52926	0.56723	1.17
Mof_Zn	Zn	0.57208	0.36846	0.80402	1.17
Mof_Zn	Zn	0.15511	0.02926	0.93277	1.17
Mof_Zn	Zn	0.33586	0.50355	0.64204	1.169
Mof_Zn	Zn	0.00354	0.67173	0.76321	1.169
Mof_Zn	Zn	0.99855	0.4456	0.26464	1.169
Mof_Zn	Zn	0.34825	0.78162	0.47008	1.175
Mof_Zn	Zn	0.83586	0.99645	0.35796	1.169
Mof_Zn	Zn	0.84202	0.18311	0.31251	1.171
Mof_Zn	Zn	0.91228	0.73741	0.07519	1.168
Mof_Zn	Zn	0.07038	0.27058	0.84729	1.171
Mof_Zn	Zn	0.34489	0.97074	0.43277	1.17
Mof_Zn	Zn	0.65798	0.81689	0.81251	1.171
Mof_Zn	Zn	0.16414	0.49645	0.14204	1.169
Mof_H 	H 	0.8947	0.6304	0.5675	-0.073
Mof_H 	H 	0.6612	0.2406	0.9612	0.008
Mof_H 	H 	0.0701	0.6861	0.1218	-0.055
Mof_H 	H 	0.7861	0.2213	0.4572	-0.058
Mof_H 	H 	0.2361	0.6679	0.3102	-0.066
Mof_H 	H 	0.9012	0.0794	0.3175	-0.061
Mof_H 	H 	0.9689	0.5914	0.8087	-0.005
Mof_H 	H 	0.0606	0.5546	0.3451	-0.004
Mof_H 	H 	0.1905	0.7962	0.9716	-0.062
Mof_H 	H 	0.5337	0.2509	0.219	-0.055
Mof_H 	H 	0.2722	0.9613	0.1926	-0.001
Mof_H 	H 	0.9386	0.5484	0.2645	-0.068
Mof_H 	H 	0.9195	0.6924	0.3615	-0.004
Mof_H 	H 	0.9954	0.8267	0.8031	-0.004
Mof_H 	H 	0.9408	0.2872	0.0608	-0.007
Mof_H 	H 	0.4012	0.4206	0.6825	-0.061
Mof_H 	H 	0.6905	0.7038	0.0284	-0.062
Mof_H 	H 	0.1368	0.8034	0.6025	0.004
Mof_H 	H 	0.8737	0.8501	0.8609	-0.006
Mof_H 	H 	0.4925	0.1075	0.54	-0.004
Mof_H 	H 	0.2532	0.6812	0.8123	-0.004
Mof_H 	H 	0.4689	0.9086	0.1913	-0.005
Mof_H 	H 	0.5614	0.4516	0.7645	-0.068
Mof_H 	H 	0.891	0.4516	0.1117	-0.068
Mof_H 	H 	0.1441	0.7341	0.5125	-0.081
Mof_H 	H 	0.7139	0.7787	0.9572	-0.058
Mof_H 	H 	0.3485	0.0325	0.8383	0.007
Mof_H 	H 	0.5059	0.3785	0.1999	-0.003
Mof_H 	H 	0.7921	0.4439	0.2127	-0.012
Mof_H 	H 	0.6515	0.5325	0.6617	0.007
Mof_H 	H 	0.6441	0.7659	0.4875	-0.081
Mof_H 	H 	0.9663	0.7491	0.719	-0.054
Mof_H 	H 	0.6361	0.9969	0.4095	-0.057
Mof_H 	H 	0.0619	0.5242	0.5148	-0.006
Mof_H 	H 	0.0682	0.1323	0.4321	-0.001
Mof_H 	H 	0.9394	0.0546	0.1549	-0.004
Mof_H 	H 	0.4653	0.6227	0.3562	0.002
Mof_H 	H 	0.3947	0.8696	0.4325	-0.073
Mof_H 	H 	0.8632	0.3034	0.8975	0.004
Mof_H 	H 	0.2278	0.0387	0.6926	-0.001
Mof_H 	H 	0.9381	0.0242	0.9852	-0.006
Mof_H 	H 	0.7468	0.1812	0.6877	-0.004
Mof_H 	H 	0.6053	0.3696	0.0675	-0.073
Mof_H 	H 	0.9318	0.6323	0.0679	-0.001
Mof_H 	H 	0.0833	0.5746	0.6612	-0.002
Mof_H 	H 	0.3639	0.4969	0.0905	-0.057
Mof_H 	H 	0.1612	0.2594	0.0388	0.008
Mof_H 	H 	0.0059	0.1215	0.8001	-0.003
Mof_H 	H 	0.9274	0.0636	0.4053	-0.001
Mof_H 	H 	0.8485	0.4675	0.1617	0.007
Mof_H 	H 	0.5075	0.6075	0.96	-0.004
Mof_H 	H 	0.6245	0.2248	0.5139	-0.065
Mof_H 	H 	0.0427	0.3682	0.3126	0.002
Mof_H 	H 	0.0988	0.5794	0.1825	-0.061
Mof_H 	H 	0.2921	0.0561	0.7873	-0.011
Mof_H 	H 	0.0075	0.8925	0.04	-0.003
Mof_H 	H 	0.1053	0.1304	0.9325	-0.073
Mof_H 	H 	0.3782	0.9461	0.9398	-0.001
Mof_H 	H 	0.5967	0.5753	0.0594	-0.051
Mof_H 	H 	0.3725	0.7012	0.8654	-0.006
Mof_H 	H 	0.6368	0.6966	0.3975	0.004
Mof_H 	H 	0.4318	0.8677	0.9321	0.001
Mof_H 	H 	0.3233	0.5447	0.9983	-0.004
Mof_H 	H 	0.9033	0.4247	0.5594	-0.051
Mof_H 	H 	0.8744	0.9256	0.8813	-0.003
Mof_H 	H 	0.9	0.2844	0.9489	-0.006
Mof_H 	H 	0.6254	0.4151	0.1299	-0.004
Mof_H 	H 	0.391	0.0484	0.8883	-0.069
Mof_H 	H 	0.7329	0.665	0.2495	-0.003
Mof_H 	H 	0.8595	0.2662	0.7174	-0.002
Mof_H 	H 	0.6	0.7156	0.4489	-0.006
Mof_H 	H 	0.1256	0.4256	0.6187	-0.003
Mof_H 	H 	0.4274	0.4364	0.5947	-0
Mof_H 	H 	0.7181	0.8992	0.2549	-0.064
Mof_H 	H 	0.609	0.5484	0.6117	-0.069
Mof_H 	H 	0.5311	0.4086	0.3087	-0.005
Mof_H 	H 	0.9706	0.663	0.6543	-0.004
Mof_H 	H 	0.2861	0.2787	0.5428	-0.058
Mof_H 	H 	0.0726	0.5636	0.0947	-0.001
Mof_H 	H 	0.3737	0.2662	0.8796	-0.009
Mof_H 	H 	0.1626	0.2119	0.9015	-0.058
Mof_H 	H 	0.9167	0.0746	0.8388	-0.002
Mof_H 	H 	0.7532	0.8188	0.1877	-0.004
Mof_H 	H 	0.6405	0.7338	0.2174	-0.002
Mof_H 	H 	0.4	0.2156	0.0511	-0.006
Mof_H 	H 	0.5701	0.8139	0.8782	-0.054
Mof_H 	H 	0.2075	0.8579	0.505	-0.015
Mof_H 	H 	0.4167	0.4254	0.1612	-0.003
Mof_H 	H 	0.8949	0.9791	0.1732	-0.007
Mof_H 	H 	0.2076	0.8697	0.2509	-0.067
Mof_H 	H 	0.8737	0.2338	0.1204	-0.008
Mof_H 	H 	0.3559	0.2659	0.0125	-0.081
Mof_H 	H 	0.8559	0.2341	0.9875	-0.081
Mof_H 	H 	0.8755	0.7752	0.0139	-0.065
Mof_H 	H 	0.8388	0.7594	0.4612	0.008
Mof_H 	H 	0.4706	0.837	0.3457	-0.004
Mof_H 	H 	0.0205	0.2759	0.3185	0.001
Mof_H 	H 	0.7639	0.1679	0.1898	-0.066
Mof_H 	H 	0.3632	0.1966	0.1025	0.004
Mof_H 	H 	0.5606	0.9454	0.6549	-0.004
Mof_H 	H 	0.3628	0.4069	0.5468	-0.005
Mof_H 	H 	0.6403	0.8526	0.7475	-0.065
Mof_H 	H 	0.1051	0.4791	0.3268	-0.007
Mof_H 	H 	0.4033	0.0753	0.4406	-0.051
Mof_H 	H 	0.0592	0.7872	0.4392	-0.007
Mof_H 	H 	0.1	0.7844	0.5511	-0.006
Mof_H 	H 	0.5833	0.9254	0.3388	-0.003
Mof_H 	H 	0.1515	0.9675	0.3383	0.007
Mof_H 	H 	0.2034	0.7946	0.6893	-0.06
Mof_H 	H 	0.6263	0.1499	0.3609	-0.006
Mof_H 	H 	0.7075	0.6421	0.495	-0.015
Mof_H 	H 	0.7076	0.6303	0.7491	-0.067
Mof_H 	H 	0.7966	0.2946	0.8107	-0.06
Mof_H 	H 	0.4941	0.8785	0.3001	-0.003
Mof_H 	H 	0.8095	0.2962	0.5284	-0.062
Mof_H 	H 	0.5382	0.1555	0.4077	-0.005
Mof_H 	H 	0.1653	0.9346	0.4865	-0.001
Mof_H 	H 	0.4299	0.3139	0.6218	-0.054
Mof_H 	H 	0.1275	0.2988	0.3654	-0.007
Mof_H 	H 	0.3361	0.1949	0.386	-0.001
Mof_H 	H 	0.3283	0.8163	0.7978	0
Mof_H 	H 	0.9795	0.7759	0.1815	0.001
Mof_H 	H 	0.3737	0.6499	0.1391	-0.006
Mof_H 	H 	0.7671	0.335	0.7495	-0.003
Mof_H 	H 	0.7484	0.7251	0.7876	-0.062
Mof_H 	H 	0.8782	0.5539	0.0602	-0
Mof_H 	H 	0.9618	0.8445	0.9077	-0.006
Mof_H 	H 	0.109	0.9516	0.3883	-0.068
Mof_H 	H 	0.5294	0.337	0.1543	-0.004
Mof_H 	H 	0.4618	0.6555	0.0923	-0.005
Mof_H 	H 	0.6767	0.0447	0.5017	-0.004
Mof_H 	H 	0.0347	0.3773	0.8562	0.001
Mof_H 	H 	0.6218	0.4461	0.5602	-0.001
Mof_H 	H 	0.9925	0.3925	0.46	-0.003
Mof_H 	H 	0.3067	0.5251	0.7108	-0.067
Mof_H 	H 	0.9653	0.8773	0.6438	0.001
Mof_H 	H 	0.3949	0.5209	0.8268	-0.007
Mof_H 	H 	0.6639	0.6949	0.114	-0.001
Mof_H 	H 	0.0311	0.0914	0.6913	-0.005
Mof_H 	H 	0.3295	0.0825	0.1613	-0.006
Mof_H 	H 	0.6933	0.0251	0.7892	-0.067
Mof_H 	H 	0.3595	0.2338	0.2826	-0.002
Mof_H 	H 	0.3388	0.7406	0.5388	0.008
Mof_H 	H 	0.6275	0.2012	0.6346	-0.006
Mof_H 	H 	0.3374	0.7881	0.4015	-0.058
Mof_H 	H 	0.1263	0.3501	0.6391	-0.006
Mof_H 	H 	0.3597	0.3526	0.7525	-0.065
Mof_H 	H 	0.8725	0.7988	0.1346	-0.007
Mof_H 	H 	0.2924	0.1303	0.7509	-0.067
Mof_H 	H 	0.5619	0.9758	0.4852	-0.007
Mof_H 	H 	0.0614	0.0484	0.2355	-0.068
Mof_H 	H 	0.7925	0.3579	0.995	-0.015
Mof_H 	H 	0.5011	0.1567	0.5829	-0.002
Mof_H 	H 	0.8233	0.9553	0.0017	-0.004
Mof_H 	H 	0.3095	0.2038	0.4716	-0.062
Mof_H 	H 	0.1767	0.4553	0.4983	-0.004
Mof_H 	H 	0.3347	0.0654	0.9865	-0.001
Mof_H 	H 	0.3755	0.7248	0.9861	-0.065
Mof_H 	H 	0.7722	0.5387	0.8074	-0.001
Mof_H 	H 	0.4195	0.8076	0.6385	-0.002
Mof_H 	H 	0.5726	0.9364	0.9053	-0
Mof_H 	H 	0.2925	0.1421	0.005	-0.015
Mof_H 	H 	0.5046	0.1733	0.3031	-0.004
Mof_H 	H 	0.1218	0.0539	0.4398	-0
Mof_H 	H 	0.3744	0.5744	0.1187	-0.003
Mof_H 	H 	0.0046	0.3267	0.6969	-0.004
Mof_H 	H 	0.3746	0.9151	0.3701	-0.004
Mof_H 	H 	0.2516	0.2251	0.7124	-0.062
Mof_H 	H 	0.5347	0.1227	0.1438	0.002
Mof_H 	H 	0.7924	0.3697	0.2491	-0.067
Mof_H 	H 	0.5682	0.3677	0.5679	0.001
Mof_H 	H 	0.2079	0.9439	0.2873	-0.012
Mof_H 	H 	0.2966	0.2054	0.1893	-0.06
Mof_H 	H 	0.6256	0.0744	0.3813	-0.003
Mof_H 	H 	0.2468	0.3188	0.3123	-0.004
Mof_H 	H 	0.8347	0.4346	0.0135	-0.001
Mof_H 	H 	0.9989	0.8433	0.0829	-0.002
Mof_H 	H 	0.1717	0.1837	0.2978	0.001
Mof_H 	H 	0.2139	0.7213	0.0428	-0.058
Mof_H 	H 	0.1639	0.8051	0.886	-0.001
Mof_H 	H 	0.8067	0.9749	0.2892	-0.068
Mof_H 	H 	0.6653	0.5654	0.5135	-0.001
Mof_H 	H 	0.0011	0.3433	0.4171	-0.002
Mof_H 	H 	0.1245	0.2752	0.4861	-0.065
Mof_H 	H 	0.0382	0.3445	0.5923	-0.006
Mof_H 	H 	0.4663	0.7509	0.281	-0.055
Mof_H 	H 	0.8597	0.1474	0.2475	-0.066
Mof_H 	H 	0.0805	0.1924	0.1385	-0.004
Mof_H 	H 	0.0294	0.163	0.8457	-0.004
Mof_H 	H 	0.5427	0.1318	0.6874	0.002
Mof_H 	H 	0.5988	0.9206	0.8175	-0.061
Mof_H 	H 	0.6626	0.2881	0.0985	-0.058
Mof_H 	H 	0.1254	0.0849	0.8701	-0.004
Mof_H 	H 	0.1933	0.4749	0.2108	-0.068
Mof_H 	H 	0.4573	0.6318	0.8126	0.002
Mof_H 	H 	0.2484	0.7749	0.2124	-0.062
Mof_H 	H 	0.2329	0.835	0.7505	-0.003
Mof_H 	H 	0.5205	0.2241	0.6815	0.001
Mof_H 	H 	0.8746	0.5849	0.6299	-0.004
Mof_H 	H 	0.7034	0.7054	0.3107	-0.06
Mof_H 	H 	0.1361	0.5031	0.5905	-0.056
Mof_H 	H 	0.6705	0.5825	0.3387	-0.006
Mof_H 	H 	0.5592	0.7128	0.5608	-0.007
Mof_H 	H 	0.9941	0.6215	0.6999	-0.003
Mof_H 	H 	0.4394	0.4454	0.8451	-0.004
Mof_H 	H 	0.6051	0.0209	0.6732	-0.007
Mof_H 	H 	0.7819	0.1008	0.7549	-0.064
Mof_H 	H 	0.8639	0.0031	0.9095	-0.056
Mof_H 	H 	0.9573	0.8682	0.1874	0.002
Mof_H 	H 	0.8374	0.7119	0.5985	-0.058
Mof_H 	H 	0.2671	0.165	0.2505	-0.003
Mof_H 	H 	0.0337	0.2491	0.781	-0.054
Mof_H 	H 	0.7079	0.5561	0.7127	-0.011
Mof_H 	H 	0.4381	0.4758	0.0148	-0.007
Mof_H 	H 	0.8628	0.0931	0.4532	-0.004
Mof_H 	H 	0.6717	0.3163	0.7022	0
Mof_H 	H 	0.4386	0.9516	0.7355	-0.068
Mof_H 	H 	0.8361	0.3051	0.614	-0.001
Mof_H 	H 	0.4795	0.7241	0.8185	0.001
Mof_H 	H 	0.6372	0.9069	0.9532	-0.005
Mof_H 	H 	0.1263	0.7338	0.3796	-0.008
Mof_H 	H 	0.1403	0.6474	0.2525	-0.066
Mof_H 	H 	0.4989	0.6567	0.9171	-0.002
Mof_H 	H 	0.7361	0.8321	0.6898	-0.066
Mof_H 	H 	0.2181	0.6008	0.7451	-0.064
Mof_H 	H 	0.9299	0.1861	0.3782	-0.055
Mof_H 	H 	0.2819	0.3992	0.2451	-0.064
Mof_H 	H 	0.5805	0.3076	0.8615	-0.003
Mof_H 	H 	0.7516	0.2749	0.2876	-0.062
Mof_H 	H 	0.1405	0.7662	0.7826	-0.002
Mof_H 	H 	0.4954	0.6733	0.1969	-0.004
Mof_H 	H 	0.8283	0.6837	0.2022	0.001
Mof_H 	H 	0.2639	0.3321	0.8102	-0.066
Mof_H 	H 	0.4408	0.2128	0.9392	-0.007
Mof_H 	H 	0.6263	0.7662	0.6204	-0.009
Mof_H 	H 	0.7278	0.4613	0.3074	-0.001
Mof_H 	H 	0.1372	0.5931	0.0468	-0.004
Mof_H 	H 	0.0967	0.9247	0.9406	-0.051
Mof_H 	H 	0.8295	0.4175	0.8387	-0.005
Mof_H 	H 	0.1705	0.9175	0.6613	-0.005
Mof_C 	C 	0.8485	0.387	0.83504	-0.003
Mof_C 	C 	0.0341	0.7118	0.13108	0.081
Mof_C 	C 	0.986	0.0381	0.4066	-0.01
Mof_C 	C 	0.0287	0.1757	0.82679	-0.007
Mof_C 	C 	0.3815	0.8255	0.78137	-0.014
Mof_C 	C 	0.4305	0.4386	0.14267	-0.012
Mof_C 	C 	0.6269	0.8756	0.9515	-0.001
Mof_C 	C 	0.5419	0.9556	0.6741	-0.012
Mof_C 	C 	0.3176	0.5846	0.1344	-0.015
Mof_C 	C 	0.8313	0.3205	0.81994	0.083
Mof_C 	C 	0.5314	0.2779	0.20837	0.071
Mof_C 	C 	0.6177	0.1311	0.70108	-0.019
Mof_C 	C 	0.2716	0.6585	0.79841	0
Mof_C 	C 	0.9865	0.146	0.43993	-0.012
Mof_C 	C 	0.5903	0.2015	0.52589	0.068
Mof_C 	C 	0.9271	0.7729	0.13773	0.001
Mof_C 	C 	0.585	0.5216	0.60203	0.112
Mof_C 	C 	0.0107	0.6921	0.3531	-0.01
Mof_C 	C 	0.5423	0.7351	0.2138	-0.01
Mof_C 	C 	0.2174	0.064	0.7046	-0.011
Mof_C 	C 	0.2559	0.1306	0.9874	0.014
Mof_C 	C 	0.0695	0.2557	0.031	-0.02
Mof_C 	C 	0.0341	0.8298	0.9182	-0.007
Mof_C 	C 	0.4844	0.8473	0.30177	-0.012
Mof_C 	C 	0.5388	0.6349	0.34471	-0.019
Mof_C 	C 	0.3485	0.113	0.16496	-0.003
Mof_C 	C 	0.5973	0.9771	0.39556	0.076
Mof_C 	C 	0.1581	0.8034	0.95261	0.092
Mof_C 	C 	0.8731	0.1244	0.4515	-0.002
Mof_C 	C 	0.6581	0.6966	0.04739	0.092
Mof_C 	C 	0.9352	0.0026	0.1842	-0.002
Mof_C 	C 	0.5487	0.845	0.75406	0.092
Mof_C 	C 	0.5522	0.7301	0.5436	-0.015
Mof_C 	C 	0.6704	0.3361	0.74447	-0.008
Mof_C 	C 	0.8295	0.7434	0.78879	0.08
Mof_C 	C 	0.3296	0.8361	0.75553	-0.008
Mof_C 	C 	0.6672	0.806	0.95366	0.08
Mof_C 	C 	0.6089	0.407	0.2958	-0.003
Mof_C 	C 	0.3419	0.1966	0.45261	0.092
Mof_C 	C 	0.9478	0.2699	0.0436	-0.015
Mof_C 	C 	0.1515	0.887	0.66496	-0.003
Mof_C 	C 	0.976	0.8351	0.06353	-0.012
Mof_C 	C 	0.0903	0.2985	0.47411	0.068
Mof_C 	C 	0.0704	0.7826	0.59528	-0.025
Mof_C 	C 	0.8176	0.9154	0.8656	-0.015
Mof_C 	C 	0.1247	0.715	0.363	-0.002
Mof_C 	C 	0.3158	0.6262	0.14547	-0.005
Mof_C 	C 	0.0729	0.2729	0.36227	0.001
Mof_C 	C 	0.9659	0.3298	0.5818	-0.007
Mof_C 	C 	0.5135	0.854	0.93993	-0.016
Mof_C 	C 	0.7559	0.3694	0.0126	0.014
Mof_C 	C 	0.5729	0.2271	0.63773	0.001
Mof_C 	C 	0.6446	0.6922	0.09379	-0.016
Mof_C 	C 	0.024	0.3351	0.43647	-0.012
Mof_C 	C 	0.4577	0.2351	0.2862	-0.01
Mof_C 	C 	0.7737	0.4128	0.0214	-0.029
Mof_C 	C 	0.4046	0.9666	0.9251	-0.01
Mof_C 	C 	0.085	0.9784	0.39797	0.11
Mof_C 	C 	0.9686	0.7221	0.70837	0.071
Mof_C 	C 	0.1269	0.6244	0.0485	-0.002
Mof_C 	C 	0.3328	0.306	0.54634	0.08
Mof_C 	C 	0.3315	0.4123	0.66872	0.095
Mof_C 	C 	0.3313	0.1795	0.18006	0.083
Mof_C 	C 	0.4893	0.3079	0.8531	-0.013
Mof_C 	C 	0.0872	0.965	0.3225	-0.042
Mof_C 	C 	0.9497	0.2719	0.9329	-0.004
Mof_C 	C 	0.3823	0.6311	0.79892	-0.019
Mof_C 	C 	0.2737	0.0872	0.9786	-0.029
Mof_C 	C 	0.0149	0.2601	0.33634	-0.017
Mof_C 	C 	0.5927	0.2672	0.09292	0.081
Mof_C 	C 	0.5156	0.3473	0.19823	-0.012
Mof_C 	C 	0.4352	0.4974	0.8158	-0.001
Mof_C 	C 	0.0522	0.7699	0.4564	-0.015
Mof_C 	C 	0.7174	0.436	0.2954	-0.011
Mof_C 	C 	0.093	0.7405	0.4952	0.146
Mof_C 	C 	0.7441	0.6306	0.5126	0.014
Mof_C 	C 	0.7525	0.8854	0.23768	0.082
Mof_C 	C 	0.5341	0.6702	0.0818	-0.008
Mof_C 	C 	0.6813	0.8207	0.67417	0.1
Mof_C 	C 	0.8187	0.1793	0.17417	0.1
Mof_C 	C 	0.0135	0.646	0.06007	-0.012
Mof_C 	C 	0.4581	0.4556	0.8259	-0.012
Mof_C 	C 	0.0386	0.2986	0.7029	-0.003
Mof_C 	C 	0.3911	0.907	0.2042	-0.003
Mof_C 	C 	0.5149	0.2399	0.66366	-0.015
Mof_C 	C 	0.1089	0.093	0.7042	-0.002
Mof_C 	C 	0.9851	0.7601	0.16366	-0.017
Mof_C 	C 	0.486	0.4619	0.5934	-0.013
Mof_C 	C 	0.8554	0.3078	0.59379	-0.017
Mof_C 	C 	0.6054	0.0427	0.4873	-0.006
Mof_C 	C 	0.0695	0.5614	0.64267	-0.015
Mof_C 	C 	0.3731	0.3756	0.5485	-0.001
Mof_C 	C 	0.4865	0.354	0.56007	-0.016
Mof_C 	C 	0.9803	0.8622	0.03982	-0.005
Mof_C 	C 	0.8753	0.215	0.137	-0.002
Mof_C 	C 	0.8817	0.4528	0.2058	0.002
Mof_C 	C 	0.7284	0.1585	0.70159	0
Mof_C 	C 	0.9577	0.2649	0.7138	-0.012
Mof_C 	C 	0.6247	0.785	0.637	-0.001
Mof_C 	C 	0.514	0.9619	0.9066	-0.013
Mof_C 	C 	0.3753	0.285	0.863	-0.001
Mof_C 	C 	0.5341	0.7882	0.86892	0.079
Mof_C 	C 	0.5503	0.7281	0.4329	-0.004
Mof_C 	C 	0.4686	0.7779	0.29163	0.071
Mof_C 	C 	0.1685	0.5877	0.16872	0.095
Mof_C 	C 	0.476	0.6649	0.93647	-0.012
Mof_C 	C 	0.9097	0.7985	0.02589	0.068
Mof_C 	C 	0.9614	0.7986	0.7971	-0.003
Mof_C 	C 	0.9305	0.0614	0.85733	-0.015
Mof_C 	C 	0.4305	0.7443	0.531	-0.02
Mof_C 	C 	0.8484	0.6232	0.5498	0.133
Mof_C 	C 	0.9513	0.155	0.25406	0.095
Mof_C 	C 	0.8823	0.8689	0.20108	-0.019
Mof_C 	C 	0.4128	0.035	0.8225	-0.039
Mof_C 	C 	0.9573	0.9953	0.978	-0.006
Mof_C 	C 	0.1183	0.9528	0.2942	0.002
Mof_C 	C 	0.0314	0.2221	0.79163	0.071
Mof_C 	C 	0.0419	0.5444	0.3259	-0.008
Mof_C 	C 	0.4296	0.2174	0.09528	-0.024
Mof_C 	C 	0.1842	0.3738	0.64547	-0.005
Mof_C 	C 	0.4497	0.2281	0.0671	-0.004
Mof_C 	C 	0.9713	0.6757	0.67321	-0.007
Mof_C 	C 	0.9581	0.0444	0.1741	-0.008
Mof_C 	C 	0.3554	0.1922	0.40621	-0.016
Mof_C 	C 	0.7263	0.5872	0.5214	-0.029
Mof_C 	C 	0.8328	0.194	0.45366	0.08
Mof_C 	C 	0.0973	0.5229	0.60444	0.075
Mof_C 	C 	0.5287	0.3243	0.17321	-0.007
Mof_C 	C 	0.6183	0.5472	0.7058	0.002
Mof_C 	C 	0.4271	0.7271	0.86227	0.001
Mof_C 	C 	0.8946	0.9573	0.9873	-0.005
Mof_C 	C 	0.8315	0.0877	0.33128	0.095
Mof_C 	C 	0.6705	0.2566	0.28879	0.08
Mof_C 	C 	0.907	0.2405	0.0048	0.146
Mof_C 	C 	0.954	0.567	0.62547	-0.003
Mof_C 	C 	0.4713	0.8243	0.32679	-0.007
Mof_C 	C 	0.9612	0.3651	0.84471	-0.019
Mof_C 	C 	0.6185	0.3255	0.71863	-0.014
Mof_C 	C 	0.3484	0.8768	0.4502	0.133
Mof_C 	C 	0.4659	0.1702	0.4182	-0.008
Mof_C 	C 	0.9046	0.5334	0.0749	-0.013
Mof_C 	C 	0.454	0.933	0.37453	-0.006
Mof_C 	C 	0.4614	0.7014	0.2029	-0.005
Mof_C 	C 	0.1185	0.1745	0.28137	-0.017
Mof_C 	C 	0.9305	0.7557	0.469	-0.02
Mof_C 	C 	0.1813	0.6793	0.32583	0.1
Mof_C 	C 	0.4478	0.2301	0.9564	-0.015
Mof_C 	C 	0.1687	0.8205	0.68006	0.083
Mof_C 	C 	0.8911	0.593	0.7958	-0.002
Mof_C 	C 	0.4573	0.5047	0.022	-0.005
Mof_C 	C 	0.407	0.2595	0.9952	0.146
Mof_C 	C 	0.477	0.9595	0.71709	0.104
Mof_C 	C 	0.524	0.1649	0.56353	-0.012
Mof_C 	C 	0.2525	0.6146	0.76232	0.082
Mof_C 	C 	0.4851	0.7399	0.83634	-0.015
Mof_C 	C 	0.046	0.067	0.87453	-0.003
Mof_C 	C 	0.6824	0.0846	0.3656	-0.015
Mof_C 	C 	0.6685	0.9123	0.83128	0.095
Mof_C 	C 	0.3817	0.0472	0.7942	0.002
Mof_C 	C 	0.8158	0.8738	0.85453	-0.005
Mof_C 	C 	0.0648	0.5026	0.3158	-0.002
Mof_C 	C 	0.4073	0.7672	0.40708	0.081
Mof_C 	C 	0.0388	0.8651	0.65529	-0.019
Mof_C 	C 	0.0954	0.0334	0.4251	-0.013
Mof_C 	C 	0.5107	0.8079	0.6469	-0.013
Mof_C 	C 	0.9128	0.465	0.1775	-0.042
Mof_C 	C 	0.0927	0.2328	0.90708	0.081
Mof_C 	C 	0.4576	0.0589	0.45421	0.074
Mof_C 	C 	0.9659	0.2118	0.36892	0.081
Mof_C 	C 	0.2284	0.3415	0.29841	0
Mof_C 	C 	0.1177	0.3689	0.29892	-0.019
Mof_C 	C 	0.1672	0.694	0.04634	0.08
Mof_C 	C 	0.546	0.433	0.12547	-0.006
Mof_C 	C 	0.1446	0.8078	0.90621	-0.017
Mof_C 	C 	0.0424	0.9411	0.95421	0.075
Mof_C 	C 	0.9893	0.1921	0.1469	-0.01
Mof_C 	C 	0.3946	0.5427	0.0127	-0.006
Mof_C 	C 	0.7494	0.3867	0.2641	0.105
Mof_C 	C 	0.415	0.0216	0.89797	0.112
Mof_C 	C 	0.915	0.4784	0.10203	0.11
Mof_C 	C 	0.5954	0.4666	0.5749	-0.01
Mof_C 	C 	0.9576	0.4411	0.54579	0.075
Mof_C 	C 	0.3187	0.3207	0.82583	0.1
Mof_C 	C 	0.5648	0.9974	0.6842	-0.001
Mof_C 	C 	0.8419	0.3034	0.54739	0.092
Mof_C 	C 	0.7716	0.8415	0.20159	0
Mof_C 	C 	0.523	0.4595	0.78291	0.104
Mof_C 	C 	0.5386	0.2014	0.2971	-0.005
Mof_C 	C 	0.0503	0.7719	0.5671	-0.004
Mof_C 	C 	0.8296	0.6639	0.24447	-0.007
Mof_C 	C 	0.4612	0.1349	0.15529	-0.019
Mof_C 	C 	0.5872	0.535	0.6775	-0.039
Mof_C 	C 	0.1705	0.2434	0.71121	0.08
Mof_C 	C 	0.7475	0.1146	0.73768	0.082
Mof_C 	C 	0.9296	0.2826	0.90472	-0.025
Mof_C 	C 	0.6005	0.0311	0.79574	0.099
Mof_C 	C 	0.9073	0.7328	0.59292	0.081
Mof_C 	C 	0.0487	0.655	0.24594	0.095
Mof_C 	C 	0.3995	0.5311	0.70426	0.099
Mof_C 	C 	0.6842	0.1262	0.35453	-0.005
Mof_C 	C 	0.2506	0.8867	0.2359	0.105
Mof_C 	C 	0.9844	0.6527	0.69823	-0.012
Mof_C 	C 	0.0427	0.4953	0.522	-0.006
Mof_C 	C 	0.4659	0.2882	0.63108	0.079
Mof_C 	C 	0.2494	0.1133	0.7359	0.105
Mof_C 	C 	0.5695	0.9386	0.35733	-0.012
Mof_C 	C 	0.2826	0.936	0.2046	-0.011
Mof_C 	C 	0.2475	0.3854	0.26232	0.082
Mof_C 	C 	0.5424	0.5589	0.04579	0.074
Mof_C 	C 	0.9027	0.0229	0.89556	0.075
Mof_C 	C 	0.0423	0.7649	0.7862	-0.012
Mof_C 	C 	0.8995	0.9689	0.29574	0.102
Mof_C 	C 	0.4803	0.6378	0.96018	-0.005
Mof_C 	C 	0.7506	0.6133	0.7641	0.105
Mof_C 	C 	0.6516	0.3768	0.0498	0.133
Mof_C 	C 	0.977	0.5405	0.28291	0.101
Mof_C 	C 	0.1005	0.4689	0.20426	0.102
Mof_C 	C 	0.0156	0.1527	0.80177	-0.012
Mof_C 	C 	0.593	0.7595	0.5048	0.146
Mof_C 	C 	0.4513	0.345	0.74594	0.092
Mof_C 	C 	0.8815	0.6745	0.21863	-0.017
Mof_C 	C 	0.1054	0.4573	0.5127	-0.005
Mof_C 	C 	0.014	0.5381	0.0934	-0.01
Mof_C 	C 	0.6515	0.613	0.33504	-0.003
Mof_C 	C 	0.6687	0.6795	0.31994	0.083
Mof_C 	C 	0.5704	0.7174	0.40472	-0.024
Mof_C 	C 	0.023	0.0405	0.21709	0.101
Mof_C 	C 	0.5427	0.0047	0.478	-0.005
Mof_C 	C 	0.5695	0.2443	0.969	-0.02
Mof_C 	C 	0.1704	0.1639	0.25553	-0.007
Mof_C 	C 	0.5197	0.1378	0.53982	-0.005
Mof_C 	C 	0.4027	0.4771	0.10444	0.076
Mof_C 	C 	0.4097	0.7015	0.97411	0.068
Mof_C 	C 	0.1824	0.4154	0.6344	-0.015
Mof_C 	C 	0.7826	0.564	0.7954	-0.011
Mof_C 	C 	0.0197	0.3622	0.46018	-0.005
Mof_C 	C 	0.2441	0.8694	0.4874	0.014
Mof_C 	C 	0.1516	0.1232	0.9502	0.133
Mof_C 	C 	0.2263	0.9128	0.4786	-0.029
Mof_C 	C 	0.3295	0.7566	0.21121	0.08
Mof_N 	N 	0.4506	0.33095	0.8294	-0.295
Mof_N 	N 	0.8166	0.5832	0.54404	-0.306
Mof_N 	N 	0.7778	0.05946	0.35003	-0.287
Mof_N 	N 	0.6921	0.57768	0.77477	-0.291
Mof_N 	N 	0.9352	0.65121	0.26284	-0.296
Mof_N 	N 	0.5493	0.07738	0.47256	-0.287
Mof_N 	N 	0.8729	0.62411	0.77541	-0.298
Mof_N 	N 	0.9994	0.4558	0.22191	-0.3
Mof_N 	N 	0.0409	0.21976	0.82096	-0.294
Mof_N 	N 	0.8373	0.03352	0.87099	-0.294
Mof_N 	N 	0.2231	0.79035	0.92843	-0.29
Mof_N 	N 	0.1921	0.92232	0.22523	-0.291
Mof_N 	N 	0.0378	0.69044	0.05842	-0.284
Mof_N 	N 	0.4765	0.7421	0.38821	-0.29
Mof_N 	N 	0.0363	0.2344	0.00458	-0.307
Mof_N 	N 	0.0618	0.47301	0.17655	-0.292
Mof_N 	N 	0.022	0.4998	0.28837	-0.299
Mof_N 	N 	0.5475	0.6786	0.33506	-0.287
Mof_N 	N 	0.4398	0.66076	0.984	-0.295
Mof_N 	N 	0.7669	0.20678	0.15448	-0.296
Mof_N 	N 	0.9882	0.56888	0.30399	-0.302
Mof_N 	N 	0.2769	0.20965	0.42843	-0.291
Mof_N 	N 	0.9814	0.68237	0.7207	-0.288
Mof_N 	N 	0.1834	0.0832	0.95596	-0.306
Mof_N 	N 	0.5006	0.5442	0.72191	-0.299
Mof_N 	N 	0.4994	0.0442	0.77809	-0.299
Mof_N 	N 	0.2354	0.85931	0.68081	-0.292
Mof_N 	N 	0.6831	0.3458	0.03122	-0.312
Mof_N 	N 	0.9764	0.16996	0.28053	-0.293
Mof_N 	N 	0.044	0.82741	0.94762	-0.292
Mof_N 	N 	0.0006	0.9558	0.27809	-0.3
Mof_N 	N 	0.9577	0.72954	0.78157	-0.29
Mof_N 	N 	0.522	0.0002	0.71163	-0.301
Mof_N 	N 	0.4731	0.49886	0.60947	-0.296
Mof_N 	N 	0.7813	0.12886	0.33293	-0.297
Mof_N 	N 	0.1899	0.64891	0.77508	-0.295
Mof_N 	N 	0.433	0.70577	0.94544	-0.295
Mof_N 	N 	0.7646	0.35931	0.81919	-0.292
Mof_N 	N 	0.8079	0.42232	0.27477	-0.291
Mof_N 	N 	0.2222	0.55946	0.14997	-0.287
Mof_N 	N 	0.0493	0.42262	0.52744	-0.288
Mof_N 	N 	0.9591	0.71976	0.67904	-0.294
Mof_N 	N 	0.9765	0.7579	0.61179	-0.29
Mof_N 	N 	0.7331	0.79322	0.65448	-0.296
Mof_N 	N 	0.1621	0.99408	0.41912	-0.301
Mof_N 	N 	0.1271	0.12411	0.72459	-0.298
Mof_N 	N 	0.5535	0.2601	0.06485	-0.293
Mof_N 	N 	0.7769	0.29035	0.57157	-0.29
Mof_N 	N 	0.9469	0.22046	0.34066	-0.288
Mof_N 	N 	0.3079	0.07768	0.72523	-0.291
Mof_N 	N 	0.3379	0.00592	0.91912	-0.301
Mof_N 	N 	0.9622	0.19044	0.44158	-0.284
Mof_N 	N 	0.3729	0.87589	0.22459	-0.298
Mof_N 	N 	0.4507	0.57738	0.02744	-0.288
Mof_N 	N 	0.5618	0.02699	0.82345	-0.293
Mof_N 	N 	0.7222	0.94054	0.85003	-0.287
Mof_N 	N 	0.9382	0.97301	0.32345	-0.292
Mof_N 	N 	0.9605	0.74237	0.11734	-0.292
Mof_N 	N 	0.6621	0.50592	0.58088	-0.301
Mof_N 	N 	0.0499	0.98571	0.95706	-0.287
Mof_N 	N 	0.2331	0.70678	0.34552	-0.296
Mof_N 	N 	0.067	0.29423	0.44544	-0.295
Mof_N 	N 	0.2646	0.14069	0.18081	-0.293
Mof_N 	N 	0.7187	0.87114	0.83293	-0.297
Mof_N 	N 	0.4352	0.84879	0.73716	-0.295
Mof_N 	N 	0.7204	0.84544	0.95996	-0.289
Mof_N 	N 	0.3166	0.9168	0.45596	-0.306
Mof_N 	N 	0.4501	0.01429	0.45706	-0.287
Mof_N 	N 	0.5186	0.31763	0.2207	-0.289
Mof_N 	N 	0.4814	0.81763	0.2793	-0.289
Mof_N 	N 	0.9637	0.7344	0.49542	-0.307
Mof_N 	N 	0.4764	0.33004	0.71947	-0.294
Mof_N 	N 	0.5648	0.34879	0.76284	-0.295
Mof_N 	N 	0.478	0.5002	0.78837	-0.301
Mof_N 	N 	0.6624	0.7449	0.52718	-0.31
Mof_N 	N 	0.4622	0.30956	0.55842	-0.284
Mof_N 	N 	0.5378	0.80956	0.94158	-0.284
Mof_N 	N 	0.0118	0.06888	0.19601	-0.302
Mof_N 	N 	0.456	0.17259	0.44762	-0.292
Mof_N 	N 	0.5235	0.2421	0.11179	-0.29
Mof_N 	N 	0.6317	0.10166	0.72386	-0.291
Mof_N 	N 	0.5423	0.27046	0.28157	-0.291
Mof_N 	N 	0.2778	0.44054	0.64997	-0.287
Mof_N 	N 	0.0531	0.72046	0.15934	-0.288
Mof_N 	N 	0.0535	0.2399	0.93515	-0.293
Mof_N 	N 	0.4382	0.52699	0.67655	-0.293
Mof_N 	N 	0.9506	0.16905	0.1706	-0.295
Mof_N 	N 	0.326	0.71451	0.20214	-0.294
Mof_N 	N 	0.0423	0.22954	0.71843	-0.29
Mof_N 	N 	0.2187	0.62886	0.16707	-0.297
Mof_N 	N 	0.5499	0.51429	0.04294	-0.287
Mof_N 	N 	0.956	0.32741	0.55238	-0.292
Mof_N 	N 	0.5273	0.45759	0.10093	-0.287
Mof_N 	N 	0.7796	0.15456	0.45996	-0.288
Mof_N 	N 	0.8169	0.6542	0.53122	-0.312
Mof_N 	N 	0.4605	0.75763	0.88266	-0.291
Mof_N 	N 	0.8101	0.14891	0.72492	-0.295
Mof_N 	N 	0.6627	0.96648	0.37099	-0.295
Mof_N 	N 	0.0235	0.2579	0.88821	-0.29
Mof_N 	N 	0.5409	0.28024	0.17904	-0.294
Mof_N 	N 	0.3683	0.60166	0.77614	-0.291
Mof_N 	N 	0.5269	0.99886	0.89053	-0.296
Mof_N 	N 	0.9525	0.3214	0.83506	-0.288
Mof_N 	N 	0.5236	0.83004	0.78053	-0.294
Mof_N 	N 	0.2796	0.34544	0.54004	-0.289
Mof_N 	N 	0.4577	0.77046	0.21843	-0.291
Mof_N 	N 	0.5531	0.77954	0.84066	-0.288
Mof_N 	N 	0.5395	0.25763	0.61734	-0.291
Mof_N 	N 	0.4591	0.78024	0.32096	-0.294
Mof_N 	N 	0.5118	0.43112	0.80399	-0.301
Mof_N 	N 	0.4882	0.93112	0.69601	-0.301
Mof_N 	N 	0.4637	0.7656	0.50458	-0.307
Mof_N 	N 	0.567	0.20577	0.55456	-0.295
Mof_N 	N 	0.0494	0.66905	0.3294	-0.295
Mof_N 	N 	0.3373	0.46648	0.12901	-0.295
Mof_N 	N 	0.9731	0.00114	0.39053	-0.295
Mof_N 	N 	0.5494	0.83095	0.6706	-0.295
Mof_N 	N 	0.2813	0.37114	0.66707	-0.297
Mof_N 	N 	0.0395	0.24237	0.38266	-0.292
Mof_N 	N 	0.9727	0.54241	0.60093	-0.286
Mof_N 	N 	0.4469	0.27954	0.65934	-0.288
Mof_N 	N 	0.1624	0.7551	0.47282	-0.31
Mof_N 	N 	0.2204	0.65456	0.04004	-0.288
Mof_N 	N 	0.9398	0.83924	0.016	-0.295
Mof_N 	N 	0.544	0.67259	0.05238	-0.292
Mof_N 	N 	0.8376	0.2551	0.02718	-0.31
Mof_N 	N 	0.7354	0.64069	0.31919	-0.293
Mof_N 	N 	0.0236	0.66996	0.21947	-0.293
Mof_N 	N 	0.826	0.78549	0.79786	-0.295
Mof_N 	N 	0.7231	0.70965	0.07157	-0.291
Mof_N 	N 	0.5363	0.2656	0.99542	-0.307
Mof_N 	N 	0.0269	0.50114	0.10947	-0.295
Mof_N 	N 	0.9501	0.48571	0.54294	-0.287
Mof_N 	N 	0.8379	0.49408	0.08088	-0.301
Mof_N 	N 	0.0648	0.15121	0.23716	-0.296
Mof_N 	N 	0.4727	0.95759	0.39907	-0.287
Mof_N 	N 	0.4525	0.1786	0.16494	-0.287
Mof_N 	N 	0.174	0.28549	0.70214	-0.295
Mof_N 	N 	0.1317	0.39834	0.27614	-0.291
Mof_N 	N 	0.8683	0.89834	0.22386	-0.291
Mof_N 	N 	0.1627	0.53352	0.62901	-0.294
Mof_N 	N 	0.9507	0.92262	0.97256	-0.288
Mof_N 	N 	0.6834	0.4168	0.04404	-0.306
Mof_N 	N 	0.9465	0.7399	0.56485	-0.293
Mof_N 	N 	0.6899	0.85109	0.22492	-0.294
Mof_N 	N 	0.978	0.9998	0.21163	-0.299
Mof_N 	N 	0.674	0.21451	0.29786	-0.294
Mof_N 	N 	0.6271	0.37589	0.27541	-0.298
Mof_N 	N 	0.2669	0.29322	0.84552	-0.296
Mof_N 	N 	0.3376	0.2449	0.97282	-0.31
Mof_N 	N 	0.933	0.79423	0.05456	-0.295
Mof_N 	N 	0.5602	0.16076	0.516	-0.295
Mof_N 	N 	0.0186	0.18237	0.7793	-0.288
Mof_N 	N 	0.1831	0.1542	0.96878	-0.312
Mof_N 	N 	0.3101	0.35109	0.27508	-0.294
Mof_N 	N 	0.0602	0.33924	0.484	-0.295
Mof_N 	N 	0.0273	0.04241	0.89907	-0.286
Mof_N 	N 	0.4465	0.7601	0.43515	-0.293
Mof_N 	N 	0.3169	0.8458	0.46878	-0.312
Mof_N 	N 	0.0475	0.8214	0.66494	-0.288
_end
