data_functionalizedCrystal
_audit_creation_method	'EQeq! by Chris Wilmer'
_symmetry_space_group_name_H-M	'P1'
_symmetry_Int_Tables_number	1
_symmetry_cell_setting	triclinic
loop_
_symmetry_equiv_pos_as_xyz
  x,y,z
_cell_length_a	13.7239
_cell_length_b	15.0724
_cell_length_c	15.86
_cell_angle_alpha	90
_cell_angle_beta	94.504
_cell_angle_gamma	90
loop_
_atom_site_label
_atom_site_type_symbol
_atom_site_fract_x
_atom_site_fract_y
_atom_site_fract_z
_atom_site_charge
Mof_Co	Co	0.73753	0.90927	0.4963	1.183
Mof_Fe	Fe	0.78013	0.65963	0.25053	0.714
Mof_Fe	Fe	0.74559	0.67736	0.76848	0.66
Mof_O 	O 	0.6027	0.74464	0.56962	-0.324
Mof_O 	O 	0.75465	0.77989	0.54075	-0.424
Mof_O 	O 	0.77916	0.44975	0.87954	-0.427
Mof_O 	O 	0.92133	0.52485	0.88659	-0.387
Mof_O 	O 	0.9184	0.58902	0.06543	-0.405
Mof_O 	O 	0.76511	0.53969	0.04179	-0.475
Mof_O 	O 	0.75464	0.86788	0.37081	-0.413
Mof_O 	O 	0.5992	0.83997	0.32306	-0.334
Mof_O 	O 	0.91554	0.38927	0.02504	-1.074
Mof_H 	H 	0.918	0.372	0.079	0.407
Mof_H 	H 	0.925	0.347	0.9955	0.516
Mof_C 	C 	0.83875	0.50395	0.85352	0.378
Mof_C 	C 	0.80736	0.55297	0.77226	-0.132
Mof_C 	C 	0.7093	0.54693	0.73943	-0.098
Mof_H 	H 	0.6673	0.5041	0.7615	0.054
Mof_C 	C 	0.6732	0.60419	0.67381	-0.111
Mof_H 	H 	0.6065	0.6007	0.653	0.071
Mof_C 	C 	0.735	0.66617	0.6391	-0.124
Mof_C 	C 	0.8334	0.6685	0.66926	-0.093
Mof_H 	H 	0.8766	0.7081	0.6444	0.076
Mof_C 	C 	0.8696	0.6129	0.736	-0.104
Mof_H 	H 	0.9365	0.6161	0.7564	0.102
Mof_C 	C 	0.6937	0.7359	0.57754	0.348
Mof_C 	C 	0.82849	0.59226	0.07156	0.397
Mof_C 	C 	0.79146	0.6682	0.12207	-0.153
Mof_C 	C 	0.8561	0.72957	0.16405	-0.089
Mof_H 	H 	0.9225	0.7312	0.1511	0.09
Mof_C 	C 	0.8235	0.7882	0.22462	-0.108
Mof_H 	H 	0.8679	0.8286	0.253	0.08
Mof_C 	C 	0.72407	0.78689	0.24324	-0.117
Mof_C 	C 	0.6582	0.72964	0.19847	-0.113
Mof_H 	H 	0.591	0.7306	0.2089	0.068
Mof_C 	C 	0.6916	0.67036	0.13777	-0.086
Mof_H 	H 	0.6466	0.6318	0.1075	0.047
Mof_C 	C 	0.689	0.8361	0.31912	0.343
Mof_C 	C 	0.8549	0.5451	0.2798	-0.107
Mof_H 	H 	0.8959	0.5146	0.2439	0.086
Mof_C 	C 	0.7558	0.531	0.2834	-0.113
Mof_H 	H 	0.7172	0.4898	0.2501	0.067
Mof_C 	C 	0.7222	0.5877	0.3442	-0.104
Mof_H 	H 	0.6569	0.5911	0.36	0.059
Mof_C 	C 	0.8006	0.6386	0.3779	-0.116
Mof_H 	H 	0.7978	0.6832	0.4201	0.079
Mof_C 	C 	0.8854	0.6124	0.3385	-0.106
Mof_H 	H 	0.9496	0.6353	0.3492	0.084
Mof_C 	C 	0.6828	0.688	0.8858	0.005
Mof_H 	H 	0.6775	0.6416	0.9258	0.203
Mof_C 	C 	0.6091	0.7146	0.823	0.441
Mof_H 	H 	0.5459	0.6891	0.8136	-0.139
Mof_C 	C 	0.6467	0.7858	0.7767	0.195
Mof_H 	H 	0.6129	0.8165	0.7309	-0.036
Mof_C 	C 	0.7435	0.8033	0.8109	-0.173
Mof_H 	H 	0.7859	0.8476	0.7921	0.13
Mof_C 	C 	0.7658	0.7428	0.8784	0.106
Mof_H 	H 	0.8258	0.7396	0.9125	-0.203
Mof_C 	C 	0.6614	0.7549	0.8268	-0.558
Mof_C 	C 	0.7263	0.8104	0.7853	0.203
Mof_C 	C 	0.8225	0.7946	0.8218	-0.357
Mof_C 	C 	0.8172	0.7293	0.8858	0.293
Mof_C 	C 	0.7176	0.7048	0.8889	-0.097
Mof_H 	H 	0.5926	0.7519	0.815	-0.077
Mof_H 	H 	0.7084	0.851	0.7409	-0.049
Mof_H 	H 	0.8804	0.8227	0.8061	0.147
Mof_H 	H 	0.8708	0.7061	0.9205	0.04
Mof_H 	H 	0.6929	0.6624	0.9261	-0.169
Mof_Co	Co	0.76247	0.40927	0.0037	1.16
Mof_Fe	Fe	0.71987	0.15963	0.24947	0.715
Mof_Fe	Fe	0.75441	0.17736	0.73152	0.661
Mof_O 	O 	0.8973	0.24464	0.93038	-0.306
Mof_O 	O 	0.74535	0.27989	0.95925	-0.41
Mof_O 	O 	0.72084	0.94975	0.62046	-0.398
Mof_O 	O 	0.57867	0.02485	0.61341	-0.422
Mof_O 	O 	0.5816	0.08902	0.43457	-0.433
Mof_O 	O 	0.73489	0.03969	0.45821	-0.482
Mof_O 	O 	0.74536	0.36788	0.12919	-0.429
Mof_O 	O 	0.9008	0.33997	0.17694	-0.328
Mof_O 	O 	0.58446	0.88927	0.47496	-0.998
Mof_H 	H 	0.582	0.872	0.421	0.382
Mof_H 	H 	0.575	0.847	0.5045	0.452
Mof_C 	C 	0.66125	0.00395	0.64648	0.334
Mof_C 	C 	0.69264	0.05297	0.72774	-0.135
Mof_C 	C 	0.7907	0.04693	0.76057	-0.099
Mof_H 	H 	0.8327	0.0041	0.7385	0.046
Mof_C 	C 	0.8268	0.10419	0.82619	-0.117
Mof_H 	H 	0.8935	0.1007	0.847	0.08
Mof_C 	C 	0.765	0.16617	0.8609	-0.118
Mof_C 	C 	0.6666	0.1685	0.83074	-0.1
Mof_H 	H 	0.6234	0.2081	0.8556	0.071
Mof_C 	C 	0.6304	0.1129	0.764	-0.105
Mof_H 	H 	0.5635	0.1161	0.7436	0.084
Mof_C 	C 	0.8063	0.2359	0.92246	0.344
Mof_C 	C 	0.67151	0.09226	0.42844	0.408
Mof_C 	C 	0.70854	0.1682	0.37793	-0.157
Mof_C 	C 	0.6439	0.22957	0.33595	-0.086
Mof_H 	H 	0.5775	0.2312	0.3489	0.074
Mof_C 	C 	0.6765	0.2882	0.27538	-0.113
Mof_H 	H 	0.6321	0.3286	0.247	0.068
Mof_C 	C 	0.77593	0.28689	0.25676	-0.115
Mof_C 	C 	0.8418	0.22964	0.30153	-0.115
Mof_H 	H 	0.909	0.2306	0.2911	0.08
Mof_C 	C 	0.8084	0.17036	0.36223	-0.08
Mof_H 	H 	0.8534	0.1318	0.3925	0.054
Mof_C 	C 	0.811	0.3361	0.18088	0.34
Mof_C 	C 	0.6451	0.0451	0.2202	-0.061
Mof_H 	H 	0.6041	0.0146	0.2561	0.044
Mof_C 	C 	0.7442	0.031	0.2166	-0.225
Mof_H 	H 	0.7828	0.9898	0.2499	0.134
Mof_C 	C 	0.7778	0.0877	0.1558	-0.057
Mof_H 	H 	0.8431	0.0911	0.14	0.038
Mof_C 	C 	0.6994	0.1386	0.1221	-0.138
Mof_H 	H 	0.7022	0.1832	0.0799	0.071
Mof_C 	C 	0.6146	0.1124	0.1615	-0.132
Mof_H 	H 	0.5504	0.1353	0.1508	0.067
Mof_C 	C 	0.8172	0.188	0.6142	0.011
Mof_H 	H 	0.8225	0.1416	0.5742	0.19
Mof_C 	C 	0.8909	0.2146	0.677	0.445
Mof_H 	H 	0.9541	0.1891	0.6864	-0.131
Mof_C 	C 	0.8533	0.2858	0.7233	0.217
Mof_H 	H 	0.8871	0.3165	0.7691	-0.039
Mof_C 	C 	0.7565	0.3033	0.6891	-0.176
Mof_H 	H 	0.7141	0.3476	0.7079	0.121
Mof_C 	C 	0.7342	0.2428	0.6216	0.094
Mof_H 	H 	0.6742	0.2396	0.5875	-0.198
Mof_C 	C 	0.8386	0.2549	0.6732	-0.583
Mof_C 	C 	0.7737	0.3104	0.7147	0.206
Mof_C 	C 	0.6775	0.2946	0.6782	-0.349
Mof_C 	C 	0.6828	0.2293	0.6142	0.285
Mof_C 	C 	0.7824	0.2048	0.6111	-0.091
Mof_H 	H 	0.9074	0.2519	0.685	-0.071
Mof_H 	H 	0.7916	0.351	0.7591	-0.055
Mof_H 	H 	0.6196	0.3227	0.6939	0.128
Mof_H 	H 	0.6292	0.2061	0.5795	0.021
Mof_H 	H 	0.8071	0.1624	0.5739	-0.169
Mof_Co	Co	0.26247	0.09073	0.5037	1.163
Mof_Fe	Fe	0.21987	0.34037	0.74947	0.709
Mof_Fe	Fe	0.25441	0.32264	0.23152	0.663
Mof_O 	O 	0.3973	0.25536	0.43038	-0.326
Mof_O 	O 	0.24535	0.22011	0.45925	-0.435
Mof_O 	O 	0.22084	0.55025	0.12046	-0.459
Mof_O 	O 	0.07867	0.47515	0.11341	-0.448
Mof_O 	O 	0.0816	0.41098	0.93457	-0.426
Mof_O 	O 	0.23489	0.46031	0.95821	-0.454
Mof_O 	O 	0.24536	0.13212	0.62919	-0.437
Mof_O 	O 	0.4008	0.16003	0.67694	-0.346
Mof_O 	O 	0.08446	0.61073	0.97496	-0.922
Mof_H 	H 	0.082	0.628	0.921	0.354
Mof_H 	H 	0.075	0.653	0.0045	0.383
Mof_C 	C 	0.16125	0.49605	0.14648	0.388
Mof_C 	C 	0.19264	0.44703	0.22774	-0.15
Mof_C 	C 	0.2907	0.45307	0.26057	-0.091
Mof_H 	H 	0.3327	0.4959	0.2385	0.049
Mof_C 	C 	0.3268	0.39581	0.32619	-0.118
Mof_H 	H 	0.3935	0.3993	0.347	0.072
Mof_C 	C 	0.265	0.33383	0.3609	-0.126
Mof_C 	C 	0.1666	0.3315	0.33074	-0.103
Mof_H 	H 	0.1234	0.2919	0.3556	0.058
Mof_C 	C 	0.1304	0.3871	0.264	-0.098
Mof_H 	H 	0.0635	0.3839	0.2436	0.068
Mof_C 	C 	0.3063	0.2641	0.42246	0.35
Mof_C 	C 	0.17151	0.40774	0.92844	0.408
Mof_C 	C 	0.20854	0.3318	0.87793	-0.149
Mof_C 	C 	0.1439	0.27043	0.83595	-0.091
Mof_H 	H 	0.0775	0.2688	0.8489	0.064
Mof_C 	C 	0.1765	0.2118	0.77538	-0.109
Mof_H 	H 	0.1321	0.1714	0.747	0.056
Mof_C 	C 	0.27593	0.21311	0.75676	-0.125
Mof_C 	C 	0.3418	0.27036	0.80153	-0.108
Mof_H 	H 	0.409	0.2694	0.7911	0.068
Mof_C 	C 	0.3084	0.32964	0.86223	-0.085
Mof_H 	H 	0.3534	0.3682	0.8925	0.059
Mof_C 	C 	0.311	0.1639	0.68088	0.345
Mof_C 	C 	0.1451	0.4549	0.7202	-0.113
Mof_H 	H 	0.1041	0.4854	0.7561	0.067
Mof_C 	C 	0.2442	0.469	0.7166	-0.117
Mof_H 	H 	0.2828	0.5102	0.7499	0.068
Mof_C 	C 	0.2778	0.4123	0.6558	-0.102
Mof_H 	H 	0.3431	0.4089	0.64	0.059
Mof_C 	C 	0.1994	0.3614	0.6221	-0.124
Mof_H 	H 	0.2022	0.3168	0.5799	0.073
Mof_C 	C 	0.1146	0.3876	0.6615	-0.111
Mof_H 	H 	0.0504	0.3647	0.6508	0.053
Mof_C 	C 	0.3172	0.312	0.1142	0.019
Mof_H 	H 	0.3225	0.3584	0.0742	0.177
Mof_C 	C 	0.3909	0.2854	0.177	0.416
Mof_H 	H 	0.4541	0.3109	0.1864	-0.139
Mof_C 	C 	0.3533	0.2142	0.2233	0.212
Mof_H 	H 	0.3871	0.1835	0.2691	-0.051
Mof_C 	C 	0.2565	0.1967	0.1891	-0.173
Mof_H 	H 	0.2141	0.1524	0.2079	0.108
Mof_C 	C 	0.2342	0.2572	0.1216	0.071
Mof_H 	H 	0.1742	0.2604	0.0875	-0.184
Mof_C 	C 	0.3386	0.2451	0.1732	-0.578
Mof_C 	C 	0.2737	0.1896	0.2147	0.198
Mof_C 	C 	0.1775	0.2054	0.1782	-0.337
Mof_C 	C 	0.1828	0.2707	0.1142	0.268
Mof_C 	C 	0.2824	0.2952	0.1111	-0.09
Mof_H 	H 	0.4074	0.2481	0.185	-0.067
Mof_H 	H 	0.2916	0.149	0.2591	-0.061
Mof_H 	H 	0.1196	0.1773	0.1939	0.104
Mof_H 	H 	0.1292	0.2939	0.0795	-0.001
Mof_H 	H 	0.3071	0.3376	0.0739	-0.172
Mof_Co	Co	0.23753	0.59073	0.9963	1.189
Mof_Fe	Fe	0.28013	0.84037	0.75053	0.708
Mof_Fe	Fe	0.24559	0.82264	0.26848	0.663
Mof_O 	O 	0.1027	0.75536	0.06962	-0.344
Mof_O 	O 	0.25465	0.72011	0.04075	-0.451
Mof_O 	O 	0.27916	0.05025	0.37954	-0.489
Mof_O 	O 	0.42133	0.97515	0.38659	-0.417
Mof_O 	O 	0.4184	0.91098	0.56543	-0.41
Mof_O 	O 	0.26511	0.96031	0.54179	-0.45
Mof_O 	O 	0.25464	0.63212	0.87081	-0.42
Mof_O 	O 	0.0992	0.66003	0.82306	-0.349
Mof_O 	O 	0.41554	0.11073	0.52504	-1.025
Mof_H 	H 	0.418	0.128	0.579	0.384
Mof_H 	H 	0.425	0.153	0.4955	0.46
Mof_C 	C 	0.33875	0.99605	0.35352	0.435
Mof_C 	C 	0.30736	0.94703	0.27226	-0.147
Mof_C 	C 	0.2093	0.95307	0.23943	-0.091
Mof_H 	H 	0.1673	0.9959	0.2615	0.057
Mof_C 	C 	0.1732	0.89581	0.17381	-0.112
Mof_H 	H 	0.1065	0.8993	0.153	0.062
Mof_C 	C 	0.235	0.83383	0.1391	-0.133
Mof_C 	C 	0.3334	0.8315	0.16926	-0.096
Mof_H 	H 	0.3766	0.7919	0.1444	0.064
Mof_C 	C 	0.3696	0.8871	0.236	-0.097
Mof_H 	H 	0.4365	0.8839	0.2564	0.088
Mof_C 	C 	0.1937	0.7641	0.07754	0.354
Mof_C 	C 	0.32849	0.90774	0.57156	0.4
Mof_C 	C 	0.29146	0.8318	0.62207	-0.148
Mof_C 	C 	0.3561	0.77043	0.66405	-0.093
Mof_H 	H 	0.4225	0.7688	0.6511	0.077
Mof_C 	C 	0.3235	0.7118	0.72462	-0.106
Mof_H 	H 	0.3679	0.6714	0.753	0.068
Mof_C 	C 	0.22407	0.71311	0.74324	-0.126
Mof_C 	C 	0.1582	0.77036	0.69847	-0.107
Mof_H 	H 	0.091	0.7694	0.7089	0.058
Mof_C 	C 	0.1916	0.82964	0.63777	-0.09
Mof_H 	H 	0.1466	0.8682	0.6075	0.052
Mof_C 	C 	0.189	0.6639	0.81912	0.348
Mof_C 	C 	0.3549	0.9549	0.7798	-0.161
Mof_H 	H 	0.3959	0.9854	0.7439	0.109
Mof_C 	C 	0.2558	0.969	0.7834	-0.001
Mof_H 	H 	0.2172	0.0102	0.7501	-0.002
Mof_C 	C 	0.2222	0.9123	0.8442	-0.151
Mof_H 	H 	0.1569	0.9089	0.86	0.082
Mof_C 	C 	0.3006	0.8614	0.8779	-0.101
Mof_H 	H 	0.2978	0.8168	0.9201	0.083
Mof_C 	C 	0.3854	0.8876	0.8385	-0.084
Mof_H 	H 	0.4496	0.8647	0.8492	0.07
Mof_C 	C 	0.1828	0.812	0.3858	0.013
Mof_H 	H 	0.1775	0.8584	0.4258	0.191
Mof_C 	C 	0.1091	0.7854	0.323	0.413
Mof_H 	H 	0.0459	0.8109	0.3136	-0.148
Mof_C 	C 	0.1467	0.7142	0.2767	0.189
Mof_H 	H 	0.1129	0.6835	0.2309	-0.048
Mof_C 	C 	0.2435	0.6967	0.3109	-0.17
Mof_H 	H 	0.2859	0.6524	0.2921	0.118
Mof_C 	C 	0.2658	0.7572	0.3784	0.084
Mof_H 	H 	0.3258	0.7604	0.4125	-0.189
Mof_C 	C 	0.1614	0.7451	0.3268	-0.55
Mof_C 	C 	0.2263	0.6896	0.2853	0.195
Mof_C 	C 	0.3225	0.7054	0.3218	-0.346
Mof_C 	C 	0.3172	0.7707	0.3858	0.276
Mof_C 	C 	0.2176	0.7952	0.3889	-0.097
Mof_H 	H 	0.0926	0.7481	0.315	-0.072
Mof_H 	H 	0.2084	0.649	0.2409	-0.054
Mof_H 	H 	0.3804	0.6773	0.3061	0.125
Mof_H 	H 	0.3708	0.7939	0.4205	0.02
Mof_H 	H 	0.1929	0.8376	0.4261	-0.172
Mof_Co	Co	3.85923e-33	0.5	-0	1.191
Mof_Co	Co	0.5	3.85923e-33	0.5	1.216
_end
