data_functionalizedCrystal
_audit_creation_method	'EQeq! by Chris Wilmer'
_symmetry_space_group_name_H-M	'P1'
_symmetry_Int_Tables_number	1
_symmetry_cell_setting	triclinic
loop_
_symmetry_equiv_pos_as_xyz
  x,y,z
_cell_length_a	15.0699
_cell_length_b	15.7002
_cell_length_c	27.248
_cell_angle_alpha	90
_cell_angle_beta	101.91
_cell_angle_gamma	90
loop_
_atom_site_label
_atom_site_type_symbol
_atom_site_fract_x
_atom_site_fract_y
_atom_site_fract_z
_atom_site_charge
Mof_Gd	Gd	0.71843	0.61694	0.62731	1.924
Mof_H 	H 	0.9522	0.6333	0.6771	-0.096
Mof_H 	H 	0.064	0.7673	0.5836	0.055
Mof_H 	H 	0.9902	0.6985	0.5584	0.076
Mof_H 	H 	0.9585	0.7843	0.5815	0.08
Mof_H 	H 	0.1429	0.7356	0.6515	0.064
Mof_H 	H 	0.0941	0.7318	0.6983	0.068
Mof_H 	H 	0.1242	0.6456	0.675	0.066
Mof_H 	H 	0.6891	0.7749	0.5348	-0.063
Mof_H 	H 	0.8294	0.6941	0.4362	0.053
Mof_H 	H 	0.8533	0.6516	0.4907	0.084
Mof_H 	H 	0.7617	0.6261	0.4524	0.068
Mof_H 	H 	0.787	0.8206	0.432	0.051
Mof_H 	H 	0.69	0.839	0.4451	0.037
Mof_H 	H 	0.7806	0.867	0.4834	0.057
Mof_H 	H 	0.825	0.5104	0.5429	-0.072
Mof_H 	H 	0.9804	0.3376	0.6233	0.056
Mof_H 	H 	0.9427	0.411	0.6543	0.067
Mof_H 	H 	0.8759	0.3382	0.6272	0.056
Mof_H 	H 	0.0074	0.3702	0.554	0.057
Mof_H 	H 	0.9217	0.3937	0.5108	0.04
Mof_H 	H 	0.9898	0.467	0.5362	0.067
Mof_H 	H 	0.633	0.4324	0.5708	-0.067
Mof_H 	H 	0.3661	0.4362	0.5465	0.087
Mof_H 	H 	0.4173	0.4975	0.5902	0.078
Mof_H 	H 	0.4122	0.5223	0.5327	0.085
Mof_H 	H 	0.429	0.3234	0.5369	0.086
Mof_H 	H 	0.5189	0.3296	0.5145	0.078
Mof_H 	H 	0.5259	0.3056	0.5723	0.066
Mof_H 	H 	0.7897	0.4284	0.6983	-0.079
Mof_H 	H 	0.5732	0.3328	0.737	0.062
Mof_H 	H 	0.5829	0.4343	0.7385	0.082
Mof_H 	H 	0.5555	0.3862	0.6858	0.083
Mof_H 	H 	0.6954	0.2629	0.7543	0.058
Mof_H 	H 	0.7648	0.2712	0.7174	0.037
Mof_H 	H 	0.7844	0.3204	0.7699	0.04
Mof_H 	H 	0.5819	0.5789	0.7138	-0.058
Mof_H 	H 	0.357	0.604	0.7229	0.048
Mof_H 	H 	0.4184	0.5236	0.7158	0.05
Mof_H 	H 	0.4518	0.5888	0.761	0.041
Mof_H 	H 	0.3513	0.6943	0.6689	0.048
Mof_H 	H 	0.4398	0.749	0.6662	0.062
Mof_H 	H 	0.4079	0.6741	0.6267	0.044
Mof_H 	H 	0.774	0.6109	0.7668	-0.08
Mof_H 	H 	0.957	0.7942	0.7942	0.067
Mof_H 	H 	0.9589	0.7372	0.7457	0.072
Mof_H 	H 	0.88	0.8059	0.7446	0.076
Mof_H 	H 	0.9197	0.7351	0.8545	0.058
Mof_H 	H 	0.8175	0.7017	0.8478	0.053
Mof_H 	H 	0.8984	0.6353	0.8486	0.05
Mof_H 	H 	0.6314	0.8077	0.6666	-0.068
Mof_H 	H 	0.7168	0.0116	0.6936	0.05
Mof_H 	H 	0.6176	0.9716	0.6757	0.06
Mof_H 	H 	0.684	0.9359	0.725	0.051
Mof_H 	H 	0.8134	0.9788	0.6505	0.031
Mof_H 	H 	0.8441	0.8811	0.6511	0.06
Mof_H 	H 	0.7766	0.9193	0.6029	0.066
Mof_C 	C 	0.9439	0.6599	0.64515	0.294
Mof_C 	C 	0.0059	0.7406	0.5853	-0.204
Mof_C 	C 	0.1007	0.7033	0.6673	-0.214
Mof_C 	C 	0.7166	0.7275	0.5221	0.269
Mof_C 	C 	0.8041	0.6726	0.4642	-0.203
Mof_C 	C 	0.7532	0.8237	0.45905	-0.187
Mof_C 	C 	0.8382	0.479	0.5734	0.281
Mof_C 	C 	0.9282	0.3739	0.6248	-0.182
Mof_C 	C 	0.9607	0.4132	0.5421	-0.189
Mof_C 	C 	0.5806	0.4665	0.56962	0.272
Mof_C 	C 	0.4174	0.475	0.5566	-0.215
Mof_C 	C 	0.4931	0.3397	0.5442	-0.221
Mof_C 	C 	0.7271	0.4354	0.69843	0.273
Mof_C 	C 	0.5919	0.3827	0.72	-0.22
Mof_C 	C 	0.737	0.3013	0.7419	-0.193
Mof_C 	C 	0.5499	0.6208	0.692	0.249
Mof_C 	C 	0.4194	0.5835	0.726	-0.189
Mof_C 	C 	0.4122	0.6923	0.6615	-0.169
Mof_C 	C 	0.8093	0.651	0.7531	0.279
Mof_C 	C 	0.9196	0.7647	0.7656	-0.211
Mof_C 	C 	0.876	0.6924	0.8381	-0.2
Mof_C 	C 	0.6814	0.8217	0.6519	0.284
Mof_C 	C 	0.6809	0.9591	0.6913	-0.192
Mof_C 	C 	0.794	0.921	0.6396	-0.18
Mof_N 	N 	0.0135	0.6988	0.63345	-0.127
Mof_N 	N 	0.7563	0.7413	0.48387	-0.125
Mof_N 	N 	0.9065	0.426	0.57951	-0.134
Mof_N 	N 	0.5013	0.4296	0.5574	-0.113
Mof_N 	N 	0.687	0.3749	0.71802	-0.139
Mof_N 	N 	0.4655	0.6346	0.6937	-0.132
Mof_N 	N 	0.8644	0.7003	0.78368	-0.136
Mof_N 	N 	0.7171	0.8969	0.66091	-0.135
Mof_O 	O 	0.868	0.6556	0.61744	-0.412
Mof_O 	O 	0.7124	0.6571	0.5428	-0.413
Mof_O 	O 	0.7894	0.4917	0.60405	-0.426
Mof_O 	O 	0.5916	0.5441	0.57994	-0.415
Mof_O 	O 	0.6896	0.5021	0.67979	-0.414
Mof_O 	O 	0.5923	0.6593	0.66322	-0.403
Mof_O 	O 	0.8008	0.654	0.70655	-0.446
Mof_O 	O 	0.7081	0.7668	0.62534	-0.424
Mof_Gd	Gd	0.28157	0.11694	0.87269	1.923
Mof_H 	H 	0.0478	0.1333	0.8229	-0.097
Mof_H 	H 	0.936	0.2673	0.9164	0.054
Mof_H 	H 	0.0098	0.1985	0.9416	0.075
Mof_H 	H 	0.0415	0.2843	0.9185	0.079
Mof_H 	H 	0.8571	0.2356	0.8485	0.063
Mof_H 	H 	0.9059	0.2318	0.8017	0.067
Mof_H 	H 	0.8758	0.1456	0.825	0.065
Mof_H 	H 	0.3109	0.2749	0.9652	-0.064
Mof_H 	H 	0.1706	0.1941	0.0638	0.052
Mof_H 	H 	0.1467	0.1516	0.0093	0.084
Mof_H 	H 	0.2383	0.1261	0.0476	0.067
Mof_H 	H 	0.213	0.3206	0.068	0.05
Mof_H 	H 	0.31	0.339	0.0549	0.036
Mof_H 	H 	0.2194	0.367	0.0166	0.056
Mof_H 	H 	0.175	0.0104	0.9571	-0.073
Mof_H 	H 	0.0196	0.8376	0.8767	0.055
Mof_H 	H 	0.0573	0.911	0.8457	0.066
Mof_H 	H 	0.1241	0.8382	0.8728	0.055
Mof_H 	H 	0.9926	0.8702	0.946	0.057
Mof_H 	H 	0.0783	0.8937	0.9892	0.039
Mof_H 	H 	0.0102	0.967	0.9638	0.067
Mof_H 	H 	0.367	0.9324	0.9292	-0.068
Mof_H 	H 	0.6339	0.9362	0.9535	0.086
Mof_H 	H 	0.5827	0.9975	0.9098	0.076
Mof_H 	H 	0.5878	0.0223	0.9673	0.083
Mof_H 	H 	0.571	0.8234	0.9631	0.085
Mof_H 	H 	0.4811	0.8296	0.9855	0.077
Mof_H 	H 	0.4741	0.8056	0.9277	0.065
Mof_H 	H 	0.2103	0.9284	0.8017	-0.08
Mof_H 	H 	0.4268	0.8328	0.763	0.061
Mof_H 	H 	0.4171	0.9343	0.7615	0.081
Mof_H 	H 	0.4445	0.8862	0.8142	0.082
Mof_H 	H 	0.3046	0.7629	0.7457	0.057
Mof_H 	H 	0.2352	0.7712	0.7826	0.037
Mof_H 	H 	0.2156	0.8204	0.7301	0.04
Mof_H 	H 	0.4181	0.0789	0.7862	-0.058
Mof_H 	H 	0.643	0.104	0.7771	0.048
Mof_H 	H 	0.5816	0.0236	0.7842	0.05
Mof_H 	H 	0.5482	0.0888	0.739	0.041
Mof_H 	H 	0.6487	0.1943	0.8311	0.048
Mof_H 	H 	0.5602	0.249	0.8338	0.062
Mof_H 	H 	0.5921	0.1741	0.8733	0.044
Mof_H 	H 	0.226	0.1109	0.7332	-0.08
Mof_H 	H 	0.043	0.2942	0.7058	0.067
Mof_H 	H 	0.0411	0.2372	0.7543	0.072
Mof_H 	H 	0.12	0.3059	0.7554	0.076
Mof_H 	H 	0.0803	0.2351	0.6455	0.058
Mof_H 	H 	0.1825	0.2017	0.6522	0.053
Mof_H 	H 	0.1016	0.1353	0.6514	0.05
Mof_H 	H 	0.3686	0.3077	0.8334	-0.068
Mof_H 	H 	0.2832	0.5116	0.8064	0.051
Mof_H 	H 	0.3824	0.4716	0.8243	0.06
Mof_H 	H 	0.316	0.4359	0.775	0.052
Mof_H 	H 	0.1866	0.4788	0.8495	0.03
Mof_H 	H 	0.1559	0.3811	0.8489	0.06
Mof_H 	H 	0.2234	0.4193	0.8971	0.066
Mof_C 	C 	0.0561	0.1599	0.85485	0.294
Mof_C 	C 	0.9941	0.2406	0.9147	-0.204
Mof_C 	C 	0.8993	0.2033	0.8327	-0.214
Mof_C 	C 	0.2834	0.2275	0.9779	0.268
Mof_C 	C 	0.1959	0.1726	0.0358	-0.203
Mof_C 	C 	0.2468	0.3237	0.04095	-0.187
Mof_C 	C 	0.1618	0.979	0.9266	0.282
Mof_C 	C 	0.0718	0.8739	0.8752	-0.182
Mof_C 	C 	0.0393	0.9132	0.9579	-0.189
Mof_C 	C 	0.4194	0.9665	0.93038	0.273
Mof_C 	C 	0.5826	0.975	0.9434	-0.213
Mof_C 	C 	0.5069	0.8397	0.9558	-0.221
Mof_C 	C 	0.2729	0.9354	0.80157	0.273
Mof_C 	C 	0.4081	0.8827	0.78	-0.22
Mof_C 	C 	0.263	0.8013	0.7581	-0.193
Mof_C 	C 	0.4501	0.1208	0.808	0.249
Mof_C 	C 	0.5806	0.0835	0.774	-0.189
Mof_C 	C 	0.5878	0.1923	0.8385	-0.169
Mof_C 	C 	0.1907	0.151	0.7469	0.279
Mof_C 	C 	0.0804	0.2647	0.7344	-0.211
Mof_C 	C 	0.124	0.1924	0.6619	-0.2
Mof_C 	C 	0.3186	0.3217	0.8481	0.284
Mof_C 	C 	0.3191	0.4591	0.8087	-0.194
Mof_C 	C 	0.206	0.421	0.8604	-0.18
Mof_N 	N 	0.9865	0.1988	0.86655	-0.127
Mof_N 	N 	0.2437	0.2413	0.01613	-0.125
Mof_N 	N 	0.0935	0.926	0.92049	-0.134
Mof_N 	N 	0.4987	0.9296	0.9426	-0.114
Mof_N 	N 	0.313	0.8749	0.78198	-0.139
Mof_N 	N 	0.5345	0.1346	0.8063	-0.133
Mof_N 	N 	0.1356	0.2003	0.71632	-0.136
Mof_N 	N 	0.2829	0.3969	0.83909	-0.135
Mof_O 	O 	0.132	0.1556	0.88256	-0.412
Mof_O 	O 	0.2876	0.1571	0.9572	-0.413
Mof_O 	O 	0.2106	0.9917	0.89595	-0.426
Mof_O 	O 	0.4084	0.0441	0.92006	-0.415
Mof_O 	O 	0.3104	0.0021	0.82021	-0.414
Mof_O 	O 	0.4077	0.1593	0.83678	-0.403
Mof_O 	O 	0.1992	0.154	0.79345	-0.446
Mof_O 	O 	0.2919	0.2668	0.87466	-0.424
Mof_Gd	Gd	0.28157	0.38306	0.37269	1.923
Mof_H 	H 	0.0478	0.3667	0.3229	-0.097
Mof_H 	H 	0.936	0.2327	0.4164	0.054
Mof_H 	H 	0.0098	0.3015	0.4416	0.075
Mof_H 	H 	0.0415	0.2157	0.4185	0.079
Mof_H 	H 	0.8571	0.2644	0.3485	0.063
Mof_H 	H 	0.9059	0.2682	0.3017	0.067
Mof_H 	H 	0.8758	0.3544	0.325	0.065
Mof_H 	H 	0.3109	0.2251	0.4652	-0.064
Mof_H 	H 	0.1706	0.3059	0.5638	0.052
Mof_H 	H 	0.1467	0.3484	0.5093	0.083
Mof_H 	H 	0.2383	0.3739	0.5476	0.067
Mof_H 	H 	0.213	0.1794	0.568	0.05
Mof_H 	H 	0.31	0.161	0.5549	0.036
Mof_H 	H 	0.2194	0.133	0.5166	0.056
Mof_H 	H 	0.175	0.4896	0.4571	-0.073
Mof_H 	H 	0.0196	0.6624	0.3767	0.055
Mof_H 	H 	0.0573	0.589	0.3457	0.066
Mof_H 	H 	0.1241	0.6618	0.3728	0.055
Mof_H 	H 	0.9926	0.6298	0.446	0.056
Mof_H 	H 	0.0783	0.6063	0.4892	0.039
Mof_H 	H 	0.0102	0.533	0.4638	0.066
Mof_H 	H 	0.367	0.5676	0.4292	-0.068
Mof_H 	H 	0.6339	0.5638	0.4535	0.086
Mof_H 	H 	0.5827	0.5025	0.4098	0.077
Mof_H 	H 	0.5878	0.4777	0.4673	0.084
Mof_H 	H 	0.571	0.6766	0.4631	0.085
Mof_H 	H 	0.4811	0.6704	0.4855	0.077
Mof_H 	H 	0.4741	0.6944	0.4277	0.065
Mof_H 	H 	0.2103	0.5716	0.3017	-0.08
Mof_H 	H 	0.4268	0.6672	0.263	0.061
Mof_H 	H 	0.4171	0.5657	0.2615	0.081
Mof_H 	H 	0.4445	0.6138	0.3142	0.082
Mof_H 	H 	0.3046	0.7371	0.2457	0.057
Mof_H 	H 	0.2352	0.7288	0.2826	0.037
Mof_H 	H 	0.2156	0.6796	0.2301	0.04
Mof_H 	H 	0.4181	0.4211	0.2862	-0.058
Mof_H 	H 	0.643	0.396	0.2771	0.048
Mof_H 	H 	0.5816	0.4764	0.2842	0.05
Mof_H 	H 	0.5482	0.4112	0.239	0.041
Mof_H 	H 	0.6487	0.3057	0.3311	0.048
Mof_H 	H 	0.5602	0.251	0.3338	0.062
Mof_H 	H 	0.5921	0.3259	0.3733	0.044
Mof_H 	H 	0.226	0.3891	0.2332	-0.08
Mof_H 	H 	0.043	0.2058	0.2058	0.067
Mof_H 	H 	0.0411	0.2628	0.2543	0.072
Mof_H 	H 	0.12	0.1941	0.2554	0.076
Mof_H 	H 	0.0803	0.2649	0.1455	0.058
Mof_H 	H 	0.1825	0.2983	0.1522	0.053
Mof_H 	H 	0.1016	0.3647	0.1514	0.05
Mof_H 	H 	0.3686	0.1923	0.3334	-0.068
Mof_H 	H 	0.2832	0.9884	0.3064	0.05
Mof_H 	H 	0.3824	0.0284	0.3243	0.06
Mof_H 	H 	0.316	0.0641	0.275	0.051
Mof_H 	H 	0.1866	0.0212	0.3495	0.031
Mof_H 	H 	0.1559	0.1189	0.3489	0.06
Mof_H 	H 	0.2234	0.0807	0.3971	0.066
Mof_C 	C 	0.0561	0.3401	0.35485	0.294
Mof_C 	C 	0.9941	0.2594	0.4147	-0.204
Mof_C 	C 	0.8993	0.2967	0.3327	-0.214
Mof_C 	C 	0.2834	0.2725	0.4779	0.269
Mof_C 	C 	0.1959	0.3274	0.5358	-0.203
Mof_C 	C 	0.2468	0.1763	0.54095	-0.187
Mof_C 	C 	0.1618	0.521	0.4266	0.281
Mof_C 	C 	0.0718	0.6261	0.3752	-0.182
Mof_C 	C 	0.0393	0.5868	0.4579	-0.189
Mof_C 	C 	0.4194	0.5335	0.43038	0.272
Mof_C 	C 	0.5826	0.525	0.4434	-0.215
Mof_C 	C 	0.5069	0.6603	0.4558	-0.221
Mof_C 	C 	0.2729	0.5646	0.30157	0.273
Mof_C 	C 	0.4081	0.6173	0.28	-0.22
Mof_C 	C 	0.263	0.6987	0.2581	-0.193
Mof_C 	C 	0.4501	0.3792	0.308	0.249
Mof_C 	C 	0.5806	0.4165	0.274	-0.189
Mof_C 	C 	0.5878	0.3077	0.3385	-0.169
Mof_C 	C 	0.1907	0.349	0.2469	0.279
Mof_C 	C 	0.0804	0.2353	0.2344	-0.211
Mof_C 	C 	0.124	0.3076	0.1619	-0.2
Mof_C 	C 	0.3186	0.1783	0.3481	0.284
Mof_C 	C 	0.3191	0.0409	0.3087	-0.192
Mof_C 	C 	0.206	0.079	0.3604	-0.18
Mof_N 	N 	0.9865	0.3012	0.36655	-0.127
Mof_N 	N 	0.2437	0.2587	0.51613	-0.125
Mof_N 	N 	0.0935	0.574	0.42049	-0.134
Mof_N 	N 	0.4987	0.5704	0.4426	-0.113
Mof_N 	N 	0.313	0.6251	0.28198	-0.139
Mof_N 	N 	0.5345	0.3654	0.3063	-0.132
Mof_N 	N 	0.1356	0.2997	0.21632	-0.136
Mof_N 	N 	0.2829	0.1031	0.33909	-0.135
Mof_O 	O 	0.132	0.3444	0.38256	-0.412
Mof_O 	O 	0.2876	0.3429	0.4572	-0.413
Mof_O 	O 	0.2106	0.5083	0.39595	-0.426
Mof_O 	O 	0.4084	0.4559	0.42006	-0.415
Mof_O 	O 	0.3104	0.4979	0.32021	-0.414
Mof_O 	O 	0.4077	0.3407	0.33678	-0.403
Mof_O 	O 	0.1992	0.346	0.29345	-0.446
Mof_O 	O 	0.2919	0.2332	0.37466	-0.424
Mof_Gd	Gd	0.71843	0.88306	0.12731	1.923
Mof_H 	H 	0.9522	0.8667	0.1771	-0.097
Mof_H 	H 	0.064	0.7327	0.0836	0.054
Mof_H 	H 	0.9902	0.8015	0.0584	0.075
Mof_H 	H 	0.9585	0.7157	0.0815	0.079
Mof_H 	H 	0.1429	0.7644	0.1515	0.063
Mof_H 	H 	0.0941	0.7682	0.1983	0.067
Mof_H 	H 	0.1242	0.8544	0.175	0.065
Mof_H 	H 	0.6891	0.7251	0.0348	-0.064
Mof_H 	H 	0.8294	0.8059	0.9362	0.052
Mof_H 	H 	0.8533	0.8484	0.9907	0.084
Mof_H 	H 	0.7617	0.8739	0.9524	0.067
Mof_H 	H 	0.787	0.6794	0.932	0.05
Mof_H 	H 	0.69	0.661	0.9451	0.036
Mof_H 	H 	0.7806	0.633	0.9834	0.056
Mof_H 	H 	0.825	0.9896	0.0429	-0.073
Mof_H 	H 	0.9804	0.1624	0.1233	0.055
Mof_H 	H 	0.9427	0.089	0.1543	0.066
Mof_H 	H 	0.8759	0.1618	0.1272	0.055
Mof_H 	H 	0.0074	0.1298	0.054	0.057
Mof_H 	H 	0.9217	0.1063	0.0108	0.039
Mof_H 	H 	0.9898	0.033	0.0362	0.067
Mof_H 	H 	0.633	0.0676	0.0708	-0.068
Mof_H 	H 	0.3661	0.0638	0.0465	0.086
Mof_H 	H 	0.4173	0.0025	0.0902	0.076
Mof_H 	H 	0.4122	0.9777	0.0327	0.083
Mof_H 	H 	0.429	0.1766	0.0369	0.085
Mof_H 	H 	0.5189	0.1704	0.0145	0.077
Mof_H 	H 	0.5259	0.1944	0.0723	0.065
Mof_H 	H 	0.7897	0.0716	0.1983	-0.08
Mof_H 	H 	0.5732	0.1672	0.237	0.061
Mof_H 	H 	0.5829	0.0657	0.2385	0.081
Mof_H 	H 	0.5555	0.1138	0.1858	0.082
Mof_H 	H 	0.6954	0.2371	0.2543	0.057
Mof_H 	H 	0.7648	0.2288	0.2174	0.037
Mof_H 	H 	0.7844	0.1796	0.2699	0.04
Mof_H 	H 	0.5819	0.9211	0.2138	-0.058
Mof_H 	H 	0.357	0.896	0.2229	0.048
Mof_H 	H 	0.4184	0.9764	0.2158	0.05
Mof_H 	H 	0.4518	0.9112	0.261	0.041
Mof_H 	H 	0.3513	0.8057	0.1689	0.048
Mof_H 	H 	0.4398	0.751	0.1662	0.062
Mof_H 	H 	0.4079	0.8259	0.1267	0.044
Mof_H 	H 	0.774	0.8891	0.2668	-0.08
Mof_H 	H 	0.957	0.7058	0.2942	0.067
Mof_H 	H 	0.9589	0.7628	0.2457	0.072
Mof_H 	H 	0.88	0.6941	0.2446	0.076
Mof_H 	H 	0.9197	0.7649	0.3545	0.058
Mof_H 	H 	0.8175	0.7983	0.3478	0.053
Mof_H 	H 	0.8984	0.8647	0.3486	0.05
Mof_H 	H 	0.6314	0.6923	0.1666	-0.068
Mof_H 	H 	0.7168	0.4884	0.1936	0.051
Mof_H 	H 	0.6176	0.5284	0.1757	0.06
Mof_H 	H 	0.684	0.5641	0.225	0.052
Mof_H 	H 	0.8134	0.5212	0.1505	0.03
Mof_H 	H 	0.8441	0.6189	0.1511	0.06
Mof_H 	H 	0.7766	0.5807	0.1029	0.066
Mof_C 	C 	0.9439	0.8401	0.14515	0.294
Mof_C 	C 	0.0059	0.7594	0.0853	-0.204
Mof_C 	C 	0.1007	0.7967	0.1673	-0.214
Mof_C 	C 	0.7166	0.7725	0.0221	0.268
Mof_C 	C 	0.8041	0.8274	0.9642	-0.203
Mof_C 	C 	0.7532	0.6763	0.95905	-0.187
Mof_C 	C 	0.8382	0.021	0.0734	0.282
Mof_C 	C 	0.9282	0.1261	0.1248	-0.182
Mof_C 	C 	0.9607	0.0868	0.0421	-0.189
Mof_C 	C 	0.5806	0.0335	0.06962	0.273
Mof_C 	C 	0.4174	0.025	0.0566	-0.213
Mof_C 	C 	0.4931	0.1603	0.0442	-0.221
Mof_C 	C 	0.7271	0.0646	0.19843	0.273
Mof_C 	C 	0.5919	0.1173	0.22	-0.22
Mof_C 	C 	0.737	0.1987	0.2419	-0.193
Mof_C 	C 	0.5499	0.8792	0.192	0.249
Mof_C 	C 	0.4194	0.9165	0.226	-0.189
Mof_C 	C 	0.4122	0.8077	0.1615	-0.169
Mof_C 	C 	0.8093	0.849	0.2531	0.279
Mof_C 	C 	0.9196	0.7353	0.2656	-0.211
Mof_C 	C 	0.876	0.8076	0.3381	-0.2
Mof_C 	C 	0.6814	0.6783	0.1519	0.284
Mof_C 	C 	0.6809	0.5409	0.1913	-0.194
Mof_C 	C 	0.794	0.579	0.1396	-0.18
Mof_N 	N 	0.0135	0.8012	0.13345	-0.127
Mof_N 	N 	0.7563	0.7587	0.98387	-0.125
Mof_N 	N 	0.9065	0.074	0.07951	-0.134
Mof_N 	N 	0.5013	0.0704	0.0574	-0.114
Mof_N 	N 	0.687	0.1251	0.21802	-0.139
Mof_N 	N 	0.4655	0.8654	0.1937	-0.133
Mof_N 	N 	0.8644	0.7997	0.28368	-0.136
Mof_N 	N 	0.7171	0.6031	0.16091	-0.135
Mof_O 	O 	0.868	0.8444	0.11744	-0.412
Mof_O 	O 	0.7124	0.8429	0.0428	-0.413
Mof_O 	O 	0.7894	0.0083	0.10405	-0.426
Mof_O 	O 	0.5916	0.9559	0.07994	-0.415
Mof_O 	O 	0.6896	0.9979	0.17979	-0.414
Mof_O 	O 	0.5923	0.8407	0.16322	-0.403
Mof_O 	O 	0.8008	0.846	0.20655	-0.446
Mof_O 	O 	0.7081	0.7332	0.12534	-0.424
Mof_Cu	Cu	0.42466	0.19224	0.66592	0.827
Mof_Cu	Cu	0.23151	0.93466	0.6533	0.824
Mof_Cu	Cu	0.97136	0.02464	0.72615	0.828
Mof_Cu	Cu	0.731	0.19959	0.62284	0.823
Mof_Cu	Cu	0.2245	0.44454	0.65613	0.828
Mof_Cu	Cu	0.24566	0.6827	0.54186	0.826
Mof_Cu	Cu	0.57534	0.69224	0.83408	0.827
Mof_Cu	Cu	0.76849	0.43466	0.8467	0.824
Mof_Cu	Cu	0.02864	0.52464	0.77385	0.828
Mof_Cu	Cu	0.269	0.69959	0.87716	0.823
Mof_Cu	Cu	0.7755	0.94454	0.84387	0.828
Mof_Cu	Cu	0.75434	0.1827	0.95814	0.826
Mof_Cu	Cu	0.57534	0.80776	0.33408	0.827
Mof_Cu	Cu	0.76849	0.06534	0.3467	0.824
Mof_Cu	Cu	0.02864	0.97536	0.27385	0.828
Mof_Cu	Cu	0.269	0.80041	0.37716	0.823
Mof_Cu	Cu	0.7755	0.55546	0.34387	0.828
Mof_Cu	Cu	0.75434	0.3173	0.45814	0.826
Mof_Cu	Cu	0.42466	0.30776	0.16592	0.827
Mof_Cu	Cu	0.23151	0.56534	0.1533	0.824
Mof_Cu	Cu	0.97136	0.47536	0.22615	0.828
Mof_Cu	Cu	0.731	0.30041	0.12284	0.823
Mof_Cu	Cu	0.2245	0.05546	0.15613	0.828
Mof_Cu	Cu	0.24566	0.8173	0.04186	0.826
Mof_C 	C 	0.8369	0.152	0.6637	-0.226
Mof_C 	C 	0.1373	0.4734	0.6942	-0.215
Mof_C 	C 	0.0684	0.9775	0.7019	-0.22
Mof_C 	C 	0.3625	0.0896	0.6729	-0.213
Mof_C 	C 	0.2411	0.8417	0.6109	-0.236
Mof_C 	C 	0.3114	0.3569	0.6683	-0.219
Mof_C 	C 	0.5403	0.1886	0.649	-0.219
Mof_C 	C 	0.2261	0.5798	0.574	-0.214
Mof_C 	C 	0.7385	0.2891	0.5221	-0.226
Mof_C 	C 	0.1631	0.652	0.8363	-0.226
Mof_C 	C 	0.8627	0.9734	0.8058	-0.214
Mof_C 	C 	0.9316	0.4775	0.7981	-0.22
Mof_C 	C 	0.6375	0.5896	0.8271	-0.213
Mof_C 	C 	0.7589	0.3417	0.8891	-0.236
Mof_C 	C 	0.6886	0.8569	0.8317	-0.219
Mof_C 	C 	0.4597	0.6886	0.851	-0.219
Mof_C 	C 	0.7739	0.0798	0.926	-0.214
Mof_C 	C 	0.2615	0.7891	0.9779	-0.226
Mof_C 	C 	0.1631	0.848	0.3363	-0.226
Mof_C 	C 	0.8627	0.5266	0.3058	-0.215
Mof_C 	C 	0.9316	0.0225	0.2981	-0.22
Mof_C 	C 	0.6375	0.9104	0.3271	-0.213
Mof_C 	C 	0.7589	0.1583	0.3891	-0.236
Mof_C 	C 	0.6886	0.6431	0.3317	-0.219
Mof_C 	C 	0.4597	0.8114	0.351	-0.219
Mof_C 	C 	0.7739	0.4202	0.426	-0.214
Mof_C 	C 	0.2615	0.7109	0.4779	-0.226
Mof_C 	C 	0.8369	0.348	0.1637	-0.226
Mof_C 	C 	0.1373	0.0266	0.1942	-0.214
Mof_C 	C 	0.0684	0.5225	0.2019	-0.22
Mof_C 	C 	0.3625	0.4104	0.1729	-0.213
Mof_C 	C 	0.2411	0.6583	0.1109	-0.236
Mof_C 	C 	0.3114	0.1431	0.1683	-0.219
Mof_C 	C 	0.5403	0.3114	0.149	-0.219
Mof_C 	C 	0.2261	0.9202	0.074	-0.214
Mof_C 	C 	0.7385	0.2109	0.0221	-0.226
Mof_N 	N 	0.8975	0.1176	0.68825	-0.199
Mof_N 	N 	0.0884	0.4952	0.71997	-0.209
Mof_N 	N 	0.1283	0.9534	0.68509	-0.206
Mof_N 	N 	0.3184	0.0285	0.66938	-0.207
Mof_N 	N 	0.2458	0.7841	0.58527	-0.205
Mof_N 	N 	0.3593	0.2979	0.6715	-0.206
Mof_N 	N 	0.6103	0.1875	0.63815	-0.208
Mof_N 	N 	0.2206	0.5212	0.59906	-0.205
Mof_N 	N 	0.7336	0.2621	0.5617	-0.208
Mof_N 	N 	0.1025	0.6176	0.81175	-0.199
Mof_N 	N 	0.9116	0.9952	0.78003	-0.209
Mof_N 	N 	0.8717	0.4534	0.81491	-0.206
Mof_N 	N 	0.6816	0.5285	0.83062	-0.207
Mof_N 	N 	0.7542	0.2841	0.91473	-0.205
Mof_N 	N 	0.6407	0.7979	0.8285	-0.206
Mof_N 	N 	0.3897	0.6875	0.86185	-0.208
Mof_N 	N 	0.7794	0.0212	0.90094	-0.206
Mof_N 	N 	0.2664	0.7621	0.9383	-0.208
Mof_N 	N 	0.1025	0.8824	0.31175	-0.199
Mof_N 	N 	0.9116	0.5048	0.28003	-0.209
Mof_N 	N 	0.8717	0.0466	0.31491	-0.206
Mof_N 	N 	0.6816	0.9715	0.33062	-0.207
Mof_N 	N 	0.7542	0.2159	0.41473	-0.205
Mof_N 	N 	0.6407	0.7021	0.3285	-0.206
Mof_N 	N 	0.3897	0.8125	0.36185	-0.208
Mof_N 	N 	0.7794	0.4788	0.40094	-0.205
Mof_N 	N 	0.2664	0.7379	0.4383	-0.208
Mof_N 	N 	0.8975	0.3824	0.18825	-0.199
Mof_N 	N 	0.0884	0.0048	0.21997	-0.209
Mof_N 	N 	0.1283	0.5466	0.18509	-0.206
Mof_N 	N 	0.3184	0.4715	0.16938	-0.207
Mof_N 	N 	0.2458	0.7159	0.08527	-0.205
Mof_N 	N 	0.3593	0.2021	0.1715	-0.206
Mof_N 	N 	0.6103	0.3125	0.13815	-0.208
Mof_N 	N 	0.2206	0.9788	0.09906	-0.206
Mof_N 	N 	0.7336	0.2379	0.0617	-0.208
_end
