# CIF file generated by openbabel 3.1.0, see https://openbabel.org
data_I
_chemical_name_common 'image0'
_cell_length_a 11.2015
_cell_length_b 14.9693
_cell_length_c 21.4585
_cell_angle_alpha 90
_cell_angle_beta 92.098
_cell_angle_gamma 90
_space_group_name_H-M_alt 'P 1'
_space_group_name_Hall 'P 1'
loop_
    _symmetry_equiv_pos_as_xyz
    x,y,z
loop_
    _atom_site_label
    _atom_site_type_symbol
    _atom_site_fract_x
    _atom_site_fract_y
    _atom_site_fract_z
    _atom_site_occupancy
    Cu1      Cu       0.59755    0.23778    0.30033    1.000
    C1       C        0.42690    0.38540    0.29170    1.000
    H1       H        0.41890    0.38470    0.33470    1.000
    C2       C        0.47500    0.35300    0.19920    1.000
    H2       H        0.50900    0.32360    0.16600    1.000
    C3       C        0.31760    0.53160    0.27110    1.000
    H3       H        0.25570    0.54570    0.24000    1.000
    H4       H        0.27940    0.52110    0.31030    1.000
    C4       C        0.40000    0.60990    0.27850    1.000
    H5       H        0.44390    0.61700    0.24070    1.000
    H6       H        0.35320    0.66350    0.28410    1.000
    C5       C        0.48940    0.59980    0.33400    1.000
    H7       H        0.55570    0.56320    0.32130    1.000
    H8       H        0.45050    0.56860    0.36730    1.000
    C6       C        0.53800    0.68730    0.35900    1.000
    H9       H        0.57690    0.67710    0.39940    1.000
    H10      H        0.47160    0.72800    0.36490    1.000
    C7       C        0.70970    0.69410    0.28620    1.000
    H11      H        0.72420    0.63330    0.28210    1.000
    C8       C        0.72500    0.83300    0.28140    1.000
    H12      H        0.75390    0.88960    0.27220    1.000
    C9       C        0.36770    0.17520    0.35920    1.000
    H13      H        0.32180    0.17460    0.32220    1.000
    C10      C        0.51080    0.19850    0.42780    1.000
    H14      H        0.58150    0.21590    0.44840    1.000
    C11      C        0.42200    0.11550    0.51770    1.000
    H15      H        0.34550    0.12630    0.53560    1.000
    H16      H        0.48320    0.14420    0.54420    1.000
    C12      C        0.44600    0.01620    0.51560    1.000
    H17      H        0.37710    0.98810    0.49520    1.000
    H18      H        0.45040    0.99460    0.55820    1.000
    C13      C        0.69390    0.05790    0.33750    1.000
    H19      H        0.62820    0.03100    0.31740    1.000
    C14      C        0.81080    0.15570    0.37300    1.000
    H20      H        0.84660    0.20980    0.38390    1.000
    C15      C        0.96650    0.05530    0.42110    1.000
    H21      H        0.00890    0.01010    0.39820    1.000
    H22      H        0.01750    0.10760    0.42490    1.000
    C16      C        0.94200    0.02070    0.48480    1.000
    H23      H        0.91400    0.06910    0.51060    1.000
    H24      H        0.87960    0.97570    0.48180    1.000
    N1       N        0.48540    0.32600    0.25980    1.000
    N2       N        0.40700    0.42830    0.19410    1.000
    N3       N        0.38000    0.44780    0.25220    1.000
    N4       N        0.63130    0.82010    0.31640    1.000
    N5       N        0.62090    0.72830    0.31870    1.000
    N6       N        0.77520    0.75790    0.26040    1.000
    N7       N        0.48090    0.21380    0.36650    1.000
    N8       N        0.42340    0.15560    0.45270    1.000
    N9       N        0.33600    0.14030    0.41130    1.000
    N10      N        0.70830    0.14890    0.34250    1.000
    N11      N        0.78270    0.01290    0.36400    1.000
    N12      N        0.85650    0.07900    0.38630    1.000
    Cu2      Cu       0.90245    0.73778    0.19967    1.000
    C17      C        0.07310    0.88540    0.20830    1.000
    H25      H        0.08110    0.88470    0.16530    1.000
    C18      C        0.02500    0.85300    0.30080    1.000
    H26      H        0.99100    0.82360    0.33400    1.000
    C19      C        0.18240    0.03160    0.22890    1.000
    H27      H        0.24430    0.04570    0.26000    1.000
    H28      H        0.22060    0.02110    0.18970    1.000
    C20      C        0.10000    0.10990    0.22150    1.000
    H29      H        0.05610    0.11700    0.25930    1.000
    H30      H        0.14680    0.16350    0.21590    1.000
    C21      C        0.01060    0.09980    0.16600    1.000
    H31      H        0.94430    0.06320    0.17870    1.000
    H32      H        0.04950    0.06860    0.13270    1.000
    C22      C        0.96200    0.18730    0.14100    1.000
    H33      H        0.92310    0.17710    0.10060    1.000
    H34      H        0.02840    0.22800    0.13510    1.000
    C23      C        0.79030    0.19410    0.21380    1.000
    H35      H        0.77580    0.13330    0.21790    1.000
    C24      C        0.77500    0.33300    0.21860    1.000
    H36      H        0.74610    0.38960    0.22780    1.000
    C25      C        0.13230    0.67520    0.14080    1.000
    H37      H        0.17820    0.67460    0.17780    1.000
    C26      C        0.98920    0.69850    0.07220    1.000
    H38      H        0.91850    0.71590    0.05160    1.000
    C27      C        0.07800    0.61550    0.98230    1.000
    H39      H        0.15450    0.62630    0.96440    1.000
    H40      H        0.01680    0.64420    0.95580    1.000
    C28      C        0.05400    0.51620    0.98440    1.000
    H41      H        0.12290    0.48810    0.00480    1.000
    H42      H        0.04960    0.49460    0.94180    1.000
    C29      C        0.80610    0.55790    0.16250    1.000
    H43      H        0.87180    0.53100    0.18260    1.000
    C30      C        0.68920    0.65570    0.12700    1.000
    H44      H        0.65340    0.70980    0.11610    1.000
    C31      C        0.53350    0.55530    0.07890    1.000
    H45      H        0.49110    0.51010    0.10180    1.000
    H46      H        0.48250    0.60760    0.07510    1.000
    C32      C        0.55800    0.52070    0.01520    1.000
    H47      H        0.58600    0.56910    0.98940    1.000
    H48      H        0.62040    0.47570    0.01820    1.000
    N13      N        0.01460    0.82600    0.24020    1.000
    N14      N        0.09300    0.92830    0.30590    1.000
    N15      N        0.12000    0.94780    0.24780    1.000
    N16      N        0.86870    0.32010    0.18360    1.000
    N17      N        0.87910    0.22830    0.18130    1.000
    N18      N        0.72480    0.25790    0.23960    1.000
    N19      N        0.01910    0.71380    0.13350    1.000
    N20      N        0.07660    0.65560    0.04730    1.000
    N21      N        0.16400    0.64030    0.08870    1.000
    N22      N        0.79170    0.64890    0.15750    1.000
    N23      N        0.71730    0.51290    0.13600    1.000
    N24      N        0.64350    0.57900    0.11370    1.000
    Cu3      Cu       0.40245    0.76222    0.69967    1.000
    C33      C        0.57310    0.61460    0.70830    1.000
    H49      H        0.58110    0.61530    0.66530    1.000
    C34      C        0.52500    0.64700    0.80080    1.000
    H50      H        0.49100    0.67640    0.83400    1.000
    C35      C        0.68240    0.46840    0.72890    1.000
    H51      H        0.74430    0.45430    0.76000    1.000
    H52      H        0.72060    0.47890    0.68970    1.000
    C36      C        0.60000    0.39010    0.72150    1.000
    H53      H        0.55610    0.38300    0.75930    1.000
    H54      H        0.64680    0.33650    0.71590    1.000
    C37      C        0.51060    0.40020    0.66600    1.000
    H55      H        0.44430    0.43680    0.67870    1.000
    H56      H        0.54950    0.43140    0.63270    1.000
    C38      C        0.46200    0.31270    0.64100    1.000
    H57      H        0.42310    0.32290    0.60060    1.000
    H58      H        0.52840    0.27200    0.63510    1.000
    C39      C        0.29030    0.30590    0.71380    1.000
    H59      H        0.27580    0.36670    0.71790    1.000
    C40      C        0.27500    0.16700    0.71860    1.000
    H60      H        0.24610    0.11040    0.72780    1.000
    C41      C        0.63230    0.82480    0.64080    1.000
    H61      H        0.67820    0.82540    0.67780    1.000
    C42      C        0.48920    0.80150    0.57220    1.000
    H62      H        0.41850    0.78410    0.55160    1.000
    C43      C        0.57800    0.88450    0.48230    1.000
    H63      H        0.65450    0.87370    0.46440    1.000
    H64      H        0.51680    0.85580    0.45580    1.000
    C44      C        0.55400    0.98380    0.48440    1.000
    H65      H        0.62290    0.01190    0.50480    1.000
    H66      H        0.54960    0.00540    0.44180    1.000
    C45      C        0.30610    0.94210    0.66250    1.000
    H67      H        0.37180    0.96900    0.68260    1.000
    C46      C        0.18920    0.84430    0.62700    1.000
    H68      H        0.15340    0.79020    0.61610    1.000
    C47      C        0.03350    0.94470    0.57890    1.000
    H69      H        0.99110    0.98990    0.60180    1.000
    H70      H        0.98250    0.89240    0.57510    1.000
    C48      C        0.05800    0.97930    0.51520    1.000
    H71      H        0.08600    0.93090    0.48940    1.000
    H72      H        0.12040    0.02430    0.51820    1.000
    N25      N        0.51460    0.67400    0.74020    1.000
    N26      N        0.59300    0.57170    0.80590    1.000
    N27      N        0.62000    0.55220    0.74780    1.000
    N28      N        0.36870    0.17990    0.68360    1.000
    N29      N        0.37910    0.27170    0.68130    1.000
    N30      N        0.22480    0.24210    0.73960    1.000
    N31      N        0.51910    0.78620    0.63350    1.000
    N32      N        0.57660    0.84440    0.54730    1.000
    N33      N        0.66400    0.85970    0.58870    1.000
    N34      N        0.29170    0.85110    0.65750    1.000
    N35      N        0.21730    0.98710    0.63600    1.000
    N36      N        0.14350    0.92100    0.61370    1.000
    Cu4      Cu       0.09755    0.26222    0.80033    1.000
    C49      C        0.92690    0.11460    0.79170    1.000
    H73      H        0.91890    0.11530    0.83470    1.000
    C50      C        0.97500    0.14700    0.69920    1.000
    H74      H        0.00900    0.17640    0.66600    1.000
    C51      C        0.81760    0.96840    0.77110    1.000
    H75      H        0.75570    0.95430    0.74000    1.000
    H76      H        0.77940    0.97890    0.81030    1.000
    C52      C        0.90000    0.89010    0.77850    1.000
    H77      H        0.94390    0.88300    0.74070    1.000
    H78      H        0.85320    0.83650    0.78410    1.000
    C53      C        0.98940    0.90020    0.83400    1.000
    H79      H        0.05570    0.93680    0.82130    1.000
    H80      H        0.95050    0.93140    0.86730    1.000
    C54      C        0.03800    0.81270    0.85900    1.000
    H81      H        0.07690    0.82290    0.89940    1.000
    H82      H        0.97160    0.77200    0.86490    1.000
    C55      C        0.20970    0.80590    0.78620    1.000
    H83      H        0.22420    0.86670    0.78210    1.000
    C56      C        0.22500    0.66700    0.78140    1.000
    H84      H        0.25390    0.61040    0.77220    1.000
    C57      C        0.86770    0.32480    0.85920    1.000
    H85      H        0.82180    0.32540    0.82220    1.000
    C58      C        0.01080    0.30150    0.92780    1.000
    H86      H        0.08150    0.28410    0.94840    1.000
    C59      C        0.92200    0.38450    0.01770    1.000
    H87      H        0.84550    0.37370    0.03560    1.000
    H88      H        0.98320    0.35580    0.04420    1.000
    C60      C        0.94600    0.48380    0.01560    1.000
    H89      H        0.87710    0.51190    0.99520    1.000
    H90      H        0.95040    0.50540    0.05820    1.000
    C61      C        0.19390    0.44210    0.83750    1.000
    H91      H        0.12820    0.46900    0.81740    1.000
    C62      C        0.31080    0.34430    0.87300    1.000
    H92      H        0.34660    0.29020    0.88390    1.000
    C63      C        0.46650    0.44470    0.92110    1.000
    H93      H        0.50890    0.48990    0.89820    1.000
    H94      H        0.51750    0.39240    0.92490    1.000
    C64      C        0.44200    0.47930    0.98480    1.000
    H95      H        0.41400    0.43090    0.01060    1.000
    H96      H        0.37960    0.52430    0.98180    1.000
    N37      N        0.98540    0.17400    0.75980    1.000
    N38      N        0.90700    0.07170    0.69410    1.000
    N39      N        0.88000    0.05220    0.75220    1.000
    N40      N        0.13130    0.67990    0.81640    1.000
    N41      N        0.12090    0.77170    0.81870    1.000
    N42      N        0.27520    0.74210    0.76040    1.000
    N43      N        0.98090    0.28620    0.86650    1.000
    N44      N        0.92340    0.34440    0.95270    1.000
    N45      N        0.83600    0.35970    0.91130    1.000
    N46      N        0.20830    0.35110    0.84250    1.000
    N47      N        0.28270    0.48710    0.86400    1.000
    N48      N        0.35650    0.42100    0.88630    1.000
