data_functionalizedCrystal
_audit_creation_method	'EQeq! by Chris Wilmer'
_symmetry_space_group_name_H-M	'P1'
_symmetry_Int_Tables_number	1
_symmetry_cell_setting	triclinic
loop_
_symmetry_equiv_pos_as_xyz
  x,y,z
_cell_length_a	11.0385
_cell_length_b	15.1758
_cell_length_c	15.1758
_cell_angle_alpha	65.6807
_cell_angle_beta	75.9684
_cell_angle_gamma	104.032
loop_
_atom_site_label
_atom_site_type_symbol
_atom_site_fract_x
_atom_site_fract_y
_atom_site_fract_z
_atom_site_charge
Mof_Fe	Fe	0.5	0.5	0.5	0.587
Mof_H 	H 	0.2332	0.3445	0.5317	0.113
Mof_H 	H 	0.4766	0.6868	0.2917	0.239
Mof_H 	H 	0.3521	0.7069	0.2683	0.221
Mof_H 	H 	0.4446	0.6752	0.2009	0.218
Mof_H 	H 	0.0343	0.2424	0.5292	0.291
Mof_H 	H 	0.0436	0.2761	0.4144	0.29
Mof_H 	H 	0.9558	0.3104	0.4817	0.312
Mof_H 	H 	0.0269	0.7108	0.2413	0.225
Mof_H 	H 	0.1598	0.7136	0.2621	0.215
Mof_H 	H 	0.019	0.6295	0.3502	0.221
Mof_H 	H 	0.1354	0.3752	0.1448	0.232
Mof_H 	H 	0.1281	0.3312	0.2601	0.225
Mof_H 	H 	0.2626	0.4187	0.1661	0.225
Mof_H 	H 	0.9916	0.6287	0.1394	0.142
Mof_H 	H 	0.7668	0.6555	0.4683	0.112
Mof_H 	H 	0.5234	0.3132	0.7083	0.242
Mof_H 	H 	0.6479	0.2931	0.7317	0.223
Mof_H 	H 	0.5554	0.3248	0.7991	0.228
Mof_H 	H 	0.9657	0.7576	0.4708	0.219
Mof_H 	H 	0.9564	0.7239	0.5856	0.216
Mof_H 	H 	0.0442	0.6896	0.5183	0.186
Mof_H 	H 	0.9731	0.2892	0.7587	0.271
Mof_H 	H 	0.8402	0.2864	0.7379	0.244
Mof_H 	H 	0.981	0.3705	0.6498	0.262
Mof_H 	H 	0.8646	0.6248	0.8552	0.27
Mof_H 	H 	0.8719	0.6688	0.7399	0.258
Mof_H 	H 	0.7374	0.5813	0.8339	0.254
Mof_H 	H 	0.0084	0.3713	0.8606	0.097
Mof_C 	C 	0.27599	0.34928	0.73571	0.049
Mof_C 	C 	0.31848	0.55295	0.34451	0.251
Mof_C 	C 	0.20277	0.49266	0.33945	-0.193
Mof_C 	C 	0.1558	0.3939	0.426	0.312
Mof_C 	C 	0.4057	0.6654	0.2697	-0.731
Mof_C 	C 	0.0369	0.2972	0.4664	-0.944
Mof_C 	C 	0.0837	0.5952	0.2361	0.242
Mof_C 	C 	0.14181	0.52195	0.26062	-0.152
Mof_C 	C 	0.11964	0.47464	0.19942	0.23
Mof_C 	C 	0.0713	0.6689	0.2759	-0.729
Mof_C 	C 	0.1655	0.3927	0.192	-0.721
Mof_C 	C 	0.72401	0.65072	0.26429	0.056
Mof_C 	C 	0.68152	0.44705	0.65549	0.241
Mof_C 	C 	0.79723	0.50734	0.66055	-0.142
Mof_C 	C 	0.8442	0.6061	0.574	0.233
Mof_C 	C 	0.5943	0.3346	0.7303	-0.733
Mof_C 	C 	0.9631	0.7028	0.5336	-0.648
Mof_C 	C 	0.9163	0.4048	0.7639	0.284
Mof_C 	C 	0.85819	0.47805	0.73938	-0.179
Mof_C 	C 	0.88036	0.52536	0.80058	0.274
Mof_C 	C 	0.9287	0.3311	0.7241	-0.802
Mof_C 	C 	0.8345	0.6073	0.808	-0.791
Mof_S 	S 	0.18444	0.28277	0.86066	-0.117
Mof_S 	S 	0.81556	0.71723	0.13934	-0.123
Mof_N 	N 	0.34368	0.39636	0.64662	-0.206
Mof_N 	N 	0.34138	0.49398	0.42834	-0.175
Mof_N 	N 	0.2413	0.39756	0.47586	-0.234
Mof_N 	N 	0.05068	0.515	0.14246	-0.171
Mof_N 	N 	0.03215	0.58952	0.16637	-0.247
Mof_N 	N 	0.65632	0.60364	0.35338	-0.207
Mof_N 	N 	0.65862	0.50602	0.57166	-0.173
Mof_N 	N 	0.7587	0.60244	0.52414	-0.214
Mof_N 	N 	0.94932	0.485	0.85754	-0.153
Mof_N 	N 	0.96785	0.41048	0.83363	-0.2
Mof_Fe	Fe	-0	0.5	-0	0.512
Mof_H 	H 	0.7649	0.5317	0.1238	0.111
Mof_H 	H 	0.7683	0.2917	0.0215	0.226
Mof_H 	H 	0.6204	0.2683	0.0248	0.203
Mof_H 	H 	0.6455	0.2009	0.1239	0.206
Mof_H 	H 	0.5635	0.5292	0.2284	0.247
Mof_H 	H 	0.458	0.4144	0.3095	0.248
Mof_H 	H 	0.4375	0.4817	0.2079	0.242
Mof_H 	H 	0.2682	0.2413	0.0479	0.22
Mof_H 	H 	0.4219	0.2621	0.0243	0.204
Mof_H 	H 	0.3692	0.3502	0.0203	0.216
Mof_H 	H 	0.2802	0.1448	0.48	0.244
Mof_H 	H 	0.3882	0.2601	0.4087	0.238
Mof_H 	H 	0.4287	0.1661	0.4152	0.233
Mof_H 	H 	0.131	0.1394	0.2319	0.103
Mof_H 	H 	0.2351	0.4683	0.8762	0.119
Mof_H 	H 	0.2317	0.7083	0.9785	0.261
Mof_H 	H 	0.3796	0.7317	0.9752	0.242
Mof_H 	H 	0.3545	0.7991	0.8761	0.24
Mof_H 	H 	0.4365	0.4708	0.7716	0.258
Mof_H 	H 	0.542	0.5856	0.6905	0.253
Mof_H 	H 	0.5625	0.5183	0.7921	0.254
Mof_H 	H 	0.7318	0.7587	0.9521	0.279
Mof_H 	H 	0.5781	0.7379	0.9757	0.256
Mof_H 	H 	0.6308	0.6498	0.9797	0.269
Mof_H 	H 	0.7198	0.8552	0.52	0.257
Mof_H 	H 	0.6118	0.7399	0.5913	0.244
Mof_H 	H 	0.5713	0.8339	0.5848	0.246
Mof_H 	H 	0.869	0.8606	0.7681	0.137
Mof_C 	C 	0.0117	0.73571	0.91501	0.014
Mof_C 	C 	0.66299	0.34451	0.10254	0.232
Mof_C 	C 	0.54222	0.33945	0.16789	-0.165
Mof_C 	C 	0.5818	0.426	0.1801	0.265
Mof_C 	C 	0.6754	0.2697	0.0649	-0.698
Mof_C 	C 	0.5033	0.4664	0.2364	-0.783
Mof_C 	C 	0.3198	0.2361	0.1687	0.24
Mof_C 	C 	0.40243	0.26062	0.21743	-0.159
Mof_C 	C 	0.31906	0.19942	0.32594	0.244
Mof_C 	C 	0.3472	0.2759	0.0552	-0.712
Mof_C 	C 	0.3575	0.192	0.4153	-0.745
Mof_C 	C 	0.9883	0.26429	0.08499	0.087
Mof_C 	C 	0.33701	0.65549	0.89746	0.26
Mof_C 	C 	0.45778	0.66055	0.83211	-0.168
Mof_C 	C 	0.4182	0.574	0.8199	0.278
Mof_C 	C 	0.3246	0.7303	0.9351	-0.768
Mof_C 	C 	0.4967	0.5336	0.7636	-0.8
Mof_C 	C 	0.6802	0.7639	0.8313	0.287
Mof_C 	C 	0.59757	0.73938	0.78257	-0.172
Mof_C 	C 	0.68094	0.80058	0.67406	0.259
Mof_C 	C 	0.6528	0.7241	0.9448	-0.823
Mof_C 	C 	0.6425	0.808	0.5847	-0.765
Mof_S 	S 	0.0451	0.86066	0.85657	-0.102
Mof_S 	S 	0.9549	0.13934	0.14343	-0.136
Mof_N 	N 	0.9903	0.64662	0.95702	-0.158
Mof_N 	N 	0.76972	0.42834	0.07768	-0.168
Mof_N 	N 	0.71716	0.47586	0.12658	-0.223
Mof_N 	N 	0.19314	0.14246	0.34254	-0.172
Mof_N 	N 	0.19852	0.16637	0.24411	-0.219
Mof_N 	N 	0.0097	0.35338	0.04298	-0.234
Mof_N 	N 	0.23028	0.57166	0.92232	-0.164
Mof_N 	N 	0.28284	0.52414	0.87342	-0.223
Mof_N 	N 	0.80686	0.85754	0.65746	-0.154
Mof_N 	N 	0.80148	0.83363	0.75589	-0.228
Mof_Fe	Fe	1.37157e-17	0	0.5	0.519
Mof_H 	H 	0.8887	0.1238	0.3445	0.116
Mof_H 	H 	0.7898	0.0215	0.6868	0.239
Mof_H 	H 	0.6452	0.0248	0.7069	0.216
Mof_H 	H 	0.7694	0.1239	0.6752	0.224
Mof_H 	H 	0.7919	0.2284	0.2424	0.255
Mof_H 	H 	0.7675	0.3095	0.2761	0.256
Mof_H 	H 	0.6454	0.2079	0.3104	0.246
Mof_H 	H 	0.3161	0.0479	0.7108	0.236
Mof_H 	H 	0.4462	0.0243	0.7136	0.216
Mof_H 	H 	0.3895	0.0203	0.6295	0.226
Mof_H 	H 	0.7602	0.48	0.3752	0.257
Mof_H 	H 	0.7969	0.4087	0.3312	0.251
Mof_H 	H 	0.8439	0.4152	0.4187	0.249
Mof_H 	H 	0.3629	0.2319	0.6287	0.118
Mof_H 	H 	0.1113	0.8762	0.6555	0.115
Mof_H 	H 	0.2102	0.9785	0.3132	0.247
Mof_H 	H 	0.3548	0.9752	0.2931	0.229
Mof_H 	H 	0.2306	0.8761	0.3248	0.223
Mof_H 	H 	0.2081	0.7716	0.7576	0.255
Mof_H 	H 	0.2325	0.6905	0.7239	0.251
Mof_H 	H 	0.3546	0.7921	0.6896	0.252
Mof_H 	H 	0.6839	0.9521	0.2892	0.262
Mof_H 	H 	0.5538	0.9757	0.2864	0.243
Mof_H 	H 	0.6105	0.9797	0.3705	0.258
Mof_H 	H 	0.2398	0.52	0.6248	0.239
Mof_H 	H 	0.2031	0.5913	0.6688	0.23
Mof_H 	H 	0.1561	0.5848	0.5813	0.228
Mof_H 	H 	0.6371	0.7681	0.3713	0.119
Mof_C 	C 	0.92671	0.91501	0.34928	0.06
Mof_C 	C 	0.76553	0.10254	0.55295	0.243
Mof_C 	C 	0.71011	0.16789	0.49266	-0.168
Mof_C 	C 	0.7619	0.1801	0.3939	0.273
Mof_C 	C 	0.7403	0.0649	0.6654	-0.727
Mof_C 	C 	0.7397	0.2364	0.2972	-0.796
Mof_C 	C 	0.4885	0.1687	0.5952	0.255
Mof_C 	C 	0.61986	0.21743	0.52195	-0.164
Mof_C 	C 	0.645	0.32594	0.47464	0.255
Mof_C 	C 	0.4024	0.0552	0.6689	-0.739
Mof_C 	C 	0.7728	0.4153	0.3927	-0.773
Mof_C 	C 	0.07329	0.08499	0.65072	0.041
Mof_C 	C 	0.23447	0.89746	0.44705	0.249
Mof_C 	C 	0.28989	0.83211	0.50734	-0.167
Mof_C 	C 	0.2381	0.8199	0.6061	0.274
Mof_C 	C 	0.2597	0.9351	0.3346	-0.739
Mof_C 	C 	0.2603	0.7636	0.7028	-0.797
Mof_C 	C 	0.5115	0.8313	0.4048	0.272
Mof_C 	C 	0.38014	0.78257	0.47805	-0.166
Mof_C 	C 	0.355	0.67406	0.52536	0.246
Mof_C 	C 	0.5976	0.9448	0.3311	-0.794
Mof_C 	C 	0.2272	0.5847	0.6073	-0.735
Mof_S 	S 	0.90167	0.85657	0.28277	-0.1
Mof_S 	S 	0.09833	0.14343	0.71723	-0.139
Mof_N 	N 	0.94732	0.95702	0.39636	-0.182
Mof_N 	N 	0.8474	0.07768	0.49398	-0.167
Mof_N 	N 	0.84374	0.12658	0.39756	-0.224
Mof_N 	N 	0.53568	0.34254	0.515	-0.169
Mof_N 	N 	0.44263	0.24411	0.58952	-0.222
Mof_N 	N 	0.05268	0.04298	0.60364	-0.212
Mof_N 	N 	0.1526	0.92232	0.50602	-0.166
Mof_N 	N 	0.15626	0.87342	0.60244	-0.223
Mof_N 	N 	0.46432	0.65746	0.485	-0.168
Mof_N 	N 	0.55737	0.75589	0.41048	-0.226
_end
