data_functionalizedCrystal
_audit_creation_method	'EQeq! by Chris Wilmer'
_symmetry_space_group_name_H-M	'P1'
_symmetry_Int_Tables_number	1
_symmetry_cell_setting	triclinic
loop_
_symmetry_equiv_pos_as_xyz
  x,y,z
_cell_length_a	16.2948
_cell_length_b	16.2948
_cell_length_c	19.3671
_cell_angle_alpha	90
_cell_angle_beta	90
_cell_angle_gamma	120
loop_
_atom_site_label
_atom_site_type_symbol
_atom_site_fract_x
_atom_site_fract_y
_atom_site_fract_z
_atom_site_charge
Mof_Mn	Mn	0.50065	0.78404	0.38441	0.936
Mof_O 	O 	0.44909	0.82162	0.45757	-0.355
Mof_O 	O 	0.62195	0.88088	0.41056	-0.349
Mof_N 	N 	0.36758	0.68875	0.355	-0.168
Mof_N 	N 	0.55854	0.7493	0.30471	-0.164
Mof_N 	N 	0.49293	0.89456	0.30768	-0.14
Mof_N 	N 	0.33598	0.84091	0.11339	-0.136
Mof_N 	N 	0.59574	0.85805	0.12105	-0.081
Mof_C 	C 	0.37484	0.83401	0.45056	0.154
Mof_C 	C 	0.36728	0.89984	0.49327	-0.086
Mof_H 	H 	0.4156	0.9352	0.5261	0.066
Mof_C 	C 	0.29073	0.91358	0.48794	-0.125
Mof_H 	H 	0.2866	0.9585	0.5168	0.109
Mof_C 	C 	0.21961	0.86173	0.44034	0.201
Mof_C 	C 	0.22316	0.79533	0.39901	-0.143
Mof_H 	H 	0.173	0.7589	0.3677	0.103
Mof_C 	C 	0.30166	0.78134	0.40322	-0.04
Mof_C 	C 	0.2987	0.70521	0.36305	0.011
Mof_H 	H 	0.2407	0.6635	0.3405	0.026
Mof_C 	C 	0.34631	0.59937	0.32082	-0.29
Mof_H 	H 	0.2786	0.5648	0.3074	0.112
Mof_H 	H 	0.3567	0.5594	0.3541	0.108
Mof_C 	C 	0.40689	0.61404	0.25647	0.447
Mof_C 	C 	0.51132	0.65235	0.27555	-0.29
Mof_H 	H 	0.5152	0.6091	0.3096	0.114
Mof_H 	H 	0.5461	0.6522	0.2337	0.119
Mof_C 	C 	0.63844	0.8096	0.27766	0.035
Mof_H 	H 	0.6575	0.7899	0.2375	0.046
Mof_C 	C 	0.70185	0.90432	0.30241	-0.036
Mof_C 	C 	0.78237	0.9627	0.26239	-0.1
Mof_H 	H 	0.7915	0.9407	0.2192	0.128
Mof_C 	C 	0.84746	0.05093	0.28542	0.192
Mof_C 	C 	0.83507	0.08497	0.34818	-0.07
Mof_H 	H 	0.8799	0.1472	0.3629	0.1
Mof_C 	C 	0.75752	0.02818	0.38889	-0.116
Mof_H 	H 	0.7494	0.0515	0.4317	0.095
Mof_C 	C 	0.69036	0.93598	0.36743	0.208
Mof_C 	C 	0.39524	0.67854	0.20544	-0.779
Mof_H 	H 	0.3281	0.6509	0.1933	0.26
Mof_H 	H 	0.432	0.6853	0.1636	0.256
Mof_H 	H 	0.4181	0.741	0.2264	0.259
Mof_C 	C 	0.3727	0.51572	0.22489	-0.78
Mof_H 	H 	0.3052	0.4863	0.2134	0.255
Mof_H 	H 	0.3821	0.4759	0.2582	0.253
Mof_H 	H 	0.4089	0.5222	0.1828	0.253
Mof_C 	C 	0.40639	0.90251	0.13404	-0.075
Mof_C 	C 	0.57365	0.91231	0.13713	-0.096
Mof_C 	C 	0.50598	0.9367	0.25679	-0.083
Mof_Cl	Cl	0.12431	0.88233	0.43255	-0.295
Mof_Cl	Cl	0.94738	0.1227	0.2353	-0.306
Mof_Mn	Mn	0.21596	0.71661	0.05108	0.929
Mof_O 	O 	0.17838	0.62747	0.12424	-0.359
Mof_O 	O 	0.11912	0.74107	0.07723	-0.34
Mof_N 	N 	0.31125	0.67883	0.02167	-0.169
Mof_N 	N 	0.2507	0.80924	0.97138	-0.158
Mof_N 	N 	0.10544	0.59837	0.97435	-0.14
Mof_N 	N 	0.15909	0.49507	0.78006	-0.136
Mof_N 	N 	0.14195	0.73769	0.78772	-0.08
Mof_C 	C 	0.16599	0.54083	0.11723	0.151
Mof_C 	C 	0.10016	0.46744	0.15994	-0.089
Mof_H 	H 	0.0648	0.4804	0.19277	0.058
Mof_C 	C 	0.08642	0.37715	0.15461	-0.128
Mof_H 	H 	0.0415	0.3281	0.18347	0.1
Mof_C 	C 	0.13827	0.35788	0.10701	0.2
Mof_C 	C 	0.20467	0.42783	0.06568	-0.145
Mof_H 	H 	0.2411	0.4141	0.03437	0.104
Mof_C 	C 	0.21866	0.52032	0.06989	-0.039
Mof_C 	C 	0.29479	0.59349	0.02972	0.01
Mof_H 	H 	0.3365	0.5772	0.00717	0.027
Mof_C 	C 	0.40063	0.74694	0.98749	-0.292
Mof_H 	H 	0.4352	0.7138	0.97407	0.113
Mof_H 	H 	0.4406	0.7973	0.02077	0.109
Mof_C 	C 	0.38596	0.79285	0.92314	0.453
Mof_C 	C 	0.34765	0.85897	0.94222	-0.296
Mof_H 	H 	0.3909	0.9061	0.97627	0.118
Mof_H 	H 	0.3478	0.8939	0.90037	0.124
Mof_C 	C 	0.1904	0.82884	0.94433	0.013
Mof_H 	H 	0.2101	0.8676	0.90417	0.055
Mof_C 	C 	0.09568	0.79753	0.96908	0.009
Mof_C 	C 	0.0373	0.81967	0.92906	-0.179
Mof_H 	H 	0.0593	0.8508	0.88587	0.148
Mof_C 	C 	0.94907	0.79653	0.95209	0.259
Mof_C 	C 	0.91503	0.7501	0.01485	-0.127
Mof_H 	H 	0.8528	0.7327	0.02957	0.117
Mof_C 	C 	0.97182	0.72934	0.05556	-0.033
Mof_H 	H 	0.9485	0.6979	0.09837	0.074
Mof_C 	C 	0.06402	0.75438	0.0341	0.14
Mof_C 	C 	0.32146	0.7167	0.87211	-0.786
Mof_H 	H 	0.3491	0.6772	0.85997	0.262
Mof_H 	H 	0.3147	0.7467	0.83027	0.259
Mof_H 	H 	0.259	0.6771	0.89307	0.261
Mof_C 	C 	0.48428	0.85698	0.89156	-0.79
Mof_H 	H 	0.5137	0.8189	0.88007	0.259
Mof_H 	H 	0.5241	0.9062	0.92487	0.259
Mof_H 	H 	0.4778	0.8867	0.84947	0.259
Mof_C 	C 	0.09749	0.50388	0.80071	-0.088
Mof_C 	C 	0.08769	0.66134	0.8038	-0.111
Mof_C 	C 	0.0633	0.56928	0.92346	-0.099
Mof_Cl	Cl	0.11767	0.24198	0.09922	-0.307
Mof_Cl	Cl	0.8773	0.82468	0.90197	-0.316
Mof_Mn	Mn	0.28339	0.49935	0.71774	0.931
Mof_O 	O 	0.37253	0.55091	0.7909	-0.358
Mof_O 	O 	0.25893	0.37805	0.74389	-0.347
Mof_N 	N 	0.32117	0.63242	0.68833	-0.169
Mof_N 	N 	0.19076	0.44146	0.63804	-0.163
Mof_N 	N 	0.40163	0.50707	0.64101	-0.139
Mof_N 	N 	0.50493	0.66402	0.44672	-0.134
Mof_N 	N 	0.26231	0.40426	0.45438	-0.079
Mof_C 	C 	0.45917	0.62516	0.78389	0.152
Mof_C 	C 	0.53256	0.63272	0.8266	-0.088
Mof_H 	H 	0.5196	0.5844	0.85943	0.062
Mof_C 	C 	0.62285	0.70927	0.82127	-0.126
Mof_H 	H 	0.6719	0.7134	0.85013	0.105
Mof_C 	C 	0.64212	0.78039	0.77367	0.2
Mof_C 	C 	0.57217	0.77684	0.73234	-0.143
Mof_H 	H 	0.5859	0.827	0.70103	0.107
Mof_C 	C 	0.47968	0.69834	0.73655	-0.039
Mof_C 	C 	0.40651	0.7013	0.69638	0.01
Mof_H 	H 	0.4228	0.7593	0.67383	0.029
Mof_C 	C 	0.25306	0.65369	0.65415	-0.289
Mof_H 	H 	0.2862	0.7214	0.64073	0.113
Mof_H 	H 	0.2027	0.6433	0.68743	0.107
Mof_C 	C 	0.20715	0.59311	0.5898	0.443
Mof_C 	C 	0.14103	0.48868	0.60888	-0.286
Mof_H 	H 	0.0939	0.4848	0.64293	0.109
Mof_H 	H 	0.1061	0.4539	0.56703	0.115
Mof_C 	C 	0.17116	0.36156	0.61099	0.023
Mof_H 	H 	0.1324	0.3425	0.57083	0.047
Mof_C 	C 	0.20247	0.29815	0.63574	-0.017
Mof_C 	C 	0.18033	0.21763	0.59572	-0.142
Mof_H 	H 	0.1492	0.2085	0.55253	0.136
Mof_C 	C 	0.20347	0.15254	0.61875	0.224
Mof_C 	C 	0.2499	0.16493	0.68151	-0.1
Mof_H 	H 	0.2673	0.1201	0.69623	0.104
Mof_C 	C 	0.27066	0.24248	0.72222	-0.077
Mof_H 	H 	0.3021	0.2506	0.76503	0.084
Mof_C 	C 	0.24562	0.30964	0.70076	0.175
Mof_C 	C 	0.2833	0.60476	0.53877	-0.776
Mof_H 	H 	0.3228	0.6719	0.52663	0.26
Mof_H 	H 	0.2533	0.568	0.49693	0.254
Mof_H 	H 	0.3229	0.5819	0.55973	0.258
Mof_C 	C 	0.14302	0.6273	0.55822	-0.772
Mof_H 	H 	0.1811	0.6948	0.54673	0.252
Mof_H 	H 	0.0938	0.6179	0.59153	0.248
Mof_H 	H 	0.1133	0.5911	0.51613	0.248
Mof_C 	C 	0.49612	0.59361	0.46737	-0.086
Mof_C 	C 	0.33866	0.42635	0.47046	-0.11
Mof_C 	C 	0.43072	0.49402	0.59012	-0.097
Mof_Cl	Cl	0.75802	0.87569	0.76588	-0.287
Mof_Cl	Cl	0.17532	0.05262	0.56863	-0.328
Mof_Mn	Mn	0.78404	0.50065	0.61559	0.935
Mof_O 	O 	0.82162	0.44909	0.54243	-0.356
Mof_O 	O 	0.88088	0.62195	0.58944	-0.35
Mof_N 	N 	0.68875	0.36758	0.645	-0.169
Mof_N 	N 	0.7493	0.55854	0.69529	-0.165
Mof_N 	N 	0.89456	0.49293	0.69232	-0.141
Mof_N 	N 	0.84091	0.33598	0.88661	-0.137
Mof_N 	N 	0.85805	0.59574	0.87895	-0.081
Mof_C 	C 	0.83401	0.37484	0.54944	0.154
Mof_C 	C 	0.89984	0.36728	0.50673	-0.086
Mof_H 	H 	0.9352	0.4156	0.4739	0.066
Mof_C 	C 	0.91358	0.29073	0.51206	-0.125
Mof_H 	H 	0.9585	0.2866	0.4832	0.109
Mof_C 	C 	0.86173	0.21961	0.55966	0.201
Mof_C 	C 	0.79533	0.22316	0.60099	-0.143
Mof_H 	H 	0.7589	0.173	0.6323	0.103
Mof_C 	C 	0.78134	0.30166	0.59678	-0.04
Mof_C 	C 	0.70521	0.2987	0.63695	0.011
Mof_H 	H 	0.6635	0.2407	0.6595	0.026
Mof_C 	C 	0.59937	0.34631	0.67918	-0.29
Mof_H 	H 	0.5648	0.2786	0.6926	0.112
Mof_H 	H 	0.5594	0.3567	0.6459	0.108
Mof_C 	C 	0.61404	0.40689	0.74353	0.447
Mof_C 	C 	0.65235	0.51132	0.72445	-0.29
Mof_H 	H 	0.6091	0.5152	0.6904	0.114
Mof_H 	H 	0.6522	0.5461	0.7663	0.119
Mof_C 	C 	0.8096	0.63844	0.72234	0.035
Mof_H 	H 	0.7899	0.6575	0.7625	0.046
Mof_C 	C 	0.90432	0.70185	0.69759	-0.036
Mof_C 	C 	0.9627	0.78237	0.73761	-0.1
Mof_H 	H 	0.9407	0.7915	0.7808	0.128
Mof_C 	C 	0.05093	0.84746	0.71458	0.192
Mof_C 	C 	0.08497	0.83507	0.65182	-0.07
Mof_H 	H 	0.1472	0.8799	0.6371	0.1
Mof_C 	C 	0.02818	0.75752	0.61111	-0.116
Mof_H 	H 	0.0515	0.7494	0.5683	0.095
Mof_C 	C 	0.93598	0.69036	0.63257	0.208
Mof_C 	C 	0.67854	0.39524	0.79456	-0.779
Mof_H 	H 	0.6509	0.3281	0.8067	0.26
Mof_H 	H 	0.6853	0.432	0.8364	0.256
Mof_H 	H 	0.741	0.4181	0.7736	0.259
Mof_C 	C 	0.51572	0.3727	0.77511	-0.78
Mof_H 	H 	0.4863	0.3052	0.7866	0.255
Mof_H 	H 	0.4759	0.3821	0.7418	0.253
Mof_H 	H 	0.5222	0.4089	0.8172	0.253
Mof_C 	C 	0.90251	0.40639	0.86596	-0.075
Mof_C 	C 	0.91231	0.57365	0.86287	-0.096
Mof_C 	C 	0.9367	0.50598	0.74321	-0.083
Mof_Cl	Cl	0.88233	0.12431	0.56745	-0.295
Mof_Cl	Cl	0.1227	0.94738	0.7647	-0.306
Mof_Mn	Mn	0.71661	0.21596	0.94892	0.929
Mof_O 	O 	0.62747	0.17838	0.87576	-0.359
Mof_O 	O 	0.74107	0.11912	0.92277	-0.34
Mof_N 	N 	0.67883	0.31125	0.97833	-0.169
Mof_N 	N 	0.80924	0.2507	0.02862	-0.158
Mof_N 	N 	0.59837	0.10544	0.02565	-0.14
Mof_N 	N 	0.49507	0.15909	0.21994	-0.136
Mof_N 	N 	0.73769	0.14195	0.21228	-0.08
Mof_C 	C 	0.54083	0.16599	0.88277	0.151
Mof_C 	C 	0.46744	0.10016	0.84006	-0.089
Mof_H 	H 	0.4804	0.0648	0.80723	0.058
Mof_C 	C 	0.37715	0.08642	0.84539	-0.128
Mof_H 	H 	0.3281	0.0415	0.81653	0.1
Mof_C 	C 	0.35788	0.13827	0.89299	0.2
Mof_C 	C 	0.42783	0.20467	0.93432	-0.145
Mof_H 	H 	0.4141	0.2411	0.96563	0.104
Mof_C 	C 	0.52032	0.21866	0.93011	-0.039
Mof_C 	C 	0.59349	0.29479	0.97028	0.01
Mof_H 	H 	0.5772	0.3365	0.99283	0.027
Mof_C 	C 	0.74694	0.40063	0.01251	-0.292
Mof_H 	H 	0.7138	0.4352	0.02593	0.113
Mof_H 	H 	0.7973	0.4406	0.97923	0.109
Mof_C 	C 	0.79285	0.38596	0.07686	0.453
Mof_C 	C 	0.85897	0.34765	0.05778	-0.296
Mof_H 	H 	0.9061	0.3909	0.02373	0.118
Mof_H 	H 	0.8939	0.3478	0.09963	0.124
Mof_C 	C 	0.82884	0.1904	0.05567	0.013
Mof_H 	H 	0.8676	0.2101	0.09583	0.055
Mof_C 	C 	0.79753	0.09568	0.03092	0.009
Mof_C 	C 	0.81967	0.0373	0.07094	-0.179
Mof_H 	H 	0.8508	0.0593	0.11413	0.148
Mof_C 	C 	0.79653	0.94907	0.04791	0.259
Mof_C 	C 	0.7501	0.91503	0.98515	-0.127
Mof_H 	H 	0.7327	0.8528	0.97043	0.117
Mof_C 	C 	0.72934	0.97182	0.94444	-0.033
Mof_H 	H 	0.6979	0.9485	0.90163	0.074
Mof_C 	C 	0.75438	0.06402	0.9659	0.14
Mof_C 	C 	0.7167	0.32146	0.12789	-0.786
Mof_H 	H 	0.6772	0.3491	0.14003	0.262
Mof_H 	H 	0.7467	0.3147	0.16973	0.259
Mof_H 	H 	0.6771	0.259	0.10693	0.261
Mof_C 	C 	0.85698	0.48428	0.10844	-0.79
Mof_H 	H 	0.8189	0.5137	0.11993	0.259
Mof_H 	H 	0.9062	0.5241	0.07513	0.259
Mof_H 	H 	0.8867	0.4778	0.15053	0.259
Mof_C 	C 	0.50388	0.09749	0.19929	-0.088
Mof_C 	C 	0.66134	0.08769	0.1962	-0.111
Mof_C 	C 	0.56928	0.0633	0.07654	-0.099
Mof_Cl	Cl	0.24198	0.11767	0.90078	-0.307
Mof_Cl	Cl	0.82468	0.8773	0.09803	-0.316
Mof_Mn	Mn	0.49935	0.28339	0.28226	0.931
Mof_O 	O 	0.55091	0.37253	0.2091	-0.358
Mof_O 	O 	0.37805	0.25893	0.25611	-0.347
Mof_N 	N 	0.63242	0.32117	0.31167	-0.169
Mof_N 	N 	0.44146	0.19076	0.36196	-0.163
Mof_N 	N 	0.50707	0.40163	0.35899	-0.139
Mof_N 	N 	0.66402	0.50493	0.55328	-0.134
Mof_N 	N 	0.40426	0.26231	0.54562	-0.079
Mof_C 	C 	0.62516	0.45917	0.21611	0.152
Mof_C 	C 	0.63272	0.53256	0.1734	-0.088
Mof_H 	H 	0.5844	0.5196	0.14057	0.062
Mof_C 	C 	0.70927	0.62285	0.17873	-0.126
Mof_H 	H 	0.7134	0.6719	0.14987	0.105
Mof_C 	C 	0.78039	0.64212	0.22633	0.2
Mof_C 	C 	0.77684	0.57217	0.26766	-0.143
Mof_H 	H 	0.827	0.5859	0.29897	0.107
Mof_C 	C 	0.69834	0.47968	0.26345	-0.039
Mof_C 	C 	0.7013	0.40651	0.30362	0.01
Mof_H 	H 	0.7593	0.4228	0.32617	0.029
Mof_C 	C 	0.65369	0.25306	0.34585	-0.289
Mof_H 	H 	0.7214	0.2862	0.35927	0.113
Mof_H 	H 	0.6433	0.2027	0.31257	0.107
Mof_C 	C 	0.59311	0.20715	0.4102	0.443
Mof_C 	C 	0.48868	0.14103	0.39112	-0.286
Mof_H 	H 	0.4848	0.0939	0.35707	0.109
Mof_H 	H 	0.4539	0.1061	0.43297	0.115
Mof_C 	C 	0.36156	0.17116	0.38901	0.023
Mof_H 	H 	0.3425	0.1324	0.42917	0.047
Mof_C 	C 	0.29815	0.20247	0.36426	-0.017
Mof_C 	C 	0.21763	0.18033	0.40428	-0.142
Mof_H 	H 	0.2085	0.1492	0.44747	0.136
Mof_C 	C 	0.15254	0.20347	0.38125	0.224
Mof_C 	C 	0.16493	0.2499	0.31849	-0.1
Mof_H 	H 	0.1201	0.2673	0.30377	0.104
Mof_C 	C 	0.24248	0.27066	0.27778	-0.077
Mof_H 	H 	0.2506	0.3021	0.23497	0.084
Mof_C 	C 	0.30964	0.24562	0.29924	0.175
Mof_C 	C 	0.60476	0.2833	0.46123	-0.776
Mof_H 	H 	0.6719	0.3228	0.47337	0.26
Mof_H 	H 	0.568	0.2533	0.50307	0.254
Mof_H 	H 	0.5819	0.3229	0.44027	0.258
Mof_C 	C 	0.6273	0.14302	0.44178	-0.772
Mof_H 	H 	0.6948	0.1811	0.45327	0.252
Mof_H 	H 	0.6179	0.0938	0.40847	0.248
Mof_H 	H 	0.5911	0.1133	0.48387	0.248
Mof_C 	C 	0.59361	0.49612	0.53263	-0.086
Mof_C 	C 	0.42635	0.33866	0.52954	-0.11
Mof_C 	C 	0.49402	0.43072	0.40988	-0.097
Mof_Cl	Cl	0.87569	0.75802	0.23412	-0.287
Mof_Cl	Cl	0.05262	0.17532	0.43137	-0.328
Mof_Fe	Fe	0.53315	0	0.16667	0.626
Mof_Fe	Fe	-1.91831e-17	0.53315	0.83333	0.626
Mof_Fe	Fe	0.46685	0.46685	0.5	0.655
_end
