data_functionalizedCrystal
_audit_creation_method	'EQeq! by Chris Wilmer'
_symmetry_space_group_name_H-M	'P1'
_symmetry_Int_Tables_number	1
_symmetry_cell_setting	triclinic
loop_
_symmetry_equiv_pos_as_xyz
  x,y,z
_cell_length_a	15.8955
_cell_length_b	15.8955
_cell_length_c	21.599
_cell_angle_alpha	90
_cell_angle_beta	90
_cell_angle_gamma	90
loop_
_atom_site_label
_atom_site_type_symbol
_atom_site_fract_x
_atom_site_fract_y
_atom_site_fract_z
_atom_site_charge
Mof_Cd	Cd	0.44147	0.44147	-0	0.383
Mof_Cd	Cd	0.55853	0.55853	0.5	0.386
Mof_Cd	Cd	0.05853	0.94147	0.25	0.384
Mof_Cd	Cd	0.94147	0.05853	0.75	0.384
Mof_H 	H 	0.1112	0.9609	0.1	0.008
Mof_H 	H 	0.2167	0.9141	0.0361	0.082
Mof_H 	H 	0.2402	0.7142	0.1451	0.078
Mof_H 	H 	0.1399	0.7703	0.2097	0.006
Mof_H 	H 	0.3019	0.852	0.971	0.06
Mof_H 	H 	0.4112	0.7991	0.9152	0.041
Mof_H 	H 	0.5035	0.7006	0.9589	0.081
Mof_H 	H 	0.3612	0.6969	0.1113	0.057
Mof_H 	H 	0.622	0.4552	0.2085	0.068
Mof_H 	H 	0.7308	0.4374	0.2773	0.05
Mof_H 	H 	0.8374	0.5332	0.2849	0.058
Mof_H 	H 	0.7222	0.6765	0.1564	0.084
Mof_H 	H 	0.9024	0.6505	0.3098	0.086
Mof_H 	H 	0.9937	0.7601	0.3206	0.001
Mof_H 	H 	0.9377	0.8444	0.1587	0.009
Mof_H 	H 	0.8435	0.737	0.1431	0.106
Mof_H 	H 	0.5316	0.75	0.1546	0.119
Mof_H 	H 	0.5837	0.7643	0.1003	0.143
Mof_H 	H 	0.8888	0.0391	0.6	0.008
Mof_H 	H 	0.7833	0.0859	0.5361	0.081
Mof_H 	H 	0.7598	0.2858	0.6451	0.076
Mof_H 	H 	0.8601	0.2297	0.7097	0.006
Mof_H 	H 	0.6981	0.148	0.471	0.063
Mof_H 	H 	0.5888	0.2009	0.4152	0.037
Mof_H 	H 	0.4965	0.2994	0.4589	0.085
Mof_H 	H 	0.6388	0.3031	0.6113	0.06
Mof_H 	H 	0.378	0.5448	0.7085	0.068
Mof_H 	H 	0.2692	0.5626	0.7773	0.05
Mof_H 	H 	0.1626	0.4668	0.7849	0.058
Mof_H 	H 	0.2778	0.3235	0.6564	0.084
Mof_H 	H 	0.0976	0.3495	0.8098	0.086
Mof_H 	H 	0.0063	0.2399	0.8206	0.001
Mof_H 	H 	0.0623	0.1556	0.6587	0.009
Mof_H 	H 	0.1565	0.263	0.6431	0.106
Mof_H 	H 	0.4684	0.25	0.6546	0.119
Mof_H 	H 	0.4163	0.2357	0.6003	0.144
Mof_H 	H 	0.5391	0.6112	0.35	0.008
Mof_H 	H 	0.5859	0.7167	0.2861	0.081
Mof_H 	H 	0.7858	0.7402	0.3951	0.076
Mof_H 	H 	0.7297	0.6399	0.4597	0.006
Mof_H 	H 	0.648	0.8019	0.221	0.063
Mof_H 	H 	0.7009	0.9112	0.1652	0.037
Mof_H 	H 	0.7994	0.0035	0.2089	0.084
Mof_H 	H 	0.8031	0.8612	0.3613	0.06
Mof_H 	H 	0.0448	0.122	0.4585	0.068
Mof_H 	H 	0.0626	0.2308	0.5273	0.049
Mof_H 	H 	0.9668	0.3374	0.5349	0.058
Mof_H 	H 	0.8235	0.2222	0.4064	0.084
Mof_H 	H 	0.8495	0.4024	0.5598	0.086
Mof_H 	H 	0.7399	0.4937	0.5706	0
Mof_H 	H 	0.6556	0.4377	0.4087	0.009
Mof_H 	H 	0.763	0.3435	0.3931	0.106
Mof_H 	H 	0.75	0.0316	0.4046	0.119
Mof_H 	H 	0.7357	0.0837	0.3503	0.144
Mof_H 	H 	0.4609	0.3888	0.85	0.008
Mof_H 	H 	0.4141	0.2833	0.7861	0.081
Mof_H 	H 	0.2142	0.2598	0.8951	0.077
Mof_H 	H 	0.2703	0.3601	0.9597	0.007
Mof_H 	H 	0.352	0.1981	0.721	0.063
Mof_H 	H 	0.2991	0.0888	0.6652	0.038
Mof_H 	H 	0.2006	0.9965	0.7089	0.084
Mof_H 	H 	0.1969	0.1388	0.8613	0.06
Mof_H 	H 	0.9552	0.878	0.9585	0.068
Mof_H 	H 	0.9374	0.7692	0.0273	0.049
Mof_H 	H 	0.0332	0.6626	0.0349	0.06
Mof_H 	H 	0.1765	0.7778	0.9064	0.085
Mof_H 	H 	0.1505	0.5976	0.0598	0.087
Mof_H 	H 	0.2601	0.5063	0.0706	0.001
Mof_H 	H 	0.3444	0.5623	0.9087	0.009
Mof_H 	H 	0.237	0.6565	0.8931	0.107
Mof_H 	H 	0.25	0.9684	0.9046	0.12
Mof_H 	H 	0.2643	0.9163	0.8503	0.144
Mof_H 	H 	0.3888	0.4609	0.15	0.008
Mof_H 	H 	0.2833	0.4141	0.2139	0.081
Mof_H 	H 	0.2598	0.2142	0.1049	0.076
Mof_H 	H 	0.3601	0.2703	0.0403	0.006
Mof_H 	H 	0.1981	0.352	0.279	0.063
Mof_H 	H 	0.0888	0.2991	0.3348	0.037
Mof_H 	H 	0.9965	0.2006	0.2911	0.084
Mof_H 	H 	0.1388	0.1969	0.1387	0.06
Mof_H 	H 	0.878	0.9552	0.0415	0.07
Mof_H 	H 	0.7692	0.9374	0.9727	0.048
Mof_H 	H 	0.6626	0.0332	0.9651	0.059
Mof_H 	H 	0.7778	0.1765	0.0936	0.085
Mof_H 	H 	0.5976	0.1505	0.9402	0.085
Mof_H 	H 	0.5063	0.2601	0.9294	0
Mof_H 	H 	0.5623	0.3444	0.0913	0.009
Mof_H 	H 	0.6565	0.237	0.1069	0.106
Mof_H 	H 	0.9684	0.25	0.0954	0.119
Mof_H 	H 	0.9163	0.2643	0.1497	0.144
Mof_H 	H 	0.6112	0.5391	0.65	0.008
Mof_H 	H 	0.7167	0.5859	0.7139	0.081
Mof_H 	H 	0.7402	0.7858	0.6049	0.076
Mof_H 	H 	0.6399	0.7297	0.5403	0.006
Mof_H 	H 	0.8019	0.648	0.779	0.063
Mof_H 	H 	0.9112	0.7009	0.8348	0.037
Mof_H 	H 	0.0035	0.7994	0.7911	0.084
Mof_H 	H 	0.8612	0.8031	0.6387	0.06
Mof_H 	H 	0.122	0.0448	0.5415	0.068
Mof_H 	H 	0.2308	0.0626	0.4727	0.049
Mof_H 	H 	0.3374	0.9668	0.4651	0.058
Mof_H 	H 	0.2222	0.8235	0.5936	0.084
Mof_H 	H 	0.4024	0.8495	0.4402	0.086
Mof_H 	H 	0.4937	0.7399	0.4294	0
Mof_H 	H 	0.4377	0.6556	0.5913	0.009
Mof_H 	H 	0.3435	0.763	0.6069	0.106
Mof_H 	H 	0.0316	0.75	0.5954	0.119
Mof_H 	H 	0.0837	0.7357	0.6497	0.144
Mof_H 	H 	0.9609	0.1112	0.9	0.008
Mof_H 	H 	0.9141	0.2167	0.9639	0.081
Mof_H 	H 	0.7142	0.2402	0.8549	0.075
Mof_H 	H 	0.7703	0.1399	0.7903	0.007
Mof_H 	H 	0.852	0.3019	0.029	0.066
Mof_H 	H 	0.7991	0.4112	0.0848	0.034
Mof_H 	H 	0.7006	0.5035	0.0411	0.088
Mof_H 	H 	0.6969	0.3612	0.8887	0.062
Mof_H 	H 	0.4552	0.622	0.7915	0.068
Mof_H 	H 	0.4374	0.7308	0.7227	0.05
Mof_H 	H 	0.5332	0.8374	0.7151	0.058
Mof_H 	H 	0.6765	0.7222	0.8436	0.084
Mof_H 	H 	0.6505	0.9024	0.6902	0.086
Mof_H 	H 	0.7601	0.9937	0.6794	0.001
Mof_H 	H 	0.8444	0.9377	0.8413	0.009
Mof_H 	H 	0.737	0.8435	0.8569	0.106
Mof_H 	H 	0.75	0.5316	0.8454	0.119
Mof_H 	H 	0.7643	0.5837	0.8997	0.144
Mof_H 	H 	0.0391	0.8888	0.4	0.008
Mof_H 	H 	0.0859	0.7833	0.4639	0.081
Mof_H 	H 	0.2858	0.7598	0.3549	0.076
Mof_H 	H 	0.2297	0.8601	0.2903	0.006
Mof_H 	H 	0.148	0.6981	0.529	0.063
Mof_H 	H 	0.2009	0.5888	0.5848	0.037
Mof_H 	H 	0.2994	0.4965	0.5411	0.085
Mof_H 	H 	0.3031	0.6388	0.3887	0.06
Mof_H 	H 	0.5448	0.378	0.2915	0.068
Mof_H 	H 	0.5626	0.2692	0.2227	0.05
Mof_H 	H 	0.4668	0.1626	0.2151	0.058
Mof_H 	H 	0.3235	0.2778	0.3436	0.084
Mof_H 	H 	0.3495	0.0976	0.1902	0.086
Mof_H 	H 	0.2399	0.0063	0.1794	0.001
Mof_H 	H 	0.1556	0.0623	0.3413	0.009
Mof_H 	H 	0.263	0.1565	0.3569	0.106
Mof_H 	H 	0.25	0.4684	0.3454	0.119
Mof_H 	H 	0.2357	0.4163	0.3997	0.144
Mof_C 	C 	0.1405	0.9126	0.1112	0.09
Mof_C 	C 	0.2032	0.8837	0.0715	-0.147
Mof_C 	C 	0.2457	0.8092	0.0849	0.078
Mof_C 	C 	0.2177	0.7668	0.1361	-0.144
Mof_C 	C 	0.1566	0.8004	0.1748	0.074
Mof_C 	C 	0.318	0.7796	0.0475	0.009
Mof_C 	C 	0.3358	0.8103	0.9881	-0.071
Mof_C 	C 	0.402	0.7799	0.9553	0.001
Mof_C 	C 	0.457	0.7196	0.981	-0.073
Mof_C 	C 	0.44	0.6892	0.0403	0.019
Mof_C 	C 	0.3721	0.7183	0.0721	-0.081
Mof_C 	C 	0.4956	0.6265	0.0702	0.099
Mof_C 	C 	0.5924	0.5762	0.1326	0.099
Mof_C 	C 	0.6605	0.5682	0.1757	0.026
Mof_C 	C 	0.6638	0.4959	0.2118	-0.076
Mof_C 	C 	0.7295	0.4852	0.2524	0.002
Mof_C 	C 	0.7933	0.5427	0.2575	-0.07
Mof_C 	C 	0.792	0.6175	0.2206	0.011
Mof_C 	C 	0.7248	0.6282	0.1806	-0.082
Mof_C 	C 	0.8581	0.6829	0.2263	0.097
Mof_C 	C 	0.9069	0.6902	0.2783	-0.163
Mof_C 	C 	0.9628	0.7562	0.2842	0.096
Mof_C 	C 	0.9301	0.8052	0.1902	0.097
Mof_C 	C 	0.8723	0.7407	0.1805	-0.164
Mof_C 	C 	0.8595	0.0874	0.6112	0.088
Mof_C 	C 	0.7968	0.1163	0.5715	-0.144
Mof_C 	C 	0.7543	0.1908	0.5849	0.074
Mof_C 	C 	0.7823	0.2332	0.6361	-0.141
Mof_C 	C 	0.8434	0.1996	0.6748	0.073
Mof_C 	C 	0.682	0.2204	0.5475	0.02
Mof_C 	C 	0.6642	0.1897	0.4881	-0.084
Mof_C 	C 	0.598	0.2201	0.4553	0.012
Mof_C 	C 	0.543	0.2804	0.481	-0.085
Mof_C 	C 	0.56	0.3108	0.5403	0.029
Mof_C 	C 	0.6279	0.2817	0.5721	-0.089
Mof_C 	C 	0.5044	0.3735	0.5702	0.097
Mof_C 	C 	0.4076	0.4238	0.6326	0.099
Mof_C 	C 	0.3395	0.4318	0.6757	0.026
Mof_C 	C 	0.3362	0.5041	0.7118	-0.076
Mof_C 	C 	0.2705	0.5148	0.7524	0.002
Mof_C 	C 	0.2067	0.4573	0.7575	-0.07
Mof_C 	C 	0.208	0.3825	0.7206	0.011
Mof_C 	C 	0.2752	0.3718	0.6806	-0.082
Mof_C 	C 	0.1419	0.3171	0.7263	0.097
Mof_C 	C 	0.0931	0.3098	0.7783	-0.163
Mof_C 	C 	0.0372	0.2438	0.7842	0.096
Mof_C 	C 	0.0699	0.1948	0.6902	0.097
Mof_C 	C 	0.1277	0.2593	0.6805	-0.164
Mof_C 	C 	0.5874	0.6405	0.3612	0.089
Mof_C 	C 	0.6163	0.7032	0.3215	-0.144
Mof_C 	C 	0.6908	0.7457	0.3349	0.074
Mof_C 	C 	0.7332	0.7177	0.3861	-0.141
Mof_C 	C 	0.6996	0.6566	0.4248	0.073
Mof_C 	C 	0.7204	0.818	0.2975	0.019
Mof_C 	C 	0.6897	0.8358	0.2381	-0.083
Mof_C 	C 	0.7201	0.902	0.2053	0.011
Mof_C 	C 	0.7804	0.957	0.231	-0.083
Mof_C 	C 	0.8108	0.94	0.2903	0.028
Mof_C 	C 	0.7817	0.8721	0.3221	-0.088
Mof_C 	C 	0.8735	0.9956	0.3202	0.098
Mof_C 	C 	0.9238	0.0924	0.3826	0.099
Mof_C 	C 	0.9318	0.1605	0.4257	0.025
Mof_C 	C 	0.0041	0.1638	0.4618	-0.075
Mof_C 	C 	0.0148	0.2295	0.5024	0.003
Mof_C 	C 	0.9573	0.2933	0.5075	-0.07
Mof_C 	C 	0.8825	0.292	0.4706	0.011
Mof_C 	C 	0.8718	0.2248	0.4306	-0.082
Mof_C 	C 	0.8171	0.3581	0.4763	0.097
Mof_C 	C 	0.8098	0.4069	0.5283	-0.163
Mof_C 	C 	0.7438	0.4628	0.5342	0.096
Mof_C 	C 	0.6948	0.4301	0.4402	0.097
Mof_C 	C 	0.7593	0.3723	0.4305	-0.164
Mof_C 	C 	0.4126	0.3595	0.8612	0.089
Mof_C 	C 	0.3837	0.2968	0.8215	-0.144
Mof_C 	C 	0.3092	0.2543	0.8349	0.074
Mof_C 	C 	0.2668	0.2823	0.8861	-0.141
Mof_C 	C 	0.3004	0.3434	0.9248	0.073
Mof_C 	C 	0.2796	0.182	0.7975	0.019
Mof_C 	C 	0.3103	0.1642	0.7381	-0.083
Mof_C 	C 	0.2799	0.098	0.7053	0.011
Mof_C 	C 	0.2196	0.043	0.731	-0.083
Mof_C 	C 	0.1892	0.06	0.7903	0.028
Mof_C 	C 	0.2183	0.1279	0.8221	-0.088
Mof_C 	C 	0.1265	0.0044	0.8202	0.098
Mof_C 	C 	0.0762	0.9076	0.8826	0.099
Mof_C 	C 	0.0682	0.8395	0.9257	0.027
Mof_C 	C 	0.9959	0.8362	0.9618	-0.075
Mof_C 	C 	0.9852	0.7705	0.0024	0.003
Mof_C 	C 	0.0427	0.7067	0.0075	-0.076
Mof_C 	C 	0.1175	0.708	0.9706	0.015
Mof_C 	C 	0.1282	0.7752	0.9306	-0.083
Mof_C 	C 	0.1829	0.6419	0.9763	0.1
Mof_C 	C 	0.1902	0.5931	0.0283	-0.167
Mof_C 	C 	0.2562	0.5372	0.0342	0.094
Mof_C 	C 	0.3052	0.5699	0.9402	0.099
Mof_C 	C 	0.2407	0.6277	0.9305	-0.165
Mof_C 	C 	0.3595	0.4126	0.1388	0.088
Mof_C 	C 	0.2968	0.3837	0.1785	-0.144
Mof_C 	C 	0.2543	0.3092	0.1651	0.074
Mof_C 	C 	0.2823	0.2668	0.1139	-0.142
Mof_C 	C 	0.3434	0.3004	0.0752	0.073
Mof_C 	C 	0.182	0.2796	0.2025	0.019
Mof_C 	C 	0.1642	0.3103	0.2619	-0.083
Mof_C 	C 	0.098	0.2799	0.2947	0.011
Mof_C 	C 	0.043	0.2196	0.269	-0.083
Mof_C 	C 	0.06	0.1892	0.2097	0.028
Mof_C 	C 	0.1279	0.2183	0.1779	-0.088
Mof_C 	C 	0.0044	0.1265	0.1798	0.098
Mof_C 	C 	0.9076	0.0762	0.1174	0.098
Mof_C 	C 	0.8395	0.0682	0.0743	0.028
Mof_C 	C 	0.8362	0.9959	0.0382	-0.082
Mof_C 	C 	0.7705	0.9852	0.9976	0.01
Mof_C 	C 	0.7067	0.0427	0.9925	-0.072
Mof_C 	C 	0.708	0.1175	0.0294	0.011
Mof_C 	C 	0.7752	0.1282	0.0694	-0.084
Mof_C 	C 	0.6419	0.1829	0.0237	0.093
Mof_C 	C 	0.5931	0.1902	0.9717	-0.159
Mof_C 	C 	0.5372	0.2562	0.9658	0.098
Mof_C 	C 	0.5699	0.3052	0.0598	0.096
Mof_C 	C 	0.6277	0.2407	0.0695	-0.162
Mof_C 	C 	0.6405	0.5874	0.6388	0.089
Mof_C 	C 	0.7032	0.6163	0.6785	-0.144
Mof_C 	C 	0.7457	0.6908	0.6651	0.074
Mof_C 	C 	0.7177	0.7332	0.6139	-0.141
Mof_C 	C 	0.6566	0.6996	0.5752	0.073
Mof_C 	C 	0.818	0.7204	0.7025	0.019
Mof_C 	C 	0.8358	0.6897	0.7619	-0.083
Mof_C 	C 	0.902	0.7201	0.7947	0.011
Mof_C 	C 	0.957	0.7804	0.769	-0.084
Mof_C 	C 	0.94	0.8108	0.7097	0.029
Mof_C 	C 	0.8721	0.7817	0.6779	-0.089
Mof_C 	C 	0.9956	0.8735	0.6798	0.098
Mof_C 	C 	0.0924	0.9238	0.6174	0.099
Mof_C 	C 	0.1605	0.9318	0.5743	0.025
Mof_C 	C 	0.1638	0.0041	0.5382	-0.075
Mof_C 	C 	0.2295	0.0148	0.4976	0.003
Mof_C 	C 	0.2933	0.9573	0.4925	-0.07
Mof_C 	C 	0.292	0.8825	0.5294	0.011
Mof_C 	C 	0.2248	0.8718	0.5694	-0.082
Mof_C 	C 	0.3581	0.8171	0.5237	0.097
Mof_C 	C 	0.4069	0.8098	0.4717	-0.163
Mof_C 	C 	0.4628	0.7438	0.4658	0.096
Mof_C 	C 	0.4301	0.6948	0.5598	0.097
Mof_C 	C 	0.3723	0.7593	0.5695	-0.164
Mof_C 	C 	0.9126	0.1405	0.8888	0.087
Mof_C 	C 	0.8837	0.2032	0.9285	-0.142
Mof_C 	C 	0.8092	0.2457	0.9151	0.071
Mof_C 	C 	0.7668	0.2177	0.8639	-0.139
Mof_C 	C 	0.8004	0.1566	0.8252	0.071
Mof_C 	C 	0.7796	0.318	0.9525	0.027
Mof_C 	C 	0.8103	0.3358	0.0119	-0.094
Mof_C 	C 	0.7799	0.402	0.0447	0.02
Mof_C 	C 	0.7196	0.457	0.019	-0.095
Mof_C 	C 	0.6892	0.44	0.9597	0.037
Mof_C 	C 	0.7183	0.3721	0.9279	-0.095
Mof_C 	C 	0.6265	0.4956	0.9298	0.095
Mof_C 	C 	0.5762	0.5924	0.8674	0.099
Mof_C 	C 	0.5682	0.6605	0.8243	0.026
Mof_C 	C 	0.4959	0.6638	0.7882	-0.076
Mof_C 	C 	0.4852	0.7295	0.7476	0.002
Mof_C 	C 	0.5427	0.7933	0.7425	-0.07
Mof_C 	C 	0.6175	0.792	0.7794	0.011
Mof_C 	C 	0.6282	0.7248	0.8194	-0.082
Mof_C 	C 	0.6829	0.8581	0.7737	0.097
Mof_C 	C 	0.6902	0.9069	0.7217	-0.163
Mof_C 	C 	0.7562	0.9628	0.7158	0.096
Mof_C 	C 	0.8052	0.9301	0.8098	0.097
Mof_C 	C 	0.7407	0.8723	0.8195	-0.164
Mof_C 	C 	0.0874	0.8595	0.3888	0.088
Mof_C 	C 	0.1163	0.7968	0.4285	-0.144
Mof_C 	C 	0.1908	0.7543	0.4151	0.074
Mof_C 	C 	0.2332	0.7823	0.3639	-0.141
Mof_C 	C 	0.1996	0.8434	0.3252	0.073
Mof_C 	C 	0.2204	0.682	0.4525	0.02
Mof_C 	C 	0.1897	0.6642	0.5119	-0.084
Mof_C 	C 	0.2201	0.598	0.5447	0.012
Mof_C 	C 	0.2804	0.543	0.519	-0.085
Mof_C 	C 	0.3108	0.56	0.4597	0.029
Mof_C 	C 	0.2817	0.6279	0.4279	-0.089
Mof_C 	C 	0.3735	0.5044	0.4298	0.097
Mof_C 	C 	0.4238	0.4076	0.3674	0.099
Mof_C 	C 	0.4318	0.3395	0.3243	0.026
Mof_C 	C 	0.5041	0.3362	0.2882	-0.076
Mof_C 	C 	0.5148	0.2705	0.2476	0.002
Mof_C 	C 	0.4573	0.2067	0.2425	-0.07
Mof_C 	C 	0.3825	0.208	0.2794	0.011
Mof_C 	C 	0.3718	0.2752	0.3194	-0.082
Mof_C 	C 	0.3171	0.1419	0.2737	0.097
Mof_C 	C 	0.3098	0.0931	0.2217	-0.163
Mof_C 	C 	0.2438	0.0372	0.2158	0.096
Mof_C 	C 	0.1948	0.0699	0.3098	0.097
Mof_C 	C 	0.2593	0.1277	0.3195	-0.164
Mof_N 	N 	0.555	0.5125	0.1048	-0.099
Mof_N 	N 	0.4936	0.5447	0.0661	-0.116
Mof_N 	N 	0.5563	0.6485	0.1115	-0.101
Mof_N 	N 	0.5749	0.7308	0.1327	-0.224
Mof_N 	N 	0.975	0.814	0.2416	-0.159
Mof_N 	N 	0.1206	0.8762	0.1629	-0.157
Mof_N 	N 	0.445	0.4875	0.6048	-0.099
Mof_N 	N 	0.5064	0.4553	0.5661	-0.115
Mof_N 	N 	0.4437	0.3515	0.6115	-0.1
Mof_N 	N 	0.4251	0.2692	0.6327	-0.224
Mof_N 	N 	0.025	0.186	0.7416	-0.159
Mof_N 	N 	0.8794	0.1238	0.6629	-0.156
Mof_N 	N 	0.9875	0.055	0.3548	-0.1
Mof_N 	N 	0.9553	0.9936	0.3161	-0.115
Mof_N 	N 	0.8515	0.0563	0.3615	-0.1
Mof_N 	N 	0.7692	0.0749	0.3827	-0.224
Mof_N 	N 	0.686	0.475	0.4916	-0.16
Mof_N 	N 	0.6238	0.6206	0.4129	-0.156
Mof_N 	N 	0.0125	0.945	0.8548	-0.1
Mof_N 	N 	0.0447	0.0064	0.8161	-0.115
Mof_N 	N 	0.1485	0.9437	0.8615	-0.1
Mof_N 	N 	0.2308	0.9251	0.8827	-0.224
Mof_N 	N 	0.314	0.525	0.9916	-0.157
Mof_N 	N 	0.3762	0.3794	0.9129	-0.155
Mof_N 	N 	0.945	0.0125	0.1452	-0.1
Mof_N 	N 	0.0064	0.0447	0.1839	-0.115
Mof_N 	N 	0.9437	0.1485	0.1385	-0.1
Mof_N 	N 	0.9251	0.2308	0.1173	-0.224
Mof_N 	N 	0.525	0.314	0.0084	-0.161
Mof_N 	N 	0.3794	0.3762	0.0871	-0.156
Mof_N 	N 	0.055	0.9875	0.6452	-0.1
Mof_N 	N 	0.9936	0.9553	0.6839	-0.115
Mof_N 	N 	0.0563	0.8515	0.6385	-0.1
Mof_N 	N 	0.0749	0.7692	0.6173	-0.224
Mof_N 	N 	0.475	0.686	0.5084	-0.16
Mof_N 	N 	0.6206	0.6238	0.5871	-0.156
Mof_N 	N 	0.5125	0.555	0.8952	-0.099
Mof_N 	N 	0.5447	0.4936	0.9339	-0.114
Mof_N 	N 	0.6485	0.5563	0.8885	-0.1
Mof_N 	N 	0.7308	0.5749	0.8673	-0.224
Mof_N 	N 	0.814	0.975	0.7584	-0.159
Mof_N 	N 	0.8762	0.1206	0.8371	-0.156
Mof_N 	N 	0.4875	0.445	0.3952	-0.099
Mof_N 	N 	0.4553	0.5064	0.4339	-0.115
Mof_N 	N 	0.3515	0.4437	0.3885	-0.1
Mof_N 	N 	0.2692	0.4251	0.3673	-0.224
Mof_N 	N 	0.186	0.025	0.2584	-0.159
Mof_N 	N 	0.1238	0.8794	0.3371	-0.156
Mof_Cl	Cl	0.73144	0.73144	-0	-0.219
Mof_O 	O 	0.7565	0.775	0.0534	-0.047
Mof_O 	O 	0.661	0.776	0.9737	-0.046
Mof_O 	O 	0.775	0.7565	0.9466	-0.045
Mof_O 	O 	0.776	0.661	0.0263	-0.048
Mof_Cl	Cl	0.26856	0.26856	0.5	-0.214
Mof_O 	O 	0.2435	0.225	0.5534	-0.047
Mof_O 	O 	0.339	0.224	0.4737	-0.049
Mof_O 	O 	0.225	0.2435	0.4466	-0.047
Mof_O 	O 	0.224	0.339	0.5263	-0.049
Mof_Cl	Cl	0.76856	0.23144	0.25	-0.214
Mof_O 	O 	0.725	0.2565	0.3034	-0.048
Mof_O 	O 	0.724	0.161	0.2237	-0.049
Mof_O 	O 	0.7435	0.275	0.1966	-0.048
Mof_O 	O 	0.839	0.276	0.2763	-0.049
Mof_Cl	Cl	0.23144	0.76856	0.75	-0.214
Mof_O 	O 	0.275	0.7435	0.8034	-0.048
Mof_O 	O 	0.276	0.839	0.7237	-0.049
Mof_O 	O 	0.2565	0.725	0.6966	-0.048
Mof_O 	O 	0.161	0.724	0.7763	-0.049
_end
