data_functionalizedCrystal
_audit_creation_method	'EQeq! by Chris Wilmer'
_symmetry_space_group_name_H-M	'P1'
_symmetry_Int_Tables_number	1
_symmetry_cell_setting	triclinic
loop_
_symmetry_equiv_pos_as_xyz
  x,y,z
_cell_length_a	14.7366
_cell_length_b	13.5985
_cell_length_c	11.3369
_cell_angle_alpha	90
_cell_angle_beta	113.141
_cell_angle_gamma	90
loop_
_atom_site_label
_atom_site_type_symbol
_atom_site_fract_x
_atom_site_fract_y
_atom_site_fract_z
_atom_site_charge
Mof_C 	C 	0.3469	0.4847	0.1543	0.67
Mof_C 	C 	0.2603	0.4235	0.0703	-0.636
Mof_C 	C 	0.2127	0.3625	0.1259	0.451
Mof_H 	H 	0.2331	0.3615	0.2146	-0.132
Mof_C 	C 	0.1349	0.303	0.0507	-0.578
Mof_C 	C 	0.0851	0.2349	0.1115	0.533
Mof_C 	C 	0.1039	0.306	0.918	0.561
Mof_H 	H 	0.0522	0.266	0.8667	-0.208
Mof_C 	C 	0.2281	0.4269	0.9375	0.591
Mof_H 	H 	0.259	0.4681	0.8994	-0.2
Mof_C 	C 	0.1496	0.3684	0.8623	-0.615
Mof_H 	H 	0.1276	0.3712	0.7734	0.206
Mof_O 	O 	0.3853	0.5412	0.096	-0.749
Mof_O 	O 	0.3767	0.481	0.273	-0.741
Mof_O 	O 	0.0249	0.173	0.0446	-0.627
Mof_O 	O 	0.1053	0.2433	0.2293	-0.373
Mof_C 	C 	0.8469	0.9847	0.1543	0.685
Mof_C 	C 	0.7603	0.9235	0.0703	-0.518
Mof_C 	C 	0.7127	0.8625	0.1259	0.408
Mof_H 	H 	0.7331	0.8615	0.2146	-0.071
Mof_C 	C 	0.6349	0.803	0.0507	-0.525
Mof_C 	C 	0.5851	0.7349	0.1115	0.581
Mof_C 	C 	0.6039	0.806	0.918	0.537
Mof_H 	H 	0.5522	0.766	0.8667	-0.16
Mof_C 	C 	0.7281	0.9269	0.9375	0.534
Mof_H 	H 	0.759	0.9681	0.8994	-0.084
Mof_C 	C 	0.6496	0.8684	0.8623	-0.531
Mof_H 	H 	0.6276	0.8712	0.7734	0.24
Mof_O 	O 	0.8853	0.0412	0.096	-0.578
Mof_O 	O 	0.8767	0.981	0.273	-0.438
Mof_O 	O 	0.5249	0.673	0.0446	-0.723
Mof_O 	O 	0.6053	0.7433	0.2293	-0.333
Mof_C 	C 	0.6531	0.4847	0.3457	0.583
Mof_C 	C 	0.7397	0.4235	0.4297	-0.325
Mof_C 	C 	0.7873	0.3625	0.3741	0.207
Mof_H 	H 	0.7669	0.3615	0.2854	-0.04
Mof_C 	C 	0.8651	0.303	0.4493	-0.218
Mof_C 	C 	0.9149	0.2349	0.3885	0.428
Mof_C 	C 	0.8961	0.306	0.582	0.182
Mof_H 	H 	0.9478	0.266	0.6333	0.018
Mof_C 	C 	0.7719	0.4269	0.5625	0.23
Mof_H 	H 	0.741	0.4681	0.6006	-0.089
Mof_C 	C 	0.8504	0.3684	0.6377	-0.251
Mof_H 	H 	0.8724	0.3712	0.7266	0.171
Mof_O 	O 	0.6147	0.5412	0.404	-0.731
Mof_O 	O 	0.6233	0.481	0.227	-0.69
Mof_O 	O 	0.9751	0.173	0.4554	-0.423
Mof_O 	O 	0.8947	0.2433	0.2707	-0.244
Mof_C 	C 	0.1531	0.9847	0.3457	0.655
Mof_C 	C 	0.2397	0.9235	0.4297	-0.31
Mof_C 	C 	0.2873	0.8625	0.3741	0.232
Mof_H 	H 	0.2669	0.8615	0.2854	-0.038
Mof_C 	C 	0.3651	0.803	0.4493	-0.29
Mof_C 	C 	0.4149	0.7349	0.3885	0.525
Mof_C 	C 	0.3961	0.806	0.582	0.226
Mof_H 	H 	0.4478	0.766	0.6333	-0.071
Mof_C 	C 	0.2719	0.9269	0.5625	0.237
Mof_H 	H 	0.241	0.9681	0.6006	-0.017
Mof_C 	C 	0.3504	0.8684	0.6377	-0.28
Mof_H 	H 	0.3724	0.8712	0.7266	0.16
Mof_O 	O 	0.1147	0.0412	0.404	-0.723
Mof_O 	O 	0.1233	0.981	0.227	-0.509
Mof_O 	O 	0.4751	0.673	0.4554	-0.716
Mof_O 	O 	0.3947	0.7433	0.2707	-0.34
Mof_C 	C 	0.6531	0.5153	0.8457	0.492
Mof_C 	C 	0.7397	0.5765	0.9297	-0.015
Mof_C 	C 	0.7873	0.6375	0.8741	-0.048
Mof_H 	H 	0.7669	0.6385	0.7854	0.061
Mof_C 	C 	0.8651	0.697	0.9493	0.1
Mof_C 	C 	0.9149	0.7651	0.8885	0.311
Mof_C 	C 	0.8961	0.694	0.082	-0.21
Mof_H 	H 	0.9478	0.734	0.1333	0.136
Mof_C 	C 	0.7719	0.5731	0.0625	-0.162
Mof_H 	H 	0.741	0.5319	0.1006	0.034
Mof_C 	C 	0.8504	0.6316	0.1377	0.087
Mof_H 	H 	0.8724	0.6288	0.2266	0.041
Mof_O 	O 	0.6147	0.4588	0.904	-0.635
Mof_O 	O 	0.6233	0.519	0.727	-0.678
Mof_O 	O 	0.9751	0.827	0.9554	-0.283
Mof_O 	O 	0.8947	0.7567	0.7707	-0.188
Mof_C 	C 	0.1531	0.0153	0.8457	0.214
Mof_C 	C 	0.2397	0.0765	0.9297	0.065
Mof_C 	C 	0.2873	0.1375	0.8741	-0.095
Mof_H 	H 	0.2669	0.1385	0.7854	0.052
Mof_C 	C 	0.3651	0.197	0.9493	0.041
Mof_C 	C 	0.4149	0.2651	0.8885	0.39
Mof_C 	C 	0.3961	0.194	0.082	-0.219
Mof_H 	H 	0.4478	0.234	0.1333	0.051
Mof_C 	C 	0.2719	0.0731	0.0625	-0.243
Mof_H 	H 	0.241	0.0319	0.1006	0.033
Mof_C 	C 	0.3504	0.1316	0.1377	0.083
Mof_H 	H 	0.3724	0.1288	0.2266	-0.024
Mof_O 	O 	0.1147	0.9588	0.904	-0.319
Mof_O 	O 	0.1233	0.019	0.727	-0.548
Mof_O 	O 	0.4751	0.327	0.9554	-0.602
Mof_O 	O 	0.3947	0.2567	0.7707	-0.319
Mof_C 	C 	0.3469	0.5153	0.6543	0.567
Mof_C 	C 	0.2603	0.5765	0.5703	-0.332
Mof_C 	C 	0.2127	0.6375	0.6259	0.2
Mof_H 	H 	0.2331	0.6385	0.7146	-0.028
Mof_C 	C 	0.1349	0.697	0.5507	-0.272
Mof_C 	C 	0.0851	0.7651	0.6115	0.448
Mof_C 	C 	0.1039	0.694	0.418	0.175
Mof_H 	H 	0.0522	0.734	0.3667	-0.096
Mof_C 	C 	0.2281	0.5731	0.4375	0.205
Mof_H 	H 	0.259	0.5319	0.3994	-0.099
Mof_C 	C 	0.1496	0.6316	0.3623	-0.289
Mof_H 	H 	0.1276	0.6288	0.2734	0.081
Mof_O 	O 	0.3853	0.4588	0.596	-0.737
Mof_O 	O 	0.3767	0.519	0.773	-0.646
Mof_O 	O 	0.0249	0.827	0.5446	-0.57
Mof_O 	O 	0.1053	0.7567	0.7293	-0.322
Mof_C 	C 	0.8469	0.0153	0.6543	0.274
Mof_C 	C 	0.7603	0.0765	0.5703	-0.181
Mof_C 	C 	0.7127	0.1375	0.6259	0.114
Mof_H 	H 	0.7331	0.1385	0.7146	0.013
Mof_C 	C 	0.6349	0.197	0.5507	-0.237
Mof_C 	C 	0.5851	0.2651	0.6115	0.492
Mof_C 	C 	0.6039	0.194	0.418	0.136
Mof_H 	H 	0.5522	0.234	0.3667	-0.059
Mof_C 	C 	0.7281	0.0731	0.4375	0.099
Mof_H 	H 	0.759	0.0319	0.3994	-0.059
Mof_C 	C 	0.6496	0.1316	0.3623	-0.212
Mof_H 	H 	0.6276	0.1288	0.2734	0.073
Mof_O 	O 	0.8853	0.9588	0.596	-0.29
Mof_O 	O 	0.8767	0.019	0.773	-0.394
Mof_O 	O 	0.5249	0.327	0.5446	-0.718
Mof_O 	O 	0.6053	0.2567	0.7293	-0.327
Mof_Na	Na	0.5	0.5	-0	2.904
Mof_Na	Na	-0	0	-0	1.572
Mof_Na	Na	0.5	0.5	0.5	3.262
Mof_Na	Na	2.00899e-33	-6.04181e-33	0.5	1.916
Mof_Cd	Cd	0.5	0.62767	0.25	0.302
Mof_Cd	Cd	-1.36049e-17	0.12767	0.25	0.147
Mof_Cd	Cd	0.5	0.37233	0.75	0.302
Mof_Cd	Cd	3.01349e-33	0.87233	0.75	0.257
_end
