data_functionalizedCrystal
_audit_creation_method	'EQeq! by Chris Wilmer'
_symmetry_space_group_name_H-M	'P1'
_symmetry_Int_Tables_number	1
_symmetry_cell_setting	triclinic
loop_
_symmetry_equiv_pos_as_xyz
  x,y,z
_cell_length_a	19.561
_cell_length_b	15.255
_cell_length_c	23.404
_cell_angle_alpha	90
_cell_angle_beta	90
_cell_angle_gamma	90
loop_
_atom_site_label
_atom_site_type_symbol
_atom_site_fract_x
_atom_site_fract_y
_atom_site_fract_z
_atom_site_charge
Mof_O 	O 	0.0561	0.3507	0.7677	-0.485
Mof_C 	C 	0.0633	0.6677	0.9861	-0.347
Mof_C 	C 	0.0571	0.554	0.8871	-0.048
Mof_C 	C 	0.0572	0.4867	0.8474	0.022
Mof_O 	O 	0.3276	0.7804	0.1933	-0.249
Mof_O 	O 	0.3611	0.819	0.1397	-0.324
Mof_H 	H 	0.0634	0.6145	0.0105	0.128
Mof_H 	H 	0.1054	0.6619	0.963	0.127
Mof_H 	H 	0.1015	0.575	0.9012	0.038
Mof_H 	H 	0.1025	0.4647	0.8341	0.043
Mof_O 	O 	0.5561	0.8507	0.2677	-0.487
Mof_C 	C 	0.5633	0.1677	0.4861	-0.351
Mof_C 	C 	0.5571	0.054	0.3871	-0.046
Mof_C 	C 	0.5572	0.9867	0.3474	0.021
Mof_O 	O 	0.8276	0.2804	0.6933	-0.248
Mof_O 	O 	0.8611	0.319	0.6397	-0.323
Mof_H 	H 	0.5634	0.1145	0.5105	0.129
Mof_H 	H 	0.6054	0.1619	0.463	0.128
Mof_H 	H 	0.6015	0.075	0.4012	0.038
Mof_H 	H 	0.6025	0.9647	0.3341	0.043
Mof_O 	O 	0.9439	0.1493	0.7677	-0.485
Mof_C 	C 	0.9367	0.8323	0.9861	-0.346
Mof_C 	C 	0.9429	0.946	0.8871	-0.044
Mof_C 	C 	0.9428	0.0133	0.8474	0.021
Mof_O 	O 	0.6724	0.7196	0.1933	-0.249
Mof_O 	O 	0.6389	0.681	0.1397	-0.324
Mof_H 	H 	0.9366	0.8855	0.0105	0.127
Mof_H 	H 	0.8946	0.8381	0.963	0.127
Mof_H 	H 	0.8985	0.925	0.9012	0.037
Mof_H 	H 	0.8975	0.0353	0.8341	0.043
Mof_O 	O 	0.4439	0.6493	0.2677	-0.487
Mof_C 	C 	0.4367	0.3323	0.4861	-0.351
Mof_C 	C 	0.4429	0.446	0.3871	-0.047
Mof_C 	C 	0.4428	0.5133	0.3474	0.022
Mof_O 	O 	0.1724	0.2196	0.6933	-0.249
Mof_O 	O 	0.1389	0.181	0.6397	-0.324
Mof_H 	H 	0.4366	0.3855	0.5105	0.129
Mof_H 	H 	0.3946	0.3381	0.463	0.128
Mof_H 	H 	0.3985	0.425	0.4012	0.038
Mof_H 	H 	0.3975	0.5353	0.3341	0.043
Mof_O 	O 	0.0561	0.1493	0.7677	-0.486
Mof_C 	C 	0.0633	0.8323	0.9861	-0.347
Mof_C 	C 	0.0571	0.946	0.8871	-0.045
Mof_C 	C 	0.0572	0.0133	0.8474	0.02
Mof_O 	O 	0.3276	0.7196	0.1933	-0.249
Mof_O 	O 	0.3611	0.681	0.1397	-0.324
Mof_H 	H 	0.0634	0.8855	0.0105	0.127
Mof_H 	H 	0.1054	0.8381	0.963	0.127
Mof_H 	H 	0.1015	0.925	0.9012	0.038
Mof_H 	H 	0.1025	0.0353	0.8341	0.043
Mof_O 	O 	0.5561	0.6493	0.2677	-0.487
Mof_C 	C 	0.5633	0.3323	0.4861	-0.351
Mof_C 	C 	0.5571	0.446	0.3871	-0.047
Mof_C 	C 	0.5572	0.5133	0.3474	0.022
Mof_O 	O 	0.8276	0.2196	0.6933	-0.249
Mof_O 	O 	0.8611	0.181	0.6397	-0.323
Mof_H 	H 	0.5634	0.3855	0.5105	0.129
Mof_H 	H 	0.6054	0.3381	0.463	0.128
Mof_H 	H 	0.6015	0.425	0.4012	0.038
Mof_H 	H 	0.6025	0.5353	0.3341	0.043
Mof_O 	O 	0.9439	0.3507	0.7677	-0.485
Mof_C 	C 	0.9367	0.6677	0.9861	-0.347
Mof_C 	C 	0.9429	0.554	0.8871	-0.046
Mof_C 	C 	0.9428	0.4867	0.8474	0.023
Mof_O 	O 	0.6724	0.7804	0.1933	-0.249
Mof_O 	O 	0.6389	0.819	0.1397	-0.324
Mof_H 	H 	0.9366	0.6145	0.0105	0.128
Mof_H 	H 	0.8946	0.6619	0.963	0.127
Mof_H 	H 	0.8985	0.575	0.9012	0.038
Mof_H 	H 	0.8975	0.4647	0.8341	0.043
Mof_O 	O 	0.4439	0.8507	0.2677	-0.487
Mof_C 	C 	0.4367	0.1677	0.4861	-0.351
Mof_C 	C 	0.4429	0.054	0.3871	-0.046
Mof_C 	C 	0.4428	0.9867	0.3474	0.021
Mof_O 	O 	0.1724	0.2804	0.6933	-0.249
Mof_O 	O 	0.1389	0.319	0.6397	-0.324
Mof_H 	H 	0.4366	0.1145	0.5105	0.129
Mof_H 	H 	0.3946	0.1619	0.463	0.128
Mof_H 	H 	0.3985	0.075	0.4012	0.038
Mof_H 	H 	0.3975	0.9647	0.3341	0.043
Mof_Zn	Zn	0.0765	0.25	0.7162	1.244
Mof_Zn	Zn	0.5765	0.75	0.2162	1.244
Mof_Zn	Zn	0.9235	0.25	0.7162	1.245
Mof_Zn	Zn	0.4235	0.75	0.2162	1.244
Mof_O 	O 	-4.24595e-33	0.25	0.665	-0.492
Mof_O 	O 	0.5	0.75	0.165	-0.491
Mof_C 	C 	0.0653	0.75	0.0225	0.226
Mof_C 	C 	0.1292	0.75	0.0608	-0.036
Mof_C 	C 	0.1895	0.75	0.0331	-0.059
Mof_C 	C 	0.2493	0.75	0.0616	0.036
Mof_C 	C 	0.2526	0.75	0.119	-0.125
Mof_C 	C 	0.1942	0.75	0.149	0.057
Mof_C 	C 	0.1364	0.75	0.1179	-0.06
Mof_C 	C 	0.327	0.75	0.1441	0.581
Mof_H 	H 	0.9601	0.75	0.8838	0.147
Mof_H 	H 	0.1933	0.75	0.991	0.044
Mof_H 	H 	0.2932	0.75	0.0436	0.039
Mof_H 	H 	0.1888	0.75	0.1922	0.036
Mof_H 	H 	0.0914	0.75	0.1374	0.046
Mof_C 	C 	0.5653	0.25	0.5225	0.229
Mof_C 	C 	0.6292	0.25	0.5608	-0.039
Mof_C 	C 	0.6895	0.25	0.5331	-0.057
Mof_C 	C 	0.7493	0.25	0.5616	0.034
Mof_C 	C 	0.7526	0.25	0.619	-0.124
Mof_C 	C 	0.6942	0.25	0.649	0.055
Mof_C 	C 	0.6364	0.25	0.6179	-0.058
Mof_C 	C 	0.827	0.25	0.6441	0.58
Mof_H 	H 	0.4601	0.25	0.3838	0.146
Mof_H 	H 	0.6933	0.25	0.491	0.042
Mof_H 	H 	0.7932	0.25	0.5436	0.04
Mof_H 	H 	0.6888	0.25	0.6922	0.036
Mof_H 	H 	0.5914	0.25	0.6374	0.045
Mof_C 	C 	0.9347	0.75	0.0225	0.226
Mof_C 	C 	0.8708	0.75	0.0608	-0.036
Mof_C 	C 	0.8105	0.75	0.0331	-0.06
Mof_C 	C 	0.7507	0.75	0.0616	0.036
Mof_C 	C 	0.7474	0.75	0.119	-0.125
Mof_C 	C 	0.8058	0.75	0.149	0.057
Mof_C 	C 	0.8636	0.75	0.1179	-0.06
Mof_C 	C 	0.673	0.75	0.1441	0.581
Mof_H 	H 	0.0399	0.75	0.8838	0.146
Mof_H 	H 	0.8067	0.75	0.991	0.044
Mof_H 	H 	0.7068	0.75	0.0436	0.039
Mof_H 	H 	0.8112	0.75	0.1922	0.036
Mof_H 	H 	0.9086	0.75	0.1374	0.046
Mof_C 	C 	0.4347	0.25	0.5225	0.229
Mof_C 	C 	0.3708	0.25	0.5608	-0.039
Mof_C 	C 	0.3105	0.25	0.5331	-0.057
Mof_C 	C 	0.2507	0.25	0.5616	0.034
Mof_C 	C 	0.2474	0.25	0.619	-0.124
Mof_C 	C 	0.3058	0.25	0.649	0.056
Mof_C 	C 	0.3636	0.25	0.6179	-0.058
Mof_C 	C 	0.173	0.25	0.6441	0.58
Mof_H 	H 	0.5399	0.25	0.3838	0.146
Mof_H 	H 	0.3067	0.25	0.491	0.042
Mof_H 	H 	0.2068	0.25	0.5436	0.039
Mof_H 	H 	0.3112	0.25	0.6922	0.036
Mof_H 	H 	0.4086	0.25	0.6374	0.045
Mof_C 	C 	-1.0206e-32	0.6694	0.9479	0.249
Mof_C 	C 	-1.03814e-32	0.5914	0.9088	-0.061
Mof_C 	C 	3.705e-33	0.4498	0.8259	-0.13
Mof_C 	C 	-3.7166e-33	0.3783	0.783	0.434
Mof_H 	H 	-6.84111e-33	0.8011	0.0865	0.111
Mof_C 	C 	0.5	0.1694	0.4479	0.251
Mof_C 	C 	0.5	0.0914	0.4088	-0.061
Mof_C 	C 	0.5	0.9498	0.3259	-0.128
Mof_C 	C 	0.5	0.8783	0.283	0.435
Mof_H 	H 	0.5	0.3011	0.5865	0.112
Mof_C 	C 	4.25229e-33	0.8306	0.9479	0.249
Mof_C 	C 	-1.03814e-32	0.9086	0.9088	-0.062
Mof_C 	C 	-3.52415e-33	0.0502	0.8259	-0.128
Mof_C 	C 	3.51255e-33	0.1217	0.783	0.434
Mof_H 	H 	7.61719e-33	0.6989	0.0865	0.111
Mof_C 	C 	0.5	0.3306	0.4479	0.251
Mof_C 	C 	0.5	0.4086	0.4088	-0.06
Mof_C 	C 	0.5	0.5502	0.3259	-0.129
Mof_C 	C 	0.5	0.6217	0.283	0.436
Mof_H 	H 	0.5	0.1989	0.5865	0.112
Mof_C 	C 	-1.03796e-32	0.75	0.9092	-0.381
Mof_C 	C 	1.16922e-33	0.75	0.0592	-0.305
Mof_C 	C 	0.5	0.25	0.4092	-0.381
Mof_C 	C 	0.5	0.25	0.5592	-0.307
Mof_O 	O 	0.9439	0.8507	0.2323	-0.485
Mof_C 	C 	0.9367	0.1677	0.0139	-0.346
Mof_C 	C 	0.9429	0.054	0.1129	-0.044
Mof_C 	C 	0.9428	0.9867	0.1526	0.021
Mof_O 	O 	0.6724	0.2804	0.8067	-0.249
Mof_O 	O 	0.6389	0.319	0.8603	-0.324
Mof_H 	H 	0.9366	0.1145	0.9895	0.127
Mof_H 	H 	0.8946	0.1619	0.037	0.127
Mof_H 	H 	0.8985	0.075	0.0988	0.037
Mof_H 	H 	0.8975	0.9647	0.1659	0.043
Mof_O 	O 	0.4439	0.3507	0.7323	-0.487
Mof_C 	C 	0.4367	0.6677	0.5139	-0.351
Mof_C 	C 	0.4429	0.554	0.6129	-0.047
Mof_C 	C 	0.4428	0.4867	0.6526	0.022
Mof_O 	O 	0.1724	0.7804	0.3067	-0.249
Mof_O 	O 	0.1389	0.819	0.3603	-0.324
Mof_H 	H 	0.4366	0.6145	0.4895	0.129
Mof_H 	H 	0.3946	0.6619	0.537	0.128
Mof_H 	H 	0.3985	0.575	0.5988	0.038
Mof_H 	H 	0.3975	0.4647	0.6659	0.043
Mof_O 	O 	0.0561	0.6493	0.2323	-0.486
Mof_C 	C 	0.0633	0.3323	0.0139	-0.348
Mof_C 	C 	0.0571	0.446	0.1129	-0.048
Mof_C 	C 	0.0572	0.5133	0.1526	0.022
Mof_O 	O 	0.3276	0.2196	0.8067	-0.249
Mof_O 	O 	0.3611	0.181	0.8603	-0.324
Mof_H 	H 	0.0634	0.3855	0.9895	0.128
Mof_H 	H 	0.1054	0.3381	0.037	0.127
Mof_H 	H 	0.1015	0.425	0.0988	0.038
Mof_H 	H 	0.1025	0.5353	0.1659	0.043
Mof_O 	O 	0.5561	0.1493	0.7323	-0.487
Mof_C 	C 	0.5633	0.8323	0.5139	-0.351
Mof_C 	C 	0.5571	0.946	0.6129	-0.046
Mof_C 	C 	0.5572	0.0133	0.6526	0.021
Mof_O 	O 	0.8276	0.7196	0.3067	-0.248
Mof_O 	O 	0.8611	0.681	0.3603	-0.323
Mof_H 	H 	0.5634	0.8855	0.4895	0.129
Mof_H 	H 	0.6054	0.8381	0.537	0.128
Mof_H 	H 	0.6015	0.925	0.5988	0.038
Mof_H 	H 	0.6025	0.0353	0.6659	0.043
Mof_O 	O 	0.9439	0.6493	0.2323	-0.485
Mof_C 	C 	0.9367	0.3323	0.0139	-0.347
Mof_C 	C 	0.9429	0.446	0.1129	-0.046
Mof_C 	C 	0.9428	0.5133	0.1526	0.023
Mof_O 	O 	0.6724	0.2196	0.8067	-0.249
Mof_O 	O 	0.6389	0.181	0.8603	-0.324
Mof_H 	H 	0.9366	0.3855	0.9895	0.128
Mof_H 	H 	0.8946	0.3381	0.037	0.127
Mof_H 	H 	0.8985	0.425	0.0988	0.038
Mof_H 	H 	0.8975	0.5353	0.1659	0.043
Mof_O 	O 	0.4439	0.1493	0.7323	-0.487
Mof_C 	C 	0.4367	0.8323	0.5139	-0.351
Mof_C 	C 	0.4429	0.946	0.6129	-0.046
Mof_C 	C 	0.4428	0.0133	0.6526	0.021
Mof_O 	O 	0.1724	0.7196	0.3067	-0.249
Mof_O 	O 	0.1389	0.681	0.3603	-0.324
Mof_H 	H 	0.4366	0.8855	0.4895	0.129
Mof_H 	H 	0.3946	0.8381	0.537	0.128
Mof_H 	H 	0.3985	0.925	0.5988	0.038
Mof_H 	H 	0.3975	0.0353	0.6659	0.043
Mof_O 	O 	0.0561	0.8507	0.2323	-0.486
Mof_C 	C 	0.0633	0.1677	0.0139	-0.347
Mof_C 	C 	0.0571	0.054	0.1129	-0.045
Mof_C 	C 	0.0572	0.9867	0.1526	0.02
Mof_O 	O 	0.3276	0.2804	0.8067	-0.249
Mof_O 	O 	0.3611	0.319	0.8603	-0.324
Mof_H 	H 	0.0634	0.1145	0.9895	0.127
Mof_H 	H 	0.1054	0.1619	0.037	0.127
Mof_H 	H 	0.1015	0.075	0.0988	0.038
Mof_H 	H 	0.1025	0.9647	0.1659	0.043
Mof_O 	O 	0.5561	0.3507	0.7323	-0.487
Mof_C 	C 	0.5633	0.6677	0.5139	-0.351
Mof_C 	C 	0.5571	0.554	0.6129	-0.047
Mof_C 	C 	0.5572	0.4867	0.6526	0.022
Mof_O 	O 	0.8276	0.7804	0.3067	-0.249
Mof_O 	O 	0.8611	0.819	0.3603	-0.323
Mof_H 	H 	0.5634	0.6145	0.4895	0.129
Mof_H 	H 	0.6054	0.6619	0.537	0.128
Mof_H 	H 	0.6015	0.575	0.5988	0.038
Mof_H 	H 	0.6025	0.4647	0.6659	0.043
Mof_Zn	Zn	0.9235	0.75	0.2838	1.245
Mof_Zn	Zn	0.4235	0.25	0.7838	1.244
Mof_Zn	Zn	0.0765	0.75	0.2838	1.244
Mof_Zn	Zn	0.5765	0.25	0.7838	1.244
Mof_O 	O 	1.23465e-32	0.75	0.335	-0.492
Mof_O 	O 	0.5	0.25	0.835	-0.491
Mof_C 	C 	0.9347	0.25	0.9775	0.226
Mof_C 	C 	0.8708	0.25	0.9392	-0.036
Mof_C 	C 	0.8105	0.25	0.9669	-0.06
Mof_C 	C 	0.7507	0.25	0.9384	0.036
Mof_C 	C 	0.7474	0.25	0.881	-0.125
Mof_C 	C 	0.8058	0.25	0.851	0.057
Mof_C 	C 	0.8636	0.25	0.8821	-0.06
Mof_C 	C 	0.673	0.25	0.8559	0.581
Mof_H 	H 	0.0399	0.25	0.1162	0.146
Mof_H 	H 	0.8067	0.25	0.009	0.044
Mof_H 	H 	0.7068	0.25	0.9564	0.039
Mof_H 	H 	0.8112	0.25	0.8078	0.036
Mof_H 	H 	0.9086	0.25	0.8626	0.046
Mof_C 	C 	0.4347	0.75	0.4775	0.229
Mof_C 	C 	0.3708	0.75	0.4392	-0.039
Mof_C 	C 	0.3105	0.75	0.4669	-0.057
Mof_C 	C 	0.2507	0.75	0.4384	0.034
Mof_C 	C 	0.2474	0.75	0.381	-0.124
Mof_C 	C 	0.3058	0.75	0.351	0.056
Mof_C 	C 	0.3636	0.75	0.3821	-0.058
Mof_C 	C 	0.173	0.75	0.3559	0.58
Mof_H 	H 	0.5399	0.75	0.6162	0.146
Mof_H 	H 	0.3067	0.75	0.509	0.042
Mof_H 	H 	0.2068	0.75	0.4564	0.039
Mof_H 	H 	0.3112	0.75	0.3078	0.036
Mof_H 	H 	0.4086	0.75	0.3626	0.045
Mof_C 	C 	0.0653	0.25	0.9775	0.226
Mof_C 	C 	0.1292	0.25	0.9392	-0.036
Mof_C 	C 	0.1895	0.25	0.9669	-0.059
Mof_C 	C 	0.2493	0.25	0.9384	0.036
Mof_C 	C 	0.2526	0.25	0.881	-0.125
Mof_C 	C 	0.1942	0.25	0.851	0.057
Mof_C 	C 	0.1364	0.25	0.8821	-0.06
Mof_C 	C 	0.327	0.25	0.8559	0.581
Mof_H 	H 	0.9601	0.25	0.1162	0.147
Mof_H 	H 	0.1933	0.25	0.009	0.044
Mof_H 	H 	0.2932	0.25	0.9564	0.039
Mof_H 	H 	0.1888	0.25	0.8078	0.036
Mof_H 	H 	0.0914	0.25	0.8626	0.046
Mof_C 	C 	0.5653	0.75	0.4775	0.229
Mof_C 	C 	0.6292	0.75	0.4392	-0.039
Mof_C 	C 	0.6895	0.75	0.4669	-0.057
Mof_C 	C 	0.7493	0.75	0.4384	0.034
Mof_C 	C 	0.7526	0.75	0.381	-0.124
Mof_C 	C 	0.6942	0.75	0.351	0.055
Mof_C 	C 	0.6364	0.75	0.3821	-0.058
Mof_C 	C 	0.827	0.75	0.3559	0.58
Mof_H 	H 	0.4601	0.75	0.6162	0.146
Mof_H 	H 	0.6933	0.75	0.509	0.042
Mof_H 	H 	0.7932	0.75	0.4564	0.04
Mof_H 	H 	0.6888	0.75	0.3078	0.036
Mof_H 	H 	0.5914	0.75	0.3626	0.045
Mof_C 	C 	1.13736e-33	0.1694	0.0521	0.249
Mof_C 	C 	-4.94519e-34	0.0914	0.0912	-0.062
Mof_C 	C 	7.81015e-34	0.9498	0.1741	-0.128
Mof_C 	C 	1.7239e-32	0.8783	0.217	0.434
Mof_H 	H 	1.85563e-32	0.3011	0.9135	0.111
Mof_C 	C 	0.5	0.6694	0.5521	0.251
Mof_C 	C 	0.5	0.5914	0.5912	-0.06
Mof_C 	C 	0.5	0.4498	0.6741	-0.129
Mof_C 	C 	0.5	0.3783	0.717	0.436
Mof_H 	H 	0.5	0.8011	0.4135	0.112
Mof_C 	C 	-6.69922e-34	0.3306	0.0521	0.249
Mof_C 	C 	2.21641e-33	0.4086	0.0912	-0.061
Mof_C 	C 	-2.83356e-33	0.5502	0.1741	-0.13
Mof_C 	C 	2.78075e-33	0.6217	0.217	0.434
Mof_H 	H 	-1.03603e-32	0.1989	0.9135	0.111
Mof_C 	C 	0.5	0.8306	0.5521	0.251
Mof_C 	C 	0.5	0.9086	0.5912	-0.061
Mof_C 	C 	0.5	0.0502	0.6741	-0.128
Mof_C 	C 	0.5	0.1217	0.717	0.435
Mof_H 	H 	0.5	0.6989	0.4135	0.112
Mof_C 	C 	4.0733e-34	0.25	0.0908	-0.381
Mof_C 	C 	4.22044e-33	0.25	0.9408	-0.305
Mof_C 	C 	0.5	0.75	0.5908	-0.381
Mof_C 	C 	0.5	0.75	0.4408	-0.307
_end
