# CIF file generated by openbabel 3.1.0, see https://openbabel.org
data_I
_chemical_name_common 'image0'
_cell_length_a 9.0193
_cell_length_b 7.3421
_cell_length_c 9.3901
_cell_angle_alpha 90
_cell_angle_beta 90
_cell_angle_gamma 90
_space_group_name_H-M_alt 'P 1'
_space_group_name_Hall 'P 1'
loop_
    _symmetry_equiv_pos_as_xyz
    x,y,z
loop_
    _atom_site_label
    _atom_site_type_symbol
    _atom_site_fract_x
    _atom_site_fract_y
    _atom_site_fract_z
    _atom_site_occupancy
    F1       F        0.64890    0.54960    0.63460    1.000
    F2       F        0.14890    0.04960    0.13460    1.000
    F3       F        0.35110    0.95040    0.63460    1.000
    F4       F        0.85110    0.45040    0.13460    1.000
    F5       F        0.35110    0.04960    0.36540    1.000
    F6       F        0.85110    0.54960    0.86540    1.000
    F7       F        0.64890    0.45040    0.36540    1.000
    F8       F        0.14890    0.95040    0.86540    1.000
    F9       F        0.35110    0.45040    0.36540    1.000
    F10      F        0.85110    0.95040    0.86540    1.000
    F11      F        0.64890    0.04960    0.36540    1.000
    F12      F        0.14890    0.54960    0.86540    1.000
    F13      F        0.64890    0.95040    0.63460    1.000
    F14      F        0.14890    0.45040    0.13460    1.000
    F15      F        0.35110    0.54960    0.63460    1.000
    F16      F        0.85110    0.04960    0.13460    1.000
    Co1      Co       0.75000    0.75000    0.75000    1.000
    Co2      Co       0.25000    0.75000    0.75000    1.000
    Co3      Co       0.25000    0.25000    0.25000    1.000
    Co4      Co       0.75000    0.25000    0.25000    1.000
    Ga1      Ga       0.50000    0.50000    0.50000    1.000
    Ga2      Ga       0.00000    0.00000    0.00000    1.000
    Ga3      Ga       0.50000    0.00000    0.50000    1.000
    Ga4      Ga       0.00000    0.50000    0.00000    1.000
    F17      F        0.50000    0.75000    0.42550    1.000
    F18      F        0.00000    0.25000    0.92550    1.000
    F19      F        0.50000    0.25000    0.57450    1.000
    F20      F        0.00000    0.75000    0.07450    1.000
