# CIF file generated by openbabel 3.1.0, see https://openbabel.org
data_I
_chemical_name_common 'image0'
_cell_length_a 9.263
_cell_length_b 11.0891
_cell_length_c 21.1717
_cell_angle_alpha 90
_cell_angle_beta 100.104
_cell_angle_gamma 90
_space_group_name_H-M_alt 'P 1'
_space_group_name_Hall 'P 1'
loop_
    _symmetry_equiv_pos_as_xyz
    x,y,z
loop_
    _atom_site_label
    _atom_site_type_symbol
    _atom_site_fract_x
    _atom_site_fract_y
    _atom_site_fract_z
    _atom_site_occupancy
    Cu1      Cu       0.83814    0.37908    0.64904    1.000
    F1       F        0.09100    0.60440    0.34151    1.000
    F2       F        0.20270    0.67040    0.45931    1.000
    F3       F        0.61390    0.42080    0.45463    1.000
    F4       F        0.50050    0.35240    0.33706    1.000
    N1       N        0.00000    0.52680    0.19842    1.000
    N2       N        0.42120    0.78520    0.58022    1.000
    N3       N        0.66150    0.46300    0.60593    1.000
    N4       N        0.30220    0.25430    0.20755    1.000
    C1       C        0.48380    0.46780    0.42762    1.000
    C2       C        0.28890    0.47210    0.33362    1.000
    C3       C        0.41590    0.55000    0.46275    1.000
    C4       C        0.47560    0.58550    0.52844    1.000
    C5       C        0.57930    0.51670    0.56906    1.000
    C6       C        0.42290    0.43150    0.36626    1.000
    C7       C        0.09990    0.48770    0.23203    1.000
    C8       C        0.22160    0.55740    0.36823    1.000
    C9       C        0.28150    0.59290    0.42943    1.000
    C10      C        0.44160    0.69650    0.55469    1.000
    C11      C        0.22450    0.43410    0.26887    1.000
    C12      C        0.27430    0.33420    0.23767    1.000
    Cu2      Cu       0.33814    0.87908    0.64904    1.000
    F5       F        0.59100    0.10440    0.34151    1.000
    F6       F        0.70270    0.17040    0.45931    1.000
    F7       F        0.11390    0.92080    0.45463    1.000
    F8       F        0.00050    0.85240    0.33706    1.000
    N5       N        0.50000    0.02680    0.19842    1.000
    N6       N        0.92120    0.28520    0.58022    1.000
    N7       N        0.16150    0.96300    0.60593    1.000
    N8       N        0.80220    0.75430    0.20755    1.000
    C13      C        0.98380    0.96780    0.42762    1.000
    C14      C        0.78890    0.97210    0.33362    1.000
    C15      C        0.91590    0.05000    0.46275    1.000
    C16      C        0.97560    0.08550    0.52844    1.000
    C17      C        0.07930    0.01670    0.56906    1.000
    C18      C        0.92290    0.93150    0.36626    1.000
    C19      C        0.59990    0.98770    0.23203    1.000
    C20      C        0.72160    0.05740    0.36823    1.000
    C21      C        0.78150    0.09290    0.42943    1.000
    C22      C        0.94160    0.19650    0.55469    1.000
    C23      C        0.72450    0.93410    0.26887    1.000
    C24      C        0.77430    0.83420    0.23767    1.000
    Cu3      Cu       0.83814    0.62092    0.14904    1.000
    F9       F        0.09100    0.39560    0.84151    1.000
    F10      F        0.20270    0.32960    0.95931    1.000
    F11      F        0.61390    0.57920    0.95463    1.000
    F12      F        0.50050    0.64760    0.83706    1.000
    N9       N        0.00000    0.47320    0.69842    1.000
    N10      N        0.42120    0.21480    0.08022    1.000
    N11      N        0.66150    0.53700    0.10593    1.000
    N12      N        0.30220    0.74570    0.70755    1.000
    C25      C        0.48380    0.53220    0.92762    1.000
    C26      C        0.28890    0.52790    0.83362    1.000
    C27      C        0.41590    0.45000    0.96275    1.000
    C28      C        0.47560    0.41450    0.02844    1.000
    C29      C        0.57930    0.48330    0.06906    1.000
    C30      C        0.42290    0.56850    0.86626    1.000
    C31      C        0.09990    0.51230    0.73203    1.000
    C32      C        0.22160    0.44260    0.86823    1.000
    C33      C        0.28150    0.40710    0.92943    1.000
    C34      C        0.44160    0.30350    0.05469    1.000
    C35      C        0.22450    0.56590    0.76887    1.000
    C36      C        0.27430    0.66580    0.73767    1.000
    Cu4      Cu       0.33814    0.12092    0.14904    1.000
    F13      F        0.59100    0.89560    0.84151    1.000
    F14      F        0.70270    0.82960    0.95931    1.000
    F15      F        0.11390    0.07920    0.95463    1.000
    F16      F        0.00050    0.14760    0.83706    1.000
    N13      N        0.50000    0.97320    0.69842    1.000
    N14      N        0.92120    0.71480    0.08022    1.000
    N15      N        0.16150    0.03700    0.10593    1.000
    N16      N        0.80220    0.24570    0.70755    1.000
    C37      C        0.98380    0.03220    0.92762    1.000
    C38      C        0.78890    0.02790    0.83362    1.000
    C39      C        0.91590    0.95000    0.96275    1.000
    C40      C        0.97560    0.91450    0.02844    1.000
    C41      C        0.07930    0.98330    0.06906    1.000
    C42      C        0.92290    0.06850    0.86626    1.000
    C43      C        0.59990    0.01230    0.73203    1.000
    C44      C        0.72160    0.94260    0.86823    1.000
    C45      C        0.78150    0.90710    0.92943    1.000
    C46      C        0.94160    0.80350    0.05469    1.000
    C47      C        0.72450    0.06590    0.76887    1.000
    C48      C        0.77430    0.16580    0.73767    1.000
