data_functionalizedCrystal
_audit_creation_method	'EQeq! by Chris Wilmer'
_symmetry_space_group_name_H-M	'P1'
_symmetry_Int_Tables_number	1
_symmetry_cell_setting	triclinic
loop_
_symmetry_equiv_pos_as_xyz
  x,y,z
_cell_length_a	35.5334
_cell_length_b	14.9227
_cell_length_c	30.6034
_cell_angle_alpha	90
_cell_angle_beta	102.176
_cell_angle_gamma	90
loop_
_atom_site_label
_atom_site_type_symbol
_atom_site_fract_x
_atom_site_fract_y
_atom_site_fract_z
_atom_site_charge
Mof_C 	C 	0.56227	0.5403	0.5237	0.085
Mof_H 	H 	0.5739	0.5383	0.4985	-0.01
Mof_C 	C 	0.5311	0.5973	0.5224	-0.137
Mof_H 	H 	0.522	0.6337	0.4969	0.082
Mof_C 	C 	0.51378	0.6006	0.5577	0.065
Mof_C 	C 	0.5274	0.5468	0.5931	-0.135
Mof_H 	H 	0.5152	0.5448	0.6179	0.089
Mof_C 	C 	0.5598	0.494	0.5923	0.088
Mof_H 	H 	0.5704	0.4598	0.6181	-0.023
Mof_C 	C 	0.48077	0.6612	0.55865	0.083
Mof_C 	C 	0.43205	0.7053	0.58954	0.104
Mof_C 	C 	0.44721	0.7857	0.53348	0.089
Mof_C 	C 	0.3928	0.6221	0.6859	0.077
Mof_H 	H 	0.4009	0.5847	0.7113	-0.017
Mof_C 	C 	0.41772	0.6354	0.6581	-0.119
Mof_H 	H 	0.4424	0.6079	0.6641	0.084
Mof_C 	C 	0.40651	0.6896	0.62105	0.064
Mof_C 	C 	0.3692	0.7271	0.614	-0.119
Mof_H 	H 	0.3601	0.7636	0.5886	0.082
Mof_C 	C 	0.34693	0.7112	0.6432	0.078
Mof_H 	H 	0.3222	0.7381	0.6381	-0.014
Mof_C 	C 	0.4056	0.995	0.4755	0.072
Mof_H 	H 	0.3836	0.0318	0.4741	-0.017
Mof_C 	C 	0.4096	0.9212	0.5023	-0.116
Mof_H 	H 	0.3904	0.9066	0.5187	0.077
Mof_C 	C 	0.44227	0.8671	0.50537	0.048
Mof_C 	C 	0.46824	0.8899	0.47971	-0.113
Mof_H 	H 	0.4903	0.8537	0.48	0.069
Mof_C 	C 	0.46197	0.9663	0.4535	0.067
Mof_H 	H 	0.4804	0.9825	0.4365	-0.009
Mof_C 	C 	0.6749	0.5546	0.5993	0.069
Mof_H 	H 	0.6601	0.5851	0.5742	-0.002
Mof_C 	C 	0.70488	0.6	0.6268	-0.118
Mof_H 	H 	0.7106	0.6602	0.6205	0.085
Mof_C 	C 	0.72603	0.557	0.6631	0.048
Mof_C 	C 	0.71636	0.4688	0.6714	-0.128
Mof_H 	H 	0.7302	0.4371	0.6967	0.088
Mof_C 	C 	0.68654	0.4288	0.6423	0.073
Mof_H 	H 	0.6802	0.3687	0.648	-0.009
Mof_C 	C 	0.75837	0.6014	0.69415	0.085
Mof_C 	C 	0.79428	0.7233	0.71717	0.102
Mof_C 	C 	0.80874	0.5914	0.7523	0.1
Mof_C 	C 	0.7833	0.9708	0.6931	0.075
Mof_H 	H 	0.7658	0.01	0.6745	-0.015
Mof_C 	C 	0.77616	0.8791	0.6901	-0.126
Mof_H 	H 	0.7542	0.8565	0.6698	0.079
Mof_C 	C 	0.80101	0.8217	0.7168	0.06
Mof_C 	C 	0.83273	0.8575	0.745	-0.122
Mof_H 	H 	0.8508	0.8196	0.7637	0.084
Mof_C 	C 	0.838	0.9492	0.746	0.067
Mof_H 	H 	0.8601	0.9733	0.7655	-0.016
Mof_C 	C 	0.84678	0.4079	0.83398	0.063
Mof_H 	H 	0.8397	0.3493	0.8414	-0.012
Mof_C 	C 	0.82365	0.4527	0.79894	-0.121
Mof_H 	H 	0.8013	0.4244	0.782	0.074
Mof_C 	C 	0.83315	0.5393	0.78846	0.055
Mof_C 	C 	0.8662	0.5767	0.8127	-0.116
Mof_H 	H 	0.8738	0.6353	0.806	0.09
Mof_C 	C 	0.8884	0.5273	0.8472	0.071
Mof_H 	H 	0.9113	0.5534	0.8641	-0.008
Mof_N 	N 	0.76456	0.6892	0.68826	-0.14
Mof_N 	N 	0.81834	0.6771	0.74854	-0.136
Mof_N 	N 	0.42459	0.7769	0.56262	-0.138
Mof_N 	N 	0.77906	0.5499	0.7262	-0.142
Mof_N 	N 	0.47505	0.7285	0.5287	-0.149
Mof_N 	N 	0.46013	0.6464	0.58982	-0.134
Mof_N 	N 	0.43087	0.0181	0.45127	-0.276
Mof_N 	N 	0.87903	0.445	0.85776	-0.274
Mof_N 	N 	0.66587	0.4698	0.60656	-0.281
Mof_N 	N 	0.35771	0.6589	0.6794	-0.279
Mof_N 	N 	0.81342	0.0056	0.72076	-0.276
Mof_N 	N 	0.57627	0.4893	0.55817	-0.288
Mof_Zn	Zn	0.82452	0.14168	0.72623	1.159
Mof_Zn	Zn	0.9138	0.3758	0.9091	0.602
Mof_Zn	Zn	0.6238	0.4046	0.5661	0.608
Mof_I 	I 	0.86902	0.16635	0.80432	-0.349
Mof_I 	I 	0.7643	0.2341	0.70354	-0.129
Mof_I 	I 	0.97207	0.3419	0.87387	-0.055
Mof_I 	I 	0.87655	0.2674	0.9468	-0.304
Mof_I 	I 	0.6061	0.2599	0.60292	-0.338
Mof_I 	I 	0.64305	0.4088	0.49145	0.038
Mof_I 	I 	0.8615	0.1666	0.7946	-0.044
Mof_I 	I 	0.7604	0.2255	0.6933	-0.208
Mof_I 	I 	0.97679	0.3552	0.86712	-0.272
Mof_I 	I 	0.88681	0.25798	0.94018	-0.052
Mof_I 	I 	0.61299	0.2614	0.58986	-0.024
Mof_I 	I 	0.64255	0.4361	0.48066	-0.388
Mof_Zn	Zn	0.9209	0.3775	0.9039	0.574
Mof_Zn	Zn	0.6222	0.4102	0.5552	0.574
Mof_C 	C 	0.06227	0.0403	0.5237	0.084
Mof_H 	H 	0.0739	0.0383	0.4985	-0.011
Mof_C 	C 	0.0311	0.0973	0.5224	-0.138
Mof_H 	H 	0.022	0.1337	0.4969	0.081
Mof_C 	C 	0.01378	0.1006	0.5577	0.064
Mof_C 	C 	0.0274	0.0468	0.5931	-0.136
Mof_H 	H 	0.0152	0.0448	0.6179	0.088
Mof_C 	C 	0.0598	0.994	0.5923	0.087
Mof_H 	H 	0.0704	0.9598	0.6181	-0.024
Mof_C 	C 	0.98077	0.1612	0.55865	0.082
Mof_C 	C 	0.93205	0.2053	0.58954	0.103
Mof_C 	C 	0.94721	0.2857	0.53348	0.088
Mof_C 	C 	0.8928	0.1221	0.6859	0.076
Mof_H 	H 	0.9009	0.0847	0.7113	-0.018
Mof_C 	C 	0.91772	0.1354	0.6581	-0.12
Mof_H 	H 	0.9424	0.1079	0.6641	0.083
Mof_C 	C 	0.90651	0.1896	0.62105	0.063
Mof_C 	C 	0.8692	0.2271	0.614	-0.12
Mof_H 	H 	0.8601	0.2636	0.5886	0.081
Mof_C 	C 	0.84693	0.2112	0.6432	0.077
Mof_H 	H 	0.8222	0.2381	0.6381	-0.015
Mof_C 	C 	0.9056	0.495	0.4755	0.071
Mof_H 	H 	0.8836	0.5318	0.4741	-0.018
Mof_C 	C 	0.9096	0.4212	0.5023	-0.117
Mof_H 	H 	0.8904	0.4066	0.5187	0.076
Mof_C 	C 	0.94227	0.3671	0.50537	0.047
Mof_C 	C 	0.96824	0.3899	0.47971	-0.114
Mof_H 	H 	0.9903	0.3537	0.48	0.068
Mof_C 	C 	0.96197	0.4663	0.4535	0.066
Mof_H 	H 	0.9804	0.4825	0.4365	-0.01
Mof_C 	C 	0.1749	0.0546	0.5993	0.068
Mof_H 	H 	0.1601	0.0851	0.5742	-0.003
Mof_C 	C 	0.20488	0.1	0.6268	-0.118
Mof_H 	H 	0.2106	0.1602	0.6205	0.085
Mof_C 	C 	0.22603	0.057	0.6631	0.048
Mof_C 	C 	0.21636	0.9688	0.6714	-0.128
Mof_H 	H 	0.2302	0.9371	0.6967	0.088
Mof_C 	C 	0.18654	0.9288	0.6423	0.073
Mof_H 	H 	0.1802	0.8687	0.648	-0.009
Mof_C 	C 	0.25837	0.1014	0.69415	0.085
Mof_C 	C 	0.29428	0.2233	0.71717	0.102
Mof_C 	C 	0.30874	0.0914	0.7523	0.1
Mof_C 	C 	0.2833	0.4708	0.6931	0.076
Mof_H 	H 	0.2658	0.51	0.6745	-0.015
Mof_C 	C 	0.27616	0.3791	0.6901	-0.126
Mof_H 	H 	0.2542	0.3565	0.6698	0.079
Mof_C 	C 	0.30101	0.3217	0.7168	0.06
Mof_C 	C 	0.33273	0.3575	0.745	-0.122
Mof_H 	H 	0.3508	0.3196	0.7637	0.084
Mof_C 	C 	0.338	0.4492	0.746	0.067
Mof_H 	H 	0.3601	0.4733	0.7655	-0.016
Mof_C 	C 	0.34678	0.9079	0.83398	0.063
Mof_H 	H 	0.3397	0.8493	0.8414	-0.012
Mof_C 	C 	0.32365	0.9527	0.79894	-0.121
Mof_H 	H 	0.3013	0.9244	0.782	0.074
Mof_C 	C 	0.33315	0.0393	0.78846	0.055
Mof_C 	C 	0.3662	0.0767	0.8127	-0.117
Mof_H 	H 	0.3738	0.1353	0.806	0.09
Mof_C 	C 	0.3884	0.0273	0.8472	0.072
Mof_H 	H 	0.4113	0.0534	0.8641	-0.008
Mof_N 	N 	0.26456	0.1892	0.68826	-0.14
Mof_N 	N 	0.31834	0.1771	0.74854	-0.136
Mof_N 	N 	0.92459	0.2769	0.56262	-0.138
Mof_N 	N 	0.27906	0.0499	0.7262	-0.142
Mof_N 	N 	0.97505	0.2285	0.5287	-0.149
Mof_N 	N 	0.96013	0.1464	0.58982	-0.134
Mof_N 	N 	0.93087	0.5181	0.45127	-0.276
Mof_N 	N 	0.37903	0.945	0.85776	-0.274
Mof_N 	N 	0.16587	0.9698	0.60656	-0.281
Mof_N 	N 	0.85771	0.1589	0.6794	-0.279
Mof_N 	N 	0.31342	0.5056	0.72076	-0.276
Mof_N 	N 	0.07627	0.9893	0.55817	-0.288
Mof_Zn	Zn	0.32452	0.64168	0.72623	1.159
Mof_Zn	Zn	0.4138	0.8758	0.9091	0.602
Mof_Zn	Zn	0.1238	0.9046	0.5661	0.608
Mof_I 	I 	0.36902	0.66635	0.80432	-0.349
Mof_I 	I 	0.2643	0.7341	0.70354	-0.129
Mof_I 	I 	0.47207	0.8419	0.87387	-0.055
Mof_I 	I 	0.37655	0.7674	0.9468	-0.304
Mof_I 	I 	0.1061	0.7599	0.60292	-0.338
Mof_I 	I 	0.14305	0.9088	0.49145	0.038
Mof_I 	I 	0.3615	0.6666	0.7946	-0.044
Mof_I 	I 	0.2604	0.7255	0.6933	-0.208
Mof_I 	I 	0.47679	0.8552	0.86712	-0.272
Mof_I 	I 	0.38681	0.75798	0.94018	-0.052
Mof_I 	I 	0.11299	0.7614	0.58986	-0.024
Mof_I 	I 	0.14255	0.9361	0.48066	-0.388
Mof_Zn	Zn	0.4209	0.8775	0.9039	0.574
Mof_Zn	Zn	0.1222	0.9102	0.5552	0.574
Mof_C 	C 	0.56227	0.4597	0.0237	0.084
Mof_H 	H 	0.5739	0.4617	0.9985	-0.011
Mof_C 	C 	0.5311	0.4027	0.0224	-0.139
Mof_H 	H 	0.522	0.3663	0.9969	0.081
Mof_C 	C 	0.51378	0.3994	0.0577	0.064
Mof_C 	C 	0.5274	0.4532	0.0931	-0.136
Mof_H 	H 	0.5152	0.4552	0.1179	0.088
Mof_C 	C 	0.5598	0.506	0.0923	0.087
Mof_H 	H 	0.5704	0.5402	0.1181	-0.024
Mof_C 	C 	0.48077	0.3388	0.05865	0.082
Mof_C 	C 	0.43205	0.2947	0.08954	0.103
Mof_C 	C 	0.44721	0.2143	0.03348	0.088
Mof_C 	C 	0.3928	0.3779	0.1859	0.076
Mof_H 	H 	0.4009	0.4153	0.2113	-0.018
Mof_C 	C 	0.41772	0.3646	0.1581	-0.12
Mof_H 	H 	0.4424	0.3921	0.1641	0.083
Mof_C 	C 	0.40651	0.3104	0.12105	0.063
Mof_C 	C 	0.3692	0.2729	0.114	-0.12
Mof_H 	H 	0.3601	0.2364	0.0886	0.081
Mof_C 	C 	0.34693	0.2888	0.1432	0.076
Mof_H 	H 	0.3222	0.2619	0.1381	-0.015
Mof_C 	C 	0.4056	0.005	0.9755	0.072
Mof_H 	H 	0.3836	0.9682	0.9741	-0.018
Mof_C 	C 	0.4096	0.0788	0.0023	-0.118
Mof_H 	H 	0.3904	0.0934	0.0187	0.076
Mof_C 	C 	0.44227	0.1329	0.00537	0.047
Mof_C 	C 	0.46824	0.1101	0.97971	-0.114
Mof_H 	H 	0.4903	0.1463	0.98	0.068
Mof_C 	C 	0.46197	0.0337	0.9535	0.066
Mof_H 	H 	0.4804	0.0175	0.9365	-0.01
Mof_C 	C 	0.6749	0.4454	0.0993	0.068
Mof_H 	H 	0.6601	0.4149	0.0742	-0.003
Mof_C 	C 	0.70488	0.4	0.1268	-0.118
Mof_H 	H 	0.7106	0.3398	0.1205	0.085
Mof_C 	C 	0.72603	0.443	0.1631	0.048
Mof_C 	C 	0.71636	0.5312	0.1714	-0.128
Mof_H 	H 	0.7302	0.5629	0.1967	0.088
Mof_C 	C 	0.68654	0.5712	0.1423	0.073
Mof_H 	H 	0.6802	0.6313	0.148	-0.009
Mof_C 	C 	0.75837	0.3986	0.19415	0.085
Mof_C 	C 	0.79428	0.2767	0.21717	0.102
Mof_C 	C 	0.80874	0.4086	0.2523	0.1
Mof_C 	C 	0.7833	0.0292	0.1931	0.075
Mof_H 	H 	0.7658	0.99	0.1745	-0.015
Mof_C 	C 	0.77616	0.1209	0.1901	-0.125
Mof_H 	H 	0.7542	0.1435	0.1698	0.079
Mof_C 	C 	0.80101	0.1783	0.2168	0.06
Mof_C 	C 	0.83273	0.1425	0.245	-0.122
Mof_H 	H 	0.8508	0.1804	0.2637	0.084
Mof_C 	C 	0.838	0.0508	0.246	0.067
Mof_H 	H 	0.8601	0.0267	0.2655	-0.016
Mof_C 	C 	0.84678	0.5921	0.33398	0.063
Mof_H 	H 	0.8397	0.6507	0.3414	-0.012
Mof_C 	C 	0.82365	0.5473	0.29894	-0.121
Mof_H 	H 	0.8013	0.5756	0.282	0.074
Mof_C 	C 	0.83315	0.4607	0.28846	0.055
Mof_C 	C 	0.8662	0.4233	0.3127	-0.116
Mof_H 	H 	0.8738	0.3647	0.306	0.09
Mof_C 	C 	0.8884	0.4727	0.3472	0.072
Mof_H 	H 	0.9113	0.4466	0.3641	-0.008
Mof_N 	N 	0.76456	0.3108	0.18826	-0.14
Mof_N 	N 	0.81834	0.3229	0.24854	-0.136
Mof_N 	N 	0.42459	0.2231	0.06262	-0.138
Mof_N 	N 	0.77906	0.4501	0.2262	-0.142
Mof_N 	N 	0.47505	0.2715	0.0287	-0.149
Mof_N 	N 	0.46013	0.3536	0.08982	-0.134
Mof_N 	N 	0.43087	0.9819	0.95127	-0.276
Mof_N 	N 	0.87903	0.555	0.35776	-0.274
Mof_N 	N 	0.66587	0.5302	0.10656	-0.281
Mof_N 	N 	0.35771	0.3411	0.1794	-0.279
Mof_N 	N 	0.81342	0.9944	0.22076	-0.276
Mof_N 	N 	0.57627	0.5107	0.05817	-0.288
Mof_Zn	Zn	0.82452	0.85832	0.22623	1.159
Mof_Zn	Zn	0.9138	0.6242	0.4091	0.602
Mof_Zn	Zn	0.6238	0.5954	0.0661	0.608
Mof_I 	I 	0.86902	0.83365	0.30432	-0.349
Mof_I 	I 	0.7643	0.7659	0.20354	-0.129
Mof_I 	I 	0.97207	0.6581	0.37387	-0.055
Mof_I 	I 	0.87655	0.7326	0.4468	-0.304
Mof_I 	I 	0.6061	0.7401	0.10292	-0.338
Mof_I 	I 	0.64305	0.5912	0.99145	0.038
Mof_I 	I 	0.8615	0.8334	0.2946	-0.044
Mof_I 	I 	0.7604	0.7745	0.1933	-0.208
Mof_I 	I 	0.97679	0.6448	0.36712	-0.272
Mof_I 	I 	0.88681	0.74202	0.44018	-0.052
Mof_I 	I 	0.61299	0.7386	0.08986	-0.024
Mof_I 	I 	0.64255	0.5639	0.98066	-0.388
Mof_Zn	Zn	0.9209	0.6225	0.4039	0.574
Mof_Zn	Zn	0.6222	0.5898	0.0552	0.574
Mof_C 	C 	0.06227	0.9597	0.0237	0.084
Mof_H 	H 	0.0739	0.9617	0.9985	-0.011
Mof_C 	C 	0.0311	0.9027	0.0224	-0.138
Mof_H 	H 	0.022	0.8663	0.9969	0.081
Mof_C 	C 	0.01378	0.8994	0.0577	0.064
Mof_C 	C 	0.0274	0.9532	0.0931	-0.136
Mof_H 	H 	0.0152	0.9552	0.1179	0.087
Mof_C 	C 	0.0598	0.006	0.0923	0.086
Mof_H 	H 	0.0704	0.0402	0.1181	-0.024
Mof_C 	C 	0.98077	0.8388	0.05865	0.082
Mof_C 	C 	0.93205	0.7947	0.08954	0.103
Mof_C 	C 	0.94721	0.7143	0.03348	0.088
Mof_C 	C 	0.8928	0.8779	0.1859	0.076
Mof_H 	H 	0.9009	0.9153	0.2113	-0.018
Mof_C 	C 	0.91772	0.8646	0.1581	-0.12
Mof_H 	H 	0.9424	0.8921	0.1641	0.083
Mof_C 	C 	0.90651	0.8104	0.12105	0.063
Mof_C 	C 	0.8692	0.7729	0.114	-0.12
Mof_H 	H 	0.8601	0.7364	0.0886	0.081
Mof_C 	C 	0.84693	0.7888	0.1432	0.077
Mof_H 	H 	0.8222	0.7619	0.1381	-0.015
Mof_C 	C 	0.9056	0.505	0.9755	0.071
Mof_H 	H 	0.8836	0.4682	0.9741	-0.018
Mof_C 	C 	0.9096	0.5788	0.0023	-0.117
Mof_H 	H 	0.8904	0.5934	0.0187	0.076
Mof_C 	C 	0.94227	0.6329	0.00537	0.047
Mof_C 	C 	0.96824	0.6101	0.97971	-0.115
Mof_H 	H 	0.9903	0.6463	0.98	0.068
Mof_C 	C 	0.96197	0.5337	0.9535	0.066
Mof_H 	H 	0.9804	0.5175	0.9365	-0.01
Mof_C 	C 	0.1749	0.9454	0.0993	0.068
Mof_H 	H 	0.1601	0.9149	0.0742	-0.003
Mof_C 	C 	0.20488	0.9	0.1268	-0.118
Mof_H 	H 	0.2106	0.8398	0.1205	0.085
Mof_C 	C 	0.22603	0.943	0.1631	0.049
Mof_C 	C 	0.21636	0.0312	0.1714	-0.128
Mof_H 	H 	0.2302	0.0629	0.1967	0.088
Mof_C 	C 	0.18654	0.0712	0.1423	0.073
Mof_H 	H 	0.1802	0.1313	0.148	-0.009
Mof_C 	C 	0.25837	0.8986	0.19415	0.085
Mof_C 	C 	0.29428	0.7767	0.21717	0.102
Mof_C 	C 	0.30874	0.9086	0.2523	0.1
Mof_C 	C 	0.2833	0.5292	0.1931	0.076
Mof_H 	H 	0.2658	0.49	0.1745	-0.015
Mof_C 	C 	0.27616	0.6209	0.1901	-0.126
Mof_H 	H 	0.2542	0.6435	0.1698	0.079
Mof_C 	C 	0.30101	0.6783	0.2168	0.06
Mof_C 	C 	0.33273	0.6425	0.245	-0.122
Mof_H 	H 	0.3508	0.6804	0.2637	0.084
Mof_C 	C 	0.338	0.5508	0.246	0.067
Mof_H 	H 	0.3601	0.5267	0.2655	-0.016
Mof_C 	C 	0.34678	0.0921	0.33398	0.063
Mof_H 	H 	0.3397	0.1507	0.3414	-0.012
Mof_C 	C 	0.32365	0.0473	0.29894	-0.121
Mof_H 	H 	0.3013	0.0756	0.282	0.074
Mof_C 	C 	0.33315	0.9607	0.28846	0.055
Mof_C 	C 	0.3662	0.9233	0.3127	-0.117
Mof_H 	H 	0.3738	0.8647	0.306	0.09
Mof_C 	C 	0.3884	0.9727	0.3472	0.072
Mof_H 	H 	0.4113	0.9466	0.3641	-0.008
Mof_N 	N 	0.26456	0.8108	0.18826	-0.14
Mof_N 	N 	0.31834	0.8229	0.24854	-0.136
Mof_N 	N 	0.92459	0.7231	0.06262	-0.138
Mof_N 	N 	0.27906	0.9501	0.2262	-0.142
Mof_N 	N 	0.97505	0.7715	0.0287	-0.149
Mof_N 	N 	0.96013	0.8536	0.08982	-0.134
Mof_N 	N 	0.93087	0.4819	0.95127	-0.276
Mof_N 	N 	0.37903	0.055	0.35776	-0.274
Mof_N 	N 	0.16587	0.0302	0.10656	-0.281
Mof_N 	N 	0.85771	0.8411	0.1794	-0.279
Mof_N 	N 	0.31342	0.4944	0.22076	-0.276
Mof_N 	N 	0.07627	0.0107	0.05817	-0.289
Mof_Zn	Zn	0.32452	0.35832	0.22623	1.159
Mof_Zn	Zn	0.4138	0.1242	0.4091	0.602
Mof_Zn	Zn	0.1238	0.0954	0.0661	0.609
Mof_I 	I 	0.36902	0.33365	0.30432	-0.349
Mof_I 	I 	0.2643	0.2659	0.20354	-0.129
Mof_I 	I 	0.47207	0.1581	0.37387	-0.055
Mof_I 	I 	0.37655	0.2326	0.4468	-0.304
Mof_I 	I 	0.1061	0.2401	0.10292	-0.338
Mof_I 	I 	0.14305	0.0912	0.99145	0.038
Mof_I 	I 	0.3615	0.3334	0.2946	-0.044
Mof_I 	I 	0.2604	0.2745	0.1933	-0.208
Mof_I 	I 	0.47679	0.1448	0.36712	-0.272
Mof_I 	I 	0.38681	0.24202	0.44018	-0.052
Mof_I 	I 	0.11299	0.2386	0.08986	-0.024
Mof_I 	I 	0.14255	0.0639	0.98066	-0.388
Mof_Zn	Zn	0.4209	0.1225	0.4039	0.574
Mof_Zn	Zn	0.1222	0.0898	0.0552	0.574
Mof_C 	C 	0.43773	0.5403	0.9763	0.084
Mof_H 	H 	0.4261	0.5383	0.0015	-0.011
Mof_C 	C 	0.4689	0.5973	0.9776	-0.139
Mof_H 	H 	0.478	0.6337	0.0031	0.081
Mof_C 	C 	0.48622	0.6006	0.9423	0.064
Mof_C 	C 	0.4726	0.5468	0.9069	-0.136
Mof_H 	H 	0.4848	0.5448	0.8821	0.088
Mof_C 	C 	0.4402	0.494	0.9077	0.087
Mof_H 	H 	0.4296	0.4598	0.8819	-0.024
Mof_C 	C 	0.51923	0.6612	0.94135	0.082
Mof_C 	C 	0.56795	0.7053	0.91046	0.103
Mof_C 	C 	0.55279	0.7857	0.96652	0.088
Mof_C 	C 	0.6072	0.6221	0.8141	0.076
Mof_H 	H 	0.5991	0.5847	0.7887	-0.018
Mof_C 	C 	0.58228	0.6354	0.8419	-0.12
Mof_H 	H 	0.5576	0.6079	0.8359	0.083
Mof_C 	C 	0.59349	0.6896	0.87895	0.063
Mof_C 	C 	0.6308	0.7271	0.886	-0.12
Mof_H 	H 	0.6399	0.7636	0.9114	0.081
Mof_C 	C 	0.65307	0.7112	0.8568	0.076
Mof_H 	H 	0.6778	0.7381	0.8619	-0.015
Mof_C 	C 	0.5944	0.995	0.0245	0.072
Mof_H 	H 	0.6164	0.0318	0.0259	-0.018
Mof_C 	C 	0.5904	0.9212	0.9977	-0.118
Mof_H 	H 	0.6096	0.9066	0.9813	0.076
Mof_C 	C 	0.55773	0.8671	0.99463	0.047
Mof_C 	C 	0.53176	0.8899	0.02029	-0.114
Mof_H 	H 	0.5097	0.8537	0.02	0.068
Mof_C 	C 	0.53803	0.9663	0.0465	0.066
Mof_H 	H 	0.5196	0.9825	0.0635	-0.01
Mof_C 	C 	0.3251	0.5546	0.9007	0.068
Mof_H 	H 	0.3399	0.5851	0.9258	-0.003
Mof_C 	C 	0.29512	0.6	0.8732	-0.118
Mof_H 	H 	0.2894	0.6602	0.8795	0.085
Mof_C 	C 	0.27397	0.557	0.8369	0.048
Mof_C 	C 	0.28364	0.4688	0.8286	-0.128
Mof_H 	H 	0.2698	0.4371	0.8033	0.088
Mof_C 	C 	0.31346	0.4288	0.8577	0.073
Mof_H 	H 	0.3198	0.3687	0.852	-0.009
Mof_C 	C 	0.24163	0.6014	0.80585	0.085
Mof_C 	C 	0.20572	0.7233	0.78283	0.102
Mof_C 	C 	0.19126	0.5914	0.7477	0.1
Mof_C 	C 	0.2167	0.9708	0.8069	0.075
Mof_H 	H 	0.2342	0.01	0.8255	-0.015
Mof_C 	C 	0.22384	0.8791	0.8099	-0.125
Mof_H 	H 	0.2458	0.8565	0.8302	0.079
Mof_C 	C 	0.19899	0.8217	0.7832	0.06
Mof_C 	C 	0.16727	0.8575	0.755	-0.122
Mof_H 	H 	0.1492	0.8196	0.7363	0.084
Mof_C 	C 	0.162	0.9492	0.754	0.067
Mof_H 	H 	0.1399	0.9733	0.7345	-0.016
Mof_C 	C 	0.15322	0.4079	0.66602	0.063
Mof_H 	H 	0.1603	0.3493	0.6586	-0.012
Mof_C 	C 	0.17635	0.4527	0.70106	-0.121
Mof_H 	H 	0.1987	0.4244	0.718	0.074
Mof_C 	C 	0.16685	0.5393	0.71154	0.055
Mof_C 	C 	0.1338	0.5767	0.6873	-0.116
Mof_H 	H 	0.1262	0.6353	0.694	0.09
Mof_C 	C 	0.1116	0.5273	0.6528	0.072
Mof_H 	H 	0.0887	0.5534	0.6359	-0.008
Mof_N 	N 	0.23544	0.6892	0.81174	-0.14
Mof_N 	N 	0.18166	0.6771	0.75146	-0.136
Mof_N 	N 	0.57541	0.7769	0.93738	-0.138
Mof_N 	N 	0.22094	0.5499	0.7738	-0.142
Mof_N 	N 	0.52495	0.7285	0.9713	-0.149
Mof_N 	N 	0.53987	0.6464	0.91018	-0.134
Mof_N 	N 	0.56913	0.0181	0.04873	-0.276
Mof_N 	N 	0.12097	0.445	0.64224	-0.274
Mof_N 	N 	0.33413	0.4698	0.89344	-0.281
Mof_N 	N 	0.64229	0.6589	0.8206	-0.279
Mof_N 	N 	0.18658	0.0056	0.77924	-0.276
Mof_N 	N 	0.42373	0.4893	0.94183	-0.288
Mof_Zn	Zn	0.17548	0.14168	0.77377	1.159
Mof_Zn	Zn	0.0862	0.3758	0.5909	0.602
Mof_Zn	Zn	0.3762	0.4046	0.9339	0.608
Mof_I 	I 	0.13098	0.16635	0.69568	-0.349
Mof_I 	I 	0.2357	0.2341	0.79646	-0.129
Mof_I 	I 	0.02793	0.3419	0.62613	-0.055
Mof_I 	I 	0.12345	0.2674	0.5532	-0.304
Mof_I 	I 	0.3939	0.2599	0.89708	-0.338
Mof_I 	I 	0.35695	0.4088	0.00855	0.038
Mof_I 	I 	0.1385	0.1666	0.7054	-0.044
Mof_I 	I 	0.2396	0.2255	0.8067	-0.208
Mof_I 	I 	0.02321	0.3552	0.63288	-0.272
Mof_I 	I 	0.11319	0.25798	0.55982	-0.052
Mof_I 	I 	0.38701	0.2614	0.91014	-0.024
Mof_I 	I 	0.35745	0.4361	0.01934	-0.388
Mof_Zn	Zn	0.0791	0.3775	0.5961	0.574
Mof_Zn	Zn	0.3778	0.4102	0.9448	0.574
Mof_C 	C 	0.93773	0.0403	0.9763	0.084
Mof_H 	H 	0.9261	0.0383	0.0015	-0.011
Mof_C 	C 	0.9689	0.0973	0.9776	-0.138
Mof_H 	H 	0.978	0.1337	0.0031	0.081
Mof_C 	C 	0.98622	0.1006	0.9423	0.064
Mof_C 	C 	0.9726	0.0468	0.9069	-0.136
Mof_H 	H 	0.9848	0.0448	0.8821	0.087
Mof_C 	C 	0.9402	0.994	0.9077	0.086
Mof_H 	H 	0.9296	0.9598	0.8819	-0.024
Mof_C 	C 	0.01923	0.1612	0.94135	0.082
Mof_C 	C 	0.06795	0.2053	0.91046	0.103
Mof_C 	C 	0.05279	0.2857	0.96652	0.088
Mof_C 	C 	0.1072	0.1221	0.8141	0.076
Mof_H 	H 	0.0991	0.0847	0.7887	-0.018
Mof_C 	C 	0.08228	0.1354	0.8419	-0.12
Mof_H 	H 	0.0576	0.1079	0.8359	0.083
Mof_C 	C 	0.09349	0.1896	0.87895	0.063
Mof_C 	C 	0.1308	0.2271	0.886	-0.12
Mof_H 	H 	0.1399	0.2636	0.9114	0.081
Mof_C 	C 	0.15307	0.2112	0.8568	0.077
Mof_H 	H 	0.1778	0.2381	0.8619	-0.015
Mof_C 	C 	0.0944	0.495	0.0245	0.071
Mof_H 	H 	0.1164	0.5318	0.0259	-0.018
Mof_C 	C 	0.0904	0.4212	0.9977	-0.117
Mof_H 	H 	0.1096	0.4066	0.9813	0.076
Mof_C 	C 	0.05773	0.3671	0.99463	0.047
Mof_C 	C 	0.03176	0.3899	0.02029	-0.115
Mof_H 	H 	0.0097	0.3537	0.02	0.068
Mof_C 	C 	0.03803	0.4663	0.0465	0.066
Mof_H 	H 	0.0196	0.4825	0.0635	-0.01
Mof_C 	C 	0.8251	0.0546	0.9007	0.068
Mof_H 	H 	0.8399	0.0851	0.9258	-0.003
Mof_C 	C 	0.79512	0.1	0.8732	-0.118
Mof_H 	H 	0.7894	0.1602	0.8795	0.085
Mof_C 	C 	0.77397	0.057	0.8369	0.049
Mof_C 	C 	0.78364	0.9688	0.8286	-0.128
Mof_H 	H 	0.7698	0.9371	0.8033	0.088
Mof_C 	C 	0.81346	0.9288	0.8577	0.073
Mof_H 	H 	0.8198	0.8687	0.852	-0.009
Mof_C 	C 	0.74163	0.1014	0.80585	0.085
Mof_C 	C 	0.70572	0.2233	0.78283	0.102
Mof_C 	C 	0.69126	0.0914	0.7477	0.1
Mof_C 	C 	0.7167	0.4708	0.8069	0.076
Mof_H 	H 	0.7342	0.51	0.8255	-0.015
Mof_C 	C 	0.72384	0.3791	0.8099	-0.126
Mof_H 	H 	0.7458	0.3565	0.8302	0.079
Mof_C 	C 	0.69899	0.3217	0.7832	0.06
Mof_C 	C 	0.66727	0.3575	0.755	-0.122
Mof_H 	H 	0.6492	0.3196	0.7363	0.084
Mof_C 	C 	0.662	0.4492	0.754	0.067
Mof_H 	H 	0.6399	0.4733	0.7345	-0.016
Mof_C 	C 	0.65322	0.9079	0.66602	0.063
Mof_H 	H 	0.6603	0.8493	0.6586	-0.012
Mof_C 	C 	0.67635	0.9527	0.70106	-0.121
Mof_H 	H 	0.6987	0.9244	0.718	0.074
Mof_C 	C 	0.66685	0.0393	0.71154	0.055
Mof_C 	C 	0.6338	0.0767	0.6873	-0.117
Mof_H 	H 	0.6262	0.1353	0.694	0.09
Mof_C 	C 	0.6116	0.0273	0.6528	0.072
Mof_H 	H 	0.5887	0.0534	0.6359	-0.008
Mof_N 	N 	0.73544	0.1892	0.81174	-0.14
Mof_N 	N 	0.68166	0.1771	0.75146	-0.136
Mof_N 	N 	0.07541	0.2769	0.93738	-0.138
Mof_N 	N 	0.72094	0.0499	0.7738	-0.142
Mof_N 	N 	0.02495	0.2285	0.9713	-0.149
Mof_N 	N 	0.03987	0.1464	0.91018	-0.134
Mof_N 	N 	0.06913	0.5181	0.04873	-0.276
Mof_N 	N 	0.62097	0.945	0.64224	-0.274
Mof_N 	N 	0.83413	0.9698	0.89344	-0.281
Mof_N 	N 	0.14229	0.1589	0.8206	-0.279
Mof_N 	N 	0.68658	0.5056	0.77924	-0.276
Mof_N 	N 	0.92373	0.9893	0.94183	-0.289
Mof_Zn	Zn	0.67548	0.64168	0.77377	1.159
Mof_Zn	Zn	0.5862	0.8758	0.5909	0.602
Mof_Zn	Zn	0.8762	0.9046	0.9339	0.609
Mof_I 	I 	0.63098	0.66635	0.69568	-0.349
Mof_I 	I 	0.7357	0.7341	0.79646	-0.129
Mof_I 	I 	0.52793	0.8419	0.62613	-0.055
Mof_I 	I 	0.62345	0.7674	0.5532	-0.304
Mof_I 	I 	0.8939	0.7599	0.89708	-0.338
Mof_I 	I 	0.85695	0.9088	0.00855	0.038
Mof_I 	I 	0.6385	0.6666	0.7054	-0.044
Mof_I 	I 	0.7396	0.7255	0.8067	-0.208
Mof_I 	I 	0.52321	0.8552	0.63288	-0.272
Mof_I 	I 	0.61319	0.75798	0.55982	-0.052
Mof_I 	I 	0.88701	0.7614	0.91014	-0.024
Mof_I 	I 	0.85745	0.9361	0.01934	-0.388
Mof_Zn	Zn	0.5791	0.8775	0.5961	0.574
Mof_Zn	Zn	0.8778	0.9102	0.9448	0.574
Mof_C 	C 	0.43773	0.4597	0.4763	0.084
Mof_H 	H 	0.4261	0.4617	0.5015	-0.011
Mof_C 	C 	0.4689	0.4027	0.4776	-0.138
Mof_H 	H 	0.478	0.3663	0.5031	0.081
Mof_C 	C 	0.48622	0.3994	0.4423	0.064
Mof_C 	C 	0.4726	0.4532	0.4069	-0.136
Mof_H 	H 	0.4848	0.4552	0.3821	0.088
Mof_C 	C 	0.4402	0.506	0.4077	0.087
Mof_H 	H 	0.4296	0.5402	0.3819	-0.024
Mof_C 	C 	0.51923	0.3388	0.44135	0.082
Mof_C 	C 	0.56795	0.2947	0.41046	0.103
Mof_C 	C 	0.55279	0.2143	0.46652	0.088
Mof_C 	C 	0.6072	0.3779	0.3141	0.076
Mof_H 	H 	0.5991	0.4153	0.2887	-0.018
Mof_C 	C 	0.58228	0.3646	0.3419	-0.12
Mof_H 	H 	0.5576	0.3921	0.3359	0.083
Mof_C 	C 	0.59349	0.3104	0.37895	0.063
Mof_C 	C 	0.6308	0.2729	0.386	-0.12
Mof_H 	H 	0.6399	0.2364	0.4114	0.081
Mof_C 	C 	0.65307	0.2888	0.3568	0.077
Mof_H 	H 	0.6778	0.2619	0.3619	-0.015
Mof_C 	C 	0.5944	0.005	0.5245	0.071
Mof_H 	H 	0.6164	0.9682	0.5259	-0.018
Mof_C 	C 	0.5904	0.0788	0.4977	-0.117
Mof_H 	H 	0.6096	0.0934	0.4813	0.076
Mof_C 	C 	0.55773	0.1329	0.49463	0.047
Mof_C 	C 	0.53176	0.1101	0.52029	-0.114
Mof_H 	H 	0.5097	0.1463	0.52	0.068
Mof_C 	C 	0.53803	0.0337	0.5465	0.066
Mof_H 	H 	0.5196	0.0175	0.5635	-0.01
Mof_C 	C 	0.3251	0.4454	0.4007	0.068
Mof_H 	H 	0.3399	0.4149	0.4258	-0.003
Mof_C 	C 	0.29512	0.4	0.3732	-0.118
Mof_H 	H 	0.2894	0.3398	0.3795	0.085
Mof_C 	C 	0.27397	0.443	0.3369	0.048
Mof_C 	C 	0.28364	0.5312	0.3286	-0.128
Mof_H 	H 	0.2698	0.5629	0.3033	0.088
Mof_C 	C 	0.31346	0.5712	0.3577	0.073
Mof_H 	H 	0.3198	0.6313	0.352	-0.009
Mof_C 	C 	0.24163	0.3986	0.30585	0.085
Mof_C 	C 	0.20572	0.2767	0.28283	0.102
Mof_C 	C 	0.19126	0.4086	0.2477	0.1
Mof_C 	C 	0.2167	0.0292	0.3069	0.075
Mof_H 	H 	0.2342	0.99	0.3255	-0.015
Mof_C 	C 	0.22384	0.1209	0.3099	-0.126
Mof_H 	H 	0.2458	0.1435	0.3302	0.079
Mof_C 	C 	0.19899	0.1783	0.2832	0.06
Mof_C 	C 	0.16727	0.1425	0.255	-0.122
Mof_H 	H 	0.1492	0.1804	0.2363	0.084
Mof_C 	C 	0.162	0.0508	0.254	0.067
Mof_H 	H 	0.1399	0.0267	0.2345	-0.016
Mof_C 	C 	0.15322	0.5921	0.16602	0.063
Mof_H 	H 	0.1603	0.6507	0.1586	-0.012
Mof_C 	C 	0.17635	0.5473	0.20106	-0.121
Mof_H 	H 	0.1987	0.5756	0.218	0.074
Mof_C 	C 	0.16685	0.4607	0.21154	0.055
Mof_C 	C 	0.1338	0.4233	0.1873	-0.116
Mof_H 	H 	0.1262	0.3647	0.194	0.09
Mof_C 	C 	0.1116	0.4727	0.1528	0.071
Mof_H 	H 	0.0887	0.4466	0.1359	-0.008
Mof_N 	N 	0.23544	0.3108	0.31174	-0.14
Mof_N 	N 	0.18166	0.3229	0.25146	-0.136
Mof_N 	N 	0.57541	0.2231	0.43738	-0.138
Mof_N 	N 	0.22094	0.4501	0.2738	-0.142
Mof_N 	N 	0.52495	0.2715	0.4713	-0.149
Mof_N 	N 	0.53987	0.3536	0.41018	-0.134
Mof_N 	N 	0.56913	0.9819	0.54873	-0.276
Mof_N 	N 	0.12097	0.555	0.14224	-0.274
Mof_N 	N 	0.33413	0.5302	0.39344	-0.281
Mof_N 	N 	0.64229	0.3411	0.3206	-0.279
Mof_N 	N 	0.18658	0.9944	0.27924	-0.276
Mof_N 	N 	0.42373	0.5107	0.44183	-0.288
Mof_Zn	Zn	0.17548	0.85832	0.27377	1.159
Mof_Zn	Zn	0.0862	0.6242	0.0909	0.602
Mof_Zn	Zn	0.3762	0.5954	0.4339	0.608
Mof_I 	I 	0.13098	0.83365	0.19568	-0.349
Mof_I 	I 	0.2357	0.7659	0.29646	-0.129
Mof_I 	I 	0.02793	0.6581	0.12613	-0.055
Mof_I 	I 	0.12345	0.7326	0.0532	-0.304
Mof_I 	I 	0.3939	0.7401	0.39708	-0.338
Mof_I 	I 	0.35695	0.5912	0.50855	0.038
Mof_I 	I 	0.1385	0.8334	0.2054	-0.044
Mof_I 	I 	0.2396	0.7745	0.3067	-0.208
Mof_I 	I 	0.02321	0.6448	0.13288	-0.272
Mof_I 	I 	0.11319	0.74202	0.05982	-0.052
Mof_I 	I 	0.38701	0.7386	0.41014	-0.024
Mof_I 	I 	0.35745	0.5639	0.51934	-0.388
Mof_Zn	Zn	0.0791	0.6225	0.0961	0.574
Mof_Zn	Zn	0.3778	0.5898	0.4448	0.574
Mof_C 	C 	0.93773	0.9597	0.4763	0.084
Mof_H 	H 	0.9261	0.9617	0.5015	-0.011
Mof_C 	C 	0.9689	0.9027	0.4776	-0.138
Mof_H 	H 	0.978	0.8663	0.5031	0.081
Mof_C 	C 	0.98622	0.8994	0.4423	0.064
Mof_C 	C 	0.9726	0.9532	0.4069	-0.136
Mof_H 	H 	0.9848	0.9552	0.3821	0.088
Mof_C 	C 	0.9402	0.006	0.4077	0.087
Mof_H 	H 	0.9296	0.0402	0.3819	-0.024
Mof_C 	C 	0.01923	0.8388	0.44135	0.082
Mof_C 	C 	0.06795	0.7947	0.41046	0.103
Mof_C 	C 	0.05279	0.7143	0.46652	0.088
Mof_C 	C 	0.1072	0.8779	0.3141	0.076
Mof_H 	H 	0.0991	0.9153	0.2887	-0.018
Mof_C 	C 	0.08228	0.8646	0.3419	-0.12
Mof_H 	H 	0.0576	0.8921	0.3359	0.083
Mof_C 	C 	0.09349	0.8104	0.37895	0.063
Mof_C 	C 	0.1308	0.7729	0.386	-0.12
Mof_H 	H 	0.1399	0.7364	0.4114	0.081
Mof_C 	C 	0.15307	0.7888	0.3568	0.077
Mof_H 	H 	0.1778	0.7619	0.3619	-0.015
Mof_C 	C 	0.0944	0.505	0.5245	0.071
Mof_H 	H 	0.1164	0.4682	0.5259	-0.018
Mof_C 	C 	0.0904	0.5788	0.4977	-0.117
Mof_H 	H 	0.1096	0.5934	0.4813	0.076
Mof_C 	C 	0.05773	0.6329	0.49463	0.047
Mof_C 	C 	0.03176	0.6101	0.52029	-0.114
Mof_H 	H 	0.0097	0.6463	0.52	0.068
Mof_C 	C 	0.03803	0.5337	0.5465	0.066
Mof_H 	H 	0.0196	0.5175	0.5635	-0.01
Mof_C 	C 	0.8251	0.9454	0.4007	0.068
Mof_H 	H 	0.8399	0.9149	0.4258	-0.003
Mof_C 	C 	0.79512	0.9	0.3732	-0.118
Mof_H 	H 	0.7894	0.8398	0.3795	0.085
Mof_C 	C 	0.77397	0.943	0.3369	0.048
Mof_C 	C 	0.78364	0.0312	0.3286	-0.128
Mof_H 	H 	0.7698	0.0629	0.3033	0.088
Mof_C 	C 	0.81346	0.0712	0.3577	0.073
Mof_H 	H 	0.8198	0.1313	0.352	-0.009
Mof_C 	C 	0.74163	0.8986	0.30585	0.085
Mof_C 	C 	0.70572	0.7767	0.28283	0.102
Mof_C 	C 	0.69126	0.9086	0.2477	0.1
Mof_C 	C 	0.7167	0.5292	0.3069	0.076
Mof_H 	H 	0.7342	0.49	0.3255	-0.015
Mof_C 	C 	0.72384	0.6209	0.3099	-0.126
Mof_H 	H 	0.7458	0.6435	0.3302	0.079
Mof_C 	C 	0.69899	0.6783	0.2832	0.06
Mof_C 	C 	0.66727	0.6425	0.255	-0.122
Mof_H 	H 	0.6492	0.6804	0.2363	0.084
Mof_C 	C 	0.662	0.5508	0.254	0.067
Mof_H 	H 	0.6399	0.5267	0.2345	-0.016
Mof_C 	C 	0.65322	0.0921	0.16602	0.063
Mof_H 	H 	0.6603	0.1507	0.1586	-0.012
Mof_C 	C 	0.67635	0.0473	0.20106	-0.121
Mof_H 	H 	0.6987	0.0756	0.218	0.074
Mof_C 	C 	0.66685	0.9607	0.21154	0.055
Mof_C 	C 	0.6338	0.9233	0.1873	-0.117
Mof_H 	H 	0.6262	0.8647	0.194	0.09
Mof_C 	C 	0.6116	0.9727	0.1528	0.072
Mof_H 	H 	0.5887	0.9466	0.1359	-0.008
Mof_N 	N 	0.73544	0.8108	0.31174	-0.14
Mof_N 	N 	0.68166	0.8229	0.25146	-0.136
Mof_N 	N 	0.07541	0.7231	0.43738	-0.138
Mof_N 	N 	0.72094	0.9501	0.2738	-0.142
Mof_N 	N 	0.02495	0.7715	0.4713	-0.149
Mof_N 	N 	0.03987	0.8536	0.41018	-0.134
Mof_N 	N 	0.06913	0.4819	0.54873	-0.276
Mof_N 	N 	0.62097	0.055	0.14224	-0.274
Mof_N 	N 	0.83413	0.0302	0.39344	-0.281
Mof_N 	N 	0.14229	0.8411	0.3206	-0.279
Mof_N 	N 	0.68658	0.4944	0.27924	-0.276
Mof_N 	N 	0.92373	0.0107	0.44183	-0.288
Mof_Zn	Zn	0.67548	0.35832	0.27377	1.159
Mof_Zn	Zn	0.5862	0.1242	0.0909	0.602
Mof_Zn	Zn	0.8762	0.0954	0.4339	0.608
Mof_I 	I 	0.63098	0.33365	0.19568	-0.349
Mof_I 	I 	0.7357	0.2659	0.29646	-0.129
Mof_I 	I 	0.52793	0.1581	0.12613	-0.055
Mof_I 	I 	0.62345	0.2326	0.0532	-0.304
Mof_I 	I 	0.8939	0.2401	0.39708	-0.338
Mof_I 	I 	0.85695	0.0912	0.50855	0.038
Mof_I 	I 	0.6385	0.3334	0.2054	-0.044
Mof_I 	I 	0.7396	0.2745	0.3067	-0.208
Mof_I 	I 	0.52321	0.1448	0.13288	-0.272
Mof_I 	I 	0.61319	0.24202	0.05982	-0.052
Mof_I 	I 	0.88701	0.2386	0.41014	-0.024
Mof_I 	I 	0.85745	0.0639	0.51934	-0.388
Mof_Zn	Zn	0.5791	0.1225	0.0961	0.574
Mof_Zn	Zn	0.8778	0.0898	0.4448	0.574
_end
