data_functionalizedCrystal
_audit_creation_method	'EQeq! by Chris Wilmer'
_symmetry_space_group_name_H-M	'P1'
_symmetry_Int_Tables_number	1
_symmetry_cell_setting	triclinic
loop_
_symmetry_equiv_pos_as_xyz
  x,y,z
_cell_length_a	20.939
_cell_length_b	25.433
_cell_length_c	31.146
_cell_angle_alpha	90
_cell_angle_beta	90
_cell_angle_gamma	90
loop_
_atom_site_label
_atom_site_type_symbol
_atom_site_fract_x
_atom_site_fract_y
_atom_site_fract_z
_atom_site_charge
Mof_Cu	Cu	0.17278	0.50415	0.0863	0.832
Mof_Cu	Cu	0.17278	0.49585	0.9137	0.831
Mof_Cu	Cu	0.67278	0.00415	0.4137	0.82
Mof_Cu	Cu	0.67278	0.99585	0.5863	0.843
Mof_Cu	Cu	0.54323	0	0.5	0.827
Mof_Cu	Cu	0.04323	0.5	-0	0.825
Mof_Cu	Cu	0.79954	0	0.5	0.822
Mof_Cu	Cu	0.29954	0.5	-0	0.823
Mof_H 	H 	0.517	0.1172	0.491	-0.015
Mof_H 	H 	0.4708	0.1728	0.4473	0.085
Mof_H 	H 	0.4205	0.0537	0.3697	0.08
Mof_H 	H 	0.4752	0.0004	0.4192	-0.037
Mof_H 	H 	0.4163	0.2208	0.4062	0.032
Mof_H 	H 	0.3728	0.2783	0.3566	0.056
Mof_H 	H 	0.3666	0.1644	0.2712	0.054
Mof_H 	H 	0.4134	0.1075	0.319	0.031
Mof_H 	H 	0.2965	0.3135	0.3185	0.052
Mof_H 	H 	0.2577	0.3768	0.2722	0.049
Mof_H 	H 	0.3269	0.2906	0.1749	0.04
Mof_H 	H 	0.3704	0.2311	0.2246	0.052
Mof_H 	H 	0.2309	0.5033	0.1762	-0.031
Mof_H 	H 	0.2697	0.4465	0.2231	0.098
Mof_H 	H 	0.2658	0.3337	0.1332	0.08
Mof_H 	H 	0.2113	0.3959	0.0903	-0.024
Mof_H 	H 	0.8574	0.0092	0.4097	-0.075
Mof_H 	H 	0.901	0.9552	0.3599	0.113
Mof_H 	H 	0.9214	0.846	0.4489	0.1
Mof_H 	H 	0.8762	0.9003	0.4961	-0.028
Mof_H 	H 	0.9636	0.9117	0.3185	0.049
Mof_H 	H 	0.0088	0.8543	0.2689	0.029
Mof_H 	H 	0.9874	0.7372	0.3509	0.04
Mof_H 	H 	0.9456	0.7929	0.4021	0.041
Mof_H 	H 	0.0048	0.7938	0.2213	0.062
Mof_H 	H 	0.0361	0.7303	0.1714	0.031
Mof_H 	H 	0.0897	0.6353	0.2679	0.034
Mof_H 	H 	0.0577	0.6976	0.3167	0.059
Mof_H 	H 	0.1138	0.5095	0.1766	-0.022
Mof_H 	H 	0.0791	0.5703	0.2234	0.094
Mof_H 	H 	0.094	0.6771	0.1293	0.095
Mof_H 	H 	0.1292	0.6152	0.0871	-0.035
Mof_H 	H 	0.517	0.8828	0.509	-0.013
Mof_H 	H 	0.4708	0.8272	0.5527	0.085
Mof_H 	H 	0.4205	0.9463	0.6303	0.088
Mof_H 	H 	0.4752	0.9996	0.5808	-0.019
Mof_H 	H 	0.4163	0.7792	0.5938	0.033
Mof_H 	H 	0.3728	0.7217	0.6434	0.055
Mof_H 	H 	0.3666	0.8356	0.7288	0.057
Mof_H 	H 	0.4134	0.8925	0.681	0.038
Mof_H 	H 	0.2965	0.6865	0.6815	0.053
Mof_H 	H 	0.2577	0.6232	0.7278	0.049
Mof_H 	H 	0.3269	0.7094	0.8251	0.042
Mof_H 	H 	0.3704	0.7689	0.7754	0.054
Mof_H 	H 	0.2309	0.4967	0.8238	-0.031
Mof_H 	H 	0.2697	0.5535	0.7769	0.098
Mof_H 	H 	0.2658	0.6663	0.8668	0.082
Mof_H 	H 	0.2113	0.6041	0.9097	-0.019
Mof_H 	H 	0.8574	0.9908	0.5903	0.019
Mof_H 	H 	0.901	0.0448	0.6401	0.067
Mof_H 	H 	0.9214	0.154	0.5511	0.083
Mof_H 	H 	0.8762	0.0997	0.5039	-0.023
Mof_H 	H 	0.9636	0.0883	0.6815	0.048
Mof_H 	H 	0.0088	0.1457	0.7311	0.022
Mof_H 	H 	0.9874	0.2628	0.6491	0.036
Mof_H 	H 	0.9456	0.2071	0.5979	0.047
Mof_H 	H 	0.0048	0.2062	0.7787	0.061
Mof_H 	H 	0.0361	0.2697	0.8286	0.031
Mof_H 	H 	0.0897	0.3647	0.7321	0.034
Mof_H 	H 	0.0577	0.3024	0.6833	0.06
Mof_H 	H 	0.1138	0.4905	0.8234	-0.022
Mof_H 	H 	0.0791	0.4297	0.7766	0.095
Mof_H 	H 	0.094	0.3229	0.8707	0.097
Mof_H 	H 	0.1292	0.3848	0.9129	-0.03
Mof_H 	H 	0.017	0.6172	0.009	-0.037
Mof_H 	H 	0.9708	0.6728	0.0527	0.091
Mof_H 	H 	0.9205	0.5537	0.1303	0.086
Mof_H 	H 	0.9752	0.5004	0.0808	-0.029
Mof_H 	H 	0.9163	0.7208	0.0938	0.031
Mof_H 	H 	0.8728	0.7783	0.1434	0.057
Mof_H 	H 	0.8666	0.6644	0.2288	0.056
Mof_H 	H 	0.9134	0.6075	0.181	0.034
Mof_H 	H 	0.7965	0.8135	0.1815	0.055
Mof_H 	H 	0.7577	0.8768	0.2278	0.046
Mof_H 	H 	0.8269	0.7906	0.3251	0.038
Mof_H 	H 	0.8704	0.7311	0.2754	0.056
Mof_H 	H 	0.7309	0.0033	0.3238	-0.08
Mof_H 	H 	0.7697	0.9465	0.2769	0.122
Mof_H 	H 	0.7658	0.8337	0.3668	0.088
Mof_H 	H 	0.7113	0.8959	0.4097	-0.024
Mof_H 	H 	0.3574	0.5092	0.0903	-0.032
Mof_H 	H 	0.401	0.4552	0.1401	0.093
Mof_H 	H 	0.4214	0.346	0.0511	0.092
Mof_H 	H 	0.3762	0.4003	0.0039	-0.037
Mof_H 	H 	0.4636	0.4117	0.1815	0.031
Mof_H 	H 	0.5088	0.3543	0.2311	0.054
Mof_H 	H 	0.4874	0.2372	0.1491	0.052
Mof_H 	H 	0.4456	0.2929	0.0979	0.027
Mof_H 	H 	0.5048	0.2938	0.2787	0.054
Mof_H 	H 	0.5361	0.2303	0.3286	0.038
Mof_H 	H 	0.5897	0.1353	0.2321	0.036
Mof_H 	H 	0.5577	0.1976	0.1833	0.049
Mof_H 	H 	0.6138	0.0095	0.3234	-0.031
Mof_H 	H 	0.5791	0.0703	0.2766	0.089
Mof_H 	H 	0.594	0.1771	0.3707	0.096
Mof_H 	H 	0.6292	0.1152	0.4129	-0.032
Mof_H 	H 	0.017	0.3828	0.991	-0.02
Mof_H 	H 	0.9708	0.3272	0.9473	0.096
Mof_H 	H 	0.9205	0.4463	0.8697	0.087
Mof_H 	H 	0.9752	0.4996	0.9192	-0.024
Mof_H 	H 	0.9163	0.2792	0.9062	0.034
Mof_H 	H 	0.8728	0.2217	0.8566	0.058
Mof_H 	H 	0.8666	0.3356	0.7712	0.058
Mof_H 	H 	0.9134	0.3925	0.819	0.034
Mof_H 	H 	0.7965	0.1865	0.8185	0.05
Mof_H 	H 	0.7577	0.1232	0.7722	0.052
Mof_H 	H 	0.8269	0.2094	0.6749	0.045
Mof_H 	H 	0.8704	0.2689	0.7246	0.052
Mof_H 	H 	0.7309	0.9967	0.6762	0.018
Mof_H 	H 	0.7697	0.0535	0.7231	0.076
Mof_H 	H 	0.7658	0.1663	0.6332	0.075
Mof_H 	H 	0.7113	0.1041	0.5903	-0.019
Mof_H 	H 	0.3574	0.4908	0.9097	-0.028
Mof_H 	H 	0.401	0.5448	0.8599	0.094
Mof_H 	H 	0.4214	0.654	0.9489	0.1
Mof_H 	H 	0.3762	0.5997	0.9961	-0.02
Mof_H 	H 	0.4636	0.5883	0.8185	0.033
Mof_H 	H 	0.5088	0.6457	0.7689	0.055
Mof_H 	H 	0.4874	0.7628	0.8509	0.057
Mof_H 	H 	0.4456	0.7071	0.9021	0.033
Mof_H 	H 	0.5048	0.7062	0.7213	0.054
Mof_H 	H 	0.5361	0.7697	0.6714	0.038
Mof_H 	H 	0.5897	0.8647	0.7679	0.045
Mof_H 	H 	0.5577	0.8024	0.8167	0.055
Mof_H 	H 	0.6138	0.9905	0.6766	-0.011
Mof_H 	H 	0.5791	0.9297	0.7234	0.099
Mof_H 	H 	0.594	0.8229	0.6293	0.095
Mof_H 	H 	0.6292	0.8848	0.5871	-0.031
Mof_W 	W 	0.67208	0	0.5	0.219
Mof_W 	W 	0.17208	0.5	-0	0.222
Mof_C 	C 	0.4958	0.1036	0.4673	0.079
Mof_C 	C 	0.4707	0.1373	0.4403	-0.172
Mof_C 	C 	0.4442	0.1216	0.4018	0.099
Mof_C 	C 	0.4406	0.0677	0.3937	-0.164
Mof_C 	C 	0.471	0.0358	0.4261	0.086
Mof_C 	C 	0.4202	0.157	0.3679	-0.034
Mof_C 	C 	0.4075	0.2089	0.3786	-0.023
Mof_C 	C 	0.3813	0.244	0.3481	-0.082
Mof_C 	C 	0.3684	0.2303	0.3081	0.031
Mof_C 	C 	0.3784	0.1768	0.2982	-0.076
Mof_C 	C 	0.4053	0.1419	0.3275	-0.019
Mof_C 	C 	0.3387	0.268	0.2785	0.015
Mof_C 	C 	0.3048	0.3093	0.2894	-0.062
Mof_C 	C 	0.2798	0.3478	0.2617	-0.041
Mof_C 	C 	0.2895	0.3406	0.2189	-0.018
Mof_C 	C 	0.322	0.2963	0.2042	-0.036
Mof_C 	C 	0.3476	0.2602	0.2342	-0.062
Mof_C 	C 	0.2365	0.4685	0.1678	0.128
Mof_C 	C 	0.2591	0.4347	0.1957	-0.183
Mof_C 	C 	0.2682	0.3791	0.1852	0.093
Mof_C 	C 	0.2558	0.3668	0.1439	-0.155
Mof_C 	C 	0.2269	0.4058	0.1171	0.077
Mof_C 	C 	0.8676	0.9749	0.4175	0.173
Mof_C 	C 	0.8955	0.9433	0.3879	-0.224
Mof_C 	C 	0.9159	0.8937	0.3991	0.139
Mof_C 	C 	0.9074	0.8789	0.4399	-0.211
Mof_C 	C 	0.8791	0.9112	0.4676	0.118
Mof_C 	C 	0.9502	0.8602	0.3667	-0.023
Mof_C 	C 	0.9691	0.8766	0.326	-0.05
Mof_C 	C 	0.9961	0.8418	0.2957	-0.014
Mof_C 	C 	0.004	0.7874	0.306	-0.028
Mof_C 	C 	0.984	0.7727	0.3441	-0.03
Mof_C 	C 	0.9578	0.8063	0.3756	-0.049
Mof_C 	C 	0.0283	0.752	0.274	0.051
Mof_C 	C 	0.0216	0.762	0.2306	-0.094
Mof_C 	C 	0.0403	0.7236	0.2006	-0.01
Mof_C 	C 	0.0652	0.675	0.2144	-0.043
Mof_C 	C 	0.0722	0.6667	0.2582	-0.012
Mof_C 	C 	0.0535	0.7043	0.2874	-0.094
Mof_C 	C 	0.1098	0.5441	0.1674	0.103
Mof_C 	C 	0.0901	0.5801	0.1956	-0.181
Mof_C 	C 	0.0861	0.6338	0.1825	0.115
Mof_C 	C 	0.0991	0.6433	0.1402	-0.199
Mof_C 	C 	0.1184	0.6061	0.115	0.118
Mof_C 	C 	0.4958	0.8964	0.5327	0.082
Mof_C 	C 	0.4707	0.8627	0.5597	-0.17
Mof_C 	C 	0.4442	0.8784	0.5982	0.1
Mof_C 	C 	0.4406	0.9323	0.6063	-0.159
Mof_C 	C 	0.471	0.9642	0.5739	0.088
Mof_C 	C 	0.4202	0.843	0.6321	-0.031
Mof_C 	C 	0.4075	0.7911	0.6214	-0.024
Mof_C 	C 	0.3813	0.756	0.6519	-0.079
Mof_C 	C 	0.3684	0.7697	0.6919	0.03
Mof_C 	C 	0.3784	0.8232	0.7018	-0.073
Mof_C 	C 	0.4053	0.8581	0.6725	-0.02
Mof_C 	C 	0.3387	0.732	0.7215	0.017
Mof_C 	C 	0.3048	0.6907	0.7106	-0.063
Mof_C 	C 	0.2798	0.6522	0.7383	-0.04
Mof_C 	C 	0.2895	0.6594	0.7811	-0.018
Mof_C 	C 	0.322	0.7037	0.7958	-0.036
Mof_C 	C 	0.3476	0.7398	0.7658	-0.063
Mof_C 	C 	0.2365	0.5315	0.8322	0.128
Mof_C 	C 	0.2591	0.5653	0.8043	-0.182
Mof_C 	C 	0.2682	0.6209	0.8148	0.093
Mof_C 	C 	0.2558	0.6332	0.8561	-0.154
Mof_C 	C 	0.2269	0.5942	0.8829	0.077
Mof_C 	C 	0.8676	0.0251	0.5825	0.017
Mof_C 	C 	0.8955	0.0567	0.6121	-0.126
Mof_C 	C 	0.9159	0.1063	0.6009	0.082
Mof_C 	C 	0.9074	0.1211	0.5601	-0.166
Mof_C 	C 	0.8791	0.0888	0.5324	0.086
Mof_C 	C 	0.9502	0.1398	0.6333	-0
Mof_C 	C 	0.9691	0.1234	0.674	-0.067
Mof_C 	C 	0.9961	0.1582	0.7043	-0.007
Mof_C 	C 	0.004	0.2126	0.694	-0.037
Mof_C 	C 	0.984	0.2273	0.6559	-0.019
Mof_C 	C 	0.9578	0.1937	0.6244	-0.066
Mof_C 	C 	0.0283	0.248	0.726	0.054
Mof_C 	C 	0.0216	0.238	0.7694	-0.096
Mof_C 	C 	0.0403	0.2764	0.7994	-0.01
Mof_C 	C 	0.0652	0.325	0.7856	-0.044
Mof_C 	C 	0.0722	0.3333	0.7418	-0.011
Mof_C 	C 	0.0535	0.2957	0.7126	-0.096
Mof_C 	C 	0.1098	0.4559	0.8326	0.104
Mof_C 	C 	0.0901	0.4199	0.8044	-0.181
Mof_C 	C 	0.0861	0.3662	0.8175	0.115
Mof_C 	C 	0.0991	0.3567	0.8598	-0.198
Mof_C 	C 	0.1184	0.3939	0.885	0.117
Mof_C 	C 	0.9958	0.6036	0.0327	0.107
Mof_C 	C 	0.9707	0.6373	0.0597	-0.19
Mof_C 	C 	0.9442	0.6216	0.0982	0.109
Mof_C 	C 	0.9406	0.5677	0.1063	-0.167
Mof_C 	C 	0.971	0.5358	0.0739	0.09
Mof_C 	C 	0.9202	0.657	0.1321	-0.037
Mof_C 	C 	0.9075	0.7089	0.1214	-0.02
Mof_C 	C 	0.8813	0.744	0.1519	-0.081
Mof_C 	C 	0.8684	0.7303	0.1919	0.031
Mof_C 	C 	0.8784	0.6768	0.2018	-0.075
Mof_C 	C 	0.9053	0.6419	0.1725	-0.016
Mof_C 	C 	0.8387	0.768	0.2215	0.021
Mof_C 	C 	0.8048	0.8093	0.2106	-0.068
Mof_C 	C 	0.7798	0.8478	0.2383	-0.03
Mof_C 	C 	0.7895	0.8406	0.2811	-0.031
Mof_C 	C 	0.822	0.7963	0.2958	-0.027
Mof_C 	C 	0.8476	0.7602	0.2658	-0.068
Mof_C 	C 	0.7365	0.9685	0.3322	0.214
Mof_C 	C 	0.7591	0.9347	0.3043	-0.234
Mof_C 	C 	0.7682	0.8791	0.3148	0.118
Mof_C 	C 	0.7558	0.8668	0.3561	-0.173
Mof_C 	C 	0.7269	0.9058	0.3829	0.091
Mof_C 	C 	0.3676	0.4749	0.0825	0.099
Mof_C 	C 	0.3955	0.4433	0.1121	-0.188
Mof_C 	C 	0.4159	0.3937	0.1009	0.126
Mof_C 	C 	0.4074	0.3789	0.0601	-0.203
Mof_C 	C 	0.3791	0.4112	0.0324	0.106
Mof_C 	C 	0.4502	0.3602	0.1333	-0.044
Mof_C 	C 	0.4691	0.3766	0.174	-0.017
Mof_C 	C 	0.4961	0.3418	0.2043	-0.077
Mof_C 	C 	0.504	0.2874	0.194	0.029
Mof_C 	C 	0.484	0.2727	0.1559	-0.082
Mof_C 	C 	0.4578	0.3063	0.1244	-0.02
Mof_C 	C 	0.5283	0.252	0.226	0.019
Mof_C 	C 	0.5216	0.262	0.2694	-0.071
Mof_C 	C 	0.5403	0.2236	0.2994	-0.025
Mof_C 	C 	0.5652	0.175	0.2856	-0.032
Mof_C 	C 	0.5722	0.1667	0.2418	-0.027
Mof_C 	C 	0.5535	0.2043	0.2126	-0.071
Mof_C 	C 	0.6098	0.0441	0.3326	0.103
Mof_C 	C 	0.5901	0.0801	0.3044	-0.179
Mof_C 	C 	0.5861	0.1338	0.3175	0.11
Mof_C 	C 	0.5991	0.1433	0.3598	-0.194
Mof_C 	C 	0.6184	0.1061	0.385	0.116
Mof_C 	C 	0.9958	0.3964	0.9673	0.106
Mof_C 	C 	0.9707	0.3627	0.9403	-0.184
Mof_C 	C 	0.9442	0.3784	0.9018	0.109
Mof_C 	C 	0.9406	0.4323	0.8937	-0.164
Mof_C 	C 	0.971	0.4642	0.9261	0.092
Mof_C 	C 	0.9202	0.343	0.8679	-0.036
Mof_C 	C 	0.9075	0.2911	0.8786	-0.018
Mof_C 	C 	0.8813	0.256	0.8481	-0.083
Mof_C 	C 	0.8684	0.2697	0.8081	0.036
Mof_C 	C 	0.8784	0.3232	0.7982	-0.077
Mof_C 	C 	0.9053	0.3581	0.8275	-0.014
Mof_C 	C 	0.8387	0.232	0.7785	0.01
Mof_C 	C 	0.8048	0.1907	0.7894	-0.055
Mof_C 	C 	0.7798	0.1522	0.7617	-0.051
Mof_C 	C 	0.7895	0.1594	0.7189	-0.005
Mof_C 	C 	0.822	0.2037	0.7042	-0.045
Mof_C 	C 	0.8476	0.2398	0.7342	-0.056
Mof_C 	C 	0.7365	0.0315	0.6678	0.044
Mof_C 	C 	0.7591	0.0653	0.6957	-0.131
Mof_C 	C 	0.7682	0.1209	0.6852	0.068
Mof_C 	C 	0.7558	0.1332	0.6439	-0.136
Mof_C 	C 	0.7269	0.0942	0.6171	0.064
Mof_C 	C 	0.3676	0.5251	0.9175	0.101
Mof_C 	C 	0.3955	0.5567	0.8879	-0.185
Mof_C 	C 	0.4159	0.6063	0.8991	0.127
Mof_C 	C 	0.4074	0.6211	0.9399	-0.199
Mof_C 	C 	0.3791	0.5888	0.9676	0.11
Mof_C 	C 	0.4502	0.6398	0.8667	-0.041
Mof_C 	C 	0.4691	0.6234	0.826	-0.016
Mof_C 	C 	0.4961	0.6582	0.7957	-0.075
Mof_C 	C 	0.504	0.7126	0.806	0.03
Mof_C 	C 	0.484	0.7273	0.8441	-0.08
Mof_C 	C 	0.4578	0.6937	0.8756	-0.019
Mof_C 	C 	0.5283	0.748	0.774	0.02
Mof_C 	C 	0.5216	0.738	0.7306	-0.07
Mof_C 	C 	0.5403	0.7764	0.7006	-0.026
Mof_C 	C 	0.5652	0.825	0.7144	-0.028
Mof_C 	C 	0.5722	0.8333	0.7582	-0.028
Mof_C 	C 	0.5535	0.7957	0.7874	-0.068
Mof_C 	C 	0.6098	0.9559	0.6674	0.102
Mof_C 	C 	0.5901	0.9199	0.6956	-0.174
Mof_C 	C 	0.5861	0.8662	0.6825	0.11
Mof_C 	C 	0.5991	0.8567	0.6402	-0.193
Mof_C 	C 	0.6184	0.8939	0.615	0.116
Mof_S 	S 	0.61091	0.95197	0.45731	-0.439
Mof_S 	S 	0.23374	0.55342	0.0391	-0.484
Mof_S 	S 	0.61091	0.04803	0.54269	-0.489
Mof_S 	S 	0.23374	0.44658	0.9609	-0.445
Mof_S 	S 	0.11091	0.45197	0.04269	-0.488
Mof_S 	S 	0.73374	0.05342	0.4609	-0.478
Mof_S 	S 	0.11091	0.54803	0.95731	-0.449
Mof_S 	S 	0.73374	0.94658	0.5391	-0.448
Mof_N 	N 	0.4932	0.0491	0.4633	-0.26
Mof_N 	N 	0.2217	0.4554	0.1291	-0.252
Mof_N 	N 	0.854	0.9588	0.4573	-0.262
Mof_N 	N 	0.1241	0.5552	0.1261	-0.254
Mof_N 	N 	0.4932	0.9509	0.5367	-0.248
Mof_N 	N 	0.2217	0.5446	0.8709	-0.251
Mof_N 	N 	0.854	0.0412	0.5427	-0.243
Mof_N 	N 	0.1241	0.4448	0.8739	-0.253
Mof_N 	N 	0.9932	0.5491	0.0367	-0.262
Mof_N 	N 	0.7217	0.9554	0.3709	-0.261
Mof_N 	N 	0.354	0.4588	0.0427	-0.26
Mof_N 	N 	0.6241	0.0552	0.3739	-0.255
Mof_N 	N 	0.9932	0.4509	0.9633	-0.25
Mof_N 	N 	0.7217	0.0446	0.6291	-0.241
Mof_N 	N 	0.354	0.5412	0.9573	-0.25
Mof_N 	N 	0.6241	0.9448	0.6261	-0.249
Mof_Cu	Cu	0.26162	0.00627	0.9141	0.823
Mof_Cu	Cu	0.26162	0.99373	0.0859	0.845
Mof_Cu	Cu	0.76162	0.50627	0.5859	0.832
Mof_Cu	Cu	0.76162	0.49373	0.4141	0.832
Mof_Cu	Cu	0.63243	0.5	0.5	0.833
Mof_Cu	Cu	0.13243	0	-0	0.811
Mof_Cu	Cu	0.89133	0.5	0.5	0.829
Mof_Cu	Cu	0.39133	0	-0	0.807
Mof_H 	H 	0.5551	0.4036	0.5095	-0.044
Mof_H 	H 	0.5049	0.3556	0.5588	0.107
Mof_H 	H 	0.5378	0.4684	0.6418	0.103
Mof_H 	H 	0.5875	0.5124	0.5905	-0.049
Mof_H 	H 	0.548	0.3031	0.6223	0.03
Mof_H 	H 	0.5124	0.2441	0.6734	0.056
Mof_H 	H 	0.4085	0.3587	0.7287	0.059
Mof_H 	H 	0.4458	0.4176	0.6773	0.031
Mof_H 	H 	0.4241	0.3063	0.7904	0.053
Mof_H 	H 	0.3843	0.2449	0.8383	0.034
Mof_H 	H 	0.4015	0.1314	0.7493	0.028
Mof_H 	H 	0.4398	0.1926	0.7012	0.051
Mof_H 	H 	0.2905	0.1241	0.9154	-0.026
Mof_H 	H 	0.3159	0.1849	0.8696	0.101
Mof_H 	H 	0.4018	0.0781	0.7977	0.089
Mof_H 	H 	0.3561	0.0159	0.8425	-0.039
Mof_H 	H 	0.984	0.4954	0.5776	-0.039
Mof_H 	H 	0.0408	0.5536	0.618	0.109
Mof_H 	H 	0.9539	0.6724	0.5646	0.095
Mof_H 	H 	0.9099	0.6133	0.5184	-0.024
Mof_H 	H 	0.0345	0.6082	0.6777	0.035
Mof_H 	H 	0.0756	0.6674	0.7272	0.058
Mof_H 	H 	0.0772	0.78	0.6367	0.057
Mof_H 	H 	0.036	0.7208	0.5872	0.029
Mof_H 	H 	0.1538	0.7213	0.7574	0.058
Mof_H 	H 	0.1921	0.7843	0.8069	0.035
Mof_H 	H 	0.0978	0.8938	0.7409	0.035
Mof_H 	H 	0.0564	0.8314	0.6944	0.053
Mof_H 	H 	0.2046	0.8957	0.9093	-0.029
Mof_H 	H 	0.1739	0.8356	0.8624	0.102
Mof_H 	H 	0.1767	0.947	0.7714	0.11
Mof_H 	H 	0.215	0.0043	0.8217	-0.07
Mof_H 	H 	0.5551	0.5964	0.4905	-0.044
Mof_H 	H 	0.5049	0.6444	0.4412	0.108
Mof_H 	H 	0.5378	0.5316	0.3582	0.103
Mof_H 	H 	0.5875	0.4876	0.4095	-0.049
Mof_H 	H 	0.548	0.6969	0.3777	0.031
Mof_H 	H 	0.5124	0.7559	0.3266	0.058
Mof_H 	H 	0.4085	0.6413	0.2713	0.059
Mof_H 	H 	0.4458	0.5824	0.3227	0.031
Mof_H 	H 	0.4241	0.6937	0.2096	0.052
Mof_H 	H 	0.3843	0.7551	0.1617	0.032
Mof_H 	H 	0.4015	0.8686	0.2507	0.035
Mof_H 	H 	0.4398	0.8074	0.2988	0.054
Mof_H 	H 	0.2905	0.8759	0.0846	-0.03
Mof_H 	H 	0.3159	0.8151	0.1304	0.098
Mof_H 	H 	0.4018	0.9219	0.2023	0.095
Mof_H 	H 	0.3561	0.9841	0.1575	-0.022
Mof_H 	H 	0.984	0.5046	0.4224	-0.039
Mof_H 	H 	0.0408	0.4464	0.382	0.109
Mof_H 	H 	0.9539	0.3276	0.4354	0.095
Mof_H 	H 	0.9099	0.3867	0.4816	-0.025
Mof_H 	H 	0.0345	0.3918	0.3223	0.034
Mof_H 	H 	0.0756	0.3326	0.2728	0.058
Mof_H 	H 	0.0772	0.22	0.3633	0.054
Mof_H 	H 	0.036	0.2792	0.4128	0.027
Mof_H 	H 	0.1538	0.2787	0.2426	0.055
Mof_H 	H 	0.1921	0.2157	0.1931	0.04
Mof_H 	H 	0.0978	0.1062	0.2591	0.034
Mof_H 	H 	0.0564	0.1686	0.3056	0.047
Mof_H 	H 	0.2046	0.1043	0.0907	-0.028
Mof_H 	H 	0.1739	0.1644	0.1376	0.086
Mof_H 	H 	0.1767	0.053	0.2286	0.066
Mof_H 	H 	0.215	0.9957	0.1783	0.021
Mof_H 	H 	0.0551	0.9036	0.9905	-0.033
Mof_H 	H 	0.0049	0.8556	0.9412	0.109
Mof_H 	H 	0.0378	0.9684	0.8582	0.118
Mof_H 	H 	0.0875	0.0124	0.9095	-0.091
Mof_H 	H 	0.048	0.8031	0.8777	0.054
Mof_H 	H 	0.0124	0.7441	0.8266	0.027
Mof_H 	H 	0.9085	0.8587	0.7713	0.049
Mof_H 	H 	0.9458	0.9176	0.8227	0.052
Mof_H 	H 	0.9241	0.8063	0.7096	0.061
Mof_H 	H 	0.8843	0.7449	0.6617	0.03
Mof_H 	H 	0.9015	0.6314	0.7507	0.029
Mof_H 	H 	0.9398	0.6926	0.7988	0.061
Mof_H 	H 	0.7905	0.6241	0.5846	-0.029
Mof_H 	H 	0.8159	0.6849	0.6304	0.102
Mof_H 	H 	0.9018	0.5781	0.7023	0.095
Mof_H 	H 	0.8561	0.5159	0.6575	-0.031
Mof_H 	H 	0.484	0.9954	0.9224	0.016
Mof_H 	H 	0.5408	0.0536	0.882	0.084
Mof_H 	H 	0.4539	0.1724	0.9354	0.092
Mof_H 	H 	0.4099	0.1133	0.9816	-0.014
Mof_H 	H 	0.5345	0.1082	0.8223	0.038
Mof_H 	H 	0.5756	0.1674	0.7728	0.055
Mof_H 	H 	0.5772	0.28	0.8633	0.056
Mof_H 	H 	0.536	0.2208	0.9128	0.038
Mof_H 	H 	0.6538	0.2213	0.7426	0.057
Mof_H 	H 	0.6921	0.2843	0.6931	0.037
Mof_H 	H 	0.5978	0.3938	0.7591	0.035
Mof_H 	H 	0.5564	0.3314	0.8056	0.054
Mof_H 	H 	0.7046	0.3957	0.5907	-0.029
Mof_H 	H 	0.6739	0.3356	0.6376	0.095
Mof_H 	H 	0.6767	0.447	0.7286	0.09
Mof_H 	H 	0.715	0.5043	0.6783	-0.024
Mof_H 	H 	0.0551	0.0964	0.0095	-0.042
Mof_H 	H 	0.0049	0.1444	0.0588	0.08
Mof_H 	H 	0.0378	0.0316	0.1418	0.064
Mof_H 	H 	0.0875	0.9876	0.0905	0.005
Mof_H 	H 	0.048	0.1969	0.1223	0.06
Mof_H 	H 	0.0124	0.2559	0.1734	0.018
Mof_H 	H 	0.9085	0.1413	0.2287	0.037
Mof_H 	H 	0.9458	0.0824	0.1773	0.051
Mof_H 	H 	0.9241	0.1937	0.2904	0.059
Mof_H 	H 	0.8843	0.2551	0.3383	0.028
Mof_H 	H 	0.9015	0.3686	0.2493	0.027
Mof_H 	H 	0.9398	0.3074	0.2012	0.06
Mof_H 	H 	0.7905	0.3759	0.4154	-0.029
Mof_H 	H 	0.8159	0.3151	0.3696	0.101
Mof_H 	H 	0.9018	0.4219	0.2977	0.094
Mof_H 	H 	0.8561	0.4841	0.3425	-0.031
Mof_H 	H 	0.484	0.0046	0.0776	-0.089
Mof_H 	H 	0.5408	0.9464	0.118	0.129
Mof_H 	H 	0.4539	0.8276	0.0646	0.105
Mof_H 	H 	0.4099	0.8867	0.0184	-0.037
Mof_H 	H 	0.5345	0.8918	0.1777	0.033
Mof_H 	H 	0.5756	0.8326	0.2272	0.063
Mof_H 	H 	0.5772	0.72	0.1367	0.058
Mof_H 	H 	0.536	0.7792	0.0872	0.022
Mof_H 	H 	0.6538	0.7787	0.2574	0.056
Mof_H 	H 	0.6921	0.7157	0.3069	0.038
Mof_H 	H 	0.5978	0.6062	0.2409	0.035
Mof_H 	H 	0.5564	0.6686	0.1944	0.05
Mof_H 	H 	0.7046	0.6043	0.4093	-0.029
Mof_H 	H 	0.6739	0.6644	0.3624	0.095
Mof_H 	H 	0.6767	0.553	0.2714	0.088
Mof_H 	H 	0.715	0.4957	0.3217	-0.025
Mof_W 	W 	0.76145	0.5	0.5	0.261
Mof_W 	W 	0.26145	0	-0	0.173
Mof_C 	C 	0.5527	0.4165	0.5373	0.143
Mof_C 	C 	0.5237	0.387	0.5672	-0.231
Mof_C 	C 	0.5208	0.4005	0.6079	0.144
Mof_C 	C 	0.5431	0.4528	0.615	-0.215
Mof_C 	C 	0.5713	0.4793	0.584	0.142
Mof_C 	C 	0.4984	0.3665	0.6444	-0.052
Mof_C 	C 	0.5197	0.3141	0.6435	-0.012
Mof_C 	C 	0.4986	0.2788	0.6742	-0.081
Mof_C 	C 	0.4567	0.2953	0.7062	0.032
Mof_C 	C 	0.4364	0.3474	0.7074	-0.084
Mof_C 	C 	0.4586	0.3826	0.6762	-0.009
Mof_C 	C 	0.4385	0.256	0.7407	0.022
Mof_C 	C 	0.4201	0.2713	0.7821	-0.073
Mof_C 	C 	0.3959	0.2344	0.8108	-0.018
Mof_C 	C 	0.389	0.1819	0.7986	-0.04
Mof_C 	C 	0.406	0.1664	0.7576	-0.019
Mof_C 	C 	0.4296	0.2032	0.729	-0.074
Mof_C 	C 	0.308	0.1139	0.8893	0.122
Mof_C 	C 	0.3272	0.1503	0.8636	-0.211
Mof_C 	C 	0.363	0.1408	0.8284	0.127
Mof_C 	C 	0.3758	0.0884	0.8204	-0.188
Mof_C 	C 	0.3478	0.0512	0.8482	0.111
Mof_C 	C 	0.9801	0.5313	0.5725	0.142
Mof_C 	C 	0.0112	0.5666	0.5984	-0.223
Mof_C 	C 	0.0014	0.619	0.5973	0.135
Mof_C 	C 	0.9629	0.6367	0.5672	-0.187
Mof_C 	C 	0.9366	0.6005	0.5398	0.097
Mof_C 	C 	0.0312	0.65866	0.62758	-0.046
Mof_C 	C 	0.043	0.64266	0.6695	-0.014
Mof_C 	C 	0.0677	0.6781	0.69913	-0.077
Mof_C 	C 	0.0805	0.7296	0.68684	0.029
Mof_C 	C 	0.0686	0.7456	0.64492	-0.082
Mof_C 	C 	0.044	0.7101	0.61529	-0.015
Mof_C 	C 	0.1026	0.7682	0.7201	0.024
Mof_C 	C 	0.1415	0.7562	0.7539	-0.074
Mof_C 	C 	0.1649	0.7943	0.7847	-0.021
Mof_C 	C 	0.1458	0.8448	0.7802	-0.04
Mof_C 	C 	0.1078	0.8585	0.7451	-0.018
Mof_C 	C 	0.0842	0.8212	0.7161	-0.075
Mof_C 	C 	0.2011	0.9057	0.8807	0.121
Mof_C 	C 	0.1811	0.87	0.8535	-0.212
Mof_C 	C 	0.171	0.884	0.8121	0.136
Mof_C 	C 	0.1836	0.936	0.7995	-0.222
Mof_C 	C 	0.2065	0.9698	0.8299	0.172
Mof_C 	C 	0.5527	0.5835	0.4627	0.143
Mof_C 	C 	0.5237	0.613	0.4328	-0.232
Mof_C 	C 	0.5208	0.5995	0.3921	0.145
Mof_C 	C 	0.5431	0.5472	0.385	-0.215
Mof_C 	C 	0.5713	0.5207	0.416	0.143
Mof_C 	C 	0.4984	0.6335	0.3556	-0.053
Mof_C 	C 	0.5197	0.6859	0.3565	-0.011
Mof_C 	C 	0.4986	0.7212	0.3258	-0.082
Mof_C 	C 	0.4567	0.7047	0.2938	0.033
Mof_C 	C 	0.4364	0.6526	0.2926	-0.085
Mof_C 	C 	0.4586	0.6174	0.3238	-0.008
Mof_C 	C 	0.4385	0.744	0.2593	0.021
Mof_C 	C 	0.4201	0.7287	0.2179	-0.072
Mof_C 	C 	0.3959	0.7656	0.1892	-0.019
Mof_C 	C 	0.389	0.8181	0.2014	-0.039
Mof_C 	C 	0.406	0.8336	0.2424	-0.02
Mof_C 	C 	0.4296	0.7968	0.271	-0.072
Mof_C 	C 	0.308	0.8861	0.1107	0.123
Mof_C 	C 	0.3272	0.8497	0.1364	-0.21
Mof_C 	C 	0.363	0.8592	0.1716	0.126
Mof_C 	C 	0.3758	0.9116	0.1796	-0.183
Mof_C 	C 	0.3478	0.9488	0.1518	0.11
Mof_C 	C 	0.9801	0.4687	0.4275	0.142
Mof_C 	C 	0.0112	0.4334	0.4016	-0.223
Mof_C 	C 	0.0014	0.381	0.4027	0.135
Mof_C 	C 	0.9629	0.3633	0.4328	-0.187
Mof_C 	C 	0.9366	0.3995	0.4602	0.097
Mof_C 	C 	0.0312	0.34134	0.37242	-0.047
Mof_C 	C 	0.043	0.35734	0.3305	-0.013
Mof_C 	C 	0.0677	0.3219	0.30087	-0.079
Mof_C 	C 	0.0805	0.2704	0.31316	0.032
Mof_C 	C 	0.0686	0.2544	0.35508	-0.083
Mof_C 	C 	0.044	0.2899	0.38471	-0.015
Mof_C 	C 	0.1026	0.2318	0.2799	0.017
Mof_C 	C 	0.1415	0.2438	0.2461	-0.065
Mof_C 	C 	0.1649	0.2057	0.2153	-0.036
Mof_C 	C 	0.1458	0.1552	0.2198	-0.019
Mof_C 	C 	0.1078	0.1415	0.2549	-0.033
Mof_C 	C 	0.0842	0.1788	0.2839	-0.066
Mof_C 	C 	0.2011	0.0943	0.1193	0.095
Mof_C 	C 	0.1811	0.13	0.1465	-0.173
Mof_C 	C 	0.171	0.116	0.1879	0.088
Mof_C 	C 	0.1836	0.064	0.2005	-0.135
Mof_C 	C 	0.2065	0.0302	0.1701	0.021
Mof_C 	C 	0.0527	0.9165	0.9627	0.146
Mof_C 	C 	0.0237	0.887	0.9328	-0.225
Mof_C 	C 	0.0208	0.9005	0.8921	0.136
Mof_C 	C 	0.0431	0.9528	0.885	-0.244
Mof_C 	C 	0.0713	0.9793	0.916	0.213
Mof_C 	C 	0.9984	0.8665	0.8556	-0.003
Mof_C 	C 	0.0197	0.8141	0.8565	-0.077
Mof_C 	C 	0.9986	0.7788	0.8258	-0.011
Mof_C 	C 	0.9567	0.7953	0.7938	-0.003
Mof_C 	C 	0.9364	0.8474	0.7926	-0.045
Mof_C 	C 	0.9586	0.8826	0.8238	-0.045
Mof_C 	C 	0.9385	0.756	0.7593	0.044
Mof_C 	C 	0.9201	0.7713	0.7179	-0.086
Mof_C 	C 	0.8959	0.7344	0.6892	-0.006
Mof_C 	C 	0.889	0.6819	0.7014	-0.047
Mof_C 	C 	0.906	0.6664	0.7424	-0.007
Mof_C 	C 	0.9296	0.7032	0.771	-0.086
Mof_C 	C 	0.808	0.6139	0.6107	0.125
Mof_C 	C 	0.8272	0.6503	0.6364	-0.214
Mof_C 	C 	0.863	0.6408	0.6716	0.133
Mof_C 	C 	0.8758	0.5884	0.6796	-0.188
Mof_C 	C 	0.8478	0.5512	0.6518	0.112
Mof_C 	C 	0.4801	0.0313	0.9275	0.049
Mof_C 	C 	0.5112	0.0666	0.9016	-0.157
Mof_C 	C 	0.5014	0.119	0.9027	0.113
Mof_C 	C 	0.4629	0.1367	0.9328	-0.175
Mof_C 	C 	0.4366	0.1005	0.9602	0.086
Mof_C 	C 	0.5312	0.15866	0.87242	-0.03
Mof_C 	C 	0.543	0.14266	0.8305	-0.023
Mof_C 	C 	0.5677	0.1781	0.80087	-0.07
Mof_C 	C 	0.5805	0.2296	0.81316	0.026
Mof_C 	C 	0.5686	0.2456	0.85508	-0.073
Mof_C 	C 	0.544	0.2101	0.88471	-0.024
Mof_C 	C 	0.6026	0.2682	0.7799	0.025
Mof_C 	C 	0.6415	0.2562	0.7461	-0.071
Mof_C 	C 	0.6649	0.2943	0.7153	-0.027
Mof_C 	C 	0.6458	0.3448	0.7198	-0.031
Mof_C 	C 	0.6078	0.3585	0.7549	-0.022
Mof_C 	C 	0.5842	0.3212	0.7839	-0.072
Mof_C 	C 	0.7011	0.4057	0.6193	0.109
Mof_C 	C 	0.6811	0.37	0.6465	-0.193
Mof_C 	C 	0.671	0.384	0.6879	0.114
Mof_C 	C 	0.6836	0.436	0.7005	-0.179
Mof_C 	C 	0.7065	0.4698	0.6701	0.098
Mof_C 	C 	0.0527	0.0835	0.0373	0.101
Mof_C 	C 	0.0237	0.113	0.0672	-0.174
Mof_C 	C 	0.0208	0.0995	0.1079	0.067
Mof_C 	C 	0.0431	0.0472	0.115	-0.133
Mof_C 	C 	0.0713	0.0207	0.084	0.038
Mof_C 	C 	0.9984	0.1335	0.1444	0.029
Mof_C 	C 	0.0197	0.1859	0.1435	-0.105
Mof_C 	C 	0.9986	0.2212	0.1742	0.007
Mof_C 	C 	0.9567	0.2047	0.2062	-0.019
Mof_C 	C 	0.9364	0.1526	0.2074	-0.031
Mof_C 	C 	0.9586	0.1174	0.1762	-0.073
Mof_C 	C 	0.9385	0.244	0.2407	0.048
Mof_C 	C 	0.9201	0.2287	0.2821	-0.09
Mof_C 	C 	0.8959	0.2656	0.3108	-0.005
Mof_C 	C 	0.889	0.3181	0.2986	-0.049
Mof_C 	C 	0.906	0.3336	0.2576	-0.006
Mof_C 	C 	0.9296	0.2968	0.229	-0.091
Mof_C 	C 	0.808	0.3861	0.3893	0.125
Mof_C 	C 	0.8272	0.3497	0.3636	-0.214
Mof_C 	C 	0.863	0.3592	0.3284	0.133
Mof_C 	C 	0.8758	0.4116	0.3204	-0.188
Mof_C 	C 	0.8478	0.4488	0.3482	0.112
Mof_C 	C 	0.4801	0.9687	0.0725	0.21
Mof_C 	C 	0.5112	0.9334	0.0984	-0.266
Mof_C 	C 	0.5014	0.881	0.0973	0.178
Mof_C 	C 	0.4629	0.8633	0.0672	-0.23
Mof_C 	C 	0.4366	0.8995	0.0398	0.117
Mof_C 	C 	0.5312	0.84134	0.12758	-0.065
Mof_C 	C 	0.543	0.85734	0.1695	0
Mof_C 	C 	0.5677	0.8219	0.19913	-0.087
Mof_C 	C 	0.5805	0.7704	0.18684	0.039
Mof_C 	C 	0.5686	0.7544	0.14492	-0.092
Mof_C 	C 	0.544	0.7899	0.11529	-0
Mof_C 	C 	0.6026	0.7318	0.2201	0.018
Mof_C 	C 	0.6415	0.7438	0.2539	-0.067
Mof_C 	C 	0.6649	0.7057	0.2847	-0.03
Mof_C 	C 	0.6458	0.6552	0.2802	-0.028
Mof_C 	C 	0.6078	0.6415	0.2451	-0.026
Mof_C 	C 	0.5842	0.6788	0.2161	-0.068
Mof_C 	C 	0.7011	0.5943	0.3807	0.109
Mof_C 	C 	0.6811	0.63	0.3535	-0.192
Mof_C 	C 	0.671	0.616	0.3121	0.112
Mof_C 	C 	0.6836	0.564	0.2995	-0.178
Mof_C 	C 	0.7065	0.5302	0.3299	0.097
Mof_S 	S 	0.32337	0.95246	0.95638	-0.407
Mof_S 	S 	0.69972	0.44631	0.46151	-0.476
Mof_S 	S 	0.32337	0.04754	0.04362	-0.491
Mof_S 	S 	0.69972	0.55369	0.53849	-0.476
Mof_S 	S 	0.82337	0.45246	0.54362	-0.475
Mof_S 	S 	0.19972	0.94631	0.03849	-0.454
Mof_S 	S 	0.82337	0.54754	0.45638	-0.475
Mof_S 	S 	0.19972	0.05369	0.96151	-0.445
Mof_N 	N 	0.5777	0.4624	0.5453	-0.275
Mof_N 	N 	0.3117	0.0617	0.8809	-0.264
Mof_N 	N 	0.2172	0.9563	0.8707	-0.256
Mof_N 	N 	0.9456	0.5479	0.5411	-0.258
Mof_N 	N 	0.5777	0.5376	0.4547	-0.275
Mof_N 	N 	0.3117	0.9383	0.1191	-0.259
Mof_N 	N 	0.2172	0.0437	0.1293	-0.243
Mof_N 	N 	0.9456	0.4521	0.4589	-0.258
Mof_N 	N 	0.0777	0.9624	0.9547	-0.274
Mof_N 	N 	0.8117	0.5617	0.6191	-0.262
Mof_N 	N 	0.7172	0.4563	0.6293	-0.25
Mof_N 	N 	0.4456	0.0479	0.9589	-0.237
Mof_N 	N 	0.0777	0.0376	0.0453	-0.256
Mof_N 	N 	0.8117	0.4383	0.3809	-0.262
Mof_N 	N 	0.7172	0.5437	0.3707	-0.249
Mof_N 	N 	0.4456	0.9521	0.0411	-0.272
Mof_I 	I 	0.67663	0.99175	0.19713	-0.125
Mof_I 	I 	0.67663	0.00825	0.80287	-0.168
Mof_I 	I 	0.17663	0.49175	0.30287	-0.151
Mof_I 	I 	0.17663	0.50825	0.69713	-0.151
_end
