data_functionalizedCrystal
_audit_creation_method	'EQeq! by Chris Wilmer'
_symmetry_space_group_name_H-M	'P1'
_symmetry_Int_Tables_number	1
_symmetry_cell_setting	triclinic
loop_
_symmetry_equiv_pos_as_xyz
  x,y,z
_cell_length_a	23.3024
_cell_length_b	23.3024
_cell_length_c	23.3024
_cell_angle_alpha	90
_cell_angle_beta	90
_cell_angle_gamma	90
loop_
_atom_site_label
_atom_site_type_symbol
_atom_site_fract_x
_atom_site_fract_y
_atom_site_fract_z
_atom_site_charge
Mof_Zn	Zn	0.17884	0.7076	0.76299	1.23
Mof_O 	O 	0.0544	0.5641	0.9534	-0.433
Mof_O 	O 	0.0649	0.5579	0.0479	-0.47
Mof_O 	O 	0.169	0.6956	0.8445	-0.514
Mof_O 	O 	0.2429	0.742	0.8852	-0.484
Mof_O 	O 	0.2625	0.7335	0.0986	-0.335
Mof_O 	O 	0.2131	0.6679	0.1438	-0.463
Mof_C 	C 	0.1222	0.6229	0.9985	-0.002
Mof_C 	C 	0.1372	0.6477	0.9468	0.022
Mof_H 	H 	0.1182	0.6371	0.9133	0.055
Mof_C 	C 	0.181	0.6887	0.9449	-0.118
Mof_C 	C 	0.208	0.7069	0.9924	0.111
Mof_H 	H 	0.2352	0.7361	0.9906	0.041
Mof_C 	C 	0.1939	0.6803	0.0461	-0.14
Mof_C 	C 	0.1504	0.6399	0.0489	-0.033
Mof_H 	H 	0.1399	0.6242	0.0841	0.068
Mof_C 	C 	0.0763	0.5782	0.0019	0.293
Mof_C 	C 	0.1981	0.7106	0.8847	0.424
Mof_C 	C 	0.2249	0.6985	0.1001	0.367
Mof_Zn	Zn	0.67884	0.2076	0.26299	1.229
Mof_O 	O 	0.5544	0.0641	0.4534	-0.495
Mof_O 	O 	0.5649	0.0579	0.5479	-0.501
Mof_O 	O 	0.669	0.1956	0.3445	-0.518
Mof_O 	O 	0.7429	0.242	0.3852	-0.491
Mof_O 	O 	0.7625	0.2335	0.5986	-0.321
Mof_O 	O 	0.7131	0.1679	0.6438	-0.462
Mof_C 	C 	0.6222	0.1229	0.4985	-0.155
Mof_C 	C 	0.6372	0.1477	0.4468	0.085
Mof_H 	H 	0.6182	0.1371	0.4133	0.03
Mof_C 	C 	0.681	0.1887	0.4449	-0.141
Mof_C 	C 	0.708	0.2069	0.4924	0.073
Mof_H 	H 	0.7352	0.2361	0.4906	0.038
Mof_C 	C 	0.6939	0.1803	0.5461	-0.126
Mof_C 	C 	0.6504	0.1399	0.5489	0.077
Mof_H 	H 	0.6399	0.1242	0.5841	0.035
Mof_C 	C 	0.5763	0.0782	0.5019	0.437
Mof_C 	C 	0.6981	0.2106	0.3847	0.427
Mof_C 	C 	0.7249	0.1985	0.6001	0.369
Mof_Zn	Zn	0.82116	0.2924	0.76299	1.23
Mof_O 	O 	0.9456	0.4359	0.9534	-0.398
Mof_O 	O 	0.9351	0.4421	0.0479	-0.439
Mof_O 	O 	0.831	0.3044	0.8445	-0.509
Mof_O 	O 	0.7571	0.258	0.8852	-0.485
Mof_O 	O 	0.7375	0.2665	0.0986	-0.336
Mof_O 	O 	0.7869	0.3321	0.1438	-0.459
Mof_C 	C 	0.8778	0.3771	0.9985	0.014
Mof_C 	C 	0.8628	0.3523	0.9468	0.016
Mof_H 	H 	0.8818	0.3629	0.9133	0.065
Mof_C 	C 	0.819	0.3113	0.9449	-0.11
Mof_C 	C 	0.792	0.2931	0.9924	0.107
Mof_H 	H 	0.7648	0.2639	0.9906	0.042
Mof_C 	C 	0.8061	0.3197	0.0461	-0.134
Mof_C 	C 	0.8496	0.3601	0.0489	-0.038
Mof_H 	H 	0.8601	0.3758	0.0841	0.077
Mof_C 	C 	0.9237	0.4218	0.0019	0.287
Mof_C 	C 	0.8019	0.2894	0.8847	0.422
Mof_C 	C 	0.7751	0.3015	0.1001	0.366
Mof_Zn	Zn	0.32116	0.7924	0.26299	1.229
Mof_O 	O 	0.4456	0.9359	0.4534	-0.463
Mof_O 	O 	0.4351	0.9421	0.5479	-0.466
Mof_O 	O 	0.331	0.8044	0.3445	-0.514
Mof_O 	O 	0.2571	0.758	0.3852	-0.491
Mof_O 	O 	0.2375	0.7665	0.5986	-0.322
Mof_O 	O 	0.2869	0.8321	0.6438	-0.455
Mof_C 	C 	0.3778	0.8771	0.4985	-0.139
Mof_C 	C 	0.3628	0.8523	0.4468	0.08
Mof_H 	H 	0.3818	0.8629	0.4133	0.039
Mof_C 	C 	0.319	0.8113	0.4449	-0.133
Mof_C 	C 	0.292	0.7931	0.4924	0.07
Mof_H 	H 	0.2648	0.7639	0.4906	0.039
Mof_C 	C 	0.3061	0.8197	0.5461	-0.118
Mof_C 	C 	0.3496	0.8601	0.5489	0.072
Mof_H 	H 	0.3601	0.8758	0.5841	0.045
Mof_C 	C 	0.4237	0.9218	0.5019	0.43
Mof_C 	C 	0.3019	0.7894	0.3847	0.427
Mof_C 	C 	0.2751	0.8015	0.6001	0.368
Mof_Zn	Zn	0.82116	0.7076	0.23701	1.23
Mof_O 	O 	0.9456	0.5641	0.0466	-0.524
Mof_O 	O 	0.9351	0.5579	0.9521	-0.496
Mof_O 	O 	0.831	0.6956	0.1555	-0.515
Mof_O 	O 	0.7571	0.742	0.1148	-0.495
Mof_O 	O 	0.7375	0.7335	0.9014	-0.304
Mof_O 	O 	0.7869	0.6679	0.8562	-0.453
Mof_C 	C 	0.8778	0.6229	0.0015	-0.289
Mof_C 	C 	0.8628	0.6477	0.0532	0.143
Mof_H 	H 	0.8818	0.6371	0.0867	0.015
Mof_C 	C 	0.819	0.6887	0.0551	-0.153
Mof_C 	C 	0.792	0.7069	0.0076	0.033
Mof_H 	H 	0.7648	0.7361	0.0094	0.04
Mof_C 	C 	0.8061	0.6803	0.9539	-0.101
Mof_C 	C 	0.8496	0.6399	0.9511	0.182
Mof_H 	H 	0.8601	0.6242	0.9159	0.013
Mof_C 	C 	0.9237	0.5782	0.9981	0.575
Mof_C 	C 	0.8019	0.7106	0.1153	0.431
Mof_C 	C 	0.7751	0.6985	0.8999	0.371
Mof_Zn	Zn	0.32116	0.2076	0.73701	1.229
Mof_O 	O 	0.4456	0.0641	0.5466	-0.495
Mof_O 	O 	0.4351	0.0579	0.4521	-0.501
Mof_O 	O 	0.331	0.1956	0.6555	-0.519
Mof_O 	O 	0.2571	0.242	0.6148	-0.494
Mof_O 	O 	0.2375	0.2335	0.4014	-0.325
Mof_O 	O 	0.2869	0.1679	0.3562	-0.463
Mof_C 	C 	0.3778	0.1229	0.5015	-0.156
Mof_C 	C 	0.3628	0.1477	0.5532	0.086
Mof_H 	H 	0.3818	0.1371	0.5867	0.03
Mof_C 	C 	0.319	0.1887	0.5551	-0.142
Mof_C 	C 	0.292	0.2069	0.5076	0.074
Mof_H 	H 	0.2648	0.2361	0.5094	0.036
Mof_C 	C 	0.3061	0.1803	0.4539	-0.128
Mof_C 	C 	0.3496	0.1399	0.4511	0.078
Mof_H 	H 	0.3601	0.1242	0.4159	0.035
Mof_C 	C 	0.4237	0.0782	0.4981	0.437
Mof_C 	C 	0.3019	0.2106	0.6153	0.428
Mof_C 	C 	0.2751	0.1985	0.3999	0.37
Mof_Zn	Zn	0.17884	0.2924	0.23701	1.228
Mof_O 	O 	0.0544	0.4359	0.0466	-0.56
Mof_O 	O 	0.0649	0.4421	0.9521	-0.529
Mof_O 	O 	0.169	0.3044	0.1555	-0.525
Mof_O 	O 	0.2429	0.258	0.1148	-0.501
Mof_O 	O 	0.2625	0.2665	0.9014	-0.312
Mof_O 	O 	0.2131	0.3321	0.8562	-0.459
Mof_C 	C 	0.1222	0.3771	0.0015	-0.308
Mof_C 	C 	0.1372	0.3523	0.0532	0.15
Mof_H 	H 	0.1182	0.3629	0.0867	0.003
Mof_C 	C 	0.181	0.3113	0.0551	-0.167
Mof_C 	C 	0.208	0.2931	0.0076	0.038
Mof_H 	H 	0.2352	0.2639	0.0094	0.032
Mof_C 	C 	0.1939	0.3197	0.9539	-0.113
Mof_C 	C 	0.1504	0.3601	0.9511	0.188
Mof_H 	H 	0.1399	0.3758	0.9159	0.002
Mof_C 	C 	0.0763	0.4218	0.9981	0.58
Mof_C 	C 	0.1981	0.2894	0.1153	0.432
Mof_C 	C 	0.2249	0.3015	0.8999	0.371
Mof_Zn	Zn	0.67884	0.7924	0.73701	1.23
Mof_O 	O 	0.5544	0.9359	0.5466	-0.463
Mof_O 	O 	0.5649	0.9421	0.4521	-0.466
Mof_O 	O 	0.669	0.8044	0.6555	-0.513
Mof_O 	O 	0.7429	0.758	0.6148	-0.489
Mof_O 	O 	0.7625	0.7665	0.4014	-0.319
Mof_O 	O 	0.7131	0.8321	0.3562	-0.454
Mof_C 	C 	0.6222	0.8771	0.5015	-0.138
Mof_C 	C 	0.6372	0.8523	0.5532	0.08
Mof_H 	H 	0.6182	0.8629	0.5867	0.039
Mof_C 	C 	0.681	0.8113	0.5551	-0.132
Mof_C 	C 	0.708	0.7931	0.5076	0.069
Mof_H 	H 	0.7352	0.7639	0.5094	0.041
Mof_C 	C 	0.6939	0.8197	0.4539	-0.116
Mof_C 	C 	0.6504	0.8601	0.4511	0.072
Mof_H 	H 	0.6399	0.8758	0.4159	0.045
Mof_C 	C 	0.5763	0.9218	0.4981	0.43
Mof_C 	C 	0.6981	0.7894	0.6153	0.427
Mof_C 	C 	0.7249	0.8015	0.3999	0.367
Mof_Zn	Zn	0.76299	0.17884	0.7076	1.229
Mof_O 	O 	0.9534	0.0544	0.5641	-0.434
Mof_O 	O 	0.0479	0.0649	0.5579	-0.471
Mof_O 	O 	0.8445	0.169	0.6956	-0.515
Mof_O 	O 	0.8852	0.2429	0.742	-0.485
Mof_O 	O 	0.0986	0.2625	0.7335	-0.335
Mof_O 	O 	0.1438	0.2131	0.6679	-0.463
Mof_C 	C 	0.9985	0.1222	0.6229	-0.002
Mof_C 	C 	0.9468	0.1372	0.6477	0.022
Mof_H 	H 	0.9133	0.1182	0.6371	0.055
Mof_C 	C 	0.9449	0.181	0.6887	-0.118
Mof_C 	C 	0.9924	0.208	0.7069	0.111
Mof_H 	H 	0.9906	0.2352	0.7361	0.041
Mof_C 	C 	0.0461	0.1939	0.6803	-0.14
Mof_C 	C 	0.0489	0.1504	0.6399	-0.033
Mof_H 	H 	0.0841	0.1399	0.6242	0.068
Mof_C 	C 	0.0019	0.0763	0.5782	0.293
Mof_C 	C 	0.8847	0.1981	0.7106	0.424
Mof_C 	C 	0.1001	0.2249	0.6985	0.367
Mof_Zn	Zn	0.26299	0.67884	0.2076	1.229
Mof_O 	O 	0.4534	0.5544	0.0641	-0.495
Mof_O 	O 	0.5479	0.5649	0.0579	-0.501
Mof_O 	O 	0.3445	0.669	0.1956	-0.518
Mof_O 	O 	0.3852	0.7429	0.242	-0.491
Mof_O 	O 	0.5986	0.7625	0.2335	-0.321
Mof_O 	O 	0.6438	0.7131	0.1679	-0.462
Mof_C 	C 	0.4985	0.6222	0.1229	-0.155
Mof_C 	C 	0.4468	0.6372	0.1477	0.085
Mof_H 	H 	0.4133	0.6182	0.1371	0.03
Mof_C 	C 	0.4449	0.681	0.1887	-0.141
Mof_C 	C 	0.4924	0.708	0.2069	0.073
Mof_H 	H 	0.4906	0.7352	0.2361	0.038
Mof_C 	C 	0.5461	0.6939	0.1803	-0.126
Mof_C 	C 	0.5489	0.6504	0.1399	0.077
Mof_H 	H 	0.5841	0.6399	0.1242	0.035
Mof_C 	C 	0.5019	0.5763	0.0782	0.437
Mof_C 	C 	0.3847	0.6981	0.2106	0.427
Mof_C 	C 	0.6001	0.7249	0.1985	0.369
Mof_Zn	Zn	0.76299	0.82116	0.2924	1.23
Mof_O 	O 	0.9534	0.9456	0.4359	-0.398
Mof_O 	O 	0.0479	0.9351	0.4421	-0.439
Mof_O 	O 	0.8445	0.831	0.3044	-0.509
Mof_O 	O 	0.8852	0.7571	0.258	-0.485
Mof_O 	O 	0.0986	0.7375	0.2665	-0.336
Mof_O 	O 	0.1438	0.7869	0.3321	-0.459
Mof_C 	C 	0.9985	0.8778	0.3771	0.014
Mof_C 	C 	0.9468	0.8628	0.3523	0.016
Mof_H 	H 	0.9133	0.8818	0.3629	0.065
Mof_C 	C 	0.9449	0.819	0.3113	-0.11
Mof_C 	C 	0.9924	0.792	0.2931	0.107
Mof_H 	H 	0.9906	0.7648	0.2639	0.042
Mof_C 	C 	0.0461	0.8061	0.3197	-0.134
Mof_C 	C 	0.0489	0.8496	0.3601	-0.038
Mof_H 	H 	0.0841	0.8601	0.3758	0.077
Mof_C 	C 	0.0019	0.9237	0.4218	0.287
Mof_C 	C 	0.8847	0.8019	0.2894	0.422
Mof_C 	C 	0.1001	0.7751	0.3015	0.366
Mof_Zn	Zn	0.26299	0.32116	0.7924	1.229
Mof_O 	O 	0.4534	0.4456	0.9359	-0.463
Mof_O 	O 	0.5479	0.4351	0.9421	-0.466
Mof_O 	O 	0.3445	0.331	0.8044	-0.514
Mof_O 	O 	0.3852	0.2571	0.758	-0.491
Mof_O 	O 	0.5986	0.2375	0.7665	-0.322
Mof_O 	O 	0.6438	0.2869	0.8321	-0.455
Mof_C 	C 	0.4985	0.3778	0.8771	-0.139
Mof_C 	C 	0.4468	0.3628	0.8523	0.08
Mof_H 	H 	0.4133	0.3818	0.8629	0.039
Mof_C 	C 	0.4449	0.319	0.8113	-0.133
Mof_C 	C 	0.4924	0.292	0.7931	0.07
Mof_H 	H 	0.4906	0.2648	0.7639	0.039
Mof_C 	C 	0.5461	0.3061	0.8197	-0.118
Mof_C 	C 	0.5489	0.3496	0.8601	0.072
Mof_H 	H 	0.5841	0.3601	0.8758	0.045
Mof_C 	C 	0.5019	0.4237	0.9218	0.43
Mof_C 	C 	0.3847	0.3019	0.7894	0.427
Mof_C 	C 	0.6001	0.2751	0.8015	0.368
Mof_Zn	Zn	0.23701	0.82116	0.7076	1.23
Mof_O 	O 	0.0466	0.9456	0.5641	-0.524
Mof_O 	O 	0.9521	0.9351	0.5579	-0.496
Mof_O 	O 	0.1555	0.831	0.6956	-0.515
Mof_O 	O 	0.1148	0.7571	0.742	-0.495
Mof_O 	O 	0.9014	0.7375	0.7335	-0.304
Mof_O 	O 	0.8562	0.7869	0.6679	-0.453
Mof_C 	C 	0.0015	0.8778	0.6229	-0.289
Mof_C 	C 	0.0532	0.8628	0.6477	0.143
Mof_H 	H 	0.0867	0.8818	0.6371	0.015
Mof_C 	C 	0.0551	0.819	0.6887	-0.153
Mof_C 	C 	0.0076	0.792	0.7069	0.033
Mof_H 	H 	0.0094	0.7648	0.7361	0.04
Mof_C 	C 	0.9539	0.8061	0.6803	-0.101
Mof_C 	C 	0.9511	0.8496	0.6399	0.182
Mof_H 	H 	0.9159	0.8601	0.6242	0.013
Mof_C 	C 	0.9981	0.9237	0.5782	0.575
Mof_C 	C 	0.1153	0.8019	0.7106	0.431
Mof_C 	C 	0.8999	0.7751	0.6985	0.371
Mof_Zn	Zn	0.73701	0.32116	0.2076	1.229
Mof_O 	O 	0.5466	0.4456	0.0641	-0.495
Mof_O 	O 	0.4521	0.4351	0.0579	-0.501
Mof_O 	O 	0.6555	0.331	0.1956	-0.519
Mof_O 	O 	0.6148	0.2571	0.242	-0.494
Mof_O 	O 	0.4014	0.2375	0.2335	-0.325
Mof_O 	O 	0.3562	0.2869	0.1679	-0.463
Mof_C 	C 	0.5015	0.3778	0.1229	-0.156
Mof_C 	C 	0.5532	0.3628	0.1477	0.086
Mof_H 	H 	0.5867	0.3818	0.1371	0.03
Mof_C 	C 	0.5551	0.319	0.1887	-0.142
Mof_C 	C 	0.5076	0.292	0.2069	0.074
Mof_H 	H 	0.5094	0.2648	0.2361	0.036
Mof_C 	C 	0.4539	0.3061	0.1803	-0.128
Mof_C 	C 	0.4511	0.3496	0.1399	0.078
Mof_H 	H 	0.4159	0.3601	0.1242	0.035
Mof_C 	C 	0.4981	0.4237	0.0782	0.437
Mof_C 	C 	0.6153	0.3019	0.2106	0.428
Mof_C 	C 	0.3999	0.2751	0.1985	0.37
Mof_Zn	Zn	0.23701	0.17884	0.2924	1.228
Mof_O 	O 	0.0466	0.0544	0.4359	-0.56
Mof_O 	O 	0.9521	0.0649	0.4421	-0.529
Mof_O 	O 	0.1555	0.169	0.3044	-0.525
Mof_O 	O 	0.1148	0.2429	0.258	-0.501
Mof_O 	O 	0.9014	0.2625	0.2665	-0.312
Mof_O 	O 	0.8562	0.2131	0.3321	-0.459
Mof_C 	C 	0.0015	0.1222	0.3771	-0.308
Mof_C 	C 	0.0532	0.1372	0.3523	0.15
Mof_H 	H 	0.0867	0.1182	0.3629	0.003
Mof_C 	C 	0.0551	0.181	0.3113	-0.167
Mof_C 	C 	0.0076	0.208	0.2931	0.038
Mof_H 	H 	0.0094	0.2352	0.2639	0.032
Mof_C 	C 	0.9539	0.1939	0.3197	-0.113
Mof_C 	C 	0.9511	0.1504	0.3601	0.188
Mof_H 	H 	0.9159	0.1399	0.3758	0.002
Mof_C 	C 	0.9981	0.0763	0.4218	0.58
Mof_C 	C 	0.1153	0.1981	0.2894	0.432
Mof_C 	C 	0.8999	0.2249	0.3015	0.371
Mof_Zn	Zn	0.73701	0.67884	0.7924	1.23
Mof_O 	O 	0.5466	0.5544	0.9359	-0.463
Mof_O 	O 	0.4521	0.5649	0.9421	-0.466
Mof_O 	O 	0.6555	0.669	0.8044	-0.513
Mof_O 	O 	0.6148	0.7429	0.758	-0.489
Mof_O 	O 	0.4014	0.7625	0.7665	-0.319
Mof_O 	O 	0.3562	0.7131	0.8321	-0.454
Mof_C 	C 	0.5015	0.6222	0.8771	-0.138
Mof_C 	C 	0.5532	0.6372	0.8523	0.08
Mof_H 	H 	0.5867	0.6182	0.8629	0.039
Mof_C 	C 	0.5551	0.681	0.8113	-0.132
Mof_C 	C 	0.5076	0.708	0.7931	0.069
Mof_H 	H 	0.5094	0.7352	0.7639	0.041
Mof_C 	C 	0.4539	0.6939	0.8197	-0.116
Mof_C 	C 	0.4511	0.6504	0.8601	0.072
Mof_H 	H 	0.4159	0.6399	0.8758	0.045
Mof_C 	C 	0.4981	0.5763	0.9218	0.43
Mof_C 	C 	0.6153	0.6981	0.7894	0.427
Mof_C 	C 	0.3999	0.7249	0.8015	0.367
Mof_Zn	Zn	0.7076	0.76299	0.17884	1.229
Mof_O 	O 	0.5641	0.9534	0.0544	-0.434
Mof_O 	O 	0.5579	0.0479	0.0649	-0.471
Mof_O 	O 	0.6956	0.8445	0.169	-0.515
Mof_O 	O 	0.742	0.8852	0.2429	-0.485
Mof_O 	O 	0.7335	0.0986	0.2625	-0.335
Mof_O 	O 	0.6679	0.1438	0.2131	-0.463
Mof_C 	C 	0.6229	0.9985	0.1222	-0.002
Mof_C 	C 	0.6477	0.9468	0.1372	0.022
Mof_H 	H 	0.6371	0.9133	0.1182	0.055
Mof_C 	C 	0.6887	0.9449	0.181	-0.118
Mof_C 	C 	0.7069	0.9924	0.208	0.111
Mof_H 	H 	0.7361	0.9906	0.2352	0.041
Mof_C 	C 	0.6803	0.0461	0.1939	-0.14
Mof_C 	C 	0.6399	0.0489	0.1504	-0.033
Mof_H 	H 	0.6242	0.0841	0.1399	0.068
Mof_C 	C 	0.5782	0.0019	0.0763	0.293
Mof_C 	C 	0.7106	0.8847	0.1981	0.424
Mof_C 	C 	0.6985	0.1001	0.2249	0.367
Mof_Zn	Zn	0.2076	0.26299	0.67884	1.229
Mof_O 	O 	0.0641	0.4534	0.5544	-0.495
Mof_O 	O 	0.0579	0.5479	0.5649	-0.501
Mof_O 	O 	0.1956	0.3445	0.669	-0.518
Mof_O 	O 	0.242	0.3852	0.7429	-0.491
Mof_O 	O 	0.2335	0.5986	0.7625	-0.321
Mof_O 	O 	0.1679	0.6438	0.7131	-0.462
Mof_C 	C 	0.1229	0.4985	0.6222	-0.155
Mof_C 	C 	0.1477	0.4468	0.6372	0.085
Mof_H 	H 	0.1371	0.4133	0.6182	0.03
Mof_C 	C 	0.1887	0.4449	0.681	-0.141
Mof_C 	C 	0.2069	0.4924	0.708	0.073
Mof_H 	H 	0.2361	0.4906	0.7352	0.038
Mof_C 	C 	0.1803	0.5461	0.6939	-0.126
Mof_C 	C 	0.1399	0.5489	0.6504	0.077
Mof_H 	H 	0.1242	0.5841	0.6399	0.035
Mof_C 	C 	0.0782	0.5019	0.5763	0.437
Mof_C 	C 	0.2106	0.3847	0.6981	0.427
Mof_C 	C 	0.1985	0.6001	0.7249	0.369
Mof_Zn	Zn	0.2924	0.76299	0.82116	1.23
Mof_O 	O 	0.4359	0.9534	0.9456	-0.398
Mof_O 	O 	0.4421	0.0479	0.9351	-0.439
Mof_O 	O 	0.3044	0.8445	0.831	-0.509
Mof_O 	O 	0.258	0.8852	0.7571	-0.485
Mof_O 	O 	0.2665	0.0986	0.7375	-0.336
Mof_O 	O 	0.3321	0.1438	0.7869	-0.459
Mof_C 	C 	0.3771	0.9985	0.8778	0.014
Mof_C 	C 	0.3523	0.9468	0.8628	0.016
Mof_H 	H 	0.3629	0.9133	0.8818	0.065
Mof_C 	C 	0.3113	0.9449	0.819	-0.11
Mof_C 	C 	0.2931	0.9924	0.792	0.107
Mof_H 	H 	0.2639	0.9906	0.7648	0.042
Mof_C 	C 	0.3197	0.0461	0.8061	-0.134
Mof_C 	C 	0.3601	0.0489	0.8496	-0.038
Mof_H 	H 	0.3758	0.0841	0.8601	0.077
Mof_C 	C 	0.4218	0.0019	0.9237	0.287
Mof_C 	C 	0.2894	0.8847	0.8019	0.422
Mof_C 	C 	0.3015	0.1001	0.7751	0.366
Mof_Zn	Zn	0.7924	0.26299	0.32116	1.229
Mof_O 	O 	0.9359	0.4534	0.4456	-0.463
Mof_O 	O 	0.9421	0.5479	0.4351	-0.466
Mof_O 	O 	0.8044	0.3445	0.331	-0.514
Mof_O 	O 	0.758	0.3852	0.2571	-0.491
Mof_O 	O 	0.7665	0.5986	0.2375	-0.322
Mof_O 	O 	0.8321	0.6438	0.2869	-0.455
Mof_C 	C 	0.8771	0.4985	0.3778	-0.139
Mof_C 	C 	0.8523	0.4468	0.3628	0.08
Mof_H 	H 	0.8629	0.4133	0.3818	0.039
Mof_C 	C 	0.8113	0.4449	0.319	-0.133
Mof_C 	C 	0.7931	0.4924	0.292	0.07
Mof_H 	H 	0.7639	0.4906	0.2648	0.039
Mof_C 	C 	0.8197	0.5461	0.3061	-0.118
Mof_C 	C 	0.8601	0.5489	0.3496	0.072
Mof_H 	H 	0.8758	0.5841	0.3601	0.045
Mof_C 	C 	0.9218	0.5019	0.4237	0.43
Mof_C 	C 	0.7894	0.3847	0.3019	0.427
Mof_C 	C 	0.8015	0.6001	0.2751	0.368
Mof_Zn	Zn	0.7076	0.23701	0.82116	1.23
Mof_O 	O 	0.5641	0.0466	0.9456	-0.524
Mof_O 	O 	0.5579	0.9521	0.9351	-0.496
Mof_O 	O 	0.6956	0.1555	0.831	-0.515
Mof_O 	O 	0.742	0.1148	0.7571	-0.495
Mof_O 	O 	0.7335	0.9014	0.7375	-0.304
Mof_O 	O 	0.6679	0.8562	0.7869	-0.453
Mof_C 	C 	0.6229	0.0015	0.8778	-0.289
Mof_C 	C 	0.6477	0.0532	0.8628	0.143
Mof_H 	H 	0.6371	0.0867	0.8818	0.015
Mof_C 	C 	0.6887	0.0551	0.819	-0.153
Mof_C 	C 	0.7069	0.0076	0.792	0.033
Mof_H 	H 	0.7361	0.0094	0.7648	0.04
Mof_C 	C 	0.6803	0.9539	0.8061	-0.101
Mof_C 	C 	0.6399	0.9511	0.8496	0.182
Mof_H 	H 	0.6242	0.9159	0.8601	0.013
Mof_C 	C 	0.5782	0.9981	0.9237	0.575
Mof_C 	C 	0.7106	0.1153	0.8019	0.431
Mof_C 	C 	0.6985	0.8999	0.7751	0.371
Mof_Zn	Zn	0.2076	0.73701	0.32116	1.229
Mof_O 	O 	0.0641	0.5466	0.4456	-0.495
Mof_O 	O 	0.0579	0.4521	0.4351	-0.501
Mof_O 	O 	0.1956	0.6555	0.331	-0.519
Mof_O 	O 	0.242	0.6148	0.2571	-0.494
Mof_O 	O 	0.2335	0.4014	0.2375	-0.325
Mof_O 	O 	0.1679	0.3562	0.2869	-0.463
Mof_C 	C 	0.1229	0.5015	0.3778	-0.156
Mof_C 	C 	0.1477	0.5532	0.3628	0.086
Mof_H 	H 	0.1371	0.5867	0.3818	0.03
Mof_C 	C 	0.1887	0.5551	0.319	-0.142
Mof_C 	C 	0.2069	0.5076	0.292	0.074
Mof_H 	H 	0.2361	0.5094	0.2648	0.036
Mof_C 	C 	0.1803	0.4539	0.3061	-0.128
Mof_C 	C 	0.1399	0.4511	0.3496	0.078
Mof_H 	H 	0.1242	0.4159	0.3601	0.035
Mof_C 	C 	0.0782	0.4981	0.4237	0.437
Mof_C 	C 	0.2106	0.6153	0.3019	0.428
Mof_C 	C 	0.1985	0.3999	0.2751	0.37
Mof_Zn	Zn	0.2924	0.23701	0.17884	1.228
Mof_O 	O 	0.4359	0.0466	0.0544	-0.56
Mof_O 	O 	0.4421	0.9521	0.0649	-0.529
Mof_O 	O 	0.3044	0.1555	0.169	-0.525
Mof_O 	O 	0.258	0.1148	0.2429	-0.501
Mof_O 	O 	0.2665	0.9014	0.2625	-0.312
Mof_O 	O 	0.3321	0.8562	0.2131	-0.459
Mof_C 	C 	0.3771	0.0015	0.1222	-0.308
Mof_C 	C 	0.3523	0.0532	0.1372	0.15
Mof_H 	H 	0.3629	0.0867	0.1182	0.003
Mof_C 	C 	0.3113	0.0551	0.181	-0.167
Mof_C 	C 	0.2931	0.0076	0.208	0.038
Mof_H 	H 	0.2639	0.0094	0.2352	0.032
Mof_C 	C 	0.3197	0.9539	0.1939	-0.113
Mof_C 	C 	0.3601	0.9511	0.1504	0.188
Mof_H 	H 	0.3758	0.9159	0.1399	0.002
Mof_C 	C 	0.4218	0.9981	0.0763	0.58
Mof_C 	C 	0.2894	0.1153	0.1981	0.432
Mof_C 	C 	0.3015	0.8999	0.2249	0.371
Mof_Zn	Zn	0.7924	0.73701	0.67884	1.23
Mof_O 	O 	0.9359	0.5466	0.5544	-0.463
Mof_O 	O 	0.9421	0.4521	0.5649	-0.466
Mof_O 	O 	0.8044	0.6555	0.669	-0.513
Mof_O 	O 	0.758	0.6148	0.7429	-0.489
Mof_O 	O 	0.7665	0.4014	0.7625	-0.319
Mof_O 	O 	0.8321	0.3562	0.7131	-0.454
Mof_C 	C 	0.8771	0.5015	0.6222	-0.138
Mof_C 	C 	0.8523	0.5532	0.6372	0.08
Mof_H 	H 	0.8629	0.5867	0.6182	0.039
Mof_C 	C 	0.8113	0.5551	0.681	-0.132
Mof_C 	C 	0.7931	0.5076	0.708	0.069
Mof_H 	H 	0.7639	0.5094	0.7352	0.041
Mof_C 	C 	0.8197	0.4539	0.6939	-0.116
Mof_C 	C 	0.8601	0.4511	0.6504	0.072
Mof_H 	H 	0.8758	0.4159	0.6399	0.045
Mof_C 	C 	0.9218	0.4981	0.5763	0.43
Mof_C 	C 	0.7894	0.6153	0.6981	0.427
Mof_C 	C 	0.8015	0.3999	0.7249	0.367
Mof_Zn	Zn	-2.8408e-32	0.5	0.93678	1.191
Mof_Zn	Zn	0.5	-3.99005e-33	0.43678	1.187
Mof_Zn	Zn	1.23455e-33	0.5	0.06322	1.184
Mof_Zn	Zn	0.5	-3.99005e-33	0.56322	1.187
Mof_Zn	Zn	0.93678	0	0.5	1.191
Mof_Zn	Zn	0.43678	0.5	-0	1.187
Mof_Zn	Zn	0.06322	0	0.5	1.184
Mof_Zn	Zn	0.56322	0.5	-0	1.187
Mof_Zn	Zn	0.5	0.93678	-0	1.191
Mof_Zn	Zn	-1.00955e-32	0.43678	0.5	1.187
Mof_Zn	Zn	0.5	0.06322	-0	1.184
Mof_Zn	Zn	-2.11535e-33	0.56322	0.5	1.187
Mof_O 	O 	0.2511	0.7489	0.7489	-0.717
Mof_O 	O 	0.7511	0.2489	0.2489	-0.719
Mof_O 	O 	0.7489	0.2511	0.7489	-0.717
Mof_O 	O 	0.2489	0.7511	0.2489	-0.719
Mof_O 	O 	0.7489	0.7489	0.2511	-0.717
Mof_O 	O 	0.2489	0.2489	0.7511	-0.719
Mof_O 	O 	0.2511	0.2511	0.2511	-0.719
Mof_O 	O 	0.7511	0.7511	0.7511	-0.714
_end
