# CIF file generated by openbabel 3.1.0, see https://openbabel.org
data_I
_chemical_name_common 'image0'
_cell_length_a 19.961
_cell_length_b 6.081
_cell_length_c 21.693
_cell_angle_alpha 90
_cell_angle_beta 92.694
_cell_angle_gamma 90
_space_group_name_H-M_alt 'P 1'
_space_group_name_Hall 'P 1'
loop_
    _symmetry_equiv_pos_as_xyz
    x,y,z
loop_
    _atom_site_label
    _atom_site_type_symbol
    _atom_site_fract_x
    _atom_site_fract_y
    _atom_site_fract_z
    _atom_site_occupancy
    C1       C        0.18490    0.94270    0.38450    1.000
    H1       H        0.15680    0.06370    0.38790    1.000
    C2       C        0.17430    0.80340    0.33470    1.000
    H2       H        0.14040    0.83300    0.30500    1.000
    C3       C        0.21420    0.62030    0.32949    1.000
    C4       C        0.26480    0.58690    0.37540    1.000
    H3       H        0.29300    0.46560    0.37370    1.000
    C5       C        0.27230    0.73480    0.42285    1.000
    H4       H        0.30600    0.71080    0.45320    1.000
    C6       C        0.20660    0.46480    0.27690    1.000
    C7       C        0.15040    0.48630    0.23030    1.000
    H5       H        0.12150    0.60420    0.24180    1.000
    H6       H        0.12540    0.35150    0.22820    1.000
    H7       H        0.16780    0.51730    0.19070    1.000
    C8       C        0.12195    0.24840    0.51520    1.000
    C9       C        0.05898    0.37750    0.50785    1.000
    C10      C        0.05761    0.56930    0.47340    1.000
    H8       H        0.09650    0.61690    0.45560    1.000
    C11      C        0.99930    0.69180    0.46510    1.000
    N1       N        0.23323    0.91200    0.42750    1.000
    N2       N        0.25370    0.32290    0.27510    1.000
    O1       O        0.17342    0.31950    0.49049    1.000
    O2       O        0.12201    0.07430    0.54450    1.000
    O3       O        0.00070    0.87740    0.43010    1.000
    H9       H        0.96350    0.93490    0.42860    1.000
    C12      C        0.68490    0.44270    0.88450    1.000
    H10      H        0.65680    0.56370    0.88790    1.000
    C13      C        0.67430    0.30340    0.83470    1.000
    H11      H        0.64040    0.33300    0.80500    1.000
    C14      C        0.71420    0.12030    0.82949    1.000
    C15      C        0.76480    0.08690    0.87540    1.000
    H12      H        0.79300    0.96560    0.87370    1.000
    C16      C        0.77230    0.23480    0.92285    1.000
    H13      H        0.80600    0.21080    0.95320    1.000
    C17      C        0.70660    0.96480    0.77690    1.000
    C18      C        0.65040    0.98630    0.73030    1.000
    H14      H        0.62150    0.10420    0.74180    1.000
    H15      H        0.62540    0.85150    0.72820    1.000
    H16      H        0.66780    0.01730    0.69070    1.000
    C19      C        0.62195    0.74840    0.01520    1.000
    C20      C        0.55898    0.87750    0.00785    1.000
    C21      C        0.55761    0.06930    0.97340    1.000
    H17      H        0.59650    0.11690    0.95560    1.000
    C22      C        0.49930    0.19180    0.96510    1.000
    N3       N        0.73323    0.41200    0.92750    1.000
    N4       N        0.75370    0.82290    0.77510    1.000
    O4       O        0.67342    0.81950    0.99049    1.000
    O5       O        0.62201    0.57430    0.04450    1.000
    O6       O        0.50070    0.37740    0.93010    1.000
    H18      H        0.46350    0.43490    0.92860    1.000
    C23      C        0.31510    0.94270    0.61550    1.000
    H19      H        0.34320    0.06370    0.61210    1.000
    C24      C        0.32570    0.80340    0.66530    1.000
    H20      H        0.35960    0.83300    0.69500    1.000
    C25      C        0.28580    0.62030    0.67051    1.000
    C26      C        0.23520    0.58690    0.62460    1.000
    H21      H        0.20700    0.46560    0.62630    1.000
    C27      C        0.22770    0.73480    0.57715    1.000
    H22      H        0.19400    0.71080    0.54680    1.000
    C28      C        0.29340    0.46480    0.72310    1.000
    C29      C        0.34960    0.48630    0.76970    1.000
    H23      H        0.37850    0.60420    0.75820    1.000
    H24      H        0.37460    0.35150    0.77180    1.000
    H25      H        0.33220    0.51730    0.80930    1.000
    C30      C        0.37805    0.24840    0.48480    1.000
    C31      C        0.44102    0.37750    0.49215    1.000
    C32      C        0.44239    0.56930    0.52660    1.000
    H26      H        0.40350    0.61690    0.54440    1.000
    C33      C        0.50070    0.69180    0.53490    1.000
    N5       N        0.26677    0.91200    0.57250    1.000
    N6       N        0.24630    0.32290    0.72490    1.000
    O7       O        0.32658    0.31950    0.50951    1.000
    O8       O        0.37799    0.07430    0.45550    1.000
    O9       O        0.49930    0.87740    0.56990    1.000
    H27      H        0.53650    0.93490    0.57140    1.000
    C34      C        0.81510    0.44270    0.11550    1.000
    H28      H        0.84320    0.56370    0.11210    1.000
    C35      C        0.82570    0.30340    0.16530    1.000
    H29      H        0.85960    0.33300    0.19500    1.000
    C36      C        0.78580    0.12030    0.17051    1.000
    C37      C        0.73520    0.08690    0.12460    1.000
    H30      H        0.70700    0.96560    0.12630    1.000
    C38      C        0.72770    0.23480    0.07715    1.000
    H31      H        0.69400    0.21080    0.04680    1.000
    C39      C        0.79340    0.96480    0.22310    1.000
    C40      C        0.84960    0.98630    0.26970    1.000
    H32      H        0.87850    0.10420    0.25820    1.000
    H33      H        0.87460    0.85150    0.27180    1.000
    H34      H        0.83220    0.01730    0.30930    1.000
    C41      C        0.87805    0.74840    0.98480    1.000
    C42      C        0.94102    0.87750    0.99215    1.000
    C43      C        0.94239    0.06930    0.02660    1.000
    H35      H        0.90350    0.11690    0.04440    1.000
    C44      C        0.00070    0.19180    0.03490    1.000
    N7       N        0.76677    0.41200    0.07250    1.000
    N8       N        0.74630    0.82290    0.22490    1.000
    O10      O        0.82658    0.81950    0.00951    1.000
    O11      O        0.87799    0.57430    0.95550    1.000
    O12      O        0.99930    0.37740    0.06990    1.000
    H36      H        0.03650    0.43490    0.07140    1.000
    C45      C        0.81510    0.05730    0.61550    1.000
    H37      H        0.84320    0.93630    0.61210    1.000
    C46      C        0.82570    0.19660    0.66530    1.000
    H38      H        0.85960    0.16700    0.69500    1.000
    C47      C        0.78580    0.37970    0.67051    1.000
    C48      C        0.73520    0.41310    0.62460    1.000
    H39      H        0.70700    0.53440    0.62630    1.000
    C49      C        0.72770    0.26520    0.57715    1.000
    H40      H        0.69400    0.28920    0.54680    1.000
    C50      C        0.79340    0.53520    0.72310    1.000
    C51      C        0.84960    0.51370    0.76970    1.000
    H41      H        0.87850    0.39580    0.75820    1.000
    H42      H        0.87460    0.64850    0.77180    1.000
    H43      H        0.83220    0.48270    0.80930    1.000
    C52      C        0.87805    0.75160    0.48480    1.000
    C53      C        0.94102    0.62250    0.49215    1.000
    C54      C        0.94239    0.43070    0.52660    1.000
    H44      H        0.90350    0.38310    0.54440    1.000
    C55      C        0.00070    0.30820    0.53490    1.000
    N9       N        0.76677    0.08800    0.57250    1.000
    N10      N        0.74630    0.67710    0.72490    1.000
    O13      O        0.82658    0.68050    0.50951    1.000
    O14      O        0.87799    0.92570    0.45550    1.000
    O15      O        0.99930    0.12260    0.56990    1.000
    H45      H        0.03650    0.06510    0.57140    1.000
    C56      C        0.31510    0.55730    0.11550    1.000
    H46      H        0.34320    0.43630    0.11210    1.000
    C57      C        0.32570    0.69660    0.16530    1.000
    H47      H        0.35960    0.66700    0.19500    1.000
    C58      C        0.28580    0.87970    0.17051    1.000
    C59      C        0.23520    0.91310    0.12460    1.000
    H48      H        0.20700    0.03440    0.12630    1.000
    C60      C        0.22770    0.76520    0.07715    1.000
    H49      H        0.19400    0.78920    0.04680    1.000
    C61      C        0.29340    0.03520    0.22310    1.000
    C62      C        0.34960    0.01370    0.26970    1.000
    H50      H        0.37850    0.89580    0.25820    1.000
    H51      H        0.37460    0.14850    0.27180    1.000
    H52      H        0.33220    0.98270    0.30930    1.000
    C63      C        0.37805    0.25160    0.98480    1.000
    C64      C        0.44102    0.12250    0.99215    1.000
    C65      C        0.44239    0.93070    0.02660    1.000
    H53      H        0.40350    0.88310    0.04440    1.000
    C66      C        0.50070    0.80820    0.03490    1.000
    N11      N        0.26677    0.58800    0.07250    1.000
    N12      N        0.24630    0.17710    0.22490    1.000
    O16      O        0.32658    0.18050    0.00951    1.000
    O17      O        0.37799    0.42570    0.95550    1.000
    O18      O        0.49930    0.62260    0.06990    1.000
    H54      H        0.53650    0.56510    0.07140    1.000
    C67      C        0.68490    0.05730    0.38450    1.000
    H55      H        0.65680    0.93630    0.38790    1.000
    C68      C        0.67430    0.19660    0.33470    1.000
    H56      H        0.64040    0.16700    0.30500    1.000
    C69      C        0.71420    0.37970    0.32949    1.000
    C70      C        0.76480    0.41310    0.37540    1.000
    H57      H        0.79300    0.53440    0.37370    1.000
    C71      C        0.77230    0.26520    0.42285    1.000
    H58      H        0.80600    0.28920    0.45320    1.000
    C72      C        0.70660    0.53520    0.27690    1.000
    C73      C        0.65040    0.51370    0.23030    1.000
    H59      H        0.62150    0.39580    0.24180    1.000
    H60      H        0.62540    0.64850    0.22820    1.000
    H61      H        0.66780    0.48270    0.19070    1.000
    C74      C        0.62195    0.75160    0.51520    1.000
    C75      C        0.55898    0.62250    0.50785    1.000
    C76      C        0.55761    0.43070    0.47340    1.000
    H62      H        0.59650    0.38310    0.45560    1.000
    C77      C        0.49930    0.30820    0.46510    1.000
    N13      N        0.73323    0.08800    0.42750    1.000
    N14      N        0.75370    0.67710    0.27510    1.000
    O19      O        0.67342    0.68050    0.49049    1.000
    O20      O        0.62201    0.92570    0.54450    1.000
    O21      O        0.50070    0.12260    0.43010    1.000
    H63      H        0.46350    0.06510    0.42860    1.000
    C78      C        0.18490    0.55730    0.88450    1.000
    H64      H        0.15680    0.43630    0.88790    1.000
    C79      C        0.17430    0.69660    0.83470    1.000
    H65      H        0.14040    0.66700    0.80500    1.000
    C80      C        0.21420    0.87970    0.82949    1.000
    C81      C        0.26480    0.91310    0.87540    1.000
    H66      H        0.29300    0.03440    0.87370    1.000
    C82      C        0.27230    0.76520    0.92285    1.000
    H67      H        0.30600    0.78920    0.95320    1.000
    C83      C        0.20660    0.03520    0.77690    1.000
    C84      C        0.15040    0.01370    0.73030    1.000
    H68      H        0.12150    0.89580    0.74180    1.000
    H69      H        0.12540    0.14850    0.72820    1.000
    H70      H        0.16780    0.98270    0.69070    1.000
    C85      C        0.12195    0.25160    0.01520    1.000
    C86      C        0.05898    0.12250    0.00785    1.000
    C87      C        0.05761    0.93070    0.97340    1.000
    H71      H        0.09650    0.88310    0.95560    1.000
    C88      C        0.99930    0.80820    0.96510    1.000
    N15      N        0.23323    0.58800    0.92750    1.000
    N16      N        0.25370    0.17710    0.77510    1.000
    O22      O        0.17342    0.18050    0.99049    1.000
    O23      O        0.12201    0.42570    0.04450    1.000
    O24      O        0.00070    0.62260    0.93010    1.000
    H72      H        0.96350    0.56510    0.92860    1.000
    Zn1      Zn       0.25000    0.12138    0.50000    1.000
    Zn2      Zn       0.75000    0.62138    0.00000    1.000
    Zn3      Zn       0.75000    0.87862    0.50000    1.000
    Zn4      Zn       0.25000    0.37862    0.00000    1.000
