# CIF file generated by openbabel 3.1.0, see https://openbabel.org
data_I
_chemical_name_common 'DUXMAL_clean'
_cell_length_a 10.2319
_cell_length_b 18.733
_cell_length_c 20.283
_cell_angle_alpha 90
_cell_angle_beta 90
_cell_angle_gamma 90
_space_group_name_H-M_alt 'P 1'
_space_group_name_Hall 'P 1'
loop_
    _symmetry_equiv_pos_as_xyz
    x,y,z
loop_
    _atom_site_label
    _atom_site_type_symbol
    _atom_site_fract_x
    _atom_site_fract_y
    _atom_site_fract_z
    _atom_site_occupancy
    Mn1      Mn       0.16315    0.94969    0.94893    1.000
    Mn2      Mn       0.33685    0.55031    0.44893    1.000
    Mn3      Mn       0.83685    0.05031    0.05107    1.000
    Mn4      Mn       0.66315    0.44969    0.55107    1.000
    H1       H        0.72660    0.69640    0.81680    1.000
    H2       H        0.46610    0.80190    0.83410    1.000
    H3       H        0.62600    0.95470    0.94930    1.000
    H4       H        0.85760    0.80610    0.86380    1.000
    H5       H        0.79680    0.51590    0.68020    1.000
    H6       H        0.79050    0.61580    0.74750    1.000
    H7       H        0.45910    0.67480    0.65490    1.000
    H8       H        0.47570    0.57370    0.59040    1.000
    H9       H        0.77340    0.80360    0.31680    1.000
    H10      H        0.03390    0.69810    0.33410    1.000
    H11      H        0.87400    0.54530    0.44930    1.000
    H12      H        0.64240    0.69390    0.36380    1.000
    H13      H        0.70320    0.98410    0.18020    1.000
    H14      H        0.70950    0.88420    0.24750    1.000
    H15      H        0.04090    0.82520    0.15490    1.000
    H16      H        0.02430    0.92630    0.09040    1.000
    H17      H        0.27340    0.30360    0.18320    1.000
    H18      H        0.53390    0.19810    0.16590    1.000
    H19      H        0.37400    0.04530    0.05070    1.000
    H20      H        0.14240    0.19390    0.13620    1.000
    H21      H        0.20320    0.48410    0.31980    1.000
    H22      H        0.20950    0.38420    0.25250    1.000
    H23      H        0.54090    0.32520    0.34510    1.000
    H24      H        0.52430    0.42630    0.40960    1.000
    H25      H        0.22660    0.19640    0.68320    1.000
    H26      H        0.96610    0.30190    0.66590    1.000
    H27      H        0.12600    0.45470    0.55070    1.000
    H28      H        0.35760    0.30610    0.63620    1.000
    H29      H        0.29680    0.01590    0.81980    1.000
    H30      H        0.29050    0.11580    0.75250    1.000
    H31      H        0.95910    0.17480    0.84510    1.000
    H32      H        0.97570    0.07370    0.90960    1.000
    C1       C        0.66390    0.79414    0.84294    1.000
    C2       C        0.54080    0.82329    0.85368    1.000
    C3       C        0.52650    0.88330    0.89281    1.000
    C4       C        0.63580    0.91408    0.92177    1.000
    C5       C        0.75870    0.88591    0.91072    1.000
    C6       C        0.77320    0.82563    0.87129    1.000
    C7       C        0.61280    0.72615    0.74454    1.000
    C8       C        0.72780    0.54930    0.67458    1.000
    C9       C        0.72460    0.60860    0.71518    1.000
    C10      C        0.62470    0.65691    0.70790    1.000
    C11      C        0.53050    0.64306    0.66077    1.000
    C12      C        0.54140    0.58268    0.62243    1.000
    C13      C        0.39250    0.91278    0.90510    1.000
    C14      C        0.87720    0.92158    0.93970    1.000
    C15      C        0.83610    0.70586    0.34294    1.000
    C16      C        0.95920    0.67671    0.35368    1.000
    C17      C        0.97350    0.61670    0.39281    1.000
    C18      C        0.86420    0.58592    0.42177    1.000
    C19      C        0.74130    0.61409    0.41072    1.000
    C20      C        0.72680    0.67437    0.37129    1.000
    C21      C        0.88720    0.77385    0.24454    1.000
    C22      C        0.77220    0.95070    0.17458    1.000
    C23      C        0.77540    0.89140    0.21518    1.000
    C24      C        0.87530    0.84309    0.20790    1.000
    C25      C        0.96950    0.85694    0.16077    1.000
    C26      C        0.95860    0.91732    0.12243    1.000
    C27      C        0.10750    0.58722    0.40510    1.000
    C28      C        0.62280    0.57842    0.43970    1.000
    C29      C        0.33610    0.20586    0.15706    1.000
    C30      C        0.45920    0.17671    0.14632    1.000
    C31      C        0.47350    0.11670    0.10719    1.000
    C32      C        0.36420    0.08592    0.07823    1.000
    C33      C        0.24130    0.11409    0.08928    1.000
    C34      C        0.22680    0.17437    0.12871    1.000
    C35      C        0.38720    0.27385    0.25546    1.000
    C36      C        0.27220    0.45070    0.32542    1.000
    C37      C        0.27540    0.39140    0.28482    1.000
    C38      C        0.37530    0.34309    0.29210    1.000
    C39      C        0.46950    0.35694    0.33923    1.000
    C40      C        0.45860    0.41732    0.37757    1.000
    C41      C        0.60750    0.08722    0.09490    1.000
    C42      C        0.12280    0.07842    0.06030    1.000
    C43      C        0.16390    0.29414    0.65706    1.000
    C44      C        0.04080    0.32329    0.64632    1.000
    C45      C        0.02650    0.38330    0.60719    1.000
    C46      C        0.13580    0.41408    0.57823    1.000
    C47      C        0.25870    0.38591    0.58928    1.000
    C48      C        0.27320    0.32563    0.62871    1.000
    C49      C        0.11280    0.22615    0.75546    1.000
    C50      C        0.22780    0.04930    0.82542    1.000
    C51      C        0.22460    0.10860    0.78482    1.000
    C52      C        0.12470    0.15691    0.79210    1.000
    C53      C        0.03050    0.14306    0.83923    1.000
    C54      C        0.04140    0.08268    0.87757    1.000
    C55      C        0.89250    0.41278    0.59490    1.000
    C56      C        0.37720    0.42158    0.56030    1.000
    N1       N        0.67680    0.73171    0.80321    1.000
    N2       N        0.63890    0.53653    0.62796    1.000
    N3       N        0.82320    0.76829    0.30321    1.000
    N4       N        0.86110    0.96347    0.12796    1.000
    N5       N        0.32320    0.26829    0.19679    1.000
    N6       N        0.36110    0.46347    0.37204    1.000
    N7       N        0.17680    0.23171    0.69679    1.000
    N8       N        0.13890    0.03653    0.87204    1.000
    O1       O        0.54690    0.77427    0.72128    1.000
    O2       O        0.29362    0.88186    0.88084    1.000
    O3       O        0.38140    0.96667    0.94133    1.000
    O4       O        0.98798    0.89646    0.92578    1.000
    O5       O        0.86043    0.97567    0.97465    1.000
    O6       O        0.95310    0.72573    0.22128    1.000
    O7       O        0.20638    0.61814    0.38084    1.000
    O8       O        0.11860    0.53333    0.44133    1.000
    O9       O        0.51202    0.60354    0.42578    1.000
    O10      O        0.63957    0.52433    0.47465    1.000
    O11      O        0.45310    0.22573    0.27872    1.000
    O12      O        0.70638    0.11814    0.11916    1.000
    O13      O        0.61860    0.03333    0.05867    1.000
    O14      O        0.01202    0.10354    0.07422    1.000
    O15      O        0.13957    0.02433    0.02535    1.000
    O16      O        0.04690    0.27427    0.77872    1.000
    O17      O        0.79362    0.38186    0.61916    1.000
    O18      O        0.88140    0.46667    0.55867    1.000
    O19      O        0.48798    0.39646    0.57422    1.000
    O20      O        0.36043    0.47567    0.52535    1.000
    Mn5      Mn       0.16315    0.05031    0.55107    1.000
    Mn6      Mn       0.33685    0.44969    0.05107    1.000
    Mn7      Mn       0.83685    0.94969    0.44893    1.000
    Mn8      Mn       0.66315    0.55031    0.94893    1.000
    H33      H        0.72660    0.30360    0.68320    1.000
    H34      H        0.46610    0.19810    0.66590    1.000
    H35      H        0.62600    0.04530    0.55070    1.000
    H36      H        0.85760    0.19390    0.63620    1.000
    H37      H        0.79680    0.48410    0.81980    1.000
    H38      H        0.79050    0.38420    0.75250    1.000
    H39      H        0.45910    0.32520    0.84510    1.000
    H40      H        0.47570    0.42630    0.90960    1.000
    H41      H        0.77340    0.19640    0.18320    1.000
    H42      H        0.03390    0.30190    0.16590    1.000
    H43      H        0.87400    0.45470    0.05070    1.000
    H44      H        0.64240    0.30610    0.13620    1.000
    H45      H        0.70320    0.01590    0.31980    1.000
    H46      H        0.70950    0.11580    0.25250    1.000
    H47      H        0.04090    0.17480    0.34510    1.000
    H48      H        0.02430    0.07370    0.40960    1.000
    H49      H        0.27340    0.69640    0.31680    1.000
    H50      H        0.53390    0.80190    0.33410    1.000
    H51      H        0.37400    0.95470    0.44930    1.000
    H52      H        0.14240    0.80610    0.36380    1.000
    H53      H        0.20320    0.51590    0.18020    1.000
    H54      H        0.20950    0.61580    0.24750    1.000
    H55      H        0.54090    0.67480    0.15490    1.000
    H56      H        0.52430    0.57370    0.09040    1.000
    H57      H        0.22660    0.80360    0.81680    1.000
    H58      H        0.96610    0.69810    0.83410    1.000
    H59      H        0.12600    0.54530    0.94930    1.000
    H60      H        0.35760    0.69390    0.86380    1.000
    H61      H        0.29680    0.98410    0.68020    1.000
    H62      H        0.29050    0.88420    0.74750    1.000
    H63      H        0.95910    0.82520    0.65490    1.000
    H64      H        0.97570    0.92630    0.59040    1.000
    C57      C        0.66390    0.20586    0.65706    1.000
    C58      C        0.54080    0.17671    0.64632    1.000
    C59      C        0.52650    0.11670    0.60719    1.000
    C60      C        0.63580    0.08592    0.57823    1.000
    C61      C        0.75870    0.11409    0.58928    1.000
    C62      C        0.77320    0.17437    0.62871    1.000
    C63      C        0.61280    0.27385    0.75546    1.000
    C64      C        0.72780    0.45070    0.82542    1.000
    C65      C        0.72460    0.39140    0.78482    1.000
    C66      C        0.62470    0.34309    0.79210    1.000
    C67      C        0.53050    0.35694    0.83923    1.000
    C68      C        0.54140    0.41732    0.87757    1.000
    C69      C        0.39250    0.08722    0.59490    1.000
    C70      C        0.87720    0.07842    0.56030    1.000
    C71      C        0.83610    0.29414    0.15706    1.000
    C72      C        0.95920    0.32329    0.14632    1.000
    C73      C        0.97350    0.38330    0.10719    1.000
    C74      C        0.86420    0.41408    0.07823    1.000
    C75      C        0.74130    0.38591    0.08928    1.000
    C76      C        0.72680    0.32563    0.12871    1.000
    C77      C        0.88720    0.22615    0.25546    1.000
    C78      C        0.77220    0.04930    0.32542    1.000
    C79      C        0.77540    0.10860    0.28482    1.000
    C80      C        0.87530    0.15691    0.29210    1.000
    C81      C        0.96950    0.14306    0.33923    1.000
    C82      C        0.95860    0.08268    0.37757    1.000
    C83      C        0.10750    0.41278    0.09490    1.000
    C84      C        0.62280    0.42158    0.06030    1.000
    C85      C        0.33610    0.79414    0.34294    1.000
    C86      C        0.45920    0.82329    0.35368    1.000
    C87      C        0.47350    0.88330    0.39281    1.000
    C88      C        0.36420    0.91408    0.42177    1.000
    C89      C        0.24130    0.88591    0.41072    1.000
    C90      C        0.22680    0.82563    0.37129    1.000
    C91      C        0.38720    0.72615    0.24454    1.000
    C92      C        0.27220    0.54930    0.17458    1.000
    C93      C        0.27540    0.60860    0.21518    1.000
    C94      C        0.37530    0.65691    0.20790    1.000
    C95      C        0.46950    0.64306    0.16077    1.000
    C96      C        0.45860    0.58268    0.12243    1.000
    C97      C        0.60750    0.91278    0.40510    1.000
    C98      C        0.12280    0.92158    0.43970    1.000
    C99      C        0.16390    0.70586    0.84294    1.000
    C100     C        0.04080    0.67671    0.85368    1.000
    C101     C        0.02650    0.61670    0.89281    1.000
    C102     C        0.13580    0.58592    0.92177    1.000
    C103     C        0.25870    0.61409    0.91072    1.000
    C104     C        0.27320    0.67437    0.87129    1.000
    C105     C        0.11280    0.77385    0.74454    1.000
    C106     C        0.22780    0.95070    0.67458    1.000
    C107     C        0.22460    0.89140    0.71518    1.000
    C108     C        0.12470    0.84309    0.70790    1.000
    C109     C        0.03050    0.85694    0.66077    1.000
    C110     C        0.04140    0.91732    0.62243    1.000
    C111     C        0.89250    0.58722    0.90510    1.000
    C112     C        0.37720    0.57842    0.93970    1.000
    N9       N        0.67680    0.26829    0.69679    1.000
    N10      N        0.63890    0.46347    0.87204    1.000
    N11      N        0.82320    0.23171    0.19679    1.000
    N12      N        0.86110    0.03653    0.37204    1.000
    N13      N        0.32320    0.73171    0.30321    1.000
    N14      N        0.36110    0.53653    0.12796    1.000
    N15      N        0.17680    0.76829    0.80321    1.000
    N16      N        0.13890    0.96347    0.62796    1.000
    O21      O        0.54690    0.22573    0.77872    1.000
    O22      O        0.29362    0.11814    0.61916    1.000
    O23      O        0.38140    0.03333    0.55867    1.000
    O24      O        0.98798    0.10354    0.57422    1.000
    O25      O        0.86043    0.02433    0.52535    1.000
    O26      O        0.95310    0.27427    0.27872    1.000
    O27      O        0.20638    0.38186    0.11916    1.000
    O28      O        0.11860    0.46667    0.05867    1.000
    O29      O        0.51202    0.39646    0.07422    1.000
    O30      O        0.63957    0.47567    0.02535    1.000
    O31      O        0.45310    0.77427    0.22128    1.000
    O32      O        0.70638    0.88186    0.38084    1.000
    O33      O        0.61860    0.96667    0.44133    1.000
    O34      O        0.01202    0.89646    0.42578    1.000
    O35      O        0.13957    0.97567    0.47465    1.000
    O36      O        0.04690    0.72573    0.72128    1.000
    O37      O        0.79362    0.61814    0.88084    1.000
    O38      O        0.88140    0.53333    0.94133    1.000
    O39      O        0.48798    0.60354    0.92578    1.000
    O40      O        0.36043    0.52433    0.97465    1.000
