data_functionalizedCrystal
_audit_creation_method	'EQeq! by Chris Wilmer'
_symmetry_space_group_name_H-M	'P1'
_symmetry_Int_Tables_number	1
_symmetry_cell_setting	triclinic
loop_
_symmetry_equiv_pos_as_xyz
  x,y,z
_cell_length_a	17.5705
_cell_length_b	18.571
_cell_length_c	13.3355
_cell_angle_alpha	90
_cell_angle_beta	90
_cell_angle_gamma	90
loop_
_atom_site_label
_atom_site_type_symbol
_atom_site_fract_x
_atom_site_fract_y
_atom_site_fract_z
_atom_site_charge
Mof_O 	O 	0.13134	0.99228	0.10883	-0.285
Mof_O 	O 	0.01238	0.87461	0.99266	-0.336
Mof_O 	O 	0.90849	0.9834	0.9013	-0.26
Mof_O 	O 	0.01595	0.08692	0.1938	-0.313
Mof_N 	N 	0.18454	0.94226	0.0922	-0.086
Mof_N 	N 	0.96081	0.82292	0.9819	-0.068
Mof_N 	N 	0.9107	0.96309	0.8065	-0.083
Mof_N 	N 	0.03602	0.08558	0.2893	-0.07
Mof_C 	C 	0.2568	0.9636	0.0762	0.165
Mof_H 	H 	0.2688	0.0134	0.0745	-0.042
Mof_C 	C 	0.3128	0.9134	0.0626	-0.17
Mof_H 	H 	0.3639	0.9289	0.0535	0.097
Mof_C 	C 	0.2966	0.841	0.0619	0.074
Mof_C 	C 	0.2207	0.821	0.0786	-0.129
Mof_H 	H 	0.2067	0.7715	0.0786	0.074
Mof_C 	C 	0.167	0.8727	0.0947	0.072
Mof_H 	H 	0.116	0.8587	0.108	0.012
Mof_C 	C 	0.9806	0.7617	0.9355	0.136
Mof_H 	H 	0.0313	0.7558	0.9123	-0.024
Mof_C 	C 	0.929	0.7077	0.9208	-0.151
Mof_H 	H 	0.9444	0.6644	0.8886	0.088
Mof_C 	C 	0.3542	0.7844	0.0473	0.042
Mof_C 	C 	0.3363	0.7214	0.9984	-0.111
Mof_H 	H 	0.2861	0.7148	0.9735	0.065
Mof_C 	C 	0.8891	0.832	0.0154	0.077
Mof_H 	H 	0.8752	0.8754	0.0485	0.014
Mof_C 	C 	0.9667	0.9197	0.7714	0.117
Mof_H 	H 	0.0026	0.8997	0.8168	-0.012
Mof_C 	C 	0.9721	0.9042	0.6713	-0.083
Mof_H 	H 	0.0116	0.8735	0.6483	0.041
Mof_C 	C 	0.9205	0.9327	0.6026	0.09
Mof_C 	C 	0.8604	0.9734	0.6419	-0.159
Mof_H 	H 	0.8218	0.9912	0.5984	0.098
Mof_C 	C 	0.8565	0.988	0.7431	0.145
Mof_H 	H 	0.8155	0.0158	0.7687	-0.031
Mof_C 	C 	0.0056	0.13343	0.3527	0.012
Mof_H 	H 	0.9729	0.1701	0.3278	0.067
Mof_C 	C 	0.0212	0.1299	0.4537	-0.192
Mof_H 	H 	0.9994	0.1645	0.4976	0.119
Mof_C 	C 	0.9311	0.9238	0.493	-0.013
Mof_C 	C 	0.8978	0.9698	0.4241	0.018
Mof_H 	H 	0.863	0.0055	0.4467	-0.001
Mof_C 	C 	0.0859	0.0352	0.3231	0.089
Mof_H 	H 	0.1095	0.0032	0.277	-0.007
Mof_O 	O 	0.86866	0.00772	0.10883	-0.33
Mof_O 	O 	0.98762	0.12539	0.99266	-0.296
Mof_O 	O 	0.09151	0.0166	0.9013	-0.322
Mof_O 	O 	0.98405	0.91308	0.1938	-0.246
Mof_N 	N 	0.81546	0.05774	0.0922	-0.047
Mof_N 	N 	0.03919	0.17708	0.9819	-0.065
Mof_N 	N 	0.0893	0.03691	0.8065	-0.036
Mof_N 	N 	0.96398	0.91442	0.2893	-0.054
Mof_C 	C 	0.7432	0.0364	0.0762	-0.044
Mof_H 	H 	0.7312	0.9866	0.0745	0.089
Mof_C 	C 	0.6872	0.0866	0.0626	-0.051
Mof_H 	H 	0.6361	0.0711	0.0535	0.037
Mof_C 	C 	0.7034	0.159	0.0619	0.007
Mof_C 	C 	0.7793	0.179	0.0786	-0.079
Mof_H 	H 	0.7933	0.2285	0.0786	0.063
Mof_C 	C 	0.833	0.1273	0.0947	0.03
Mof_H 	H 	0.884	0.1413	0.108	0.036
Mof_C 	C 	0.0194	0.2383	0.9355	-0.033
Mof_H 	H 	0.9687	0.2442	0.9123	0.075
Mof_C 	C 	0.071	0.2923	0.9208	-0.064
Mof_H 	H 	0.0556	0.3356	0.8886	0.04
Mof_C 	C 	0.6458	0.2156	0.0473	0.071
Mof_C 	C 	0.6637	0.2786	0.9984	-0.13
Mof_H 	H 	0.7139	0.2852	0.9735	0.074
Mof_C 	C 	0.1109	0.168	0.0154	0.047
Mof_H 	H 	0.1248	0.1246	0.0485	0.003
Mof_C 	C 	0.0333	0.0803	0.7714	-0.025
Mof_H 	H 	0.9974	0.1003	0.8168	0.071
Mof_C 	C 	0.0279	0.0958	0.6713	-0.121
Mof_H 	H 	0.9884	0.1265	0.6483	0.09
Mof_C 	C 	0.0795	0.0673	0.6026	-0.012
Mof_C 	C 	0.1396	0.0266	0.6419	-0.044
Mof_H 	H 	0.1782	0.0088	0.5984	0.026
Mof_C 	C 	0.1435	0.012	0.7431	-0.058
Mof_H 	H 	0.1845	0.9842	0.7687	0.092
Mof_C 	C 	0.9944	0.86657	0.3527	0.088
Mof_H 	H 	0.0271	0.8299	0.3278	-0.009
Mof_C 	C 	0.9788	0.8701	0.4537	-0.025
Mof_H 	H 	0.0006	0.8355	0.4976	0.014
Mof_C 	C 	0.0689	0.0762	0.493	0.101
Mof_C 	C 	0.1022	0.0302	0.4241	-0.227
Mof_H 	H 	0.137	0.9945	0.4467	0.135
Mof_C 	C 	0.9141	0.9648	0.3231	0.008
Mof_H 	H 	0.8905	0.9968	0.277	0.069
Mof_O 	O 	0.36866	0.49228	0.89117	-0.336
Mof_O 	O 	0.48762	0.37461	0.00734	-0.336
Mof_O 	O 	0.59151	0.4834	0.0987	-0.305
Mof_O 	O 	0.48405	0.58692	0.8062	-0.301
Mof_N 	N 	0.31546	0.44226	0.9078	-0.067
Mof_N 	N 	0.53919	0.32292	0.0181	-0.063
Mof_N 	N 	0.5893	0.46309	0.1935	-0.059
Mof_N 	N 	0.46398	0.58558	0.7107	-0.06
Mof_C 	C 	0.2432	0.4636	0.9238	0.058
Mof_H 	H 	0.2312	0.5134	0.9255	0.02
Mof_C 	C 	0.1872	0.4134	0.9374	-0.12
Mof_H 	H 	0.1361	0.4289	0.9465	0.063
Mof_C 	C 	0.2034	0.341	0.9381	0.052
Mof_C 	C 	0.2793	0.321	0.9214	-0.113
Mof_H 	H 	0.2933	0.2715	0.9214	0.066
Mof_C 	C 	0.333	0.3727	0.9053	0.05
Mof_H 	H 	0.384	0.3587	0.892	0.016
Mof_C 	C 	0.5194	0.2617	0.0645	0.064
Mof_H 	H 	0.4687	0.2558	0.0877	0.02
Mof_C 	C 	0.571	0.2077	0.0792	-0.127
Mof_H 	H 	0.5556	0.1644	0.1114	0.067
Mof_C 	C 	0.1458	0.2844	0.9527	0.017
Mof_C 	C 	0.1637	0.2214	0.0016	-0.09
Mof_H 	H 	0.2139	0.2148	0.0265	0.06
Mof_C 	C 	0.6109	0.332	0.9846	0.061
Mof_H 	H 	0.6248	0.3754	0.9515	0.001
Mof_C 	C 	0.5333	0.4197	0.2286	0.049
Mof_H 	H 	0.4974	0.3997	0.1832	0.024
Mof_C 	C 	0.5279	0.4042	0.3287	-0.101
Mof_H 	H 	0.4884	0.3735	0.3517	0.063
Mof_C 	C 	0.5795	0.4327	0.3974	0.041
Mof_C 	C 	0.6396	0.4734	0.3581	-0.103
Mof_H 	H 	0.6782	0.4912	0.4016	0.066
Mof_C 	C 	0.6435	0.488	0.2569	0.048
Mof_H 	H 	0.6845	0.5158	0.2313	0.032
Mof_C 	C 	0.4944	0.63343	0.6473	0.05
Mof_H 	H 	0.5271	0.6701	0.6722	0.029
Mof_C 	C 	0.4788	0.6299	0.5463	-0.104
Mof_H 	H 	0.5006	0.6645	0.5024	0.065
Mof_C 	C 	0.5689	0.4238	0.507	0.041
Mof_C 	C 	0.6022	0.4698	0.5759	-0.099
Mof_H 	H 	0.637	0.5055	0.5533	0.065
Mof_C 	C 	0.4141	0.5352	0.6769	0.044
Mof_H 	H 	0.3905	0.5032	0.723	0.03
Mof_O 	O 	0.63134	0.50772	0.89117	-0.335
Mof_O 	O 	0.51238	0.62539	0.00734	-0.334
Mof_O 	O 	0.40849	0.5166	0.0987	-0.307
Mof_O 	O 	0.51595	0.41308	0.8062	-0.302
Mof_N 	N 	0.68454	0.55774	0.9078	-0.065
Mof_N 	N 	0.46081	0.67708	0.0181	-0.059
Mof_N 	N 	0.4107	0.53691	0.1935	-0.06
Mof_N 	N 	0.53602	0.41442	0.7107	-0.06
Mof_C 	C 	0.7568	0.5364	0.9238	0.057
Mof_H 	H 	0.7688	0.4866	0.9255	0.026
Mof_C 	C 	0.8128	0.5866	0.9374	-0.109
Mof_H 	H 	0.8639	0.5711	0.9465	0.069
Mof_C 	C 	0.7966	0.659	0.9381	0.038
Mof_C 	C 	0.7207	0.679	0.9214	-0.104
Mof_H 	H 	0.7067	0.7285	0.9214	0.066
Mof_C 	C 	0.667	0.6273	0.9053	0.048
Mof_H 	H 	0.616	0.6413	0.892	0.019
Mof_C 	C 	0.4806	0.7383	0.0645	0.057
Mof_H 	H 	0.5313	0.7442	0.0877	0.027
Mof_C 	C 	0.429	0.7923	0.0792	-0.107
Mof_H 	H 	0.4444	0.8356	0.1114	0.069
Mof_C 	C 	0.8542	0.7156	0.9527	0.056
Mof_C 	C 	0.8363	0.7786	0.0016	-0.108
Mof_H 	H 	0.7861	0.7852	0.0265	0.074
Mof_C 	C 	0.3891	0.668	0.9846	0.051
Mof_H 	H 	0.3752	0.6246	0.9515	0.003
Mof_C 	C 	0.4667	0.5803	0.2286	0.049
Mof_H 	H 	0.5026	0.6003	0.1832	0.025
Mof_C 	C 	0.4721	0.5958	0.3287	-0.102
Mof_H 	H 	0.5116	0.6265	0.3517	0.066
Mof_C 	C 	0.4205	0.5673	0.3974	0.041
Mof_C 	C 	0.3604	0.5266	0.3581	-0.104
Mof_H 	H 	0.3218	0.5088	0.4016	0.061
Mof_C 	C 	0.3565	0.512	0.2569	0.047
Mof_H 	H 	0.3155	0.4842	0.2313	0.027
Mof_C 	C 	0.5056	0.36657	0.6473	0.05
Mof_H 	H 	0.4729	0.3299	0.6722	0.025
Mof_C 	C 	0.5212	0.3701	0.5463	-0.105
Mof_H 	H 	0.4994	0.3355	0.5024	0.062
Mof_C 	C 	0.4311	0.5762	0.507	0.041
Mof_C 	C 	0.3978	0.5302	0.5759	-0.099
Mof_H 	H 	0.363	0.4945	0.5533	0.062
Mof_C 	C 	0.5859	0.4648	0.6769	0.045
Mof_H 	H 	0.6095	0.4968	0.723	0.031
Mof_La	La	-2.30311e-34	0	0.04648	1.97
Mof_La	La	0.5	0.5	0.95352	2.186
_end
