data_functionalizedCrystal
_audit_creation_method	'EQeq! by Chris Wilmer'
_symmetry_space_group_name_H-M	'P1'
_symmetry_Int_Tables_number	1
_symmetry_cell_setting	triclinic
loop_
_symmetry_equiv_pos_as_xyz
  x,y,z
_cell_length_a	24.313
_cell_length_b	24.313
_cell_length_c	13.184
_cell_angle_alpha	90
_cell_angle_beta	90
_cell_angle_gamma	120
loop_
_atom_site_label
_atom_site_type_symbol
_atom_site_fract_x
_atom_site_fract_y
_atom_site_fract_z
_atom_site_charge
Mof_O 	O 	0.7674	0.0383	0.1053	-0.487
Mof_O 	O 	0.7192	0.0724	0.9974	-0.535
Mof_O 	O 	0.9992	0.5715	0.085	-0.532
Mof_C 	C 	0.9424	0.2557	0.0132	0.222
Mof_C 	C 	0.8868	0.2505	0.9743	-0.247
Mof_H 	H 	0.8878	0.2852	0.9427	0.124
Mof_C 	C 	0.8298	0.1935	0.9826	0.158
Mof_H 	H 	0.7927	0.1901	0.9566	-0.031
Mof_C 	C 	0.8284	0.1417	0.0298	-0.207
Mof_C 	C 	0.884	0.1469	0.0687	0.138
Mof_H 	H 	0.883	0.1122	0.1003	-0.009
Mof_C 	C 	0.9409	0.2039	0.0604	-0.245
Mof_H 	H 	0.9781	0.2074	0.0863	0.125
Mof_C 	C 	0.7705	0.0791	0.0459	0.378
Mof_C 	C 	0.9729	0.3851	0.0755	-0.235
Mof_H 	H 	0.9536	0.3567	0.1287	0.122
Mof_C 	C 	0.9728	0.4424	0.0768	0.206
Mof_H 	H 	0.9537	0.4507	0.1311	-0.029
Mof_O 	O 	0.43407	0.37163	0.43863	-0.465
Mof_O 	O 	0.38587	0.40573	0.33073	-0.533
Mof_O 	O 	0.66587	0.90483	0.41833	-0.573
Mof_C 	C 	0.60907	0.58903	0.34653	0.185
Mof_C 	C 	0.55347	0.58383	0.30763	-0.228
Mof_H 	H 	0.55447	0.61853	0.27603	0.11
Mof_C 	C 	0.49647	0.52683	0.31593	0.135
Mof_H 	H 	0.45937	0.52343	0.28993	-0.025
Mof_C 	C 	0.49507	0.47503	0.36313	-0.188
Mof_C 	C 	0.55067	0.48023	0.40203	0.117
Mof_H 	H 	0.54967	0.44553	0.43363	-0.001
Mof_C 	C 	0.60757	0.53723	0.39373	-0.221
Mof_H 	H 	0.64477	0.54073	0.41963	0.105
Mof_C 	C 	0.43717	0.41243	0.37923	0.378
Mof_C 	C 	0.63957	0.71843	0.40883	-0.295
Mof_H 	H 	0.62027	0.69003	0.46203	0.136
Mof_C 	C 	0.63947	0.77573	0.41013	0.186
Mof_H 	H 	0.62037	0.78403	0.46443	-0.029
Mof_O 	O 	0.10073	0.70497	0.77197	-0.477
Mof_O 	O 	0.05253	0.73907	0.66407	-0.541
Mof_O 	O 	0.33253	0.23817	0.75167	-0.592
Mof_C 	C 	0.27573	0.92237	0.67987	0.191
Mof_C 	C 	0.22013	0.91717	0.64097	-0.229
Mof_H 	H 	0.22113	0.95187	0.60937	0.12
Mof_C 	C 	0.16313	0.86017	0.64927	0.138
Mof_H 	H 	0.12603	0.85677	0.62327	-0.025
Mof_C 	C 	0.16173	0.80837	0.69647	-0.189
Mof_C 	C 	0.21733	0.81357	0.73537	0.12
Mof_H 	H 	0.21633	0.77887	0.76697	-0
Mof_C 	C 	0.27423	0.87057	0.72707	-0.223
Mof_H 	H 	0.31143	0.87407	0.75297	0.108
Mof_C 	C 	0.10383	0.74577	0.71257	0.379
Mof_C 	C 	0.30623	0.05177	0.74217	-0.267
Mof_H 	H 	0.28693	0.02337	0.79537	0.113
Mof_C 	C 	0.30613	0.10907	0.74347	0.162
Mof_H 	H 	0.28703	0.11737	0.79777	-0.025
Mof_O 	O 	0.9617	0.7291	0.1053	-0.438
Mof_O 	O 	0.9276	0.6468	0.9974	-0.52
Mof_O 	O 	0.4285	0.4277	0.085	-0.591
Mof_C 	C 	0.7443	0.6867	0.0132	0.173
Mof_C 	C 	0.7495	0.6363	0.9743	-0.216
Mof_H 	H 	0.7148	0.6026	0.9427	0.108
Mof_C 	C 	0.8065	0.6363	0.9826	0.139
Mof_H 	H 	0.8099	0.6026	0.9566	-0.025
Mof_C 	C 	0.8583	0.6867	0.0298	-0.191
Mof_C 	C 	0.8531	0.7371	0.0687	0.115
Mof_H 	H 	0.8878	0.7708	0.1003	0.006
Mof_C 	C 	0.7961	0.737	0.0604	-0.216
Mof_H 	H 	0.7926	0.7707	0.0863	0.105
Mof_C 	C 	0.9209	0.6914	0.0459	0.372
Mof_C 	C 	0.6149	0.5878	0.0755	-0.293
Mof_H 	H 	0.6433	0.5969	0.1287	0.134
Mof_C 	C 	0.5576	0.5304	0.0768	0.184
Mof_H 	H 	0.5493	0.503	0.1311	-0.03
Mof_O 	O 	0.62837	0.06243	0.43863	-0.457
Mof_O 	O 	0.59427	0.98013	0.33073	-0.507
Mof_O 	O 	0.09517	0.76103	0.41833	-0.584
Mof_C 	C 	0.41097	0.02003	0.34653	0.148
Mof_C 	C 	0.41617	0.96963	0.30763	-0.191
Mof_H 	H 	0.38147	0.93593	0.27603	0.103
Mof_C 	C 	0.47317	0.96963	0.31593	0.167
Mof_H 	H 	0.47657	0.93593	0.28993	-0.031
Mof_C 	C 	0.52497	0.02003	0.36313	-0.219
Mof_C 	C 	0.51977	0.07043	0.40203	0.118
Mof_H 	H 	0.55447	0.10413	0.43363	-0.002
Mof_C 	C 	0.46277	0.07033	0.39373	-0.214
Mof_H 	H 	0.45927	0.10403	0.41963	0.103
Mof_C 	C 	0.58757	0.02473	0.37923	0.352
Mof_C 	C 	0.28157	0.92113	0.40883	-0.326
Mof_H 	H 	0.30997	0.93023	0.46203	0.152
Mof_C 	C 	0.22427	0.86373	0.41013	0.209
Mof_H 	H 	0.21597	0.83633	0.46443	-0.037
Mof_O 	O 	0.29503	0.39577	0.77197	-0.464
Mof_O 	O 	0.26093	0.31347	0.66407	-0.535
Mof_O 	O 	0.76183	0.09437	0.75167	-0.585
Mof_C 	C 	0.07763	0.35337	0.67987	0.181
Mof_C 	C 	0.08283	0.30297	0.64097	-0.228
Mof_H 	H 	0.04813	0.26927	0.60937	0.1
Mof_C 	C 	0.13983	0.30297	0.64927	0.133
Mof_H 	H 	0.14323	0.26927	0.62327	-0.028
Mof_C 	C 	0.19163	0.35337	0.69647	-0.188
Mof_C 	C 	0.18643	0.40377	0.73537	0.116
Mof_H 	H 	0.22113	0.43747	0.76697	0.001
Mof_C 	C 	0.12943	0.40367	0.72707	-0.219
Mof_H 	H 	0.12593	0.43737	0.75297	0.106
Mof_C 	C 	0.25423	0.35807	0.71257	0.378
Mof_C 	C 	0.94823	0.25447	0.74217	-0.327
Mof_H 	H 	0.97663	0.26357	0.79537	0.16
Mof_C 	C 	0.89093	0.19707	0.74347	0.211
Mof_H 	H 	0.88263	0.16967	0.79777	-0.037
Mof_O 	O 	0.2709	0.2326	0.1053	-0.467
Mof_O 	O 	0.3532	0.2808	0.9974	-0.526
Mof_O 	O 	0.5723	0.0008	0.085	-0.604
Mof_C 	C 	0.3133	0.0576	0.0132	0.168
Mof_C 	C 	0.3637	0.1132	0.9743	-0.215
Mof_H 	H 	0.3974	0.1122	0.9427	0.107
Mof_C 	C 	0.3637	0.1702	0.9826	0.139
Mof_H 	H 	0.3974	0.2073	0.9566	-0.024
Mof_C 	C 	0.3133	0.1716	0.0298	-0.195
Mof_C 	C 	0.2629	0.116	0.0687	0.113
Mof_H 	H 	0.2292	0.117	0.1003	-0.006
Mof_C 	C 	0.263	0.0591	0.0604	-0.221
Mof_H 	H 	0.2293	0.0219	0.0863	0.089
Mof_C 	C 	0.3086	0.2295	0.0459	0.37
Mof_C 	C 	0.4122	0.0271	0.0755	-0.277
Mof_H 	H 	0.4031	0.0464	0.1287	0.125
Mof_C 	C 	0.4696	0.0272	0.0768	0.171
Mof_H 	H 	0.497	0.0463	0.1311	-0.029
Mof_O 	O 	0.93757	0.56593	0.43863	-0.453
Mof_O 	O 	0.01987	0.61413	0.33073	-0.55
Mof_O 	O 	0.23897	0.33413	0.41833	-0.592
Mof_C 	C 	0.97997	0.39093	0.34653	0.226
Mof_C 	C 	0.03037	0.44653	0.30763	-0.267
Mof_H 	H 	0.06407	0.44553	0.27603	0.118
Mof_C 	C 	0.03037	0.50353	0.31593	0.101
Mof_H 	H 	0.06407	0.54063	0.28993	-0.018
Mof_C 	C 	0.97997	0.50493	0.36313	-0.153
Mof_C 	C 	0.92957	0.44933	0.40203	0.116
Mof_H 	H 	0.89587	0.45033	0.43363	0.001
Mof_C 	C 	0.92967	0.39243	0.39373	-0.228
Mof_H 	H 	0.89597	0.35523	0.41963	0.108
Mof_C 	C 	0.97527	0.56283	0.37923	0.404
Mof_C 	C 	0.07887	0.36043	0.40883	-0.268
Mof_H 	H 	0.06977	0.37973	0.46203	0.12
Mof_C 	C 	0.13627	0.36053	0.41013	0.164
Mof_H 	H 	0.16367	0.37963	0.46443	-0.023
Mof_O 	O 	0.60423	0.89927	0.77197	-0.446
Mof_O 	O 	0.68653	0.94747	0.66407	-0.502
Mof_O 	O 	0.90563	0.66747	0.75167	-0.594
Mof_C 	C 	0.64663	0.72427	0.67987	0.183
Mof_C 	C 	0.69703	0.77987	0.64097	-0.223
Mof_H 	H 	0.73073	0.77887	0.60937	0.112
Mof_C 	C 	0.69703	0.83687	0.64927	0.129
Mof_H 	H 	0.73073	0.87397	0.62327	-0.015
Mof_C 	C 	0.64663	0.83827	0.69647	-0.18
Mof_C 	C 	0.59623	0.78267	0.73537	0.112
Mof_H 	H 	0.56253	0.78367	0.76697	0.002
Mof_C 	C 	0.59633	0.72577	0.72707	-0.217
Mof_H 	H 	0.56263	0.68857	0.75297	0.105
Mof_C 	C 	0.64193	0.89617	0.71257	0.371
Mof_C 	C 	0.74553	0.69377	0.74217	-0.294
Mof_H 	H 	0.73643	0.71307	0.79537	0.137
Mof_C 	C 	0.80293	0.69387	0.74347	0.186
Mof_H 	H 	0.83033	0.71297	0.79777	-0.026
Mof_O 	O 	0.0383	0.7674	0.8947	-0.487
Mof_O 	O 	0.0724	0.7192	0.0026	-0.551
Mof_O 	O 	0.5715	0.9992	0.915	-0.53
Mof_C 	C 	0.2557	0.9424	0.9868	0.249
Mof_C 	C 	0.2505	0.8868	0.0257	-0.272
Mof_H 	H 	0.2852	0.8878	0.0573	0.128
Mof_C 	C 	0.1935	0.8298	0.0174	0.146
Mof_H 	H 	0.1901	0.7927	0.0434	-0.03
Mof_C 	C 	0.1417	0.8284	0.9702	-0.194
Mof_C 	C 	0.1469	0.884	0.9313	0.142
Mof_H 	H 	0.1122	0.883	0.8997	-0.008
Mof_C 	C 	0.2039	0.9409	0.9396	-0.251
Mof_H 	H 	0.2074	0.9781	0.9137	0.131
Mof_C 	C 	0.0791	0.7705	0.9541	0.394
Mof_C 	C 	0.3851	0.9729	0.9245	-0.232
Mof_H 	H 	0.3567	0.9536	0.8713	0.122
Mof_C 	C 	0.4424	0.9728	0.9232	0.212
Mof_H 	H 	0.4507	0.9537	0.8689	-0.029
Mof_O 	O 	0.70497	0.10073	0.22803	-0.479
Mof_O 	O 	0.73907	0.05253	0.33593	-0.541
Mof_O 	O 	0.23817	0.33253	0.24833	-0.592
Mof_C 	C 	0.92237	0.27573	0.32013	0.192
Mof_C 	C 	0.91717	0.22013	0.35903	-0.229
Mof_H 	H 	0.95187	0.22113	0.39063	0.12
Mof_C 	C 	0.86017	0.16313	0.35073	0.139
Mof_H 	H 	0.85677	0.12603	0.37673	-0.026
Mof_C 	C 	0.80837	0.16173	0.30353	-0.19
Mof_C 	C 	0.81357	0.21733	0.26463	0.12
Mof_H 	H 	0.77887	0.21633	0.23303	-0.002
Mof_C 	C 	0.87057	0.27423	0.27293	-0.224
Mof_H 	H 	0.87407	0.31143	0.24703	0.107
Mof_C 	C 	0.74577	0.10383	0.28743	0.38
Mof_C 	C 	0.05177	0.30623	0.25783	-0.267
Mof_H 	H 	0.02337	0.28693	0.20463	0.112
Mof_C 	C 	0.10907	0.30613	0.25653	0.162
Mof_H 	H 	0.11737	0.28703	0.20223	-0.027
Mof_O 	O 	0.37163	0.43407	0.56137	-0.465
Mof_O 	O 	0.40573	0.38587	0.66927	-0.534
Mof_O 	O 	0.90483	0.66587	0.58167	-0.573
Mof_C 	C 	0.58903	0.60907	0.65347	0.185
Mof_C 	C 	0.58383	0.55347	0.69237	-0.228
Mof_H 	H 	0.61853	0.55447	0.72397	0.111
Mof_C 	C 	0.52683	0.49647	0.68407	0.135
Mof_H 	H 	0.52343	0.45937	0.71007	-0.024
Mof_C 	C 	0.47503	0.49507	0.63687	-0.188
Mof_C 	C 	0.48023	0.55067	0.59797	0.118
Mof_H 	H 	0.44553	0.54967	0.56637	-0.001
Mof_C 	C 	0.53723	0.60757	0.60627	-0.221
Mof_H 	H 	0.54073	0.64477	0.58037	0.105
Mof_C 	C 	0.41243	0.43717	0.62077	0.378
Mof_C 	C 	0.71843	0.63957	0.59117	-0.295
Mof_H 	H 	0.69003	0.62027	0.53797	0.136
Mof_C 	C 	0.77573	0.63947	0.58987	0.186
Mof_H 	H 	0.78403	0.62037	0.53557	-0.029
Mof_O 	O 	0.7291	0.9617	0.8947	-0.44
Mof_O 	O 	0.6468	0.9276	0.0026	-0.537
Mof_O 	O 	0.4277	0.4285	0.915	-0.584
Mof_C 	C 	0.6867	0.7443	0.9868	0.203
Mof_C 	C 	0.6363	0.7495	0.0257	-0.242
Mof_H 	H 	0.6026	0.7148	0.0573	0.113
Mof_C 	C 	0.6363	0.8065	0.0174	0.128
Mof_H 	H 	0.6026	0.8099	0.0434	-0.025
Mof_C 	C 	0.6867	0.8583	0.9702	-0.178
Mof_C 	C 	0.7371	0.8531	0.9313	0.12
Mof_H 	H 	0.7708	0.8878	0.8997	0.006
Mof_C 	C 	0.737	0.7961	0.9396	-0.225
Mof_H 	H 	0.7707	0.7926	0.9137	0.112
Mof_C 	C 	0.6914	0.9209	0.9541	0.387
Mof_C 	C 	0.5878	0.6149	0.9245	-0.284
Mof_H 	H 	0.5969	0.6433	0.8713	0.133
Mof_C 	C 	0.5304	0.5576	0.9232	0.193
Mof_H 	H 	0.503	0.5493	0.8689	-0.031
Mof_O 	O 	0.39577	0.29503	0.22803	-0.466
Mof_O 	O 	0.31347	0.26093	0.33593	-0.535
Mof_O 	O 	0.09437	0.76183	0.24833	-0.585
Mof_C 	C 	0.35337	0.07763	0.32013	0.181
Mof_C 	C 	0.30297	0.08283	0.35903	-0.229
Mof_H 	H 	0.26927	0.04813	0.39063	0.1
Mof_C 	C 	0.30297	0.13983	0.35073	0.133
Mof_H 	H 	0.26927	0.14323	0.37673	-0.028
Mof_C 	C 	0.35337	0.19163	0.30353	-0.189
Mof_C 	C 	0.40377	0.18643	0.26463	0.116
Mof_H 	H 	0.43747	0.22113	0.23303	-0.002
Mof_C 	C 	0.40367	0.12943	0.27293	-0.22
Mof_H 	H 	0.43737	0.12593	0.24703	0.105
Mof_C 	C 	0.35807	0.25423	0.28743	0.378
Mof_C 	C 	0.25447	0.94823	0.25783	-0.328
Mof_H 	H 	0.26357	0.97663	0.20463	0.159
Mof_C 	C 	0.19707	0.89093	0.25653	0.211
Mof_H 	H 	0.16967	0.88263	0.20223	-0.039
Mof_O 	O 	0.06243	0.62837	0.56137	-0.457
Mof_O 	O 	0.98013	0.59427	0.66927	-0.507
Mof_O 	O 	0.76103	0.09517	0.58167	-0.585
Mof_C 	C 	0.02003	0.41097	0.65347	0.148
Mof_C 	C 	0.96963	0.41617	0.69237	-0.191
Mof_H 	H 	0.93593	0.38147	0.72397	0.103
Mof_C 	C 	0.96963	0.47317	0.68407	0.167
Mof_H 	H 	0.93593	0.47657	0.71007	-0.03
Mof_C 	C 	0.02003	0.52497	0.63687	-0.219
Mof_C 	C 	0.07043	0.51977	0.59797	0.118
Mof_H 	H 	0.10413	0.55447	0.56637	-0.002
Mof_C 	C 	0.07033	0.46277	0.60627	-0.214
Mof_H 	H 	0.10403	0.45927	0.58037	0.103
Mof_C 	C 	0.02473	0.58757	0.62077	0.352
Mof_C 	C 	0.92113	0.28157	0.59117	-0.326
Mof_H 	H 	0.93023	0.30997	0.53797	0.152
Mof_C 	C 	0.86373	0.22427	0.58987	0.209
Mof_H 	H 	0.83633	0.21597	0.53557	-0.037
Mof_O 	O 	0.2326	0.2709	0.8947	-0.468
Mof_O 	O 	0.2808	0.3532	0.0026	-0.543
Mof_O 	O 	0.0008	0.5723	0.915	-0.594
Mof_C 	C 	0.0576	0.3133	0.9868	0.2
Mof_C 	C 	0.1132	0.3637	0.0257	-0.243
Mof_H 	H 	0.1122	0.3974	0.0573	0.112
Mof_C 	C 	0.1702	0.3637	0.0174	0.128
Mof_H 	H 	0.2073	0.3974	0.0434	-0.025
Mof_C 	C 	0.1716	0.3133	0.9702	-0.183
Mof_C 	C 	0.116	0.2629	0.9313	0.118
Mof_H 	H 	0.117	0.2292	0.8997	-0.006
Mof_C 	C 	0.0591	0.263	0.9396	-0.231
Mof_H 	H 	0.0219	0.2293	0.9137	0.096
Mof_C 	C 	0.2295	0.3086	0.9541	0.386
Mof_C 	C 	0.0271	0.4122	0.9245	-0.264
Mof_H 	H 	0.0464	0.4031	0.8713	0.123
Mof_C 	C 	0.0272	0.4696	0.9232	0.181
Mof_H 	H 	0.0463	0.497	0.8689	-0.03
Mof_O 	O 	0.89927	0.60423	0.22803	-0.448
Mof_O 	O 	0.94747	0.68653	0.33593	-0.502
Mof_O 	O 	0.66747	0.90563	0.24833	-0.594
Mof_C 	C 	0.72427	0.64663	0.32013	0.183
Mof_C 	C 	0.77987	0.69703	0.35903	-0.223
Mof_H 	H 	0.77887	0.73073	0.39063	0.112
Mof_C 	C 	0.83687	0.69703	0.35073	0.13
Mof_H 	H 	0.87397	0.73073	0.37673	-0.016
Mof_C 	C 	0.83827	0.64663	0.30353	-0.181
Mof_C 	C 	0.78267	0.59623	0.26463	0.113
Mof_H 	H 	0.78367	0.56253	0.23303	0
Mof_C 	C 	0.72577	0.59633	0.27293	-0.218
Mof_H 	H 	0.68857	0.56263	0.24703	0.104
Mof_C 	C 	0.89617	0.64193	0.28743	0.372
Mof_C 	C 	0.69377	0.74553	0.25783	-0.295
Mof_H 	H 	0.71307	0.73643	0.20463	0.136
Mof_C 	C 	0.69387	0.80293	0.25653	0.187
Mof_H 	H 	0.71297	0.83033	0.20223	-0.028
Mof_O 	O 	0.56593	0.93757	0.56137	-0.454
Mof_O 	O 	0.61413	0.01987	0.66927	-0.551
Mof_O 	O 	0.33413	0.23897	0.58167	-0.592
Mof_C 	C 	0.39093	0.97997	0.65347	0.226
Mof_C 	C 	0.44653	0.03037	0.69237	-0.266
Mof_H 	H 	0.44553	0.06407	0.72397	0.119
Mof_C 	C 	0.50353	0.03037	0.68407	0.102
Mof_H 	H 	0.54063	0.06407	0.71007	-0.018
Mof_C 	C 	0.50493	0.97997	0.63687	-0.154
Mof_C 	C 	0.44933	0.92957	0.59797	0.117
Mof_H 	H 	0.45033	0.89587	0.56637	0.001
Mof_C 	C 	0.39243	0.92967	0.60627	-0.228
Mof_H 	H 	0.35523	0.89597	0.58037	0.108
Mof_C 	C 	0.56283	0.97527	0.62077	0.404
Mof_C 	C 	0.36043	0.07887	0.59117	-0.267
Mof_H 	H 	0.37973	0.06977	0.53797	0.12
Mof_C 	C 	0.36053	0.13627	0.58987	0.164
Mof_H 	H 	0.37963	0.16367	0.53557	-0.023
Mof_La	La	0.65366	0.98699	0.16667	2.21
Mof_La	La	0.32032	0.32032	0.5	2.12
Mof_La	La	0.01301	0.66667	0.16667	2.017
Mof_La	La	0.67967	0	0.5	2.036
Mof_La	La	0.33333	0.34634	0.16667	2.117
Mof_La	La	-3.32039e-17	0.67968	0.5	2.035
Mof_La	La	0.98699	0.65366	0.83333	2.221
Mof_La	La	0.66667	0.01301	0.83333	2.029
Mof_La	La	0.34634	0.33333	0.83333	2.128
Mof_N 	N 	-0	0.3136	-0	-0.237
Mof_C 	C 	-0	0.3693	-0	0.188
Mof_C 	C 	-0	0.4878	-0	-0.295
Mof_C 	C 	-3.36888e-17	0.5506	-0	0.499
Mof_N 	N 	0.66667	0.64693	0.33333	-0.221
Mof_C 	C 	0.66667	0.70263	0.33333	0.258
Mof_C 	C 	0.66667	0.82113	0.33333	-0.263
Mof_C 	C 	0.66667	0.88393	0.33333	0.557
Mof_N 	N 	0.33333	0.98027	0.66667	-0.204
Mof_C 	C 	0.33333	0.03597	0.66667	0.207
Mof_C 	C 	0.33333	0.15447	0.66667	-0.252
Mof_C 	C 	0.33333	0.21727	0.66667	0.551
Mof_N 	N 	0.6864	0.6864	-0	-0.224
Mof_C 	C 	0.6307	0.6307	-0	0.245
Mof_C 	C 	0.5122	0.5122	-0	-0.272
Mof_C 	C 	0.4494	0.4494	-0	0.547
Mof_N 	N 	0.35307	0.01973	0.33333	-0.237
Mof_C 	C 	0.29737	0.96403	0.33333	0.309
Mof_C 	C 	0.17887	0.84553	0.33333	-0.279
Mof_C 	C 	0.11607	0.78273	0.33333	0.555
Mof_N 	N 	0.01973	0.35307	0.66667	-0.237
Mof_C 	C 	0.96403	0.29737	0.66667	0.309
Mof_C 	C 	0.84553	0.17887	0.66667	-0.279
Mof_C 	C 	0.78273	0.11607	0.66667	0.556
Mof_N 	N 	0.3136	0	-0	-0.236
Mof_C 	C 	0.3693	0	-0	0.196
Mof_C 	C 	0.4878	0	-0	-0.291
Mof_C 	C 	0.5506	0	-0	0.508
Mof_N 	N 	0.98027	0.33333	0.33333	-0.204
Mof_C 	C 	0.03597	0.33333	0.33333	0.207
Mof_C 	C 	0.15447	0.33333	0.33333	-0.253
Mof_C 	C 	0.21727	0.33333	0.33333	0.551
Mof_N 	N 	0.64693	0.66667	0.66667	-0.22
Mof_C 	C 	0.70263	0.66667	0.66667	0.258
Mof_C 	C 	0.82113	0.66667	0.66667	-0.262
Mof_C 	C 	0.88393	0.66667	0.66667	0.557
_end
