data_functionalizedCrystal
_audit_creation_method	'EQeq! by Chris Wilmer'
_symmetry_space_group_name_H-M	'P1'
_symmetry_Int_Tables_number	1
_symmetry_cell_setting	triclinic
loop_
_symmetry_equiv_pos_as_xyz
  x,y,z
_cell_length_a	6.957
_cell_length_b	15.2588
_cell_length_c	15.2588
_cell_angle_alpha	84.7587
_cell_angle_beta	76.8226
_cell_angle_gamma	76.8226
loop_
_atom_site_label
_atom_site_type_symbol
_atom_site_fract_x
_atom_site_fract_y
_atom_site_fract_z
_atom_site_charge
Mof_V 	V 	0.5	0	-0	1.733
Mof_V 	V 	-0	0	-0	1.697
Mof_C 	C 	0.5846	0.694	0.004	0.016
Mof_C 	C 	0.637	0.595	0.003	-0.028
Mof_C 	C 	0.9154	0.996	0.306	0.067
Mof_C 	C 	0.863	0.997	0.405	0.053
Mof_C 	C 	0.7826	0.306	0.996	0.006
Mof_C 	C 	0.735	0.405	0.997	-0.048
Mof_C 	C 	0.7174	0.004	0.694	0.015
Mof_C 	C 	0.765	0.003	0.595	-0.076
Mof_C 	C 	0.4154	0.306	0.996	-0.006
Mof_C 	C 	0.363	0.405	0.997	-0.059
Mof_C 	C 	0.0846	0.004	0.694	-0.06
Mof_C 	C 	0.137	0.003	0.595	-0.144
Mof_C 	C 	0.2174	0.694	0.004	0.003
Mof_C 	C 	0.265	0.595	0.003	-0.041
Mof_C 	C 	0.2826	0.996	0.306	-0.006
Mof_C 	C 	0.235	0.997	0.405	-0.012
Mof_C 	C 	0.332	0.844	0.992	0.488
Mof_C 	C 	0.379	0.741	0.001	-0.2
Mof_C 	C 	0.474	0.55	0.002	-0.153
Mof_C 	C 	0.168	0.008	0.156	0.172
Mof_C 	C 	0.121	0.999	0.259	0.003
Mof_C 	C 	0.026	0.998	0.45	-0.01
Mof_C 	C 	0.668	0.156	0.008	0.162
Mof_C 	C 	0.621	0.259	0.999	0.078
Mof_C 	C 	0.526	0.45	0.998	0.182
Mof_C 	C 	0.832	0.992	0.844	0.471
Mof_C 	C 	0.879	0.001	0.741	-0.119
Mof_C 	C 	0.974	0.002	0.55	0.041
Mof_O 	O 	0.4875	0.8845	0.9865	-0.382
Mof_O 	O 	0.0125	0.0135	0.1155	-0.629
Mof_O 	O 	0.8585	0.1155	0.0135	-0.534
Mof_O 	O 	0.6415	0.9865	0.8845	-0.379
Mof_O 	O 	0.5125	0.1155	0.0135	-0.582
Mof_O 	O 	0.9875	0.9865	0.8845	-0.329
Mof_O 	O 	0.1415	0.8845	0.9865	-0.412
Mof_O 	O 	0.3585	0.0135	0.1155	-0.585
Mof_O 	O 	0.75	0.962	0.038	-0.512
Mof_O 	O 	0.25	0.038	0.962	-0.574
Mof_H 	H 	0.70443	0.73296	0.00709	0.034
Mof_H 	H 	0.79862	0.55739	0.00303	-0
Mof_H 	H 	0.79557	0.99291	0.26704	0.09
Mof_H 	H 	0.70138	0.99697	0.44261	0.075
Mof_H 	H 	0.94448	0.26704	0.99291	0.11
Mof_H 	H 	0.85904	0.44261	0.99697	0.113
Mof_H 	H 	0.55552	0.00709	0.73296	0.011
Mof_H 	H 	0.64096	0.00303	0.55739	-0.008
Mof_H 	H 	0.29557	0.26704	0.99291	0.068
Mof_H 	H 	0.20138	0.44261	0.99697	0.075
Mof_H 	H 	0.20443	0.00709	0.73296	0.011
Mof_H 	H 	0.29862	0.00303	0.55739	-0.002
Mof_H 	H 	0.05552	0.73296	0.00709	-0.012
Mof_H 	H 	0.14096	0.55739	0.00303	-0.043
Mof_H 	H 	0.44448	0.99291	0.26704	0.09
Mof_H 	H 	0.35904	0.99697	0.44261	0.081
_end
