# CIF file generated by openbabel 3.1.0, see https://openbabel.org
data_I
_chemical_name_common 'image0'
_cell_length_a 28.368
_cell_length_b 28.368
_cell_length_c 33.958
_cell_angle_alpha 90
_cell_angle_beta 90
_cell_angle_gamma 90
_space_group_name_H-M_alt 'P 1'
_space_group_name_Hall 'P 1'
loop_
    _symmetry_equiv_pos_as_xyz
    x,y,z
loop_
    _atom_site_label
    _atom_site_type_symbol
    _atom_site_fract_x
    _atom_site_fract_y
    _atom_site_fract_z
    _atom_site_occupancy
    Zn1      Zn       0.83482    0.25312    0.16479    1.000
    Zn2      Zn       0.75271    0.17235    0.31354    1.000
    N1       N        0.81240    0.20430    0.30100    1.000
    N2       N        0.85580    0.19770    0.31600    1.000
    N3       N        0.81290    0.23900    0.27380    1.000
    C1       C        0.95750    0.20300    0.33360    1.000
    H1       H        0.93980    0.18190    0.34960    1.000
    C2       C        0.88430    0.22800    0.29830    1.000
    C3       C        0.00550    0.20490    0.33740    1.000
    H2       H        0.02140    0.18510    0.35570    1.000
    C4       C        0.85860    0.25560    0.27010    1.000
    H3       H        0.87020    0.27950    0.25310    1.000
    C5       C        0.93410    0.23170    0.30660    1.000
    O1       O        0.78830    0.90090    0.13200    1.000
    O2       O        0.10270    0.21010    0.33890    1.000
    C6       C        0.03010    0.23580    0.31430    1.000
    C7       C        0.76190    0.92350    0.15730    1.000
    C8       C        0.79990    0.00080    0.14740    1.000
    H4       H        0.82500    0.98490    0.13450    1.000
    C9       C        0.95910    0.26160    0.28220    1.000
    H5       H        0.94360    0.28070    0.26320    1.000
    O3       O        0.73730    0.89900    0.17610    1.000
    C10      C        0.80060    0.04890    0.15210    1.000
    H6       H        0.82690    0.06610    0.14240    1.000
    C11      C        0.76210    0.97630    0.16170    1.000
    C12      C        0.00760    0.26270    0.28640    1.000
    H7       H        0.02570    0.28260    0.26970    1.000
    C13      C        0.08300    0.23950    0.31750    1.000
    C14      C        0.80650    0.15240    0.15880    1.000
    H8       H        0.82610    0.14500    0.13700    1.000
    C15      C        0.76450    0.07290    0.17040    1.000
    N4       N        0.80390    0.19400    0.17670    1.000
    C16      C        0.77470    0.12100    0.17810    1.000
    C17      C        0.72460    0.99810    0.18000    1.000
    H9       H        0.69840    0.98050    0.18930    1.000
    O4       O        0.10290    0.26830    0.30010    1.000
    C18      C        0.72650    0.04670    0.18420    1.000
    H10      H        0.70110    0.06250    0.19690    1.000
    N5       N        0.77020    0.19260    0.20270    1.000
    N6       N        0.75380    0.14920    0.20490    1.000
    O5       O        0.81780    0.26700    0.11090    1.000
    N7       N        0.77430    0.30830    0.86460    1.000
    C19      C        0.82200    0.26210    0.02920    1.000
    H11      H        0.84270    0.24180    0.04320    1.000
    C20      C        0.81970    0.26480    0.90070    1.000
    H12      H        0.74250    0.34250    0.90920    1.000
    N8       N        0.76480    0.31970    0.90070    1.000
    C21      C        0.82110    0.26200    0.98870    1.000
    H13      H        0.84160    0.24140    0.97480    1.000
    Zn3      Zn       0.33482    0.75312    0.66479    1.000
    Zn4      Zn       0.25271    0.67235    0.81354    1.000
    N9       N        0.31240    0.70430    0.80100    1.000
    N10      N        0.35580    0.69770    0.81600    1.000
    N11      N        0.31290    0.73900    0.77380    1.000
    C22      C        0.45750    0.70300    0.83360    1.000
    H14      H        0.43980    0.68190    0.84960    1.000
    C23      C        0.38430    0.72800    0.79830    1.000
    C24      C        0.50550    0.70490    0.83740    1.000
    H15      H        0.52140    0.68510    0.85570    1.000
    C25      C        0.35860    0.75560    0.77010    1.000
    H16      H        0.37020    0.77950    0.75310    1.000
    C26      C        0.43410    0.73170    0.80660    1.000
    O6       O        0.28830    0.40090    0.63200    1.000
    O7       O        0.60270    0.71010    0.83890    1.000
    C27      C        0.53010    0.73580    0.81430    1.000
    C28      C        0.26190    0.42350    0.65730    1.000
    C29      C        0.29990    0.50080    0.64740    1.000
    H17      H        0.32500    0.48490    0.63450    1.000
    C30      C        0.45910    0.76160    0.78220    1.000
    H18      H        0.44360    0.78070    0.76320    1.000
    O8       O        0.23730    0.39900    0.67610    1.000
    C31      C        0.30060    0.54890    0.65210    1.000
    H19      H        0.32690    0.56610    0.64240    1.000
    C32      C        0.26210    0.47630    0.66170    1.000
    C33      C        0.50760    0.76270    0.78640    1.000
    H20      H        0.52570    0.78260    0.76970    1.000
    C34      C        0.58300    0.73950    0.81750    1.000
    C35      C        0.30650    0.65240    0.65880    1.000
    H21      H        0.32610    0.64500    0.63700    1.000
    C36      C        0.26450    0.57290    0.67040    1.000
    N12      N        0.30390    0.69400    0.67670    1.000
    C37      C        0.27470    0.62100    0.67810    1.000
    C38      C        0.22460    0.49810    0.68000    1.000
    H22      H        0.19840    0.48050    0.68930    1.000
    O9       O        0.60290    0.76830    0.80010    1.000
    C39      C        0.22650    0.54670    0.68420    1.000
    H23      H        0.20110    0.56250    0.69690    1.000
    N13      N        0.27020    0.69260    0.70270    1.000
    N14      N        0.25380    0.64920    0.70490    1.000
    O10      O        0.31780    0.76700    0.61090    1.000
    N15      N        0.27430    0.80830    0.36460    1.000
    C40      C        0.32200    0.76210    0.52920    1.000
    H24      H        0.34270    0.74180    0.54320    1.000
    C41      C        0.31970    0.76480    0.40070    1.000
    H25      H        0.24250    0.84250    0.40920    1.000
    N16      N        0.26480    0.81970    0.40070    1.000
    C42      C        0.32110    0.76200    0.48870    1.000
    H26      H        0.34160    0.74140    0.47480    1.000
    Zn5      Zn       0.16518    0.74688    0.16479    1.000
    Zn6      Zn       0.24729    0.82765    0.31354    1.000
    N17      N        0.18760    0.79570    0.30100    1.000
    N18      N        0.14420    0.80230    0.31600    1.000
    N19      N        0.18710    0.76100    0.27380    1.000
    C43      C        0.04250    0.79700    0.33360    1.000
    H27      H        0.06020    0.81810    0.34960    1.000
    C44      C        0.11570    0.77200    0.29830    1.000
    C45      C        0.99450    0.79510    0.33740    1.000
    H28      H        0.97860    0.81490    0.35570    1.000
    C46      C        0.14140    0.74440    0.27010    1.000
    H29      H        0.12980    0.72050    0.25310    1.000
    C47      C        0.06590    0.76830    0.30660    1.000
    O11      O        0.21170    0.09910    0.13200    1.000
    O12      O        0.89730    0.78990    0.33890    1.000
    C48      C        0.96990    0.76420    0.31430    1.000
    C49      C        0.23810    0.07650    0.15730    1.000
    C50      C        0.20010    0.99920    0.14740    1.000
    H30      H        0.17500    0.01510    0.13450    1.000
    C51      C        0.04090    0.73840    0.28220    1.000
    H31      H        0.05640    0.71930    0.26320    1.000
    O13      O        0.26270    0.10100    0.17610    1.000
    C52      C        0.19940    0.95110    0.15210    1.000
    H32      H        0.17310    0.93390    0.14240    1.000
    C53      C        0.23790    0.02370    0.16170    1.000
    C54      C        0.99240    0.73730    0.28640    1.000
    H33      H        0.97430    0.71740    0.26970    1.000
    C55      C        0.91700    0.76050    0.31750    1.000
    C56      C        0.19350    0.84760    0.15880    1.000
    H34      H        0.17390    0.85500    0.13700    1.000
    C57      C        0.23550    0.92710    0.17040    1.000
    N20      N        0.19610    0.80600    0.17670    1.000
    C58      C        0.22530    0.87900    0.17810    1.000
    C59      C        0.27540    0.00190    0.18000    1.000
    H35      H        0.30160    0.01950    0.18930    1.000
    O14      O        0.89710    0.73170    0.30010    1.000
    C60      C        0.27350    0.95330    0.18420    1.000
    H36      H        0.29890    0.93750    0.19690    1.000
    N21      N        0.22980    0.80740    0.20270    1.000
    N22      N        0.24620    0.85080    0.20490    1.000
    O15      O        0.18220    0.73300    0.11090    1.000
    N23      N        0.22570    0.69170    0.86460    1.000
    C61      C        0.17800    0.73790    0.02920    1.000
    H37      H        0.15730    0.75820    0.04320    1.000
    C62      C        0.18030    0.73520    0.90070    1.000
    H38      H        0.25750    0.65750    0.90920    1.000
    N24      N        0.23520    0.68030    0.90070    1.000
    C63      C        0.17890    0.73800    0.98870    1.000
    H39      H        0.15840    0.75860    0.97480    1.000
    Zn7      Zn       0.66518    0.24688    0.66479    1.000
    Zn8      Zn       0.74729    0.32765    0.81354    1.000
    N25      N        0.68760    0.29570    0.80100    1.000
    N26      N        0.64420    0.30230    0.81600    1.000
    N27      N        0.68710    0.26100    0.77380    1.000
    C64      C        0.54250    0.29700    0.83360    1.000
    H40      H        0.56020    0.31810    0.84960    1.000
    C65      C        0.61570    0.27200    0.79830    1.000
    C66      C        0.49450    0.29510    0.83740    1.000
    H41      H        0.47860    0.31490    0.85570    1.000
    C67      C        0.64140    0.24440    0.77010    1.000
    H42      H        0.62980    0.22050    0.75310    1.000
    C68      C        0.56590    0.26830    0.80660    1.000
    O16      O        0.71170    0.59910    0.63200    1.000
    O17      O        0.39730    0.28990    0.83890    1.000
    C69      C        0.46990    0.26420    0.81430    1.000
    C70      C        0.73810    0.57650    0.65730    1.000
    C71      C        0.70010    0.49920    0.64740    1.000
    H43      H        0.67500    0.51510    0.63450    1.000
    C72      C        0.54090    0.23840    0.78220    1.000
    H44      H        0.55640    0.21930    0.76320    1.000
    O18      O        0.76270    0.60100    0.67610    1.000
    C73      C        0.69940    0.45110    0.65210    1.000
    H45      H        0.67310    0.43390    0.64240    1.000
    C74      C        0.73790    0.52370    0.66170    1.000
    C75      C        0.49240    0.23730    0.78640    1.000
    H46      H        0.47430    0.21740    0.76970    1.000
    C76      C        0.41700    0.26050    0.81750    1.000
    C77      C        0.69350    0.34760    0.65880    1.000
    H47      H        0.67390    0.35500    0.63700    1.000
    C78      C        0.73550    0.42710    0.67040    1.000
    N28      N        0.69610    0.30600    0.67670    1.000
    C79      C        0.72530    0.37900    0.67810    1.000
    C80      C        0.77540    0.50190    0.68000    1.000
    H48      H        0.80160    0.51950    0.68930    1.000
    O19      O        0.39710    0.23170    0.80010    1.000
    C81      C        0.77350    0.45330    0.68420    1.000
    H49      H        0.79890    0.43750    0.69690    1.000
    N29      N        0.72980    0.30740    0.70270    1.000
    N30      N        0.74620    0.35080    0.70490    1.000
    O20      O        0.68220    0.23300    0.61090    1.000
    N31      N        0.72570    0.19170    0.36460    1.000
    C82      C        0.67800    0.23790    0.52920    1.000
    H50      H        0.65730    0.25820    0.54320    1.000
    C83      C        0.68030    0.23520    0.40070    1.000
    H51      H        0.75750    0.15750    0.40920    1.000
    N32      N        0.73520    0.18030    0.40070    1.000
    C84      C        0.67890    0.23800    0.48870    1.000
    H52      H        0.65840    0.25860    0.47480    1.000
    Zn9      Zn       0.74688    0.83482    0.16479    1.000
    Zn10     Zn       0.82765    0.75271    0.31354    1.000
    N33      N        0.79570    0.81240    0.30100    1.000
    N34      N        0.80230    0.85580    0.31600    1.000
    N35      N        0.76100    0.81290    0.27380    1.000
    C85      C        0.79700    0.95750    0.33360    1.000
    H53      H        0.81810    0.93980    0.34960    1.000
    C86      C        0.77200    0.88430    0.29830    1.000
    C87      C        0.79510    0.00550    0.33740    1.000
    H54      H        0.81490    0.02140    0.35570    1.000
    C88      C        0.74440    0.85860    0.27010    1.000
    H55      H        0.72050    0.87020    0.25310    1.000
    C89      C        0.76830    0.93410    0.30660    1.000
    O21      O        0.09910    0.78830    0.13200    1.000
    O22      O        0.78990    0.10270    0.33890    1.000
    C90      C        0.76420    0.03010    0.31430    1.000
    C91      C        0.07650    0.76190    0.15730    1.000
    C92      C        0.99920    0.79990    0.14740    1.000
    H56      H        0.01510    0.82500    0.13450    1.000
    C93      C        0.73840    0.95910    0.28220    1.000
    H57      H        0.71930    0.94360    0.26320    1.000
    O23      O        0.10100    0.73730    0.17610    1.000
    C94      C        0.95110    0.80060    0.15210    1.000
    H58      H        0.93390    0.82690    0.14240    1.000
    C95      C        0.02370    0.76210    0.16170    1.000
    C96      C        0.73730    0.00760    0.28640    1.000
    H59      H        0.71740    0.02570    0.26970    1.000
    C97      C        0.76050    0.08300    0.31750    1.000
    C98      C        0.84760    0.80650    0.15880    1.000
    H60      H        0.85500    0.82610    0.13700    1.000
    C99      C        0.92710    0.76450    0.17040    1.000
    N36      N        0.80600    0.80390    0.17670    1.000
    C100     C        0.87900    0.77470    0.17810    1.000
    C101     C        0.00190    0.72460    0.18000    1.000
    H61      H        0.01950    0.69840    0.18930    1.000
    O24      O        0.73170    0.10290    0.30010    1.000
    C102     C        0.95330    0.72650    0.18420    1.000
    H62      H        0.93750    0.70110    0.19690    1.000
    N37      N        0.80740    0.77020    0.20270    1.000
    N38      N        0.85080    0.75380    0.20490    1.000
    O25      O        0.73300    0.81780    0.11090    1.000
    N39      N        0.69170    0.77430    0.86460    1.000
    C103     C        0.73790    0.82200    0.02920    1.000
    H63      H        0.75820    0.84270    0.04320    1.000
    C104     C        0.73520    0.81970    0.90070    1.000
    H64      H        0.65750    0.74250    0.90920    1.000
    N40      N        0.68030    0.76480    0.90070    1.000
    C105     C        0.73800    0.82110    0.98870    1.000
    H65      H        0.75860    0.84160    0.97480    1.000
    Zn11     Zn       0.24688    0.33482    0.66479    1.000
    Zn12     Zn       0.32765    0.25271    0.81354    1.000
    N41      N        0.29570    0.31240    0.80100    1.000
    N42      N        0.30230    0.35580    0.81600    1.000
    N43      N        0.26100    0.31290    0.77380    1.000
    C106     C        0.29700    0.45750    0.83360    1.000
    H66      H        0.31810    0.43980    0.84960    1.000
    C107     C        0.27200    0.38430    0.79830    1.000
    C108     C        0.29510    0.50550    0.83740    1.000
    H67      H        0.31490    0.52140    0.85570    1.000
    C109     C        0.24440    0.35860    0.77010    1.000
    H68      H        0.22050    0.37020    0.75310    1.000
    C110     C        0.26830    0.43410    0.80660    1.000
    O26      O        0.59910    0.28830    0.63200    1.000
    O27      O        0.28990    0.60270    0.83890    1.000
    C111     C        0.26420    0.53010    0.81430    1.000
    C112     C        0.57650    0.26190    0.65730    1.000
    C113     C        0.49920    0.29990    0.64740    1.000
    H69      H        0.51510    0.32500    0.63450    1.000
    C114     C        0.23840    0.45910    0.78220    1.000
    H70      H        0.21930    0.44360    0.76320    1.000
    O28      O        0.60100    0.23730    0.67610    1.000
    C115     C        0.45110    0.30060    0.65210    1.000
    H71      H        0.43390    0.32690    0.64240    1.000
    C116     C        0.52370    0.26210    0.66170    1.000
    C117     C        0.23730    0.50760    0.78640    1.000
    H72      H        0.21740    0.52570    0.76970    1.000
    C118     C        0.26050    0.58300    0.81750    1.000
    C119     C        0.34760    0.30650    0.65880    1.000
    H73      H        0.35500    0.32610    0.63700    1.000
    C120     C        0.42710    0.26450    0.67040    1.000
    N44      N        0.30600    0.30390    0.67670    1.000
    C121     C        0.37900    0.27470    0.67810    1.000
    C122     C        0.50190    0.22460    0.68000    1.000
    H74      H        0.51950    0.19840    0.68930    1.000
    O29      O        0.23170    0.60290    0.80010    1.000
    C123     C        0.45330    0.22650    0.68420    1.000
    H75      H        0.43750    0.20110    0.69690    1.000
    N45      N        0.30740    0.27020    0.70270    1.000
    N46      N        0.35080    0.25380    0.70490    1.000
    O30      O        0.23300    0.31780    0.61090    1.000
    N47      N        0.19170    0.27430    0.36460    1.000
    C124     C        0.23790    0.32200    0.52920    1.000
    H76      H        0.25820    0.34270    0.54320    1.000
    C125     C        0.23520    0.31970    0.40070    1.000
    H77      H        0.15750    0.24250    0.40920    1.000
    N48      N        0.18030    0.26480    0.40070    1.000
    C126     C        0.23800    0.32110    0.48870    1.000
    H78      H        0.25860    0.34160    0.47480    1.000
    Zn13     Zn       0.25312    0.16518    0.16479    1.000
    Zn14     Zn       0.17235    0.24729    0.31354    1.000
    N49      N        0.20430    0.18760    0.30100    1.000
    N50      N        0.19770    0.14420    0.31600    1.000
    N51      N        0.23900    0.18710    0.27380    1.000
    C127     C        0.20300    0.04250    0.33360    1.000
    H79      H        0.18190    0.06020    0.34960    1.000
    C128     C        0.22800    0.11570    0.29830    1.000
    C129     C        0.20490    0.99450    0.33740    1.000
    H80      H        0.18510    0.97860    0.35570    1.000
    C130     C        0.25560    0.14140    0.27010    1.000
    H81      H        0.27950    0.12980    0.25310    1.000
    C131     C        0.23170    0.06590    0.30660    1.000
    O31      O        0.90090    0.21170    0.13200    1.000
    O32      O        0.21010    0.89730    0.33890    1.000
    C132     C        0.23580    0.96990    0.31430    1.000
    C133     C        0.92350    0.23810    0.15730    1.000
    C134     C        0.00080    0.20010    0.14740    1.000
    H82      H        0.98490    0.17500    0.13450    1.000
    C135     C        0.26160    0.04090    0.28220    1.000
    H83      H        0.28070    0.05640    0.26320    1.000
    O33      O        0.89900    0.26270    0.17610    1.000
    C136     C        0.04890    0.19940    0.15210    1.000
    H84      H        0.06610    0.17310    0.14240    1.000
    C137     C        0.97630    0.23790    0.16170    1.000
    C138     C        0.26270    0.99240    0.28640    1.000
    H85      H        0.28260    0.97430    0.26970    1.000
    C139     C        0.23950    0.91700    0.31750    1.000
    C140     C        0.15240    0.19350    0.15880    1.000
    H86      H        0.14500    0.17390    0.13700    1.000
    C141     C        0.07290    0.23550    0.17040    1.000
    N52      N        0.19400    0.19610    0.17670    1.000
    C142     C        0.12100    0.22530    0.17810    1.000
    C143     C        0.99810    0.27540    0.18000    1.000
    H87      H        0.98050    0.30160    0.18930    1.000
    O34      O        0.26830    0.89710    0.30010    1.000
    C144     C        0.04670    0.27350    0.18420    1.000
    H88      H        0.06250    0.29890    0.19690    1.000
    N53      N        0.19260    0.22980    0.20270    1.000
    N54      N        0.14920    0.24620    0.20490    1.000
    O35      O        0.26700    0.18220    0.11090    1.000
    N55      N        0.30830    0.22570    0.86460    1.000
    C145     C        0.26210    0.17800    0.02920    1.000
    H89      H        0.24180    0.15730    0.04320    1.000
    C146     C        0.26480    0.18030    0.90070    1.000
    H90      H        0.34250    0.25750    0.90920    1.000
    N56      N        0.31970    0.23520    0.90070    1.000
    C147     C        0.26200    0.17890    0.98870    1.000
    H91      H        0.24140    0.15840    0.97480    1.000
    Zn15     Zn       0.75312    0.66518    0.66479    1.000
    Zn16     Zn       0.67235    0.74729    0.81354    1.000
    N57      N        0.70430    0.68760    0.80100    1.000
    N58      N        0.69770    0.64420    0.81600    1.000
    N59      N        0.73900    0.68710    0.77380    1.000
    C148     C        0.70300    0.54250    0.83360    1.000
    H92      H        0.68190    0.56020    0.84960    1.000
    C149     C        0.72800    0.61570    0.79830    1.000
    C150     C        0.70490    0.49450    0.83740    1.000
    H93      H        0.68510    0.47860    0.85570    1.000
    C151     C        0.75560    0.64140    0.77010    1.000
    H94      H        0.77950    0.62980    0.75310    1.000
    C152     C        0.73170    0.56590    0.80660    1.000
    O36      O        0.40090    0.71170    0.63200    1.000
    O37      O        0.71010    0.39730    0.83890    1.000
    C153     C        0.73580    0.46990    0.81430    1.000
    C154     C        0.42350    0.73810    0.65730    1.000
    C155     C        0.50080    0.70010    0.64740    1.000
    H95      H        0.48490    0.67500    0.63450    1.000
    C156     C        0.76160    0.54090    0.78220    1.000
    H96      H        0.78070    0.55640    0.76320    1.000
    O38      O        0.39900    0.76270    0.67610    1.000
    C157     C        0.54890    0.69940    0.65210    1.000
    H97      H        0.56610    0.67310    0.64240    1.000
    C158     C        0.47630    0.73790    0.66170    1.000
    C159     C        0.76270    0.49240    0.78640    1.000
    H98      H        0.78260    0.47430    0.76970    1.000
    C160     C        0.73950    0.41700    0.81750    1.000
    C161     C        0.65240    0.69350    0.65880    1.000
    H99      H        0.64500    0.67390    0.63700    1.000
    C162     C        0.57290    0.73550    0.67040    1.000
    N60      N        0.69400    0.69610    0.67670    1.000
    C163     C        0.62100    0.72530    0.67810    1.000
    C164     C        0.49810    0.77540    0.68000    1.000
    H100     H        0.48050    0.80160    0.68930    1.000
    O39      O        0.76830    0.39710    0.80010    1.000
    C165     C        0.54670    0.77350    0.68420    1.000
    H101     H        0.56250    0.79890    0.69690    1.000
    N61      N        0.69260    0.72980    0.70270    1.000
    N62      N        0.64920    0.74620    0.70490    1.000
    O40      O        0.76700    0.68220    0.61090    1.000
    N63      N        0.80830    0.72570    0.36460    1.000
    C166     C        0.76210    0.67800    0.52920    1.000
    H102     H        0.74180    0.65730    0.54320    1.000
    C167     C        0.76480    0.68030    0.40070    1.000
    H103     H        0.84250    0.75750    0.40920    1.000
    N64      N        0.81970    0.73520    0.40070    1.000
    C168     C        0.76200    0.67890    0.48870    1.000
    H104     H        0.74140    0.65840    0.47480    1.000
    Zn17     Zn       0.83482    0.74688    0.66479    1.000
    Zn18     Zn       0.75271    0.82765    0.81354    1.000
    N65      N        0.81240    0.79570    0.80100    1.000
    N66      N        0.85580    0.80230    0.81600    1.000
    N67      N        0.81290    0.76100    0.77380    1.000
    C169     C        0.95750    0.79700    0.83360    1.000
    H105     H        0.93980    0.81810    0.84960    1.000
    C170     C        0.88430    0.77200    0.79830    1.000
    C171     C        0.00550    0.79510    0.83740    1.000
    H106     H        0.02140    0.81490    0.85570    1.000
    C172     C        0.85860    0.74440    0.77010    1.000
    H107     H        0.87020    0.72050    0.75310    1.000
    C173     C        0.93410    0.76830    0.80660    1.000
    O41      O        0.78830    0.09910    0.63200    1.000
    O42      O        0.10270    0.78990    0.83890    1.000
    C174     C        0.03010    0.76420    0.81430    1.000
    C175     C        0.76190    0.07650    0.65730    1.000
    C176     C        0.79990    0.99920    0.64740    1.000
    H108     H        0.82500    0.01510    0.63450    1.000
    C177     C        0.95910    0.73840    0.78220    1.000
    H109     H        0.94360    0.71930    0.76320    1.000
    O43      O        0.73730    0.10100    0.67610    1.000
    C178     C        0.80060    0.95110    0.65210    1.000
    H110     H        0.82690    0.93390    0.64240    1.000
    C179     C        0.76210    0.02370    0.66170    1.000
    C180     C        0.00760    0.73730    0.78640    1.000
    H111     H        0.02570    0.71740    0.76970    1.000
    C181     C        0.08300    0.76050    0.81750    1.000
    C182     C        0.80650    0.84760    0.65880    1.000
    H112     H        0.82610    0.85500    0.63700    1.000
    C183     C        0.76450    0.92710    0.67040    1.000
    N68      N        0.80390    0.80600    0.67670    1.000
    C184     C        0.77470    0.87900    0.67810    1.000
    C185     C        0.72460    0.00190    0.68000    1.000
    H113     H        0.69840    0.01950    0.68930    1.000
    O44      O        0.10290    0.73170    0.80010    1.000
    C186     C        0.72650    0.95330    0.68420    1.000
    H114     H        0.70110    0.93750    0.69690    1.000
    N69      N        0.77020    0.80740    0.70270    1.000
    N70      N        0.75380    0.85080    0.70490    1.000
    O45      O        0.81780    0.73300    0.61090    1.000
    N71      N        0.77430    0.69170    0.36460    1.000
    C187     C        0.82200    0.73790    0.52920    1.000
    H115     H        0.84270    0.75820    0.54320    1.000
    H116     H        0.74250    0.65750    0.40920    1.000
    C188     C        0.82110    0.73800    0.48870    1.000
    H117     H        0.84160    0.75860    0.47480    1.000
    Zn19     Zn       0.33482    0.24688    0.16479    1.000
    Zn20     Zn       0.25271    0.32765    0.31354    1.000
    N72      N        0.31240    0.29570    0.30100    1.000
    N73      N        0.35580    0.30230    0.31600    1.000
    N74      N        0.31290    0.26100    0.27380    1.000
    C189     C        0.45750    0.29700    0.33360    1.000
    H118     H        0.43980    0.31810    0.34960    1.000
    C190     C        0.38430    0.27200    0.29830    1.000
    C191     C        0.50550    0.29510    0.33740    1.000
    H119     H        0.52140    0.31490    0.35570    1.000
    C192     C        0.35860    0.24440    0.27010    1.000
    H120     H        0.37020    0.22050    0.25310    1.000
    C193     C        0.43410    0.26830    0.30660    1.000
    O46      O        0.28830    0.59910    0.13200    1.000
    O47      O        0.60270    0.28990    0.33890    1.000
    C194     C        0.53010    0.26420    0.31430    1.000
    C195     C        0.26190    0.57650    0.15730    1.000
    C196     C        0.29990    0.49920    0.14740    1.000
    H121     H        0.32500    0.51510    0.13450    1.000
    C197     C        0.45910    0.23840    0.28220    1.000
    H122     H        0.44360    0.21930    0.26320    1.000
    O48      O        0.23730    0.60100    0.17610    1.000
    C198     C        0.30060    0.45110    0.15210    1.000
    H123     H        0.32690    0.43390    0.14240    1.000
    C199     C        0.26210    0.52370    0.16170    1.000
    C200     C        0.50760    0.23730    0.28640    1.000
    H124     H        0.52570    0.21740    0.26970    1.000
    C201     C        0.58300    0.26050    0.31750    1.000
    C202     C        0.30650    0.34760    0.15880    1.000
    H125     H        0.32610    0.35500    0.13700    1.000
    C203     C        0.26450    0.42710    0.17040    1.000
    N75      N        0.30390    0.30600    0.17670    1.000
    C204     C        0.27470    0.37900    0.17810    1.000
    C205     C        0.22460    0.50190    0.18000    1.000
    H126     H        0.19840    0.51950    0.18930    1.000
    O49      O        0.60290    0.23170    0.30010    1.000
    C206     C        0.22650    0.45330    0.18420    1.000
    H127     H        0.20110    0.43750    0.19690    1.000
    N76      N        0.27020    0.30740    0.20270    1.000
    N77      N        0.25380    0.35080    0.20490    1.000
    O50      O        0.31780    0.23300    0.11090    1.000
    N78      N        0.27430    0.19170    0.86460    1.000
    C207     C        0.32200    0.23790    0.02920    1.000
    H128     H        0.34270    0.25820    0.04320    1.000
    H129     H        0.24250    0.15750    0.90920    1.000
    C208     C        0.32110    0.23800    0.98870    1.000
    H130     H        0.34160    0.25860    0.97480    1.000
    Zn21     Zn       0.16518    0.25312    0.66479    1.000
    Zn22     Zn       0.24729    0.17235    0.81354    1.000
    N79      N        0.18760    0.20430    0.80100    1.000
    N80      N        0.14420    0.19770    0.81600    1.000
    N81      N        0.18710    0.23900    0.77380    1.000
    C209     C        0.04250    0.20300    0.83360    1.000
    H131     H        0.06020    0.18190    0.84960    1.000
    C210     C        0.11570    0.22800    0.79830    1.000
    C211     C        0.99450    0.20490    0.83740    1.000
    H132     H        0.97860    0.18510    0.85570    1.000
    C212     C        0.14140    0.25560    0.77010    1.000
    H133     H        0.12980    0.27950    0.75310    1.000
    C213     C        0.06590    0.23170    0.80660    1.000
    O51      O        0.21170    0.90090    0.63200    1.000
    O52      O        0.89730    0.21010    0.83890    1.000
    C214     C        0.96990    0.23580    0.81430    1.000
    C215     C        0.23810    0.92350    0.65730    1.000
    C216     C        0.20010    0.00080    0.64740    1.000
    H134     H        0.17500    0.98490    0.63450    1.000
    C217     C        0.04090    0.26160    0.78220    1.000
    H135     H        0.05640    0.28070    0.76320    1.000
    O53      O        0.26270    0.89900    0.67610    1.000
    C218     C        0.19940    0.04890    0.65210    1.000
    H136     H        0.17310    0.06610    0.64240    1.000
    C219     C        0.23790    0.97630    0.66170    1.000
    C220     C        0.99240    0.26270    0.78640    1.000
    H137     H        0.97430    0.28260    0.76970    1.000
    C221     C        0.91700    0.23950    0.81750    1.000
    C222     C        0.19350    0.15240    0.65880    1.000
    H138     H        0.17390    0.14500    0.63700    1.000
    C223     C        0.23550    0.07290    0.67040    1.000
    N82      N        0.19610    0.19400    0.67670    1.000
    C224     C        0.22530    0.12100    0.67810    1.000
    C225     C        0.27540    0.99810    0.68000    1.000
    H139     H        0.30160    0.98050    0.68930    1.000
    O54      O        0.89710    0.26830    0.80010    1.000
    C226     C        0.27350    0.04670    0.68420    1.000
    H140     H        0.29890    0.06250    0.69690    1.000
    N83      N        0.22980    0.19260    0.70270    1.000
    N84      N        0.24620    0.14920    0.70490    1.000
    O55      O        0.18220    0.26700    0.61090    1.000
    N85      N        0.22570    0.30830    0.36460    1.000
    C227     C        0.17800    0.26210    0.52920    1.000
    H141     H        0.15730    0.24180    0.54320    1.000
    H142     H        0.25750    0.34250    0.40920    1.000
    C228     C        0.17890    0.26200    0.48870    1.000
    H143     H        0.15840    0.24140    0.47480    1.000
    Zn23     Zn       0.66518    0.75312    0.16479    1.000
    Zn24     Zn       0.74729    0.67235    0.31354    1.000
    N86      N        0.68760    0.70430    0.30100    1.000
    N87      N        0.64420    0.69770    0.31600    1.000
    N88      N        0.68710    0.73900    0.27380    1.000
    C229     C        0.54250    0.70300    0.33360    1.000
    H144     H        0.56020    0.68190    0.34960    1.000
    C230     C        0.61570    0.72800    0.29830    1.000
    C231     C        0.49450    0.70490    0.33740    1.000
    H145     H        0.47860    0.68510    0.35570    1.000
    C232     C        0.64140    0.75560    0.27010    1.000
    H146     H        0.62980    0.77950    0.25310    1.000
    C233     C        0.56590    0.73170    0.30660    1.000
    O56      O        0.71170    0.40090    0.13200    1.000
    O57      O        0.39730    0.71010    0.33890    1.000
    C234     C        0.46990    0.73580    0.31430    1.000
    C235     C        0.73810    0.42350    0.15730    1.000
    C236     C        0.70010    0.50080    0.14740    1.000
    H147     H        0.67500    0.48490    0.13450    1.000
    C237     C        0.54090    0.76160    0.28220    1.000
    H148     H        0.55640    0.78070    0.26320    1.000
    O58      O        0.76270    0.39900    0.17610    1.000
    C238     C        0.69940    0.54890    0.15210    1.000
    H149     H        0.67310    0.56610    0.14240    1.000
    C239     C        0.73790    0.47630    0.16170    1.000
    C240     C        0.49240    0.76270    0.28640    1.000
    H150     H        0.47430    0.78260    0.26970    1.000
    C241     C        0.41700    0.73950    0.31750    1.000
    C242     C        0.69350    0.65240    0.15880    1.000
    H151     H        0.67390    0.64500    0.13700    1.000
    C243     C        0.73550    0.57290    0.17040    1.000
    N89      N        0.69610    0.69400    0.17670    1.000
    C244     C        0.72530    0.62100    0.17810    1.000
    C245     C        0.77540    0.49810    0.18000    1.000
    H152     H        0.80160    0.48050    0.18930    1.000
    O59      O        0.39710    0.76830    0.30010    1.000
    C246     C        0.77350    0.54670    0.18420    1.000
    H153     H        0.79890    0.56250    0.19690    1.000
    N90      N        0.72980    0.69260    0.20270    1.000
    N91      N        0.74620    0.64920    0.20490    1.000
    O60      O        0.68220    0.76700    0.11090    1.000
    N92      N        0.72570    0.80830    0.86460    1.000
    C247     C        0.67800    0.76210    0.02920    1.000
    H154     H        0.65730    0.74180    0.04320    1.000
    H155     H        0.75750    0.84250    0.90920    1.000
    C248     C        0.67890    0.76200    0.98870    1.000
    H156     H        0.65840    0.74140    0.97480    1.000
    Zn25     Zn       0.74688    0.16518    0.66479    1.000
    Zn26     Zn       0.82765    0.24729    0.81354    1.000
    N93      N        0.79570    0.18760    0.80100    1.000
    N94      N        0.80230    0.14420    0.81600    1.000
    N95      N        0.76100    0.18710    0.77380    1.000
    C249     C        0.79700    0.04250    0.83360    1.000
    H157     H        0.81810    0.06020    0.84960    1.000
    C250     C        0.77200    0.11570    0.79830    1.000
    C251     C        0.79510    0.99450    0.83740    1.000
    H158     H        0.81490    0.97860    0.85570    1.000
    C252     C        0.74440    0.14140    0.77010    1.000
    H159     H        0.72050    0.12980    0.75310    1.000
    C253     C        0.76830    0.06590    0.80660    1.000
    O61      O        0.09910    0.21170    0.63200    1.000
    O62      O        0.78990    0.89730    0.83890    1.000
    C254     C        0.76420    0.96990    0.81430    1.000
    C255     C        0.07650    0.23810    0.65730    1.000
    C256     C        0.99920    0.20010    0.64740    1.000
    H160     H        0.01510    0.17500    0.63450    1.000
    C257     C        0.73840    0.04090    0.78220    1.000
    H161     H        0.71930    0.05640    0.76320    1.000
    O63      O        0.10100    0.26270    0.67610    1.000
    C258     C        0.95110    0.19940    0.65210    1.000
    H162     H        0.93390    0.17310    0.64240    1.000
    C259     C        0.02370    0.23790    0.66170    1.000
    C260     C        0.73730    0.99240    0.78640    1.000
    H163     H        0.71740    0.97430    0.76970    1.000
    C261     C        0.76050    0.91700    0.81750    1.000
    C262     C        0.84760    0.19350    0.65880    1.000
    H164     H        0.85500    0.17390    0.63700    1.000
    C263     C        0.92710    0.23550    0.67040    1.000
    N96      N        0.80600    0.19610    0.67670    1.000
    C264     C        0.87900    0.22530    0.67810    1.000
    C265     C        0.00190    0.27540    0.68000    1.000
    H165     H        0.01950    0.30160    0.68930    1.000
    O64      O        0.73170    0.89710    0.80010    1.000
    C266     C        0.95330    0.27350    0.68420    1.000
    H166     H        0.93750    0.29890    0.69690    1.000
    N97      N        0.80740    0.22980    0.70270    1.000
    N98      N        0.85080    0.24620    0.70490    1.000
    O65      O        0.73300    0.18220    0.61090    1.000
    N99      N        0.69170    0.22570    0.36460    1.000
    C267     C        0.73790    0.17800    0.52920    1.000
    H167     H        0.75820    0.15730    0.54320    1.000
    H168     H        0.65750    0.25750    0.40920    1.000
    C268     C        0.73800    0.17890    0.48870    1.000
    H169     H        0.75860    0.15840    0.47480    1.000
    Zn27     Zn       0.24688    0.66518    0.16479    1.000
    Zn28     Zn       0.32765    0.74729    0.31354    1.000
    N100     N        0.29570    0.68760    0.30100    1.000
    N101     N        0.30230    0.64420    0.31600    1.000
    N102     N        0.26100    0.68710    0.27380    1.000
    C269     C        0.29700    0.54250    0.33360    1.000
    H170     H        0.31810    0.56020    0.34960    1.000
    C270     C        0.27200    0.61570    0.29830    1.000
    C271     C        0.29510    0.49450    0.33740    1.000
    H171     H        0.31490    0.47860    0.35570    1.000
    C272     C        0.24440    0.64140    0.27010    1.000
    H172     H        0.22050    0.62980    0.25310    1.000
    C273     C        0.26830    0.56590    0.30660    1.000
    O66      O        0.59910    0.71170    0.13200    1.000
    O67      O        0.28990    0.39730    0.33890    1.000
    C274     C        0.26420    0.46990    0.31430    1.000
    C275     C        0.57650    0.73810    0.15730    1.000
    C276     C        0.49920    0.70010    0.14740    1.000
    H173     H        0.51510    0.67500    0.13450    1.000
    C277     C        0.23840    0.54090    0.28220    1.000
    H174     H        0.21930    0.55640    0.26320    1.000
    O68      O        0.60100    0.76270    0.17610    1.000
    C278     C        0.45110    0.69940    0.15210    1.000
    H175     H        0.43390    0.67310    0.14240    1.000
    C279     C        0.52370    0.73790    0.16170    1.000
    C280     C        0.23730    0.49240    0.28640    1.000
    H176     H        0.21740    0.47430    0.26970    1.000
    C281     C        0.26050    0.41700    0.31750    1.000
    C282     C        0.34760    0.69350    0.15880    1.000
    H177     H        0.35500    0.67390    0.13700    1.000
    C283     C        0.42710    0.73550    0.17040    1.000
    N103     N        0.30600    0.69610    0.17670    1.000
    C284     C        0.37900    0.72530    0.17810    1.000
    C285     C        0.50190    0.77540    0.18000    1.000
    H178     H        0.51950    0.80160    0.18930    1.000
    O69      O        0.23170    0.39710    0.30010    1.000
    C286     C        0.45330    0.77350    0.18420    1.000
    H179     H        0.43750    0.79890    0.19690    1.000
    N104     N        0.30740    0.72980    0.20270    1.000
    N105     N        0.35080    0.74620    0.20490    1.000
    O70      O        0.23300    0.68220    0.11090    1.000
    N106     N        0.19170    0.72570    0.86460    1.000
    C287     C        0.23790    0.67800    0.02920    1.000
    H180     H        0.25820    0.65730    0.04320    1.000
    H181     H        0.15750    0.75750    0.90920    1.000
    C288     C        0.23800    0.67890    0.98870    1.000
    H182     H        0.25860    0.65840    0.97480    1.000
    Zn29     Zn       0.25312    0.83482    0.66479    1.000
    Zn30     Zn       0.17235    0.75271    0.81354    1.000
    N107     N        0.20430    0.81240    0.80100    1.000
    N108     N        0.19770    0.85580    0.81600    1.000
    N109     N        0.23900    0.81290    0.77380    1.000
    C289     C        0.20300    0.95750    0.83360    1.000
    H183     H        0.18190    0.93980    0.84960    1.000
    C290     C        0.22800    0.88430    0.79830    1.000
    C291     C        0.20490    0.00550    0.83740    1.000
    H184     H        0.18510    0.02140    0.85570    1.000
    C292     C        0.25560    0.85860    0.77010    1.000
    H185     H        0.27950    0.87020    0.75310    1.000
    C293     C        0.23170    0.93410    0.80660    1.000
    O71      O        0.90090    0.78830    0.63200    1.000
    O72      O        0.21010    0.10270    0.83890    1.000
    C294     C        0.23580    0.03010    0.81430    1.000
    C295     C        0.92350    0.76190    0.65730    1.000
    C296     C        0.00080    0.79990    0.64740    1.000
    H186     H        0.98490    0.82500    0.63450    1.000
    C297     C        0.26160    0.95910    0.78220    1.000
    H187     H        0.28070    0.94360    0.76320    1.000
    O73      O        0.89900    0.73730    0.67610    1.000
    C298     C        0.04890    0.80060    0.65210    1.000
    H188     H        0.06610    0.82690    0.64240    1.000
    C299     C        0.97630    0.76210    0.66170    1.000
    C300     C        0.26270    0.00760    0.78640    1.000
    H189     H        0.28260    0.02570    0.76970    1.000
    C301     C        0.23950    0.08300    0.81750    1.000
    C302     C        0.15240    0.80650    0.65880    1.000
    H190     H        0.14500    0.82610    0.63700    1.000
    C303     C        0.07290    0.76450    0.67040    1.000
    N110     N        0.19400    0.80390    0.67670    1.000
    C304     C        0.12100    0.77470    0.67810    1.000
    C305     C        0.99810    0.72460    0.68000    1.000
    H191     H        0.98050    0.69840    0.68930    1.000
    O74      O        0.26830    0.10290    0.80010    1.000
    C306     C        0.04670    0.72650    0.68420    1.000
    H192     H        0.06250    0.70110    0.69690    1.000
    N111     N        0.19260    0.77020    0.70270    1.000
    N112     N        0.14920    0.75380    0.70490    1.000
    O75      O        0.26700    0.81780    0.61090    1.000
    N113     N        0.30830    0.77430    0.36460    1.000
    C307     C        0.26210    0.82200    0.52920    1.000
    H193     H        0.24180    0.84270    0.54320    1.000
    H194     H        0.34250    0.74250    0.40920    1.000
    C308     C        0.26200    0.82110    0.48870    1.000
    H195     H        0.24140    0.84160    0.47480    1.000
    Zn31     Zn       0.75312    0.33482    0.16479    1.000
    Zn32     Zn       0.67235    0.25271    0.31354    1.000
    N114     N        0.70430    0.31240    0.30100    1.000
    N115     N        0.69770    0.35580    0.31600    1.000
    N116     N        0.73900    0.31290    0.27380    1.000
    C309     C        0.70300    0.45750    0.33360    1.000
    H196     H        0.68190    0.43980    0.34960    1.000
    C310     C        0.72800    0.38430    0.29830    1.000
    C311     C        0.70490    0.50550    0.33740    1.000
    H197     H        0.68510    0.52140    0.35570    1.000
    C312     C        0.75560    0.35860    0.27010    1.000
    H198     H        0.77950    0.37020    0.25310    1.000
    C313     C        0.73170    0.43410    0.30660    1.000
    O76      O        0.40090    0.28830    0.13200    1.000
    O77      O        0.71010    0.60270    0.33890    1.000
    C314     C        0.73580    0.53010    0.31430    1.000
    C315     C        0.42350    0.26190    0.15730    1.000
    C316     C        0.50080    0.29990    0.14740    1.000
    H199     H        0.48490    0.32500    0.13450    1.000
    C317     C        0.76160    0.45910    0.28220    1.000
    H200     H        0.78070    0.44360    0.26320    1.000
    O78      O        0.39900    0.23730    0.17610    1.000
    C318     C        0.54890    0.30060    0.15210    1.000
    H201     H        0.56610    0.32690    0.14240    1.000
    C319     C        0.47630    0.26210    0.16170    1.000
    C320     C        0.76270    0.50760    0.28640    1.000
    H202     H        0.78260    0.52570    0.26970    1.000
    C321     C        0.73950    0.58300    0.31750    1.000
    C322     C        0.65240    0.30650    0.15880    1.000
    H203     H        0.64500    0.32610    0.13700    1.000
    C323     C        0.57290    0.26450    0.17040    1.000
    N117     N        0.69400    0.30390    0.17670    1.000
    C324     C        0.62100    0.27470    0.17810    1.000
    C325     C        0.49810    0.22460    0.18000    1.000
    H204     H        0.48050    0.19840    0.18930    1.000
    O79      O        0.76830    0.60290    0.30010    1.000
    C326     C        0.54670    0.22650    0.18420    1.000
    H205     H        0.56250    0.20110    0.19690    1.000
    N118     N        0.69260    0.27020    0.20270    1.000
    N119     N        0.64920    0.25380    0.20490    1.000
    O80      O        0.76700    0.31780    0.11090    1.000
    N120     N        0.80830    0.27430    0.86460    1.000
    C327     C        0.76210    0.32200    0.02920    1.000
    H206     H        0.74180    0.34270    0.04320    1.000
    H207     H        0.84250    0.24250    0.90920    1.000
    C328     C        0.76200    0.32110    0.98870    1.000
    H208     H        0.74140    0.34160    0.97480    1.000
    Zn33     Zn       0.75315    0.25315    0.23964    1.000
    O81      O        0.79700    0.29700    0.19660    1.000
    C329     C        0.79250    0.29250    0.09240    1.000
    C330     C        0.79230    0.29230    0.04900    1.000
    C331     C        0.79280    0.29280    0.92400    1.000
    C332     C        0.79110    0.29110    0.96740    1.000
    O82      O        0.71040    0.21040    0.27920    1.000
    Zn34     Zn       0.24685    0.74685    0.23964    1.000
    O83      O        0.20300    0.70300    0.19660    1.000
    C333     C        0.20750    0.70750    0.09240    1.000
    C334     C        0.20770    0.70770    0.04900    1.000
    C335     C        0.20720    0.70720    0.92400    1.000
    C336     C        0.20890    0.70890    0.96740    1.000
    O84      O        0.28960    0.78960    0.27920    1.000
    Zn35     Zn       0.74685    0.75315    0.23964    1.000
    O85      O        0.70300    0.79700    0.19660    1.000
    C337     C        0.70750    0.79250    0.09240    1.000
    C338     C        0.70770    0.79230    0.04900    1.000
    C339     C        0.70720    0.79280    0.92400    1.000
    C340     C        0.70890    0.79110    0.96740    1.000
    O86      O        0.78960    0.71040    0.27920    1.000
    Zn36     Zn       0.25315    0.24685    0.23964    1.000
    O87      O        0.29700    0.20300    0.19660    1.000
    C341     C        0.29250    0.20750    0.09240    1.000
    C342     C        0.29230    0.20770    0.04900    1.000
    C343     C        0.29280    0.20720    0.92400    1.000
    C344     C        0.29110    0.20890    0.96740    1.000
    O88      O        0.21040    0.28960    0.27920    1.000
    Zn37     Zn       0.75315    0.74685    0.73964    1.000
    O89      O        0.79700    0.70300    0.69660    1.000
    C345     C        0.79250    0.70750    0.59240    1.000
    C346     C        0.79230    0.70770    0.54900    1.000
    C347     C        0.79280    0.70720    0.42400    1.000
    C348     C        0.79110    0.70890    0.46740    1.000
    O90      O        0.71040    0.78960    0.77920    1.000
    Zn38     Zn       0.24685    0.25315    0.73964    1.000
    O91      O        0.20300    0.29700    0.69660    1.000
    C349     C        0.20750    0.29250    0.59240    1.000
    C350     C        0.20770    0.29230    0.54900    1.000
    C351     C        0.20720    0.29280    0.42400    1.000
    C352     C        0.20890    0.29110    0.46740    1.000
    O92      O        0.28960    0.21040    0.77920    1.000
    Zn39     Zn       0.74685    0.24685    0.73964    1.000
    O93      O        0.70300    0.20300    0.69660    1.000
    C353     C        0.70750    0.20750    0.59240    1.000
    C354     C        0.70770    0.20770    0.54900    1.000
    C355     C        0.70720    0.20720    0.42400    1.000
    C356     C        0.70890    0.20890    0.46740    1.000
    O94      O        0.78960    0.28960    0.77920    1.000
    Zn40     Zn       0.25315    0.75315    0.73964    1.000
    O95      O        0.29700    0.79700    0.69660    1.000
    C357     C        0.29250    0.79250    0.59240    1.000
    C358     C        0.29230    0.79230    0.54900    1.000
    C359     C        0.29280    0.79280    0.42400    1.000
    C360     C        0.29110    0.79110    0.46740    1.000
    O96      O        0.21040    0.71040    0.77920    1.000
