data_functionalizedCrystal
_audit_creation_method	'EQeq! by Chris Wilmer'
_symmetry_space_group_name_H-M	'P1'
_symmetry_Int_Tables_number	1
_symmetry_cell_setting	triclinic
loop_
_symmetry_equiv_pos_as_xyz
  x,y,z
_cell_length_a	25.8066
_cell_length_b	25.8066
_cell_length_c	25.8066
_cell_angle_alpha	90
_cell_angle_beta	90
_cell_angle_gamma	90
loop_
_atom_site_label
_atom_site_type_symbol
_atom_site_fract_x
_atom_site_fract_y
_atom_site_fract_z
_atom_site_charge
Mof_In	In	0.2002	0.09634	0.11055	1.158
Mof_O 	O 	0.2373	0.091	0.1763	-0.638
Mof_O 	O 	0.2287	0.0261	0.417	-0.534
Mof_O 	O 	0.1669	0.1061	0.0264	-0.647
Mof_C 	C 	0.2453	0.0575	0.3163	0.176
Mof_C 	C 	0.2874	0.0413	0.3489	-0.386
Mof_C 	C 	0.2706	0.0317	0.4017	0.588
Mof_O 	O 	0.3015	0.0196	0.4374	-0.568
Mof_In	In	0.7002	0.59634	0.61055	1.173
Mof_O 	O 	0.7373	0.591	0.6763	-0.635
Mof_O 	O 	0.7287	0.5261	0.917	-0.477
Mof_O 	O 	0.6669	0.6061	0.5264	-0.64
Mof_C 	C 	0.7453	0.5575	0.8163	0.198
Mof_C 	C 	0.7874	0.5413	0.8489	-0.368
Mof_C 	C 	0.7706	0.5317	0.9017	0.575
Mof_O 	O 	0.8015	0.5196	0.9374	-0.498
Mof_In	In	0.7998	0.90366	0.11055	1.167
Mof_O 	O 	0.7627	0.909	0.1763	-0.636
Mof_O 	O 	0.7713	0.9739	0.417	-0.474
Mof_O 	O 	0.8331	0.8939	0.0264	-0.631
Mof_C 	C 	0.7547	0.9425	0.3163	0.201
Mof_C 	C 	0.7126	0.9587	0.3489	-0.361
Mof_C 	C 	0.7294	0.9683	0.4017	0.566
Mof_O 	O 	0.6985	0.9804	0.4374	-0.484
Mof_In	In	0.2998	0.40366	0.61055	1.17
Mof_O 	O 	0.2627	0.409	0.6763	-0.641
Mof_O 	O 	0.2713	0.4739	0.917	-0.481
Mof_O 	O 	0.3331	0.3939	0.5264	-0.64
Mof_C 	C 	0.2547	0.4425	0.8163	0.193
Mof_C 	C 	0.2126	0.4587	0.8489	-0.368
Mof_C 	C 	0.2294	0.4683	0.9017	0.568
Mof_O 	O 	0.1985	0.4804	0.9374	-0.494
Mof_In	In	0.7998	0.09634	0.88945	1.177
Mof_O 	O 	0.7627	0.091	0.8237	-0.642
Mof_O 	O 	0.7713	0.0261	0.583	-0.53
Mof_O 	O 	0.8331	0.1061	0.9736	-0.647
Mof_C 	C 	0.7547	0.0575	0.6837	0.184
Mof_C 	C 	0.7126	0.0413	0.6511	-0.383
Mof_C 	C 	0.7294	0.0317	0.5983	0.583
Mof_O 	O 	0.6985	0.0196	0.5626	-0.551
Mof_In	In	0.2998	0.59634	0.38945	1.17
Mof_O 	O 	0.2627	0.591	0.3237	-0.641
Mof_O 	O 	0.2713	0.5261	0.083	-0.53
Mof_O 	O 	0.3331	0.6061	0.4736	-0.64
Mof_C 	C 	0.2547	0.5575	0.1837	0.182
Mof_C 	C 	0.2126	0.5413	0.1511	-0.379
Mof_C 	C 	0.2294	0.5317	0.0983	0.58
Mof_O 	O 	0.1985	0.5196	0.0626	-0.556
Mof_In	In	0.2002	0.90366	0.88945	1.184
Mof_O 	O 	0.2373	0.909	0.8237	-0.636
Mof_O 	O 	0.2287	0.9739	0.583	-0.477
Mof_O 	O 	0.1669	0.8939	0.9736	-0.633
Mof_C 	C 	0.2453	0.9425	0.6837	0.196
Mof_C 	C 	0.2874	0.9587	0.6511	-0.363
Mof_C 	C 	0.2706	0.9683	0.5983	0.571
Mof_O 	O 	0.3015	0.9804	0.5626	-0.5
Mof_In	In	0.7002	0.40366	0.38945	1.172
Mof_O 	O 	0.7373	0.409	0.3237	-0.637
Mof_O 	O 	0.7287	0.4739	0.083	-0.527
Mof_O 	O 	0.6669	0.3939	0.4736	-0.639
Mof_C 	C 	0.7453	0.4425	0.1837	0.184
Mof_C 	C 	0.7874	0.4587	0.1511	-0.379
Mof_C 	C 	0.7706	0.4683	0.0983	0.586
Mof_O 	O 	0.8015	0.4804	0.0626	-0.56
Mof_In	In	0.11055	0.2002	0.09634	1.157
Mof_O 	O 	0.1763	0.2373	0.091	-0.639
Mof_O 	O 	0.417	0.2287	0.0261	-0.535
Mof_O 	O 	0.0264	0.1669	0.1061	-0.648
Mof_C 	C 	0.3163	0.2453	0.0575	0.176
Mof_C 	C 	0.3489	0.2874	0.0413	-0.386
Mof_C 	C 	0.4017	0.2706	0.0317	0.588
Mof_O 	O 	0.4374	0.3015	0.0196	-0.568
Mof_In	In	0.61055	0.7002	0.59634	1.173
Mof_O 	O 	0.6763	0.7373	0.591	-0.635
Mof_O 	O 	0.917	0.7287	0.5261	-0.477
Mof_O 	O 	0.5264	0.6669	0.6061	-0.64
Mof_C 	C 	0.8163	0.7453	0.5575	0.198
Mof_C 	C 	0.8489	0.7874	0.5413	-0.368
Mof_C 	C 	0.9017	0.7706	0.5317	0.575
Mof_O 	O 	0.9374	0.8015	0.5196	-0.498
Mof_In	In	0.11055	0.7998	0.90366	1.167
Mof_O 	O 	0.1763	0.7627	0.909	-0.636
Mof_O 	O 	0.417	0.7713	0.9739	-0.474
Mof_O 	O 	0.0264	0.8331	0.8939	-0.631
Mof_C 	C 	0.3163	0.7547	0.9425	0.201
Mof_C 	C 	0.3489	0.7126	0.9587	-0.361
Mof_C 	C 	0.4017	0.7294	0.9683	0.566
Mof_O 	O 	0.4374	0.6985	0.9804	-0.484
Mof_In	In	0.61055	0.2998	0.40366	1.17
Mof_O 	O 	0.6763	0.2627	0.409	-0.641
Mof_O 	O 	0.917	0.2713	0.4739	-0.481
Mof_O 	O 	0.5264	0.3331	0.3939	-0.64
Mof_C 	C 	0.8163	0.2547	0.4425	0.193
Mof_C 	C 	0.8489	0.2126	0.4587	-0.368
Mof_C 	C 	0.9017	0.2294	0.4683	0.568
Mof_O 	O 	0.9374	0.1985	0.4804	-0.494
Mof_In	In	0.88945	0.7998	0.09634	1.177
Mof_O 	O 	0.8237	0.7627	0.091	-0.642
Mof_O 	O 	0.583	0.7713	0.0261	-0.53
Mof_O 	O 	0.9736	0.8331	0.1061	-0.647
Mof_C 	C 	0.6837	0.7547	0.0575	0.184
Mof_C 	C 	0.6511	0.7126	0.0413	-0.383
Mof_C 	C 	0.5983	0.7294	0.0317	0.583
Mof_O 	O 	0.5626	0.6985	0.0196	-0.551
Mof_In	In	0.38945	0.2998	0.59634	1.17
Mof_O 	O 	0.3237	0.2627	0.591	-0.641
Mof_O 	O 	0.083	0.2713	0.5261	-0.53
Mof_O 	O 	0.4736	0.3331	0.6061	-0.64
Mof_C 	C 	0.1837	0.2547	0.5575	0.182
Mof_C 	C 	0.1511	0.2126	0.5413	-0.379
Mof_C 	C 	0.0983	0.2294	0.5317	0.58
Mof_O 	O 	0.0626	0.1985	0.5196	-0.556
Mof_In	In	0.88945	0.2002	0.90366	1.184
Mof_O 	O 	0.8237	0.2373	0.909	-0.636
Mof_O 	O 	0.583	0.2287	0.9739	-0.477
Mof_O 	O 	0.9736	0.1669	0.8939	-0.633
Mof_C 	C 	0.6837	0.2453	0.9425	0.196
Mof_C 	C 	0.6511	0.2874	0.9587	-0.363
Mof_C 	C 	0.5983	0.2706	0.9683	0.571
Mof_O 	O 	0.5626	0.3015	0.9804	-0.5
Mof_In	In	0.38945	0.7002	0.40366	1.172
Mof_O 	O 	0.3237	0.7373	0.409	-0.637
Mof_O 	O 	0.083	0.7287	0.4739	-0.527
Mof_O 	O 	0.4736	0.6669	0.3939	-0.639
Mof_C 	C 	0.1837	0.7453	0.4425	0.184
Mof_C 	C 	0.1511	0.7874	0.4587	-0.379
Mof_C 	C 	0.0983	0.7706	0.4683	0.586
Mof_O 	O 	0.0626	0.8015	0.4804	-0.56
Mof_In	In	0.09634	0.11055	0.2002	1.157
Mof_O 	O 	0.091	0.1763	0.2373	-0.639
Mof_O 	O 	0.0261	0.417	0.2287	-0.535
Mof_O 	O 	0.1061	0.0264	0.1669	-0.648
Mof_C 	C 	0.0575	0.3163	0.2453	0.176
Mof_C 	C 	0.0413	0.3489	0.2874	-0.386
Mof_C 	C 	0.0317	0.4017	0.2706	0.588
Mof_O 	O 	0.0196	0.4374	0.3015	-0.568
Mof_In	In	0.59634	0.61055	0.7002	1.173
Mof_O 	O 	0.591	0.6763	0.7373	-0.635
Mof_O 	O 	0.5261	0.917	0.7287	-0.477
Mof_O 	O 	0.6061	0.5264	0.6669	-0.64
Mof_C 	C 	0.5575	0.8163	0.7453	0.198
Mof_C 	C 	0.5413	0.8489	0.7874	-0.368
Mof_C 	C 	0.5317	0.9017	0.7706	0.575
Mof_O 	O 	0.5196	0.9374	0.8015	-0.498
Mof_In	In	0.90366	0.11055	0.7998	1.167
Mof_O 	O 	0.909	0.1763	0.7627	-0.636
Mof_O 	O 	0.9739	0.417	0.7713	-0.474
Mof_O 	O 	0.8939	0.0264	0.8331	-0.631
Mof_C 	C 	0.9425	0.3163	0.7547	0.201
Mof_C 	C 	0.9587	0.3489	0.7126	-0.361
Mof_C 	C 	0.9683	0.4017	0.7294	0.566
Mof_O 	O 	0.9804	0.4374	0.6985	-0.484
Mof_In	In	0.40366	0.61055	0.2998	1.17
Mof_O 	O 	0.409	0.6763	0.2627	-0.641
Mof_O 	O 	0.4739	0.917	0.2713	-0.481
Mof_O 	O 	0.3939	0.5264	0.3331	-0.64
Mof_C 	C 	0.4425	0.8163	0.2547	0.193
Mof_C 	C 	0.4587	0.8489	0.2126	-0.368
Mof_C 	C 	0.4683	0.9017	0.2294	0.568
Mof_O 	O 	0.4804	0.9374	0.1985	-0.494
Mof_In	In	0.09634	0.88945	0.7998	1.177
Mof_O 	O 	0.091	0.8237	0.7627	-0.642
Mof_O 	O 	0.0261	0.583	0.7713	-0.53
Mof_O 	O 	0.1061	0.9736	0.8331	-0.647
Mof_C 	C 	0.0575	0.6837	0.7547	0.184
Mof_C 	C 	0.0413	0.6511	0.7126	-0.383
Mof_C 	C 	0.0317	0.5983	0.7294	0.583
Mof_O 	O 	0.0196	0.5626	0.6985	-0.551
Mof_In	In	0.59634	0.38945	0.2998	1.17
Mof_O 	O 	0.591	0.3237	0.2627	-0.641
Mof_O 	O 	0.5261	0.083	0.2713	-0.53
Mof_O 	O 	0.6061	0.4736	0.3331	-0.64
Mof_C 	C 	0.5575	0.1837	0.2547	0.182
Mof_C 	C 	0.5413	0.1511	0.2126	-0.379
Mof_C 	C 	0.5317	0.0983	0.2294	0.58
Mof_O 	O 	0.5196	0.0626	0.1985	-0.556
Mof_In	In	0.90366	0.88945	0.2002	1.184
Mof_O 	O 	0.909	0.8237	0.2373	-0.636
Mof_O 	O 	0.9739	0.583	0.2287	-0.477
Mof_O 	O 	0.8939	0.9736	0.1669	-0.633
Mof_C 	C 	0.9425	0.6837	0.2453	0.196
Mof_C 	C 	0.9587	0.6511	0.2874	-0.363
Mof_C 	C 	0.9683	0.5983	0.2706	0.571
Mof_O 	O 	0.9804	0.5626	0.3015	-0.5
Mof_In	In	0.40366	0.38945	0.7002	1.172
Mof_O 	O 	0.409	0.3237	0.7373	-0.637
Mof_O 	O 	0.4739	0.083	0.7287	-0.527
Mof_O 	O 	0.3939	0.4736	0.6669	-0.639
Mof_C 	C 	0.4425	0.1837	0.7453	0.184
Mof_C 	C 	0.4587	0.1511	0.7874	-0.379
Mof_C 	C 	0.4683	0.0983	0.7706	0.586
Mof_O 	O 	0.4804	0.0626	0.8015	-0.56
Mof_In	In	0.09634	0.2002	0.11055	1.157
Mof_O 	O 	0.091	0.2373	0.1763	-0.639
Mof_O 	O 	0.0261	0.2287	0.417	-0.535
Mof_O 	O 	0.1061	0.1669	0.0264	-0.648
Mof_C 	C 	0.0575	0.2453	0.3163	0.176
Mof_C 	C 	0.0413	0.2874	0.3489	-0.386
Mof_C 	C 	0.0317	0.2706	0.4017	0.588
Mof_O 	O 	0.0196	0.3015	0.4374	-0.568
Mof_In	In	0.59634	0.7002	0.61055	1.173
Mof_O 	O 	0.591	0.7373	0.6763	-0.635
Mof_O 	O 	0.5261	0.7287	0.917	-0.477
Mof_O 	O 	0.6061	0.6669	0.5264	-0.64
Mof_C 	C 	0.5575	0.7453	0.8163	0.198
Mof_C 	C 	0.5413	0.7874	0.8489	-0.368
Mof_C 	C 	0.5317	0.7706	0.9017	0.575
Mof_O 	O 	0.5196	0.8015	0.9374	-0.498
Mof_In	In	0.90366	0.7998	0.11055	1.167
Mof_O 	O 	0.909	0.7627	0.1763	-0.636
Mof_O 	O 	0.9739	0.7713	0.417	-0.474
Mof_O 	O 	0.8939	0.8331	0.0264	-0.631
Mof_C 	C 	0.9425	0.7547	0.3163	0.201
Mof_C 	C 	0.9587	0.7126	0.3489	-0.361
Mof_C 	C 	0.9683	0.7294	0.4017	0.566
Mof_O 	O 	0.9804	0.6985	0.4374	-0.484
Mof_In	In	0.40366	0.2998	0.61055	1.17
Mof_O 	O 	0.409	0.2627	0.6763	-0.641
Mof_O 	O 	0.4739	0.2713	0.917	-0.481
Mof_O 	O 	0.3939	0.3331	0.5264	-0.64
Mof_C 	C 	0.4425	0.2547	0.8163	0.193
Mof_C 	C 	0.4587	0.2126	0.8489	-0.368
Mof_C 	C 	0.4683	0.2294	0.9017	0.568
Mof_O 	O 	0.4804	0.1985	0.9374	-0.494
Mof_In	In	0.09634	0.7998	0.88945	1.177
Mof_O 	O 	0.091	0.7627	0.8237	-0.642
Mof_O 	O 	0.0261	0.7713	0.583	-0.53
Mof_O 	O 	0.1061	0.8331	0.9736	-0.647
Mof_C 	C 	0.0575	0.7547	0.6837	0.184
Mof_C 	C 	0.0413	0.7126	0.6511	-0.383
Mof_C 	C 	0.0317	0.7294	0.5983	0.583
Mof_O 	O 	0.0196	0.6985	0.5626	-0.551
Mof_In	In	0.59634	0.2998	0.38945	1.17
Mof_O 	O 	0.591	0.2627	0.3237	-0.641
Mof_O 	O 	0.5261	0.2713	0.083	-0.53
Mof_O 	O 	0.6061	0.3331	0.4736	-0.64
Mof_C 	C 	0.5575	0.2547	0.1837	0.182
Mof_C 	C 	0.5413	0.2126	0.1511	-0.379
Mof_C 	C 	0.5317	0.2294	0.0983	0.58
Mof_O 	O 	0.5196	0.1985	0.0626	-0.556
Mof_In	In	0.90366	0.2002	0.88945	1.184
Mof_O 	O 	0.909	0.2373	0.8237	-0.636
Mof_O 	O 	0.9739	0.2287	0.583	-0.477
Mof_O 	O 	0.8939	0.1669	0.9736	-0.633
Mof_C 	C 	0.9425	0.2453	0.6837	0.196
Mof_C 	C 	0.9587	0.2874	0.6511	-0.363
Mof_C 	C 	0.9683	0.2706	0.5983	0.571
Mof_O 	O 	0.9804	0.3015	0.5626	-0.5
Mof_In	In	0.40366	0.7002	0.38945	1.172
Mof_O 	O 	0.409	0.7373	0.3237	-0.637
Mof_O 	O 	0.4739	0.7287	0.083	-0.527
Mof_O 	O 	0.3939	0.6669	0.4736	-0.639
Mof_C 	C 	0.4425	0.7453	0.1837	0.184
Mof_C 	C 	0.4587	0.7874	0.1511	-0.379
Mof_C 	C 	0.4683	0.7706	0.0983	0.586
Mof_O 	O 	0.4804	0.8015	0.0626	-0.56
Mof_In	In	0.2002	0.11055	0.09634	1.157
Mof_O 	O 	0.2373	0.1763	0.091	-0.639
Mof_O 	O 	0.2287	0.417	0.0261	-0.535
Mof_O 	O 	0.1669	0.0264	0.1061	-0.648
Mof_C 	C 	0.2453	0.3163	0.0575	0.176
Mof_C 	C 	0.2874	0.3489	0.0413	-0.386
Mof_C 	C 	0.2706	0.4017	0.0317	0.588
Mof_O 	O 	0.3015	0.4374	0.0196	-0.568
Mof_In	In	0.7002	0.61055	0.59634	1.173
Mof_O 	O 	0.7373	0.6763	0.591	-0.635
Mof_O 	O 	0.7287	0.917	0.5261	-0.477
Mof_O 	O 	0.6669	0.5264	0.6061	-0.64
Mof_C 	C 	0.7453	0.8163	0.5575	0.198
Mof_C 	C 	0.7874	0.8489	0.5413	-0.368
Mof_C 	C 	0.7706	0.9017	0.5317	0.575
Mof_O 	O 	0.8015	0.9374	0.5196	-0.498
Mof_In	In	0.7998	0.11055	0.90366	1.167
Mof_O 	O 	0.7627	0.1763	0.909	-0.636
Mof_O 	O 	0.7713	0.417	0.9739	-0.474
Mof_O 	O 	0.8331	0.0264	0.8939	-0.631
Mof_C 	C 	0.7547	0.3163	0.9425	0.201
Mof_C 	C 	0.7126	0.3489	0.9587	-0.361
Mof_C 	C 	0.7294	0.4017	0.9683	0.566
Mof_O 	O 	0.6985	0.4374	0.9804	-0.484
Mof_In	In	0.2998	0.61055	0.40366	1.17
Mof_O 	O 	0.2627	0.6763	0.409	-0.641
Mof_O 	O 	0.2713	0.917	0.4739	-0.481
Mof_O 	O 	0.3331	0.5264	0.3939	-0.64
Mof_C 	C 	0.2547	0.8163	0.4425	0.193
Mof_C 	C 	0.2126	0.8489	0.4587	-0.368
Mof_C 	C 	0.2294	0.9017	0.4683	0.568
Mof_O 	O 	0.1985	0.9374	0.4804	-0.494
Mof_In	In	0.7998	0.88945	0.09634	1.177
Mof_O 	O 	0.7627	0.8237	0.091	-0.642
Mof_O 	O 	0.7713	0.583	0.0261	-0.53
Mof_O 	O 	0.8331	0.9736	0.1061	-0.647
Mof_C 	C 	0.7547	0.6837	0.0575	0.184
Mof_C 	C 	0.7126	0.6511	0.0413	-0.383
Mof_C 	C 	0.7294	0.5983	0.0317	0.583
Mof_O 	O 	0.6985	0.5626	0.0196	-0.551
Mof_In	In	0.2998	0.38945	0.59634	1.17
Mof_O 	O 	0.2627	0.3237	0.591	-0.641
Mof_O 	O 	0.2713	0.083	0.5261	-0.53
Mof_O 	O 	0.3331	0.4736	0.6061	-0.64
Mof_C 	C 	0.2547	0.1837	0.5575	0.182
Mof_C 	C 	0.2126	0.1511	0.5413	-0.379
Mof_C 	C 	0.2294	0.0983	0.5317	0.58
Mof_O 	O 	0.1985	0.0626	0.5196	-0.556
Mof_In	In	0.2002	0.88945	0.90366	1.184
Mof_O 	O 	0.2373	0.8237	0.909	-0.636
Mof_O 	O 	0.2287	0.583	0.9739	-0.477
Mof_O 	O 	0.1669	0.9736	0.8939	-0.633
Mof_C 	C 	0.2453	0.6837	0.9425	0.196
Mof_C 	C 	0.2874	0.6511	0.9587	-0.363
Mof_C 	C 	0.2706	0.5983	0.9683	0.571
Mof_O 	O 	0.3015	0.5626	0.9804	-0.5
Mof_In	In	0.7002	0.38945	0.40366	1.172
Mof_O 	O 	0.7373	0.3237	0.409	-0.637
Mof_O 	O 	0.7287	0.083	0.4739	-0.527
Mof_O 	O 	0.6669	0.4736	0.3939	-0.639
Mof_C 	C 	0.7453	0.1837	0.4425	0.184
Mof_C 	C 	0.7874	0.1511	0.4587	-0.379
Mof_C 	C 	0.7706	0.0983	0.4683	0.586
Mof_O 	O 	0.8015	0.0626	0.4804	-0.56
Mof_In	In	0.11055	0.09634	0.2002	1.157
Mof_O 	O 	0.1763	0.091	0.2373	-0.639
Mof_O 	O 	0.417	0.0261	0.2287	-0.535
Mof_O 	O 	0.0264	0.1061	0.1669	-0.648
Mof_C 	C 	0.3163	0.0575	0.2453	0.176
Mof_C 	C 	0.3489	0.0413	0.2874	-0.386
Mof_C 	C 	0.4017	0.0317	0.2706	0.588
Mof_O 	O 	0.4374	0.0196	0.3015	-0.568
Mof_In	In	0.61055	0.59634	0.7002	1.173
Mof_O 	O 	0.6763	0.591	0.7373	-0.635
Mof_O 	O 	0.917	0.5261	0.7287	-0.477
Mof_O 	O 	0.5264	0.6061	0.6669	-0.64
Mof_C 	C 	0.8163	0.5575	0.7453	0.198
Mof_C 	C 	0.8489	0.5413	0.7874	-0.368
Mof_C 	C 	0.9017	0.5317	0.7706	0.575
Mof_O 	O 	0.9374	0.5196	0.8015	-0.498
Mof_In	In	0.11055	0.90366	0.7998	1.167
Mof_O 	O 	0.1763	0.909	0.7627	-0.636
Mof_O 	O 	0.417	0.9739	0.7713	-0.474
Mof_O 	O 	0.0264	0.8939	0.8331	-0.631
Mof_C 	C 	0.3163	0.9425	0.7547	0.201
Mof_C 	C 	0.3489	0.9587	0.7126	-0.361
Mof_C 	C 	0.4017	0.9683	0.7294	0.566
Mof_O 	O 	0.4374	0.9804	0.6985	-0.484
Mof_In	In	0.61055	0.40366	0.2998	1.17
Mof_O 	O 	0.6763	0.409	0.2627	-0.641
Mof_O 	O 	0.917	0.4739	0.2713	-0.481
Mof_O 	O 	0.5264	0.3939	0.3331	-0.64
Mof_C 	C 	0.8163	0.4425	0.2547	0.193
Mof_C 	C 	0.8489	0.4587	0.2126	-0.368
Mof_C 	C 	0.9017	0.4683	0.2294	0.568
Mof_O 	O 	0.9374	0.4804	0.1985	-0.494
Mof_In	In	0.88945	0.09634	0.7998	1.177
Mof_O 	O 	0.8237	0.091	0.7627	-0.642
Mof_O 	O 	0.583	0.0261	0.7713	-0.53
Mof_O 	O 	0.9736	0.1061	0.8331	-0.647
Mof_C 	C 	0.6837	0.0575	0.7547	0.184
Mof_C 	C 	0.6511	0.0413	0.7126	-0.383
Mof_C 	C 	0.5983	0.0317	0.7294	0.583
Mof_O 	O 	0.5626	0.0196	0.6985	-0.551
Mof_In	In	0.38945	0.59634	0.2998	1.17
Mof_O 	O 	0.3237	0.591	0.2627	-0.641
Mof_O 	O 	0.083	0.5261	0.2713	-0.53
Mof_O 	O 	0.4736	0.6061	0.3331	-0.64
Mof_C 	C 	0.1837	0.5575	0.2547	0.182
Mof_C 	C 	0.1511	0.5413	0.2126	-0.379
Mof_C 	C 	0.0983	0.5317	0.2294	0.58
Mof_O 	O 	0.0626	0.5196	0.1985	-0.556
Mof_In	In	0.88945	0.90366	0.2002	1.184
Mof_O 	O 	0.8237	0.909	0.2373	-0.636
Mof_O 	O 	0.583	0.9739	0.2287	-0.477
Mof_O 	O 	0.9736	0.8939	0.1669	-0.633
Mof_C 	C 	0.6837	0.9425	0.2453	0.196
Mof_C 	C 	0.6511	0.9587	0.2874	-0.363
Mof_C 	C 	0.5983	0.9683	0.2706	0.571
Mof_O 	O 	0.5626	0.9804	0.3015	-0.5
Mof_In	In	0.38945	0.40366	0.7002	1.172
Mof_O 	O 	0.3237	0.409	0.7373	-0.637
Mof_O 	O 	0.083	0.4739	0.7287	-0.527
Mof_O 	O 	0.4736	0.3939	0.6669	-0.639
Mof_C 	C 	0.1837	0.4425	0.7453	0.184
Mof_C 	C 	0.1511	0.4587	0.7874	-0.379
Mof_C 	C 	0.0983	0.4683	0.7706	0.586
Mof_O 	O 	0.0626	0.4804	0.8015	-0.56
Mof_In	In	0.211	0	0.5	-0.122
Mof_In	In	0.2595	0	0.5	1.158
Mof_In	In	0.711	0.5	-0	-0.134
Mof_In	In	0.7595	0.5	-0	1.17
Mof_In	In	0.789	0	0.5	-0.068
Mof_In	In	0.7405	0	0.5	1.149
Mof_In	In	0.289	0.5	-0	-0.063
Mof_In	In	0.2405	0.5	-0	1.139
Mof_In	In	0.5	0.211	-0	-0.122
Mof_In	In	0.5	0.2595	-0	1.158
Mof_In	In	1.8747e-33	0.711	0.5	-0.134
Mof_In	In	1.8747e-33	0.7595	0.5	1.17
Mof_In	In	0.5	0.789	-0	-0.068
Mof_In	In	0.5	0.7405	-0	1.149
Mof_In	In	-4.00044e-33	0.289	0.5	-0.063
Mof_In	In	-9.87558e-33	0.2405	0.5	1.139
Mof_In	In	2.25991e-33	0.5	0.211	-0.122
Mof_In	In	-1.9646e-33	0.5	0.2595	1.158
Mof_In	In	0.5	0	0.711	-0.134
Mof_In	In	0.5	0	0.7595	1.17
Mof_In	In	-8.792e-33	0.5	0.789	-0.068
Mof_In	In	-8.97384e-33	0.5	0.7405	1.149
Mof_In	In	0.5	-2.93757e-33	0.289	-0.063
Mof_In	In	0.5	-2.93757e-33	0.2405	1.139
Mof_In	In	1.8747e-33	0.211	0.5	-0.122
Mof_In	In	-4.00044e-33	0.2595	0.5	1.158
Mof_In	In	0.5	0.711	-0	-0.134
Mof_In	In	0.5	0.7595	-0	1.17
Mof_In	In	-4.00044e-33	0.789	0.5	-0.068
Mof_In	In	-4.00044e-33	0.7405	0.5	1.149
Mof_In	In	0.5	0.289	-0	-0.063
Mof_In	In	0.5	0.2405	-0	1.139
Mof_In	In	0.211	0.5	-0	-0.122
Mof_In	In	0.2595	0.5	-0	1.158
Mof_In	In	0.711	0	0.5	-0.134
Mof_In	In	0.7595	0	0.5	1.17
Mof_In	In	0.789	0.5	-0	-0.068
Mof_In	In	0.7405	0.5	-0	1.149
Mof_In	In	0.289	0	0.5	-0.063
Mof_In	In	0.2405	0	0.5	1.139
Mof_In	In	0.5	0	0.211	-0.122
Mof_In	In	0.5	0	0.2595	1.158
Mof_In	In	-3.20931e-33	0.5	0.711	-0.134
Mof_In	In	-3.02747e-33	0.5	0.7595	1.17
Mof_In	In	0.5	0	0.789	-0.068
Mof_In	In	0.5	0	0.7405	1.149
Mof_In	In	-4.79156e-33	0.5	0.289	-0.063
Mof_In	In	-7.91098e-33	0.5	0.2405	1.139
Mof_O 	O 	0.2647	0.0702	0.0702	-0.449
Mof_O 	O 	0.7647	0.5702	0.5702	-0.405
Mof_O 	O 	0.7353	0.9298	0.0702	-0.411
Mof_O 	O 	0.2353	0.4298	0.5702	-0.417
Mof_O 	O 	0.7353	0.0702	0.9298	-0.411
Mof_O 	O 	0.2353	0.5702	0.4298	-0.417
Mof_O 	O 	0.2647	0.9298	0.9298	-0.374
Mof_O 	O 	0.7647	0.4298	0.4298	-0.406
Mof_O 	O 	0.0702	0.2647	0.0702	-0.449
Mof_O 	O 	0.5702	0.7647	0.5702	-0.405
Mof_O 	O 	0.0702	0.7353	0.9298	-0.411
Mof_O 	O 	0.5702	0.2353	0.4298	-0.417
Mof_O 	O 	0.9298	0.7353	0.0702	-0.411
Mof_O 	O 	0.4298	0.2353	0.5702	-0.417
Mof_O 	O 	0.9298	0.2647	0.9298	-0.374
Mof_O 	O 	0.4298	0.7647	0.4298	-0.406
Mof_O 	O 	0.0702	0.0702	0.2647	-0.449
Mof_O 	O 	0.5702	0.5702	0.7647	-0.405
Mof_O 	O 	0.9298	0.0702	0.7353	-0.411
Mof_O 	O 	0.4298	0.5702	0.2353	-0.417
Mof_O 	O 	0.0702	0.9298	0.7353	-0.411
Mof_O 	O 	0.5702	0.4298	0.2353	-0.417
Mof_O 	O 	0.9298	0.9298	0.2647	-0.374
Mof_O 	O 	0.4298	0.4298	0.7647	-0.406
Mof_O 	O 	0.137	0.137	0.137	-1.15
Mof_O 	O 	0.637	0.637	0.637	-1.161
Mof_O 	O 	0.863	0.863	0.137	-1.164
Mof_O 	O 	0.363	0.363	0.637	-1.161
Mof_O 	O 	0.863	0.137	0.863	-1.164
Mof_O 	O 	0.363	0.637	0.363	-1.161
Mof_O 	O 	0.137	0.863	0.863	-1.164
Mof_O 	O 	0.637	0.363	0.363	-1.161
Mof_C 	C 	0.1087	0.1087	0.9581	-0.177
Mof_C 	C 	0.1306	0.1306	0.0067	0.505
Mof_C 	C 	0.6087	0.6087	0.4581	-0.246
Mof_C 	C 	0.6306	0.6306	0.5067	0.594
Mof_C 	C 	0.8913	0.8913	0.9581	-0.157
Mof_C 	C 	0.8694	0.8694	0.0067	0.514
Mof_C 	C 	0.3913	0.3913	0.4581	-0.246
Mof_C 	C 	0.3694	0.3694	0.5067	0.593
Mof_C 	C 	0.8913	0.1087	0.0419	-0.325
Mof_C 	C 	0.8694	0.1306	0.9933	0.677
Mof_C 	C 	0.3913	0.6087	0.5419	-0.246
Mof_C 	C 	0.3694	0.6306	0.4933	0.593
Mof_C 	C 	0.1087	0.8913	0.0419	-0.325
Mof_C 	C 	0.1306	0.8694	0.9933	0.677
Mof_C 	C 	0.6087	0.3913	0.5419	-0.246
Mof_C 	C 	0.6306	0.3694	0.4933	0.593
Mof_C 	C 	0.9581	0.1087	0.1087	-0.177
Mof_C 	C 	0.0067	0.1306	0.1306	0.505
Mof_C 	C 	0.4581	0.6087	0.6087	-0.246
Mof_C 	C 	0.5067	0.6306	0.6306	0.594
Mof_C 	C 	0.9581	0.8913	0.8913	-0.157
Mof_C 	C 	0.0067	0.8694	0.8694	0.514
Mof_C 	C 	0.4581	0.3913	0.3913	-0.246
Mof_C 	C 	0.5067	0.3694	0.3694	0.593
Mof_C 	C 	0.0419	0.8913	0.1087	-0.325
Mof_C 	C 	0.9933	0.8694	0.1306	0.677
Mof_C 	C 	0.5419	0.3913	0.6087	-0.246
Mof_C 	C 	0.4933	0.3694	0.6306	0.593
Mof_C 	C 	0.0419	0.1087	0.8913	-0.325
Mof_C 	C 	0.9933	0.1306	0.8694	0.677
Mof_C 	C 	0.5419	0.6087	0.3913	-0.246
Mof_C 	C 	0.4933	0.6306	0.3694	0.593
Mof_C 	C 	0.1087	0.9581	0.1087	-0.177
Mof_C 	C 	0.1306	0.0067	0.1306	0.505
Mof_C 	C 	0.6087	0.4581	0.6087	-0.246
Mof_C 	C 	0.6306	0.5067	0.6306	0.594
Mof_C 	C 	0.8913	0.9581	0.8913	-0.157
Mof_C 	C 	0.8694	0.0067	0.8694	0.514
Mof_C 	C 	0.3913	0.4581	0.3913	-0.246
Mof_C 	C 	0.3694	0.5067	0.3694	0.593
Mof_C 	C 	0.1087	0.0419	0.8913	-0.325
Mof_C 	C 	0.1306	0.9933	0.8694	0.677
Mof_C 	C 	0.6087	0.5419	0.3913	-0.246
Mof_C 	C 	0.6306	0.4933	0.3694	0.593
Mof_C 	C 	0.8913	0.0419	0.1087	-0.325
Mof_C 	C 	0.8694	0.9933	0.1306	0.677
Mof_C 	C 	0.3913	0.5419	0.6087	-0.246
Mof_C 	C 	0.3694	0.4933	0.6306	0.593
Mof_C 	C 	0.0633	0.1317	0.9367	0.171
Mof_C 	C 	0.5633	0.6317	0.4367	0.174
Mof_C 	C 	0.9367	0.8683	0.9367	0.196
Mof_C 	C 	0.4367	0.3683	0.4367	0.172
Mof_C 	C 	0.9367	0.1317	0.0633	0.171
Mof_C 	C 	0.4367	0.6317	0.5633	0.174
Mof_C 	C 	0.0633	0.8683	0.0633	0.155
Mof_C 	C 	0.5633	0.3683	0.5633	0.172
Mof_C 	C 	0.9367	0.0633	0.1317	0.171
Mof_C 	C 	0.4367	0.5633	0.6317	0.174
Mof_C 	C 	0.9367	0.9367	0.8683	0.196
Mof_C 	C 	0.4367	0.4367	0.3683	0.172
Mof_C 	C 	0.0633	0.9367	0.1317	0.171
Mof_C 	C 	0.5633	0.4367	0.6317	0.174
Mof_C 	C 	0.0633	0.0633	0.8683	0.155
Mof_C 	C 	0.5633	0.5633	0.3683	0.172
Mof_C 	C 	0.1317	0.9367	0.0633	0.171
Mof_C 	C 	0.6317	0.4367	0.5633	0.174
Mof_C 	C 	0.8683	0.9367	0.9367	0.196
Mof_C 	C 	0.3683	0.4367	0.4367	0.172
Mof_C 	C 	0.1317	0.0633	0.9367	0.171
Mof_C 	C 	0.6317	0.5633	0.4367	0.174
Mof_C 	C 	0.8683	0.0633	0.0633	0.155
Mof_C 	C 	0.3683	0.5633	0.5633	0.172
Mof_C 	C 	0.2221	0.0834	0.2221	0.551
Mof_C 	C 	0.2627	0.0703	0.2627	-0.222
Mof_C 	C 	0.3306	0.0392	0.3306	0.363
Mof_C 	C 	0.7221	0.5834	0.7221	0.561
Mof_C 	C 	0.7627	0.5703	0.7627	-0.218
Mof_C 	C 	0.8306	0.5392	0.8306	0.384
Mof_C 	C 	0.7779	0.9166	0.2221	0.565
Mof_C 	C 	0.7373	0.9297	0.2627	-0.219
Mof_C 	C 	0.6694	0.9608	0.3306	0.377
Mof_C 	C 	0.2779	0.4166	0.7221	0.559
Mof_C 	C 	0.2373	0.4297	0.7627	-0.221
Mof_C 	C 	0.1694	0.4608	0.8306	0.369
Mof_C 	C 	0.7779	0.0834	0.7779	0.557
Mof_C 	C 	0.7373	0.0703	0.7373	-0.222
Mof_C 	C 	0.6694	0.0392	0.6694	0.362
Mof_C 	C 	0.2779	0.5834	0.2779	0.558
Mof_C 	C 	0.2373	0.5703	0.2373	-0.222
Mof_C 	C 	0.1694	0.5392	0.1694	0.357
Mof_C 	C 	0.2221	0.9166	0.7779	0.565
Mof_C 	C 	0.2627	0.9297	0.7373	-0.219
Mof_C 	C 	0.3306	0.9608	0.6694	0.377
Mof_C 	C 	0.7221	0.4166	0.2779	0.559
Mof_C 	C 	0.7627	0.4297	0.2373	-0.221
Mof_C 	C 	0.8306	0.4608	0.1694	0.369
Mof_C 	C 	0.2221	0.2221	0.0834	0.551
Mof_C 	C 	0.2627	0.2627	0.0703	-0.222
Mof_C 	C 	0.3306	0.3306	0.0392	0.363
Mof_C 	C 	0.7221	0.7221	0.5834	0.561
Mof_C 	C 	0.7627	0.7627	0.5703	-0.218
Mof_C 	C 	0.8306	0.8306	0.5392	0.384
Mof_C 	C 	0.2221	0.7779	0.9166	0.565
Mof_C 	C 	0.2627	0.7373	0.9297	-0.219
Mof_C 	C 	0.3306	0.6694	0.9608	0.377
Mof_C 	C 	0.7221	0.2779	0.4166	0.559
Mof_C 	C 	0.7627	0.2373	0.4297	-0.221
Mof_C 	C 	0.8306	0.1694	0.4608	0.369
Mof_C 	C 	0.7779	0.7779	0.0834	0.557
Mof_C 	C 	0.7373	0.7373	0.0703	-0.222
Mof_C 	C 	0.6694	0.6694	0.0392	0.362
Mof_C 	C 	0.2779	0.2779	0.5834	0.558
Mof_C 	C 	0.2373	0.2373	0.5703	-0.222
Mof_C 	C 	0.1694	0.1694	0.5392	0.357
Mof_C 	C 	0.7779	0.2221	0.9166	0.565
Mof_C 	C 	0.7373	0.2627	0.9297	-0.219
Mof_C 	C 	0.6694	0.3306	0.9608	0.377
Mof_C 	C 	0.2779	0.7221	0.4166	0.559
Mof_C 	C 	0.2373	0.7627	0.4297	-0.221
Mof_C 	C 	0.1694	0.8306	0.4608	0.369
Mof_C 	C 	0.0834	0.2221	0.2221	0.551
Mof_C 	C 	0.0703	0.2627	0.2627	-0.222
Mof_C 	C 	0.0392	0.3306	0.3306	0.363
Mof_C 	C 	0.5834	0.7221	0.7221	0.561
Mof_C 	C 	0.5703	0.7627	0.7627	-0.218
Mof_C 	C 	0.5392	0.8306	0.8306	0.384
Mof_C 	C 	0.9166	0.2221	0.7779	0.565
Mof_C 	C 	0.9297	0.2627	0.7373	-0.219
Mof_C 	C 	0.9608	0.3306	0.6694	0.377
Mof_C 	C 	0.4166	0.7221	0.2779	0.559
Mof_C 	C 	0.4297	0.7627	0.2373	-0.221
Mof_C 	C 	0.4608	0.8306	0.1694	0.369
Mof_C 	C 	0.0834	0.7779	0.7779	0.557
Mof_C 	C 	0.0703	0.7373	0.7373	-0.222
Mof_C 	C 	0.0392	0.6694	0.6694	0.362
Mof_C 	C 	0.5834	0.2779	0.2779	0.558
Mof_C 	C 	0.5703	0.2373	0.2373	-0.222
Mof_C 	C 	0.5392	0.1694	0.1694	0.357
Mof_C 	C 	0.9166	0.7779	0.2221	0.565
Mof_C 	C 	0.9297	0.7373	0.2627	-0.219
Mof_C 	C 	0.9608	0.6694	0.3306	0.377
Mof_C 	C 	0.4166	0.2779	0.7221	0.559
Mof_C 	C 	0.4297	0.2373	0.7627	-0.221
Mof_C 	C 	0.4608	0.1694	0.8306	0.369
_end
