# CIF file generated by openbabel 3.1.0, see https://openbabel.org
data_I
_chemical_name_common 'image0'
_cell_length_a 34.9043
_cell_length_b 14.955
_cell_length_c 30.3469
_cell_angle_alpha 90
_cell_angle_beta 100.074
_cell_angle_gamma 90
_space_group_name_H-M_alt 'P 1'
_space_group_name_Hall 'P 1'
loop_
    _symmetry_equiv_pos_as_xyz
    x,y,z
loop_
    _atom_site_label
    _atom_site_type_symbol
    _atom_site_fract_x
    _atom_site_fract_y
    _atom_site_fract_z
    _atom_site_occupancy
    I1       I        0.97985    0.34520    0.86483    1.000
    Zn1      Zn       0.92055    0.37438    0.90318    1.000
    N1       N        0.88242    0.44500    0.85569    1.000
    I2       I        0.88610    0.26840    0.94117    1.000
    N2       N        0.93573    0.48060    0.94700    1.000
    C1       C        0.91060    0.50540    0.97250    1.000
    C2       C        0.96660    0.53210    0.94680    1.000
    H1       H        0.88830    0.46920    0.97260    1.000
    C3       C        0.91500    0.58120    0.99880    1.000
    C4       C        0.97308    0.60950    0.97220    1.000
    H2       H        0.98510    0.51530    0.92870    1.000
    C5       C        0.94695    0.63410    0.99850    1.000
    H3       H        0.89630    0.59630    0.01690    1.000
    H4       H        0.99550    0.64500    0.97120    1.000
    C6       C        0.95193    0.71660    0.02650    1.000
    N3       N        0.98157    0.77060    0.02177    1.000
    N4       N        0.92766    0.72720    0.05540    1.000
    C7       C        0.98578    0.83950    0.05030    1.000
    C8       C        0.93392    0.80050    0.08090    1.000
    C9       C        0.02014    0.89800    0.05050    1.000
    N5       N        0.96286    0.85850    0.07983    1.000
    C10      C        0.90822    0.81600    0.11380    1.000
    C11      C        0.03870    0.90420    0.01620    1.000
    C12      C        0.03500    0.94300    0.08840    1.000
    C13      C        0.91270    0.88850    0.14120    1.000
    C14      C        0.87840    0.76000    0.11730    1.000
    C15      C        0.07090    0.95830    0.01850    1.000
    H5       H        0.02980    0.87100    0.98970    1.000
    H6       H        0.02270    0.94000    0.11390    1.000
    C16      C        0.06810    0.99300    0.08930    1.000
    C17      C        0.88830    0.90030    0.17150    1.000
    H7       H        0.93260    0.93090    0.13940    1.000
    C18      C        0.85540    0.77560    0.14830    1.000
    H8       H        0.87350    0.70970    0.09800    1.000
    H9       H        0.08360    0.96160    0.99340    1.000
    N6       N        0.08467    0.00560    0.05430    1.000
    H10      H        0.07960    0.01990    0.11690    1.000
    N7       N        0.86102    0.84370    0.17710    1.000
    H11      H        0.89140    0.95270    0.18950    1.000
    H12      H        0.83430    0.73600    0.14960    1.000
    Zn2      Zn       0.13142    0.09179    0.05935    1.000
    Zn3      Zn       0.83033    0.85665    0.22889    1.000
    I3       I        0.11095    0.22964    0.09500    1.000
    I4       I        0.15695    0.07610    0.98435    1.000
    N8       N        0.17261    0.02630    0.10550    1.000
    I5       I        0.88059    0.83269    0.30148    1.000
    N9       N        0.81684    0.99190    0.22530    1.000
    I6       I        0.77132    0.75916    0.20838    1.000
    C19      C        0.17740    0.93970    0.10310    1.000
    C20      C        0.19710    0.07190    0.13610    1.000
    H13      H        0.16020    0.90720    0.08110    1.000
    C21      C        0.20620    0.89290    0.13120    1.000
    C22      C        0.22610    0.03130    0.16520    1.000
    H14      H        0.19410    0.13490    0.13770    1.000
    H15      H        0.20870    0.83000    0.12820    1.000
    C23      C        0.23109    0.93930    0.16320    1.000
    H16      H        0.24290    0.06580    0.18670    1.000
    C24      C        0.26238    0.89520    0.19450    1.000
    N10      N        0.26802    0.80710    0.18989    1.000
    N11      N        0.28270    0.94700    0.22648    1.000
    C25      C        0.29668    0.77280    0.21970    1.000
    C26      C        0.31176    0.90550    0.25320    1.000
    C27      C        0.30338    0.67460    0.22060    1.000
    N12      N        0.31999    0.81930    0.25125    1.000
    C28      C        0.33586    0.95870    0.28900    1.000
    C29      C        0.33120    0.63860    0.25360    1.000
    C30      C        0.28200    0.61720    0.19140    1.000
    C31      C        0.32758    0.04700    0.29680    1.000
    C32      C        0.36820    0.91990    0.31420    1.000
    H17      H        0.34620    0.67610    0.27530    1.000
    C33      C        0.33710    0.54720    0.25460    1.000
    C34      C        0.28980    0.52690    0.19470    1.000
    H18      H        0.26180    0.63920    0.16880    1.000
    C35      C        0.35090    0.09240    0.33080    1.000
    H19      H        0.30610    0.07600    0.27900    1.000
    H20      H        0.37450    0.85920    0.30960    1.000
    C36      C        0.39100    0.97080    0.34590    1.000
    H21      H        0.35650    0.52290    0.27730    1.000
    H22      H        0.27470    0.48800    0.17380    1.000
    H23      H        0.34450    0.15240    0.33680    1.000
    H24      H        0.41410    0.94490    0.36190    1.000
    I7       I        0.97794    0.33220    0.86930    1.000
    I8       I        0.87530    0.27100    0.94417    1.000
    I9       I        0.65412    0.39380    0.48940    1.000
    I10      I        0.61487    0.26600    0.60400    1.000
    I11      I        0.36870    0.67000    0.79940    1.000
    I12      I        0.26310    0.72610    0.69870    1.000
    I13      I        0.47985    0.84520    0.86483    1.000
    Zn4      Zn       0.42055    0.87438    0.90318    1.000
    N13      N        0.38242    0.94500    0.85569    1.000
    I14      I        0.38610    0.76840    0.94117    1.000
    N14      N        0.43573    0.98060    0.94700    1.000
    C37      C        0.41060    0.00540    0.97250    1.000
    C38      C        0.46660    0.03210    0.94680    1.000
    H25      H        0.38830    0.96920    0.97260    1.000
    C39      C        0.41500    0.08120    0.99880    1.000
    C40      C        0.47308    0.10950    0.97220    1.000
    H26      H        0.48510    0.01530    0.92870    1.000
    C41      C        0.44695    0.13410    0.99850    1.000
    H27      H        0.39630    0.09630    0.01690    1.000
    H28      H        0.49550    0.14500    0.97120    1.000
    C42      C        0.45193    0.21660    0.02650    1.000
    N15      N        0.48157    0.27060    0.02177    1.000
    N16      N        0.42766    0.22720    0.05540    1.000
    C43      C        0.48578    0.33950    0.05030    1.000
    C44      C        0.43392    0.30050    0.08090    1.000
    C45      C        0.52014    0.39800    0.05050    1.000
    N17      N        0.46286    0.35850    0.07983    1.000
    C46      C        0.40822    0.31600    0.11380    1.000
    C47      C        0.53870    0.40420    0.01620    1.000
    C48      C        0.53500    0.44300    0.08840    1.000
    C49      C        0.41270    0.38850    0.14120    1.000
    C50      C        0.37840    0.26000    0.11730    1.000
    C51      C        0.57090    0.45830    0.01850    1.000
    H29      H        0.52980    0.37100    0.98970    1.000
    H30      H        0.52270    0.44000    0.11390    1.000
    C52      C        0.56810    0.49300    0.08930    1.000
    C53      C        0.38830    0.40030    0.17150    1.000
    H31      H        0.43260    0.43090    0.13940    1.000
    C54      C        0.35540    0.27560    0.14830    1.000
    H32      H        0.37350    0.20970    0.09800    1.000
    H33      H        0.58360    0.46160    0.99340    1.000
    N18      N        0.58467    0.50560    0.05430    1.000
    H34      H        0.57960    0.51990    0.11690    1.000
    N19      N        0.36102    0.34370    0.17710    1.000
    H35      H        0.39140    0.45270    0.18950    1.000
    H36      H        0.33430    0.23600    0.14960    1.000
    Zn5      Zn       0.63142    0.59179    0.05935    1.000
    Zn6      Zn       0.33033    0.35665    0.22889    1.000
    I15      I        0.61095    0.72964    0.09500    1.000
    I16      I        0.65695    0.57610    0.98435    1.000
    N20      N        0.67261    0.52630    0.10550    1.000
    I17      I        0.38059    0.33269    0.30148    1.000
    N21      N        0.31684    0.49190    0.22530    1.000
    I18      I        0.27132    0.25916    0.20838    1.000
    C55      C        0.67740    0.43970    0.10310    1.000
    C56      C        0.69710    0.57190    0.13610    1.000
    H37      H        0.66020    0.40720    0.08110    1.000
    C57      C        0.70620    0.39290    0.13120    1.000
    C58      C        0.72610    0.53130    0.16520    1.000
    H38      H        0.69410    0.63490    0.13770    1.000
    H39      H        0.70870    0.33000    0.12820    1.000
    C59      C        0.73109    0.43930    0.16320    1.000
    H40      H        0.74290    0.56580    0.18670    1.000
    C60      C        0.76238    0.39520    0.19450    1.000
    N22      N        0.76802    0.30710    0.18989    1.000
    N23      N        0.78270    0.44700    0.22648    1.000
    C61      C        0.79668    0.27280    0.21970    1.000
    C62      C        0.81176    0.40550    0.25320    1.000
    C63      C        0.80338    0.17460    0.22060    1.000
    N24      N        0.81999    0.31930    0.25125    1.000
    C64      C        0.83586    0.45870    0.28900    1.000
    C65      C        0.83120    0.13860    0.25360    1.000
    C66      C        0.78200    0.11720    0.19140    1.000
    C67      C        0.82758    0.54700    0.29680    1.000
    C68      C        0.86820    0.41990    0.31420    1.000
    H41      H        0.84620    0.17610    0.27530    1.000
    C69      C        0.83710    0.04720    0.25460    1.000
    C70      C        0.78980    0.02690    0.19470    1.000
    H42      H        0.76180    0.13920    0.16880    1.000
    C71      C        0.85090    0.59240    0.33080    1.000
    H43      H        0.80610    0.57600    0.27900    1.000
    H44      H        0.87450    0.35920    0.30960    1.000
    C72      C        0.89100    0.47080    0.34590    1.000
    H45      H        0.85650    0.02290    0.27730    1.000
    H46      H        0.77470    0.98800    0.17380    1.000
    H47      H        0.84450    0.65240    0.33680    1.000
    H48      H        0.91410    0.44490    0.36190    1.000
    I19      I        0.47794    0.83220    0.86930    1.000
    I20      I        0.37530    0.77100    0.94417    1.000
    I21      I        0.15412    0.89380    0.48940    1.000
    I22      I        0.11487    0.76600    0.60400    1.000
    I23      I        0.86870    0.17000    0.79940    1.000
    I24      I        0.76310    0.22610    0.69870    1.000
    I25      I        0.97985    0.65480    0.36483    1.000
    Zn7      Zn       0.92055    0.62562    0.40318    1.000
    N25      N        0.88242    0.55500    0.35569    1.000
    I26      I        0.88610    0.73160    0.44117    1.000
    N26      N        0.93573    0.51940    0.44700    1.000
    C73      C        0.91060    0.49460    0.47250    1.000
    C74      C        0.96660    0.46790    0.44680    1.000
    H49      H        0.88830    0.53080    0.47260    1.000
    C75      C        0.91500    0.41880    0.49880    1.000
    C76      C        0.97308    0.39050    0.47220    1.000
    H50      H        0.98510    0.48470    0.42870    1.000
    C77      C        0.94695    0.36590    0.49850    1.000
    H51      H        0.89630    0.40370    0.51690    1.000
    H52      H        0.99550    0.35500    0.47120    1.000
    C78      C        0.95193    0.28340    0.52650    1.000
    N27      N        0.98157    0.22940    0.52177    1.000
    N28      N        0.92766    0.27280    0.55540    1.000
    C79      C        0.98578    0.16050    0.55030    1.000
    C80      C        0.93392    0.19950    0.58090    1.000
    C81      C        0.02014    0.10200    0.55050    1.000
    N29      N        0.96286    0.14150    0.57983    1.000
    C82      C        0.90822    0.18400    0.61380    1.000
    C83      C        0.03870    0.09580    0.51620    1.000
    C84      C        0.03500    0.05700    0.58840    1.000
    C85      C        0.91270    0.11150    0.64120    1.000
    C86      C        0.87840    0.24000    0.61730    1.000
    C87      C        0.07090    0.04170    0.51850    1.000
    H53      H        0.02980    0.12900    0.48970    1.000
    H54      H        0.02270    0.06000    0.61390    1.000
    C88      C        0.06810    0.00700    0.58930    1.000
    C89      C        0.88830    0.09970    0.67150    1.000
    H55      H        0.93260    0.06910    0.63940    1.000
    C90      C        0.85540    0.22440    0.64830    1.000
    H56      H        0.87350    0.29030    0.59800    1.000
    H57      H        0.08360    0.03840    0.49340    1.000
    N30      N        0.08467    0.99440    0.55430    1.000
    H58      H        0.07960    0.98010    0.61690    1.000
    N31      N        0.86102    0.15630    0.67710    1.000
    H59      H        0.89140    0.04730    0.68950    1.000
    H60      H        0.83430    0.26400    0.64960    1.000
    Zn8      Zn       0.13142    0.90821    0.55935    1.000
    Zn9      Zn       0.83033    0.14335    0.72889    1.000
    I27      I        0.11095    0.77036    0.59500    1.000
    I28      I        0.15695    0.92390    0.48435    1.000
    N32      N        0.17261    0.97370    0.60550    1.000
    I29      I        0.88059    0.16731    0.80148    1.000
    N33      N        0.81684    0.00810    0.72530    1.000
    I30      I        0.77132    0.24084    0.70838    1.000
    C91      C        0.17740    0.06030    0.60310    1.000
    C92      C        0.19710    0.92810    0.63610    1.000
    H61      H        0.16020    0.09280    0.58110    1.000
    C93      C        0.20620    0.10710    0.63120    1.000
    C94      C        0.22610    0.96870    0.66520    1.000
    H62      H        0.19410    0.86510    0.63770    1.000
    H63      H        0.20870    0.17000    0.62820    1.000
    C95      C        0.23109    0.06070    0.66320    1.000
    H64      H        0.24290    0.93420    0.68670    1.000
    C96      C        0.26238    0.10480    0.69450    1.000
    N34      N        0.26802    0.19290    0.68989    1.000
    N35      N        0.28270    0.05300    0.72648    1.000
    C97      C        0.29668    0.22720    0.71970    1.000
    C98      C        0.31176    0.09450    0.75320    1.000
    C99      C        0.30338    0.32540    0.72060    1.000
    N36      N        0.31999    0.18070    0.75125    1.000
    C100     C        0.33586    0.04130    0.78900    1.000
    C101     C        0.33120    0.36140    0.75360    1.000
    C102     C        0.28200    0.38280    0.69140    1.000
    C103     C        0.32758    0.95300    0.79680    1.000
    C104     C        0.36820    0.08010    0.81420    1.000
    H65      H        0.34620    0.32390    0.77530    1.000
    C105     C        0.33710    0.45280    0.75460    1.000
    C106     C        0.28980    0.47310    0.69470    1.000
    H66      H        0.26180    0.36080    0.66880    1.000
    C107     C        0.35090    0.90760    0.83080    1.000
    H67      H        0.30610    0.92400    0.77900    1.000
    H68      H        0.37450    0.14080    0.80960    1.000
    C108     C        0.39100    0.02920    0.84590    1.000
    H69      H        0.35650    0.47710    0.77730    1.000
    H70      H        0.27470    0.51200    0.67380    1.000
    H71      H        0.34450    0.84760    0.83680    1.000
    H72      H        0.41410    0.05510    0.86190    1.000
    I31      I        0.97794    0.66780    0.36930    1.000
    I32      I        0.87530    0.72900    0.44417    1.000
    I33      I        0.65412    0.60620    0.98940    1.000
    I34      I        0.61487    0.73400    0.10400    1.000
    I35      I        0.36870    0.33000    0.29940    1.000
    I36      I        0.26310    0.27390    0.19870    1.000
    I37      I        0.47985    0.15480    0.36483    1.000
    Zn10     Zn       0.42055    0.12562    0.40318    1.000
    N37      N        0.38242    0.05500    0.35569    1.000
    I38      I        0.38610    0.23160    0.44117    1.000
    N38      N        0.43573    0.01940    0.44700    1.000
    C109     C        0.41060    0.99460    0.47250    1.000
    C110     C        0.46660    0.96790    0.44680    1.000
    H73      H        0.38830    0.03080    0.47260    1.000
    C111     C        0.41500    0.91880    0.49880    1.000
    C112     C        0.47308    0.89050    0.47220    1.000
    H74      H        0.48510    0.98470    0.42870    1.000
    C113     C        0.44695    0.86590    0.49850    1.000
    H75      H        0.39630    0.90370    0.51690    1.000
    H76      H        0.49550    0.85500    0.47120    1.000
    C114     C        0.45193    0.78340    0.52650    1.000
    N39      N        0.48157    0.72940    0.52177    1.000
    N40      N        0.42766    0.77280    0.55540    1.000
    C115     C        0.48578    0.66050    0.55030    1.000
    C116     C        0.43392    0.69950    0.58090    1.000
    C117     C        0.52014    0.60200    0.55050    1.000
    N41      N        0.46286    0.64150    0.57983    1.000
    C118     C        0.40822    0.68400    0.61380    1.000
    C119     C        0.53870    0.59580    0.51620    1.000
    C120     C        0.53500    0.55700    0.58840    1.000
    C121     C        0.41270    0.61150    0.64120    1.000
    C122     C        0.37840    0.74000    0.61730    1.000
    C123     C        0.57090    0.54170    0.51850    1.000
    H77      H        0.52980    0.62900    0.48970    1.000
    H78      H        0.52270    0.56000    0.61390    1.000
    C124     C        0.56810    0.50700    0.58930    1.000
    C125     C        0.38830    0.59970    0.67150    1.000
    H79      H        0.43260    0.56910    0.63940    1.000
    C126     C        0.35540    0.72440    0.64830    1.000
    H80      H        0.37350    0.79030    0.59800    1.000
    H81      H        0.58360    0.53840    0.49340    1.000
    N42      N        0.58467    0.49440    0.55430    1.000
    H82      H        0.57960    0.48010    0.61690    1.000
    N43      N        0.36102    0.65630    0.67710    1.000
    H83      H        0.39140    0.54730    0.68950    1.000
    H84      H        0.33430    0.76400    0.64960    1.000
    Zn11     Zn       0.63142    0.40821    0.55935    1.000
    Zn12     Zn       0.33033    0.64335    0.72889    1.000
    I39      I        0.61095    0.27036    0.59500    1.000
    I40      I        0.65695    0.42390    0.48435    1.000
    N44      N        0.67261    0.47370    0.60550    1.000
    I41      I        0.38059    0.66731    0.80148    1.000
    N45      N        0.31684    0.50810    0.72530    1.000
    I42      I        0.27132    0.74084    0.70838    1.000
    C127     C        0.67740    0.56030    0.60310    1.000
    C128     C        0.69710    0.42810    0.63610    1.000
    H85      H        0.66020    0.59280    0.58110    1.000
    C129     C        0.70620    0.60710    0.63120    1.000
    C130     C        0.72610    0.46870    0.66520    1.000
    H86      H        0.69410    0.36510    0.63770    1.000
    H87      H        0.70870    0.67000    0.62820    1.000
    C131     C        0.73109    0.56070    0.66320    1.000
    H88      H        0.74290    0.43420    0.68670    1.000
    C132     C        0.76238    0.60480    0.69450    1.000
    N46      N        0.76802    0.69290    0.68989    1.000
    N47      N        0.78270    0.55300    0.72648    1.000
    C133     C        0.79668    0.72720    0.71970    1.000
    C134     C        0.81176    0.59450    0.75320    1.000
    C135     C        0.80338    0.82540    0.72060    1.000
    N48      N        0.81999    0.68070    0.75125    1.000
    C136     C        0.83586    0.54130    0.78900    1.000
    C137     C        0.83120    0.86140    0.75360    1.000
    C138     C        0.78200    0.88280    0.69140    1.000
    C139     C        0.82758    0.45300    0.79680    1.000
    C140     C        0.86820    0.58010    0.81420    1.000
    H89      H        0.84620    0.82390    0.77530    1.000
    C141     C        0.83710    0.95280    0.75460    1.000
    C142     C        0.78980    0.97310    0.69470    1.000
    H90      H        0.76180    0.86080    0.66880    1.000
    C143     C        0.85090    0.40760    0.83080    1.000
    H91      H        0.80610    0.42400    0.77900    1.000
    H92      H        0.87450    0.64080    0.80960    1.000
    C144     C        0.89100    0.52920    0.84590    1.000
    H93      H        0.85650    0.97710    0.77730    1.000
    H94      H        0.77470    0.01200    0.67380    1.000
    H95      H        0.84450    0.34760    0.83680    1.000
    H96      H        0.91410    0.55510    0.86190    1.000
    I43      I        0.47794    0.16780    0.36930    1.000
    I44      I        0.37530    0.22900    0.44417    1.000
    I45      I        0.15412    0.10620    0.98940    1.000
    I46      I        0.11487    0.23400    0.10400    1.000
    I47      I        0.86870    0.83000    0.29940    1.000
    I48      I        0.76310    0.77390    0.19870    1.000
    I49      I        0.02015    0.34520    0.63517    1.000
    Zn13     Zn       0.07945    0.37438    0.59682    1.000
    N49      N        0.11758    0.44500    0.64431    1.000
    I50      I        0.11390    0.26840    0.55883    1.000
    N50      N        0.06427    0.48060    0.55300    1.000
    C145     C        0.08940    0.50540    0.52750    1.000
    C146     C        0.03340    0.53210    0.55320    1.000
    H97      H        0.11170    0.46920    0.52740    1.000
    C147     C        0.08500    0.58120    0.50120    1.000
    C148     C        0.02692    0.60950    0.52780    1.000
    H98      H        0.01490    0.51530    0.57130    1.000
    C149     C        0.05305    0.63410    0.50150    1.000
    H99      H        0.10370    0.59630    0.48310    1.000
    H100     H        0.00450    0.64500    0.52880    1.000
    C150     C        0.04807    0.71660    0.47350    1.000
    N51      N        0.01843    0.77060    0.47823    1.000
    N52      N        0.07234    0.72720    0.44460    1.000
    C151     C        0.01422    0.83950    0.44970    1.000
    C152     C        0.06608    0.80050    0.41910    1.000
    C153     C        0.97986    0.89800    0.44950    1.000
    N53      N        0.03714    0.85850    0.42017    1.000
    C154     C        0.09178    0.81600    0.38620    1.000
    C155     C        0.96130    0.90420    0.48380    1.000
    C156     C        0.96500    0.94300    0.41160    1.000
    C157     C        0.08730    0.88850    0.35880    1.000
    C158     C        0.12160    0.76000    0.38270    1.000
    C159     C        0.92910    0.95830    0.48150    1.000
    H101     H        0.97020    0.87100    0.51030    1.000
    H102     H        0.97730    0.94000    0.38610    1.000
    C160     C        0.93190    0.99300    0.41070    1.000
    C161     C        0.11170    0.90030    0.32850    1.000
    H103     H        0.06740    0.93090    0.36060    1.000
    C162     C        0.14460    0.77560    0.35170    1.000
    H104     H        0.12650    0.70970    0.40200    1.000
    H105     H        0.91640    0.96160    0.50660    1.000
    N54      N        0.91533    0.00560    0.44570    1.000
    H106     H        0.92040    0.01990    0.38310    1.000
    N55      N        0.13898    0.84370    0.32290    1.000
    H107     H        0.10860    0.95270    0.31050    1.000
    H108     H        0.16570    0.73600    0.35040    1.000
    Zn14     Zn       0.86858    0.09179    0.44065    1.000
    Zn15     Zn       0.16967    0.85665    0.27111    1.000
    I51      I        0.88905    0.22964    0.40500    1.000
    I52      I        0.84305    0.07610    0.51565    1.000
    N56      N        0.82739    0.02630    0.39450    1.000
    I53      I        0.11941    0.83269    0.19852    1.000
    N57      N        0.18316    0.99190    0.27470    1.000
    I54      I        0.22868    0.75916    0.29162    1.000
    C163     C        0.82260    0.93970    0.39690    1.000
    C164     C        0.80290    0.07190    0.36390    1.000
    H109     H        0.83980    0.90720    0.41890    1.000
    C165     C        0.79380    0.89290    0.36880    1.000
    C166     C        0.77390    0.03130    0.33480    1.000
    H110     H        0.80590    0.13490    0.36230    1.000
    H111     H        0.79130    0.83000    0.37180    1.000
    C167     C        0.76891    0.93930    0.33680    1.000
    H112     H        0.75710    0.06580    0.31330    1.000
    C168     C        0.73762    0.89520    0.30550    1.000
    N58      N        0.73198    0.80710    0.31011    1.000
    N59      N        0.71730    0.94700    0.27352    1.000
    C169     C        0.70332    0.77280    0.28030    1.000
    C170     C        0.68824    0.90550    0.24680    1.000
    C171     C        0.69662    0.67460    0.27940    1.000
    N60      N        0.68001    0.81930    0.24875    1.000
    C172     C        0.66414    0.95870    0.21100    1.000
    C173     C        0.66880    0.63860    0.24640    1.000
    C174     C        0.71800    0.61720    0.30860    1.000
    C175     C        0.67242    0.04700    0.20320    1.000
    C176     C        0.63180    0.91990    0.18580    1.000
    H113     H        0.65380    0.67610    0.22470    1.000
    C177     C        0.66290    0.54720    0.24540    1.000
    C178     C        0.71020    0.52690    0.30530    1.000
    H114     H        0.73820    0.63920    0.33120    1.000
    C179     C        0.64910    0.09240    0.16920    1.000
    H115     H        0.69390    0.07600    0.22100    1.000
    H116     H        0.62550    0.85920    0.19040    1.000
    C180     C        0.60900    0.97080    0.15410    1.000
    H117     H        0.64350    0.52290    0.22270    1.000
    H118     H        0.72530    0.48800    0.32620    1.000
    H119     H        0.65550    0.15240    0.16320    1.000
    H120     H        0.58590    0.94490    0.13810    1.000
    I55      I        0.02206    0.33220    0.63070    1.000
    I56      I        0.12470    0.27100    0.55583    1.000
    I57      I        0.34588    0.39380    0.01060    1.000
    I58      I        0.38513    0.26600    0.89600    1.000
    I59      I        0.63130    0.67000    0.70060    1.000
    I60      I        0.73690    0.72610    0.80130    1.000
    I61      I        0.52015    0.84520    0.63517    1.000
    Zn16     Zn       0.57945    0.87438    0.59682    1.000
    N61      N        0.61758    0.94500    0.64431    1.000
    I62      I        0.61390    0.76840    0.55883    1.000
    N62      N        0.56427    0.98060    0.55300    1.000
    C181     C        0.58940    0.00540    0.52750    1.000
    C182     C        0.53340    0.03210    0.55320    1.000
    H121     H        0.61170    0.96920    0.52740    1.000
    C183     C        0.58500    0.08120    0.50120    1.000
    C184     C        0.52692    0.10950    0.52780    1.000
    H122     H        0.51490    0.01530    0.57130    1.000
    C185     C        0.55305    0.13410    0.50150    1.000
    H123     H        0.60370    0.09630    0.48310    1.000
    H124     H        0.50450    0.14500    0.52880    1.000
    C186     C        0.54807    0.21660    0.47350    1.000
    N63      N        0.51843    0.27060    0.47823    1.000
    N64      N        0.57234    0.22720    0.44460    1.000
    C187     C        0.51422    0.33950    0.44970    1.000
    C188     C        0.56608    0.30050    0.41910    1.000
    C189     C        0.47986    0.39800    0.44950    1.000
    N65      N        0.53714    0.35850    0.42017    1.000
    C190     C        0.59178    0.31600    0.38620    1.000
    C191     C        0.46130    0.40420    0.48380    1.000
    C192     C        0.46500    0.44300    0.41160    1.000
    C193     C        0.58730    0.38850    0.35880    1.000
    C194     C        0.62160    0.26000    0.38270    1.000
    C195     C        0.42910    0.45830    0.48150    1.000
    H125     H        0.47020    0.37100    0.51030    1.000
    H126     H        0.47730    0.44000    0.38610    1.000
    C196     C        0.43190    0.49300    0.41070    1.000
    C197     C        0.61170    0.40030    0.32850    1.000
    H127     H        0.56740    0.43090    0.36060    1.000
    C198     C        0.64460    0.27560    0.35170    1.000
    H128     H        0.62650    0.20970    0.40200    1.000
    H129     H        0.41640    0.46160    0.50660    1.000
    N66      N        0.41533    0.50560    0.44570    1.000
    H130     H        0.42040    0.51990    0.38310    1.000
    N67      N        0.63898    0.34370    0.32290    1.000
    H131     H        0.60860    0.45270    0.31050    1.000
    H132     H        0.66570    0.23600    0.35040    1.000
    Zn17     Zn       0.36858    0.59179    0.44065    1.000
    Zn18     Zn       0.66967    0.35665    0.27111    1.000
    I63      I        0.38905    0.72964    0.40500    1.000
    I64      I        0.34305    0.57610    0.51565    1.000
    N68      N        0.32739    0.52630    0.39450    1.000
    I65      I        0.61941    0.33269    0.19852    1.000
    N69      N        0.68316    0.49190    0.27470    1.000
    I66      I        0.72868    0.25916    0.29162    1.000
    C199     C        0.32260    0.43970    0.39690    1.000
    C200     C        0.30290    0.57190    0.36390    1.000
    H133     H        0.33980    0.40720    0.41890    1.000
    C201     C        0.29380    0.39290    0.36880    1.000
    C202     C        0.27390    0.53130    0.33480    1.000
    H134     H        0.30590    0.63490    0.36230    1.000
    H135     H        0.29130    0.33000    0.37180    1.000
    C203     C        0.26891    0.43930    0.33680    1.000
    H136     H        0.25710    0.56580    0.31330    1.000
    C204     C        0.23762    0.39520    0.30550    1.000
    N70      N        0.23198    0.30710    0.31011    1.000
    N71      N        0.21730    0.44700    0.27352    1.000
    C205     C        0.20332    0.27280    0.28030    1.000
    C206     C        0.18824    0.40550    0.24680    1.000
    C207     C        0.19662    0.17460    0.27940    1.000
    N72      N        0.18001    0.31930    0.24875    1.000
    C208     C        0.16414    0.45870    0.21100    1.000
    C209     C        0.16880    0.13860    0.24640    1.000
    C210     C        0.21800    0.11720    0.30860    1.000
    C211     C        0.17242    0.54700    0.20320    1.000
    C212     C        0.13180    0.41990    0.18580    1.000
    H137     H        0.15380    0.17610    0.22470    1.000
    C213     C        0.16290    0.04720    0.24540    1.000
    C214     C        0.21020    0.02690    0.30530    1.000
    H138     H        0.23820    0.13920    0.33120    1.000
    C215     C        0.14910    0.59240    0.16920    1.000
    H139     H        0.19390    0.57600    0.22100    1.000
    H140     H        0.12550    0.35920    0.19040    1.000
    C216     C        0.10900    0.47080    0.15410    1.000
    H141     H        0.14350    0.02290    0.22270    1.000
    H142     H        0.22530    0.98800    0.32620    1.000
    H143     H        0.15550    0.65240    0.16320    1.000
    H144     H        0.08590    0.44490    0.13810    1.000
    I67      I        0.52206    0.83220    0.63070    1.000
    I68      I        0.62470    0.77100    0.55583    1.000
    I69      I        0.84588    0.89380    0.01060    1.000
    I70      I        0.88513    0.76600    0.89600    1.000
    I71      I        0.13130    0.17000    0.70060    1.000
    I72      I        0.23690    0.22610    0.80130    1.000
    I73      I        0.02015    0.65480    0.13517    1.000
    Zn19     Zn       0.07945    0.62562    0.09682    1.000
    N73      N        0.11758    0.55500    0.14431    1.000
    I74      I        0.11390    0.73160    0.05883    1.000
    N74      N        0.06427    0.51940    0.05300    1.000
    C217     C        0.08940    0.49460    0.02750    1.000
    C218     C        0.03340    0.46790    0.05320    1.000
    H145     H        0.11170    0.53080    0.02740    1.000
    C219     C        0.08500    0.41880    0.00120    1.000
    C220     C        0.02692    0.39050    0.02780    1.000
    H146     H        0.01490    0.48470    0.07130    1.000
    C221     C        0.05305    0.36590    0.00150    1.000
    H147     H        0.10370    0.40370    0.98310    1.000
    H148     H        0.00450    0.35500    0.02880    1.000
    C222     C        0.04807    0.28340    0.97350    1.000
    N75      N        0.01843    0.22940    0.97823    1.000
    N76      N        0.07234    0.27280    0.94460    1.000
    C223     C        0.01422    0.16050    0.94970    1.000
    C224     C        0.06608    0.19950    0.91910    1.000
    C225     C        0.97986    0.10200    0.94950    1.000
    N77      N        0.03714    0.14150    0.92017    1.000
    C226     C        0.09178    0.18400    0.88620    1.000
    C227     C        0.96130    0.09580    0.98380    1.000
    C228     C        0.96500    0.05700    0.91160    1.000
    C229     C        0.08730    0.11150    0.85880    1.000
    C230     C        0.12160    0.24000    0.88270    1.000
    C231     C        0.92910    0.04170    0.98150    1.000
    H149     H        0.97020    0.12900    0.01030    1.000
    H150     H        0.97730    0.06000    0.88610    1.000
    C232     C        0.93190    0.00700    0.91070    1.000
    C233     C        0.11170    0.09970    0.82850    1.000
    H151     H        0.06740    0.06910    0.86060    1.000
    C234     C        0.14460    0.22440    0.85170    1.000
    H152     H        0.12650    0.29030    0.90200    1.000
    H153     H        0.91640    0.03840    0.00660    1.000
    N78      N        0.91533    0.99440    0.94570    1.000
    H154     H        0.92040    0.98010    0.88310    1.000
    N79      N        0.13898    0.15630    0.82290    1.000
    H155     H        0.10860    0.04730    0.81050    1.000
    H156     H        0.16570    0.26400    0.85040    1.000
    Zn20     Zn       0.86858    0.90821    0.94065    1.000
    Zn21     Zn       0.16967    0.14335    0.77111    1.000
    I75      I        0.88905    0.77036    0.90500    1.000
    I76      I        0.84305    0.92390    0.01565    1.000
    N80      N        0.82739    0.97370    0.89450    1.000
    I77      I        0.11941    0.16731    0.69852    1.000
    N81      N        0.18316    0.00810    0.77470    1.000
    I78      I        0.22868    0.24084    0.79162    1.000
    C235     C        0.82260    0.06030    0.89690    1.000
    C236     C        0.80290    0.92810    0.86390    1.000
    H157     H        0.83980    0.09280    0.91890    1.000
    C237     C        0.79380    0.10710    0.86880    1.000
    C238     C        0.77390    0.96870    0.83480    1.000
    H158     H        0.80590    0.86510    0.86230    1.000
    H159     H        0.79130    0.17000    0.87180    1.000
    C239     C        0.76891    0.06070    0.83680    1.000
    H160     H        0.75710    0.93420    0.81330    1.000
    C240     C        0.73762    0.10480    0.80550    1.000
    N82      N        0.73198    0.19290    0.81011    1.000
    N83      N        0.71730    0.05300    0.77352    1.000
    C241     C        0.70332    0.22720    0.78030    1.000
    C242     C        0.68824    0.09450    0.74680    1.000
    C243     C        0.69662    0.32540    0.77940    1.000
    N84      N        0.68001    0.18070    0.74875    1.000
    C244     C        0.66414    0.04130    0.71100    1.000
    C245     C        0.66880    0.36140    0.74640    1.000
    C246     C        0.71800    0.38280    0.80860    1.000
    C247     C        0.67242    0.95300    0.70320    1.000
    C248     C        0.63180    0.08010    0.68580    1.000
    H161     H        0.65380    0.32390    0.72470    1.000
    C249     C        0.66290    0.45280    0.74540    1.000
    C250     C        0.71020    0.47310    0.80530    1.000
    H162     H        0.73820    0.36080    0.83120    1.000
    C251     C        0.64910    0.90760    0.66920    1.000
    H163     H        0.69390    0.92400    0.72100    1.000
    H164     H        0.62550    0.14080    0.69040    1.000
    C252     C        0.60900    0.02920    0.65410    1.000
    H165     H        0.64350    0.47710    0.72270    1.000
    H166     H        0.72530    0.51200    0.82620    1.000
    H167     H        0.65550    0.84760    0.66320    1.000
    H168     H        0.58590    0.05510    0.63810    1.000
    I79      I        0.02206    0.66780    0.13070    1.000
    I80      I        0.12470    0.72900    0.05583    1.000
    I81      I        0.34588    0.60620    0.51060    1.000
    I82      I        0.38513    0.73400    0.39600    1.000
    I83      I        0.63130    0.33000    0.20060    1.000
    I84      I        0.73690    0.27390    0.30130    1.000
    I85      I        0.52015    0.15480    0.13517    1.000
    Zn22     Zn       0.57945    0.12562    0.09682    1.000
    N85      N        0.61758    0.05500    0.14431    1.000
    I86      I        0.61390    0.23160    0.05883    1.000
    N86      N        0.56427    0.01940    0.05300    1.000
    C253     C        0.58940    0.99460    0.02750    1.000
    C254     C        0.53340    0.96790    0.05320    1.000
    H169     H        0.61170    0.03080    0.02740    1.000
    C255     C        0.58500    0.91880    0.00120    1.000
    C256     C        0.52692    0.89050    0.02780    1.000
    H170     H        0.51490    0.98470    0.07130    1.000
    C257     C        0.55305    0.86590    0.00150    1.000
    H171     H        0.60370    0.90370    0.98310    1.000
    H172     H        0.50450    0.85500    0.02880    1.000
    C258     C        0.54807    0.78340    0.97350    1.000
    N87      N        0.51843    0.72940    0.97823    1.000
    N88      N        0.57234    0.77280    0.94460    1.000
    C259     C        0.51422    0.66050    0.94970    1.000
    C260     C        0.56608    0.69950    0.91910    1.000
    C261     C        0.47986    0.60200    0.94950    1.000
    N89      N        0.53714    0.64150    0.92017    1.000
    C262     C        0.59178    0.68400    0.88620    1.000
    C263     C        0.46130    0.59580    0.98380    1.000
    C264     C        0.46500    0.55700    0.91160    1.000
    C265     C        0.58730    0.61150    0.85880    1.000
    C266     C        0.62160    0.74000    0.88270    1.000
    C267     C        0.42910    0.54170    0.98150    1.000
    H173     H        0.47020    0.62900    0.01030    1.000
    H174     H        0.47730    0.56000    0.88610    1.000
    C268     C        0.43190    0.50700    0.91070    1.000
    C269     C        0.61170    0.59970    0.82850    1.000
    H175     H        0.56740    0.56910    0.86060    1.000
    C270     C        0.64460    0.72440    0.85170    1.000
    H176     H        0.62650    0.79030    0.90200    1.000
    H177     H        0.41640    0.53840    0.00660    1.000
    N90      N        0.41533    0.49440    0.94570    1.000
    H178     H        0.42040    0.48010    0.88310    1.000
    N91      N        0.63898    0.65630    0.82290    1.000
    H179     H        0.60860    0.54730    0.81050    1.000
    H180     H        0.66570    0.76400    0.85040    1.000
    Zn23     Zn       0.36858    0.40821    0.94065    1.000
    Zn24     Zn       0.66967    0.64335    0.77111    1.000
    I87      I        0.38905    0.27036    0.90500    1.000
    I88      I        0.34305    0.42390    0.01565    1.000
    N92      N        0.32739    0.47370    0.89450    1.000
    I89      I        0.61941    0.66731    0.69852    1.000
    N93      N        0.68316    0.50810    0.77470    1.000
    I90      I        0.72868    0.74084    0.79162    1.000
    C271     C        0.32260    0.56030    0.89690    1.000
    C272     C        0.30290    0.42810    0.86390    1.000
    H181     H        0.33980    0.59280    0.91890    1.000
    C273     C        0.29380    0.60710    0.86880    1.000
    C274     C        0.27390    0.46870    0.83480    1.000
    H182     H        0.30590    0.36510    0.86230    1.000
    H183     H        0.29130    0.67000    0.87180    1.000
    C275     C        0.26891    0.56070    0.83680    1.000
    H184     H        0.25710    0.43420    0.81330    1.000
    C276     C        0.23762    0.60480    0.80550    1.000
    N94      N        0.23198    0.69290    0.81011    1.000
    N95      N        0.21730    0.55300    0.77352    1.000
    C277     C        0.20332    0.72720    0.78030    1.000
    C278     C        0.18824    0.59450    0.74680    1.000
    C279     C        0.19662    0.82540    0.77940    1.000
    N96      N        0.18001    0.68070    0.74875    1.000
    C280     C        0.16414    0.54130    0.71100    1.000
    C281     C        0.16880    0.86140    0.74640    1.000
    C282     C        0.21800    0.88280    0.80860    1.000
    C283     C        0.17242    0.45300    0.70320    1.000
    C284     C        0.13180    0.58010    0.68580    1.000
    H185     H        0.15380    0.82390    0.72470    1.000
    C285     C        0.16290    0.95280    0.74540    1.000
    C286     C        0.21020    0.97310    0.80530    1.000
    H186     H        0.23820    0.86080    0.83120    1.000
    C287     C        0.14910    0.40760    0.66920    1.000
    H187     H        0.19390    0.42400    0.72100    1.000
    H188     H        0.12550    0.64080    0.69040    1.000
    C288     C        0.10900    0.52920    0.65410    1.000
    H189     H        0.14350    0.97710    0.72270    1.000
    H190     H        0.22530    0.01200    0.82620    1.000
    H191     H        0.15550    0.34760    0.66320    1.000
    H192     H        0.08590    0.55510    0.63810    1.000
    I91      I        0.52206    0.16780    0.13070    1.000
    I92      I        0.62470    0.22900    0.05583    1.000
    I93      I        0.84588    0.10620    0.51060    1.000
    I94      I        0.88513    0.23400    0.39600    1.000
    I95      I        0.13130    0.83000    0.20060    1.000
    I96      I        0.23690    0.77390    0.30130    1.000
    C289     C        0.55210    0.77600    0.23200    1.000
    C290     C        0.56170    0.69900    0.24980    1.000
    C291     C        0.59410    0.69180    0.29220    1.000
    C292     C        0.60810    0.77700    0.31720    1.000
    C293     C        0.59630    0.85660    0.29470    1.000
    O1       O        0.56820    0.85360    0.25480    1.000
    C294     C        0.60970    0.93800    0.30500    1.000
    C295     C        0.63270    0.94760    0.35040    1.000
    C296     C        0.64260    0.86530    0.37400    1.000
    C297     C        0.63520    0.77640    0.35760    1.000
    C298     C        0.52440    0.79700    0.19050    1.000
    C299     C        0.50600    0.87830    0.18590    1.000
    H193     H        0.51140    0.92210    0.20880    1.000
    C300     C        0.47870    0.89610    0.14610    1.000
    H194     H        0.46810    0.95450    0.14130    1.000
    C301     C        0.46710    0.82960    0.11390    1.000
    C302     C        0.48440    0.74230    0.12250    1.000
    C303     C        0.51400    0.72950    0.15890    1.000
    H195     H        0.52750    0.67410    0.16220    1.000
    O2       O        0.59690    0.61390    0.31040    1.000
    O3       O        0.58980    0.00830    0.28860    1.000
    C304     C        0.59420    0.07600    0.26580    1.000
    H196     H        0.57040    0.11250    0.26180    1.000
    H197     H        0.61610    0.11180    0.28140    1.000
    H198     H        0.59960    0.05800    0.23650    1.000
    O4       O        0.63180    0.02200    0.37450    1.000
    C305     C        0.66710    0.07200    0.38530    1.000
    H199     H        0.66270    0.12470    0.40290    1.000
    H200     H        0.68730    0.03450    0.40270    1.000
    H201     H        0.67560    0.09110    0.35760    1.000
    O5       O        0.44210    0.83670    0.07970    1.000
    C306     C        0.41990    0.92300    0.07530    1.000
    H202     H        0.40100    0.92210    0.04740    1.000
    H203     H        0.40630    0.92920    0.10070    1.000
    H204     H        0.43800    0.97260    0.07490    1.000
    O6       O        0.47710    0.69020    0.08800    1.000
    C307     C        0.48600    0.59680    0.09900    1.000
    H205     H        0.47970    0.56050    0.07180    1.000
    H206     H        0.51330    0.59040    0.11200    1.000
    H207     H        0.46970    0.57660    0.12070    1.000
    O7       O        0.54230    0.63100    0.23410    1.000
    C308     C        0.57260    0.57100    0.21410    1.000
    H208     H        0.55970    0.51590    0.20130    1.000
    H209     H        0.58250    0.60400    0.19080    1.000
    H210     H        0.59420    0.55470    0.23800    1.000
    O8       O        0.67190    0.86600    0.41340    1.000
    C309     C        0.65120    0.89900    0.44670    1.000
    H211     H        0.66890    0.90190    0.47560    1.000
    H212     H        0.64110    0.95870    0.43830    1.000
    H213     H        0.62960    0.85860    0.44920    1.000
    O9       O        0.65310    0.71660    0.37370    1.000
    C310     C        0.64900    0.64500    0.40250    1.000
    H214     H        0.67230    0.60860    0.40760    1.000
    H215     H        0.64370    0.66850    0.43120    1.000
    H216     H        0.62650    0.60780    0.38890    1.000
    C311     C        0.48530    0.46200    0.22790    1.000
    H217     H        0.48920    0.51550    0.21010    1.000
    H218     H        0.45840    0.46280    0.23410    1.000
    C312     C        0.49200    0.37600    0.20140    1.000
    H219     H        0.47390    0.37620    0.17220    1.000
    H220     H        0.51880    0.37430    0.19590    1.000
    C313     C        0.48340    0.29500    0.22950    1.000
    H221     H        0.48360    0.23910    0.21220    1.000
    H222     H        0.45780    0.30120    0.23900    1.000
    C314     C        0.59330    0.79000    0.28970    1.000
    C315     C        0.58960    0.70860    0.30150    1.000
    C316     C        0.56620    0.64100    0.26790    1.000
    C317     C        0.55120    0.67600    0.22060    1.000
    C318     C        0.54770    0.76700    0.21690    1.000
    O10      O        0.56930    0.82290    0.25090    1.000
    C319     C        0.52970    0.81200    0.18250    1.000
    C320     C        0.50310    0.76000    0.14920    1.000
    C321     C        0.50960    0.66400    0.15100    1.000
    C322     C        0.52590    0.61900    0.19110    1.000
    C323     C        0.61590    0.86010    0.31790    1.000
    C324     C        0.64400    0.84400    0.35430    1.000
    H223     H        0.64770    0.78540    0.36670    1.000
    C325     C        0.66820    0.91810    0.37380    1.000
    H224     H        0.69130    0.90820    0.39490    1.000
    C326     C        0.65600    0.00570    0.36010    1.000
    C327     C        0.62890    0.01710    0.31930    1.000
    C328     C        0.60380    0.94700    0.30420    1.000
    H225     H        0.57950    0.95740    0.28530    1.000
    O11      O        0.56490    0.55860    0.27930    1.000
    O12      O        0.52920    0.89900    0.18380    1.000
    C329     C        0.51090    0.95400    0.20500    1.000
    H226     H        0.51770    0.01500    0.19760    1.000
    H227     H        0.48280    0.94470    0.19520    1.000
    H228     H        0.51800    0.94350    0.23690    1.000
    O13      O        0.48210    0.79100    0.11120    1.000
    C330     C        0.46700    0.88000    0.11400    1.000
    H229     H        0.45200    0.89760    0.08470    1.000
    H230     H        0.44990    0.88190    0.13640    1.000
    H231     H        0.48850    0.92220    0.12240    1.000
    O14      O        0.68100    0.06460    0.36940    1.000
    C331     C        0.70790    0.06200    0.41200    1.000
    H232     H        0.72570    0.11270    0.41400    1.000
    H233     H        0.69310    0.06430    0.43660    1.000
    H234     H        0.72280    0.00590    0.41390    1.000
    O15      O        0.62140    0.09450    0.30060    1.000
    C332     C        0.57920    0.10100    0.28160    1.000
    H235     H        0.57380    0.15990    0.26750    1.000
    H236     H        0.57210    0.05420    0.25910    1.000
    H237     H        0.56400    0.09400    0.30560    1.000
    O16      O        0.61760    0.65660    0.32870    1.000
    C333     C        0.61350    0.65900    0.37530    1.000
    H238     H        0.63370    0.62200    0.39290    1.000
    H239     H        0.61620    0.72100    0.38610    1.000
    H240     H        0.58780    0.63630    0.37840    1.000
    O17      O        0.48290    0.60600    0.12200    1.000
    C334     C        0.44360    0.63500    0.12200    1.000
    H241     H        0.42550    0.59610    0.10260    1.000
    H242     H        0.43800    0.63330    0.15240    1.000
    H243     H        0.44060    0.69680    0.11060    1.000
    O18      O        0.52760    0.54400    0.19170    1.000
    C335     C        0.51500    0.46500    0.20980    1.000
    H244     H        0.52660    0.41310    0.19750    1.000
    H245     H        0.52270    0.46570    0.24240    1.000
    H246     H        0.48640    0.46100    0.20210    1.000
    C336     C        0.44790    0.77600    0.26800    1.000
    C337     C        0.43830    0.69900    0.25020    1.000
    C338     C        0.40590    0.69180    0.20780    1.000
    C339     C        0.39190    0.77700    0.18280    1.000
    C340     C        0.40370    0.85660    0.20530    1.000
    O19      O        0.43180    0.85360    0.24520    1.000
    C341     C        0.39030    0.93800    0.19500    1.000
    C342     C        0.36730    0.94760    0.14960    1.000
    C343     C        0.35740    0.86530    0.12600    1.000
    C344     C        0.36480    0.77640    0.14240    1.000
    C345     C        0.47560    0.79700    0.30950    1.000
    C346     C        0.49400    0.87830    0.31410    1.000
    H247     H        0.48860    0.92210    0.29120    1.000
    C347     C        0.52130    0.89610    0.35390    1.000
    H248     H        0.53190    0.95450    0.35870    1.000
    C348     C        0.53290    0.82960    0.38610    1.000
    C349     C        0.51560    0.74230    0.37750    1.000
    C350     C        0.48600    0.72950    0.34110    1.000
    H249     H        0.47250    0.67410    0.33780    1.000
    O20      O        0.40310    0.61390    0.18960    1.000
    O21      O        0.41020    0.00830    0.21140    1.000
    C351     C        0.40580    0.07600    0.23420    1.000
    H250     H        0.42960    0.11250    0.23820    1.000
    H251     H        0.38390    0.11180    0.21860    1.000
    H252     H        0.40040    0.05800    0.26350    1.000
    O22      O        0.36820    0.02200    0.12550    1.000
    C352     C        0.33290    0.07200    0.11470    1.000
    H253     H        0.33730    0.12470    0.09710    1.000
    H254     H        0.31270    0.03450    0.09730    1.000
    H255     H        0.32440    0.09110    0.14240    1.000
    O23      O        0.55790    0.83670    0.42030    1.000
    C353     C        0.58010    0.92300    0.42470    1.000
    H256     H        0.59900    0.92210    0.45260    1.000
    H257     H        0.59370    0.92920    0.39930    1.000
    H258     H        0.56200    0.97260    0.42510    1.000
    O24      O        0.52290    0.69020    0.41200    1.000
    C354     C        0.51400    0.59680    0.40100    1.000
    H259     H        0.52030    0.56050    0.42820    1.000
    H260     H        0.48670    0.59040    0.38800    1.000
    H261     H        0.53030    0.57660    0.37930    1.000
    O25      O        0.45770    0.63100    0.26590    1.000
    C355     C        0.42740    0.57100    0.28590    1.000
    H262     H        0.44030    0.51590    0.29870    1.000
    H263     H        0.41750    0.60400    0.30920    1.000
    H264     H        0.40580    0.55470    0.26200    1.000
    O26      O        0.32810    0.86600    0.08660    1.000
    C356     C        0.34880    0.89900    0.05330    1.000
    H265     H        0.33110    0.90190    0.02440    1.000
    H266     H        0.35890    0.95870    0.06170    1.000
    H267     H        0.37040    0.85860    0.05080    1.000
    O27      O        0.34690    0.71660    0.12630    1.000
    C357     C        0.35100    0.64500    0.09750    1.000
    H268     H        0.32770    0.60860    0.09240    1.000
    H269     H        0.35630    0.66850    0.06880    1.000
    H270     H        0.37350    0.60780    0.11110    1.000
    C358     C        0.51470    0.46200    0.27210    1.000
    H271     H        0.51080    0.51550    0.28990    1.000
    H272     H        0.54160    0.46280    0.26590    1.000
    C359     C        0.50800    0.37600    0.29860    1.000
    H273     H        0.52610    0.37620    0.32780    1.000
    H274     H        0.48120    0.37430    0.30410    1.000
    C360     C        0.51660    0.29500    0.27050    1.000
    H275     H        0.51640    0.23910    0.28780    1.000
    H276     H        0.54220    0.30120    0.26100    1.000
    C361     C        0.40670    0.79000    0.21030    1.000
    C362     C        0.41040    0.70860    0.19850    1.000
    C363     C        0.43380    0.64100    0.23210    1.000
    C364     C        0.44880    0.67600    0.27940    1.000
    C365     C        0.45230    0.76700    0.28310    1.000
    O28      O        0.43070    0.82290    0.24910    1.000
    C366     C        0.47030    0.81200    0.31750    1.000
    C367     C        0.49690    0.76000    0.35080    1.000
    C368     C        0.49040    0.66400    0.34900    1.000
    C369     C        0.47410    0.61900    0.30890    1.000
    C370     C        0.38410    0.86010    0.18210    1.000
    C371     C        0.35600    0.84400    0.14570    1.000
    H277     H        0.35230    0.78540    0.13330    1.000
    C372     C        0.33180    0.91810    0.12620    1.000
    H278     H        0.30870    0.90820    0.10510    1.000
    C373     C        0.34400    0.00570    0.13990    1.000
    C374     C        0.37110    0.01710    0.18070    1.000
    C375     C        0.39620    0.94700    0.19580    1.000
    H279     H        0.42050    0.95740    0.21470    1.000
    O29      O        0.43510    0.55860    0.22070    1.000
    O30      O        0.47080    0.89900    0.31620    1.000
    C376     C        0.48910    0.95400    0.29500    1.000
    H280     H        0.48230    0.01500    0.30240    1.000
    H281     H        0.51720    0.94470    0.30480    1.000
    H282     H        0.48200    0.94350    0.26310    1.000
    O31      O        0.51790    0.79100    0.38880    1.000
    C377     C        0.53300    0.88000    0.38600    1.000
    H283     H        0.54800    0.89760    0.41530    1.000
    H284     H        0.55010    0.88190    0.36360    1.000
    H285     H        0.51150    0.92220    0.37760    1.000
    O32      O        0.31900    0.06460    0.13060    1.000
    C378     C        0.29210    0.06200    0.08800    1.000
    H286     H        0.27430    0.11270    0.08600    1.000
    H287     H        0.30690    0.06430    0.06340    1.000
    H288     H        0.27720    0.00590    0.08610    1.000
    O33      O        0.37860    0.09450    0.19940    1.000
    C379     C        0.42080    0.10100    0.21840    1.000
    H289     H        0.42620    0.15990    0.23250    1.000
    H290     H        0.42790    0.05420    0.24090    1.000
    H291     H        0.43600    0.09400    0.19440    1.000
    O34      O        0.38240    0.65660    0.17130    1.000
    C380     C        0.38650    0.65900    0.12470    1.000
    H292     H        0.36630    0.62200    0.10710    1.000
    H293     H        0.38380    0.72100    0.11390    1.000
    H294     H        0.41220    0.63630    0.12160    1.000
    O35      O        0.51710    0.60600    0.37800    1.000
    C381     C        0.55640    0.63500    0.37800    1.000
    H295     H        0.57450    0.59610    0.39740    1.000
    H296     H        0.56200    0.63330    0.34760    1.000
    H297     H        0.55940    0.69680    0.38940    1.000
    O36      O        0.47240    0.54400    0.30830    1.000
    C382     C        0.48500    0.46500    0.29020    1.000
    H298     H        0.47340    0.41310    0.30250    1.000
    H299     H        0.47730    0.46570    0.25760    1.000
    H300     H        0.51360    0.46100    0.29790    1.000
    C383     C        0.05210    0.27600    0.23200    1.000
    C384     C        0.06170    0.19900    0.24980    1.000
    C385     C        0.09410    0.19180    0.29220    1.000
    C386     C        0.10810    0.27700    0.31720    1.000
    C387     C        0.09630    0.35660    0.29470    1.000
    O37      O        0.06820    0.35360    0.25480    1.000
    C388     C        0.10970    0.43800    0.30500    1.000
    C389     C        0.13270    0.44760    0.35040    1.000
    C390     C        0.14260    0.36530    0.37400    1.000
    C391     C        0.13520    0.27640    0.35760    1.000
    C392     C        0.02440    0.29700    0.19050    1.000
    C393     C        0.00600    0.37830    0.18590    1.000
    H301     H        0.01140    0.42210    0.20880    1.000
    C394     C        0.97870    0.39610    0.14610    1.000
    H302     H        0.96810    0.45450    0.14130    1.000
    C395     C        0.96710    0.32960    0.11390    1.000
    C396     C        0.98440    0.24230    0.12250    1.000
    C397     C        0.01400    0.22950    0.15890    1.000
    H303     H        0.02750    0.17410    0.16220    1.000
    O38      O        0.09690    0.11390    0.31040    1.000
    O39      O        0.08980    0.50830    0.28860    1.000
    C398     C        0.09420    0.57600    0.26580    1.000
    H304     H        0.07040    0.61250    0.26180    1.000
    H305     H        0.11610    0.61180    0.28140    1.000
    H306     H        0.09960    0.55800    0.23650    1.000
    O40      O        0.13180    0.52200    0.37450    1.000
    C399     C        0.16710    0.57200    0.38530    1.000
    H307     H        0.16270    0.62470    0.40290    1.000
    H308     H        0.18730    0.53450    0.40270    1.000
    H309     H        0.17560    0.59110    0.35760    1.000
    O41      O        0.94210    0.33670    0.07970    1.000
    C400     C        0.91990    0.42300    0.07530    1.000
    H310     H        0.90100    0.42210    0.04740    1.000
    H311     H        0.90630    0.42920    0.10070    1.000
    H312     H        0.93800    0.47260    0.07490    1.000
    O42      O        0.97710    0.19020    0.08800    1.000
    C401     C        0.98600    0.09680    0.09900    1.000
    H313     H        0.97970    0.06050    0.07180    1.000
    H314     H        0.01330    0.09040    0.11200    1.000
    H315     H        0.96970    0.07660    0.12070    1.000
    O43      O        0.04230    0.13100    0.23410    1.000
    C402     C        0.07260    0.07100    0.21410    1.000
    H316     H        0.05970    0.01590    0.20130    1.000
    H317     H        0.08250    0.10400    0.19080    1.000
    H318     H        0.09420    0.05470    0.23800    1.000
    O44      O        0.17190    0.36600    0.41340    1.000
    C403     C        0.15120    0.39900    0.44670    1.000
    H319     H        0.16890    0.40190    0.47560    1.000
    H320     H        0.14110    0.45870    0.43830    1.000
    H321     H        0.12960    0.35860    0.44920    1.000
    O45      O        0.15310    0.21660    0.37370    1.000
    C404     C        0.14900    0.14500    0.40250    1.000
    H322     H        0.17230    0.10860    0.40760    1.000
    H323     H        0.14370    0.16850    0.43120    1.000
    H324     H        0.12650    0.10780    0.38890    1.000
    C405     C        0.98530    0.96200    0.22790    1.000
    H325     H        0.98920    0.01550    0.21010    1.000
    H326     H        0.95840    0.96280    0.23410    1.000
    C406     C        0.99200    0.87600    0.20140    1.000
    H327     H        0.97390    0.87620    0.17220    1.000
    H328     H        0.01880    0.87430    0.19590    1.000
    C407     C        0.98340    0.79500    0.22950    1.000
    H329     H        0.98360    0.73910    0.21220    1.000
    H330     H        0.95780    0.80120    0.23900    1.000
    C408     C        0.09330    0.29000    0.28970    1.000
    C409     C        0.08960    0.20860    0.30150    1.000
    C410     C        0.06620    0.14100    0.26790    1.000
    C411     C        0.05120    0.17600    0.22060    1.000
    C412     C        0.04770    0.26700    0.21690    1.000
    O46      O        0.06930    0.32290    0.25090    1.000
    C413     C        0.02970    0.31200    0.18250    1.000
    C414     C        0.00310    0.26000    0.14920    1.000
    C415     C        0.00960    0.16400    0.15100    1.000
    C416     C        0.02590    0.11900    0.19110    1.000
    C417     C        0.11590    0.36010    0.31790    1.000
    C418     C        0.14400    0.34400    0.35430    1.000
    H331     H        0.14770    0.28540    0.36670    1.000
    C419     C        0.16820    0.41810    0.37380    1.000
    H332     H        0.19130    0.40820    0.39490    1.000
    C420     C        0.15600    0.50570    0.36010    1.000
    C421     C        0.12890    0.51710    0.31930    1.000
    C422     C        0.10380    0.44700    0.30420    1.000
    H333     H        0.07950    0.45740    0.28530    1.000
    O47      O        0.06490    0.05860    0.27930    1.000
    O48      O        0.02920    0.39900    0.18380    1.000
    C423     C        0.01090    0.45400    0.20500    1.000
    H334     H        0.01770    0.51500    0.19760    1.000
    H335     H        0.98280    0.44470    0.19520    1.000
    H336     H        0.01800    0.44350    0.23690    1.000
    O49      O        0.98210    0.29100    0.11120    1.000
    C424     C        0.96700    0.38000    0.11400    1.000
    H337     H        0.95200    0.39760    0.08470    1.000
    H338     H        0.94990    0.38190    0.13640    1.000
    H339     H        0.98850    0.42220    0.12240    1.000
    O50      O        0.18100    0.56460    0.36940    1.000
    C425     C        0.20790    0.56200    0.41200    1.000
    H340     H        0.22570    0.61270    0.41400    1.000
    H341     H        0.19310    0.56430    0.43660    1.000
    H342     H        0.22280    0.50590    0.41390    1.000
    O51      O        0.12140    0.59450    0.30060    1.000
    C426     C        0.07920    0.60100    0.28160    1.000
    H343     H        0.07380    0.65990    0.26750    1.000
    H344     H        0.07210    0.55420    0.25910    1.000
    H345     H        0.06400    0.59400    0.30560    1.000
    O52      O        0.11760    0.15660    0.32870    1.000
    C427     C        0.11350    0.15900    0.37530    1.000
    H346     H        0.13370    0.12200    0.39290    1.000
    H347     H        0.11620    0.22100    0.38610    1.000
    H348     H        0.08780    0.13630    0.37840    1.000
    O53      O        0.98290    0.10600    0.12200    1.000
    C428     C        0.94360    0.13500    0.12200    1.000
    H349     H        0.92550    0.09610    0.10260    1.000
    H350     H        0.93800    0.13330    0.15240    1.000
    H351     H        0.94060    0.19680    0.11060    1.000
    O54      O        0.02760    0.04400    0.19170    1.000
    C429     C        0.01500    0.96500    0.20980    1.000
    H352     H        0.02660    0.91310    0.19750    1.000
    H353     H        0.02270    0.96570    0.24240    1.000
    H354     H        0.98640    0.96100    0.20210    1.000
    C430     C        0.94790    0.27600    0.26800    1.000
    C431     C        0.93830    0.19900    0.25020    1.000
    C432     C        0.90590    0.19180    0.20780    1.000
    C433     C        0.89190    0.27700    0.18280    1.000
    C434     C        0.90370    0.35660    0.20530    1.000
    O55      O        0.93180    0.35360    0.24520    1.000
    C435     C        0.89030    0.43800    0.19500    1.000
    C436     C        0.86730    0.44760    0.14960    1.000
    C437     C        0.85740    0.36530    0.12600    1.000
    C438     C        0.86480    0.27640    0.14240    1.000
    C439     C        0.97560    0.29700    0.30950    1.000
    C440     C        0.99400    0.37830    0.31410    1.000
    H355     H        0.98860    0.42210    0.29120    1.000
    C441     C        0.02130    0.39610    0.35390    1.000
    H356     H        0.03190    0.45450    0.35870    1.000
    C442     C        0.03290    0.32960    0.38610    1.000
    C443     C        0.01560    0.24230    0.37750    1.000
    C444     C        0.98600    0.22950    0.34110    1.000
    H357     H        0.97250    0.17410    0.33780    1.000
    O56      O        0.90310    0.11390    0.18960    1.000
    O57      O        0.91020    0.50830    0.21140    1.000
    C445     C        0.90580    0.57600    0.23420    1.000
    H358     H        0.92960    0.61250    0.23820    1.000
    H359     H        0.88390    0.61180    0.21860    1.000
    H360     H        0.90040    0.55800    0.26350    1.000
    O58      O        0.86820    0.52200    0.12550    1.000
    C446     C        0.83290    0.57200    0.11470    1.000
    H361     H        0.83730    0.62470    0.09710    1.000
    H362     H        0.81270    0.53450    0.09730    1.000
    H363     H        0.82440    0.59110    0.14240    1.000
    O59      O        0.05790    0.33670    0.42030    1.000
    C447     C        0.08010    0.42300    0.42470    1.000
    H364     H        0.09900    0.42210    0.45260    1.000
    H365     H        0.09370    0.42920    0.39930    1.000
    H366     H        0.06200    0.47260    0.42510    1.000
    O60      O        0.02290    0.19020    0.41200    1.000
    C448     C        0.01400    0.09680    0.40100    1.000
    H367     H        0.02030    0.06050    0.42820    1.000
    H368     H        0.98670    0.09040    0.38800    1.000
    H369     H        0.03030    0.07660    0.37930    1.000
    O61      O        0.95770    0.13100    0.26590    1.000
    C449     C        0.92740    0.07100    0.28590    1.000
    H370     H        0.94030    0.01590    0.29870    1.000
    H371     H        0.91750    0.10400    0.30920    1.000
    H372     H        0.90580    0.05470    0.26200    1.000
    O62      O        0.82810    0.36600    0.08660    1.000
    C450     C        0.84880    0.39900    0.05330    1.000
    H373     H        0.83110    0.40190    0.02440    1.000
    H374     H        0.85890    0.45870    0.06170    1.000
    H375     H        0.87040    0.35860    0.05080    1.000
    O63      O        0.84690    0.21660    0.12630    1.000
    C451     C        0.85100    0.14500    0.09750    1.000
    H376     H        0.82770    0.10860    0.09240    1.000
    H377     H        0.85630    0.16850    0.06880    1.000
    H378     H        0.87350    0.10780    0.11110    1.000
    C452     C        0.01470    0.96200    0.27210    1.000
    H379     H        0.01080    0.01550    0.28990    1.000
    H380     H        0.04160    0.96280    0.26590    1.000
    C453     C        0.00800    0.87600    0.29860    1.000
    H381     H        0.02610    0.87620    0.32780    1.000
    H382     H        0.98120    0.87430    0.30410    1.000
    C454     C        0.01660    0.79500    0.27050    1.000
    H383     H        0.01640    0.73910    0.28780    1.000
    H384     H        0.04220    0.80120    0.26100    1.000
    C455     C        0.90670    0.29000    0.21030    1.000
    C456     C        0.91040    0.20860    0.19850    1.000
    C457     C        0.93380    0.14100    0.23210    1.000
    C458     C        0.94880    0.17600    0.27940    1.000
    C459     C        0.95230    0.26700    0.28310    1.000
    O64      O        0.93070    0.32290    0.24910    1.000
    C460     C        0.97030    0.31200    0.31750    1.000
    C461     C        0.99690    0.26000    0.35080    1.000
    C462     C        0.99040    0.16400    0.34900    1.000
    C463     C        0.97410    0.11900    0.30890    1.000
    C464     C        0.88410    0.36010    0.18210    1.000
    C465     C        0.85600    0.34400    0.14570    1.000
    H385     H        0.85230    0.28540    0.13330    1.000
    C466     C        0.83180    0.41810    0.12620    1.000
    H386     H        0.80870    0.40820    0.10510    1.000
    C467     C        0.84400    0.50570    0.13990    1.000
    C468     C        0.87110    0.51710    0.18070    1.000
    C469     C        0.89620    0.44700    0.19580    1.000
    H387     H        0.92050    0.45740    0.21470    1.000
    O65      O        0.93510    0.05860    0.22070    1.000
    O66      O        0.97080    0.39900    0.31620    1.000
    C470     C        0.98910    0.45400    0.29500    1.000
    H388     H        0.98230    0.51500    0.30240    1.000
    H389     H        0.01720    0.44470    0.30480    1.000
    H390     H        0.98200    0.44350    0.26310    1.000
    O67      O        0.01790    0.29100    0.38880    1.000
    C471     C        0.03300    0.38000    0.38600    1.000
    H391     H        0.04800    0.39760    0.41530    1.000
    H392     H        0.05010    0.38190    0.36360    1.000
    H393     H        0.01150    0.42220    0.37760    1.000
    O68      O        0.81900    0.56460    0.13060    1.000
    C472     C        0.79210    0.56200    0.08800    1.000
    H394     H        0.77430    0.61270    0.08600    1.000
    H395     H        0.80690    0.56430    0.06340    1.000
    H396     H        0.77720    0.50590    0.08610    1.000
    O69      O        0.87860    0.59450    0.19940    1.000
    C473     C        0.92080    0.60100    0.21840    1.000
    H397     H        0.92620    0.65990    0.23250    1.000
    H398     H        0.92790    0.55420    0.24090    1.000
    H399     H        0.93600    0.59400    0.19440    1.000
    O70      O        0.88240    0.15660    0.17130    1.000
    C474     C        0.88650    0.15900    0.12470    1.000
    H400     H        0.86630    0.12200    0.10710    1.000
    H401     H        0.88380    0.22100    0.11390    1.000
    H402     H        0.91220    0.13630    0.12160    1.000
    O71      O        0.01710    0.10600    0.37800    1.000
    C475     C        0.05640    0.13500    0.37800    1.000
    H403     H        0.07450    0.09610    0.39740    1.000
    H404     H        0.06200    0.13330    0.34760    1.000
    H405     H        0.05940    0.19680    0.38940    1.000
    O72      O        0.97240    0.04400    0.30830    1.000
    C476     C        0.98500    0.96500    0.29020    1.000
    H406     H        0.97340    0.91310    0.30250    1.000
    H407     H        0.97730    0.96570    0.25760    1.000
    H408     H        0.01360    0.96100    0.29790    1.000
    C477     C        0.44790    0.22400    0.76800    1.000
    C478     C        0.43830    0.30100    0.75020    1.000
    C479     C        0.40590    0.30820    0.70780    1.000
    C480     C        0.39190    0.22300    0.68280    1.000
    C481     C        0.40370    0.14340    0.70530    1.000
    O73      O        0.43180    0.14640    0.74520    1.000
    C482     C        0.39030    0.06200    0.69500    1.000
    C483     C        0.36730    0.05240    0.64960    1.000
    C484     C        0.35740    0.13470    0.62600    1.000
    C485     C        0.36480    0.22360    0.64240    1.000
    C486     C        0.47560    0.20300    0.80950    1.000
    C487     C        0.49400    0.12170    0.81410    1.000
    H409     H        0.48860    0.07790    0.79120    1.000
    C488     C        0.52130    0.10390    0.85390    1.000
    H410     H        0.53190    0.04550    0.85870    1.000
    C489     C        0.53290    0.17040    0.88610    1.000
    C490     C        0.51560    0.25770    0.87750    1.000
    C491     C        0.48600    0.27050    0.84110    1.000
    H411     H        0.47250    0.32590    0.83780    1.000
    O74      O        0.40310    0.38610    0.68960    1.000
    O75      O        0.41020    0.99170    0.71140    1.000
    C492     C        0.40580    0.92400    0.73420    1.000
    H412     H        0.42960    0.88750    0.73820    1.000
    H413     H        0.38390    0.88820    0.71860    1.000
    H414     H        0.40040    0.94200    0.76350    1.000
    O76      O        0.36820    0.97800    0.62550    1.000
    C493     C        0.33290    0.92800    0.61470    1.000
    H415     H        0.33730    0.87530    0.59710    1.000
    H416     H        0.31270    0.96550    0.59730    1.000
    H417     H        0.32440    0.90890    0.64240    1.000
    O77      O        0.55790    0.16330    0.92030    1.000
    C494     C        0.58010    0.07700    0.92470    1.000
    H418     H        0.59900    0.07790    0.95260    1.000
    H419     H        0.59370    0.07080    0.89930    1.000
    H420     H        0.56200    0.02740    0.92510    1.000
    O78      O        0.52290    0.30980    0.91200    1.000
    C495     C        0.51400    0.40320    0.90100    1.000
    H421     H        0.52030    0.43950    0.92820    1.000
    H422     H        0.48670    0.40960    0.88800    1.000
    H423     H        0.53030    0.42340    0.87930    1.000
    O79      O        0.45770    0.36900    0.76590    1.000
    C496     C        0.42740    0.42900    0.78590    1.000
    H424     H        0.44030    0.48410    0.79870    1.000
    H425     H        0.41750    0.39600    0.80920    1.000
    H426     H        0.40580    0.44530    0.76200    1.000
    O80      O        0.32810    0.13400    0.58660    1.000
    C497     C        0.34880    0.10100    0.55330    1.000
    H427     H        0.33110    0.09810    0.52440    1.000
    H428     H        0.35890    0.04130    0.56170    1.000
    H429     H        0.37040    0.14140    0.55080    1.000
    O81      O        0.34690    0.28340    0.62630    1.000
    C498     C        0.35100    0.35500    0.59750    1.000
    H430     H        0.32770    0.39140    0.59240    1.000
    H431     H        0.35630    0.33150    0.56880    1.000
    H432     H        0.37350    0.39220    0.61110    1.000
    C499     C        0.51470    0.53800    0.77210    1.000
    H433     H        0.51080    0.48450    0.78990    1.000
    H434     H        0.54160    0.53720    0.76590    1.000
    C500     C        0.50800    0.62400    0.79860    1.000
    H435     H        0.52610    0.62380    0.82780    1.000
    H436     H        0.48120    0.62570    0.80410    1.000
    C501     C        0.51660    0.70500    0.77050    1.000
    H437     H        0.51640    0.76090    0.78780    1.000
    H438     H        0.54220    0.69880    0.76100    1.000
    C502     C        0.40670    0.21000    0.71030    1.000
    C503     C        0.41040    0.29140    0.69850    1.000
    C504     C        0.43380    0.35900    0.73210    1.000
    C505     C        0.44880    0.32400    0.77940    1.000
    C506     C        0.45230    0.23300    0.78310    1.000
    O82      O        0.43070    0.17710    0.74910    1.000
    C507     C        0.47030    0.18800    0.81750    1.000
    C508     C        0.49690    0.24000    0.85080    1.000
    C509     C        0.49040    0.33600    0.84900    1.000
    C510     C        0.47410    0.38100    0.80890    1.000
    C511     C        0.38410    0.13990    0.68210    1.000
    C512     C        0.35600    0.15600    0.64570    1.000
    H439     H        0.35230    0.21460    0.63330    1.000
    C513     C        0.33180    0.08190    0.62620    1.000
    H440     H        0.30870    0.09180    0.60510    1.000
    C514     C        0.34400    0.99430    0.63990    1.000
    C515     C        0.37110    0.98290    0.68070    1.000
    C516     C        0.39620    0.05300    0.69580    1.000
    H441     H        0.42050    0.04260    0.71470    1.000
    O83      O        0.43510    0.44140    0.72070    1.000
    O84      O        0.47080    0.10100    0.81620    1.000
    C517     C        0.48910    0.04600    0.79500    1.000
    H442     H        0.48230    0.98500    0.80240    1.000
    H443     H        0.51720    0.05530    0.80480    1.000
    H444     H        0.48200    0.05650    0.76310    1.000
    O85      O        0.51790    0.20900    0.88880    1.000
    C518     C        0.53300    0.12000    0.88600    1.000
    H445     H        0.54800    0.10240    0.91530    1.000
    H446     H        0.55010    0.11810    0.86360    1.000
    H447     H        0.51150    0.07780    0.87760    1.000
    O86      O        0.31900    0.93540    0.63060    1.000
    C519     C        0.29210    0.93800    0.58800    1.000
    H448     H        0.27430    0.88730    0.58600    1.000
    H449     H        0.30690    0.93570    0.56340    1.000
    H450     H        0.27720    0.99410    0.58610    1.000
    O87      O        0.37860    0.90550    0.69940    1.000
    C520     C        0.42080    0.89900    0.71840    1.000
    H451     H        0.42620    0.84010    0.73250    1.000
    H452     H        0.42790    0.94580    0.74090    1.000
    H453     H        0.43600    0.90600    0.69440    1.000
    O88      O        0.38240    0.34340    0.67130    1.000
    C521     C        0.38650    0.34100    0.62470    1.000
    H454     H        0.36630    0.37800    0.60710    1.000
    H455     H        0.38380    0.27900    0.61390    1.000
    H456     H        0.41220    0.36370    0.62160    1.000
    O89      O        0.51710    0.39400    0.87800    1.000
    C522     C        0.55640    0.36500    0.87800    1.000
    H457     H        0.57450    0.40390    0.89740    1.000
    H458     H        0.56200    0.36670    0.84760    1.000
    H459     H        0.55940    0.30320    0.88940    1.000
    O90      O        0.47240    0.45600    0.80830    1.000
    C523     C        0.48500    0.53500    0.79020    1.000
    H460     H        0.47340    0.58690    0.80250    1.000
    H461     H        0.47730    0.53430    0.75760    1.000
    H462     H        0.51360    0.53900    0.79790    1.000
    C524     C        0.55210    0.22400    0.73200    1.000
    C525     C        0.56170    0.30100    0.74980    1.000
    C526     C        0.59410    0.30820    0.79220    1.000
    C527     C        0.60810    0.22300    0.81720    1.000
    C528     C        0.59630    0.14340    0.79470    1.000
    O91      O        0.56820    0.14640    0.75480    1.000
    C529     C        0.60970    0.06200    0.80500    1.000
    C530     C        0.63270    0.05240    0.85040    1.000
    C531     C        0.64260    0.13470    0.87400    1.000
    C532     C        0.63520    0.22360    0.85760    1.000
    C533     C        0.52440    0.20300    0.69050    1.000
    C534     C        0.50600    0.12170    0.68590    1.000
    H463     H        0.51140    0.07790    0.70880    1.000
    C535     C        0.47870    0.10390    0.64610    1.000
    H464     H        0.46810    0.04550    0.64130    1.000
    C536     C        0.46710    0.17040    0.61390    1.000
    C537     C        0.48440    0.25770    0.62250    1.000
    C538     C        0.51400    0.27050    0.65890    1.000
    H465     H        0.52750    0.32590    0.66220    1.000
    O92      O        0.59690    0.38610    0.81040    1.000
    O93      O        0.58980    0.99170    0.78860    1.000
    C539     C        0.59420    0.92400    0.76580    1.000
    H466     H        0.57040    0.88750    0.76180    1.000
    H467     H        0.61610    0.88820    0.78140    1.000
    H468     H        0.59960    0.94200    0.73650    1.000
    O94      O        0.63180    0.97800    0.87450    1.000
    C540     C        0.66710    0.92800    0.88530    1.000
    H469     H        0.66270    0.87530    0.90290    1.000
    H470     H        0.68730    0.96550    0.90270    1.000
    H471     H        0.67560    0.90890    0.85760    1.000
    O95      O        0.44210    0.16330    0.57970    1.000
    C541     C        0.41990    0.07700    0.57530    1.000
    H472     H        0.40100    0.07790    0.54740    1.000
    H473     H        0.40630    0.07080    0.60070    1.000
    H474     H        0.43800    0.02740    0.57490    1.000
    O96      O        0.47710    0.30980    0.58800    1.000
    C542     C        0.48600    0.40320    0.59900    1.000
    H475     H        0.47970    0.43950    0.57180    1.000
    H476     H        0.51330    0.40960    0.61200    1.000
    H477     H        0.46970    0.42340    0.62070    1.000
    O97      O        0.54230    0.36900    0.73410    1.000
    C543     C        0.57260    0.42900    0.71410    1.000
    H478     H        0.55970    0.48410    0.70130    1.000
    H479     H        0.58250    0.39600    0.69080    1.000
    H480     H        0.59420    0.44530    0.73800    1.000
    O98      O        0.67190    0.13400    0.91340    1.000
    C544     C        0.65120    0.10100    0.94670    1.000
    H481     H        0.66890    0.09810    0.97560    1.000
    H482     H        0.64110    0.04130    0.93830    1.000
    H483     H        0.62960    0.14140    0.94920    1.000
    O99      O        0.65310    0.28340    0.87370    1.000
    C545     C        0.64900    0.35500    0.90250    1.000
    H484     H        0.67230    0.39140    0.90760    1.000
    H485     H        0.64370    0.33150    0.93120    1.000
    H486     H        0.62650    0.39220    0.88890    1.000
    C546     C        0.48530    0.53800    0.72790    1.000
    H487     H        0.48920    0.48450    0.71010    1.000
    H488     H        0.45840    0.53720    0.73410    1.000
    C547     C        0.49200    0.62400    0.70140    1.000
    H489     H        0.47390    0.62380    0.67220    1.000
    H490     H        0.51880    0.62570    0.69590    1.000
    C548     C        0.48340    0.70500    0.72950    1.000
    H491     H        0.48360    0.76090    0.71220    1.000
    H492     H        0.45780    0.69880    0.73900    1.000
    C549     C        0.59330    0.21000    0.78970    1.000
    C550     C        0.58960    0.29140    0.80150    1.000
    C551     C        0.56620    0.35900    0.76790    1.000
    C552     C        0.55120    0.32400    0.72060    1.000
    C553     C        0.54770    0.23300    0.71690    1.000
    O100     O        0.56930    0.17710    0.75090    1.000
    C554     C        0.52970    0.18800    0.68250    1.000
    C555     C        0.50310    0.24000    0.64920    1.000
    C556     C        0.50960    0.33600    0.65100    1.000
    C557     C        0.52590    0.38100    0.69110    1.000
    C558     C        0.61590    0.13990    0.81790    1.000
    C559     C        0.64400    0.15600    0.85430    1.000
    H493     H        0.64770    0.21460    0.86670    1.000
    C560     C        0.66820    0.08190    0.87380    1.000
    H494     H        0.69130    0.09180    0.89490    1.000
    C561     C        0.65600    0.99430    0.86010    1.000
    C562     C        0.62890    0.98290    0.81930    1.000
    C563     C        0.60380    0.05300    0.80420    1.000
    H495     H        0.57950    0.04260    0.78530    1.000
    O101     O        0.56490    0.44140    0.77930    1.000
    O102     O        0.52920    0.10100    0.68380    1.000
    C564     C        0.51090    0.04600    0.70500    1.000
    H496     H        0.51770    0.98500    0.69760    1.000
    H497     H        0.48280    0.05530    0.69520    1.000
    H498     H        0.51800    0.05650    0.73690    1.000
    O103     O        0.48210    0.20900    0.61120    1.000
    C565     C        0.46700    0.12000    0.61400    1.000
    H499     H        0.45200    0.10240    0.58470    1.000
    H500     H        0.44990    0.11810    0.63640    1.000
    H501     H        0.48850    0.07780    0.62240    1.000
    O104     O        0.68100    0.93540    0.86940    1.000
    C566     C        0.70790    0.93800    0.91200    1.000
    H502     H        0.72570    0.88730    0.91400    1.000
    H503     H        0.69310    0.93570    0.93660    1.000
    H504     H        0.72280    0.99410    0.91390    1.000
    O105     O        0.62140    0.90550    0.80060    1.000
    C567     C        0.57920    0.89900    0.78160    1.000
    H505     H        0.57380    0.84010    0.76750    1.000
    H506     H        0.57210    0.94580    0.75910    1.000
    H507     H        0.56400    0.90600    0.80560    1.000
    O106     O        0.61760    0.34340    0.82870    1.000
    C568     C        0.61350    0.34100    0.87530    1.000
    H508     H        0.63370    0.37800    0.89290    1.000
    H509     H        0.61620    0.27900    0.88610    1.000
    H510     H        0.58780    0.36370    0.87840    1.000
    O107     O        0.48290    0.39400    0.62200    1.000
    C569     C        0.44360    0.36500    0.62200    1.000
    H511     H        0.42550    0.40390    0.60260    1.000
    H512     H        0.43800    0.36670    0.65240    1.000
    H513     H        0.44060    0.30320    0.61060    1.000
    O108     O        0.52760    0.45600    0.69170    1.000
    C570     C        0.51500    0.53500    0.70980    1.000
    H514     H        0.52660    0.58690    0.69750    1.000
    H515     H        0.52270    0.53430    0.74240    1.000
    H516     H        0.48640    0.53900    0.70210    1.000
    C571     C        0.94790    0.72400    0.76800    1.000
    C572     C        0.93830    0.80100    0.75020    1.000
    C573     C        0.90590    0.80820    0.70780    1.000
    C574     C        0.89190    0.72300    0.68280    1.000
    C575     C        0.90370    0.64340    0.70530    1.000
    O109     O        0.93180    0.64640    0.74520    1.000
    C576     C        0.89030    0.56200    0.69500    1.000
    C577     C        0.86730    0.55240    0.64960    1.000
    C578     C        0.85740    0.63470    0.62600    1.000
    C579     C        0.86480    0.72360    0.64240    1.000
    C580     C        0.97560    0.70300    0.80950    1.000
    C581     C        0.99400    0.62170    0.81410    1.000
    H517     H        0.98860    0.57790    0.79120    1.000
    C582     C        0.02130    0.60390    0.85390    1.000
    H518     H        0.03190    0.54550    0.85870    1.000
    C583     C        0.03290    0.67040    0.88610    1.000
    C584     C        0.01560    0.75770    0.87750    1.000
    C585     C        0.98600    0.77050    0.84110    1.000
    H519     H        0.97250    0.82590    0.83780    1.000
    O110     O        0.90310    0.88610    0.68960    1.000
    O111     O        0.91020    0.49170    0.71140    1.000
    C586     C        0.90580    0.42400    0.73420    1.000
    H520     H        0.92960    0.38750    0.73820    1.000
    H521     H        0.88390    0.38820    0.71860    1.000
    H522     H        0.90040    0.44200    0.76350    1.000
    O112     O        0.86820    0.47800    0.62550    1.000
    C587     C        0.83290    0.42800    0.61470    1.000
    H523     H        0.83730    0.37530    0.59710    1.000
    H524     H        0.81270    0.46550    0.59730    1.000
    H525     H        0.82440    0.40890    0.64240    1.000
    O113     O        0.05790    0.66330    0.92030    1.000
    C588     C        0.08010    0.57700    0.92470    1.000
    H526     H        0.09900    0.57790    0.95260    1.000
    H527     H        0.09370    0.57080    0.89930    1.000
    H528     H        0.06200    0.52740    0.92510    1.000
    O114     O        0.02290    0.80980    0.91200    1.000
    C589     C        0.01400    0.90320    0.90100    1.000
    H529     H        0.02030    0.93950    0.92820    1.000
    H530     H        0.98670    0.90960    0.88800    1.000
    H531     H        0.03030    0.92340    0.87930    1.000
    O115     O        0.95770    0.86900    0.76590    1.000
    C590     C        0.92740    0.92900    0.78590    1.000
    H532     H        0.94030    0.98410    0.79870    1.000
    H533     H        0.91750    0.89600    0.80920    1.000
    H534     H        0.90580    0.94530    0.76200    1.000
    O116     O        0.82810    0.63400    0.58660    1.000
    C591     C        0.84880    0.60100    0.55330    1.000
    H535     H        0.83110    0.59810    0.52440    1.000
    H536     H        0.85890    0.54130    0.56170    1.000
    H537     H        0.87040    0.64140    0.55080    1.000
    O117     O        0.84690    0.78340    0.62630    1.000
    C592     C        0.85100    0.85500    0.59750    1.000
    H538     H        0.82770    0.89140    0.59240    1.000
    H539     H        0.85630    0.83150    0.56880    1.000
    H540     H        0.87350    0.89220    0.61110    1.000
    C593     C        0.01470    0.03800    0.77210    1.000
    H541     H        0.01080    0.98450    0.78990    1.000
    H542     H        0.04160    0.03720    0.76590    1.000
    C594     C        0.00800    0.12400    0.79860    1.000
    H543     H        0.02610    0.12380    0.82780    1.000
    H544     H        0.98120    0.12570    0.80410    1.000
    C595     C        0.01660    0.20500    0.77050    1.000
    H545     H        0.01640    0.26090    0.78780    1.000
    H546     H        0.04220    0.19880    0.76100    1.000
    C596     C        0.90670    0.71000    0.71030    1.000
    C597     C        0.91040    0.79140    0.69850    1.000
    C598     C        0.93380    0.85900    0.73210    1.000
    C599     C        0.94880    0.82400    0.77940    1.000
    C600     C        0.95230    0.73300    0.78310    1.000
    O118     O        0.93070    0.67710    0.74910    1.000
    C601     C        0.97030    0.68800    0.81750    1.000
    C602     C        0.99690    0.74000    0.85080    1.000
    C603     C        0.99040    0.83600    0.84900    1.000
    C604     C        0.97410    0.88100    0.80890    1.000
    C605     C        0.88410    0.63990    0.68210    1.000
    C606     C        0.85600    0.65600    0.64570    1.000
    H547     H        0.85230    0.71460    0.63330    1.000
    C607     C        0.83180    0.58190    0.62620    1.000
    H548     H        0.80870    0.59180    0.60510    1.000
    C608     C        0.84400    0.49430    0.63990    1.000
    C609     C        0.87110    0.48290    0.68070    1.000
    C610     C        0.89620    0.55300    0.69580    1.000
    H549     H        0.92050    0.54260    0.71470    1.000
    O119     O        0.93510    0.94140    0.72070    1.000
    O120     O        0.97080    0.60100    0.81620    1.000
    C611     C        0.98910    0.54600    0.79500    1.000
    H550     H        0.98230    0.48500    0.80240    1.000
    H551     H        0.01720    0.55530    0.80480    1.000
    H552     H        0.98200    0.55650    0.76310    1.000
    O121     O        0.01790    0.70900    0.88880    1.000
    C612     C        0.03300    0.62000    0.88600    1.000
    H553     H        0.04800    0.60240    0.91530    1.000
    H554     H        0.05010    0.61810    0.86360    1.000
    H555     H        0.01150    0.57780    0.87760    1.000
    O122     O        0.81900    0.43540    0.63060    1.000
    C613     C        0.79210    0.43800    0.58800    1.000
    H556     H        0.77430    0.38730    0.58600    1.000
    H557     H        0.80690    0.43570    0.56340    1.000
    H558     H        0.77720    0.49410    0.58610    1.000
    O123     O        0.87860    0.40550    0.69940    1.000
    C614     C        0.92080    0.39900    0.71840    1.000
    H559     H        0.92620    0.34010    0.73250    1.000
    H560     H        0.92790    0.44580    0.74090    1.000
    H561     H        0.93600    0.40600    0.69440    1.000
    O124     O        0.88240    0.84340    0.67130    1.000
    C615     C        0.88650    0.84100    0.62470    1.000
    H562     H        0.86630    0.87800    0.60710    1.000
    H563     H        0.88380    0.77900    0.61390    1.000
    H564     H        0.91220    0.86370    0.62160    1.000
    O125     O        0.01710    0.89400    0.87800    1.000
    C616     C        0.05640    0.86500    0.87800    1.000
    H565     H        0.07450    0.90390    0.89740    1.000
    H566     H        0.06200    0.86670    0.84760    1.000
    H567     H        0.05940    0.80320    0.88940    1.000
    O126     O        0.97240    0.95600    0.80830    1.000
    C617     C        0.98500    0.03500    0.79020    1.000
    H568     H        0.97340    0.08690    0.80250    1.000
    H569     H        0.97730    0.03430    0.75760    1.000
    H570     H        0.01360    0.03900    0.79790    1.000
    C618     C        0.05210    0.72400    0.73200    1.000
    C619     C        0.06170    0.80100    0.74980    1.000
    C620     C        0.09410    0.80820    0.79220    1.000
    C621     C        0.10810    0.72300    0.81720    1.000
    C622     C        0.09630    0.64340    0.79470    1.000
    O127     O        0.06820    0.64640    0.75480    1.000
    C623     C        0.10970    0.56200    0.80500    1.000
    C624     C        0.13270    0.55240    0.85040    1.000
    C625     C        0.14260    0.63470    0.87400    1.000
    C626     C        0.13520    0.72360    0.85760    1.000
    C627     C        0.02440    0.70300    0.69050    1.000
    C628     C        0.00600    0.62170    0.68590    1.000
    H571     H        0.01140    0.57790    0.70880    1.000
    C629     C        0.97870    0.60390    0.64610    1.000
    H572     H        0.96810    0.54550    0.64130    1.000
    C630     C        0.96710    0.67040    0.61390    1.000
    C631     C        0.98440    0.75770    0.62250    1.000
    C632     C        0.01400    0.77050    0.65890    1.000
    H573     H        0.02750    0.82590    0.66220    1.000
    O128     O        0.09690    0.88610    0.81040    1.000
    O129     O        0.08980    0.49170    0.78860    1.000
    C633     C        0.09420    0.42400    0.76580    1.000
    H574     H        0.07040    0.38750    0.76180    1.000
    H575     H        0.11610    0.38820    0.78140    1.000
    H576     H        0.09960    0.44200    0.73650    1.000
    O130     O        0.13180    0.47800    0.87450    1.000
    C634     C        0.16710    0.42800    0.88530    1.000
    H577     H        0.16270    0.37530    0.90290    1.000
    H578     H        0.18730    0.46550    0.90270    1.000
    H579     H        0.17560    0.40890    0.85760    1.000
    O131     O        0.94210    0.66330    0.57970    1.000
    C635     C        0.91990    0.57700    0.57530    1.000
    H580     H        0.90100    0.57790    0.54740    1.000
    H581     H        0.90630    0.57080    0.60070    1.000
    H582     H        0.93800    0.52740    0.57490    1.000
    O132     O        0.97710    0.80980    0.58800    1.000
    C636     C        0.98600    0.90320    0.59900    1.000
    H583     H        0.97970    0.93950    0.57180    1.000
    H584     H        0.01330    0.90960    0.61200    1.000
    H585     H        0.96970    0.92340    0.62070    1.000
    O133     O        0.04230    0.86900    0.73410    1.000
    C637     C        0.07260    0.92900    0.71410    1.000
    H586     H        0.05970    0.98410    0.70130    1.000
    H587     H        0.08250    0.89600    0.69080    1.000
    H588     H        0.09420    0.94530    0.73800    1.000
    O134     O        0.17190    0.63400    0.91340    1.000
    C638     C        0.15120    0.60100    0.94670    1.000
    H589     H        0.16890    0.59810    0.97560    1.000
    H590     H        0.14110    0.54130    0.93830    1.000
    H591     H        0.12960    0.64140    0.94920    1.000
    O135     O        0.15310    0.78340    0.87370    1.000
    C639     C        0.14900    0.85500    0.90250    1.000
    H592     H        0.17230    0.89140    0.90760    1.000
    H593     H        0.14370    0.83150    0.93120    1.000
    H594     H        0.12650    0.89220    0.88890    1.000
    C640     C        0.98530    0.03800    0.72790    1.000
    H595     H        0.98920    0.98450    0.71010    1.000
    H596     H        0.95840    0.03720    0.73410    1.000
    C641     C        0.99200    0.12400    0.70140    1.000
    H597     H        0.97390    0.12380    0.67220    1.000
    H598     H        0.01880    0.12570    0.69590    1.000
    C642     C        0.98340    0.20500    0.72950    1.000
    H599     H        0.98360    0.26090    0.71220    1.000
    H600     H        0.95780    0.19880    0.73900    1.000
    C643     C        0.09330    0.71000    0.78970    1.000
    C644     C        0.08960    0.79140    0.80150    1.000
    C645     C        0.06620    0.85900    0.76790    1.000
    C646     C        0.05120    0.82400    0.72060    1.000
    C647     C        0.04770    0.73300    0.71690    1.000
    O136     O        0.06930    0.67710    0.75090    1.000
    C648     C        0.02970    0.68800    0.68250    1.000
    C649     C        0.00310    0.74000    0.64920    1.000
    C650     C        0.00960    0.83600    0.65100    1.000
    C651     C        0.02590    0.88100    0.69110    1.000
    C652     C        0.11590    0.63990    0.81790    1.000
    C653     C        0.14400    0.65600    0.85430    1.000
    H601     H        0.14770    0.71460    0.86670    1.000
    C654     C        0.16820    0.58190    0.87380    1.000
    H602     H        0.19130    0.59180    0.89490    1.000
    C655     C        0.15600    0.49430    0.86010    1.000
    C656     C        0.12890    0.48290    0.81930    1.000
    C657     C        0.10380    0.55300    0.80420    1.000
    H603     H        0.07950    0.54260    0.78530    1.000
    O137     O        0.06490    0.94140    0.77930    1.000
    O138     O        0.02920    0.60100    0.68380    1.000
    C658     C        0.01090    0.54600    0.70500    1.000
    H604     H        0.01770    0.48500    0.69760    1.000
    H605     H        0.98280    0.55530    0.69520    1.000
    H606     H        0.01800    0.55650    0.73690    1.000
    O139     O        0.98210    0.70900    0.61120    1.000
    C659     C        0.96700    0.62000    0.61400    1.000
    H607     H        0.95200    0.60240    0.58470    1.000
    H608     H        0.94990    0.61810    0.63640    1.000
    H609     H        0.98850    0.57780    0.62240    1.000
    O140     O        0.18100    0.43540    0.86940    1.000
    C660     C        0.20790    0.43800    0.91200    1.000
    H610     H        0.22570    0.38730    0.91400    1.000
    H611     H        0.19310    0.43570    0.93660    1.000
    H612     H        0.22280    0.49410    0.91390    1.000
    O141     O        0.12140    0.40550    0.80060    1.000
    C661     C        0.07920    0.39900    0.78160    1.000
    H613     H        0.07380    0.34010    0.76750    1.000
    H614     H        0.07210    0.44580    0.75910    1.000
    H615     H        0.06400    0.40600    0.80560    1.000
    O142     O        0.11760    0.84340    0.82870    1.000
    C662     C        0.11350    0.84100    0.87530    1.000
    H616     H        0.13370    0.87800    0.89290    1.000
    H617     H        0.11620    0.77900    0.88610    1.000
    H618     H        0.08780    0.86370    0.87840    1.000
    O143     O        0.98290    0.89400    0.62200    1.000
    C663     C        0.94360    0.86500    0.62200    1.000
    H619     H        0.92550    0.90390    0.60260    1.000
    H620     H        0.93800    0.86670    0.65240    1.000
    H621     H        0.94060    0.80320    0.61060    1.000
    O144     O        0.02760    0.95600    0.69170    1.000
    C664     C        0.01500    0.03500    0.70980    1.000
    H622     H        0.02660    0.08690    0.69750    1.000
    H623     H        0.02270    0.03430    0.74240    1.000
    H624     H        0.98640    0.03900    0.70210    1.000
