# CIF file generated by openbabel 3.1.0, see https://openbabel.org
data_I
_chemical_name_common 'EBIPIQ_clean'
_cell_length_a 7.5798
_cell_length_b 8.7849
_cell_length_c 19.056
_cell_angle_alpha 94.154
_cell_angle_beta 96.89
_cell_angle_gamma 112.58
_space_group_name_H-M_alt 'P 1'
_space_group_name_Hall 'P 1'
loop_
    _symmetry_equiv_pos_as_xyz
    x,y,z
loop_
    _atom_site_label
    _atom_site_type_symbol
    _atom_site_fract_x
    _atom_site_fract_y
    _atom_site_fract_z
    _atom_site_occupancy
    Cu1      Cu       0.32000    0.14529    0.16641    1.000
    Cu2      Cu       0.00510    0.29536    0.34890    1.000
    Cu3      Cu       0.68000    0.85471    0.83359    1.000
    Cu4      Cu       0.99490    0.70464    0.65110    1.000
    H1       H        0.99160    0.65850    0.01080    1.000
    H2       H        0.18550    0.62900    0.02360    1.000
    H3       H        0.08260    0.66410    0.13240    1.000
    H4       H        0.08580    0.48490    0.11950    1.000
    H5       H        0.41340    0.46740    0.08930    1.000
    H6       H        0.77650    0.27420    0.15820    1.000
    H7       H        0.35160    0.85870    0.51910    1.000
    H8       H        0.54370    0.85600    0.49560    1.000
    H9       H        0.28460    0.73860    0.40040    1.000
    H10      H        0.44710    0.89880    0.37980    1.000
    H11      H        0.83980    0.97180    0.41970    1.000
    H12      H        0.32650    0.12890    0.34420    1.000
    H13      H        0.96910    0.73590    0.26380    1.000
    H14      H        0.33550    0.69160    0.24350    1.000
    H15      H        0.00840    0.34150    0.98920    1.000
    H16      H        0.81450    0.37100    0.97640    1.000
    H17      H        0.91740    0.33590    0.86760    1.000
    H18      H        0.91420    0.51510    0.88050    1.000
    H19      H        0.58660    0.53260    0.91070    1.000
    H20      H        0.22350    0.72580    0.84180    1.000
    H21      H        0.64840    0.14130    0.48090    1.000
    H22      H        0.45630    0.14400    0.50440    1.000
    H23      H        0.71540    0.26140    0.59960    1.000
    H24      H        0.55290    0.10120    0.62020    1.000
    H25      H        0.16020    0.02820    0.58030    1.000
    H26      H        0.67350    0.87110    0.65580    1.000
    H27      H        0.03090    0.26410    0.73620    1.000
    H28      H        0.66450    0.30840    0.75650    1.000
    C1       C        0.04670    0.57960    0.02590    1.000
    C2       C        0.02110    0.55600    0.10250    1.000
    C3       C        0.52880    0.45140    0.10040    1.000
    C4       C        0.72140    0.34360    0.13830    1.000
    C5       C        0.44870    0.90620    0.48840    1.000
    C6       C        0.34980    0.85980    0.41110    1.000
    C7       C        0.96050    0.98070    0.40840    1.000
    C8       C        0.22280    0.06760    0.36690    1.000
    C9       C        0.51530    0.58460    0.27910    1.000
    C10      C        0.70730    0.59910    0.28660    1.000
    C11      C        0.84040    0.72670    0.25920    1.000
    C12      C        0.79080    0.84270    0.22490    1.000
    C13      C        0.59790    0.82870    0.21840    1.000
    C14      C        0.46370    0.70000    0.24660    1.000
    C15      C        0.35310    0.43370    0.29750    1.000
    C16      C        0.76620    0.48180    0.32580    1.000
    C17      C        0.94200    0.98180    0.19670    1.000
    C18      C        0.52140    0.93980    0.17960    1.000
    C19      C        0.95330    0.42040    0.97410    1.000
    C20      C        0.97890    0.44400    0.89750    1.000
    C21      C        0.47120    0.54860    0.89960    1.000
    C22      C        0.27860    0.65640    0.86170    1.000
    C23      C        0.55130    0.09380    0.51160    1.000
    C24      C        0.65020    0.14020    0.58890    1.000
    C25      C        0.03950    0.01930    0.59160    1.000
    C26      C        0.77720    0.93240    0.63310    1.000
    C27      C        0.48470    0.41540    0.72090    1.000
    C28      C        0.29270    0.40090    0.71340    1.000
    C29      C        0.15960    0.27330    0.74080    1.000
    C30      C        0.20920    0.15730    0.77510    1.000
    C31      C        0.40210    0.17130    0.78160    1.000
    C32      C        0.53630    0.30000    0.75340    1.000
    C33      C        0.64690    0.56630    0.70250    1.000
    C34      C        0.23380    0.51820    0.67420    1.000
    C35      C        0.05800    0.01820    0.80330    1.000
    C36      C        0.47860    0.06020    0.82040    1.000
    N1       N        0.81640    0.48030    0.10990    1.000
    N2       N        0.69280    0.55080    0.08510    1.000
    N3       N        0.53770    0.32110    0.13390    1.000
    N4       N        0.20790    0.93420    0.39770    1.000
    N5       N        0.03970    0.87640    0.42590    1.000
    N6       N        0.06790    0.10180    0.37290    1.000
    N7       N        0.18360    0.51970    0.89010    1.000
    N8       N        0.30720    0.44920    0.91490    1.000
    N9       N        0.46230    0.67890    0.86610    1.000
    N10      N        0.79210    0.06580    0.60230    1.000
    N11      N        0.96030    0.12360    0.57410    1.000
    N12      N        0.93210    0.89820    0.62710    1.000
    O1       O        0.30420    0.30110    0.25890    1.000
    O2       O        0.26670    0.45700    0.34674    1.000
    O3       O        0.91670    0.46220    0.31178    1.000
    O4       O        0.66360    0.40780    0.36990    1.000
    O5       O        0.10000    0.96580    0.19131    1.000
    O6       O        0.90160    0.09880    0.18070    1.000
    O7       O        0.49400    0.05150    0.21956    1.000
    O8       O        0.47200    0.91160    0.11434    1.000
    O9       O        0.69580    0.69890    0.74110    1.000
    O10      O        0.73330    0.54300    0.65326    1.000
    O11      O        0.08330    0.53780    0.68822    1.000
    O12      O        0.33640    0.59220    0.63010    1.000
    O13      O        0.90000    0.03420    0.80869    1.000
    O14      O        0.09840    0.90120    0.81930    1.000
    O15      O        0.50600    0.94850    0.78044    1.000
    O16      O        0.52800    0.08840    0.88566    1.000
