# CIF file generated by openbabel 3.1.0, see https://openbabel.org
data_I
_chemical_name_common 'image0'
_cell_length_a 19.552
_cell_length_b 21.898
_cell_length_c 25.297
_cell_angle_alpha 90
_cell_angle_beta 90
_cell_angle_gamma 90
_space_group_name_H-M_alt 'P 1'
_space_group_name_Hall 'P 1'
loop_
    _symmetry_equiv_pos_as_xyz
    x,y,z
loop_
    _atom_site_label
    _atom_site_type_symbol
    _atom_site_fract_x
    _atom_site_fract_y
    _atom_site_fract_z
    _atom_site_occupancy
    U1       U        0.79746    0.18151    0.33131    1.000
    P1       P        0.51640    0.99340    0.55129    1.000
    C1       C        0.59470    0.00170    0.45940    1.000
    H1       H        0.57590    0.96410    0.45010    1.000
    O1       O        0.73100    0.09290    0.36110    1.000
    C2       C        0.58430    0.87140    0.66040    1.000
    H2       H        0.57310    0.83120    0.66870    1.000
    C3       C        0.56730    0.95940    0.60510    1.000
    O2       O        0.73710    0.16700    0.41560    1.000
    C4       C        0.55470    0.89880    0.61900    1.000
    H3       H        0.52430    0.87630    0.59860    1.000
    C5       C        0.61380    0.98980    0.63230    1.000
    H4       H        0.62280    0.03030    0.62370    1.000
    C6       C        0.65010    0.96210    0.67380    1.000
    H5       H        0.68600    0.98160    0.69110    1.000
    C7       C        0.70770    0.11530    0.40760    1.000
    C8       C        0.63650    0.02960    0.42690    1.000
    H6       H        0.64720    0.01220    0.39440    1.000
    C9       C        0.61300    0.08680    0.52210    1.000
    H7       H        0.60530    0.10560    0.55450    1.000
    O3       O        0.47400    0.94650    0.52220    1.000
    C10      C        0.57730    0.02910    0.51030    1.000
    C11      C        0.66490    0.08610    0.44180    1.000
    C12      C        0.65440    0.11200    0.48920    1.000
    H8       H        0.67680    0.14800    0.49820    1.000
    C13      C        0.46770    0.05080    0.58010    1.000
    C14      C        0.62740    0.89990    0.68830    1.000
    O4       O        0.30500    0.22920    0.61030    1.000
    O5       O        0.36120    0.22390    0.68420    1.000
    C15      C        0.38620    0.14900    0.61760    1.000
    C16      C        0.35140    0.20120    0.63810    1.000
    C17      C        0.37500    0.12740    0.57290    1.000
    H9       H        0.34310    0.14470    0.55000    1.000
    C18      C        0.41520    0.07280    0.55840    1.000
    H10      H        0.39950    0.05150    0.52890    1.000
    C19      C        0.48050    0.07770    0.63280    1.000
    H11      H        0.51180    0.06020    0.65590    1.000
    C20      C        0.44470    0.12980    0.64670    1.000
    H12      H        0.45910    0.15270    0.67550    1.000
    O6       O        0.70130    0.90010    0.76560    1.000
    O7       O        0.64920    0.82120    0.74500    1.000
    C21      C        0.66210    0.87340    0.73420    1.000
    U2       U        0.70254    0.81849    0.83131    1.000
    P2       P        0.98360    0.00660    0.05129    1.000
    C22      C        0.90530    0.99830    0.95940    1.000
    H13      H        0.92410    0.03590    0.95010    1.000
    O8       O        0.76900    0.90710    0.86110    1.000
    C23      C        0.91570    0.12860    0.16040    1.000
    H14      H        0.92690    0.16880    0.16870    1.000
    C24      C        0.93270    0.04060    0.10510    1.000
    O9       O        0.76290    0.83300    0.91560    1.000
    C25      C        0.94530    0.10120    0.11900    1.000
    H15      H        0.97570    0.12370    0.09860    1.000
    C26      C        0.88620    0.01020    0.13230    1.000
    H16      H        0.87720    0.96970    0.12370    1.000
    C27      C        0.84990    0.03790    0.17380    1.000
    H17      H        0.81400    0.01840    0.19110    1.000
    C28      C        0.79230    0.88470    0.90760    1.000
    C29      C        0.86350    0.97040    0.92690    1.000
    H18      H        0.85280    0.98780    0.89440    1.000
    C30      C        0.88700    0.91320    0.02210    1.000
    H19      H        0.89470    0.89440    0.05450    1.000
    O10      O        0.02600    0.05350    0.02220    1.000
    C31      C        0.92270    0.97090    0.01030    1.000
    C32      C        0.83510    0.91390    0.94180    1.000
    C33      C        0.84560    0.88800    0.98920    1.000
    H20      H        0.82320    0.85200    0.99820    1.000
    C34      C        0.03230    0.94920    0.08010    1.000
    C35      C        0.87260    0.10010    0.18830    1.000
    O11      O        0.19500    0.77080    0.11030    1.000
    O12      O        0.13880    0.77610    0.18420    1.000
    C36      C        0.11380    0.85100    0.11760    1.000
    C37      C        0.14860    0.79880    0.13810    1.000
    C38      C        0.12500    0.87260    0.07290    1.000
    H21      H        0.15690    0.85530    0.05000    1.000
    C39      C        0.08480    0.92720    0.05840    1.000
    H22      H        0.10050    0.94850    0.02890    1.000
    C40      C        0.01950    0.92230    0.13280    1.000
    H23      H        0.98820    0.93980    0.15590    1.000
    C41      C        0.05530    0.87020    0.14670    1.000
    H24      H        0.04090    0.84730    0.17550    1.000
    O13      O        0.79870    0.09990    0.26560    1.000
    O14      O        0.85080    0.17880    0.24500    1.000
    C42      C        0.83790    0.12660    0.23420    1.000
    U3       U        0.20254    0.68151    0.16869    1.000
    P3       P        0.48360    0.49340    0.94871    1.000
    C43      C        0.40530    0.50170    0.04060    1.000
    H25      H        0.42410    0.46410    0.04990    1.000
    O15      O        0.26900    0.59290    0.13890    1.000
    C44      C        0.41570    0.37140    0.83960    1.000
    H26      H        0.42690    0.33120    0.83130    1.000
    C45      C        0.43270    0.45940    0.89490    1.000
    O16      O        0.26290    0.66700    0.08440    1.000
    C46      C        0.44530    0.39880    0.88100    1.000
    H27      H        0.47570    0.37630    0.90140    1.000
    C47      C        0.38620    0.48980    0.86770    1.000
    H28      H        0.37720    0.53030    0.87630    1.000
    C48      C        0.34990    0.46210    0.82620    1.000
    H29      H        0.31400    0.48160    0.80890    1.000
    C49      C        0.29230    0.61530    0.09240    1.000
    C50      C        0.36350    0.52960    0.07310    1.000
    H30      H        0.35280    0.51220    0.10560    1.000
    C51      C        0.38700    0.58680    0.97790    1.000
    H31      H        0.39470    0.60560    0.94550    1.000
    O17      O        0.52600    0.44650    0.97780    1.000
    C52      C        0.42270    0.52910    0.98970    1.000
    C53      C        0.33510    0.58610    0.05820    1.000
    C54      C        0.34560    0.61200    0.01080    1.000
    H32      H        0.32320    0.64800    0.00180    1.000
    C55      C        0.53230    0.55080    0.91990    1.000
    C56      C        0.37260    0.39990    0.81170    1.000
    O18      O        0.69500    0.72920    0.88970    1.000
    O19      O        0.63880    0.72390    0.81580    1.000
    C57      C        0.61380    0.64900    0.88240    1.000
    C58      C        0.64860    0.70120    0.86190    1.000
    C59      C        0.62500    0.62740    0.92710    1.000
    H33      H        0.65690    0.64470    0.95000    1.000
    C60      C        0.58480    0.57280    0.94160    1.000
    H34      H        0.60050    0.55150    0.97110    1.000
    C61      C        0.51950    0.57770    0.86720    1.000
    H35      H        0.48820    0.56020    0.84410    1.000
    C62      C        0.55530    0.62980    0.85330    1.000
    H36      H        0.54090    0.65270    0.82450    1.000
    O20      O        0.29870    0.40010    0.73440    1.000
    O21      O        0.35080    0.32120    0.75500    1.000
    C63      C        0.33790    0.37340    0.76580    1.000
    U4       U        0.29746    0.31849    0.66869    1.000
    P4       P        0.01640    0.50660    0.44871    1.000
    C64      C        0.09470    0.49830    0.54060    1.000
    H37      H        0.07590    0.53590    0.54990    1.000
    O22      O        0.23100    0.40710    0.63890    1.000
    C65      C        0.08430    0.62860    0.33960    1.000
    H38      H        0.07310    0.66880    0.33130    1.000
    C66      C        0.06730    0.54060    0.39490    1.000
    O23      O        0.23710    0.33300    0.58440    1.000
    C67      C        0.05470    0.60120    0.38100    1.000
    H39      H        0.02430    0.62370    0.40140    1.000
    C68      C        0.11380    0.51020    0.36770    1.000
    H40      H        0.12280    0.46970    0.37630    1.000
    C69      C        0.15010    0.53790    0.32620    1.000
    H41      H        0.18600    0.51840    0.30890    1.000
    C70      C        0.20770    0.38470    0.59240    1.000
    C71      C        0.13650    0.47040    0.57310    1.000
    H42      H        0.14720    0.48780    0.60560    1.000
    C72      C        0.11300    0.41320    0.47790    1.000
    H43      H        0.10530    0.39440    0.44550    1.000
    O24      O        0.97400    0.55350    0.47780    1.000
    C73      C        0.07730    0.47090    0.48970    1.000
    C74      C        0.16490    0.41390    0.55820    1.000
    C75      C        0.15440    0.38800    0.51080    1.000
    H44      H        0.17680    0.35200    0.50180    1.000
    C76      C        0.96770    0.44920    0.41990    1.000
    C77      C        0.12740    0.60010    0.31170    1.000
    O25      O        0.80500    0.27080    0.38970    1.000
    O26      O        0.86120    0.27610    0.31580    1.000
    C78      C        0.88620    0.35100    0.38240    1.000
    C79      C        0.85140    0.29880    0.36190    1.000
    C80      C        0.87500    0.37260    0.42710    1.000
    H45      H        0.84310    0.35530    0.45000    1.000
    C81      C        0.91520    0.42720    0.44160    1.000
    H46      H        0.89950    0.44850    0.47110    1.000
    C82      C        0.98050    0.42230    0.36720    1.000
    H47      H        0.01180    0.43980    0.34410    1.000
    C83      C        0.94470    0.37020    0.35330    1.000
    H48      H        0.95910    0.34730    0.32450    1.000
    O27      O        0.20130    0.59990    0.23440    1.000
    O28      O        0.14920    0.67880    0.25500    1.000
    C84      C        0.16210    0.62660    0.26580    1.000
    U5       U        0.29746    0.68151    0.83131    1.000
    P5       P        0.01640    0.49340    0.05129    1.000
    C85      C        0.09470    0.50170    0.95940    1.000
    H49      H        0.07590    0.46410    0.95010    1.000
    O29      O        0.23100    0.59290    0.86110    1.000
    C86      C        0.08430    0.37140    0.16040    1.000
    H50      H        0.07310    0.33120    0.16870    1.000
    C87      C        0.06730    0.45940    0.10510    1.000
    O30      O        0.23710    0.66700    0.91560    1.000
    C88      C        0.05470    0.39880    0.11900    1.000
    H51      H        0.02430    0.37630    0.09860    1.000
    C89      C        0.11380    0.48980    0.13230    1.000
    H52      H        0.12280    0.53030    0.12370    1.000
    C90      C        0.15010    0.46210    0.17380    1.000
    H53      H        0.18600    0.48160    0.19110    1.000
    C91      C        0.20770    0.61530    0.90760    1.000
    C92      C        0.13650    0.52960    0.92690    1.000
    H54      H        0.14720    0.51220    0.89440    1.000
    C93      C        0.11300    0.58680    0.02210    1.000
    H55      H        0.10530    0.60560    0.05450    1.000
    O31      O        0.97400    0.44650    0.02220    1.000
    C94      C        0.07730    0.52910    0.01030    1.000
    C95      C        0.16490    0.58610    0.94180    1.000
    C96      C        0.15440    0.61200    0.98920    1.000
    H56      H        0.17680    0.64800    0.99820    1.000
    C97      C        0.96770    0.55080    0.08010    1.000
    C98      C        0.12740    0.39990    0.18830    1.000
    O32      O        0.80500    0.72920    0.11030    1.000
    O33      O        0.86120    0.72390    0.18420    1.000
    C99      C        0.88620    0.64900    0.11760    1.000
    C100     C        0.85140    0.70120    0.13810    1.000
    C101     C        0.87500    0.62740    0.07290    1.000
    H57      H        0.84310    0.64470    0.05000    1.000
    C102     C        0.91520    0.57280    0.05840    1.000
    H58      H        0.89950    0.55150    0.02890    1.000
    C103     C        0.98050    0.57770    0.13280    1.000
    H59      H        0.01180    0.56020    0.15590    1.000
    C104     C        0.94470    0.62980    0.14670    1.000
    H60      H        0.95910    0.65270    0.17550    1.000
    O34      O        0.20130    0.40010    0.26560    1.000
    O35      O        0.14920    0.32120    0.24500    1.000
    C105     C        0.16210    0.37340    0.23420    1.000
    U6       U        0.20254    0.31849    0.33131    1.000
    P6       P        0.48360    0.50660    0.55129    1.000
    C106     C        0.40530    0.49830    0.45940    1.000
    H61      H        0.42410    0.53590    0.45010    1.000
    O36      O        0.26900    0.40710    0.36110    1.000
    C107     C        0.41570    0.62860    0.66040    1.000
    H62      H        0.42690    0.66880    0.66870    1.000
    C108     C        0.43270    0.54060    0.60510    1.000
    O37      O        0.26290    0.33300    0.41560    1.000
    C109     C        0.44530    0.60120    0.61900    1.000
    H63      H        0.47570    0.62370    0.59860    1.000
    C110     C        0.38620    0.51020    0.63230    1.000
    H64      H        0.37720    0.46970    0.62370    1.000
    C111     C        0.34990    0.53790    0.67380    1.000
    H65      H        0.31400    0.51840    0.69110    1.000
    C112     C        0.29230    0.38470    0.40760    1.000
    C113     C        0.36350    0.47040    0.42690    1.000
    H66      H        0.35280    0.48780    0.39440    1.000
    C114     C        0.38700    0.41320    0.52210    1.000
    H67      H        0.39470    0.39440    0.55450    1.000
    O38      O        0.52600    0.55350    0.52220    1.000
    C115     C        0.42270    0.47090    0.51030    1.000
    C116     C        0.33510    0.41390    0.44180    1.000
    C117     C        0.34560    0.38800    0.48920    1.000
    H68      H        0.32320    0.35200    0.49820    1.000
    C118     C        0.53230    0.44920    0.58010    1.000
    C119     C        0.37260    0.60010    0.68830    1.000
    O39      O        0.69500    0.27080    0.61030    1.000
    O40      O        0.63880    0.27610    0.68420    1.000
    C120     C        0.61380    0.35100    0.61760    1.000
    C121     C        0.64860    0.29880    0.63810    1.000
    C122     C        0.62500    0.37260    0.57290    1.000
    H69      H        0.65690    0.35530    0.55000    1.000
    C123     C        0.58480    0.42720    0.55840    1.000
    H70      H        0.60050    0.44850    0.52890    1.000
    C124     C        0.51950    0.42230    0.63280    1.000
    H71      H        0.48820    0.43980    0.65590    1.000
    C125     C        0.55530    0.37020    0.64670    1.000
    H72      H        0.54090    0.34730    0.67550    1.000
    O41      O        0.29870    0.59990    0.76560    1.000
    O42      O        0.35080    0.67880    0.74500    1.000
    C126     C        0.33790    0.62660    0.73420    1.000
    U7       U        0.70254    0.18151    0.66869    1.000
    P7       P        0.98360    0.99340    0.44871    1.000
    C127     C        0.90530    0.00170    0.54060    1.000
    H73      H        0.92410    0.96410    0.54990    1.000
    O43      O        0.76900    0.09290    0.63890    1.000
    C128     C        0.91570    0.87140    0.33960    1.000
    H74      H        0.92690    0.83120    0.33130    1.000
    C129     C        0.93270    0.95940    0.39490    1.000
    O44      O        0.76290    0.16700    0.58440    1.000
    C130     C        0.94530    0.89880    0.38100    1.000
    H75      H        0.97570    0.87630    0.40140    1.000
    C131     C        0.88620    0.98980    0.36770    1.000
    H76      H        0.87720    0.03030    0.37630    1.000
    C132     C        0.84990    0.96210    0.32620    1.000
    H77      H        0.81400    0.98160    0.30890    1.000
    C133     C        0.79230    0.11530    0.59240    1.000
    C134     C        0.86350    0.02960    0.57310    1.000
    H78      H        0.85280    0.01220    0.60560    1.000
    C135     C        0.88700    0.08680    0.47790    1.000
    H79      H        0.89470    0.10560    0.44550    1.000
    O45      O        0.02600    0.94650    0.47780    1.000
    C136     C        0.92270    0.02910    0.48970    1.000
    C137     C        0.83510    0.08610    0.55820    1.000
    C138     C        0.84560    0.11200    0.51080    1.000
    H80      H        0.82320    0.14800    0.50180    1.000
    C139     C        0.03230    0.05080    0.41990    1.000
    C140     C        0.87260    0.89990    0.31170    1.000
    O46      O        0.19500    0.22920    0.38970    1.000
    O47      O        0.13880    0.22390    0.31580    1.000
    C141     C        0.11380    0.14900    0.38240    1.000
    C142     C        0.14860    0.20120    0.36190    1.000
    C143     C        0.12500    0.12740    0.42710    1.000
    H81      H        0.15690    0.14470    0.45000    1.000
    C144     C        0.08480    0.07280    0.44160    1.000
    H82      H        0.10050    0.05150    0.47110    1.000
    C145     C        0.01950    0.07770    0.36720    1.000
    H83      H        0.98820    0.06020    0.34410    1.000
    C146     C        0.05530    0.12980    0.35330    1.000
    H84      H        0.04090    0.15270    0.32450    1.000
    O48      O        0.79870    0.90010    0.23440    1.000
    O49      O        0.85080    0.82120    0.25500    1.000
    C147     C        0.83790    0.87340    0.26580    1.000
    U8       U        0.79746    0.81849    0.16869    1.000
    P8       P        0.51640    0.00660    0.94871    1.000
    C148     C        0.59470    0.99830    0.04060    1.000
    H85      H        0.57590    0.03590    0.04990    1.000
    O50      O        0.73100    0.90710    0.13890    1.000
    C149     C        0.58430    0.12860    0.83960    1.000
    H86      H        0.57310    0.16880    0.83130    1.000
    C150     C        0.56730    0.04060    0.89490    1.000
    O51      O        0.73710    0.83300    0.08440    1.000
    C151     C        0.55470    0.10120    0.88100    1.000
    H87      H        0.52430    0.12370    0.90140    1.000
    C152     C        0.61380    0.01020    0.86770    1.000
    H88      H        0.62280    0.96970    0.87630    1.000
    C153     C        0.65010    0.03790    0.82620    1.000
    H89      H        0.68600    0.01840    0.80890    1.000
    C154     C        0.70770    0.88470    0.09240    1.000
    C155     C        0.63650    0.97040    0.07310    1.000
    H90      H        0.64720    0.98780    0.10560    1.000
    C156     C        0.61300    0.91320    0.97790    1.000
    H91      H        0.60530    0.89440    0.94550    1.000
    O52      O        0.47400    0.05350    0.97780    1.000
    C157     C        0.57730    0.97090    0.98970    1.000
    C158     C        0.66490    0.91390    0.05820    1.000
    C159     C        0.65440    0.88800    0.01080    1.000
    H92      H        0.67680    0.85200    0.00180    1.000
    C160     C        0.46770    0.94920    0.91990    1.000
    C161     C        0.62740    0.10010    0.81170    1.000
    O53      O        0.30500    0.77080    0.88970    1.000
    O54      O        0.36120    0.77610    0.81580    1.000
    C162     C        0.38620    0.85100    0.88240    1.000
    C163     C        0.35140    0.79880    0.86190    1.000
    C164     C        0.37500    0.87260    0.92710    1.000
    H93      H        0.34310    0.85530    0.95000    1.000
    C165     C        0.41520    0.92720    0.94160    1.000
    H94      H        0.39950    0.94850    0.97110    1.000
    C166     C        0.48050    0.92230    0.86720    1.000
    H95      H        0.51180    0.93980    0.84410    1.000
    C167     C        0.44470    0.87020    0.85330    1.000
    H96      H        0.45910    0.84730    0.82450    1.000
    O55      O        0.70130    0.09990    0.73440    1.000
    O56      O        0.64920    0.17880    0.75500    1.000
    C168     C        0.66210    0.12660    0.76580    1.000
