# CIF file generated by openbabel 3.1.0, see https://openbabel.org
data_I
_chemical_name_common 'image0'
_cell_length_a 25.8761
_cell_length_b 25.8761
_cell_length_c 6.2626
_cell_angle_alpha 90
_cell_angle_beta 90
_cell_angle_gamma 120
_space_group_name_H-M_alt 'P 1'
_space_group_name_Hall 'P 1'
loop_
    _symmetry_equiv_pos_as_xyz
    x,y,z
loop_
    _atom_site_label
    _atom_site_type_symbol
    _atom_site_fract_x
    _atom_site_fract_y
    _atom_site_fract_z
    _atom_site_occupancy
    Cu1      Cu       0.94730    0.62980    0.98400    1.000
    C1       C        0.00720    0.58920    0.71100    1.000
    C2       C        0.02030    0.50190    0.79500    1.000
    C3       C        0.00530    0.54440    0.85900    1.000
    C4       C        0.98500    0.54300    0.07100    1.000
    H1       H        0.03650    0.50500    0.62900    1.000
    O1       O        0.04090    0.59910    0.54700    1.000
    O2       O        0.97960    0.61530    0.72400    1.000
    O3       O        0.96870    0.58200    0.16500    1.000
    Cu2      Cu       0.61397    0.96313    0.31733    1.000
    C5       C        0.67387    0.92253    0.04433    1.000
    C6       C        0.68697    0.83523    0.12833    1.000
    C7       C        0.67197    0.87773    0.19233    1.000
    C8       C        0.65167    0.87633    0.40433    1.000
    H2       H        0.70317    0.83833    0.96233    1.000
    O4       O        0.70757    0.93243    0.88033    1.000
    O5       O        0.64627    0.94863    0.05733    1.000
    O6       O        0.63537    0.91533    0.49833    1.000
    Cu3      Cu       0.28063    0.29647    0.65067    1.000
    C9       C        0.34053    0.25587    0.37767    1.000
    C10      C        0.35363    0.16857    0.46167    1.000
    C11      C        0.33863    0.21107    0.52567    1.000
    C12      C        0.31833    0.20967    0.73767    1.000
    H3       H        0.36983    0.17167    0.29567    1.000
    O7       O        0.37423    0.26577    0.21367    1.000
    O8       O        0.31293    0.28197    0.39067    1.000
    O9       O        0.30203    0.24867    0.83167    1.000
    Cu4      Cu       0.37020    0.31750    0.98400    1.000
    C13      C        0.41080    0.41800    0.71100    1.000
    C14      C        0.49810    0.51840    0.79500    1.000
    C15      C        0.45560    0.46090    0.85900    1.000
    C16      C        0.45700    0.44200    0.07100    1.000
    H4       H        0.49500    0.53150    0.62900    1.000
    O10      O        0.40090    0.44180    0.54700    1.000
    O11      O        0.38470    0.36430    0.72400    1.000
    O12      O        0.41800    0.38670    0.16500    1.000
    Cu5      Cu       0.03687    0.65083    0.31733    1.000
    C17      C        0.07747    0.75133    0.04433    1.000
    C18      C        0.16477    0.85173    0.12833    1.000
    C19      C        0.12227    0.79423    0.19233    1.000
    C20      C        0.12367    0.77533    0.40433    1.000
    H5       H        0.16167    0.86483    0.96233    1.000
    O13      O        0.06757    0.77513    0.88033    1.000
    O14      O        0.05137    0.69763    0.05733    1.000
    O15      O        0.08467    0.72003    0.49833    1.000
    Cu6      Cu       0.70353    0.98417    0.65067    1.000
    C21      C        0.74413    0.08467    0.37767    1.000
    C22      C        0.83143    0.18507    0.46167    1.000
    C23      C        0.78893    0.12757    0.52567    1.000
    C24      C        0.79033    0.10867    0.73767    1.000
    H6       H        0.82833    0.19817    0.29567    1.000
    O16      O        0.73423    0.10847    0.21367    1.000
    O17      O        0.71803    0.03097    0.39067    1.000
    O18      O        0.75133    0.05337    0.83167    1.000
    Cu7      Cu       0.68250    0.05270    0.98400    1.000
    C25      C        0.58200    0.99280    0.71100    1.000
    C26      C        0.48160    0.97970    0.79500    1.000
    C27      C        0.53910    0.99470    0.85900    1.000
    C28      C        0.55800    0.01500    0.07100    1.000
    H7       H        0.46850    0.96350    0.62900    1.000
    O19      O        0.55820    0.95910    0.54700    1.000
    O20      O        0.63570    0.02040    0.72400    1.000
    O21      O        0.61330    0.03130    0.16500    1.000
    Cu8      Cu       0.34917    0.38603    0.31733    1.000
    C29      C        0.24867    0.32613    0.04433    1.000
    C30      C        0.14827    0.31303    0.12833    1.000
    C31      C        0.20577    0.32803    0.19233    1.000
    C32      C        0.22467    0.34833    0.40433    1.000
    H8       H        0.13517    0.29683    0.96233    1.000
    O22      O        0.22487    0.29243    0.88033    1.000
    O23      O        0.30237    0.35373    0.05733    1.000
    O24      O        0.27997    0.36463    0.49833    1.000
    Cu9      Cu       0.01583    0.71937    0.65067    1.000
    C33      C        0.91533    0.65947    0.37767    1.000
    C34      C        0.81493    0.64637    0.46167    1.000
    C35      C        0.87243    0.66137    0.52567    1.000
    C36      C        0.89133    0.68167    0.73767    1.000
    H9       H        0.80183    0.63017    0.29567    1.000
    O25      O        0.89153    0.62577    0.21367    1.000
    O26      O        0.96903    0.68707    0.39067    1.000
    O27      O        0.94663    0.69797    0.83167    1.000
    Cu10     Cu       0.05270    0.37020    0.01600    1.000
    C37      C        0.99280    0.41080    0.28900    1.000
    C38      C        0.97970    0.49810    0.20500    1.000
    C39      C        0.99470    0.45560    0.14100    1.000
    C40      C        0.01500    0.45700    0.92900    1.000
    H10      H        0.96350    0.49500    0.37100    1.000
    O28      O        0.95910    0.40090    0.45300    1.000
    O29      O        0.02040    0.38470    0.27600    1.000
    O30      O        0.03130    0.41800    0.83500    1.000
    Cu11     Cu       0.71937    0.70353    0.34933    1.000
    C41      C        0.65947    0.74413    0.62233    1.000
    C42      C        0.64637    0.83143    0.53833    1.000
    C43      C        0.66137    0.78893    0.47433    1.000
    C44      C        0.68167    0.79033    0.26233    1.000
    H11      H        0.63017    0.82833    0.70433    1.000
    O31      O        0.62577    0.73423    0.78633    1.000
    O32      O        0.68707    0.71803    0.60933    1.000
    O33      O        0.69797    0.75133    0.16833    1.000
    Cu12     Cu       0.38603    0.03687    0.68267    1.000
    C45      C        0.32613    0.07747    0.95567    1.000
    C46      C        0.31303    0.16477    0.87167    1.000
    C47      C        0.32803    0.12227    0.80767    1.000
    C48      C        0.34833    0.12367    0.59567    1.000
    H12      H        0.29683    0.16167    0.03767    1.000
    O34      O        0.29243    0.06757    0.11967    1.000
    O35      O        0.35373    0.05137    0.94267    1.000
    O36      O        0.36463    0.08467    0.50167    1.000
    Cu13     Cu       0.62980    0.68250    0.01600    1.000
    C49      C        0.58920    0.58200    0.28900    1.000
    C50      C        0.50190    0.48160    0.20500    1.000
    C51      C        0.54440    0.53910    0.14100    1.000
    C52      C        0.54300    0.55800    0.92900    1.000
    H13      H        0.50500    0.46850    0.37100    1.000
    O37      O        0.59910    0.55820    0.45300    1.000
    O38      O        0.61530    0.63570    0.27600    1.000
    O39      O        0.58200    0.61330    0.83500    1.000
    Cu14     Cu       0.29647    0.01583    0.34933    1.000
    C53      C        0.25587    0.91533    0.62233    1.000
    C54      C        0.16857    0.81493    0.53833    1.000
    C55      C        0.21107    0.87243    0.47433    1.000
    C56      C        0.20967    0.89133    0.26233    1.000
    H14      H        0.17167    0.80183    0.70433    1.000
    O40      O        0.26577    0.89153    0.78633    1.000
    O41      O        0.28197    0.96903    0.60933    1.000
    O42      O        0.24867    0.94663    0.16833    1.000
    Cu15     Cu       0.96313    0.34917    0.68267    1.000
    C57      C        0.92253    0.24867    0.95567    1.000
    C58      C        0.83523    0.14827    0.87167    1.000
    C59      C        0.87773    0.20577    0.80767    1.000
    C60      C        0.87633    0.22467    0.59567    1.000
    H15      H        0.83833    0.13517    0.03767    1.000
    O43      O        0.93243    0.22487    0.11967    1.000
    O44      O        0.94863    0.30237    0.94267    1.000
    O45      O        0.91533    0.27997    0.50167    1.000
    Cu16     Cu       0.31750    0.94730    0.01600    1.000
    C61      C        0.41800    0.00720    0.28900    1.000
    C62      C        0.51840    0.02030    0.20500    1.000
    C63      C        0.46090    0.00530    0.14100    1.000
    C64      C        0.44200    0.98500    0.92900    1.000
    H16      H        0.53150    0.03650    0.37100    1.000
    O46      O        0.44180    0.04090    0.45300    1.000
    O47      O        0.36430    0.97960    0.27600    1.000
    O48      O        0.38670    0.96870    0.83500    1.000
    Cu17     Cu       0.98417    0.28063    0.34933    1.000
    C65      C        0.08467    0.34053    0.62233    1.000
    C66      C        0.18507    0.35363    0.53833    1.000
    C67      C        0.12757    0.33863    0.47433    1.000
    C68      C        0.10867    0.31833    0.26233    1.000
    H17      H        0.19817    0.36983    0.70433    1.000
    O49      O        0.10847    0.37423    0.78633    1.000
    O50      O        0.03097    0.31293    0.60933    1.000
    O51      O        0.05337    0.30203    0.16833    1.000
    Cu18     Cu       0.65083    0.61397    0.68267    1.000
    C69      C        0.75133    0.67387    0.95567    1.000
    C70      C        0.85173    0.68697    0.87167    1.000
    C71      C        0.79423    0.67197    0.80767    1.000
    C72      C        0.77533    0.65167    0.59567    1.000
    H18      H        0.86483    0.70317    0.03767    1.000
    O52      O        0.77513    0.70757    0.11967    1.000
    O53      O        0.69763    0.64627    0.94267    1.000
    O54      O        0.72003    0.63537    0.50167    1.000
