# CIF file generated by openbabel 3.1.0, see https://openbabel.org
data_I
_chemical_name_common 'image0'
_cell_length_a 40.845
_cell_length_b 42.367
_cell_length_c 34.547
_cell_angle_alpha 90
_cell_angle_beta 115.816
_cell_angle_gamma 90
_space_group_name_H-M_alt 'P 1'
_space_group_name_Hall 'P 1'
loop_
    _symmetry_equiv_pos_as_xyz
    x,y,z
loop_
    _atom_site_label
    _atom_site_type_symbol
    _atom_site_fract_x
    _atom_site_fract_y
    _atom_site_fract_z
    _atom_site_occupancy
    Zn1      Zn       0.00374    0.91164    0.13000    1.000
    Zn2      Zn       0.04890    0.86507    0.11157    1.000
    Zn3      Zn       0.47740    0.13126    0.57873    1.000
    Zn4      Zn       0.51979    0.08404    0.55561    1.000
    Zn5      Zn       0.24734    0.82115    0.55412    1.000
    Zn6      Zn       0.25701    0.89548    0.56353    1.000
    Zn7      Zn       0.31938    0.84741    0.62691    1.000
    Zn8      Zn       0.24428    0.85505    0.63393    1.000
    O1       O        0.26550    0.85570    0.59420    1.000
    C1       C        0.58620    0.00830    0.51850    1.000
    C2       C        0.61870    0.01550    0.51620    1.000
    H1       H        0.62780    0.03650    0.52240    1.000
    C3       C        0.63830    0.99340    0.50520    1.000
    H2       H        0.66060    0.99920    0.50460    1.000
    Br1      Br       0.65013    0.93162    0.47872    1.000
    C4       C        0.62520    0.96300    0.49510    1.000
    C5       C        0.59310    0.95550    0.49640    1.000
    H3       H        0.58380    0.93470    0.48930    1.000
    C6       C        0.57400    0.97730    0.50770    1.000
    H4       H        0.55180    0.97110    0.50830    1.000
    B1       B        0.56240    0.03260    0.53110    1.000
    O2       O        0.58990    0.06180    0.55470    1.000
    N1       N        0.57330    0.08670    0.56130    1.000
    C7       C        0.59630    0.11200    0.57500    1.000
    H5       H        0.62020    0.10910    0.57730    1.000
    C8       C        0.58750    0.14380    0.58680    1.000
    C9       C        0.55650    0.15040    0.59330    1.000
    C10      C        0.55200    0.18200    0.60420    1.000
    C11      C        0.57860    0.20480    0.60850    1.000
    H6       H        0.57590    0.22570    0.61650    1.000
    C12      C        0.60860    0.19750    0.60130    1.000
    C13      C        0.61310    0.16680    0.59070    1.000
    H7       H        0.63380    0.16140    0.58620    1.000
    C14      C        0.52120    0.19320    0.61040    1.000
    H8       H        0.52120    0.21480    0.61760    1.000
    N2       N        0.49430    0.17680    0.60710    1.000
    O3       O        0.46980    0.19390    0.61640    1.000
    B2       B        0.43310    0.18050    0.60220    1.000
    O4       O        0.53410    0.04440    0.49070    1.000
    N3       N        0.51070    0.06770    0.49290    1.000
    C15      C        0.48590    0.07590    0.45670    1.000
    H9       H        0.48700    0.06640    0.43240    1.000
    C16      C        0.45610    0.09760    0.44720    1.000
    C17      C        0.45000    0.11420    0.47980    1.000
    C18      C        0.41930    0.13500    0.46630    1.000
    C19      C        0.39590    0.13820    0.42210    1.000
    H10      H        0.37530    0.15170    0.41340    1.000
    C20      C        0.40210    0.12200    0.39110    1.000
    C21      C        0.43220    0.10210    0.40360    1.000
    H11      H        0.43670    0.09140    0.38220    1.000
    C22      C        0.41100    0.15410    0.49570    1.000
    H12      H        0.38940    0.16640    0.48350    1.000
    N4       N        0.42970    0.15620    0.53620    1.000
    O5       O        0.41440    0.17720    0.55560    1.000
    O6       O        0.55160    0.01900    0.56060    1.000
    N5       N        0.52810    0.03570    0.57250    1.000
    C23      C        0.50990    0.01830    0.58610    1.000
    H13      H        0.51410    0.99620    0.58660    1.000
    C24      C        0.48350    0.02860    0.60090    1.000
    C25      C        0.47620    0.06130    0.60560    1.000
    C26      C        0.44870    0.06780    0.61970    1.000
    C27      C        0.42850    0.04310    0.62630    1.000
    H14      H        0.41030    0.04800    0.63550    1.000
    C28      C        0.43480    0.01180    0.61950    1.000
    C29      C        0.46280    0.00490    0.60830    1.000
    H15      H        0.46800    0.98340    0.60540    1.000
    C30      C        0.43890    0.09930    0.62680    1.000
    H16      H        0.42270    0.10090    0.63980    1.000
    N6       N        0.44960    0.12500    0.61750    1.000
    O7       O        0.43370    0.15220    0.62640    1.000
    C31      C        0.41120    0.20650    0.61480    1.000
    C32      C        0.41310    0.20940    0.65610    1.000
    H17      H        0.42800    0.19500    0.67760    1.000
    C33      C        0.39420    0.23210    0.66690    1.000
    H18      H        0.39580    0.23260    0.69520    1.000
    Br2      Br       0.34500    0.28409    0.65010    1.000
    C34      C        0.37340    0.25390    0.63720    1.000
    C35      C        0.37140    0.25290    0.59650    1.000
    H19      H        0.35790    0.26840    0.57580    1.000
    C36      C        0.38950    0.22920    0.58600    1.000
    H20      H        0.38690    0.22830    0.55730    1.000
    O8       O        0.53220    0.12880    0.58770    1.000
    C37      C        0.63410    0.22250    0.60130    1.000
    C38      C        0.64440    0.22420    0.56790    1.000
    H21      H        0.63640    0.20850    0.54610    1.000
    C39      C        0.66640    0.24860    0.56630    1.000
    H22      H        0.67240    0.25000    0.54270    1.000
    C40      C        0.67970    0.27120    0.59880    1.000
    C41      C        0.67030    0.26870    0.63290    1.000
    H23      H        0.67990    0.28340    0.65590    1.000
    C42      C        0.64740    0.24520    0.63370    1.000
    H24      H        0.64050    0.24450    0.65670    1.000
    C43      C        0.70300    0.29810    0.59670    1.000
    O9       O        0.71040    0.29850    0.56480    1.000
    O10      O        0.47190    0.11000    0.52100    1.000
    O11      O        0.71380    0.31720    0.62690    1.000
    C44      C        0.37830    0.12620    0.34440    1.000
    C45      C        0.39170    0.12310    0.31370    1.000
    H25      H        0.41650    0.11770    0.32280    1.000
    C46      C        0.36970    0.12770    0.27040    1.000
    H26      H        0.37970    0.12630    0.25030    1.000
    C47      C        0.33270    0.13460    0.25620    1.000
    C48      C        0.31910    0.13730    0.28640    1.000
    H27      H        0.29400    0.14160    0.27730    1.000
    C49      C        0.34170    0.13370    0.33010    1.000
    H28      H        0.33210    0.13650    0.35050    1.000
    C50      C        0.30830    0.13750    0.20870    1.000
    O12      O        0.49490    0.08430    0.59880    1.000
    O13      O        0.32270    0.13340    0.18310    1.000
    O14      O        0.27530    0.14250    0.19480    1.000
    C51      C        0.40960    0.98650    0.61960    1.000
    C52      C        0.37280    0.99330    0.60480    1.000
    H29      H        0.36450    0.01440    0.59800    1.000
    C53      C        0.34840    0.96930    0.60010    1.000
    H30      H        0.32330    0.97420    0.58920    1.000
    C54      C        0.35990    0.93820    0.61100    1.000
    C55      C        0.39720    0.93180    0.62820    1.000
    H31      H        0.40600    0.91100    0.63700    1.000
    C56      C        0.42140    0.95600    0.63230    1.000
    H32      H        0.44670    0.95160    0.64410    1.000
    C57      C        0.33200    0.91230    0.60240    1.000
    O15      O        0.34450    0.88570    0.61820    1.000
    O16      O        0.29910    0.91950    0.58090    1.000
    C58      C        0.93030    0.98550    0.15850    1.000
    C59      C        0.94480    0.01070    0.18690    1.000
    H33      H        0.97060    0.01230    0.20200    1.000
    C60      C        0.92400    0.03330    0.19410    1.000
    H34      H        0.93520    0.04940    0.21480    1.000
    Br3      Br       0.85755    0.06425    0.17900    1.000
    C61      C        0.88680    0.03230    0.17140    1.000
    C62      C        0.87110    0.00870    0.14230    1.000
    H35      H        0.84540    0.00800    0.12620    1.000
    C63      C        0.89240    0.98570    0.13620    1.000
    H36      H        0.88080    0.96940    0.11600    1.000
    B3       B        0.95450    0.95860    0.15140    1.000
    O17      O        0.97120    0.97680    0.12130    1.000
    N7       N        0.99780    0.96070    0.11710    1.000
    C64      C        0.01940    0.97900    0.10650    1.000
    H37      H        0.01350    0.00080    0.10200    1.000
    C65      C        0.05200    0.96820    0.10100    1.000
    C66      C        0.05890    0.93610    0.09540    1.000
    C67      C        0.08990    0.92970    0.08790    1.000
    C68      C        0.11210    0.95500    0.08760    1.000
    H38      H        0.13280    0.95030    0.08280    1.000
    C69      C        0.10580    0.98640    0.09400    1.000
    C70      C        0.07500    0.99210    0.10010    1.000
    H39      H        0.06930    0.01330    0.10390    1.000
    C71      C        0.10060    0.89830    0.08210    1.000
    H40      H        0.12080    0.89690    0.07540    1.000
    N8       N        0.08650    0.87230    0.08480    1.000
    O18      O        0.10520    0.84560    0.08010    1.000
    B4       B        0.09600    0.81460    0.09340    1.000
    O19      O        0.98520    0.95170    0.19210    1.000
    N9       N        0.00980    0.92890    0.19240    1.000
    C72      C        0.03440    0.92240    0.22970    1.000
    H41      H        0.03360    0.93360    0.25310    1.000
    C73      C        0.06370    0.89950    0.24010    1.000
    C74      C        0.06870    0.87980    0.20930    1.000
    C75      C        0.09910    0.85850    0.22440    1.000
    C76      C        0.12190    0.85700    0.26870    1.000
    H42      H        0.14140    0.84230    0.27870    1.000
    C77      C        0.11700    0.87610    0.29840    1.000
    C78      C        0.08820    0.89720    0.28380    1.000
    H43      H        0.08490    0.91040    0.30400    1.000
    C79      C        0.10830    0.83810    0.19680    1.000
    H44      H        0.12830    0.82430    0.21070    1.000
    N10      N        0.09230    0.83690    0.15610    1.000
    O20      O        0.10770    0.81570    0.13860    1.000
    O21      O        0.93160    0.93410    0.12650    1.000
    N11      N        0.94720    0.90880    0.11480    1.000
    C80      C        0.92590    0.88550    0.10010    1.000
    H45      H        0.90210    0.88780    0.09830    1.000
    C81      C        0.93400    0.85560    0.08580    1.000
    C82      C        0.96710    0.84890    0.08250    1.000
    C83      C        0.97130    0.81770    0.06970    1.000
    C84      C        0.94490    0.79450    0.06260    1.000
    H46      H        0.94880    0.77370    0.05500    1.000
    C85      C        0.91300    0.80100    0.06650    1.000
    C86      C        0.90820    0.83130    0.07770    1.000
    H47      H        0.88640    0.83610    0.08020    1.000
    C87      C        0.00330    0.80700    0.06500    1.000
    H48      H        0.00250    0.78670    0.05320    1.000
    N12      N        0.03240    0.82300    0.07570    1.000
    O22      O        0.05800    0.80660    0.06890    1.000
    C88      C        0.12020    0.78830    0.08500    1.000
    C89      C        0.15140    0.77490    0.11690    1.000
    H49      H        0.16010    0.78330    0.14520    1.000
    C90      C        0.11000    0.77520    0.04430    1.000
    H50      H        0.08900    0.78350    0.02100    1.000
    C91      C        0.17060    0.75010    0.11000    1.000
    H51      H        0.19120    0.74130    0.13320    1.000
    C92      C        0.12860    0.75090    0.03610    1.000
    H52      H        0.12040    0.74290    0.00780    1.000
    Br4      Br       0.18548    0.70600    0.05700    1.000
    C93      C        0.15910    0.73850    0.06910    1.000
    O23      O        0.03830    0.91340    0.09770    1.000
    C94      C        0.13090    0.01200    0.09560    1.000
    C95      C        0.13220    0.04070    0.11580    1.000
    H53      H        0.11570    0.04440    0.12800    1.000
    C96      C        0.15670    0.06400    0.11880    1.000
    H54      H        0.15690    0.08330    0.13290    1.000
    C97      C        0.18110    0.05960    0.10110    1.000
    C98      C        0.18040    0.03080    0.08140    1.000
    H55      H        0.19720    0.02710    0.06970    1.000
    C99      C        0.15580    0.00760    0.07850    1.000
    H56      H        0.15580    0.98820    0.06460    1.000
    C100     C        0.20720    0.08480    0.10200    1.000
    O24      O        0.20920    0.10960    0.12230    1.000
    O25      O        0.04560    0.88050    0.16890    1.000
    O26      O        0.22660    0.07830    0.08240    1.000
    C101     C        0.14240    0.87440    0.34480    1.000
    C102     C        0.15230    0.90090    0.37140    1.000
    H57      H        0.14290    0.92100    0.35950    1.000
    C103     C        0.17570    0.89860    0.41470    1.000
    H58      H        0.18250    0.91700    0.43210    1.000
    C104     C        0.18920    0.86900    0.43280    1.000
    C105     C        0.17970    0.84240    0.40610    1.000
    H59      H        0.18920    0.82240    0.41790    1.000
    C106     C        0.15680    0.84510    0.36280    1.000
    H60      H        0.15080    0.82680    0.34500    1.000
    C107     C        0.21310    0.86500    0.48040    1.000
    O27      O        0.99210    0.87030    0.09080    1.000
    O28      O        0.22640    0.88990    0.50270    1.000
    O29      O        0.22080    0.83740    0.49460    1.000
    C108     C        0.88630    0.77540    0.06100    1.000
    C109     C        0.89830    0.74510    0.07720    1.000
    H61      H        0.92340    0.74020    0.08900    1.000
    C110     C        0.87370    0.72240    0.07620    1.000
    H62      H        0.88230    0.70200    0.08720    1.000
    C111     C        0.83680    0.72870    0.05960    1.000
    C112     C        0.82440    0.75840    0.04200    1.000
    H63      H        0.79910    0.76310    0.02980    1.000
    C113     C        0.84880    0.78100    0.04230    1.000
    H64      H        0.83990    0.80090    0.02950    1.000
    C114     C        0.81010    0.70420    0.06030    1.000
    O30      O        0.77750    0.71110    0.04530    1.000
    O31      O        0.82300    0.67810    0.07650    1.000
    Zn9      Zn       0.50374    0.41164    0.13000    1.000
    Zn10     Zn       0.54890    0.36507    0.11157    1.000
    Zn11     Zn       0.97740    0.63126    0.57873    1.000
    Zn12     Zn       0.01979    0.58404    0.55561    1.000
    Zn13     Zn       0.74734    0.32115    0.55412    1.000
    Zn14     Zn       0.75701    0.39548    0.56353    1.000
    Zn15     Zn       0.81938    0.34741    0.62691    1.000
    Zn16     Zn       0.74428    0.35505    0.63393    1.000
    O32      O        0.76550    0.35570    0.59420    1.000
    C115     C        0.08620    0.50830    0.51850    1.000
    C116     C        0.11870    0.51550    0.51620    1.000
    H65      H        0.12780    0.53650    0.52240    1.000
    C117     C        0.13830    0.49340    0.50520    1.000
    H66      H        0.16060    0.49920    0.50460    1.000
    Br5      Br       0.15013    0.43162    0.47872    1.000
    C118     C        0.12520    0.46300    0.49510    1.000
    C119     C        0.09310    0.45550    0.49640    1.000
    H67      H        0.08380    0.43470    0.48930    1.000
    C120     C        0.07400    0.47730    0.50770    1.000
    H68      H        0.05180    0.47110    0.50830    1.000
    B5       B        0.06240    0.53260    0.53110    1.000
    O33      O        0.08990    0.56180    0.55470    1.000
    N13      N        0.07330    0.58670    0.56130    1.000
    C121     C        0.09630    0.61200    0.57500    1.000
    H69      H        0.12020    0.60910    0.57730    1.000
    C122     C        0.08750    0.64380    0.58680    1.000
    C123     C        0.05650    0.65040    0.59330    1.000
    C124     C        0.05200    0.68200    0.60420    1.000
    C125     C        0.07860    0.70480    0.60850    1.000
    H70      H        0.07590    0.72570    0.61650    1.000
    C126     C        0.10860    0.69750    0.60130    1.000
    C127     C        0.11310    0.66680    0.59070    1.000
    H71      H        0.13380    0.66140    0.58620    1.000
    C128     C        0.02120    0.69320    0.61040    1.000
    H72      H        0.02120    0.71480    0.61760    1.000
    N14      N        0.99430    0.67680    0.60710    1.000
    O34      O        0.96980    0.69390    0.61640    1.000
    B6       B        0.93310    0.68050    0.60220    1.000
    O35      O        0.03410    0.54440    0.49070    1.000
    N15      N        0.01070    0.56770    0.49290    1.000
    C129     C        0.98590    0.57590    0.45670    1.000
    H73      H        0.98700    0.56640    0.43240    1.000
    C130     C        0.95610    0.59760    0.44720    1.000
    C131     C        0.95000    0.61420    0.47980    1.000
    C132     C        0.91930    0.63500    0.46630    1.000
    C133     C        0.89590    0.63820    0.42210    1.000
    H74      H        0.87530    0.65170    0.41340    1.000
    C134     C        0.90210    0.62200    0.39110    1.000
    C135     C        0.93220    0.60210    0.40360    1.000
    H75      H        0.93670    0.59140    0.38220    1.000
    C136     C        0.91100    0.65410    0.49570    1.000
    H76      H        0.88940    0.66640    0.48350    1.000
    N16      N        0.92970    0.65620    0.53620    1.000
    O36      O        0.91440    0.67720    0.55560    1.000
    O37      O        0.05160    0.51900    0.56060    1.000
    N17      N        0.02810    0.53570    0.57250    1.000
    C137     C        0.00990    0.51830    0.58610    1.000
    H77      H        0.01410    0.49620    0.58660    1.000
    C138     C        0.98350    0.52860    0.60090    1.000
    C139     C        0.97620    0.56130    0.60560    1.000
    C140     C        0.94870    0.56780    0.61970    1.000
    C141     C        0.92850    0.54310    0.62630    1.000
    H78      H        0.91030    0.54800    0.63550    1.000
    C142     C        0.93480    0.51180    0.61950    1.000
    C143     C        0.96280    0.50490    0.60830    1.000
    H79      H        0.96800    0.48340    0.60540    1.000
    C144     C        0.93890    0.59930    0.62680    1.000
    H80      H        0.92270    0.60090    0.63980    1.000
    N18      N        0.94960    0.62500    0.61750    1.000
    O38      O        0.93370    0.65220    0.62640    1.000
    C145     C        0.91120    0.70650    0.61480    1.000
    C146     C        0.91310    0.70940    0.65610    1.000
    H81      H        0.92800    0.69500    0.67760    1.000
    C147     C        0.89420    0.73210    0.66690    1.000
    H82      H        0.89580    0.73260    0.69520    1.000
    Br6      Br       0.84500    0.78409    0.65010    1.000
    C148     C        0.87340    0.75390    0.63720    1.000
    C149     C        0.87140    0.75290    0.59650    1.000
    H83      H        0.85790    0.76840    0.57580    1.000
    C150     C        0.88950    0.72920    0.58600    1.000
    H84      H        0.88690    0.72830    0.55730    1.000
    O39      O        0.03220    0.62880    0.58770    1.000
    C151     C        0.13410    0.72250    0.60130    1.000
    C152     C        0.14440    0.72420    0.56790    1.000
    H85      H        0.13640    0.70850    0.54610    1.000
    C153     C        0.16640    0.74860    0.56630    1.000
    H86      H        0.17240    0.75000    0.54270    1.000
    C154     C        0.17970    0.77120    0.59880    1.000
    C155     C        0.17030    0.76870    0.63290    1.000
    H87      H        0.17990    0.78340    0.65590    1.000
    C156     C        0.14740    0.74520    0.63370    1.000
    H88      H        0.14050    0.74450    0.65670    1.000
    C157     C        0.20300    0.79810    0.59670    1.000
    O40      O        0.21040    0.79850    0.56480    1.000
    O41      O        0.97190    0.61000    0.52100    1.000
    O42      O        0.21380    0.81720    0.62690    1.000
    C158     C        0.87830    0.62620    0.34440    1.000
    C159     C        0.89170    0.62310    0.31370    1.000
    H89      H        0.91650    0.61770    0.32280    1.000
    C160     C        0.86970    0.62770    0.27040    1.000
    H90      H        0.87970    0.62630    0.25030    1.000
    C161     C        0.83270    0.63460    0.25620    1.000
    C162     C        0.81910    0.63730    0.28640    1.000
    H91      H        0.79400    0.64160    0.27730    1.000
    C163     C        0.84170    0.63370    0.33010    1.000
    H92      H        0.83210    0.63650    0.35050    1.000
    C164     C        0.80830    0.63750    0.20870    1.000
    O43      O        0.99490    0.58430    0.59880    1.000
    O44      O        0.82270    0.63340    0.18310    1.000
    O45      O        0.77530    0.64250    0.19480    1.000
    C165     C        0.90960    0.48650    0.61960    1.000
    C166     C        0.87280    0.49330    0.60480    1.000
    H93      H        0.86450    0.51440    0.59800    1.000
    C167     C        0.84840    0.46930    0.60010    1.000
    H94      H        0.82330    0.47420    0.58920    1.000
    C168     C        0.85990    0.43820    0.61100    1.000
    C169     C        0.89720    0.43180    0.62820    1.000
    H95      H        0.90600    0.41100    0.63700    1.000
    C170     C        0.92140    0.45600    0.63230    1.000
    H96      H        0.94670    0.45160    0.64410    1.000
    C171     C        0.83200    0.41230    0.60240    1.000
    O46      O        0.84450    0.38570    0.61820    1.000
    O47      O        0.79910    0.41950    0.58090    1.000
    C172     C        0.43030    0.48550    0.15850    1.000
    C173     C        0.44480    0.51070    0.18690    1.000
    H97      H        0.47060    0.51230    0.20200    1.000
    C174     C        0.42400    0.53330    0.19410    1.000
    H98      H        0.43520    0.54940    0.21480    1.000
    Br7      Br       0.35755    0.56425    0.17900    1.000
    C175     C        0.38680    0.53230    0.17140    1.000
    C176     C        0.37110    0.50870    0.14230    1.000
    H99      H        0.34540    0.50800    0.12620    1.000
    C177     C        0.39240    0.48570    0.13620    1.000
    H100     H        0.38080    0.46940    0.11600    1.000
    B7       B        0.45450    0.45860    0.15140    1.000
    O48      O        0.47120    0.47680    0.12130    1.000
    N19      N        0.49780    0.46070    0.11710    1.000
    C178     C        0.51940    0.47900    0.10650    1.000
    H101     H        0.51350    0.50080    0.10200    1.000
    C179     C        0.55200    0.46820    0.10100    1.000
    C180     C        0.55890    0.43610    0.09540    1.000
    C181     C        0.58990    0.42970    0.08790    1.000
    C182     C        0.61210    0.45500    0.08760    1.000
    H102     H        0.63280    0.45030    0.08280    1.000
    C183     C        0.60580    0.48640    0.09400    1.000
    C184     C        0.57500    0.49210    0.10010    1.000
    H103     H        0.56930    0.51330    0.10390    1.000
    C185     C        0.60060    0.39830    0.08210    1.000
    H104     H        0.62080    0.39690    0.07540    1.000
    N20      N        0.58650    0.37230    0.08480    1.000
    O49      O        0.60520    0.34560    0.08010    1.000
    B8       B        0.59600    0.31460    0.09340    1.000
    O50      O        0.48520    0.45170    0.19210    1.000
    N21      N        0.50980    0.42890    0.19240    1.000
    C186     C        0.53440    0.42240    0.22970    1.000
    H105     H        0.53360    0.43360    0.25310    1.000
    C187     C        0.56370    0.39950    0.24010    1.000
    C188     C        0.56870    0.37980    0.20930    1.000
    C189     C        0.59910    0.35850    0.22440    1.000
    C190     C        0.62190    0.35700    0.26870    1.000
    H106     H        0.64140    0.34230    0.27870    1.000
    C191     C        0.61700    0.37610    0.29840    1.000
    C192     C        0.58820    0.39720    0.28380    1.000
    H107     H        0.58490    0.41040    0.30400    1.000
    C193     C        0.60830    0.33810    0.19680    1.000
    H108     H        0.62830    0.32430    0.21070    1.000
    N22      N        0.59230    0.33690    0.15610    1.000
    O51      O        0.60770    0.31570    0.13860    1.000
    O52      O        0.43160    0.43410    0.12650    1.000
    N23      N        0.44720    0.40880    0.11480    1.000
    C194     C        0.42590    0.38550    0.10010    1.000
    H109     H        0.40210    0.38780    0.09830    1.000
    C195     C        0.43400    0.35560    0.08580    1.000
    C196     C        0.46710    0.34890    0.08250    1.000
    C197     C        0.47130    0.31770    0.06970    1.000
    C198     C        0.44490    0.29450    0.06260    1.000
    H110     H        0.44880    0.27370    0.05500    1.000
    C199     C        0.41300    0.30100    0.06650    1.000
    C200     C        0.40820    0.33130    0.07770    1.000
    H111     H        0.38640    0.33610    0.08020    1.000
    C201     C        0.50330    0.30700    0.06500    1.000
    H112     H        0.50250    0.28670    0.05320    1.000
    N24      N        0.53240    0.32300    0.07570    1.000
    O53      O        0.55800    0.30660    0.06890    1.000
    C202     C        0.62020    0.28830    0.08500    1.000
    C203     C        0.65140    0.27490    0.11690    1.000
    H113     H        0.66010    0.28330    0.14520    1.000
    C204     C        0.61000    0.27520    0.04430    1.000
    H114     H        0.58900    0.28350    0.02100    1.000
    C205     C        0.67060    0.25010    0.11000    1.000
    H115     H        0.69120    0.24130    0.13320    1.000
    C206     C        0.62860    0.25090    0.03610    1.000
    H116     H        0.62040    0.24290    0.00780    1.000
    Br8      Br       0.68548    0.20600    0.05700    1.000
    C207     C        0.65910    0.23850    0.06910    1.000
    O54      O        0.53830    0.41340    0.09770    1.000
    C208     C        0.63090    0.51200    0.09560    1.000
    C209     C        0.63220    0.54070    0.11580    1.000
    H117     H        0.61570    0.54440    0.12800    1.000
    C210     C        0.65670    0.56400    0.11880    1.000
    H118     H        0.65690    0.58330    0.13290    1.000
    C211     C        0.68110    0.55960    0.10110    1.000
    C212     C        0.68040    0.53080    0.08140    1.000
    H119     H        0.69720    0.52710    0.06970    1.000
    C213     C        0.65580    0.50760    0.07850    1.000
    H120     H        0.65580    0.48820    0.06460    1.000
    C214     C        0.70720    0.58480    0.10200    1.000
    O55      O        0.70920    0.60960    0.12230    1.000
    O56      O        0.54560    0.38050    0.16890    1.000
    O57      O        0.72660    0.57830    0.08240    1.000
    C215     C        0.64240    0.37440    0.34480    1.000
    C216     C        0.65230    0.40090    0.37140    1.000
    H121     H        0.64290    0.42100    0.35950    1.000
    C217     C        0.67570    0.39860    0.41470    1.000
    H122     H        0.68250    0.41700    0.43210    1.000
    C218     C        0.68920    0.36900    0.43280    1.000
    C219     C        0.67970    0.34240    0.40610    1.000
    H123     H        0.68920    0.32240    0.41790    1.000
    C220     C        0.65680    0.34510    0.36280    1.000
    H124     H        0.65080    0.32680    0.34500    1.000
    C221     C        0.71310    0.36500    0.48040    1.000
    O58      O        0.49210    0.37030    0.09080    1.000
    O59      O        0.72640    0.38990    0.50270    1.000
    O60      O        0.72080    0.33740    0.49460    1.000
    C222     C        0.38630    0.27540    0.06100    1.000
    C223     C        0.39830    0.24510    0.07720    1.000
    H125     H        0.42340    0.24020    0.08900    1.000
    C224     C        0.37370    0.22240    0.07620    1.000
    H126     H        0.38230    0.20200    0.08720    1.000
    C225     C        0.33680    0.22870    0.05960    1.000
    C226     C        0.32440    0.25840    0.04200    1.000
    H127     H        0.29910    0.26310    0.02980    1.000
    C227     C        0.34880    0.28100    0.04230    1.000
    H128     H        0.33990    0.30090    0.02950    1.000
    C228     C        0.31010    0.20420    0.06030    1.000
    O61      O        0.27750    0.21110    0.04530    1.000
    O62      O        0.32300    0.17810    0.07650    1.000
    Zn17     Zn       0.00374    0.08836    0.63000    1.000
    Zn18     Zn       0.04890    0.13493    0.61157    1.000
    Zn19     Zn       0.47740    0.86874    0.07873    1.000
    Zn20     Zn       0.51979    0.91596    0.05561    1.000
    Zn21     Zn       0.24734    0.17885    0.05412    1.000
    Zn22     Zn       0.25701    0.10452    0.06353    1.000
    Zn23     Zn       0.31938    0.15259    0.12691    1.000
    Zn24     Zn       0.24428    0.14495    0.13393    1.000
    O63      O        0.26550    0.14430    0.09420    1.000
    C229     C        0.58620    0.99170    0.01850    1.000
    C230     C        0.61870    0.98450    0.01620    1.000
    H129     H        0.62780    0.96350    0.02240    1.000
    C231     C        0.63830    0.00660    0.00520    1.000
    H130     H        0.66060    0.00080    0.00460    1.000
    Br9      Br       0.65013    0.06838    0.97872    1.000
    C232     C        0.62520    0.03700    0.99510    1.000
    C233     C        0.59310    0.04450    0.99640    1.000
    H131     H        0.58380    0.06530    0.98930    1.000
    C234     C        0.57400    0.02270    0.00770    1.000
    H132     H        0.55180    0.02890    0.00830    1.000
    B9       B        0.56240    0.96740    0.03110    1.000
    O64      O        0.58990    0.93820    0.05470    1.000
    N25      N        0.57330    0.91330    0.06130    1.000
    C235     C        0.59630    0.88800    0.07500    1.000
    H133     H        0.62020    0.89090    0.07730    1.000
    C236     C        0.58750    0.85620    0.08680    1.000
    C237     C        0.55650    0.84960    0.09330    1.000
    C238     C        0.55200    0.81800    0.10420    1.000
    C239     C        0.57860    0.79520    0.10850    1.000
    H134     H        0.57590    0.77430    0.11650    1.000
    C240     C        0.60860    0.80250    0.10130    1.000
    C241     C        0.61310    0.83320    0.09070    1.000
    H135     H        0.63380    0.83860    0.08620    1.000
    C242     C        0.52120    0.80680    0.11040    1.000
    H136     H        0.52120    0.78520    0.11760    1.000
    N26      N        0.49430    0.82320    0.10710    1.000
    O65      O        0.46980    0.80610    0.11640    1.000
    B10      B        0.43310    0.81950    0.10220    1.000
    O66      O        0.53410    0.95560    0.99070    1.000
    N27      N        0.51070    0.93230    0.99290    1.000
    C243     C        0.48590    0.92410    0.95670    1.000
    H137     H        0.48700    0.93360    0.93240    1.000
    C244     C        0.45610    0.90240    0.94720    1.000
    C245     C        0.45000    0.88580    0.97980    1.000
    C246     C        0.41930    0.86500    0.96630    1.000
    C247     C        0.39590    0.86180    0.92210    1.000
    H138     H        0.37530    0.84830    0.91340    1.000
    C248     C        0.40210    0.87800    0.89110    1.000
    C249     C        0.43220    0.89790    0.90360    1.000
    H139     H        0.43670    0.90860    0.88220    1.000
    C250     C        0.41100    0.84590    0.99570    1.000
    H140     H        0.38940    0.83360    0.98350    1.000
    N28      N        0.42970    0.84380    0.03620    1.000
    O67      O        0.41440    0.82280    0.05560    1.000
    O68      O        0.55160    0.98100    0.06060    1.000
    N29      N        0.52810    0.96430    0.07250    1.000
    C251     C        0.50990    0.98170    0.08610    1.000
    H141     H        0.51410    0.00380    0.08660    1.000
    C252     C        0.48350    0.97140    0.10090    1.000
    C253     C        0.47620    0.93870    0.10560    1.000
    C254     C        0.44870    0.93220    0.11970    1.000
    C255     C        0.42850    0.95690    0.12630    1.000
    H142     H        0.41030    0.95200    0.13550    1.000
    C256     C        0.43480    0.98820    0.11950    1.000
    C257     C        0.46280    0.99510    0.10830    1.000
    H143     H        0.46800    0.01660    0.10540    1.000
    C258     C        0.43890    0.90070    0.12680    1.000
    H144     H        0.42270    0.89910    0.13980    1.000
    N30      N        0.44960    0.87500    0.11750    1.000
    O69      O        0.43370    0.84780    0.12640    1.000
    C259     C        0.41120    0.79350    0.11480    1.000
    C260     C        0.41310    0.79060    0.15610    1.000
    H145     H        0.42800    0.80500    0.17760    1.000
    C261     C        0.39420    0.76790    0.16690    1.000
    H146     H        0.39580    0.76740    0.19520    1.000
    Br10     Br       0.34500    0.71591    0.15010    1.000
    C262     C        0.37340    0.74610    0.13720    1.000
    C263     C        0.37140    0.74710    0.09650    1.000
    H147     H        0.35790    0.73160    0.07580    1.000
    C264     C        0.38950    0.77080    0.08600    1.000
    H148     H        0.38690    0.77170    0.05730    1.000
    O70      O        0.53220    0.87120    0.08770    1.000
    C265     C        0.63410    0.77750    0.10130    1.000
    C266     C        0.64440    0.77580    0.06790    1.000
    H149     H        0.63640    0.79150    0.04610    1.000
    C267     C        0.66640    0.75140    0.06630    1.000
    H150     H        0.67240    0.75000    0.04270    1.000
    C268     C        0.67970    0.72880    0.09880    1.000
    C269     C        0.67030    0.73130    0.13290    1.000
    H151     H        0.67990    0.71660    0.15590    1.000
    C270     C        0.64740    0.75480    0.13370    1.000
    H152     H        0.64050    0.75550    0.15670    1.000
    C271     C        0.70300    0.70190    0.09670    1.000
    O71      O        0.71040    0.70150    0.06480    1.000
    O72      O        0.47190    0.89000    0.02100    1.000
    O73      O        0.71380    0.68280    0.12690    1.000
    C272     C        0.37830    0.87380    0.84440    1.000
    C273     C        0.39170    0.87690    0.81370    1.000
    H153     H        0.41650    0.88230    0.82280    1.000
    C274     C        0.36970    0.87230    0.77040    1.000
    H154     H        0.37970    0.87370    0.75030    1.000
    C275     C        0.33270    0.86540    0.75620    1.000
    C276     C        0.31910    0.86270    0.78640    1.000
    H155     H        0.29400    0.85840    0.77730    1.000
    C277     C        0.34170    0.86630    0.83010    1.000
    H156     H        0.33210    0.86350    0.85050    1.000
    C278     C        0.30830    0.86250    0.70870    1.000
    O74      O        0.49490    0.91570    0.09880    1.000
    O75      O        0.32270    0.86660    0.68310    1.000
    O76      O        0.27530    0.85750    0.69480    1.000
    C279     C        0.40960    0.01350    0.11960    1.000
    C280     C        0.37280    0.00670    0.10480    1.000
    H157     H        0.36450    0.98560    0.09800    1.000
    C281     C        0.34840    0.03070    0.10010    1.000
    H158     H        0.32330    0.02580    0.08920    1.000
    C282     C        0.35990    0.06180    0.11100    1.000
    C283     C        0.39720    0.06820    0.12820    1.000
    H159     H        0.40600    0.08900    0.13700    1.000
    C284     C        0.42140    0.04400    0.13230    1.000
    H160     H        0.44670    0.04840    0.14410    1.000
    C285     C        0.33200    0.08770    0.10240    1.000
    O77      O        0.34450    0.11430    0.11820    1.000
    O78      O        0.29910    0.08050    0.08090    1.000
    C286     C        0.93030    0.01450    0.65850    1.000
    C287     C        0.94480    0.98930    0.68690    1.000
    H161     H        0.97060    0.98770    0.70200    1.000
    C288     C        0.92400    0.96670    0.69410    1.000
    H162     H        0.93520    0.95060    0.71480    1.000
    Br11     Br       0.85755    0.93575    0.67900    1.000
    C289     C        0.88680    0.96770    0.67140    1.000
    C290     C        0.87110    0.99130    0.64230    1.000
    H163     H        0.84540    0.99200    0.62620    1.000
    C291     C        0.89240    0.01430    0.63620    1.000
    H164     H        0.88080    0.03060    0.61600    1.000
    B11      B        0.95450    0.04140    0.65140    1.000
    O79      O        0.97120    0.02320    0.62130    1.000
    N31      N        0.99780    0.03930    0.61710    1.000
    C292     C        0.01940    0.02100    0.60650    1.000
    H165     H        0.01350    0.99920    0.60200    1.000
    C293     C        0.05200    0.03180    0.60100    1.000
    C294     C        0.05890    0.06390    0.59540    1.000
    C295     C        0.08990    0.07030    0.58790    1.000
    C296     C        0.11210    0.04500    0.58760    1.000
    H166     H        0.13280    0.04970    0.58280    1.000
    C297     C        0.10580    0.01360    0.59400    1.000
    C298     C        0.07500    0.00790    0.60010    1.000
    H167     H        0.06930    0.98670    0.60390    1.000
    C299     C        0.10060    0.10170    0.58210    1.000
    H168     H        0.12080    0.10310    0.57540    1.000
    N32      N        0.08650    0.12770    0.58480    1.000
    O80      O        0.10520    0.15440    0.58010    1.000
    B12      B        0.09600    0.18540    0.59340    1.000
    O81      O        0.98520    0.04830    0.69210    1.000
    N33      N        0.00980    0.07110    0.69240    1.000
    C300     C        0.03440    0.07760    0.72970    1.000
    H169     H        0.03360    0.06640    0.75310    1.000
    C301     C        0.06370    0.10050    0.74010    1.000
    C302     C        0.06870    0.12020    0.70930    1.000
    C303     C        0.09910    0.14150    0.72440    1.000
    C304     C        0.12190    0.14300    0.76870    1.000
    H170     H        0.14140    0.15770    0.77870    1.000
    C305     C        0.11700    0.12390    0.79840    1.000
    C306     C        0.08820    0.10280    0.78380    1.000
    H171     H        0.08490    0.08960    0.80400    1.000
    C307     C        0.10830    0.16190    0.69680    1.000
    H172     H        0.12830    0.17570    0.71070    1.000
    N34      N        0.09230    0.16310    0.65610    1.000
    O82      O        0.10770    0.18430    0.63860    1.000
    O83      O        0.93160    0.06590    0.62650    1.000
    N35      N        0.94720    0.09120    0.61480    1.000
    C308     C        0.92590    0.11450    0.60010    1.000
    H173     H        0.90210    0.11220    0.59830    1.000
    C309     C        0.93400    0.14440    0.58580    1.000
    C310     C        0.96710    0.15110    0.58250    1.000
    C311     C        0.97130    0.18230    0.56970    1.000
    C312     C        0.94490    0.20550    0.56260    1.000
    H174     H        0.94880    0.22630    0.55500    1.000
    C313     C        0.91300    0.19900    0.56650    1.000
    C314     C        0.90820    0.16870    0.57770    1.000
    H175     H        0.88640    0.16390    0.58020    1.000
    C315     C        0.00330    0.19300    0.56500    1.000
    H176     H        0.00250    0.21330    0.55320    1.000
    N36      N        0.03240    0.17700    0.57570    1.000
    O84      O        0.05800    0.19340    0.56890    1.000
    C316     C        0.12020    0.21170    0.58500    1.000
    C317     C        0.15140    0.22510    0.61690    1.000
    H177     H        0.16010    0.21670    0.64520    1.000
    C318     C        0.11000    0.22480    0.54430    1.000
    H178     H        0.08900    0.21650    0.52100    1.000
    C319     C        0.17060    0.24990    0.61000    1.000
    H179     H        0.19120    0.25870    0.63320    1.000
    C320     C        0.12860    0.24910    0.53610    1.000
    H180     H        0.12040    0.25710    0.50780    1.000
    Br12     Br       0.18548    0.29400    0.55700    1.000
    C321     C        0.15910    0.26150    0.56910    1.000
    O85      O        0.03830    0.08660    0.59770    1.000
    C322     C        0.13090    0.98800    0.59560    1.000
    C323     C        0.13220    0.95930    0.61580    1.000
    H181     H        0.11570    0.95560    0.62800    1.000
    C324     C        0.15670    0.93600    0.61880    1.000
    H182     H        0.15690    0.91670    0.63290    1.000
    C325     C        0.18110    0.94040    0.60110    1.000
    C326     C        0.18040    0.96920    0.58140    1.000
    H183     H        0.19720    0.97290    0.56970    1.000
    C327     C        0.15580    0.99240    0.57850    1.000
    H184     H        0.15580    0.01180    0.56460    1.000
    C328     C        0.20720    0.91520    0.60200    1.000
    O86      O        0.20920    0.89040    0.62230    1.000
    O87      O        0.04560    0.11950    0.66890    1.000
    O88      O        0.22660    0.92170    0.58240    1.000
    C329     C        0.14240    0.12560    0.84480    1.000
    C330     C        0.15230    0.09910    0.87140    1.000
    H185     H        0.14290    0.07900    0.85950    1.000
    C331     C        0.17570    0.10140    0.91470    1.000
    H186     H        0.18250    0.08300    0.93210    1.000
    C332     C        0.18920    0.13100    0.93280    1.000
    C333     C        0.17970    0.15760    0.90610    1.000
    H187     H        0.18920    0.17760    0.91790    1.000
    C334     C        0.15680    0.15490    0.86280    1.000
    H188     H        0.15080    0.17320    0.84500    1.000
    C335     C        0.21310    0.13500    0.98040    1.000
    O89      O        0.99210    0.12970    0.59080    1.000
    O90      O        0.22640    0.11010    0.00270    1.000
    O91      O        0.22080    0.16260    0.99460    1.000
    C336     C        0.88630    0.22460    0.56100    1.000
    C337     C        0.89830    0.25490    0.57720    1.000
    H189     H        0.92340    0.25980    0.58900    1.000
    C338     C        0.87370    0.27760    0.57620    1.000
    H190     H        0.88230    0.29800    0.58720    1.000
    C339     C        0.83680    0.27130    0.55960    1.000
    C340     C        0.82440    0.24160    0.54200    1.000
    H191     H        0.79910    0.23690    0.52980    1.000
    C341     C        0.84880    0.21900    0.54230    1.000
    H192     H        0.83990    0.19910    0.52950    1.000
    C342     C        0.81010    0.29580    0.56030    1.000
    O92      O        0.77750    0.28890    0.54530    1.000
    O93      O        0.82300    0.32190    0.57650    1.000
    Zn25     Zn       0.50374    0.58836    0.63000    1.000
    Zn26     Zn       0.54890    0.63493    0.61157    1.000
    Zn27     Zn       0.97740    0.36874    0.07873    1.000
    Zn28     Zn       0.01979    0.41596    0.05561    1.000
    Zn29     Zn       0.74734    0.67885    0.05412    1.000
    Zn30     Zn       0.75701    0.60452    0.06353    1.000
    Zn31     Zn       0.81938    0.65259    0.12691    1.000
    Zn32     Zn       0.74428    0.64495    0.13393    1.000
    O94      O        0.76550    0.64430    0.09420    1.000
    C343     C        0.08620    0.49170    0.01850    1.000
    C344     C        0.11870    0.48450    0.01620    1.000
    H193     H        0.12780    0.46350    0.02240    1.000
    C345     C        0.13830    0.50660    0.00520    1.000
    H194     H        0.16060    0.50080    0.00460    1.000
    Br13     Br       0.15013    0.56838    0.97872    1.000
    C346     C        0.12520    0.53700    0.99510    1.000
    C347     C        0.09310    0.54450    0.99640    1.000
    H195     H        0.08380    0.56530    0.98930    1.000
    C348     C        0.07400    0.52270    0.00770    1.000
    H196     H        0.05180    0.52890    0.00830    1.000
    B13      B        0.06240    0.46740    0.03110    1.000
    O95      O        0.08990    0.43820    0.05470    1.000
    N37      N        0.07330    0.41330    0.06130    1.000
    C349     C        0.09630    0.38800    0.07500    1.000
    H197     H        0.12020    0.39090    0.07730    1.000
    C350     C        0.08750    0.35620    0.08680    1.000
    C351     C        0.05650    0.34960    0.09330    1.000
    C352     C        0.05200    0.31800    0.10420    1.000
    C353     C        0.07860    0.29520    0.10850    1.000
    H198     H        0.07590    0.27430    0.11650    1.000
    C354     C        0.10860    0.30250    0.10130    1.000
    C355     C        0.11310    0.33320    0.09070    1.000
    H199     H        0.13380    0.33860    0.08620    1.000
    C356     C        0.02120    0.30680    0.11040    1.000
    H200     H        0.02120    0.28520    0.11760    1.000
    N38      N        0.99430    0.32320    0.10710    1.000
    O96      O        0.96980    0.30610    0.11640    1.000
    B14      B        0.93310    0.31950    0.10220    1.000
    O97      O        0.03410    0.45560    0.99070    1.000
    N39      N        0.01070    0.43230    0.99290    1.000
    C357     C        0.98590    0.42410    0.95670    1.000
    H201     H        0.98700    0.43360    0.93240    1.000
    C358     C        0.95610    0.40240    0.94720    1.000
    C359     C        0.95000    0.38580    0.97980    1.000
    C360     C        0.91930    0.36500    0.96630    1.000
    C361     C        0.89590    0.36180    0.92210    1.000
    H202     H        0.87530    0.34830    0.91340    1.000
    C362     C        0.90210    0.37800    0.89110    1.000
    C363     C        0.93220    0.39790    0.90360    1.000
    H203     H        0.93670    0.40860    0.88220    1.000
    C364     C        0.91100    0.34590    0.99570    1.000
    H204     H        0.88940    0.33360    0.98350    1.000
    N40      N        0.92970    0.34380    0.03620    1.000
    O98      O        0.91440    0.32280    0.05560    1.000
    O99      O        0.05160    0.48100    0.06060    1.000
    N41      N        0.02810    0.46430    0.07250    1.000
    C365     C        0.00990    0.48170    0.08610    1.000
    H205     H        0.01410    0.50380    0.08660    1.000
    C366     C        0.98350    0.47140    0.10090    1.000
    C367     C        0.97620    0.43870    0.10560    1.000
    C368     C        0.94870    0.43220    0.11970    1.000
    C369     C        0.92850    0.45690    0.12630    1.000
    H206     H        0.91030    0.45200    0.13550    1.000
    C370     C        0.93480    0.48820    0.11950    1.000
    C371     C        0.96280    0.49510    0.10830    1.000
    H207     H        0.96800    0.51660    0.10540    1.000
    C372     C        0.93890    0.40070    0.12680    1.000
    H208     H        0.92270    0.39910    0.13980    1.000
    N42      N        0.94960    0.37500    0.11750    1.000
    O100     O        0.93370    0.34780    0.12640    1.000
    C373     C        0.91120    0.29350    0.11480    1.000
    C374     C        0.91310    0.29060    0.15610    1.000
    H209     H        0.92800    0.30500    0.17760    1.000
    C375     C        0.89420    0.26790    0.16690    1.000
    H210     H        0.89580    0.26740    0.19520    1.000
    Br14     Br       0.84500    0.21591    0.15010    1.000
    C376     C        0.87340    0.24610    0.13720    1.000
    C377     C        0.87140    0.24710    0.09650    1.000
    H211     H        0.85790    0.23160    0.07580    1.000
    C378     C        0.88950    0.27080    0.08600    1.000
    H212     H        0.88690    0.27170    0.05730    1.000
    O101     O        0.03220    0.37120    0.08770    1.000
    C379     C        0.13410    0.27750    0.10130    1.000
    C380     C        0.14440    0.27580    0.06790    1.000
    H213     H        0.13640    0.29150    0.04610    1.000
    C381     C        0.16640    0.25140    0.06630    1.000
    H214     H        0.17240    0.25000    0.04270    1.000
    C382     C        0.17970    0.22880    0.09880    1.000
    C383     C        0.17030    0.23130    0.13290    1.000
    H215     H        0.17990    0.21660    0.15590    1.000
    C384     C        0.14740    0.25480    0.13370    1.000
    H216     H        0.14050    0.25550    0.15670    1.000
    C385     C        0.20300    0.20190    0.09670    1.000
    O102     O        0.21040    0.20150    0.06480    1.000
    O103     O        0.97190    0.39000    0.02100    1.000
    O104     O        0.21380    0.18280    0.12690    1.000
    C386     C        0.87830    0.37380    0.84440    1.000
    C387     C        0.89170    0.37690    0.81370    1.000
    H217     H        0.91650    0.38230    0.82280    1.000
    C388     C        0.86970    0.37230    0.77040    1.000
    H218     H        0.87970    0.37370    0.75030    1.000
    C389     C        0.83270    0.36540    0.75620    1.000
    C390     C        0.81910    0.36270    0.78640    1.000
    H219     H        0.79400    0.35840    0.77730    1.000
    C391     C        0.84170    0.36630    0.83010    1.000
    H220     H        0.83210    0.36350    0.85050    1.000
    C392     C        0.80830    0.36250    0.70870    1.000
    O105     O        0.99490    0.41570    0.09880    1.000
    O106     O        0.82270    0.36660    0.68310    1.000
    O107     O        0.77530    0.35750    0.69480    1.000
    C393     C        0.90960    0.51350    0.11960    1.000
    C394     C        0.87280    0.50670    0.10480    1.000
    H221     H        0.86450    0.48560    0.09800    1.000
    C395     C        0.84840    0.53070    0.10010    1.000
    H222     H        0.82330    0.52580    0.08920    1.000
    C396     C        0.85990    0.56180    0.11100    1.000
    C397     C        0.89720    0.56820    0.12820    1.000
    H223     H        0.90600    0.58900    0.13700    1.000
    C398     C        0.92140    0.54400    0.13230    1.000
    H224     H        0.94670    0.54840    0.14410    1.000
    C399     C        0.83200    0.58770    0.10240    1.000
    O108     O        0.84450    0.61430    0.11820    1.000
    O109     O        0.79910    0.58050    0.08090    1.000
    C400     C        0.43030    0.51450    0.65850    1.000
    C401     C        0.44480    0.48930    0.68690    1.000
    H225     H        0.47060    0.48770    0.70200    1.000
    C402     C        0.42400    0.46670    0.69410    1.000
    H226     H        0.43520    0.45060    0.71480    1.000
    Br15     Br       0.35755    0.43575    0.67900    1.000
    C403     C        0.38680    0.46770    0.67140    1.000
    C404     C        0.37110    0.49130    0.64230    1.000
    H227     H        0.34540    0.49200    0.62620    1.000
    C405     C        0.39240    0.51430    0.63620    1.000
    H228     H        0.38080    0.53060    0.61600    1.000
    B15      B        0.45450    0.54140    0.65140    1.000
    O110     O        0.47120    0.52320    0.62130    1.000
    N43      N        0.49780    0.53930    0.61710    1.000
    C406     C        0.51940    0.52100    0.60650    1.000
    H229     H        0.51350    0.49920    0.60200    1.000
    C407     C        0.55200    0.53180    0.60100    1.000
    C408     C        0.55890    0.56390    0.59540    1.000
    C409     C        0.58990    0.57030    0.58790    1.000
    C410     C        0.61210    0.54500    0.58760    1.000
    H230     H        0.63280    0.54970    0.58280    1.000
    C411     C        0.60580    0.51360    0.59400    1.000
    C412     C        0.57500    0.50790    0.60010    1.000
    H231     H        0.56930    0.48670    0.60390    1.000
    C413     C        0.60060    0.60170    0.58210    1.000
    H232     H        0.62080    0.60310    0.57540    1.000
    N44      N        0.58650    0.62770    0.58480    1.000
    O111     O        0.60520    0.65440    0.58010    1.000
    B16      B        0.59600    0.68540    0.59340    1.000
    O112     O        0.48520    0.54830    0.69210    1.000
    N45      N        0.50980    0.57110    0.69240    1.000
    C414     C        0.53440    0.57760    0.72970    1.000
    H233     H        0.53360    0.56640    0.75310    1.000
    C415     C        0.56370    0.60050    0.74010    1.000
    C416     C        0.56870    0.62020    0.70930    1.000
    C417     C        0.59910    0.64150    0.72440    1.000
    C418     C        0.62190    0.64300    0.76870    1.000
    H234     H        0.64140    0.65770    0.77870    1.000
    C419     C        0.61700    0.62390    0.79840    1.000
    C420     C        0.58820    0.60280    0.78380    1.000
    H235     H        0.58490    0.58960    0.80400    1.000
    C421     C        0.60830    0.66190    0.69680    1.000
    H236     H        0.62830    0.67570    0.71070    1.000
    N46      N        0.59230    0.66310    0.65610    1.000
    O113     O        0.60770    0.68430    0.63860    1.000
    O114     O        0.43160    0.56590    0.62650    1.000
    N47      N        0.44720    0.59120    0.61480    1.000
    C422     C        0.42590    0.61450    0.60010    1.000
    H237     H        0.40210    0.61220    0.59830    1.000
    C423     C        0.43400    0.64440    0.58580    1.000
    C424     C        0.46710    0.65110    0.58250    1.000
    C425     C        0.47130    0.68230    0.56970    1.000
    C426     C        0.44490    0.70550    0.56260    1.000
    H238     H        0.44880    0.72630    0.55500    1.000
    C427     C        0.41300    0.69900    0.56650    1.000
    C428     C        0.40820    0.66870    0.57770    1.000
    H239     H        0.38640    0.66390    0.58020    1.000
    C429     C        0.50330    0.69300    0.56500    1.000
    H240     H        0.50250    0.71330    0.55320    1.000
    N48      N        0.53240    0.67700    0.57570    1.000
    O115     O        0.55800    0.69340    0.56890    1.000
    C430     C        0.62020    0.71170    0.58500    1.000
    C431     C        0.65140    0.72510    0.61690    1.000
    H241     H        0.66010    0.71670    0.64520    1.000
    C432     C        0.61000    0.72480    0.54430    1.000
    H242     H        0.58900    0.71650    0.52100    1.000
    C433     C        0.67060    0.74990    0.61000    1.000
    H243     H        0.69120    0.75870    0.63320    1.000
    C434     C        0.62860    0.74910    0.53610    1.000
    H244     H        0.62040    0.75710    0.50780    1.000
    Br16     Br       0.68548    0.79400    0.55700    1.000
    C435     C        0.65910    0.76150    0.56910    1.000
    O116     O        0.53830    0.58660    0.59770    1.000
    C436     C        0.63090    0.48800    0.59560    1.000
    C437     C        0.63220    0.45930    0.61580    1.000
    H245     H        0.61570    0.45560    0.62800    1.000
    C438     C        0.65670    0.43600    0.61880    1.000
    H246     H        0.65690    0.41670    0.63290    1.000
    C439     C        0.68110    0.44040    0.60110    1.000
    C440     C        0.68040    0.46920    0.58140    1.000
    H247     H        0.69720    0.47290    0.56970    1.000
    C441     C        0.65580    0.49240    0.57850    1.000
    H248     H        0.65580    0.51180    0.56460    1.000
    C442     C        0.70720    0.41520    0.60200    1.000
    O117     O        0.70920    0.39040    0.62230    1.000
    O118     O        0.54560    0.61950    0.66890    1.000
    O119     O        0.72660    0.42170    0.58240    1.000
    C443     C        0.64240    0.62560    0.84480    1.000
    C444     C        0.65230    0.59910    0.87140    1.000
    H249     H        0.64290    0.57900    0.85950    1.000
    C445     C        0.67570    0.60140    0.91470    1.000
    H250     H        0.68250    0.58300    0.93210    1.000
    C446     C        0.68920    0.63100    0.93280    1.000
    C447     C        0.67970    0.65760    0.90610    1.000
    H251     H        0.68920    0.67760    0.91790    1.000
    C448     C        0.65680    0.65490    0.86280    1.000
    H252     H        0.65080    0.67320    0.84500    1.000
    C449     C        0.71310    0.63500    0.98040    1.000
    O120     O        0.49210    0.62970    0.59080    1.000
    O121     O        0.72640    0.61010    0.00270    1.000
    O122     O        0.72080    0.66260    0.99460    1.000
    C450     C        0.38630    0.72460    0.56100    1.000
    C451     C        0.39830    0.75490    0.57720    1.000
    H253     H        0.42340    0.75980    0.58900    1.000
    C452     C        0.37370    0.77760    0.57620    1.000
    H254     H        0.38230    0.79800    0.58720    1.000
    C453     C        0.33680    0.77130    0.55960    1.000
    C454     C        0.32440    0.74160    0.54200    1.000
    H255     H        0.29910    0.73690    0.52980    1.000
    C455     C        0.34880    0.71900    0.54230    1.000
    H256     H        0.33990    0.69910    0.52950    1.000
    C456     C        0.31010    0.79580    0.56030    1.000
    O123     O        0.27750    0.78890    0.54530    1.000
    O124     O        0.32300    0.82190    0.57650    1.000
    Zn33     Zn       0.99626    0.91164    0.37000    1.000
    Zn34     Zn       0.95110    0.86507    0.38843    1.000
    Zn35     Zn       0.52260    0.13126    0.92127    1.000
    Zn36     Zn       0.48021    0.08404    0.94439    1.000
    Zn37     Zn       0.75266    0.82115    0.94588    1.000
    Zn38     Zn       0.74299    0.89548    0.93647    1.000
    Zn39     Zn       0.68062    0.84741    0.87309    1.000
    Zn40     Zn       0.75572    0.85505    0.86607    1.000
    O125     O        0.73450    0.85570    0.90580    1.000
    C457     C        0.41380    0.00830    0.98150    1.000
    C458     C        0.38130    0.01550    0.98380    1.000
    H257     H        0.37220    0.03650    0.97760    1.000
    C459     C        0.36170    0.99340    0.99480    1.000
    H258     H        0.33940    0.99920    0.99540    1.000
    Br17     Br       0.34987    0.93162    0.02128    1.000
    C460     C        0.37480    0.96300    0.00490    1.000
    C461     C        0.40690    0.95550    0.00360    1.000
    H259     H        0.41620    0.93470    0.01070    1.000
    C462     C        0.42600    0.97730    0.99230    1.000
    H260     H        0.44820    0.97110    0.99170    1.000
    B17      B        0.43760    0.03260    0.96890    1.000
    O126     O        0.41010    0.06180    0.94530    1.000
    N49      N        0.42670    0.08670    0.93870    1.000
    C463     C        0.40370    0.11200    0.92500    1.000
    H261     H        0.37980    0.10910    0.92270    1.000
    C464     C        0.41250    0.14380    0.91320    1.000
    C465     C        0.44350    0.15040    0.90670    1.000
    C466     C        0.44800    0.18200    0.89580    1.000
    C467     C        0.42140    0.20480    0.89150    1.000
    H262     H        0.42410    0.22570    0.88350    1.000
    C468     C        0.39140    0.19750    0.89870    1.000
    C469     C        0.38690    0.16680    0.90930    1.000
    H263     H        0.36620    0.16140    0.91380    1.000
    C470     C        0.47880    0.19320    0.88960    1.000
    H264     H        0.47880    0.21480    0.88240    1.000
    N50      N        0.50570    0.17680    0.89290    1.000
    O127     O        0.53020    0.19390    0.88360    1.000
    B18      B        0.56690    0.18050    0.89780    1.000
    O128     O        0.46590    0.04440    0.00930    1.000
    N51      N        0.48930    0.06770    0.00710    1.000
    C471     C        0.51410    0.07590    0.04330    1.000
    H265     H        0.51300    0.06640    0.06760    1.000
    C472     C        0.54390    0.09760    0.05280    1.000
    C473     C        0.55000    0.11420    0.02020    1.000
    C474     C        0.58070    0.13500    0.03370    1.000
    C475     C        0.60410    0.13820    0.07790    1.000
    H266     H        0.62470    0.15170    0.08660    1.000
    C476     C        0.59790    0.12200    0.10890    1.000
    C477     C        0.56780    0.10210    0.09640    1.000
    H267     H        0.56330    0.09140    0.11780    1.000
    C478     C        0.58900    0.15410    0.00430    1.000
    H268     H        0.61060    0.16640    0.01650    1.000
    N52      N        0.57030    0.15620    0.96380    1.000
    O129     O        0.58560    0.17720    0.94440    1.000
    O130     O        0.44840    0.01900    0.93940    1.000
    N53      N        0.47190    0.03570    0.92750    1.000
    C479     C        0.49010    0.01830    0.91390    1.000
    H269     H        0.48590    0.99620    0.91340    1.000
    C480     C        0.51650    0.02860    0.89910    1.000
    C481     C        0.52380    0.06130    0.89440    1.000
    C482     C        0.55130    0.06780    0.88030    1.000
    C483     C        0.57150    0.04310    0.87370    1.000
    H270     H        0.58970    0.04800    0.86450    1.000
    C484     C        0.56520    0.01180    0.88050    1.000
    C485     C        0.53720    0.00490    0.89170    1.000
    H271     H        0.53200    0.98340    0.89460    1.000
    C486     C        0.56110    0.09930    0.87320    1.000
    H272     H        0.57730    0.10090    0.86020    1.000
    N54      N        0.55040    0.12500    0.88250    1.000
    O131     O        0.56630    0.15220    0.87360    1.000
    C487     C        0.58880    0.20650    0.88520    1.000
    C488     C        0.58690    0.20940    0.84390    1.000
    H273     H        0.57200    0.19500    0.82240    1.000
    C489     C        0.60580    0.23210    0.83310    1.000
    H274     H        0.60420    0.23260    0.80480    1.000
    Br18     Br       0.65500    0.28409    0.84990    1.000
    C490     C        0.62660    0.25390    0.86280    1.000
    C491     C        0.62860    0.25290    0.90350    1.000
    H275     H        0.64210    0.26840    0.92420    1.000
    C492     C        0.61050    0.22920    0.91400    1.000
    H276     H        0.61310    0.22830    0.94270    1.000
    O132     O        0.46780    0.12880    0.91230    1.000
    C493     C        0.36590    0.22250    0.89870    1.000
    C494     C        0.35560    0.22420    0.93210    1.000
    H277     H        0.36360    0.20850    0.95390    1.000
    C495     C        0.33360    0.24860    0.93370    1.000
    H278     H        0.32760    0.25000    0.95730    1.000
    C496     C        0.32030    0.27120    0.90120    1.000
    C497     C        0.32970    0.26870    0.86710    1.000
    H279     H        0.32010    0.28340    0.84410    1.000
    C498     C        0.35260    0.24520    0.86630    1.000
    H280     H        0.35950    0.24450    0.84330    1.000
    C499     C        0.29700    0.29810    0.90330    1.000
    O133     O        0.28960    0.29850    0.93520    1.000
    O134     O        0.52810    0.11000    0.97900    1.000
    O135     O        0.28620    0.31720    0.87310    1.000
    C500     C        0.62170    0.12620    0.15560    1.000
    C501     C        0.60830    0.12310    0.18630    1.000
    H281     H        0.58350    0.11770    0.17720    1.000
    C502     C        0.63030    0.12770    0.22960    1.000
    H282     H        0.62030    0.12630    0.24970    1.000
    C503     C        0.66730    0.13460    0.24380    1.000
    C504     C        0.68090    0.13730    0.21360    1.000
    H283     H        0.70600    0.14160    0.22270    1.000
    C505     C        0.65830    0.13370    0.16990    1.000
    H284     H        0.66790    0.13650    0.14950    1.000
    C506     C        0.69170    0.13750    0.29130    1.000
    O136     O        0.50510    0.08430    0.90120    1.000
    O137     O        0.67730    0.13340    0.31690    1.000
    O138     O        0.72470    0.14250    0.30520    1.000
    C507     C        0.59040    0.98650    0.88040    1.000
    C508     C        0.62720    0.99330    0.89520    1.000
    H285     H        0.63550    0.01440    0.90200    1.000
    C509     C        0.65160    0.96930    0.89990    1.000
    H286     H        0.67670    0.97420    0.91080    1.000
    C510     C        0.64010    0.93820    0.88900    1.000
    C511     C        0.60280    0.93180    0.87180    1.000
    H287     H        0.59400    0.91100    0.86300    1.000
    C512     C        0.57860    0.95600    0.86770    1.000
    H288     H        0.55330    0.95160    0.85590    1.000
    C513     C        0.66800    0.91230    0.89760    1.000
    O139     O        0.65550    0.88570    0.88180    1.000
    O140     O        0.70090    0.91950    0.91910    1.000
    C514     C        0.06970    0.98550    0.34150    1.000
    C515     C        0.05520    0.01070    0.31310    1.000
    H289     H        0.02940    0.01230    0.29800    1.000
    C516     C        0.07600    0.03330    0.30590    1.000
    H290     H        0.06480    0.04940    0.28520    1.000
    Br19     Br       0.14245    0.06425    0.32100    1.000
    C517     C        0.11320    0.03230    0.32860    1.000
    C518     C        0.12890    0.00870    0.35770    1.000
    H291     H        0.15460    0.00800    0.37380    1.000
    C519     C        0.10760    0.98570    0.36380    1.000
    H292     H        0.11920    0.96940    0.38400    1.000
    B19      B        0.04550    0.95860    0.34860    1.000
    O141     O        0.02880    0.97680    0.37870    1.000
    N55      N        0.00220    0.96070    0.38290    1.000
    C520     C        0.98060    0.97900    0.39350    1.000
    H293     H        0.98650    0.00080    0.39800    1.000
    C521     C        0.94800    0.96820    0.39900    1.000
    C522     C        0.94110    0.93610    0.40460    1.000
    C523     C        0.91010    0.92970    0.41210    1.000
    C524     C        0.88790    0.95500    0.41240    1.000
    H294     H        0.86720    0.95030    0.41720    1.000
    C525     C        0.89420    0.98640    0.40600    1.000
    C526     C        0.92500    0.99210    0.39990    1.000
    H295     H        0.93070    0.01330    0.39610    1.000
    C527     C        0.89940    0.89830    0.41790    1.000
    H296     H        0.87920    0.89690    0.42460    1.000
    N56      N        0.91350    0.87230    0.41520    1.000
    O142     O        0.89480    0.84560    0.41990    1.000
    B20      B        0.90400    0.81460    0.40660    1.000
    O143     O        0.01480    0.95170    0.30790    1.000
    N57      N        0.99020    0.92890    0.30760    1.000
    C528     C        0.96560    0.92240    0.27030    1.000
    H297     H        0.96640    0.93360    0.24690    1.000
    C529     C        0.93630    0.89950    0.25990    1.000
    C530     C        0.93130    0.87980    0.29070    1.000
    C531     C        0.90090    0.85850    0.27560    1.000
    C532     C        0.87810    0.85700    0.23130    1.000
    H298     H        0.85860    0.84230    0.22130    1.000
    C533     C        0.88300    0.87610    0.20160    1.000
    C534     C        0.91180    0.89720    0.21620    1.000
    H299     H        0.91510    0.91040    0.19600    1.000
    C535     C        0.89170    0.83810    0.30320    1.000
    H300     H        0.87170    0.82430    0.28930    1.000
    N58      N        0.90770    0.83690    0.34390    1.000
    O144     O        0.89230    0.81570    0.36140    1.000
    O145     O        0.06840    0.93410    0.37350    1.000
    N59      N        0.05280    0.90880    0.38520    1.000
    C536     C        0.07410    0.88550    0.39990    1.000
    H301     H        0.09790    0.88780    0.40170    1.000
    C537     C        0.06600    0.85560    0.41420    1.000
    C538     C        0.03290    0.84890    0.41750    1.000
    C539     C        0.02870    0.81770    0.43030    1.000
    C540     C        0.05510    0.79450    0.43740    1.000
    H302     H        0.05120    0.77370    0.44500    1.000
    C541     C        0.08700    0.80100    0.43350    1.000
    C542     C        0.09180    0.83130    0.42230    1.000
    H303     H        0.11360    0.83610    0.41980    1.000
    C543     C        0.99670    0.80700    0.43500    1.000
    H304     H        0.99750    0.78670    0.44680    1.000
    N60      N        0.96760    0.82300    0.42430    1.000
    O146     O        0.94200    0.80660    0.43110    1.000
    C544     C        0.87980    0.78830    0.41500    1.000
    C545     C        0.84860    0.77490    0.38310    1.000
    H305     H        0.83990    0.78330    0.35480    1.000
    C546     C        0.89000    0.77520    0.45570    1.000
    H306     H        0.91100    0.78350    0.47900    1.000
    C547     C        0.82940    0.75010    0.39000    1.000
    H307     H        0.80880    0.74130    0.36680    1.000
    C548     C        0.87140    0.75090    0.46390    1.000
    H308     H        0.87960    0.74290    0.49220    1.000
    Br20     Br       0.81452    0.70600    0.44300    1.000
    C549     C        0.84090    0.73850    0.43090    1.000
    O147     O        0.96170    0.91340    0.40230    1.000
    C550     C        0.86910    0.01200    0.40440    1.000
    C551     C        0.86780    0.04070    0.38420    1.000
    H309     H        0.88430    0.04440    0.37200    1.000
    C552     C        0.84330    0.06400    0.38120    1.000
    H310     H        0.84310    0.08330    0.36710    1.000
    C553     C        0.81890    0.05960    0.39890    1.000
    C554     C        0.81960    0.03080    0.41860    1.000
    H311     H        0.80280    0.02710    0.43030    1.000
    C555     C        0.84420    0.00760    0.42150    1.000
    H312     H        0.84420    0.98820    0.43540    1.000
    C556     C        0.79280    0.08480    0.39800    1.000
    O148     O        0.79080    0.10960    0.37770    1.000
    O149     O        0.95440    0.88050    0.33110    1.000
    O150     O        0.77340    0.07830    0.41760    1.000
    C557     C        0.85760    0.87440    0.15520    1.000
    C558     C        0.84770    0.90090    0.12860    1.000
    H313     H        0.85710    0.92100    0.14050    1.000
    C559     C        0.82430    0.89860    0.08530    1.000
    H314     H        0.81750    0.91700    0.06790    1.000
    C560     C        0.81080    0.86900    0.06720    1.000
    C561     C        0.82030    0.84240    0.09390    1.000
    H315     H        0.81080    0.82240    0.08210    1.000
    C562     C        0.84320    0.84510    0.13720    1.000
    H316     H        0.84920    0.82680    0.15500    1.000
    C563     C        0.78690    0.86500    0.01960    1.000
    O151     O        0.00790    0.87030    0.40920    1.000
    O152     O        0.77360    0.88990    0.99730    1.000
    O153     O        0.77920    0.83740    0.00540    1.000
    C564     C        0.11370    0.77540    0.43900    1.000
    C565     C        0.10170    0.74510    0.42280    1.000
    H317     H        0.07660    0.74020    0.41100    1.000
    C566     C        0.12630    0.72240    0.42380    1.000
    H318     H        0.11770    0.70200    0.41280    1.000
    C567     C        0.16320    0.72870    0.44040    1.000
    C568     C        0.17560    0.75840    0.45800    1.000
    H319     H        0.20090    0.76310    0.47020    1.000
    C569     C        0.15120    0.78100    0.45770    1.000
    H320     H        0.16010    0.80090    0.47050    1.000
    C570     C        0.18990    0.70420    0.43970    1.000
    O154     O        0.22250    0.71110    0.45470    1.000
    O155     O        0.17700    0.67810    0.42350    1.000
    Zn41     Zn       0.49626    0.41164    0.37000    1.000
    Zn42     Zn       0.45110    0.36507    0.38843    1.000
    Zn43     Zn       0.02260    0.63126    0.92127    1.000
    Zn44     Zn       0.98021    0.58404    0.94439    1.000
    Zn45     Zn       0.25266    0.32115    0.94588    1.000
    Zn46     Zn       0.24299    0.39548    0.93647    1.000
    Zn47     Zn       0.18062    0.34741    0.87309    1.000
    Zn48     Zn       0.25572    0.35505    0.86607    1.000
    O156     O        0.23450    0.35570    0.90580    1.000
    C571     C        0.91380    0.50830    0.98150    1.000
    C572     C        0.88130    0.51550    0.98380    1.000
    H321     H        0.87220    0.53650    0.97760    1.000
    C573     C        0.86170    0.49340    0.99480    1.000
    H322     H        0.83940    0.49920    0.99540    1.000
    Br21     Br       0.84987    0.43162    0.02128    1.000
    C574     C        0.87480    0.46300    0.00490    1.000
    C575     C        0.90690    0.45550    0.00360    1.000
    H323     H        0.91620    0.43470    0.01070    1.000
    C576     C        0.92600    0.47730    0.99230    1.000
    H324     H        0.94820    0.47110    0.99170    1.000
    B21      B        0.93760    0.53260    0.96890    1.000
    O157     O        0.91010    0.56180    0.94530    1.000
    N61      N        0.92670    0.58670    0.93870    1.000
    C577     C        0.90370    0.61200    0.92500    1.000
    H325     H        0.87980    0.60910    0.92270    1.000
    C578     C        0.91250    0.64380    0.91320    1.000
    C579     C        0.94350    0.65040    0.90670    1.000
    C580     C        0.94800    0.68200    0.89580    1.000
    C581     C        0.92140    0.70480    0.89150    1.000
    H326     H        0.92410    0.72570    0.88350    1.000
    C582     C        0.89140    0.69750    0.89870    1.000
    C583     C        0.88690    0.66680    0.90930    1.000
    H327     H        0.86620    0.66140    0.91380    1.000
    C584     C        0.97880    0.69320    0.88960    1.000
    H328     H        0.97880    0.71480    0.88240    1.000
    N62      N        0.00570    0.67680    0.89290    1.000
    O158     O        0.03020    0.69390    0.88360    1.000
    B22      B        0.06690    0.68050    0.89780    1.000
    O159     O        0.96590    0.54440    0.00930    1.000
    N63      N        0.98930    0.56770    0.00710    1.000
    C585     C        0.01410    0.57590    0.04330    1.000
    H329     H        0.01300    0.56640    0.06760    1.000
    C586     C        0.04390    0.59760    0.05280    1.000
    C587     C        0.05000    0.61420    0.02020    1.000
    C588     C        0.08070    0.63500    0.03370    1.000
    C589     C        0.10410    0.63820    0.07790    1.000
    H330     H        0.12470    0.65170    0.08660    1.000
    C590     C        0.09790    0.62200    0.10890    1.000
    C591     C        0.06780    0.60210    0.09640    1.000
    H331     H        0.06330    0.59140    0.11780    1.000
    C592     C        0.08900    0.65410    0.00430    1.000
    H332     H        0.11060    0.66640    0.01650    1.000
    N64      N        0.07030    0.65620    0.96380    1.000
    O160     O        0.08560    0.67720    0.94440    1.000
    O161     O        0.94840    0.51900    0.93940    1.000
    N65      N        0.97190    0.53570    0.92750    1.000
    C593     C        0.99010    0.51830    0.91390    1.000
    H333     H        0.98590    0.49620    0.91340    1.000
    C594     C        0.01650    0.52860    0.89910    1.000
    C595     C        0.02380    0.56130    0.89440    1.000
    C596     C        0.05130    0.56780    0.88030    1.000
    C597     C        0.07150    0.54310    0.87370    1.000
    H334     H        0.08970    0.54800    0.86450    1.000
    C598     C        0.06520    0.51180    0.88050    1.000
    C599     C        0.03720    0.50490    0.89170    1.000
    H335     H        0.03200    0.48340    0.89460    1.000
    C600     C        0.06110    0.59930    0.87320    1.000
    H336     H        0.07730    0.60090    0.86020    1.000
    N66      N        0.05040    0.62500    0.88250    1.000
    O162     O        0.06630    0.65220    0.87360    1.000
    C601     C        0.08880    0.70650    0.88520    1.000
    C602     C        0.08690    0.70940    0.84390    1.000
    H337     H        0.07200    0.69500    0.82240    1.000
    C603     C        0.10580    0.73210    0.83310    1.000
    H338     H        0.10420    0.73260    0.80480    1.000
    Br22     Br       0.15500    0.78409    0.84990    1.000
    C604     C        0.12660    0.75390    0.86280    1.000
    C605     C        0.12860    0.75290    0.90350    1.000
    H339     H        0.14210    0.76840    0.92420    1.000
    C606     C        0.11050    0.72920    0.91400    1.000
    H340     H        0.11310    0.72830    0.94270    1.000
    O163     O        0.96780    0.62880    0.91230    1.000
    C607     C        0.86590    0.72250    0.89870    1.000
    C608     C        0.85560    0.72420    0.93210    1.000
    H341     H        0.86360    0.70850    0.95390    1.000
    C609     C        0.83360    0.74860    0.93370    1.000
    H342     H        0.82760    0.75000    0.95730    1.000
    C610     C        0.82030    0.77120    0.90120    1.000
    C611     C        0.82970    0.76870    0.86710    1.000
    H343     H        0.82010    0.78340    0.84410    1.000
    C612     C        0.85260    0.74520    0.86630    1.000
    H344     H        0.85950    0.74450    0.84330    1.000
    C613     C        0.79700    0.79810    0.90330    1.000
    O164     O        0.78960    0.79850    0.93520    1.000
    O165     O        0.02810    0.61000    0.97900    1.000
    O166     O        0.78620    0.81720    0.87310    1.000
    C614     C        0.12170    0.62620    0.15560    1.000
    C615     C        0.10830    0.62310    0.18630    1.000
    H345     H        0.08350    0.61770    0.17720    1.000
    C616     C        0.13030    0.62770    0.22960    1.000
    H346     H        0.12030    0.62630    0.24970    1.000
    C617     C        0.16730    0.63460    0.24380    1.000
    C618     C        0.18090    0.63730    0.21360    1.000
    H347     H        0.20600    0.64160    0.22270    1.000
    C619     C        0.15830    0.63370    0.16990    1.000
    H348     H        0.16790    0.63650    0.14950    1.000
    C620     C        0.19170    0.63750    0.29130    1.000
    O167     O        0.00510    0.58430    0.90120    1.000
    O168     O        0.17730    0.63340    0.31690    1.000
    O169     O        0.22470    0.64250    0.30520    1.000
    C621     C        0.09040    0.48650    0.88040    1.000
    C622     C        0.12720    0.49330    0.89520    1.000
    H349     H        0.13550    0.51440    0.90200    1.000
    C623     C        0.15160    0.46930    0.89990    1.000
    H350     H        0.17670    0.47420    0.91080    1.000
    C624     C        0.14010    0.43820    0.88900    1.000
    C625     C        0.10280    0.43180    0.87180    1.000
    H351     H        0.09400    0.41100    0.86300    1.000
    C626     C        0.07860    0.45600    0.86770    1.000
    H352     H        0.05330    0.45160    0.85590    1.000
    C627     C        0.16800    0.41230    0.89760    1.000
    O170     O        0.15550    0.38570    0.88180    1.000
    O171     O        0.20090    0.41950    0.91910    1.000
    C628     C        0.56970    0.48550    0.34150    1.000
    C629     C        0.55520    0.51070    0.31310    1.000
    H353     H        0.52940    0.51230    0.29800    1.000
    C630     C        0.57600    0.53330    0.30590    1.000
    H354     H        0.56480    0.54940    0.28520    1.000
    Br23     Br       0.64245    0.56425    0.32100    1.000
    C631     C        0.61320    0.53230    0.32860    1.000
    C632     C        0.62890    0.50870    0.35770    1.000
    H355     H        0.65460    0.50800    0.37380    1.000
    C633     C        0.60760    0.48570    0.36380    1.000
    H356     H        0.61920    0.46940    0.38400    1.000
    B23      B        0.54550    0.45860    0.34860    1.000
    O172     O        0.52880    0.47680    0.37870    1.000
    N67      N        0.50220    0.46070    0.38290    1.000
    C634     C        0.48060    0.47900    0.39350    1.000
    H357     H        0.48650    0.50080    0.39800    1.000
    C635     C        0.44800    0.46820    0.39900    1.000
    C636     C        0.44110    0.43610    0.40460    1.000
    C637     C        0.41010    0.42970    0.41210    1.000
    C638     C        0.38790    0.45500    0.41240    1.000
    H358     H        0.36720    0.45030    0.41720    1.000
    C639     C        0.39420    0.48640    0.40600    1.000
    C640     C        0.42500    0.49210    0.39990    1.000
    H359     H        0.43070    0.51330    0.39610    1.000
    C641     C        0.39940    0.39830    0.41790    1.000
    H360     H        0.37920    0.39690    0.42460    1.000
    N68      N        0.41350    0.37230    0.41520    1.000
    O173     O        0.39480    0.34560    0.41990    1.000
    B24      B        0.40400    0.31460    0.40660    1.000
    O174     O        0.51480    0.45170    0.30790    1.000
    N69      N        0.49020    0.42890    0.30760    1.000
    C642     C        0.46560    0.42240    0.27030    1.000
    H361     H        0.46640    0.43360    0.24690    1.000
    C643     C        0.43630    0.39950    0.25990    1.000
    C644     C        0.43130    0.37980    0.29070    1.000
    C645     C        0.40090    0.35850    0.27560    1.000
    C646     C        0.37810    0.35700    0.23130    1.000
    H362     H        0.35860    0.34230    0.22130    1.000
    C647     C        0.38300    0.37610    0.20160    1.000
    C648     C        0.41180    0.39720    0.21620    1.000
    H363     H        0.41510    0.41040    0.19600    1.000
    C649     C        0.39170    0.33810    0.30320    1.000
    H364     H        0.37170    0.32430    0.28930    1.000
    N70      N        0.40770    0.33690    0.34390    1.000
    O175     O        0.39230    0.31570    0.36140    1.000
    O176     O        0.56840    0.43410    0.37350    1.000
    N71      N        0.55280    0.40880    0.38520    1.000
    C650     C        0.57410    0.38550    0.39990    1.000
    H365     H        0.59790    0.38780    0.40170    1.000
    C651     C        0.56600    0.35560    0.41420    1.000
    C652     C        0.53290    0.34890    0.41750    1.000
    C653     C        0.52870    0.31770    0.43030    1.000
    C654     C        0.55510    0.29450    0.43740    1.000
    H366     H        0.55120    0.27370    0.44500    1.000
    C655     C        0.58700    0.30100    0.43350    1.000
    C656     C        0.59180    0.33130    0.42230    1.000
    H367     H        0.61360    0.33610    0.41980    1.000
    C657     C        0.49670    0.30700    0.43500    1.000
    H368     H        0.49750    0.28670    0.44680    1.000
    N72      N        0.46760    0.32300    0.42430    1.000
    O177     O        0.44200    0.30660    0.43110    1.000
    C658     C        0.37980    0.28830    0.41500    1.000
    C659     C        0.34860    0.27490    0.38310    1.000
    H369     H        0.33990    0.28330    0.35480    1.000
    C660     C        0.39000    0.27520    0.45570    1.000
    H370     H        0.41100    0.28350    0.47900    1.000
    C661     C        0.32940    0.25010    0.39000    1.000
    H371     H        0.30880    0.24130    0.36680    1.000
    C662     C        0.37140    0.25090    0.46390    1.000
    H372     H        0.37960    0.24290    0.49220    1.000
    Br24     Br       0.31452    0.20600    0.44300    1.000
    C663     C        0.34090    0.23850    0.43090    1.000
    O178     O        0.46170    0.41340    0.40230    1.000
    C664     C        0.36910    0.51200    0.40440    1.000
    C665     C        0.36780    0.54070    0.38420    1.000
    H373     H        0.38430    0.54440    0.37200    1.000
    C666     C        0.34330    0.56400    0.38120    1.000
    H374     H        0.34310    0.58330    0.36710    1.000
    C667     C        0.31890    0.55960    0.39890    1.000
    C668     C        0.31960    0.53080    0.41860    1.000
    H375     H        0.30280    0.52710    0.43030    1.000
    C669     C        0.34420    0.50760    0.42150    1.000
    H376     H        0.34420    0.48820    0.43540    1.000
    C670     C        0.29280    0.58480    0.39800    1.000
    O179     O        0.29080    0.60960    0.37770    1.000
    O180     O        0.45440    0.38050    0.33110    1.000
    O181     O        0.27340    0.57830    0.41760    1.000
    C671     C        0.35760    0.37440    0.15520    1.000
    C672     C        0.34770    0.40090    0.12860    1.000
    H377     H        0.35710    0.42100    0.14050    1.000
    C673     C        0.32430    0.39860    0.08530    1.000
    H378     H        0.31750    0.41700    0.06790    1.000
    C674     C        0.31080    0.36900    0.06720    1.000
    C675     C        0.32030    0.34240    0.09390    1.000
    H379     H        0.31080    0.32240    0.08210    1.000
    C676     C        0.34320    0.34510    0.13720    1.000
    H380     H        0.34920    0.32680    0.15500    1.000
    C677     C        0.28690    0.36500    0.01960    1.000
    O182     O        0.50790    0.37030    0.40920    1.000
    O183     O        0.27360    0.38990    0.99730    1.000
    O184     O        0.27920    0.33740    0.00540    1.000
    C678     C        0.61370    0.27540    0.43900    1.000
    C679     C        0.60170    0.24510    0.42280    1.000
    H381     H        0.57660    0.24020    0.41100    1.000
    C680     C        0.62630    0.22240    0.42380    1.000
    H382     H        0.61770    0.20200    0.41280    1.000
    C681     C        0.66320    0.22870    0.44040    1.000
    C682     C        0.67560    0.25840    0.45800    1.000
    H383     H        0.70090    0.26310    0.47020    1.000
    C683     C        0.65120    0.28100    0.45770    1.000
    H384     H        0.66010    0.30090    0.47050    1.000
    C684     C        0.68990    0.20420    0.43970    1.000
    O185     O        0.72250    0.21110    0.45470    1.000
    O186     O        0.67700    0.17810    0.42350    1.000
    Zn49     Zn       0.99626    0.08836    0.87000    1.000
    Zn50     Zn       0.95110    0.13493    0.88843    1.000
    Zn51     Zn       0.52260    0.86874    0.42127    1.000
    Zn52     Zn       0.48021    0.91596    0.44439    1.000
    Zn53     Zn       0.75266    0.17885    0.44588    1.000
    Zn54     Zn       0.74299    0.10452    0.43647    1.000
    Zn55     Zn       0.68062    0.15259    0.37309    1.000
    Zn56     Zn       0.75572    0.14495    0.36607    1.000
    O187     O        0.73450    0.14430    0.40580    1.000
    C685     C        0.41380    0.99170    0.48150    1.000
    C686     C        0.38130    0.98450    0.48380    1.000
    H385     H        0.37220    0.96350    0.47760    1.000
    C687     C        0.36170    0.00660    0.49480    1.000
    H386     H        0.33940    0.00080    0.49540    1.000
    Br25     Br       0.34987    0.06838    0.52128    1.000
    C688     C        0.37480    0.03700    0.50490    1.000
    C689     C        0.40690    0.04450    0.50360    1.000
    H387     H        0.41620    0.06530    0.51070    1.000
    C690     C        0.42600    0.02270    0.49230    1.000
    H388     H        0.44820    0.02890    0.49170    1.000
    B25      B        0.43760    0.96740    0.46890    1.000
    O188     O        0.41010    0.93820    0.44530    1.000
    N73      N        0.42670    0.91330    0.43870    1.000
    C691     C        0.40370    0.88800    0.42500    1.000
    H389     H        0.37980    0.89090    0.42270    1.000
    C692     C        0.41250    0.85620    0.41320    1.000
    C693     C        0.44350    0.84960    0.40670    1.000
    C694     C        0.44800    0.81800    0.39580    1.000
    C695     C        0.42140    0.79520    0.39150    1.000
    H390     H        0.42410    0.77430    0.38350    1.000
    C696     C        0.39140    0.80250    0.39870    1.000
    C697     C        0.38690    0.83320    0.40930    1.000
    H391     H        0.36620    0.83860    0.41380    1.000
    C698     C        0.47880    0.80680    0.38960    1.000
    H392     H        0.47880    0.78520    0.38240    1.000
    N74      N        0.50570    0.82320    0.39290    1.000
    O189     O        0.53020    0.80610    0.38360    1.000
    B26      B        0.56690    0.81950    0.39780    1.000
    O190     O        0.46590    0.95560    0.50930    1.000
    N75      N        0.48930    0.93230    0.50710    1.000
    C699     C        0.51410    0.92410    0.54330    1.000
    H393     H        0.51300    0.93360    0.56760    1.000
    C700     C        0.54390    0.90240    0.55280    1.000
    C701     C        0.55000    0.88580    0.52020    1.000
    C702     C        0.58070    0.86500    0.53370    1.000
    C703     C        0.60410    0.86180    0.57790    1.000
    H394     H        0.62470    0.84830    0.58660    1.000
    C704     C        0.59790    0.87800    0.60890    1.000
    C705     C        0.56780    0.89790    0.59640    1.000
    H395     H        0.56330    0.90860    0.61780    1.000
    C706     C        0.58900    0.84590    0.50430    1.000
    H396     H        0.61060    0.83360    0.51650    1.000
    N76      N        0.57030    0.84380    0.46380    1.000
    O191     O        0.58560    0.82280    0.44440    1.000
    O192     O        0.44840    0.98100    0.43940    1.000
    N77      N        0.47190    0.96430    0.42750    1.000
    C707     C        0.49010    0.98170    0.41390    1.000
    H397     H        0.48590    0.00380    0.41340    1.000
    C708     C        0.51650    0.97140    0.39910    1.000
    C709     C        0.52380    0.93870    0.39440    1.000
    C710     C        0.55130    0.93220    0.38030    1.000
    C711     C        0.57150    0.95690    0.37370    1.000
    H398     H        0.58970    0.95200    0.36450    1.000
    C712     C        0.56520    0.98820    0.38050    1.000
    C713     C        0.53720    0.99510    0.39170    1.000
    H399     H        0.53200    0.01660    0.39460    1.000
    C714     C        0.56110    0.90070    0.37320    1.000
    H400     H        0.57730    0.89910    0.36020    1.000
    N78      N        0.55040    0.87500    0.38250    1.000
    O193     O        0.56630    0.84780    0.37360    1.000
    C715     C        0.58880    0.79350    0.38520    1.000
    C716     C        0.58690    0.79060    0.34390    1.000
    H401     H        0.57200    0.80500    0.32240    1.000
    C717     C        0.60580    0.76790    0.33310    1.000
    H402     H        0.60420    0.76740    0.30480    1.000
    Br26     Br       0.65500    0.71591    0.34990    1.000
    C718     C        0.62660    0.74610    0.36280    1.000
    C719     C        0.62860    0.74710    0.40350    1.000
    H403     H        0.64210    0.73160    0.42420    1.000
    C720     C        0.61050    0.77080    0.41400    1.000
    H404     H        0.61310    0.77170    0.44270    1.000
    O194     O        0.46780    0.87120    0.41230    1.000
    C721     C        0.36590    0.77750    0.39870    1.000
    C722     C        0.35560    0.77580    0.43210    1.000
    H405     H        0.36360    0.79150    0.45390    1.000
    C723     C        0.33360    0.75140    0.43370    1.000
    H406     H        0.32760    0.75000    0.45730    1.000
    C724     C        0.32030    0.72880    0.40120    1.000
    C725     C        0.32970    0.73130    0.36710    1.000
    H407     H        0.32010    0.71660    0.34410    1.000
    C726     C        0.35260    0.75480    0.36630    1.000
    H408     H        0.35950    0.75550    0.34330    1.000
    C727     C        0.29700    0.70190    0.40330    1.000
    O195     O        0.28960    0.70150    0.43520    1.000
    O196     O        0.52810    0.89000    0.47900    1.000
    O197     O        0.28620    0.68280    0.37310    1.000
    C728     C        0.62170    0.87380    0.65560    1.000
    C729     C        0.60830    0.87690    0.68630    1.000
    H409     H        0.58350    0.88230    0.67720    1.000
    C730     C        0.63030    0.87230    0.72960    1.000
    H410     H        0.62030    0.87370    0.74970    1.000
    C731     C        0.66730    0.86540    0.74380    1.000
    C732     C        0.68090    0.86270    0.71360    1.000
    H411     H        0.70600    0.85840    0.72270    1.000
    C733     C        0.65830    0.86630    0.66990    1.000
    H412     H        0.66790    0.86350    0.64950    1.000
    C734     C        0.69170    0.86250    0.79130    1.000
    O198     O        0.50510    0.91570    0.40120    1.000
    O199     O        0.67730    0.86660    0.81690    1.000
    O200     O        0.72470    0.85750    0.80520    1.000
    C735     C        0.59040    0.01350    0.38040    1.000
    C736     C        0.62720    0.00670    0.39520    1.000
    H413     H        0.63550    0.98560    0.40200    1.000
    C737     C        0.65160    0.03070    0.39990    1.000
    H414     H        0.67670    0.02580    0.41080    1.000
    C738     C        0.64010    0.06180    0.38900    1.000
    C739     C        0.60280    0.06820    0.37180    1.000
    H415     H        0.59400    0.08900    0.36300    1.000
    C740     C        0.57860    0.04400    0.36770    1.000
    H416     H        0.55330    0.04840    0.35590    1.000
    C741     C        0.66800    0.08770    0.39760    1.000
    O201     O        0.65550    0.11430    0.38180    1.000
    O202     O        0.70090    0.08050    0.41910    1.000
    C742     C        0.06970    0.01450    0.84150    1.000
    C743     C        0.05520    0.98930    0.81310    1.000
    H417     H        0.02940    0.98770    0.79800    1.000
    C744     C        0.07600    0.96670    0.80590    1.000
    H418     H        0.06480    0.95060    0.78520    1.000
    Br27     Br       0.14245    0.93575    0.82100    1.000
    C745     C        0.11320    0.96770    0.82860    1.000
    C746     C        0.12890    0.99130    0.85770    1.000
    H419     H        0.15460    0.99200    0.87380    1.000
    C747     C        0.10760    0.01430    0.86380    1.000
    H420     H        0.11920    0.03060    0.88400    1.000
    B27      B        0.04550    0.04140    0.84860    1.000
    O203     O        0.02880    0.02320    0.87870    1.000
    N79      N        0.00220    0.03930    0.88290    1.000
    C748     C        0.98060    0.02100    0.89350    1.000
    H421     H        0.98650    0.99920    0.89800    1.000
    C749     C        0.94800    0.03180    0.89900    1.000
    C750     C        0.94110    0.06390    0.90460    1.000
    C751     C        0.91010    0.07030    0.91210    1.000
    C752     C        0.88790    0.04500    0.91240    1.000
    H422     H        0.86720    0.04970    0.91720    1.000
    C753     C        0.89420    0.01360    0.90600    1.000
    C754     C        0.92500    0.00790    0.89990    1.000
    H423     H        0.93070    0.98670    0.89610    1.000
    C755     C        0.89940    0.10170    0.91790    1.000
    H424     H        0.87920    0.10310    0.92460    1.000
    N80      N        0.91350    0.12770    0.91520    1.000
    O204     O        0.89480    0.15440    0.91990    1.000
    B28      B        0.90400    0.18540    0.90660    1.000
    O205     O        0.01480    0.04830    0.80790    1.000
    N81      N        0.99020    0.07110    0.80760    1.000
    C756     C        0.96560    0.07760    0.77030    1.000
    H425     H        0.96640    0.06640    0.74690    1.000
    C757     C        0.93630    0.10050    0.75990    1.000
    C758     C        0.93130    0.12020    0.79070    1.000
    C759     C        0.90090    0.14150    0.77560    1.000
    C760     C        0.87810    0.14300    0.73130    1.000
    H426     H        0.85860    0.15770    0.72130    1.000
    C761     C        0.88300    0.12390    0.70160    1.000
    C762     C        0.91180    0.10280    0.71620    1.000
    H427     H        0.91510    0.08960    0.69600    1.000
    C763     C        0.89170    0.16190    0.80320    1.000
    H428     H        0.87170    0.17570    0.78930    1.000
    N82      N        0.90770    0.16310    0.84390    1.000
    O206     O        0.89230    0.18430    0.86140    1.000
    O207     O        0.06840    0.06590    0.87350    1.000
    N83      N        0.05280    0.09120    0.88520    1.000
    C764     C        0.07410    0.11450    0.89990    1.000
    H429     H        0.09790    0.11220    0.90170    1.000
    C765     C        0.06600    0.14440    0.91420    1.000
    C766     C        0.03290    0.15110    0.91750    1.000
    C767     C        0.02870    0.18230    0.93030    1.000
    C768     C        0.05510    0.20550    0.93740    1.000
    H430     H        0.05120    0.22630    0.94500    1.000
    C769     C        0.08700    0.19900    0.93350    1.000
    C770     C        0.09180    0.16870    0.92230    1.000
    H431     H        0.11360    0.16390    0.91980    1.000
    C771     C        0.99670    0.19300    0.93500    1.000
    H432     H        0.99750    0.21330    0.94680    1.000
    N84      N        0.96760    0.17700    0.92430    1.000
    O208     O        0.94200    0.19340    0.93110    1.000
    C772     C        0.87980    0.21170    0.91500    1.000
    C773     C        0.84860    0.22510    0.88310    1.000
    H433     H        0.83990    0.21670    0.85480    1.000
    C774     C        0.89000    0.22480    0.95570    1.000
    H434     H        0.91100    0.21650    0.97900    1.000
    C775     C        0.82940    0.24990    0.89000    1.000
    H435     H        0.80880    0.25870    0.86680    1.000
    C776     C        0.87140    0.24910    0.96390    1.000
    H436     H        0.87960    0.25710    0.99220    1.000
    Br28     Br       0.81452    0.29400    0.94300    1.000
    C777     C        0.84090    0.26150    0.93090    1.000
    O209     O        0.96170    0.08660    0.90230    1.000
    C778     C        0.86910    0.98800    0.90440    1.000
    C779     C        0.86780    0.95930    0.88420    1.000
    H437     H        0.88430    0.95560    0.87200    1.000
    C780     C        0.84330    0.93600    0.88120    1.000
    H438     H        0.84310    0.91670    0.86710    1.000
    C781     C        0.81890    0.94040    0.89890    1.000
    C782     C        0.81960    0.96920    0.91860    1.000
    H439     H        0.80280    0.97290    0.93030    1.000
    C783     C        0.84420    0.99240    0.92150    1.000
    H440     H        0.84420    0.01180    0.93540    1.000
    C784     C        0.79280    0.91520    0.89800    1.000
    O210     O        0.79080    0.89040    0.87770    1.000
    O211     O        0.95440    0.11950    0.83110    1.000
    O212     O        0.77340    0.92170    0.91760    1.000
    C785     C        0.85760    0.12560    0.65520    1.000
    C786     C        0.84770    0.09910    0.62860    1.000
    H441     H        0.85710    0.07900    0.64050    1.000
    C787     C        0.82430    0.10140    0.58530    1.000
    H442     H        0.81750    0.08300    0.56790    1.000
    C788     C        0.81080    0.13100    0.56720    1.000
    C789     C        0.82030    0.15760    0.59390    1.000
    H443     H        0.81080    0.17760    0.58210    1.000
    C790     C        0.84320    0.15490    0.63720    1.000
    H444     H        0.84920    0.17320    0.65500    1.000
    C791     C        0.78690    0.13500    0.51960    1.000
    O213     O        0.00790    0.12970    0.90920    1.000
    O214     O        0.77360    0.11010    0.49730    1.000
    O215     O        0.77920    0.16260    0.50540    1.000
    C792     C        0.11370    0.22460    0.93900    1.000
    C793     C        0.10170    0.25490    0.92280    1.000
    H445     H        0.07660    0.25980    0.91100    1.000
    C794     C        0.12630    0.27760    0.92380    1.000
    H446     H        0.11770    0.29800    0.91280    1.000
    C795     C        0.16320    0.27130    0.94040    1.000
    C796     C        0.17560    0.24160    0.95800    1.000
    H447     H        0.20090    0.23690    0.97020    1.000
    C797     C        0.15120    0.21900    0.95770    1.000
    H448     H        0.16010    0.19910    0.97050    1.000
    C798     C        0.18990    0.29580    0.93970    1.000
    O216     O        0.22250    0.28890    0.95470    1.000
    O217     O        0.17700    0.32190    0.92350    1.000
    Zn57     Zn       0.49626    0.58836    0.87000    1.000
    Zn58     Zn       0.45110    0.63493    0.88843    1.000
    Zn59     Zn       0.02260    0.36874    0.42127    1.000
    Zn60     Zn       0.98021    0.41596    0.44439    1.000
    Zn61     Zn       0.25266    0.67885    0.44588    1.000
    Zn62     Zn       0.24299    0.60452    0.43647    1.000
    Zn63     Zn       0.18062    0.65259    0.37309    1.000
    Zn64     Zn       0.25572    0.64495    0.36607    1.000
    O218     O        0.23450    0.64430    0.40580    1.000
    C799     C        0.91380    0.49170    0.48150    1.000
    C800     C        0.88130    0.48450    0.48380    1.000
    H449     H        0.87220    0.46350    0.47760    1.000
    C801     C        0.86170    0.50660    0.49480    1.000
    H450     H        0.83940    0.50080    0.49540    1.000
    Br29     Br       0.84987    0.56838    0.52128    1.000
    C802     C        0.87480    0.53700    0.50490    1.000
    C803     C        0.90690    0.54450    0.50360    1.000
    H451     H        0.91620    0.56530    0.51070    1.000
    C804     C        0.92600    0.52270    0.49230    1.000
    H452     H        0.94820    0.52890    0.49170    1.000
    B29      B        0.93760    0.46740    0.46890    1.000
    O219     O        0.91010    0.43820    0.44530    1.000
    N85      N        0.92670    0.41330    0.43870    1.000
    C805     C        0.90370    0.38800    0.42500    1.000
    H453     H        0.87980    0.39090    0.42270    1.000
    C806     C        0.91250    0.35620    0.41320    1.000
    C807     C        0.94350    0.34960    0.40670    1.000
    C808     C        0.94800    0.31800    0.39580    1.000
    C809     C        0.92140    0.29520    0.39150    1.000
    H454     H        0.92410    0.27430    0.38350    1.000
    C810     C        0.89140    0.30250    0.39870    1.000
    C811     C        0.88690    0.33320    0.40930    1.000
    H455     H        0.86620    0.33860    0.41380    1.000
    C812     C        0.97880    0.30680    0.38960    1.000
    H456     H        0.97880    0.28520    0.38240    1.000
    N86      N        0.00570    0.32320    0.39290    1.000
    O220     O        0.03020    0.30610    0.38360    1.000
    B30      B        0.06690    0.31950    0.39780    1.000
    O221     O        0.96590    0.45560    0.50930    1.000
    N87      N        0.98930    0.43230    0.50710    1.000
    C813     C        0.01410    0.42410    0.54330    1.000
    H457     H        0.01300    0.43360    0.56760    1.000
    C814     C        0.04390    0.40240    0.55280    1.000
    C815     C        0.05000    0.38580    0.52020    1.000
    C816     C        0.08070    0.36500    0.53370    1.000
    C817     C        0.10410    0.36180    0.57790    1.000
    H458     H        0.12470    0.34830    0.58660    1.000
    C818     C        0.09790    0.37800    0.60890    1.000
    C819     C        0.06780    0.39790    0.59640    1.000
    H459     H        0.06330    0.40860    0.61780    1.000
    C820     C        0.08900    0.34590    0.50430    1.000
    H460     H        0.11060    0.33360    0.51650    1.000
    N88      N        0.07030    0.34380    0.46380    1.000
    O222     O        0.08560    0.32280    0.44440    1.000
    O223     O        0.94840    0.48100    0.43940    1.000
    N89      N        0.97190    0.46430    0.42750    1.000
    C821     C        0.99010    0.48170    0.41390    1.000
    H461     H        0.98590    0.50380    0.41340    1.000
    C822     C        0.01650    0.47140    0.39910    1.000
    C823     C        0.02380    0.43870    0.39440    1.000
    C824     C        0.05130    0.43220    0.38030    1.000
    C825     C        0.07150    0.45690    0.37370    1.000
    H462     H        0.08970    0.45200    0.36450    1.000
    C826     C        0.06520    0.48820    0.38050    1.000
    C827     C        0.03720    0.49510    0.39170    1.000
    H463     H        0.03200    0.51660    0.39460    1.000
    C828     C        0.06110    0.40070    0.37320    1.000
    H464     H        0.07730    0.39910    0.36020    1.000
    N90      N        0.05040    0.37500    0.38250    1.000
    O224     O        0.06630    0.34780    0.37360    1.000
    C829     C        0.08880    0.29350    0.38520    1.000
    C830     C        0.08690    0.29060    0.34390    1.000
    H465     H        0.07200    0.30500    0.32240    1.000
    C831     C        0.10580    0.26790    0.33310    1.000
    H466     H        0.10420    0.26740    0.30480    1.000
    Br30     Br       0.15500    0.21591    0.34990    1.000
    C832     C        0.12660    0.24610    0.36280    1.000
    C833     C        0.12860    0.24710    0.40350    1.000
    H467     H        0.14210    0.23160    0.42420    1.000
    C834     C        0.11050    0.27080    0.41400    1.000
    H468     H        0.11310    0.27170    0.44270    1.000
    O225     O        0.96780    0.37120    0.41230    1.000
    C835     C        0.86590    0.27750    0.39870    1.000
    C836     C        0.85560    0.27580    0.43210    1.000
    H469     H        0.86360    0.29150    0.45390    1.000
    C837     C        0.83360    0.25140    0.43370    1.000
    H470     H        0.82760    0.25000    0.45730    1.000
    C838     C        0.82030    0.22880    0.40120    1.000
    C839     C        0.82970    0.23130    0.36710    1.000
    H471     H        0.82010    0.21660    0.34410    1.000
    C840     C        0.85260    0.25480    0.36630    1.000
    H472     H        0.85950    0.25550    0.34330    1.000
    C841     C        0.79700    0.20190    0.40330    1.000
    O226     O        0.78960    0.20150    0.43520    1.000
    O227     O        0.02810    0.39000    0.47900    1.000
    O228     O        0.78620    0.18280    0.37310    1.000
    C842     C        0.12170    0.37380    0.65560    1.000
    C843     C        0.10830    0.37690    0.68630    1.000
    H473     H        0.08350    0.38230    0.67720    1.000
    C844     C        0.13030    0.37230    0.72960    1.000
    H474     H        0.12030    0.37370    0.74970    1.000
    C845     C        0.16730    0.36540    0.74380    1.000
    C846     C        0.18090    0.36270    0.71360    1.000
    H475     H        0.20600    0.35840    0.72270    1.000
    C847     C        0.15830    0.36630    0.66990    1.000
    H476     H        0.16790    0.36350    0.64950    1.000
    C848     C        0.19170    0.36250    0.79130    1.000
    O229     O        0.00510    0.41570    0.40120    1.000
    O230     O        0.17730    0.36660    0.81690    1.000
    O231     O        0.22470    0.35750    0.80520    1.000
    C849     C        0.09040    0.51350    0.38040    1.000
    C850     C        0.12720    0.50670    0.39520    1.000
    H477     H        0.13550    0.48560    0.40200    1.000
    C851     C        0.15160    0.53070    0.39990    1.000
    H478     H        0.17670    0.52580    0.41080    1.000
    C852     C        0.14010    0.56180    0.38900    1.000
    C853     C        0.10280    0.56820    0.37180    1.000
    H479     H        0.09400    0.58900    0.36300    1.000
    C854     C        0.07860    0.54400    0.36770    1.000
    H480     H        0.05330    0.54840    0.35590    1.000
    C855     C        0.16800    0.58770    0.39760    1.000
    O232     O        0.15550    0.61430    0.38180    1.000
    O233     O        0.20090    0.58050    0.41910    1.000
    C856     C        0.56970    0.51450    0.84150    1.000
    C857     C        0.55520    0.48930    0.81310    1.000
    H481     H        0.52940    0.48770    0.79800    1.000
    C858     C        0.57600    0.46670    0.80590    1.000
    H482     H        0.56480    0.45060    0.78520    1.000
    Br31     Br       0.64245    0.43575    0.82100    1.000
    C859     C        0.61320    0.46770    0.82860    1.000
    C860     C        0.62890    0.49130    0.85770    1.000
    H483     H        0.65460    0.49200    0.87380    1.000
    C861     C        0.60760    0.51430    0.86380    1.000
    H484     H        0.61920    0.53060    0.88400    1.000
    B31      B        0.54550    0.54140    0.84860    1.000
    O234     O        0.52880    0.52320    0.87870    1.000
    N91      N        0.50220    0.53930    0.88290    1.000
    C862     C        0.48060    0.52100    0.89350    1.000
    H485     H        0.48650    0.49920    0.89800    1.000
    C863     C        0.44800    0.53180    0.89900    1.000
    C864     C        0.44110    0.56390    0.90460    1.000
    C865     C        0.41010    0.57030    0.91210    1.000
    C866     C        0.38790    0.54500    0.91240    1.000
    H486     H        0.36720    0.54970    0.91720    1.000
    C867     C        0.39420    0.51360    0.90600    1.000
    C868     C        0.42500    0.50790    0.89990    1.000
    H487     H        0.43070    0.48670    0.89610    1.000
    C869     C        0.39940    0.60170    0.91790    1.000
    H488     H        0.37920    0.60310    0.92460    1.000
    N92      N        0.41350    0.62770    0.91520    1.000
    O235     O        0.39480    0.65440    0.91990    1.000
    B32      B        0.40400    0.68540    0.90660    1.000
    O236     O        0.51480    0.54830    0.80790    1.000
    N93      N        0.49020    0.57110    0.80760    1.000
    C870     C        0.46560    0.57760    0.77030    1.000
    H489     H        0.46640    0.56640    0.74690    1.000
    C871     C        0.43630    0.60050    0.75990    1.000
    C872     C        0.43130    0.62020    0.79070    1.000
    C873     C        0.40090    0.64150    0.77560    1.000
    C874     C        0.37810    0.64300    0.73130    1.000
    H490     H        0.35860    0.65770    0.72130    1.000
    C875     C        0.38300    0.62390    0.70160    1.000
    C876     C        0.41180    0.60280    0.71620    1.000
    H491     H        0.41510    0.58960    0.69600    1.000
    C877     C        0.39170    0.66190    0.80320    1.000
    H492     H        0.37170    0.67570    0.78930    1.000
    N94      N        0.40770    0.66310    0.84390    1.000
    O237     O        0.39230    0.68430    0.86140    1.000
    O238     O        0.56840    0.56590    0.87350    1.000
    N95      N        0.55280    0.59120    0.88520    1.000
    C878     C        0.57410    0.61450    0.89990    1.000
    H493     H        0.59790    0.61220    0.90170    1.000
    C879     C        0.56600    0.64440    0.91420    1.000
    C880     C        0.53290    0.65110    0.91750    1.000
    C881     C        0.52870    0.68230    0.93030    1.000
    C882     C        0.55510    0.70550    0.93740    1.000
    H494     H        0.55120    0.72630    0.94500    1.000
    C883     C        0.58700    0.69900    0.93350    1.000
    C884     C        0.59180    0.66870    0.92230    1.000
    H495     H        0.61360    0.66390    0.91980    1.000
    C885     C        0.49670    0.69300    0.93500    1.000
    H496     H        0.49750    0.71330    0.94680    1.000
    N96      N        0.46760    0.67700    0.92430    1.000
    O239     O        0.44200    0.69340    0.93110    1.000
    C886     C        0.37980    0.71170    0.91500    1.000
    C887     C        0.34860    0.72510    0.88310    1.000
    H497     H        0.33990    0.71670    0.85480    1.000
    C888     C        0.39000    0.72480    0.95570    1.000
    H498     H        0.41100    0.71650    0.97900    1.000
    C889     C        0.32940    0.74990    0.89000    1.000
    H499     H        0.30880    0.75870    0.86680    1.000
    C890     C        0.37140    0.74910    0.96390    1.000
    H500     H        0.37960    0.75710    0.99220    1.000
    Br32     Br       0.31452    0.79400    0.94300    1.000
    C891     C        0.34090    0.76150    0.93090    1.000
    O240     O        0.46170    0.58660    0.90230    1.000
    C892     C        0.36910    0.48800    0.90440    1.000
    C893     C        0.36780    0.45930    0.88420    1.000
    H501     H        0.38430    0.45560    0.87200    1.000
    C894     C        0.34330    0.43600    0.88120    1.000
    H502     H        0.34310    0.41670    0.86710    1.000
    C895     C        0.31890    0.44040    0.89890    1.000
    C896     C        0.31960    0.46920    0.91860    1.000
    H503     H        0.30280    0.47290    0.93030    1.000
    C897     C        0.34420    0.49240    0.92150    1.000
    H504     H        0.34420    0.51180    0.93540    1.000
    C898     C        0.29280    0.41520    0.89800    1.000
    O241     O        0.29080    0.39040    0.87770    1.000
    O242     O        0.45440    0.61950    0.83110    1.000
    O243     O        0.27340    0.42170    0.91760    1.000
    C899     C        0.35760    0.62560    0.65520    1.000
    C900     C        0.34770    0.59910    0.62860    1.000
    H505     H        0.35710    0.57900    0.64050    1.000
    C901     C        0.32430    0.60140    0.58530    1.000
    H506     H        0.31750    0.58300    0.56790    1.000
    C902     C        0.31080    0.63100    0.56720    1.000
    C903     C        0.32030    0.65760    0.59390    1.000
    H507     H        0.31080    0.67760    0.58210    1.000
    C904     C        0.34320    0.65490    0.63720    1.000
    H508     H        0.34920    0.67320    0.65500    1.000
    C905     C        0.28690    0.63500    0.51960    1.000
    O244     O        0.50790    0.62970    0.90920    1.000
    O245     O        0.27360    0.61010    0.49730    1.000
    O246     O        0.27920    0.66260    0.50540    1.000
    C906     C        0.61370    0.72460    0.93900    1.000
    C907     C        0.60170    0.75490    0.92280    1.000
    H509     H        0.57660    0.75980    0.91100    1.000
    C908     C        0.62630    0.77760    0.92380    1.000
    H510     H        0.61770    0.79800    0.91280    1.000
    C909     C        0.66320    0.77130    0.94040    1.000
    C910     C        0.67560    0.74160    0.95800    1.000
    H511     H        0.70090    0.73690    0.97020    1.000
    C911     C        0.65120    0.71900    0.95770    1.000
    H512     H        0.66010    0.69910    0.97050    1.000
    C912     C        0.68990    0.79580    0.93970    1.000
    O247     O        0.72250    0.78890    0.95470    1.000
    O248     O        0.67700    0.82190    0.92350    1.000
