data_functionalizedCrystal
_audit_creation_method	'EQeq! by Chris Wilmer'
_symmetry_space_group_name_H-M	'P1'
_symmetry_Int_Tables_number	1
_symmetry_cell_setting	triclinic
loop_
_symmetry_equiv_pos_as_xyz
  x,y,z
_cell_length_a	45.646
_cell_length_b	45.646
_cell_length_c	10.915
_cell_angle_alpha	90
_cell_angle_beta	90
_cell_angle_gamma	120
loop_
_atom_site_label
_atom_site_type_symbol
_atom_site_fract_x
_atom_site_fract_y
_atom_site_fract_z
_atom_site_charge
Mof_Cu	Cu	0.15462	0.30927	0.41905	0.915
Mof_O 	O 	0.11423	0.28898	0.316	-0.378
Mof_C 	C 	0.11196	0.30266	0.219	0.325
Mof_C 	C 	0.0786	0.28483	0.1531	0.018
Mof_C 	C 	0.98339	0.23549	0.9684	-0.014
Mof_C 	C 	0.04364	0.2816	0.9867	0.126
Mof_C 	C 	0.01668	0.25182	0.0315	-0.011
Mof_C 	C 	0.07458	0.29801	0.0455	-0.096
Mof_H 	H 	0.0924	0.3177	0.0127	0.122
Mof_C 	C 	0.05271	0.25486	0.1994	-0.093
Mof_H 	H 	0.0559	0.2452	0.2695	0.118
Mof_C 	C 	0.02178	0.23945	0.1389	0.122
Mof_O 	O 	0.06725	0.30686	0.8093	-0.079
Mof_O 	O 	0.01519	0.29171	0.8352	-0.072
Mof_N 	N 	0.04221	0.29511	0.873	-0.012
Mof_O 	O 	0.13487	0.32952	0.1708	-0.38
Mof_C 	C 	0.92541	0.22344	0.9551	-0.1
Mof_H 	H 	0.9076	0.2251	0.9884	0.123
Mof_C 	C 	0.92157	0.20638	0.8457	0.02
Mof_C 	C 	0.95635	0.23782	0.013	0.128
Mof_C 	C 	0.94739	0.20242	0.8009	-0.097
Mof_H 	H 	0.9442	0.1895	0.731	0.119
Mof_C 	C 	0.97822	0.2178	0.8605	0.125
Mof_C 	C 	0.88809	0.19075	0.7808	0.32
Mof_O 	O 	0.88581	0.17484	0.6834	-0.378
Mof_O 	O 	0.86518	0.19479	0.829	-0.378
Mof_N 	N 	0.00118	0.20772	0.8187	-0.014
Mof_O 	O 	0.0277	0.21595	0.8727	-0.074
Mof_O 	O 	0.9965	0.1947	0.7175	-0.076
Mof_N 	N 	0.95792	0.25301	0.1269	-0.013
Mof_O 	O 	0.93259	0.23937	0.1916	-0.079
Mof_N 	N 	0.99888	0.20665	0.1829	-0.014
Mof_O 	O 	0.98484	0.27658	0.1649	-0.072
Mof_O 	O 	0.97241	0.18817	0.1264	-0.074
Mof_O 	O 	0.00345	0.1977	0.281	-0.076
Mof_Cu	Cu	0.82129	0.6426	0.75238	0.914
Mof_O 	O 	0.7809	0.62231	0.64933	-0.379
Mof_C 	C 	0.77863	0.63599	0.55233	0.324
Mof_C 	C 	0.74527	0.61816	0.48643	0.017
Mof_C 	C 	0.65006	0.56882	0.30173	-0.013
Mof_C 	C 	0.71031	0.61493	0.32003	0.125
Mof_C 	C 	0.68335	0.58515	0.36483	-0.011
Mof_C 	C 	0.74125	0.63134	0.37883	-0.095
Mof_H 	H 	0.75907	0.65103	0.34603	0.122
Mof_C 	C 	0.71938	0.58819	0.53273	-0.092
Mof_H 	H 	0.72257	0.57853	0.60283	0.118
Mof_C 	C 	0.68845	0.57278	0.47223	0.122
Mof_O 	O 	0.73392	0.64019	0.14263	-0.079
Mof_O 	O 	0.68186	0.62504	0.16853	-0.072
Mof_N 	N 	0.70888	0.62844	0.20633	-0.012
Mof_O 	O 	0.80154	0.66285	0.50413	-0.379
Mof_C 	C 	0.59208	0.55677	0.28843	-0.099
Mof_H 	H 	0.57427	0.55843	0.32173	0.123
Mof_C 	C 	0.58824	0.53971	0.17903	0.02
Mof_C 	C 	0.62302	0.57115	0.34633	0.127
Mof_C 	C 	0.61406	0.53575	0.13423	-0.097
Mof_H 	H 	0.61087	0.52283	0.06433	0.12
Mof_C 	C 	0.64489	0.55113	0.19383	0.125
Mof_C 	C 	0.55476	0.52408	0.11413	0.32
Mof_O 	O 	0.55248	0.50817	0.01673	-0.377
Mof_O 	O 	0.53185	0.52812	0.16233	-0.378
Mof_N 	N 	0.66785	0.54105	0.15203	-0.015
Mof_O 	O 	0.69437	0.54928	0.20603	-0.074
Mof_O 	O 	0.66317	0.52803	0.05083	-0.075
Mof_N 	N 	0.62459	0.58634	0.46023	-0.013
Mof_O 	O 	0.59926	0.5727	0.52493	-0.079
Mof_N 	N 	0.66555	0.53998	0.51623	-0.014
Mof_O 	O 	0.65151	0.60991	0.49823	-0.072
Mof_O 	O 	0.63908	0.5215	0.45973	-0.074
Mof_O 	O 	0.67012	0.53103	0.61433	-0.076
Mof_Cu	Cu	0.48796	0.97593	0.08572	0.914
Mof_O 	O 	0.44756	0.95565	0.98267	-0.379
Mof_C 	C 	0.44529	0.96933	0.88567	0.324
Mof_C 	C 	0.41193	0.9515	0.81977	0.017
Mof_C 	C 	0.31672	0.90216	0.63507	-0.013
Mof_C 	C 	0.37697	0.94827	0.65337	0.125
Mof_C 	C 	0.35001	0.91849	0.69817	-0.011
Mof_C 	C 	0.40791	0.96468	0.71217	-0.095
Mof_H 	H 	0.42573	0.98437	0.67937	0.122
Mof_C 	C 	0.38604	0.92153	0.86607	-0.093
Mof_H 	H 	0.38923	0.91187	0.93617	0.118
Mof_C 	C 	0.35511	0.90612	0.80557	0.122
Mof_O 	O 	0.40058	0.97353	0.47597	-0.079
Mof_O 	O 	0.34852	0.95838	0.50187	-0.072
Mof_N 	N 	0.37554	0.96178	0.53967	-0.012
Mof_O 	O 	0.4682	0.99619	0.83747	-0.379
Mof_C 	C 	0.25874	0.89011	0.62177	-0.099
Mof_H 	H 	0.24093	0.89177	0.65507	0.123
Mof_C 	C 	0.2549	0.87305	0.51237	0.02
Mof_C 	C 	0.28968	0.90449	0.67967	0.127
Mof_C 	C 	0.28072	0.86909	0.46757	-0.096
Mof_H 	H 	0.27753	0.85617	0.39767	0.119
Mof_C 	C 	0.31155	0.88447	0.52717	0.124
Mof_C 	C 	0.22142	0.85742	0.44747	0.321
Mof_O 	O 	0.21914	0.84151	0.35007	-0.378
Mof_O 	O 	0.19851	0.86146	0.49567	-0.378
Mof_N 	N 	0.33451	0.87439	0.48537	-0.014
Mof_O 	O 	0.36103	0.88262	0.53937	-0.074
Mof_O 	O 	0.32983	0.86137	0.38417	-0.076
Mof_N 	N 	0.29125	0.91968	0.79357	-0.013
Mof_O 	O 	0.26592	0.90604	0.85827	-0.079
Mof_N 	N 	0.33221	0.87332	0.84957	-0.014
Mof_O 	O 	0.31817	0.94325	0.83157	-0.072
Mof_O 	O 	0.30574	0.85484	0.79307	-0.074
Mof_O 	O 	0.33678	0.86437	0.94767	-0.075
Mof_Cu	Cu	0.69073	0.84536	0.41905	0.914
Mof_O 	O 	0.71102	0.82525	0.316	-0.379
Mof_C 	C 	0.69734	0.8093	0.219	0.324
Mof_C 	C 	0.71517	0.79377	0.1531	0.017
Mof_C 	C 	0.76451	0.7479	0.9684	-0.013
Mof_C 	C 	0.7184	0.76204	0.9867	0.126
Mof_C 	C 	0.74818	0.76486	0.0315	-0.011
Mof_C 	C 	0.70199	0.77657	0.0455	-0.096
Mof_H 	H 	0.6823	0.7747	0.0127	0.122
Mof_C 	C 	0.74514	0.79785	0.1994	-0.093
Mof_H 	H 	0.7548	0.8107	0.2695	0.118
Mof_C 	C 	0.76055	0.78233	0.1389	0.122
Mof_O 	O 	0.69314	0.76039	0.8093	-0.079
Mof_O 	O 	0.70829	0.72348	0.8352	-0.072
Mof_N 	N 	0.70489	0.7471	0.873	-0.012
Mof_O 	O 	0.67048	0.80535	0.1708	-0.38
Mof_C 	C 	0.77656	0.70197	0.9551	-0.1
Mof_H 	H 	0.7749	0.6825	0.9884	0.123
Mof_C 	C 	0.79362	0.71519	0.8457	0.02
Mof_C 	C 	0.76218	0.71853	0.013	0.128
Mof_C 	C 	0.79758	0.74497	0.8009	-0.097
Mof_H 	H 	0.8105	0.7547	0.731	0.119
Mof_C 	C 	0.7822	0.76042	0.8605	0.125
Mof_C 	C 	0.80925	0.69734	0.7808	0.32
Mof_O 	O 	0.82516	0.71097	0.6834	-0.378
Mof_O 	O 	0.80521	0.67039	0.829	-0.378
Mof_N 	N 	0.79228	0.79346	0.8187	-0.015
Mof_O 	O 	0.78405	0.81175	0.8727	-0.074
Mof_O 	O 	0.8053	0.8018	0.7175	-0.076
Mof_N 	N 	0.74699	0.70491	0.1269	-0.013
Mof_O 	O 	0.76063	0.69322	0.1916	-0.079
Mof_N 	N 	0.79335	0.79223	0.1829	-0.014
Mof_O 	O 	0.72342	0.70826	0.1649	-0.072
Mof_O 	O 	0.81183	0.78424	0.1264	-0.074
Mof_O 	O 	0.8023	0.80575	0.281	-0.076
Mof_Cu	Cu	0.3574	0.17869	0.75238	0.914
Mof_O 	O 	0.37769	0.15858	0.64933	-0.379
Mof_C 	C 	0.36401	0.14263	0.55233	0.324
Mof_C 	C 	0.38184	0.1271	0.48643	0.017
Mof_C 	C 	0.43118	0.08123	0.30173	-0.013
Mof_C 	C 	0.38507	0.09537	0.32003	0.125
Mof_C 	C 	0.41485	0.09819	0.36483	-0.011
Mof_C 	C 	0.36866	0.1099	0.37883	-0.095
Mof_H 	H 	0.34897	0.10803	0.34603	0.122
Mof_C 	C 	0.41181	0.13118	0.53273	-0.092
Mof_H 	H 	0.42147	0.14403	0.60283	0.118
Mof_C 	C 	0.42722	0.11566	0.47223	0.122
Mof_O 	O 	0.35981	0.09372	0.14263	-0.079
Mof_O 	O 	0.37496	0.05681	0.16853	-0.072
Mof_N 	N 	0.37156	0.08043	0.20633	-0.012
Mof_O 	O 	0.33715	0.13868	0.50413	-0.379
Mof_C 	C 	0.44323	0.0353	0.28843	-0.099
Mof_H 	H 	0.44157	0.01583	0.32173	0.123
Mof_C 	C 	0.46029	0.04852	0.17903	0.02
Mof_C 	C 	0.42885	0.05186	0.34633	0.127
Mof_C 	C 	0.46425	0.0783	0.13423	-0.097
Mof_H 	H 	0.47717	0.08803	0.06433	0.12
Mof_C 	C 	0.44887	0.09375	0.19383	0.125
Mof_C 	C 	0.47592	0.03067	0.11413	0.32
Mof_O 	O 	0.49183	0.0443	0.01673	-0.377
Mof_O 	O 	0.47188	0.00372	0.16233	-0.378
Mof_N 	N 	0.45895	0.12679	0.15203	-0.015
Mof_O 	O 	0.45072	0.14508	0.20603	-0.074
Mof_O 	O 	0.47197	0.13513	0.05083	-0.075
Mof_N 	N 	0.41366	0.03824	0.46023	-0.013
Mof_O 	O 	0.4273	0.02655	0.52493	-0.079
Mof_N 	N 	0.46002	0.12556	0.51623	-0.014
Mof_O 	O 	0.39009	0.04159	0.49823	-0.072
Mof_O 	O 	0.4785	0.11757	0.45973	-0.074
Mof_O 	O 	0.46897	0.13908	0.61433	-0.076
Mof_Cu	Cu	0.02407	0.51202	0.08572	0.914
Mof_O 	O 	0.04435	0.49192	0.98267	-0.379
Mof_C 	C 	0.03067	0.47597	0.88567	0.324
Mof_C 	C 	0.0485	0.46044	0.81977	0.017
Mof_C 	C 	0.09784	0.41457	0.63507	-0.013
Mof_C 	C 	0.05173	0.42871	0.65337	0.125
Mof_C 	C 	0.08151	0.43153	0.69817	-0.011
Mof_C 	C 	0.03532	0.44324	0.71217	-0.095
Mof_H 	H 	0.01563	0.44137	0.67937	0.122
Mof_C 	C 	0.07847	0.46452	0.86607	-0.093
Mof_H 	H 	0.08813	0.47737	0.93617	0.118
Mof_C 	C 	0.09388	0.449	0.80557	0.122
Mof_O 	O 	0.02647	0.42706	0.47597	-0.079
Mof_O 	O 	0.04162	0.39015	0.50187	-0.072
Mof_N 	N 	0.03822	0.41377	0.53967	-0.012
Mof_O 	O 	0.00381	0.47202	0.83747	-0.379
Mof_C 	C 	0.10989	0.36864	0.62177	-0.099
Mof_H 	H 	0.10823	0.34917	0.65507	0.123
Mof_C 	C 	0.12695	0.38186	0.51237	0.02
Mof_C 	C 	0.09551	0.3852	0.67967	0.127
Mof_C 	C 	0.13091	0.41164	0.46757	-0.096
Mof_H 	H 	0.14383	0.42137	0.39767	0.119
Mof_C 	C 	0.11553	0.42709	0.52717	0.124
Mof_C 	C 	0.14258	0.36401	0.44747	0.321
Mof_O 	O 	0.15849	0.37764	0.35007	-0.378
Mof_O 	O 	0.13854	0.33706	0.49567	-0.378
Mof_N 	N 	0.12561	0.46013	0.48537	-0.014
Mof_O 	O 	0.11738	0.47842	0.53937	-0.074
Mof_O 	O 	0.13863	0.46847	0.38417	-0.076
Mof_N 	N 	0.08032	0.37158	0.79357	-0.013
Mof_O 	O 	0.09396	0.35989	0.85827	-0.079
Mof_N 	N 	0.12668	0.4589	0.84957	-0.014
Mof_O 	O 	0.05675	0.37493	0.83157	-0.072
Mof_O 	O 	0.14516	0.45091	0.79307	-0.074
Mof_O 	O 	0.13563	0.47242	0.94767	-0.075
Mof_Cu	Cu	0.15464	0.84538	0.41905	0.914
Mof_O 	O 	0.17475	0.88577	0.316	-0.379
Mof_C 	C 	0.1907	0.88804	0.219	0.324
Mof_C 	C 	0.20623	0.9214	0.1531	0.017
Mof_C 	C 	0.2521	0.01661	0.9684	-0.013
Mof_C 	C 	0.23796	0.95636	0.9867	0.126
Mof_C 	C 	0.23514	0.98332	0.0315	-0.012
Mof_C 	C 	0.22343	0.92542	0.0455	-0.097
Mof_H 	H 	0.2253	0.9076	0.0127	0.122
Mof_C 	C 	0.20215	0.94729	0.1994	-0.093
Mof_H 	H 	0.1893	0.9441	0.2695	0.118
Mof_C 	C 	0.21767	0.97822	0.1389	0.122
Mof_O 	O 	0.23961	0.93275	0.8093	-0.079
Mof_O 	O 	0.27652	0.98481	0.8352	-0.072
Mof_N 	N 	0.2529	0.95779	0.873	-0.013
Mof_O 	O 	0.19465	0.86513	0.1708	-0.38
Mof_C 	C 	0.29803	0.07459	0.9551	-0.1
Mof_H 	H 	0.3175	0.0924	0.9884	0.123
Mof_C 	C 	0.28481	0.07843	0.8457	0.02
Mof_C 	C 	0.28147	0.04365	0.013	0.128
Mof_C 	C 	0.25503	0.05261	0.8009	-0.097
Mof_H 	H 	0.2453	0.0558	0.731	0.119
Mof_C 	C 	0.23958	0.02178	0.8605	0.125
Mof_C 	C 	0.30266	0.11191	0.7808	0.32
Mof_O 	O 	0.28903	0.11419	0.6834	-0.378
Mof_O 	O 	0.32961	0.13482	0.829	-0.378
Mof_N 	N 	0.20654	0.99882	0.8187	-0.014
Mof_O 	O 	0.18825	0.9723	0.8727	-0.074
Mof_O 	O 	0.1982	0.0035	0.7175	-0.076
Mof_N 	N 	0.29509	0.04208	0.1269	-0.013
Mof_O 	O 	0.30678	0.06741	0.1916	-0.079
Mof_N 	N 	0.20777	0.00112	0.1829	-0.014
Mof_O 	O 	0.29174	0.01516	0.1649	-0.072
Mof_O 	O 	0.21576	0.02759	0.1264	-0.074
Mof_O 	O 	0.19425	0.99655	0.281	-0.076
Mof_Cu	Cu	0.82131	0.17871	0.75238	0.914
Mof_O 	O 	0.84142	0.2191	0.64933	-0.379
Mof_C 	C 	0.85737	0.22137	0.55233	0.324
Mof_C 	C 	0.8729	0.25473	0.48643	0.017
Mof_C 	C 	0.91877	0.34994	0.30173	-0.013
Mof_C 	C 	0.90463	0.28969	0.32003	0.125
Mof_C 	C 	0.90181	0.31665	0.36483	-0.011
Mof_C 	C 	0.8901	0.25875	0.37883	-0.095
Mof_H 	H 	0.89197	0.24093	0.34603	0.122
Mof_C 	C 	0.86882	0.28062	0.53273	-0.092
Mof_H 	H 	0.85597	0.27743	0.60283	0.118
Mof_C 	C 	0.88434	0.31155	0.47223	0.122
Mof_O 	O 	0.90628	0.26608	0.14263	-0.079
Mof_O 	O 	0.94319	0.31814	0.16853	-0.072
Mof_N 	N 	0.91957	0.29112	0.20633	-0.012
Mof_O 	O 	0.86132	0.19846	0.50413	-0.379
Mof_C 	C 	0.9647	0.40792	0.28843	-0.099
Mof_H 	H 	0.98417	0.42573	0.32173	0.123
Mof_C 	C 	0.95148	0.41176	0.17903	0.02
Mof_C 	C 	0.94814	0.37698	0.34633	0.127
Mof_C 	C 	0.9217	0.38594	0.13423	-0.097
Mof_H 	H 	0.91197	0.38913	0.06433	0.12
Mof_C 	C 	0.90625	0.35511	0.19383	0.125
Mof_C 	C 	0.96933	0.44524	0.11413	0.32
Mof_O 	O 	0.9557	0.44752	0.01673	-0.377
Mof_O 	O 	0.99628	0.46815	0.16233	-0.378
Mof_N 	N 	0.87321	0.33215	0.15203	-0.015
Mof_O 	O 	0.85492	0.30563	0.20603	-0.074
Mof_O 	O 	0.86487	0.33683	0.05083	-0.075
Mof_N 	N 	0.96176	0.37541	0.46023	-0.013
Mof_O 	O 	0.97345	0.40074	0.52493	-0.079
Mof_N 	N 	0.87444	0.33445	0.51623	-0.014
Mof_O 	O 	0.95841	0.34849	0.49823	-0.072
Mof_O 	O 	0.88243	0.36092	0.45973	-0.074
Mof_O 	O 	0.86092	0.32988	0.61433	-0.076
Mof_Cu	Cu	0.48798	0.51204	0.08572	0.914
Mof_O 	O 	0.50808	0.55244	0.98267	-0.379
Mof_C 	C 	0.52403	0.55471	0.88567	0.324
Mof_C 	C 	0.53956	0.58807	0.81977	0.017
Mof_C 	C 	0.58543	0.68328	0.63507	-0.013
Mof_C 	C 	0.57129	0.62303	0.65337	0.125
Mof_C 	C 	0.56847	0.64999	0.69817	-0.011
Mof_C 	C 	0.55676	0.59209	0.71217	-0.095
Mof_H 	H 	0.55863	0.57427	0.67937	0.122
Mof_C 	C 	0.53548	0.61396	0.86607	-0.093
Mof_H 	H 	0.52263	0.61077	0.93617	0.118
Mof_C 	C 	0.551	0.64489	0.80557	0.122
Mof_O 	O 	0.57294	0.59942	0.47597	-0.079
Mof_O 	O 	0.60985	0.65148	0.50187	-0.072
Mof_N 	N 	0.58623	0.62446	0.53967	-0.012
Mof_O 	O 	0.52798	0.5318	0.83747	-0.379
Mof_C 	C 	0.63136	0.74126	0.62177	-0.099
Mof_H 	H 	0.65083	0.75907	0.65507	0.123
Mof_C 	C 	0.61814	0.7451	0.51237	0.02
Mof_C 	C 	0.6148	0.71032	0.67967	0.127
Mof_C 	C 	0.58836	0.71928	0.46757	-0.096
Mof_H 	H 	0.57863	0.72247	0.39767	0.119
Mof_C 	C 	0.57291	0.68845	0.52717	0.124
Mof_C 	C 	0.63599	0.77858	0.44747	0.321
Mof_O 	O 	0.62236	0.78086	0.35007	-0.378
Mof_O 	O 	0.66294	0.80149	0.49567	-0.378
Mof_N 	N 	0.53987	0.66549	0.48537	-0.014
Mof_O 	O 	0.52158	0.63897	0.53937	-0.074
Mof_O 	O 	0.53153	0.67017	0.38417	-0.076
Mof_N 	N 	0.62842	0.70875	0.79357	-0.013
Mof_O 	O 	0.64011	0.73408	0.85827	-0.079
Mof_N 	N 	0.5411	0.66779	0.84957	-0.014
Mof_O 	O 	0.62507	0.68183	0.83157	-0.072
Mof_O 	O 	0.54909	0.69426	0.79307	-0.074
Mof_O 	O 	0.52758	0.66322	0.94767	-0.075
Mof_Cu	Cu	0.84538	0.69073	0.58095	0.914
Mof_O 	O 	0.88577	0.71102	0.684	-0.379
Mof_C 	C 	0.88804	0.69734	0.781	0.324
Mof_C 	C 	0.9214	0.71517	0.8469	0.017
Mof_C 	C 	0.01661	0.76451	0.0316	-0.014
Mof_C 	C 	0.95636	0.7184	0.0133	0.126
Mof_C 	C 	0.98332	0.74818	0.9685	-0.011
Mof_C 	C 	0.92542	0.70199	0.9545	-0.096
Mof_H 	H 	0.9076	0.6823	0.9873	0.122
Mof_C 	C 	0.94729	0.74514	0.8006	-0.093
Mof_H 	H 	0.9441	0.7548	0.7305	0.118
Mof_C 	C 	0.97822	0.76055	0.8611	0.122
Mof_O 	O 	0.93275	0.69314	0.1907	-0.079
Mof_O 	O 	0.98481	0.70829	0.1648	-0.072
Mof_N 	N 	0.95779	0.70489	0.127	-0.012
Mof_O 	O 	0.86513	0.67048	0.8292	-0.38
Mof_C 	C 	0.07459	0.77656	0.0449	-0.1
Mof_H 	H 	0.0924	0.7749	0.0116	0.123
Mof_C 	C 	0.07843	0.79362	0.1543	0.02
Mof_C 	C 	0.04365	0.76218	0.987	0.128
Mof_C 	C 	0.05261	0.79758	0.1991	-0.097
Mof_H 	H 	0.0558	0.8105	0.269	0.119
Mof_C 	C 	0.02178	0.7822	0.1395	0.125
Mof_C 	C 	0.11191	0.80925	0.2192	0.32
Mof_O 	O 	0.11419	0.82516	0.3166	-0.378
Mof_O 	O 	0.13482	0.80521	0.171	-0.378
Mof_N 	N 	0.99882	0.79228	0.1813	-0.014
Mof_O 	O 	0.9723	0.78405	0.1273	-0.074
Mof_O 	O 	0.0035	0.8053	0.2825	-0.076
Mof_N 	N 	0.04208	0.74699	0.8731	-0.013
Mof_O 	O 	0.06741	0.76063	0.8084	-0.079
Mof_N 	N 	0.00112	0.79335	0.8171	-0.014
Mof_O 	O 	0.01516	0.72342	0.8351	-0.072
Mof_O 	O 	0.02759	0.81183	0.8736	-0.074
Mof_O 	O 	0.99655	0.8023	0.719	-0.076
Mof_Cu	Cu	0.51204	0.02407	0.91428	0.914
Mof_O 	O 	0.55244	0.04435	0.01733	-0.379
Mof_C 	C 	0.55471	0.03067	0.11433	0.324
Mof_C 	C 	0.58807	0.0485	0.18023	0.017
Mof_C 	C 	0.68328	0.09784	0.36493	-0.013
Mof_C 	C 	0.62303	0.05173	0.34663	0.125
Mof_C 	C 	0.64999	0.08151	0.30183	-0.011
Mof_C 	C 	0.59209	0.03532	0.28783	-0.095
Mof_H 	H 	0.57427	0.01563	0.32063	0.122
Mof_C 	C 	0.61396	0.07847	0.13393	-0.093
Mof_H 	H 	0.61077	0.08813	0.06383	0.118
Mof_C 	C 	0.64489	0.09388	0.19443	0.122
Mof_O 	O 	0.59942	0.02647	0.52403	-0.079
Mof_O 	O 	0.65148	0.04162	0.49813	-0.072
Mof_N 	N 	0.62446	0.03822	0.46033	-0.012
Mof_O 	O 	0.5318	0.00381	0.16253	-0.379
Mof_C 	C 	0.74126	0.10989	0.37823	-0.099
Mof_H 	H 	0.75907	0.10823	0.34493	0.123
Mof_C 	C 	0.7451	0.12695	0.48763	0.02
Mof_C 	C 	0.71032	0.09551	0.32033	0.127
Mof_C 	C 	0.71928	0.13091	0.53243	-0.096
Mof_H 	H 	0.72247	0.14383	0.60233	0.119
Mof_C 	C 	0.68845	0.11553	0.47283	0.124
Mof_C 	C 	0.77858	0.14258	0.55253	0.321
Mof_O 	O 	0.78086	0.15849	0.64993	-0.378
Mof_O 	O 	0.80149	0.13854	0.50433	-0.378
Mof_N 	N 	0.66549	0.12561	0.51463	-0.014
Mof_O 	O 	0.63897	0.11738	0.46063	-0.074
Mof_O 	O 	0.67017	0.13863	0.61583	-0.076
Mof_N 	N 	0.70875	0.08032	0.20643	-0.013
Mof_O 	O 	0.73408	0.09396	0.14173	-0.079
Mof_N 	N 	0.66779	0.12668	0.15043	-0.014
Mof_O 	O 	0.68183	0.05675	0.16843	-0.072
Mof_O 	O 	0.69426	0.14516	0.20693	-0.074
Mof_O 	O 	0.66322	0.13563	0.05233	-0.075
Mof_Cu	Cu	0.17871	0.3574	0.24762	0.914
Mof_O 	O 	0.2191	0.37769	0.35067	-0.379
Mof_C 	C 	0.22137	0.36401	0.44767	0.324
Mof_C 	C 	0.25473	0.38184	0.51357	0.017
Mof_C 	C 	0.34994	0.43118	0.69827	-0.013
Mof_C 	C 	0.28969	0.38507	0.67997	0.125
Mof_C 	C 	0.31665	0.41485	0.63517	-0.011
Mof_C 	C 	0.25875	0.36866	0.62117	-0.095
Mof_H 	H 	0.24093	0.34897	0.65397	0.122
Mof_C 	C 	0.28062	0.41181	0.46727	-0.092
Mof_H 	H 	0.27743	0.42147	0.39717	0.118
Mof_C 	C 	0.31155	0.42722	0.52777	0.122
Mof_O 	O 	0.26608	0.35981	0.85737	-0.079
Mof_O 	O 	0.31814	0.37496	0.83147	-0.072
Mof_N 	N 	0.29112	0.37156	0.79367	-0.012
Mof_O 	O 	0.19846	0.33715	0.49587	-0.379
Mof_C 	C 	0.40792	0.44323	0.71157	-0.099
Mof_H 	H 	0.42573	0.44157	0.67827	0.123
Mof_C 	C 	0.41176	0.46029	0.82097	0.02
Mof_C 	C 	0.37698	0.42885	0.65367	0.127
Mof_C 	C 	0.38594	0.46425	0.86577	-0.097
Mof_H 	H 	0.38913	0.47717	0.93567	0.12
Mof_C 	C 	0.35511	0.44887	0.80617	0.125
Mof_C 	C 	0.44524	0.47592	0.88587	0.32
Mof_O 	O 	0.44752	0.49183	0.98327	-0.377
Mof_O 	O 	0.46815	0.47188	0.83767	-0.378
Mof_N 	N 	0.33215	0.45895	0.84797	-0.015
Mof_O 	O 	0.30563	0.45072	0.79397	-0.074
Mof_O 	O 	0.33683	0.47197	0.94917	-0.075
Mof_N 	N 	0.37541	0.41366	0.53977	-0.013
Mof_O 	O 	0.40074	0.4273	0.47507	-0.079
Mof_N 	N 	0.33445	0.46002	0.48377	-0.014
Mof_O 	O 	0.34849	0.39009	0.50177	-0.072
Mof_O 	O 	0.36092	0.4785	0.54027	-0.074
Mof_O 	O 	0.32988	0.46897	0.38567	-0.076
Mof_Cu	Cu	0.30927	0.15464	0.58095	0.914
Mof_O 	O 	0.28898	0.17475	0.684	-0.379
Mof_C 	C 	0.30266	0.1907	0.781	0.324
Mof_C 	C 	0.28483	0.20623	0.8469	0.017
Mof_C 	C 	0.23549	0.2521	0.0316	-0.013
Mof_C 	C 	0.2816	0.23796	0.0133	0.126
Mof_C 	C 	0.25182	0.23514	0.9685	-0.011
Mof_C 	C 	0.29801	0.22343	0.9545	-0.096
Mof_H 	H 	0.3177	0.2253	0.9873	0.122
Mof_C 	C 	0.25486	0.20215	0.8006	-0.093
Mof_H 	H 	0.2452	0.1893	0.7305	0.118
Mof_C 	C 	0.23945	0.21767	0.8611	0.122
Mof_O 	O 	0.30686	0.23961	0.1907	-0.079
Mof_O 	O 	0.29171	0.27652	0.1648	-0.072
Mof_N 	N 	0.29511	0.2529	0.127	-0.012
Mof_O 	O 	0.32952	0.19465	0.8292	-0.38
Mof_C 	C 	0.22344	0.29803	0.0449	-0.1
Mof_H 	H 	0.2251	0.3175	0.0116	0.123
Mof_C 	C 	0.20638	0.28481	0.1543	0.02
Mof_C 	C 	0.23782	0.28147	0.987	0.128
Mof_C 	C 	0.20242	0.25503	0.1991	-0.097
Mof_H 	H 	0.1895	0.2453	0.269	0.119
Mof_C 	C 	0.2178	0.23958	0.1395	0.125
Mof_C 	C 	0.19075	0.30266	0.2192	0.32
Mof_O 	O 	0.17484	0.28903	0.3166	-0.378
Mof_O 	O 	0.19479	0.32961	0.171	-0.378
Mof_N 	N 	0.20772	0.20654	0.1813	-0.015
Mof_O 	O 	0.21595	0.18825	0.1273	-0.074
Mof_O 	O 	0.1947	0.1982	0.2825	-0.076
Mof_N 	N 	0.25301	0.29509	0.8731	-0.013
Mof_O 	O 	0.23937	0.30678	0.8084	-0.079
Mof_N 	N 	0.20665	0.20777	0.8171	-0.014
Mof_O 	O 	0.27658	0.29174	0.8351	-0.072
Mof_O 	O 	0.18817	0.21576	0.8736	-0.074
Mof_O 	O 	0.1977	0.19425	0.719	-0.076
Mof_Cu	Cu	0.97593	0.48798	0.91428	0.914
Mof_O 	O 	0.95565	0.50808	0.01733	-0.379
Mof_C 	C 	0.96933	0.52403	0.11433	0.324
Mof_C 	C 	0.9515	0.53956	0.18023	0.017
Mof_C 	C 	0.90216	0.58543	0.36493	-0.013
Mof_C 	C 	0.94827	0.57129	0.34663	0.125
Mof_C 	C 	0.91849	0.56847	0.30183	-0.011
Mof_C 	C 	0.96468	0.55676	0.28783	-0.095
Mof_H 	H 	0.98437	0.55863	0.32063	0.122
Mof_C 	C 	0.92153	0.53548	0.13393	-0.093
Mof_H 	H 	0.91187	0.52263	0.06383	0.118
Mof_C 	C 	0.90612	0.551	0.19443	0.122
Mof_O 	O 	0.97353	0.57294	0.52403	-0.079
Mof_O 	O 	0.95838	0.60985	0.49813	-0.072
Mof_N 	N 	0.96178	0.58623	0.46033	-0.012
Mof_O 	O 	0.99619	0.52798	0.16253	-0.379
Mof_C 	C 	0.89011	0.63136	0.37823	-0.099
Mof_H 	H 	0.89177	0.65083	0.34493	0.123
Mof_C 	C 	0.87305	0.61814	0.48763	0.02
Mof_C 	C 	0.90449	0.6148	0.32033	0.127
Mof_C 	C 	0.86909	0.58836	0.53243	-0.096
Mof_H 	H 	0.85617	0.57863	0.60233	0.119
Mof_C 	C 	0.88447	0.57291	0.47283	0.124
Mof_C 	C 	0.85742	0.63599	0.55253	0.321
Mof_O 	O 	0.84151	0.62236	0.64993	-0.378
Mof_O 	O 	0.86146	0.66294	0.50433	-0.378
Mof_N 	N 	0.87439	0.53987	0.51463	-0.014
Mof_O 	O 	0.88262	0.52158	0.46063	-0.074
Mof_O 	O 	0.86137	0.53153	0.61583	-0.076
Mof_N 	N 	0.91968	0.62842	0.20643	-0.013
Mof_O 	O 	0.90604	0.64011	0.14173	-0.079
Mof_N 	N 	0.87332	0.5411	0.15043	-0.014
Mof_O 	O 	0.94325	0.62507	0.16843	-0.072
Mof_O 	O 	0.85484	0.54909	0.20693	-0.074
Mof_O 	O 	0.86437	0.52758	0.05233	-0.075
Mof_Cu	Cu	0.6426	0.82131	0.24762	0.914
Mof_O 	O 	0.62231	0.84142	0.35067	-0.379
Mof_C 	C 	0.63599	0.85737	0.44767	0.324
Mof_C 	C 	0.61816	0.8729	0.51357	0.017
Mof_C 	C 	0.56882	0.91877	0.69827	-0.013
Mof_C 	C 	0.61493	0.90463	0.67997	0.125
Mof_C 	C 	0.58515	0.90181	0.63517	-0.011
Mof_C 	C 	0.63134	0.8901	0.62117	-0.095
Mof_H 	H 	0.65103	0.89197	0.65397	0.122
Mof_C 	C 	0.58819	0.86882	0.46727	-0.092
Mof_H 	H 	0.57853	0.85597	0.39717	0.118
Mof_C 	C 	0.57278	0.88434	0.52777	0.122
Mof_O 	O 	0.64019	0.90628	0.85737	-0.079
Mof_O 	O 	0.62504	0.94319	0.83147	-0.072
Mof_N 	N 	0.62844	0.91957	0.79367	-0.012
Mof_O 	O 	0.66285	0.86132	0.49587	-0.379
Mof_C 	C 	0.55677	0.9647	0.71157	-0.099
Mof_H 	H 	0.55843	0.98417	0.67827	0.123
Mof_C 	C 	0.53971	0.95148	0.82097	0.02
Mof_C 	C 	0.57115	0.94814	0.65367	0.127
Mof_C 	C 	0.53575	0.9217	0.86577	-0.097
Mof_H 	H 	0.52283	0.91197	0.93567	0.12
Mof_C 	C 	0.55113	0.90625	0.80617	0.125
Mof_C 	C 	0.52408	0.96933	0.88587	0.32
Mof_O 	O 	0.50817	0.9557	0.98327	-0.377
Mof_O 	O 	0.52812	0.99628	0.83767	-0.378
Mof_N 	N 	0.54105	0.87321	0.84797	-0.015
Mof_O 	O 	0.54928	0.85492	0.79397	-0.074
Mof_O 	O 	0.52803	0.86487	0.94917	-0.075
Mof_N 	N 	0.58634	0.96176	0.53977	-0.013
Mof_O 	O 	0.5727	0.97345	0.47507	-0.079
Mof_N 	N 	0.53998	0.87444	0.48377	-0.014
Mof_O 	O 	0.60991	0.95841	0.50177	-0.072
Mof_O 	O 	0.5215	0.88243	0.54027	-0.074
Mof_O 	O 	0.53103	0.86092	0.38567	-0.076
Mof_Cu	Cu	0.84536	0.15462	0.58095	0.914
Mof_O 	O 	0.82525	0.11423	0.684	-0.379
Mof_C 	C 	0.8093	0.11196	0.781	0.324
Mof_C 	C 	0.79377	0.0786	0.8469	0.017
Mof_C 	C 	0.7479	0.98339	0.0316	-0.013
Mof_C 	C 	0.76204	0.04364	0.0133	0.126
Mof_C 	C 	0.76486	0.01668	0.9685	-0.012
Mof_C 	C 	0.77657	0.07458	0.9545	-0.097
Mof_H 	H 	0.7747	0.0924	0.9873	0.122
Mof_C 	C 	0.79785	0.05271	0.8006	-0.093
Mof_H 	H 	0.8107	0.0559	0.7305	0.118
Mof_C 	C 	0.78233	0.02178	0.8611	0.122
Mof_O 	O 	0.76039	0.06725	0.1907	-0.079
Mof_O 	O 	0.72348	0.01519	0.1648	-0.072
Mof_N 	N 	0.7471	0.04221	0.127	-0.013
Mof_O 	O 	0.80535	0.13487	0.8292	-0.38
Mof_C 	C 	0.70197	0.92541	0.0449	-0.1
Mof_H 	H 	0.6825	0.9076	0.0116	0.123
Mof_C 	C 	0.71519	0.92157	0.1543	0.02
Mof_C 	C 	0.71853	0.95635	0.987	0.128
Mof_C 	C 	0.74497	0.94739	0.1991	-0.097
Mof_H 	H 	0.7547	0.9442	0.269	0.119
Mof_C 	C 	0.76042	0.97822	0.1395	0.125
Mof_C 	C 	0.69734	0.88809	0.2192	0.32
Mof_O 	O 	0.71097	0.88581	0.3166	-0.378
Mof_O 	O 	0.67039	0.86518	0.171	-0.378
Mof_N 	N 	0.79346	0.00118	0.1813	-0.014
Mof_O 	O 	0.81175	0.0277	0.1273	-0.074
Mof_O 	O 	0.8018	0.9965	0.2825	-0.076
Mof_N 	N 	0.70491	0.95792	0.8731	-0.013
Mof_O 	O 	0.69322	0.93259	0.8084	-0.079
Mof_N 	N 	0.79223	0.99888	0.8171	-0.014
Mof_O 	O 	0.70826	0.98484	0.8351	-0.072
Mof_O 	O 	0.78424	0.97241	0.8736	-0.074
Mof_O 	O 	0.80575	0.00345	0.719	-0.076
Mof_Cu	Cu	0.51202	0.48796	0.91428	0.914
Mof_O 	O 	0.49192	0.44756	0.01733	-0.379
Mof_C 	C 	0.47597	0.44529	0.11433	0.324
Mof_C 	C 	0.46044	0.41193	0.18023	0.017
Mof_C 	C 	0.41457	0.31672	0.36493	-0.013
Mof_C 	C 	0.42871	0.37697	0.34663	0.125
Mof_C 	C 	0.43153	0.35001	0.30183	-0.011
Mof_C 	C 	0.44324	0.40791	0.28783	-0.095
Mof_H 	H 	0.44137	0.42573	0.32063	0.122
Mof_C 	C 	0.46452	0.38604	0.13393	-0.093
Mof_H 	H 	0.47737	0.38923	0.06383	0.118
Mof_C 	C 	0.449	0.35511	0.19443	0.122
Mof_O 	O 	0.42706	0.40058	0.52403	-0.079
Mof_O 	O 	0.39015	0.34852	0.49813	-0.072
Mof_N 	N 	0.41377	0.37554	0.46033	-0.012
Mof_O 	O 	0.47202	0.4682	0.16253	-0.379
Mof_C 	C 	0.36864	0.25874	0.37823	-0.099
Mof_H 	H 	0.34917	0.24093	0.34493	0.123
Mof_C 	C 	0.38186	0.2549	0.48763	0.02
Mof_C 	C 	0.3852	0.28968	0.32033	0.127
Mof_C 	C 	0.41164	0.28072	0.53243	-0.096
Mof_H 	H 	0.42137	0.27753	0.60233	0.119
Mof_C 	C 	0.42709	0.31155	0.47283	0.124
Mof_C 	C 	0.36401	0.22142	0.55253	0.321
Mof_O 	O 	0.37764	0.21914	0.64993	-0.378
Mof_O 	O 	0.33706	0.19851	0.50433	-0.378
Mof_N 	N 	0.46013	0.33451	0.51463	-0.014
Mof_O 	O 	0.47842	0.36103	0.46063	-0.074
Mof_O 	O 	0.46847	0.32983	0.61583	-0.076
Mof_N 	N 	0.37158	0.29125	0.20643	-0.013
Mof_O 	O 	0.35989	0.26592	0.14173	-0.079
Mof_N 	N 	0.4589	0.33221	0.15043	-0.014
Mof_O 	O 	0.37493	0.31817	0.16843	-0.072
Mof_O 	O 	0.45091	0.30574	0.20693	-0.074
Mof_O 	O 	0.47242	0.33678	0.05233	-0.075
Mof_Cu	Cu	0.17869	0.82129	0.24762	0.914
Mof_O 	O 	0.15858	0.7809	0.35067	-0.379
Mof_C 	C 	0.14263	0.77863	0.44767	0.324
Mof_C 	C 	0.1271	0.74527	0.51357	0.017
Mof_C 	C 	0.08123	0.65006	0.69827	-0.013
Mof_C 	C 	0.09537	0.71031	0.67997	0.125
Mof_C 	C 	0.09819	0.68335	0.63517	-0.011
Mof_C 	C 	0.1099	0.74125	0.62117	-0.095
Mof_H 	H 	0.10803	0.75907	0.65397	0.122
Mof_C 	C 	0.13118	0.71938	0.46727	-0.092
Mof_H 	H 	0.14403	0.72257	0.39717	0.118
Mof_C 	C 	0.11566	0.68845	0.52777	0.122
Mof_O 	O 	0.09372	0.73392	0.85737	-0.079
Mof_O 	O 	0.05681	0.68186	0.83147	-0.072
Mof_N 	N 	0.08043	0.70888	0.79367	-0.012
Mof_O 	O 	0.13868	0.80154	0.49587	-0.379
Mof_C 	C 	0.0353	0.59208	0.71157	-0.099
Mof_H 	H 	0.01583	0.57427	0.67827	0.123
Mof_C 	C 	0.04852	0.58824	0.82097	0.02
Mof_C 	C 	0.05186	0.62302	0.65367	0.127
Mof_C 	C 	0.0783	0.61406	0.86577	-0.097
Mof_H 	H 	0.08803	0.61087	0.93567	0.12
Mof_C 	C 	0.09375	0.64489	0.80617	0.125
Mof_C 	C 	0.03067	0.55476	0.88587	0.32
Mof_O 	O 	0.0443	0.55248	0.98327	-0.377
Mof_O 	O 	0.00372	0.53185	0.83767	-0.378
Mof_N 	N 	0.12679	0.66785	0.84797	-0.015
Mof_O 	O 	0.14508	0.69437	0.79397	-0.074
Mof_O 	O 	0.13513	0.66317	0.94917	-0.075
Mof_N 	N 	0.03824	0.62459	0.53977	-0.013
Mof_O 	O 	0.02655	0.59926	0.47507	-0.079
Mof_N 	N 	0.12556	0.66555	0.48377	-0.014
Mof_O 	O 	0.04159	0.65151	0.50177	-0.072
Mof_O 	O 	0.11757	0.63908	0.54027	-0.074
Mof_O 	O 	0.13908	0.67012	0.38567	-0.076
_end
