data_functionalizedCrystal
_audit_creation_method	'EQeq! by Chris Wilmer'
_symmetry_space_group_name_H-M	'P1'
_symmetry_Int_Tables_number	1
_symmetry_cell_setting	triclinic
loop_
_symmetry_equiv_pos_as_xyz
  x,y,z
_cell_length_a	29.4436
_cell_length_b	29.4436
_cell_length_c	54.543
_cell_angle_alpha	90
_cell_angle_beta	90
_cell_angle_gamma	90
loop_
_atom_site_label
_atom_site_type_symbol
_atom_site_fract_x
_atom_site_fract_y
_atom_site_fract_z
_atom_site_charge
Mof_O 	O 	0.8484	0.4629	0.06917	-0.754
Mof_O 	O 	0.8475	0.3682	0.06551	-0.737
Mof_O 	O 	0.9385	0.4651	0.14589	-0.788
Mof_O 	O 	0.7918	0.5107	0.10853	-0.757
Mof_O 	O 	0.9017	0.5099	0.11461	-0.793
Mof_O 	O 	0.8948	0.3112	0.1049	-0.733
Mof_O 	O 	0.8816	0.492	0.18125	-0.654
Mof_O 	O 	0.7578	0.4609	0.07188	-0.561
Mof_O 	O 	0.8395	0.542	0.14593	-0.662
Mof_O 	O 	0.9791	0.4101	0.113	-0.65
Mof_O 	O 	0.8408	0.2629	0.06067	-0.485
Mof_O 	O 	0.9365	0.4602	0.07796	-0.662
Mof_O 	O 	0.937	0.3667	0.07359	-0.505
Mof_N 	N 	0.855	0.0673	0.92955	-0.324
Mof_C 	C 	0.8731	0.2226	0.0281	-0.116
Mof_C 	C 	0.8332	0.2041	0.0222	0.004
Mof_H 	H 	0.8071	0.2128	0.0306	0.021
Mof_O 	O 	0.907	0.2869	0.0485	-0.314
Mof_C 	C 	0.8755	0.2567	0.0483	0.329
Mof_C 	C 	0.8616	0.132	0.9672	0.122
Mof_C 	C 	0.8303	0.1706	0.0027	-0.084
Mof_H 	H 	0.804	0.1534	0.0009	0.037
Mof_C 	C 	0.8662	0.1642	0.9871	-0.024
Mof_C 	C 	0.8281	0.1006	0.9666	-0.189
Mof_H 	H 	0.8065	0.1005	0.9791	0.07
Mof_C 	C 	0.8247	0.0667	0.9469	0.076
Mof_H 	H 	0.8015	0.0452	0.9469	-0.054
Mof_C 	C 	0.9085	0.2155	0.0126	-0.002
Mof_H 	H 	0.9364	0.2292	0.0157	0.022
Mof_C 	C 	0.884	0.1338	0.9475	-0.235
Mof_H 	H 	0.9032	0.1584	0.945	0.081
Mof_C 	C 	0.8812	0.0985	0.9284	0.149
Mof_H 	H 	0.9004	0.1005	0.9149	-0.087
Mof_C 	C 	0.9028	0.1867	0.9914	-0.078
Mof_H 	H 	0.9268	0.1842	0.9803	0.033
Mof_Mo	Mo	0.80364	0.41714	0.06031	1.067
Mof_Mo	Mo	0.77817	0.51159	0.14396	1.048
Mof_Mo	Mo	0.89314	0.41548	0.06292	1.07
Mof_Mo	Mo	0.94774	0.35011	0.10927	1.026
Mof_Mo	Mo	0.95346	0.46646	0.1096	1.307
Mof_Mo	Mo	0.89442	0.51558	0.15126	1.324
Mof_Zn	Zn	0.83976	0.31166	0.08474	1.224
Mof_Zn	Zn	0.8508	0.51438	0.09252	1.207
Mof_O 	O 	0.3484	0.9629	0.56917	-0.753
Mof_O 	O 	0.3475	0.8682	0.56551	-0.736
Mof_O 	O 	0.4385	0.9651	0.64589	-0.787
Mof_O 	O 	0.2918	0.0107	0.60853	-0.756
Mof_O 	O 	0.4017	0.0099	0.61461	-0.792
Mof_O 	O 	0.3948	0.8112	0.6049	-0.732
Mof_O 	O 	0.3816	0.992	0.68125	-0.653
Mof_O 	O 	0.2578	0.9609	0.57188	-0.56
Mof_O 	O 	0.3395	0.042	0.64593	-0.661
Mof_O 	O 	0.4791	0.9101	0.613	-0.649
Mof_O 	O 	0.3408	0.7629	0.56067	-0.484
Mof_O 	O 	0.4365	0.9602	0.57796	-0.66
Mof_O 	O 	0.437	0.8667	0.57359	-0.504
Mof_N 	N 	0.355	0.5673	0.42955	-0.323
Mof_C 	C 	0.3731	0.7226	0.5281	-0.115
Mof_C 	C 	0.3332	0.7041	0.5222	0.005
Mof_H 	H 	0.3071	0.7128	0.5306	0.022
Mof_O 	O 	0.407	0.7869	0.5485	-0.313
Mof_C 	C 	0.3755	0.7567	0.5483	0.33
Mof_C 	C 	0.3616	0.632	0.4672	0.123
Mof_C 	C 	0.3303	0.6706	0.5027	-0.083
Mof_H 	H 	0.304	0.6534	0.5009	0.038
Mof_C 	C 	0.3662	0.6642	0.4871	-0.023
Mof_C 	C 	0.3281	0.6006	0.4666	-0.188
Mof_H 	H 	0.3065	0.6005	0.4791	0.071
Mof_C 	C 	0.3247	0.5667	0.4469	0.077
Mof_H 	H 	0.3015	0.5452	0.4469	-0.053
Mof_C 	C 	0.4085	0.7155	0.5126	-0.001
Mof_H 	H 	0.4364	0.7292	0.5157	0.023
Mof_C 	C 	0.384	0.6338	0.4475	-0.234
Mof_H 	H 	0.4032	0.6584	0.445	0.082
Mof_C 	C 	0.3812	0.5985	0.4284	0.15
Mof_H 	H 	0.4004	0.6005	0.4149	-0.087
Mof_C 	C 	0.4028	0.6867	0.4914	-0.078
Mof_H 	H 	0.4268	0.6842	0.4803	0.033
Mof_Mo	Mo	0.30364	0.91714	0.56031	1.067
Mof_Mo	Mo	0.27817	0.01159	0.64396	1.048
Mof_Mo	Mo	0.39314	0.91548	0.56292	1.07
Mof_Mo	Mo	0.44774	0.85011	0.60927	1.026
Mof_Mo	Mo	0.45346	0.96646	0.6096	1.307
Mof_Mo	Mo	0.39442	0.01558	0.65126	1.324
Mof_Zn	Zn	0.33976	0.81166	0.58474	1.224
Mof_Zn	Zn	0.3508	0.01438	0.59252	1.207
Mof_O 	O 	0.7871	0.4016	0.18083	-0.753
Mof_O 	O 	0.8818	0.4025	0.18449	-0.736
Mof_O 	O 	0.7849	0.3115	0.10411	-0.787
Mof_O 	O 	0.7393	0.4582	0.14147	-0.756
Mof_O 	O 	0.7401	0.3483	0.13539	-0.792
Mof_O 	O 	0.9388	0.3552	0.1451	-0.732
Mof_O 	O 	0.758	0.3684	0.06875	-0.653
Mof_O 	O 	0.7891	0.4922	0.17812	-0.56
Mof_O 	O 	0.708	0.4105	0.10407	-0.661
Mof_O 	O 	0.8399	0.2709	0.137	-0.649
Mof_O 	O 	0.9871	0.4092	0.18933	-0.484
Mof_O 	O 	0.7898	0.3135	0.17204	-0.661
Mof_O 	O 	0.8833	0.313	0.17641	-0.504
Mof_N 	N 	0.1827	0.395	0.32045	-0.323
Mof_C 	C 	0.0274	0.3769	0.2219	-0.115
Mof_C 	C 	0.0459	0.4168	0.2278	0.005
Mof_H 	H 	0.0372	0.4429	0.2194	0.022
Mof_O 	O 	0.9631	0.343	0.2015	-0.313
Mof_C 	C 	0.9933	0.3745	0.2017	0.33
Mof_C 	C 	0.118	0.3884	0.2828	0.123
Mof_C 	C 	0.0794	0.4197	0.2473	-0.083
Mof_H 	H 	0.0966	0.446	0.2491	0.038
Mof_C 	C 	0.0858	0.3838	0.2629	-0.023
Mof_C 	C 	0.1494	0.4219	0.2834	-0.188
Mof_H 	H 	0.1495	0.4435	0.2709	0.071
Mof_C 	C 	0.1833	0.4253	0.3031	0.077
Mof_H 	H 	0.2048	0.4485	0.3031	-0.053
Mof_C 	C 	0.0345	0.3415	0.2374	-0.001
Mof_H 	H 	0.0208	0.3136	0.2343	0.023
Mof_C 	C 	0.1162	0.366	0.3025	-0.234
Mof_H 	H 	0.0916	0.3468	0.305	0.082
Mof_C 	C 	0.1515	0.3688	0.3216	0.15
Mof_H 	H 	0.1495	0.3496	0.3351	-0.087
Mof_C 	C 	0.0633	0.3472	0.2586	-0.078
Mof_H 	H 	0.0658	0.3232	0.2697	0.033
Mof_Mo	Mo	0.83286	0.44636	0.18969	1.067
Mof_Mo	Mo	0.73841	0.47183	0.10604	1.048
Mof_Mo	Mo	0.83452	0.35686	0.18708	1.07
Mof_Mo	Mo	0.89989	0.30226	0.14073	1.026
Mof_Mo	Mo	0.78354	0.29654	0.1404	1.307
Mof_Mo	Mo	0.73442	0.35558	0.09874	1.324
Mof_Zn	Zn	0.93834	0.41024	0.16526	1.224
Mof_Zn	Zn	0.73562	0.3992	0.15748	1.207
Mof_O 	O 	0.2871	0.9016	0.68083	-0.753
Mof_O 	O 	0.3818	0.9025	0.68449	-0.736
Mof_O 	O 	0.2849	0.8115	0.60411	-0.787
Mof_O 	O 	0.2393	0.9582	0.64147	-0.756
Mof_O 	O 	0.2401	0.8483	0.63539	-0.792
Mof_O 	O 	0.4388	0.8552	0.6451	-0.732
Mof_O 	O 	0.258	0.8684	0.56875	-0.653
Mof_O 	O 	0.2891	0.9922	0.67812	-0.56
Mof_O 	O 	0.208	0.9105	0.60407	-0.661
Mof_O 	O 	0.3399	0.7709	0.637	-0.649
Mof_O 	O 	0.4871	0.9092	0.68933	-0.484
Mof_O 	O 	0.2898	0.8135	0.67204	-0.661
Mof_O 	O 	0.3833	0.813	0.67641	-0.504
Mof_N 	N 	0.6827	0.895	0.82045	-0.323
Mof_C 	C 	0.5274	0.8769	0.7219	-0.115
Mof_C 	C 	0.5459	0.9168	0.7278	0.005
Mof_H 	H 	0.5372	0.9429	0.7194	0.022
Mof_O 	O 	0.4631	0.843	0.7015	-0.313
Mof_C 	C 	0.4933	0.8745	0.7017	0.33
Mof_C 	C 	0.618	0.8884	0.7828	0.123
Mof_C 	C 	0.5794	0.9197	0.7473	-0.083
Mof_H 	H 	0.5966	0.946	0.7491	0.038
Mof_C 	C 	0.5858	0.8838	0.7629	-0.023
Mof_C 	C 	0.6494	0.9219	0.7834	-0.188
Mof_H 	H 	0.6495	0.9435	0.7709	0.071
Mof_C 	C 	0.6833	0.9253	0.8031	0.077
Mof_H 	H 	0.7048	0.9485	0.8031	-0.053
Mof_C 	C 	0.5345	0.8415	0.7374	-0.001
Mof_H 	H 	0.5208	0.8136	0.7343	0.023
Mof_C 	C 	0.6162	0.866	0.8025	-0.234
Mof_H 	H 	0.5916	0.8468	0.805	0.082
Mof_C 	C 	0.6515	0.8688	0.8216	0.15
Mof_H 	H 	0.6495	0.8496	0.8351	-0.087
Mof_C 	C 	0.5633	0.8472	0.7586	-0.078
Mof_H 	H 	0.5658	0.8232	0.7697	0.033
Mof_Mo	Mo	0.33286	0.94636	0.68969	1.067
Mof_Mo	Mo	0.23841	0.97183	0.60604	1.048
Mof_Mo	Mo	0.33452	0.85686	0.68708	1.07
Mof_Mo	Mo	0.39989	0.80226	0.64073	1.026
Mof_Mo	Mo	0.28354	0.79654	0.6404	1.307
Mof_Mo	Mo	0.23442	0.85558	0.59874	1.324
Mof_Zn	Zn	0.43834	0.91024	0.66526	1.224
Mof_Zn	Zn	0.23562	0.8992	0.65748	1.207
Mof_O 	O 	0.3484	0.4629	0.43083	-0.753
Mof_O 	O 	0.3475	0.3682	0.43449	-0.736
Mof_O 	O 	0.4385	0.4651	0.35411	-0.787
Mof_O 	O 	0.2918	0.5107	0.39147	-0.756
Mof_O 	O 	0.4017	0.5099	0.38539	-0.792
Mof_O 	O 	0.3948	0.3112	0.3951	-0.732
Mof_O 	O 	0.3816	0.492	0.31875	-0.653
Mof_O 	O 	0.2578	0.4609	0.42812	-0.56
Mof_O 	O 	0.3395	0.542	0.35407	-0.661
Mof_O 	O 	0.4791	0.4101	0.387	-0.649
Mof_O 	O 	0.3408	0.2629	0.43933	-0.484
Mof_O 	O 	0.4365	0.4602	0.42204	-0.661
Mof_O 	O 	0.437	0.3667	0.42641	-0.504
Mof_N 	N 	0.355	0.0673	0.57045	-0.323
Mof_C 	C 	0.3731	0.2226	0.4719	-0.115
Mof_C 	C 	0.3332	0.2041	0.4778	0.005
Mof_H 	H 	0.3071	0.2128	0.4694	0.022
Mof_O 	O 	0.407	0.2869	0.4515	-0.313
Mof_C 	C 	0.3755	0.2567	0.4517	0.33
Mof_C 	C 	0.3616	0.132	0.5328	0.123
Mof_C 	C 	0.3303	0.1706	0.4973	-0.083
Mof_H 	H 	0.304	0.1534	0.4991	0.038
Mof_C 	C 	0.3662	0.1642	0.5129	-0.023
Mof_C 	C 	0.3281	0.1006	0.5334	-0.188
Mof_H 	H 	0.3065	0.1005	0.5209	0.071
Mof_C 	C 	0.3247	0.0667	0.5531	0.077
Mof_H 	H 	0.3015	0.0452	0.5531	-0.053
Mof_C 	C 	0.4085	0.2155	0.4874	-0.001
Mof_H 	H 	0.4364	0.2292	0.4843	0.023
Mof_C 	C 	0.384	0.1338	0.5525	-0.234
Mof_H 	H 	0.4032	0.1584	0.555	0.082
Mof_C 	C 	0.3812	0.0985	0.5716	0.15
Mof_H 	H 	0.4004	0.1005	0.5851	-0.087
Mof_C 	C 	0.4028	0.1867	0.5086	-0.078
Mof_H 	H 	0.4268	0.1842	0.5197	0.033
Mof_Mo	Mo	0.30364	0.41714	0.43969	1.067
Mof_Mo	Mo	0.27817	0.51159	0.35604	1.048
Mof_Mo	Mo	0.39314	0.41548	0.43708	1.07
Mof_Mo	Mo	0.44774	0.35011	0.39073	1.026
Mof_Mo	Mo	0.45346	0.46646	0.3904	1.307
Mof_Mo	Mo	0.39442	0.51558	0.34874	1.324
Mof_Zn	Zn	0.33976	0.31166	0.41526	1.224
Mof_Zn	Zn	0.3508	0.51438	0.40748	1.207
Mof_O 	O 	0.8484	0.9629	0.93083	-0.753
Mof_O 	O 	0.8475	0.8682	0.93449	-0.736
Mof_O 	O 	0.9385	0.9651	0.85411	-0.787
Mof_O 	O 	0.7918	0.0107	0.89147	-0.756
Mof_O 	O 	0.9017	0.0099	0.88539	-0.792
Mof_O 	O 	0.8948	0.8112	0.8951	-0.732
Mof_O 	O 	0.8816	0.992	0.81875	-0.653
Mof_O 	O 	0.7578	0.9609	0.92812	-0.56
Mof_O 	O 	0.8395	0.042	0.85407	-0.661
Mof_O 	O 	0.9791	0.9101	0.887	-0.649
Mof_O 	O 	0.8408	0.7629	0.93933	-0.484
Mof_O 	O 	0.9365	0.9602	0.92204	-0.661
Mof_O 	O 	0.937	0.8667	0.92641	-0.504
Mof_N 	N 	0.855	0.5673	0.07045	-0.323
Mof_C 	C 	0.8731	0.7226	0.9719	-0.115
Mof_C 	C 	0.8332	0.7041	0.9778	0.005
Mof_H 	H 	0.8071	0.7128	0.9694	0.022
Mof_O 	O 	0.907	0.7869	0.9515	-0.313
Mof_C 	C 	0.8755	0.7567	0.9517	0.33
Mof_C 	C 	0.8616	0.632	0.0328	0.123
Mof_C 	C 	0.8303	0.6706	0.9973	-0.083
Mof_H 	H 	0.804	0.6534	0.9991	0.038
Mof_C 	C 	0.8662	0.6642	0.0129	-0.023
Mof_C 	C 	0.8281	0.6006	0.0334	-0.188
Mof_H 	H 	0.8065	0.6005	0.0209	0.071
Mof_C 	C 	0.8247	0.5667	0.0531	0.077
Mof_H 	H 	0.8015	0.5452	0.0531	-0.053
Mof_C 	C 	0.9085	0.7155	0.9874	-0.001
Mof_H 	H 	0.9364	0.7292	0.9843	0.023
Mof_C 	C 	0.884	0.6338	0.0525	-0.234
Mof_H 	H 	0.9032	0.6584	0.055	0.082
Mof_C 	C 	0.8812	0.5985	0.0716	0.15
Mof_H 	H 	0.9004	0.6005	0.0851	-0.087
Mof_C 	C 	0.9028	0.6867	0.0086	-0.078
Mof_H 	H 	0.9268	0.6842	0.0197	0.033
Mof_Mo	Mo	0.80364	0.91714	0.93969	1.067
Mof_Mo	Mo	0.77817	0.01159	0.85604	1.048
Mof_Mo	Mo	0.89314	0.91548	0.93708	1.07
Mof_Mo	Mo	0.94774	0.85011	0.89073	1.026
Mof_Mo	Mo	0.95346	0.96646	0.8904	1.307
Mof_Mo	Mo	0.89442	0.01558	0.84874	1.324
Mof_Zn	Zn	0.83976	0.81166	0.91526	1.224
Mof_Zn	Zn	0.8508	0.01438	0.90748	1.207
Mof_O 	O 	0.2871	0.4016	0.31917	-0.753
Mof_O 	O 	0.3818	0.4025	0.31551	-0.736
Mof_O 	O 	0.2849	0.3115	0.39589	-0.787
Mof_O 	O 	0.2393	0.4582	0.35853	-0.756
Mof_O 	O 	0.2401	0.3483	0.36461	-0.792
Mof_O 	O 	0.4388	0.3552	0.3549	-0.732
Mof_O 	O 	0.258	0.3684	0.43125	-0.653
Mof_O 	O 	0.2891	0.4922	0.32188	-0.56
Mof_O 	O 	0.208	0.4105	0.39593	-0.661
Mof_O 	O 	0.3399	0.2709	0.363	-0.649
Mof_O 	O 	0.4871	0.4092	0.31067	-0.484
Mof_O 	O 	0.2898	0.3135	0.32796	-0.661
Mof_O 	O 	0.3833	0.313	0.32359	-0.504
Mof_N 	N 	0.6827	0.395	0.17955	-0.323
Mof_C 	C 	0.5274	0.3769	0.2781	-0.115
Mof_C 	C 	0.5459	0.4168	0.2722	0.005
Mof_H 	H 	0.5372	0.4429	0.2806	0.022
Mof_O 	O 	0.4631	0.343	0.2985	-0.313
Mof_C 	C 	0.4933	0.3745	0.2983	0.33
Mof_C 	C 	0.618	0.3884	0.2172	0.123
Mof_C 	C 	0.5794	0.4197	0.2527	-0.083
Mof_H 	H 	0.5966	0.446	0.2509	0.038
Mof_C 	C 	0.5858	0.3838	0.2371	-0.023
Mof_C 	C 	0.6494	0.4219	0.2166	-0.188
Mof_H 	H 	0.6495	0.4435	0.2291	0.071
Mof_C 	C 	0.6833	0.4253	0.1969	0.077
Mof_H 	H 	0.7048	0.4485	0.1969	-0.053
Mof_C 	C 	0.5345	0.3415	0.2626	-0.001
Mof_H 	H 	0.5208	0.3136	0.2657	0.023
Mof_C 	C 	0.6162	0.366	0.1975	-0.234
Mof_H 	H 	0.5916	0.3468	0.195	0.082
Mof_C 	C 	0.6515	0.3688	0.1784	0.15
Mof_H 	H 	0.6495	0.3496	0.1649	-0.087
Mof_C 	C 	0.5633	0.3472	0.2414	-0.078
Mof_H 	H 	0.5658	0.3232	0.2303	0.033
Mof_Mo	Mo	0.33286	0.44636	0.31031	1.067
Mof_Mo	Mo	0.23841	0.47183	0.39396	1.048
Mof_Mo	Mo	0.33452	0.35686	0.31292	1.07
Mof_Mo	Mo	0.39989	0.30226	0.35927	1.026
Mof_Mo	Mo	0.28354	0.29654	0.3596	1.307
Mof_Mo	Mo	0.23442	0.35558	0.40126	1.324
Mof_Zn	Zn	0.43834	0.41024	0.33474	1.224
Mof_Zn	Zn	0.23562	0.3992	0.34252	1.207
Mof_O 	O 	0.7871	0.9016	0.81917	-0.753
Mof_O 	O 	0.8818	0.9025	0.81551	-0.736
Mof_O 	O 	0.7849	0.8115	0.89589	-0.787
Mof_O 	O 	0.7393	0.9582	0.85853	-0.756
Mof_O 	O 	0.7401	0.8483	0.86461	-0.792
Mof_O 	O 	0.9388	0.8552	0.8549	-0.732
Mof_O 	O 	0.758	0.8684	0.93125	-0.653
Mof_O 	O 	0.7891	0.9922	0.82188	-0.56
Mof_O 	O 	0.708	0.9105	0.89593	-0.661
Mof_O 	O 	0.8399	0.7709	0.863	-0.649
Mof_O 	O 	0.9871	0.9092	0.81067	-0.484
Mof_O 	O 	0.7898	0.8135	0.82796	-0.661
Mof_O 	O 	0.8833	0.813	0.82359	-0.504
Mof_N 	N 	0.1827	0.895	0.67955	-0.323
Mof_C 	C 	0.0274	0.8769	0.7781	-0.115
Mof_C 	C 	0.0459	0.9168	0.7722	0.005
Mof_H 	H 	0.0372	0.9429	0.7806	0.022
Mof_O 	O 	0.9631	0.843	0.7985	-0.313
Mof_C 	C 	0.9933	0.8745	0.7983	0.329
Mof_C 	C 	0.118	0.8884	0.7172	0.123
Mof_C 	C 	0.0794	0.9197	0.7527	-0.083
Mof_H 	H 	0.0966	0.946	0.7509	0.038
Mof_C 	C 	0.0858	0.8838	0.7371	-0.023
Mof_C 	C 	0.1494	0.9219	0.7166	-0.188
Mof_H 	H 	0.1495	0.9435	0.7291	0.071
Mof_C 	C 	0.1833	0.9253	0.6969	0.077
Mof_H 	H 	0.2048	0.9485	0.6969	-0.053
Mof_C 	C 	0.0345	0.8415	0.7626	-0.001
Mof_H 	H 	0.0208	0.8136	0.7657	0.023
Mof_C 	C 	0.1162	0.866	0.6975	-0.234
Mof_H 	H 	0.0916	0.8468	0.695	0.082
Mof_C 	C 	0.1515	0.8688	0.6784	0.15
Mof_H 	H 	0.1495	0.8496	0.6649	-0.087
Mof_C 	C 	0.0633	0.8472	0.7414	-0.078
Mof_H 	H 	0.0658	0.8232	0.7303	0.033
Mof_Mo	Mo	0.83286	0.94636	0.81031	1.067
Mof_Mo	Mo	0.73841	0.97183	0.89396	1.048
Mof_Mo	Mo	0.83452	0.85686	0.81292	1.07
Mof_Mo	Mo	0.89989	0.80226	0.85927	1.026
Mof_Mo	Mo	0.78354	0.79654	0.8596	1.307
Mof_Mo	Mo	0.73442	0.85558	0.90126	1.324
Mof_Zn	Zn	0.93834	0.91024	0.83474	1.224
Mof_Zn	Zn	0.73562	0.8992	0.84252	1.207
Mof_O 	O 	0.6516	0.5371	0.56917	-0.753
Mof_O 	O 	0.6525	0.6318	0.56551	-0.736
Mof_O 	O 	0.5615	0.5349	0.64589	-0.787
Mof_O 	O 	0.7082	0.4893	0.60853	-0.756
Mof_O 	O 	0.5983	0.4901	0.61461	-0.792
Mof_O 	O 	0.6052	0.6888	0.6049	-0.732
Mof_O 	O 	0.6184	0.508	0.68125	-0.653
Mof_O 	O 	0.7422	0.5391	0.57188	-0.56
Mof_O 	O 	0.6605	0.458	0.64593	-0.661
Mof_O 	O 	0.5209	0.5899	0.613	-0.649
Mof_O 	O 	0.6592	0.7371	0.56067	-0.484
Mof_O 	O 	0.5635	0.5398	0.57796	-0.661
Mof_O 	O 	0.563	0.6333	0.57359	-0.504
Mof_N 	N 	0.645	0.9327	0.42955	-0.323
Mof_C 	C 	0.6269	0.7774	0.5281	-0.115
Mof_C 	C 	0.6668	0.7959	0.5222	0.005
Mof_H 	H 	0.6929	0.7872	0.5306	0.022
Mof_O 	O 	0.593	0.7131	0.5485	-0.313
Mof_C 	C 	0.6245	0.7433	0.5483	0.33
Mof_C 	C 	0.6384	0.868	0.4672	0.123
Mof_C 	C 	0.6697	0.8294	0.5027	-0.083
Mof_H 	H 	0.696	0.8466	0.5009	0.038
Mof_C 	C 	0.6338	0.8358	0.4871	-0.023
Mof_C 	C 	0.6719	0.8994	0.4666	-0.188
Mof_H 	H 	0.6935	0.8995	0.4791	0.071
Mof_C 	C 	0.6753	0.9333	0.4469	0.077
Mof_H 	H 	0.6985	0.9548	0.4469	-0.053
Mof_C 	C 	0.5915	0.7845	0.5126	-0.001
Mof_H 	H 	0.5636	0.7708	0.5157	0.023
Mof_C 	C 	0.616	0.8662	0.4475	-0.234
Mof_H 	H 	0.5968	0.8416	0.445	0.082
Mof_C 	C 	0.6188	0.9015	0.4284	0.15
Mof_H 	H 	0.5996	0.8995	0.4149	-0.087
Mof_C 	C 	0.5972	0.8133	0.4914	-0.078
Mof_H 	H 	0.5732	0.8158	0.4803	0.033
Mof_Mo	Mo	0.69636	0.58286	0.56031	1.067
Mof_Mo	Mo	0.72183	0.48841	0.64396	1.048
Mof_Mo	Mo	0.60686	0.58452	0.56292	1.07
Mof_Mo	Mo	0.55226	0.64989	0.60927	1.026
Mof_Mo	Mo	0.54654	0.53354	0.6096	1.307
Mof_Mo	Mo	0.60558	0.48442	0.65126	1.324
Mof_Zn	Zn	0.66024	0.68834	0.58474	1.224
Mof_Zn	Zn	0.6492	0.48562	0.59252	1.207
Mof_O 	O 	0.1516	0.0371	0.06917	-0.753
Mof_O 	O 	0.1525	0.1318	0.06551	-0.736
Mof_O 	O 	0.0615	0.0349	0.14589	-0.787
Mof_O 	O 	0.2082	0.9893	0.10853	-0.756
Mof_O 	O 	0.0983	0.9901	0.11461	-0.792
Mof_O 	O 	0.1052	0.1888	0.1049	-0.732
Mof_O 	O 	0.1184	0.008	0.18125	-0.653
Mof_O 	O 	0.2422	0.0391	0.07188	-0.56
Mof_O 	O 	0.1605	0.958	0.14593	-0.661
Mof_O 	O 	0.0209	0.0899	0.113	-0.649
Mof_O 	O 	0.1592	0.2371	0.06067	-0.484
Mof_O 	O 	0.0635	0.0398	0.07796	-0.661
Mof_O 	O 	0.063	0.1333	0.07359	-0.504
Mof_N 	N 	0.145	0.4327	0.92955	-0.323
Mof_C 	C 	0.1269	0.2774	0.0281	-0.115
Mof_C 	C 	0.1668	0.2959	0.0222	0.005
Mof_H 	H 	0.1929	0.2872	0.0306	0.022
Mof_O 	O 	0.093	0.2131	0.0485	-0.313
Mof_C 	C 	0.1245	0.2433	0.0483	0.33
Mof_C 	C 	0.1384	0.368	0.9672	0.123
Mof_C 	C 	0.1697	0.3294	0.0027	-0.083
Mof_H 	H 	0.196	0.3466	0.0009	0.038
Mof_C 	C 	0.1338	0.3358	0.9871	-0.023
Mof_C 	C 	0.1719	0.3994	0.9666	-0.188
Mof_H 	H 	0.1935	0.3995	0.9791	0.071
Mof_C 	C 	0.1753	0.4333	0.9469	0.077
Mof_H 	H 	0.1985	0.4548	0.9469	-0.053
Mof_C 	C 	0.0915	0.2845	0.0126	-0.001
Mof_H 	H 	0.0636	0.2708	0.0157	0.023
Mof_C 	C 	0.116	0.3662	0.9475	-0.234
Mof_H 	H 	0.0968	0.3416	0.945	0.082
Mof_C 	C 	0.1188	0.4015	0.9284	0.15
Mof_H 	H 	0.0996	0.3995	0.9149	-0.087
Mof_C 	C 	0.0972	0.3133	0.9914	-0.078
Mof_H 	H 	0.0732	0.3158	0.9803	0.033
Mof_Mo	Mo	0.19636	0.08286	0.06031	1.067
Mof_Mo	Mo	0.22183	0.98841	0.14396	1.048
Mof_Mo	Mo	0.10686	0.08452	0.06292	1.07
Mof_Mo	Mo	0.05226	0.14989	0.10927	1.026
Mof_Mo	Mo	0.04654	0.03354	0.1096	1.307
Mof_Mo	Mo	0.10558	0.98442	0.15126	1.324
Mof_Zn	Zn	0.16024	0.18834	0.08474	1.224
Mof_Zn	Zn	0.1492	0.98562	0.09252	1.207
Mof_O 	O 	0.7129	0.5984	0.68083	-0.753
Mof_O 	O 	0.6182	0.5975	0.68449	-0.736
Mof_O 	O 	0.7151	0.6885	0.60411	-0.787
Mof_O 	O 	0.7607	0.5418	0.64147	-0.756
Mof_O 	O 	0.7599	0.6517	0.63539	-0.792
Mof_O 	O 	0.5612	0.6448	0.6451	-0.732
Mof_O 	O 	0.742	0.6316	0.56875	-0.653
Mof_O 	O 	0.7109	0.5078	0.67812	-0.56
Mof_O 	O 	0.792	0.5895	0.60407	-0.661
Mof_O 	O 	0.6601	0.7291	0.637	-0.649
Mof_O 	O 	0.5129	0.5908	0.68933	-0.484
Mof_O 	O 	0.7102	0.6865	0.67204	-0.661
Mof_O 	O 	0.6167	0.687	0.67641	-0.504
Mof_N 	N 	0.3173	0.605	0.82045	-0.323
Mof_C 	C 	0.4726	0.6231	0.7219	-0.115
Mof_C 	C 	0.4541	0.5832	0.7278	0.005
Mof_H 	H 	0.4628	0.5571	0.7194	0.022
Mof_O 	O 	0.5369	0.657	0.7015	-0.313
Mof_C 	C 	0.5067	0.6255	0.7017	0.33
Mof_C 	C 	0.382	0.6116	0.7828	0.123
Mof_C 	C 	0.4206	0.5803	0.7473	-0.083
Mof_H 	H 	0.4034	0.554	0.7491	0.038
Mof_C 	C 	0.4142	0.6162	0.7629	-0.023
Mof_C 	C 	0.3506	0.5781	0.7834	-0.188
Mof_H 	H 	0.3505	0.5565	0.7709	0.071
Mof_C 	C 	0.3167	0.5747	0.8031	0.077
Mof_H 	H 	0.2952	0.5515	0.8031	-0.053
Mof_C 	C 	0.4655	0.6585	0.7374	-0.001
Mof_H 	H 	0.4792	0.6864	0.7343	0.023
Mof_C 	C 	0.3838	0.634	0.8025	-0.234
Mof_H 	H 	0.4084	0.6532	0.805	0.082
Mof_C 	C 	0.3485	0.6312	0.8216	0.15
Mof_H 	H 	0.3505	0.6504	0.8351	-0.087
Mof_C 	C 	0.4367	0.6528	0.7586	-0.078
Mof_H 	H 	0.4342	0.6768	0.7697	0.033
Mof_Mo	Mo	0.66714	0.55364	0.68969	1.067
Mof_Mo	Mo	0.76159	0.52817	0.60604	1.048
Mof_Mo	Mo	0.66548	0.64314	0.68708	1.07
Mof_Mo	Mo	0.60011	0.69774	0.64073	1.026
Mof_Mo	Mo	0.71646	0.70346	0.6404	1.307
Mof_Mo	Mo	0.76558	0.64442	0.59874	1.324
Mof_Zn	Zn	0.56166	0.58976	0.66526	1.224
Mof_Zn	Zn	0.76438	0.6008	0.65748	1.207
Mof_O 	O 	0.2129	0.0984	0.18083	-0.753
Mof_O 	O 	0.1182	0.0975	0.18449	-0.736
Mof_O 	O 	0.2151	0.1885	0.10411	-0.787
Mof_O 	O 	0.2607	0.0418	0.14147	-0.756
Mof_O 	O 	0.2599	0.1517	0.13539	-0.792
Mof_O 	O 	0.0612	0.1448	0.1451	-0.732
Mof_O 	O 	0.242	0.1316	0.06875	-0.653
Mof_O 	O 	0.2109	0.0078	0.17812	-0.56
Mof_O 	O 	0.292	0.0895	0.10407	-0.661
Mof_O 	O 	0.1601	0.2291	0.137	-0.649
Mof_O 	O 	0.0129	0.0908	0.18933	-0.484
Mof_O 	O 	0.2102	0.1865	0.17204	-0.661
Mof_O 	O 	0.1167	0.187	0.17641	-0.504
Mof_N 	N 	0.8173	0.105	0.32045	-0.323
Mof_C 	C 	0.9726	0.1231	0.2219	-0.115
Mof_C 	C 	0.9541	0.0832	0.2278	0.005
Mof_H 	H 	0.9628	0.0571	0.2194	0.022
Mof_O 	O 	0.0369	0.157	0.2015	-0.313
Mof_C 	C 	0.0067	0.1255	0.2017	0.329
Mof_C 	C 	0.882	0.1116	0.2828	0.123
Mof_C 	C 	0.9206	0.0803	0.2473	-0.083
Mof_H 	H 	0.9034	0.054	0.2491	0.038
Mof_C 	C 	0.9142	0.1162	0.2629	-0.023
Mof_C 	C 	0.8506	0.0781	0.2834	-0.188
Mof_H 	H 	0.8505	0.0565	0.2709	0.071
Mof_C 	C 	0.8167	0.0747	0.3031	0.077
Mof_H 	H 	0.7952	0.0515	0.3031	-0.053
Mof_C 	C 	0.9655	0.1585	0.2374	-0.001
Mof_H 	H 	0.9792	0.1864	0.2343	0.023
Mof_C 	C 	0.8838	0.134	0.3025	-0.234
Mof_H 	H 	0.9084	0.1532	0.305	0.082
Mof_C 	C 	0.8485	0.1312	0.3216	0.15
Mof_H 	H 	0.8505	0.1504	0.3351	-0.087
Mof_C 	C 	0.9367	0.1528	0.2586	-0.078
Mof_H 	H 	0.9342	0.1768	0.2697	0.033
Mof_Mo	Mo	0.16714	0.05364	0.18969	1.067
Mof_Mo	Mo	0.26159	0.02817	0.10604	1.048
Mof_Mo	Mo	0.16548	0.14314	0.18708	1.07
Mof_Mo	Mo	0.10011	0.19774	0.14073	1.026
Mof_Mo	Mo	0.21646	0.20346	0.1404	1.307
Mof_Mo	Mo	0.26558	0.14442	0.09874	1.324
Mof_Zn	Zn	0.06166	0.08976	0.16526	1.224
Mof_Zn	Zn	0.26438	0.1008	0.15748	1.207
Mof_O 	O 	0.1516	0.5371	0.93083	-0.753
Mof_O 	O 	0.1525	0.6318	0.93449	-0.736
Mof_O 	O 	0.0615	0.5349	0.85411	-0.787
Mof_O 	O 	0.2082	0.4893	0.89147	-0.756
Mof_O 	O 	0.0983	0.4901	0.88539	-0.792
Mof_O 	O 	0.1052	0.6888	0.8951	-0.732
Mof_O 	O 	0.1184	0.508	0.81875	-0.653
Mof_O 	O 	0.2422	0.5391	0.92812	-0.56
Mof_O 	O 	0.1605	0.458	0.85407	-0.661
Mof_O 	O 	0.0209	0.5899	0.887	-0.649
Mof_O 	O 	0.1592	0.7371	0.93933	-0.484
Mof_O 	O 	0.0635	0.5398	0.92204	-0.661
Mof_O 	O 	0.063	0.6333	0.92641	-0.504
Mof_N 	N 	0.145	0.9327	0.07045	-0.323
Mof_C 	C 	0.1269	0.7774	0.9719	-0.115
Mof_C 	C 	0.1668	0.7959	0.9778	0.005
Mof_H 	H 	0.1929	0.7872	0.9694	0.022
Mof_O 	O 	0.093	0.7131	0.9515	-0.313
Mof_C 	C 	0.1245	0.7433	0.9517	0.33
Mof_C 	C 	0.1384	0.868	0.0328	0.123
Mof_C 	C 	0.1697	0.8294	0.9973	-0.083
Mof_H 	H 	0.196	0.8466	0.9991	0.038
Mof_C 	C 	0.1338	0.8358	0.0129	-0.023
Mof_C 	C 	0.1719	0.8994	0.0334	-0.188
Mof_H 	H 	0.1935	0.8995	0.0209	0.071
Mof_C 	C 	0.1753	0.9333	0.0531	0.077
Mof_H 	H 	0.1985	0.9548	0.0531	-0.053
Mof_C 	C 	0.0915	0.7845	0.9874	-0.001
Mof_H 	H 	0.0636	0.7708	0.9843	0.023
Mof_C 	C 	0.116	0.8662	0.0525	-0.234
Mof_H 	H 	0.0968	0.8416	0.055	0.082
Mof_C 	C 	0.1188	0.9015	0.0716	0.15
Mof_H 	H 	0.0996	0.8995	0.0851	-0.087
Mof_C 	C 	0.0972	0.8133	0.0086	-0.078
Mof_H 	H 	0.0732	0.8158	0.0197	0.033
Mof_Mo	Mo	0.19636	0.58286	0.93969	1.067
Mof_Mo	Mo	0.22183	0.48841	0.85604	1.048
Mof_Mo	Mo	0.10686	0.58452	0.93708	1.07
Mof_Mo	Mo	0.05226	0.64989	0.89073	1.026
Mof_Mo	Mo	0.04654	0.53354	0.8904	1.307
Mof_Mo	Mo	0.10558	0.48442	0.84874	1.324
Mof_Zn	Zn	0.16024	0.68834	0.91526	1.224
Mof_Zn	Zn	0.1492	0.48562	0.90748	1.207
Mof_O 	O 	0.6516	0.0371	0.43083	-0.753
Mof_O 	O 	0.6525	0.1318	0.43449	-0.736
Mof_O 	O 	0.5615	0.0349	0.35411	-0.787
Mof_O 	O 	0.7082	0.9893	0.39147	-0.756
Mof_O 	O 	0.5983	0.9901	0.38539	-0.792
Mof_O 	O 	0.6052	0.1888	0.3951	-0.732
Mof_O 	O 	0.6184	0.008	0.31875	-0.653
Mof_O 	O 	0.7422	0.0391	0.42812	-0.56
Mof_O 	O 	0.6605	0.958	0.35407	-0.661
Mof_O 	O 	0.5209	0.0899	0.387	-0.649
Mof_O 	O 	0.6592	0.2371	0.43933	-0.484
Mof_O 	O 	0.5635	0.0398	0.42204	-0.66
Mof_O 	O 	0.563	0.1333	0.42641	-0.504
Mof_N 	N 	0.645	0.4327	0.57045	-0.323
Mof_C 	C 	0.6269	0.2774	0.4719	-0.115
Mof_C 	C 	0.6668	0.2959	0.4778	0.005
Mof_H 	H 	0.6929	0.2872	0.4694	0.022
Mof_O 	O 	0.593	0.2131	0.4515	-0.313
Mof_C 	C 	0.6245	0.2433	0.4517	0.33
Mof_C 	C 	0.6384	0.368	0.5328	0.123
Mof_C 	C 	0.6697	0.3294	0.4973	-0.083
Mof_H 	H 	0.696	0.3466	0.4991	0.038
Mof_C 	C 	0.6338	0.3358	0.5129	-0.023
Mof_C 	C 	0.6719	0.3994	0.5334	-0.188
Mof_H 	H 	0.6935	0.3995	0.5209	0.071
Mof_C 	C 	0.6753	0.4333	0.5531	0.077
Mof_H 	H 	0.6985	0.4548	0.5531	-0.053
Mof_C 	C 	0.5915	0.2845	0.4874	-0.001
Mof_H 	H 	0.5636	0.2708	0.4843	0.023
Mof_C 	C 	0.616	0.3662	0.5525	-0.234
Mof_H 	H 	0.5968	0.3416	0.555	0.082
Mof_C 	C 	0.6188	0.4015	0.5716	0.15
Mof_H 	H 	0.5996	0.3995	0.5851	-0.087
Mof_C 	C 	0.5972	0.3133	0.5086	-0.078
Mof_H 	H 	0.5732	0.3158	0.5197	0.033
Mof_Mo	Mo	0.69636	0.08286	0.43969	1.067
Mof_Mo	Mo	0.72183	0.98841	0.35604	1.048
Mof_Mo	Mo	0.60686	0.08452	0.43708	1.07
Mof_Mo	Mo	0.55226	0.14989	0.39073	1.026
Mof_Mo	Mo	0.54654	0.03354	0.3904	1.307
Mof_Mo	Mo	0.60558	0.98442	0.34874	1.324
Mof_Zn	Zn	0.66024	0.18834	0.41526	1.224
Mof_Zn	Zn	0.6492	0.98562	0.40748	1.207
Mof_O 	O 	0.2129	0.5984	0.81917	-0.753
Mof_O 	O 	0.1182	0.5975	0.81551	-0.736
Mof_O 	O 	0.2151	0.6885	0.89589	-0.787
Mof_O 	O 	0.2607	0.5418	0.85853	-0.756
Mof_O 	O 	0.2599	0.6517	0.86461	-0.792
Mof_O 	O 	0.0612	0.6448	0.8549	-0.732
Mof_O 	O 	0.242	0.6316	0.93125	-0.653
Mof_O 	O 	0.2109	0.5078	0.82188	-0.56
Mof_O 	O 	0.292	0.5895	0.89593	-0.661
Mof_O 	O 	0.1601	0.7291	0.863	-0.649
Mof_O 	O 	0.0129	0.5908	0.81067	-0.484
Mof_O 	O 	0.2102	0.6865	0.82796	-0.661
Mof_O 	O 	0.1167	0.687	0.82359	-0.504
Mof_N 	N 	0.8173	0.605	0.67955	-0.323
Mof_C 	C 	0.9726	0.6231	0.7781	-0.115
Mof_C 	C 	0.9541	0.5832	0.7722	0.005
Mof_H 	H 	0.9628	0.5571	0.7806	0.022
Mof_O 	O 	0.0369	0.657	0.7985	-0.313
Mof_C 	C 	0.0067	0.6255	0.7983	0.33
Mof_C 	C 	0.882	0.6116	0.7172	0.123
Mof_C 	C 	0.9206	0.5803	0.7527	-0.083
Mof_H 	H 	0.9034	0.554	0.7509	0.038
Mof_C 	C 	0.9142	0.6162	0.7371	-0.023
Mof_C 	C 	0.8506	0.5781	0.7166	-0.188
Mof_H 	H 	0.8505	0.5565	0.7291	0.071
Mof_C 	C 	0.8167	0.5747	0.6969	0.077
Mof_H 	H 	0.7952	0.5515	0.6969	-0.053
Mof_C 	C 	0.9655	0.6585	0.7626	-0.001
Mof_H 	H 	0.9792	0.6864	0.7657	0.023
Mof_C 	C 	0.8838	0.634	0.6975	-0.234
Mof_H 	H 	0.9084	0.6532	0.695	0.082
Mof_C 	C 	0.8485	0.6312	0.6784	0.15
Mof_H 	H 	0.8505	0.6504	0.6649	-0.087
Mof_C 	C 	0.9367	0.6528	0.7414	-0.078
Mof_H 	H 	0.9342	0.6768	0.7303	0.033
Mof_Mo	Mo	0.16714	0.55364	0.81031	1.067
Mof_Mo	Mo	0.26159	0.52817	0.89396	1.048
Mof_Mo	Mo	0.16548	0.64314	0.81292	1.07
Mof_Mo	Mo	0.10011	0.69774	0.85927	1.026
Mof_Mo	Mo	0.21646	0.70346	0.8596	1.307
Mof_Mo	Mo	0.26558	0.64442	0.90126	1.324
Mof_Zn	Zn	0.06166	0.58976	0.83474	1.224
Mof_Zn	Zn	0.26438	0.6008	0.84252	1.207
Mof_O 	O 	0.7129	0.0984	0.31917	-0.753
Mof_O 	O 	0.6182	0.0975	0.31551	-0.736
Mof_O 	O 	0.7151	0.1885	0.39589	-0.787
Mof_O 	O 	0.7607	0.0418	0.35853	-0.756
Mof_O 	O 	0.7599	0.1517	0.36461	-0.792
Mof_O 	O 	0.5612	0.1448	0.3549	-0.732
Mof_O 	O 	0.742	0.1316	0.43125	-0.653
Mof_O 	O 	0.7109	0.0078	0.32188	-0.56
Mof_O 	O 	0.792	0.0895	0.39593	-0.661
Mof_O 	O 	0.6601	0.2291	0.363	-0.649
Mof_O 	O 	0.5129	0.0908	0.31067	-0.484
Mof_O 	O 	0.7102	0.1865	0.32796	-0.661
Mof_O 	O 	0.6167	0.187	0.32359	-0.504
Mof_N 	N 	0.3173	0.105	0.17955	-0.323
Mof_C 	C 	0.4726	0.1231	0.2781	-0.115
Mof_C 	C 	0.4541	0.0832	0.2722	0.005
Mof_H 	H 	0.4628	0.0571	0.2806	0.022
Mof_O 	O 	0.5369	0.157	0.2985	-0.313
Mof_C 	C 	0.5067	0.1255	0.2983	0.33
Mof_C 	C 	0.382	0.1116	0.2172	0.123
Mof_C 	C 	0.4206	0.0803	0.2527	-0.083
Mof_H 	H 	0.4034	0.054	0.2509	0.038
Mof_C 	C 	0.4142	0.1162	0.2371	-0.023
Mof_C 	C 	0.3506	0.0781	0.2166	-0.188
Mof_H 	H 	0.3505	0.0565	0.2291	0.071
Mof_C 	C 	0.3167	0.0747	0.1969	0.077
Mof_H 	H 	0.2952	0.0515	0.1969	-0.053
Mof_C 	C 	0.4655	0.1585	0.2626	-0.001
Mof_H 	H 	0.4792	0.1864	0.2657	0.023
Mof_C 	C 	0.3838	0.134	0.1975	-0.234
Mof_H 	H 	0.4084	0.1532	0.195	0.082
Mof_C 	C 	0.3485	0.1312	0.1784	0.15
Mof_H 	H 	0.3505	0.1504	0.1649	-0.087
Mof_C 	C 	0.4367	0.1528	0.2414	-0.078
Mof_H 	H 	0.4342	0.1768	0.2303	0.033
Mof_Mo	Mo	0.66714	0.05364	0.31031	1.067
Mof_Mo	Mo	0.76159	0.02817	0.39396	1.048
Mof_Mo	Mo	0.66548	0.14314	0.31292	1.07
Mof_Mo	Mo	0.60011	0.19774	0.35927	1.026
Mof_Mo	Mo	0.71646	0.20346	0.3596	1.307
Mof_Mo	Mo	0.76558	0.14442	0.40126	1.324
Mof_Zn	Zn	0.56166	0.08976	0.33474	1.224
Mof_Zn	Zn	0.76438	0.1008	0.34252	1.207
Mof_O 	O 	0.7871	0.5984	0.31917	-0.753
Mof_O 	O 	0.8818	0.5975	0.31551	-0.736
Mof_O 	O 	0.7849	0.6885	0.39589	-0.787
Mof_O 	O 	0.7393	0.5418	0.35853	-0.756
Mof_O 	O 	0.7401	0.6517	0.36461	-0.792
Mof_O 	O 	0.9388	0.6448	0.3549	-0.732
Mof_O 	O 	0.758	0.6316	0.43125	-0.653
Mof_O 	O 	0.7891	0.5078	0.32188	-0.56
Mof_O 	O 	0.708	0.5895	0.39593	-0.661
Mof_O 	O 	0.8399	0.7291	0.363	-0.649
Mof_O 	O 	0.9871	0.5908	0.31067	-0.484
Mof_O 	O 	0.7898	0.6865	0.32796	-0.661
Mof_O 	O 	0.8833	0.687	0.32359	-0.504
Mof_N 	N 	0.1827	0.605	0.17955	-0.323
Mof_C 	C 	0.0274	0.6231	0.2781	-0.115
Mof_C 	C 	0.0459	0.5832	0.2722	0.005
Mof_H 	H 	0.0372	0.5571	0.2806	0.022
Mof_O 	O 	0.9631	0.657	0.2985	-0.313
Mof_C 	C 	0.9933	0.6255	0.2983	0.33
Mof_C 	C 	0.118	0.6116	0.2172	0.123
Mof_C 	C 	0.0794	0.5803	0.2527	-0.083
Mof_H 	H 	0.0966	0.554	0.2509	0.038
Mof_C 	C 	0.0858	0.6162	0.2371	-0.023
Mof_C 	C 	0.1494	0.5781	0.2166	-0.188
Mof_H 	H 	0.1495	0.5565	0.2291	0.071
Mof_C 	C 	0.1833	0.5747	0.1969	0.077
Mof_H 	H 	0.2048	0.5515	0.1969	-0.053
Mof_C 	C 	0.0345	0.6585	0.2626	-0.001
Mof_H 	H 	0.0208	0.6864	0.2657	0.023
Mof_C 	C 	0.1162	0.634	0.1975	-0.234
Mof_H 	H 	0.0916	0.6532	0.195	0.082
Mof_C 	C 	0.1515	0.6312	0.1784	0.15
Mof_H 	H 	0.1495	0.6504	0.1649	-0.087
Mof_C 	C 	0.0633	0.6528	0.2414	-0.078
Mof_H 	H 	0.0658	0.6768	0.2303	0.033
Mof_Mo	Mo	0.83286	0.55364	0.31031	1.067
Mof_Mo	Mo	0.73841	0.52817	0.39396	1.048
Mof_Mo	Mo	0.83452	0.64314	0.31292	1.07
Mof_Mo	Mo	0.89989	0.69774	0.35927	1.026
Mof_Mo	Mo	0.78354	0.70346	0.3596	1.307
Mof_Mo	Mo	0.73442	0.64442	0.40126	1.324
Mof_Zn	Zn	0.93834	0.58976	0.33474	1.224
Mof_Zn	Zn	0.73562	0.6008	0.34252	1.207
Mof_O 	O 	0.2871	0.0984	0.81917	-0.753
Mof_O 	O 	0.3818	0.0975	0.81551	-0.736
Mof_O 	O 	0.2849	0.1885	0.89589	-0.787
Mof_O 	O 	0.2393	0.0418	0.85853	-0.756
Mof_O 	O 	0.2401	0.1517	0.86461	-0.792
Mof_O 	O 	0.4388	0.1448	0.8549	-0.732
Mof_O 	O 	0.258	0.1316	0.93125	-0.653
Mof_O 	O 	0.2891	0.0078	0.82188	-0.56
Mof_O 	O 	0.208	0.0895	0.89593	-0.661
Mof_O 	O 	0.3399	0.2291	0.863	-0.649
Mof_O 	O 	0.4871	0.0908	0.81067	-0.484
Mof_O 	O 	0.2898	0.1865	0.82796	-0.661
Mof_O 	O 	0.3833	0.187	0.82359	-0.504
Mof_N 	N 	0.6827	0.105	0.67955	-0.323
Mof_C 	C 	0.5274	0.1231	0.7781	-0.115
Mof_C 	C 	0.5459	0.0832	0.7722	0.005
Mof_H 	H 	0.5372	0.0571	0.7806	0.022
Mof_O 	O 	0.4631	0.157	0.7985	-0.313
Mof_C 	C 	0.4933	0.1255	0.7983	0.33
Mof_C 	C 	0.618	0.1116	0.7172	0.123
Mof_C 	C 	0.5794	0.0803	0.7527	-0.083
Mof_H 	H 	0.5966	0.054	0.7509	0.038
Mof_C 	C 	0.5858	0.1162	0.7371	-0.023
Mof_C 	C 	0.6494	0.0781	0.7166	-0.188
Mof_H 	H 	0.6495	0.0565	0.7291	0.071
Mof_C 	C 	0.6833	0.0747	0.6969	0.077
Mof_H 	H 	0.7048	0.0515	0.6969	-0.053
Mof_C 	C 	0.5345	0.1585	0.7626	-0.001
Mof_H 	H 	0.5208	0.1864	0.7657	0.023
Mof_C 	C 	0.6162	0.134	0.6975	-0.234
Mof_H 	H 	0.5916	0.1532	0.695	0.082
Mof_C 	C 	0.6515	0.1312	0.6784	0.15
Mof_H 	H 	0.6495	0.1504	0.6649	-0.087
Mof_C 	C 	0.5633	0.1528	0.7414	-0.078
Mof_H 	H 	0.5658	0.1768	0.7303	0.033
Mof_Mo	Mo	0.33286	0.05364	0.81031	1.067
Mof_Mo	Mo	0.23841	0.02817	0.89396	1.048
Mof_Mo	Mo	0.33452	0.14314	0.81292	1.07
Mof_Mo	Mo	0.39989	0.19774	0.85927	1.026
Mof_Mo	Mo	0.28354	0.20346	0.8596	1.307
Mof_Mo	Mo	0.23442	0.14442	0.90126	1.324
Mof_Zn	Zn	0.43834	0.08976	0.83474	1.224
Mof_Zn	Zn	0.23562	0.1008	0.84252	1.207
Mof_O 	O 	0.8484	0.5371	0.43083	-0.753
Mof_O 	O 	0.8475	0.6318	0.43449	-0.736
Mof_O 	O 	0.9385	0.5349	0.35411	-0.787
Mof_O 	O 	0.7918	0.4893	0.39147	-0.756
Mof_O 	O 	0.9017	0.4901	0.38539	-0.792
Mof_O 	O 	0.8948	0.6888	0.3951	-0.732
Mof_O 	O 	0.8816	0.508	0.31875	-0.653
Mof_O 	O 	0.7578	0.5391	0.42812	-0.56
Mof_O 	O 	0.8395	0.458	0.35407	-0.661
Mof_O 	O 	0.9791	0.5899	0.387	-0.649
Mof_O 	O 	0.8408	0.7371	0.43933	-0.484
Mof_O 	O 	0.9365	0.5398	0.42204	-0.661
Mof_O 	O 	0.937	0.6333	0.42641	-0.504
Mof_N 	N 	0.855	0.9327	0.57045	-0.323
Mof_C 	C 	0.8731	0.7774	0.4719	-0.115
Mof_C 	C 	0.8332	0.7959	0.4778	0.005
Mof_H 	H 	0.8071	0.7872	0.4694	0.022
Mof_O 	O 	0.907	0.7131	0.4515	-0.313
Mof_C 	C 	0.8755	0.7433	0.4517	0.33
Mof_C 	C 	0.8616	0.868	0.5328	0.123
Mof_C 	C 	0.8303	0.8294	0.4973	-0.083
Mof_H 	H 	0.804	0.8466	0.4991	0.038
Mof_C 	C 	0.8662	0.8358	0.5129	-0.023
Mof_C 	C 	0.8281	0.8994	0.5334	-0.188
Mof_H 	H 	0.8065	0.8995	0.5209	0.071
Mof_C 	C 	0.8247	0.9333	0.5531	0.077
Mof_H 	H 	0.8015	0.9548	0.5531	-0.053
Mof_C 	C 	0.9085	0.7845	0.4874	-0.001
Mof_H 	H 	0.9364	0.7708	0.4843	0.023
Mof_C 	C 	0.884	0.8662	0.5525	-0.234
Mof_H 	H 	0.9032	0.8416	0.555	0.082
Mof_C 	C 	0.8812	0.9015	0.5716	0.15
Mof_H 	H 	0.9004	0.8995	0.5851	-0.087
Mof_C 	C 	0.9028	0.8133	0.5086	-0.078
Mof_H 	H 	0.9268	0.8158	0.5197	0.033
Mof_Mo	Mo	0.80364	0.58286	0.43969	1.067
Mof_Mo	Mo	0.77817	0.48841	0.35604	1.048
Mof_Mo	Mo	0.89314	0.58452	0.43708	1.07
Mof_Mo	Mo	0.94774	0.64989	0.39073	1.026
Mof_Mo	Mo	0.95346	0.53354	0.3904	1.307
Mof_Mo	Mo	0.89442	0.48442	0.34874	1.324
Mof_Zn	Zn	0.83976	0.68834	0.41526	1.224
Mof_Zn	Zn	0.8508	0.48562	0.40748	1.207
Mof_O 	O 	0.3484	0.0371	0.93083	-0.753
Mof_O 	O 	0.3475	0.1318	0.93449	-0.736
Mof_O 	O 	0.4385	0.0349	0.85411	-0.787
Mof_O 	O 	0.2918	0.9893	0.89147	-0.756
Mof_O 	O 	0.4017	0.9901	0.88539	-0.792
Mof_O 	O 	0.3948	0.1888	0.8951	-0.732
Mof_O 	O 	0.3816	0.008	0.81875	-0.653
Mof_O 	O 	0.2578	0.0391	0.92812	-0.56
Mof_O 	O 	0.3395	0.958	0.85407	-0.661
Mof_O 	O 	0.4791	0.0899	0.887	-0.649
Mof_O 	O 	0.3408	0.2371	0.93933	-0.484
Mof_O 	O 	0.4365	0.0398	0.92204	-0.66
Mof_O 	O 	0.437	0.1333	0.92641	-0.504
Mof_N 	N 	0.355	0.4327	0.07045	-0.323
Mof_C 	C 	0.3731	0.2774	0.9719	-0.115
Mof_C 	C 	0.3332	0.2959	0.9778	0.005
Mof_H 	H 	0.3071	0.2872	0.9694	0.022
Mof_O 	O 	0.407	0.2131	0.9515	-0.313
Mof_C 	C 	0.3755	0.2433	0.9517	0.33
Mof_C 	C 	0.3616	0.368	0.0328	0.123
Mof_C 	C 	0.3303	0.3294	0.9973	-0.083
Mof_H 	H 	0.304	0.3466	0.9991	0.038
Mof_C 	C 	0.3662	0.3358	0.0129	-0.023
Mof_C 	C 	0.3281	0.3994	0.0334	-0.188
Mof_H 	H 	0.3065	0.3995	0.0209	0.071
Mof_C 	C 	0.3247	0.4333	0.0531	0.077
Mof_H 	H 	0.3015	0.4548	0.0531	-0.053
Mof_C 	C 	0.4085	0.2845	0.9874	-0.001
Mof_H 	H 	0.4364	0.2708	0.9843	0.023
Mof_C 	C 	0.384	0.3662	0.0525	-0.234
Mof_H 	H 	0.4032	0.3416	0.055	0.082
Mof_C 	C 	0.3812	0.4015	0.0716	0.15
Mof_H 	H 	0.4004	0.3995	0.0851	-0.087
Mof_C 	C 	0.4028	0.3133	0.0086	-0.078
Mof_H 	H 	0.4268	0.3158	0.0197	0.033
Mof_Mo	Mo	0.30364	0.08286	0.93969	1.067
Mof_Mo	Mo	0.27817	0.98841	0.85604	1.048
Mof_Mo	Mo	0.39314	0.08452	0.93708	1.07
Mof_Mo	Mo	0.44774	0.14989	0.89073	1.026
Mof_Mo	Mo	0.45346	0.03354	0.8904	1.307
Mof_Mo	Mo	0.39442	0.98442	0.84874	1.324
Mof_Zn	Zn	0.33976	0.18834	0.91526	1.224
Mof_Zn	Zn	0.3508	0.98562	0.90748	1.207
Mof_O 	O 	0.2871	0.5984	0.18083	-0.753
Mof_O 	O 	0.3818	0.5975	0.18449	-0.736
Mof_O 	O 	0.2849	0.6885	0.10411	-0.787
Mof_O 	O 	0.2393	0.5418	0.14147	-0.756
Mof_O 	O 	0.2401	0.6517	0.13539	-0.792
Mof_O 	O 	0.4388	0.6448	0.1451	-0.732
Mof_O 	O 	0.258	0.6316	0.06875	-0.653
Mof_O 	O 	0.2891	0.5078	0.17812	-0.56
Mof_O 	O 	0.208	0.5895	0.10407	-0.661
Mof_O 	O 	0.3399	0.7291	0.137	-0.649
Mof_O 	O 	0.4871	0.5908	0.18933	-0.484
Mof_O 	O 	0.2898	0.6865	0.17204	-0.661
Mof_O 	O 	0.3833	0.687	0.17641	-0.504
Mof_N 	N 	0.6827	0.605	0.32045	-0.323
Mof_C 	C 	0.5274	0.6231	0.2219	-0.115
Mof_C 	C 	0.5459	0.5832	0.2278	0.005
Mof_H 	H 	0.5372	0.5571	0.2194	0.022
Mof_O 	O 	0.4631	0.657	0.2015	-0.313
Mof_C 	C 	0.4933	0.6255	0.2017	0.33
Mof_C 	C 	0.618	0.6116	0.2828	0.123
Mof_C 	C 	0.5794	0.5803	0.2473	-0.083
Mof_H 	H 	0.5966	0.554	0.2491	0.038
Mof_C 	C 	0.5858	0.6162	0.2629	-0.023
Mof_C 	C 	0.6494	0.5781	0.2834	-0.188
Mof_H 	H 	0.6495	0.5565	0.2709	0.071
Mof_C 	C 	0.6833	0.5747	0.3031	0.077
Mof_H 	H 	0.7048	0.5515	0.3031	-0.053
Mof_C 	C 	0.5345	0.6585	0.2374	-0.001
Mof_H 	H 	0.5208	0.6864	0.2343	0.023
Mof_C 	C 	0.6162	0.634	0.3025	-0.234
Mof_H 	H 	0.5916	0.6532	0.305	0.082
Mof_C 	C 	0.6515	0.6312	0.3216	0.15
Mof_H 	H 	0.6495	0.6504	0.3351	-0.087
Mof_C 	C 	0.5633	0.6528	0.2586	-0.078
Mof_H 	H 	0.5658	0.6768	0.2697	0.033
Mof_Mo	Mo	0.33286	0.55364	0.18969	1.067
Mof_Mo	Mo	0.23841	0.52817	0.10604	1.048
Mof_Mo	Mo	0.33452	0.64314	0.18708	1.07
Mof_Mo	Mo	0.39989	0.69774	0.14073	1.026
Mof_Mo	Mo	0.28354	0.70346	0.1404	1.307
Mof_Mo	Mo	0.23442	0.64442	0.09874	1.324
Mof_Zn	Zn	0.43834	0.58976	0.16526	1.224
Mof_Zn	Zn	0.23562	0.6008	0.15748	1.207
Mof_O 	O 	0.7871	0.0984	0.68083	-0.753
Mof_O 	O 	0.8818	0.0975	0.68449	-0.736
Mof_O 	O 	0.7849	0.1885	0.60411	-0.787
Mof_O 	O 	0.7393	0.0418	0.64147	-0.756
Mof_O 	O 	0.7401	0.1517	0.63539	-0.792
Mof_O 	O 	0.9388	0.1448	0.6451	-0.732
Mof_O 	O 	0.758	0.1316	0.56875	-0.653
Mof_O 	O 	0.7891	0.0078	0.67812	-0.56
Mof_O 	O 	0.708	0.0895	0.60407	-0.661
Mof_O 	O 	0.8399	0.2291	0.637	-0.649
Mof_O 	O 	0.9871	0.0908	0.68933	-0.484
Mof_O 	O 	0.7898	0.1865	0.67204	-0.661
Mof_O 	O 	0.8833	0.187	0.67641	-0.504
Mof_N 	N 	0.1827	0.105	0.82045	-0.323
Mof_C 	C 	0.0274	0.1231	0.7219	-0.115
Mof_C 	C 	0.0459	0.0832	0.7278	0.005
Mof_H 	H 	0.0372	0.0571	0.7194	0.022
Mof_O 	O 	0.9631	0.157	0.7015	-0.313
Mof_C 	C 	0.9933	0.1255	0.7017	0.329
Mof_C 	C 	0.118	0.1116	0.7828	0.123
Mof_C 	C 	0.0794	0.0803	0.7473	-0.083
Mof_H 	H 	0.0966	0.054	0.7491	0.038
Mof_C 	C 	0.0858	0.1162	0.7629	-0.023
Mof_C 	C 	0.1494	0.0781	0.7834	-0.188
Mof_H 	H 	0.1495	0.0565	0.7709	0.071
Mof_C 	C 	0.1833	0.0747	0.8031	0.077
Mof_H 	H 	0.2048	0.0515	0.8031	-0.053
Mof_C 	C 	0.0345	0.1585	0.7374	-0.001
Mof_H 	H 	0.0208	0.1864	0.7343	0.023
Mof_C 	C 	0.1162	0.134	0.8025	-0.234
Mof_H 	H 	0.0916	0.1532	0.805	0.082
Mof_C 	C 	0.1515	0.1312	0.8216	0.15
Mof_H 	H 	0.1495	0.1504	0.8351	-0.087
Mof_C 	C 	0.0633	0.1528	0.7586	-0.078
Mof_H 	H 	0.0658	0.1768	0.7697	0.033
Mof_Mo	Mo	0.83286	0.05364	0.68969	1.067
Mof_Mo	Mo	0.73841	0.02817	0.60604	1.048
Mof_Mo	Mo	0.83452	0.14314	0.68708	1.07
Mof_Mo	Mo	0.89989	0.19774	0.64073	1.026
Mof_Mo	Mo	0.78354	0.20346	0.6404	1.307
Mof_Mo	Mo	0.73442	0.14442	0.59874	1.324
Mof_Zn	Zn	0.93834	0.08976	0.66526	1.224
Mof_Zn	Zn	0.73562	0.1008	0.65748	1.207
Mof_O 	O 	0.3484	0.5371	0.06917	-0.753
Mof_O 	O 	0.3475	0.6318	0.06551	-0.736
Mof_O 	O 	0.4385	0.5349	0.14589	-0.787
Mof_O 	O 	0.2918	0.4893	0.10853	-0.756
Mof_O 	O 	0.4017	0.4901	0.11461	-0.792
Mof_O 	O 	0.3948	0.6888	0.1049	-0.732
Mof_O 	O 	0.3816	0.508	0.18125	-0.653
Mof_O 	O 	0.2578	0.5391	0.07188	-0.56
Mof_O 	O 	0.3395	0.458	0.14593	-0.661
Mof_O 	O 	0.4791	0.5899	0.113	-0.649
Mof_O 	O 	0.3408	0.7371	0.06067	-0.484
Mof_O 	O 	0.4365	0.5398	0.07796	-0.661
Mof_O 	O 	0.437	0.6333	0.07359	-0.504
Mof_N 	N 	0.355	0.9327	0.92955	-0.323
Mof_C 	C 	0.3731	0.7774	0.0281	-0.115
Mof_C 	C 	0.3332	0.7959	0.0222	0.005
Mof_H 	H 	0.3071	0.7872	0.0306	0.022
Mof_O 	O 	0.407	0.7131	0.0485	-0.313
Mof_C 	C 	0.3755	0.7433	0.0483	0.33
Mof_C 	C 	0.3616	0.868	0.9672	0.123
Mof_C 	C 	0.3303	0.8294	0.0027	-0.083
Mof_H 	H 	0.304	0.8466	0.0009	0.038
Mof_C 	C 	0.3662	0.8358	0.9871	-0.023
Mof_C 	C 	0.3281	0.8994	0.9666	-0.188
Mof_H 	H 	0.3065	0.8995	0.9791	0.071
Mof_C 	C 	0.3247	0.9333	0.9469	0.077
Mof_H 	H 	0.3015	0.9548	0.9469	-0.053
Mof_C 	C 	0.4085	0.7845	0.0126	-0.001
Mof_H 	H 	0.4364	0.7708	0.0157	0.023
Mof_C 	C 	0.384	0.8662	0.9475	-0.234
Mof_H 	H 	0.4032	0.8416	0.945	0.082
Mof_C 	C 	0.3812	0.9015	0.9284	0.15
Mof_H 	H 	0.4004	0.8995	0.9149	-0.087
Mof_C 	C 	0.4028	0.8133	0.9914	-0.078
Mof_H 	H 	0.4268	0.8158	0.9803	0.033
Mof_Mo	Mo	0.30364	0.58286	0.06031	1.067
Mof_Mo	Mo	0.27817	0.48841	0.14396	1.048
Mof_Mo	Mo	0.39314	0.58452	0.06292	1.07
Mof_Mo	Mo	0.44774	0.64989	0.10927	1.026
Mof_Mo	Mo	0.45346	0.53354	0.1096	1.307
Mof_Mo	Mo	0.39442	0.48442	0.15126	1.324
Mof_Zn	Zn	0.33976	0.68834	0.08474	1.224
Mof_Zn	Zn	0.3508	0.48562	0.09252	1.207
Mof_O 	O 	0.8484	0.0371	0.56917	-0.753
Mof_O 	O 	0.8475	0.1318	0.56551	-0.736
Mof_O 	O 	0.9385	0.0349	0.64589	-0.787
Mof_O 	O 	0.7918	0.9893	0.60853	-0.756
Mof_O 	O 	0.9017	0.9901	0.61461	-0.792
Mof_O 	O 	0.8948	0.1888	0.6049	-0.732
Mof_O 	O 	0.8816	0.008	0.68125	-0.653
Mof_O 	O 	0.7578	0.0391	0.57188	-0.56
Mof_O 	O 	0.8395	0.958	0.64593	-0.661
Mof_O 	O 	0.9791	0.0899	0.613	-0.649
Mof_O 	O 	0.8408	0.2371	0.56067	-0.484
Mof_O 	O 	0.9365	0.0398	0.57796	-0.661
Mof_O 	O 	0.937	0.1333	0.57359	-0.504
Mof_N 	N 	0.855	0.4327	0.42955	-0.323
Mof_C 	C 	0.8731	0.2774	0.5281	-0.115
Mof_C 	C 	0.8332	0.2959	0.5222	0.005
Mof_H 	H 	0.8071	0.2872	0.5306	0.022
Mof_O 	O 	0.907	0.2131	0.5485	-0.313
Mof_C 	C 	0.8755	0.2433	0.5483	0.33
Mof_C 	C 	0.8616	0.368	0.4672	0.123
Mof_C 	C 	0.8303	0.3294	0.5027	-0.083
Mof_H 	H 	0.804	0.3466	0.5009	0.038
Mof_C 	C 	0.8662	0.3358	0.4871	-0.023
Mof_C 	C 	0.8281	0.3994	0.4666	-0.188
Mof_H 	H 	0.8065	0.3995	0.4791	0.071
Mof_C 	C 	0.8247	0.4333	0.4469	0.077
Mof_H 	H 	0.8015	0.4548	0.4469	-0.053
Mof_C 	C 	0.9085	0.2845	0.5126	-0.001
Mof_H 	H 	0.9364	0.2708	0.5157	0.023
Mof_C 	C 	0.884	0.3662	0.4475	-0.234
Mof_H 	H 	0.9032	0.3416	0.445	0.082
Mof_C 	C 	0.8812	0.4015	0.4284	0.15
Mof_H 	H 	0.9004	0.3995	0.4149	-0.087
Mof_C 	C 	0.9028	0.3133	0.4914	-0.078
Mof_H 	H 	0.9268	0.3158	0.4803	0.033
Mof_Mo	Mo	0.80364	0.08286	0.56031	1.067
Mof_Mo	Mo	0.77817	0.98841	0.64396	1.048
Mof_Mo	Mo	0.89314	0.08452	0.56292	1.07
Mof_Mo	Mo	0.94774	0.14989	0.60927	1.026
Mof_Mo	Mo	0.95346	0.03354	0.6096	1.307
Mof_Mo	Mo	0.89442	0.98442	0.65126	1.324
Mof_Zn	Zn	0.83976	0.18834	0.58474	1.224
Mof_Zn	Zn	0.8508	0.98562	0.59252	1.207
Mof_O 	O 	0.7129	0.4016	0.81917	-0.753
Mof_O 	O 	0.6182	0.4025	0.81551	-0.736
Mof_O 	O 	0.7151	0.3115	0.89589	-0.787
Mof_O 	O 	0.7607	0.4582	0.85853	-0.756
Mof_O 	O 	0.7599	0.3483	0.86461	-0.792
Mof_O 	O 	0.5612	0.3552	0.8549	-0.732
Mof_O 	O 	0.742	0.3684	0.93125	-0.653
Mof_O 	O 	0.7109	0.4922	0.82188	-0.56
Mof_O 	O 	0.792	0.4105	0.89593	-0.661
Mof_O 	O 	0.6601	0.2709	0.863	-0.649
Mof_O 	O 	0.5129	0.4092	0.81067	-0.484
Mof_O 	O 	0.7102	0.3135	0.82796	-0.661
Mof_O 	O 	0.6167	0.313	0.82359	-0.504
Mof_N 	N 	0.3173	0.395	0.67955	-0.323
Mof_C 	C 	0.4726	0.3769	0.7781	-0.115
Mof_C 	C 	0.4541	0.4168	0.7722	0.005
Mof_H 	H 	0.4628	0.4429	0.7806	0.022
Mof_O 	O 	0.5369	0.343	0.7985	-0.313
Mof_C 	C 	0.5067	0.3745	0.7983	0.33
Mof_C 	C 	0.382	0.3884	0.7172	0.123
Mof_C 	C 	0.4206	0.4197	0.7527	-0.083
Mof_H 	H 	0.4034	0.446	0.7509	0.038
Mof_C 	C 	0.4142	0.3838	0.7371	-0.023
Mof_C 	C 	0.3506	0.4219	0.7166	-0.188
Mof_H 	H 	0.3505	0.4435	0.7291	0.071
Mof_C 	C 	0.3167	0.4253	0.6969	0.077
Mof_H 	H 	0.2952	0.4485	0.6969	-0.053
Mof_C 	C 	0.4655	0.3415	0.7626	-0.001
Mof_H 	H 	0.4792	0.3136	0.7657	0.023
Mof_C 	C 	0.3838	0.366	0.6975	-0.234
Mof_H 	H 	0.4084	0.3468	0.695	0.082
Mof_C 	C 	0.3485	0.3688	0.6784	0.15
Mof_H 	H 	0.3505	0.3496	0.6649	-0.087
Mof_C 	C 	0.4367	0.3472	0.7414	-0.078
Mof_H 	H 	0.4342	0.3232	0.7303	0.033
Mof_Mo	Mo	0.66714	0.44636	0.81031	1.067
Mof_Mo	Mo	0.76159	0.47183	0.89396	1.048
Mof_Mo	Mo	0.66548	0.35686	0.81292	1.07
Mof_Mo	Mo	0.60011	0.30226	0.85927	1.026
Mof_Mo	Mo	0.71646	0.29654	0.8596	1.307
Mof_Mo	Mo	0.76558	0.35558	0.90126	1.324
Mof_Zn	Zn	0.56166	0.41024	0.83474	1.224
Mof_Zn	Zn	0.76438	0.3992	0.84252	1.207
Mof_O 	O 	0.2129	0.9016	0.31917	-0.753
Mof_O 	O 	0.1182	0.9025	0.31551	-0.736
Mof_O 	O 	0.2151	0.8115	0.39589	-0.787
Mof_O 	O 	0.2607	0.9582	0.35853	-0.756
Mof_O 	O 	0.2599	0.8483	0.36461	-0.792
Mof_O 	O 	0.0612	0.8552	0.3549	-0.732
Mof_O 	O 	0.242	0.8684	0.43125	-0.653
Mof_O 	O 	0.2109	0.9922	0.32188	-0.56
Mof_O 	O 	0.292	0.9105	0.39593	-0.661
Mof_O 	O 	0.1601	0.7709	0.363	-0.649
Mof_O 	O 	0.0129	0.9092	0.31067	-0.484
Mof_O 	O 	0.2102	0.8135	0.32796	-0.661
Mof_O 	O 	0.1167	0.813	0.32359	-0.504
Mof_N 	N 	0.8173	0.895	0.17955	-0.323
Mof_C 	C 	0.9726	0.8769	0.2781	-0.115
Mof_C 	C 	0.9541	0.9168	0.2722	0.005
Mof_H 	H 	0.9628	0.9429	0.2806	0.022
Mof_O 	O 	0.0369	0.843	0.2985	-0.313
Mof_C 	C 	0.0067	0.8745	0.2983	0.329
Mof_C 	C 	0.882	0.8884	0.2172	0.123
Mof_C 	C 	0.9206	0.9197	0.2527	-0.083
Mof_H 	H 	0.9034	0.946	0.2509	0.038
Mof_C 	C 	0.9142	0.8838	0.2371	-0.023
Mof_C 	C 	0.8506	0.9219	0.2166	-0.188
Mof_H 	H 	0.8505	0.9435	0.2291	0.071
Mof_C 	C 	0.8167	0.9253	0.1969	0.077
Mof_H 	H 	0.7952	0.9485	0.1969	-0.053
Mof_C 	C 	0.9655	0.8415	0.2626	-0.001
Mof_H 	H 	0.9792	0.8136	0.2657	0.023
Mof_C 	C 	0.8838	0.866	0.1975	-0.234
Mof_H 	H 	0.9084	0.8468	0.195	0.082
Mof_C 	C 	0.8485	0.8688	0.1784	0.15
Mof_H 	H 	0.8505	0.8496	0.1649	-0.087
Mof_C 	C 	0.9367	0.8472	0.2414	-0.078
Mof_H 	H 	0.9342	0.8232	0.2303	0.033
Mof_Mo	Mo	0.16714	0.94636	0.31031	1.067
Mof_Mo	Mo	0.26159	0.97183	0.39396	1.048
Mof_Mo	Mo	0.16548	0.85686	0.31292	1.07
Mof_Mo	Mo	0.10011	0.80226	0.35927	1.026
Mof_Mo	Mo	0.21646	0.79654	0.3596	1.307
Mof_Mo	Mo	0.26558	0.85558	0.40126	1.324
Mof_Zn	Zn	0.06166	0.91024	0.33474	1.224
Mof_Zn	Zn	0.26438	0.8992	0.34252	1.207
Mof_O 	O 	0.6516	0.4629	0.93083	-0.753
Mof_O 	O 	0.6525	0.3682	0.93449	-0.736
Mof_O 	O 	0.5615	0.4651	0.85411	-0.787
Mof_O 	O 	0.7082	0.5107	0.89147	-0.756
Mof_O 	O 	0.5983	0.5099	0.88539	-0.792
Mof_O 	O 	0.6052	0.3112	0.8951	-0.732
Mof_O 	O 	0.6184	0.492	0.81875	-0.653
Mof_O 	O 	0.7422	0.4609	0.92812	-0.56
Mof_O 	O 	0.6605	0.542	0.85407	-0.661
Mof_O 	O 	0.5209	0.4101	0.887	-0.649
Mof_O 	O 	0.6592	0.2629	0.93933	-0.484
Mof_O 	O 	0.5635	0.4602	0.92204	-0.661
Mof_O 	O 	0.563	0.3667	0.92641	-0.504
Mof_N 	N 	0.645	0.0673	0.07045	-0.323
Mof_C 	C 	0.6269	0.2226	0.9719	-0.115
Mof_C 	C 	0.6668	0.2041	0.9778	0.005
Mof_H 	H 	0.6929	0.2128	0.9694	0.022
Mof_O 	O 	0.593	0.2869	0.9515	-0.313
Mof_C 	C 	0.6245	0.2567	0.9517	0.33
Mof_C 	C 	0.6384	0.132	0.0328	0.123
Mof_C 	C 	0.6697	0.1706	0.9973	-0.083
Mof_H 	H 	0.696	0.1534	0.9991	0.038
Mof_C 	C 	0.6338	0.1642	0.0129	-0.023
Mof_C 	C 	0.6719	0.1006	0.0334	-0.188
Mof_H 	H 	0.6935	0.1005	0.0209	0.071
Mof_C 	C 	0.6753	0.0667	0.0531	0.077
Mof_H 	H 	0.6985	0.0452	0.0531	-0.053
Mof_C 	C 	0.5915	0.2155	0.9874	-0.001
Mof_H 	H 	0.5636	0.2292	0.9843	0.023
Mof_C 	C 	0.616	0.1338	0.0525	-0.234
Mof_H 	H 	0.5968	0.1584	0.055	0.082
Mof_C 	C 	0.6188	0.0985	0.0716	0.15
Mof_H 	H 	0.5996	0.1005	0.0851	-0.087
Mof_C 	C 	0.5972	0.1867	0.0086	-0.078
Mof_H 	H 	0.5732	0.1842	0.0197	0.033
Mof_Mo	Mo	0.69636	0.41714	0.93969	1.067
Mof_Mo	Mo	0.72183	0.51159	0.85604	1.048
Mof_Mo	Mo	0.60686	0.41548	0.93708	1.07
Mof_Mo	Mo	0.55226	0.35011	0.89073	1.026
Mof_Mo	Mo	0.54654	0.46646	0.8904	1.307
Mof_Mo	Mo	0.60558	0.51558	0.84874	1.324
Mof_Zn	Zn	0.66024	0.31166	0.91526	1.224
Mof_Zn	Zn	0.6492	0.51438	0.90748	1.207
Mof_O 	O 	0.1516	0.9629	0.43083	-0.753
Mof_O 	O 	0.1525	0.8682	0.43449	-0.736
Mof_O 	O 	0.0615	0.9651	0.35411	-0.787
Mof_O 	O 	0.2082	0.0107	0.39147	-0.756
Mof_O 	O 	0.0983	0.0099	0.38539	-0.792
Mof_O 	O 	0.1052	0.8112	0.3951	-0.732
Mof_O 	O 	0.1184	0.992	0.31875	-0.653
Mof_O 	O 	0.2422	0.9609	0.42812	-0.56
Mof_O 	O 	0.1605	0.042	0.35407	-0.661
Mof_O 	O 	0.0209	0.9101	0.387	-0.649
Mof_O 	O 	0.1592	0.7629	0.43933	-0.484
Mof_O 	O 	0.0635	0.9602	0.42204	-0.661
Mof_O 	O 	0.063	0.8667	0.42641	-0.504
Mof_N 	N 	0.145	0.5673	0.57045	-0.323
Mof_C 	C 	0.1269	0.7226	0.4719	-0.115
Mof_C 	C 	0.1668	0.7041	0.4778	0.005
Mof_H 	H 	0.1929	0.7128	0.4694	0.022
Mof_O 	O 	0.093	0.7869	0.4515	-0.313
Mof_C 	C 	0.1245	0.7567	0.4517	0.33
Mof_C 	C 	0.1384	0.632	0.5328	0.123
Mof_C 	C 	0.1697	0.6706	0.4973	-0.083
Mof_H 	H 	0.196	0.6534	0.4991	0.038
Mof_C 	C 	0.1338	0.6642	0.5129	-0.023
Mof_C 	C 	0.1719	0.6006	0.5334	-0.188
Mof_H 	H 	0.1935	0.6005	0.5209	0.071
Mof_C 	C 	0.1753	0.5667	0.5531	0.077
Mof_H 	H 	0.1985	0.5452	0.5531	-0.053
Mof_C 	C 	0.0915	0.7155	0.4874	-0.001
Mof_H 	H 	0.0636	0.7292	0.4843	0.023
Mof_C 	C 	0.116	0.6338	0.5525	-0.234
Mof_H 	H 	0.0968	0.6584	0.555	0.082
Mof_C 	C 	0.1188	0.5985	0.5716	0.15
Mof_H 	H 	0.0996	0.6005	0.5851	-0.087
Mof_C 	C 	0.0972	0.6867	0.5086	-0.078
Mof_H 	H 	0.0732	0.6842	0.5197	0.033
Mof_Mo	Mo	0.19636	0.91714	0.43969	1.067
Mof_Mo	Mo	0.22183	0.01159	0.35604	1.048
Mof_Mo	Mo	0.10686	0.91548	0.43708	1.07
Mof_Mo	Mo	0.05226	0.85011	0.39073	1.026
Mof_Mo	Mo	0.04654	0.96646	0.3904	1.307
Mof_Mo	Mo	0.10558	0.01558	0.34874	1.324
Mof_Zn	Zn	0.16024	0.81166	0.41526	1.224
Mof_Zn	Zn	0.1492	0.01438	0.40748	1.207
Mof_O 	O 	0.2129	0.4016	0.68083	-0.753
Mof_O 	O 	0.1182	0.4025	0.68449	-0.736
Mof_O 	O 	0.2151	0.3115	0.60411	-0.787
Mof_O 	O 	0.2607	0.4582	0.64147	-0.756
Mof_O 	O 	0.2599	0.3483	0.63539	-0.792
Mof_O 	O 	0.0612	0.3552	0.6451	-0.732
Mof_O 	O 	0.242	0.3684	0.56875	-0.653
Mof_O 	O 	0.2109	0.4922	0.67812	-0.56
Mof_O 	O 	0.292	0.4105	0.60407	-0.661
Mof_O 	O 	0.1601	0.2709	0.637	-0.649
Mof_O 	O 	0.0129	0.4092	0.68933	-0.484
Mof_O 	O 	0.2102	0.3135	0.67204	-0.661
Mof_O 	O 	0.1167	0.313	0.67641	-0.504
Mof_N 	N 	0.8173	0.395	0.82045	-0.323
Mof_C 	C 	0.9726	0.3769	0.7219	-0.115
Mof_C 	C 	0.9541	0.4168	0.7278	0.005
Mof_H 	H 	0.9628	0.4429	0.7194	0.022
Mof_O 	O 	0.0369	0.343	0.7015	-0.313
Mof_C 	C 	0.0067	0.3745	0.7017	0.33
Mof_C 	C 	0.882	0.3884	0.7828	0.123
Mof_C 	C 	0.9206	0.4197	0.7473	-0.083
Mof_H 	H 	0.9034	0.446	0.7491	0.038
Mof_C 	C 	0.9142	0.3838	0.7629	-0.023
Mof_C 	C 	0.8506	0.4219	0.7834	-0.188
Mof_H 	H 	0.8505	0.4435	0.7709	0.071
Mof_C 	C 	0.8167	0.4253	0.8031	0.077
Mof_H 	H 	0.7952	0.4485	0.8031	-0.053
Mof_C 	C 	0.9655	0.3415	0.7374	-0.001
Mof_H 	H 	0.9792	0.3136	0.7343	0.023
Mof_C 	C 	0.8838	0.366	0.8025	-0.234
Mof_H 	H 	0.9084	0.3468	0.805	0.082
Mof_C 	C 	0.8485	0.3688	0.8216	0.15
Mof_H 	H 	0.8505	0.3496	0.8351	-0.087
Mof_C 	C 	0.9367	0.3472	0.7586	-0.078
Mof_H 	H 	0.9342	0.3232	0.7697	0.033
Mof_Mo	Mo	0.16714	0.44636	0.68969	1.067
Mof_Mo	Mo	0.26159	0.47183	0.60604	1.048
Mof_Mo	Mo	0.16548	0.35686	0.68708	1.07
Mof_Mo	Mo	0.10011	0.30226	0.64073	1.026
Mof_Mo	Mo	0.21646	0.29654	0.6404	1.307
Mof_Mo	Mo	0.26558	0.35558	0.59874	1.324
Mof_Zn	Zn	0.06166	0.41024	0.66526	1.224
Mof_Zn	Zn	0.26438	0.3992	0.65748	1.207
Mof_O 	O 	0.7129	0.9016	0.18083	-0.753
Mof_O 	O 	0.6182	0.9025	0.18449	-0.736
Mof_O 	O 	0.7151	0.8115	0.10411	-0.787
Mof_O 	O 	0.7607	0.9582	0.14147	-0.756
Mof_O 	O 	0.7599	0.8483	0.13539	-0.792
Mof_O 	O 	0.5612	0.8552	0.1451	-0.732
Mof_O 	O 	0.742	0.8684	0.06875	-0.653
Mof_O 	O 	0.7109	0.9922	0.17812	-0.56
Mof_O 	O 	0.792	0.9105	0.10407	-0.661
Mof_O 	O 	0.6601	0.7709	0.137	-0.649
Mof_O 	O 	0.5129	0.9092	0.18933	-0.484
Mof_O 	O 	0.7102	0.8135	0.17204	-0.661
Mof_O 	O 	0.6167	0.813	0.17641	-0.504
Mof_N 	N 	0.3173	0.895	0.32045	-0.323
Mof_C 	C 	0.4726	0.8769	0.2219	-0.115
Mof_C 	C 	0.4541	0.9168	0.2278	0.005
Mof_H 	H 	0.4628	0.9429	0.2194	0.022
Mof_O 	O 	0.5369	0.843	0.2015	-0.313
Mof_C 	C 	0.5067	0.8745	0.2017	0.33
Mof_C 	C 	0.382	0.8884	0.2828	0.123
Mof_C 	C 	0.4206	0.9197	0.2473	-0.083
Mof_H 	H 	0.4034	0.946	0.2491	0.038
Mof_C 	C 	0.4142	0.8838	0.2629	-0.023
Mof_C 	C 	0.3506	0.9219	0.2834	-0.188
Mof_H 	H 	0.3505	0.9435	0.2709	0.071
Mof_C 	C 	0.3167	0.9253	0.3031	0.077
Mof_H 	H 	0.2952	0.9485	0.3031	-0.053
Mof_C 	C 	0.4655	0.8415	0.2374	-0.001
Mof_H 	H 	0.4792	0.8136	0.2343	0.023
Mof_C 	C 	0.3838	0.866	0.3025	-0.234
Mof_H 	H 	0.4084	0.8468	0.305	0.082
Mof_C 	C 	0.3485	0.8688	0.3216	0.15
Mof_H 	H 	0.3505	0.8496	0.3351	-0.087
Mof_C 	C 	0.4367	0.8472	0.2586	-0.078
Mof_H 	H 	0.4342	0.8232	0.2697	0.033
Mof_Mo	Mo	0.66714	0.94636	0.18969	1.067
Mof_Mo	Mo	0.76159	0.97183	0.10604	1.048
Mof_Mo	Mo	0.66548	0.85686	0.18708	1.07
Mof_Mo	Mo	0.60011	0.80226	0.14073	1.026
Mof_Mo	Mo	0.71646	0.79654	0.1404	1.307
Mof_Mo	Mo	0.76558	0.85558	0.09874	1.324
Mof_Zn	Zn	0.56166	0.91024	0.16526	1.224
Mof_Zn	Zn	0.76438	0.8992	0.15748	1.207
Mof_O 	O 	0.1516	0.4629	0.56917	-0.753
Mof_O 	O 	0.1525	0.3682	0.56551	-0.736
Mof_O 	O 	0.0615	0.4651	0.64589	-0.787
Mof_O 	O 	0.2082	0.5107	0.60853	-0.756
Mof_O 	O 	0.0983	0.5099	0.61461	-0.792
Mof_O 	O 	0.1052	0.3112	0.6049	-0.732
Mof_O 	O 	0.1184	0.492	0.68125	-0.653
Mof_O 	O 	0.2422	0.4609	0.57188	-0.56
Mof_O 	O 	0.1605	0.542	0.64593	-0.661
Mof_O 	O 	0.0209	0.4101	0.613	-0.649
Mof_O 	O 	0.1592	0.2629	0.56067	-0.484
Mof_O 	O 	0.0635	0.4602	0.57796	-0.661
Mof_O 	O 	0.063	0.3667	0.57359	-0.504
Mof_N 	N 	0.145	0.0673	0.42955	-0.323
Mof_C 	C 	0.1269	0.2226	0.5281	-0.115
Mof_C 	C 	0.1668	0.2041	0.5222	0.005
Mof_H 	H 	0.1929	0.2128	0.5306	0.022
Mof_O 	O 	0.093	0.2869	0.5485	-0.313
Mof_C 	C 	0.1245	0.2567	0.5483	0.33
Mof_C 	C 	0.1384	0.132	0.4672	0.123
Mof_C 	C 	0.1697	0.1706	0.5027	-0.083
Mof_H 	H 	0.196	0.1534	0.5009	0.038
Mof_C 	C 	0.1338	0.1642	0.4871	-0.023
Mof_C 	C 	0.1719	0.1006	0.4666	-0.188
Mof_H 	H 	0.1935	0.1005	0.4791	0.071
Mof_C 	C 	0.1753	0.0667	0.4469	0.077
Mof_H 	H 	0.1985	0.0452	0.4469	-0.053
Mof_C 	C 	0.0915	0.2155	0.5126	-0.001
Mof_H 	H 	0.0636	0.2292	0.5157	0.023
Mof_C 	C 	0.116	0.1338	0.4475	-0.234
Mof_H 	H 	0.0968	0.1584	0.445	0.082
Mof_C 	C 	0.1188	0.0985	0.4284	0.15
Mof_H 	H 	0.0996	0.1005	0.4149	-0.087
Mof_C 	C 	0.0972	0.1867	0.4914	-0.078
Mof_H 	H 	0.0732	0.1842	0.4803	0.033
Mof_Mo	Mo	0.19636	0.41714	0.56031	1.067
Mof_Mo	Mo	0.22183	0.51159	0.64396	1.048
Mof_Mo	Mo	0.10686	0.41548	0.56292	1.07
Mof_Mo	Mo	0.05226	0.35011	0.60927	1.026
Mof_Mo	Mo	0.04654	0.46646	0.6096	1.307
Mof_Mo	Mo	0.10558	0.51558	0.65126	1.324
Mof_Zn	Zn	0.16024	0.31166	0.58474	1.224
Mof_Zn	Zn	0.1492	0.51438	0.59252	1.207
Mof_O 	O 	0.6516	0.9629	0.06917	-0.753
Mof_O 	O 	0.6525	0.8682	0.06551	-0.736
Mof_O 	O 	0.5615	0.9651	0.14589	-0.787
Mof_O 	O 	0.7082	0.0107	0.10853	-0.756
Mof_O 	O 	0.5983	0.0099	0.11461	-0.792
Mof_O 	O 	0.6052	0.8112	0.1049	-0.732
Mof_O 	O 	0.6184	0.992	0.18125	-0.653
Mof_O 	O 	0.7422	0.9609	0.07188	-0.56
Mof_O 	O 	0.6605	0.042	0.14593	-0.661
Mof_O 	O 	0.5209	0.9101	0.113	-0.649
Mof_O 	O 	0.6592	0.7629	0.06067	-0.484
Mof_O 	O 	0.5635	0.9602	0.07796	-0.66
Mof_O 	O 	0.563	0.8667	0.07359	-0.504
Mof_N 	N 	0.645	0.5673	0.92955	-0.323
Mof_C 	C 	0.6269	0.7226	0.0281	-0.115
Mof_C 	C 	0.6668	0.7041	0.0222	0.005
Mof_H 	H 	0.6929	0.7128	0.0306	0.022
Mof_O 	O 	0.593	0.7869	0.0485	-0.313
Mof_C 	C 	0.6245	0.7567	0.0483	0.33
Mof_C 	C 	0.6384	0.632	0.9672	0.123
Mof_C 	C 	0.6697	0.6706	0.0027	-0.083
Mof_H 	H 	0.696	0.6534	0.0009	0.038
Mof_C 	C 	0.6338	0.6642	0.9871	-0.023
Mof_C 	C 	0.6719	0.6006	0.9666	-0.188
Mof_H 	H 	0.6935	0.6005	0.9791	0.071
Mof_C 	C 	0.6753	0.5667	0.9469	0.077
Mof_H 	H 	0.6985	0.5452	0.9469	-0.053
Mof_C 	C 	0.5915	0.7155	0.0126	-0.001
Mof_H 	H 	0.5636	0.7292	0.0157	0.023
Mof_C 	C 	0.616	0.6338	0.9475	-0.234
Mof_H 	H 	0.5968	0.6584	0.945	0.082
Mof_C 	C 	0.6188	0.5985	0.9284	0.15
Mof_H 	H 	0.5996	0.6005	0.9149	-0.087
Mof_C 	C 	0.5972	0.6867	0.9914	-0.078
Mof_H 	H 	0.5732	0.6842	0.9803	0.033
Mof_Mo	Mo	0.69636	0.91714	0.06031	1.067
Mof_Mo	Mo	0.72183	0.01159	0.14396	1.048
Mof_Mo	Mo	0.60686	0.91548	0.06292	1.07
Mof_Mo	Mo	0.55226	0.85011	0.10927	1.026
Mof_Mo	Mo	0.54654	0.96646	0.1096	1.307
Mof_Mo	Mo	0.60558	0.01558	0.15126	1.324
Mof_Zn	Zn	0.66024	0.81166	0.08474	1.224
Mof_Zn	Zn	0.6492	0.01438	0.09252	1.207
_end
