# CIF file generated by openbabel 3.1.0, see https://openbabel.org
data_I
_chemical_name_common 'image0'
_cell_length_a 7.2443
_cell_length_b 13.8127
_cell_length_c 15.4746
_cell_angle_alpha 80.352
_cell_angle_beta 87.669
_cell_angle_gamma 89.842
_space_group_name_H-M_alt 'P 1'
_space_group_name_Hall 'P 1'
loop_
    _symmetry_equiv_pos_as_xyz
    x,y,z
loop_
    _atom_site_label
    _atom_site_type_symbol
    _atom_site_fract_x
    _atom_site_fract_y
    _atom_site_fract_z
    _atom_site_occupancy
    Pt1      Pt       0.00288    0.26061    0.46287    1.000
    N1       N        0.50820    0.58950    0.38400    1.000
    N2       N        0.69370    0.41890    0.46100    1.000
    N3       N        0.31100    0.09990    0.48990    1.000
    N4       N        0.68990    0.10050    0.48610    1.000
    N5       N        0.49670    0.99320    0.63000    1.000
    N6       N        0.31250    0.41850    0.46250    1.000
    C1       C        0.51470    0.55380    0.30680    1.000
    H1       H        0.51820    0.48610    0.30910    1.000
    C2       C        0.51630    0.61220    0.22700    1.000
    H2       H        0.52020    0.58440    0.17620    1.000
    C3       C        0.51210    0.71490    0.22140    1.000
    C4       C        0.50750    0.75190    0.30020    1.000
    H3       H        0.50600    0.81940    0.29930    1.000
    C5       C        0.50520    0.68900    0.37880    1.000
    H4       H        0.50150    0.71520    0.43050    1.000
    C6       C        0.51100    0.77830    0.13750    1.000
    C7       C        0.50750    0.82610    0.06600    1.000
    C8       C        0.50150    0.87630    0.98150    1.000
    C9       C        0.80820    0.36320    0.45490    1.000
    C10      C        0.65520    0.98550    0.67380    1.000
    H5       H        0.76690    0.99440    0.64160    1.000
    C11      C        0.65870    0.96500    0.76430    1.000
    H6       H        0.77070    0.96150    0.79200    1.000
    C12      C        0.49350    0.94970    0.81360    1.000
    C13      C        0.32980    0.96320    0.77000    1.000
    H7       H        0.21700    0.95790    0.80140    1.000
    C14      C        0.33590    0.98510    0.67810    1.000
    H8       H        0.22550    0.99430    0.64930    1.000
    C15      C        0.49710    0.91510    0.90660    1.000
    C16      C        0.19660    0.15800    0.47990    1.000
    C17      C        0.80550    0.15850    0.47720    1.000
    C18      C        0.19650    0.36280    0.45700    1.000
    Pt2      Pt       0.99712    0.73939    0.53713    1.000
    N7       N        0.49180    0.41050    0.61600    1.000
    N8       N        0.30630    0.58110    0.53900    1.000
    N9       N        0.68900    0.90010    0.51010    1.000
    N10      N        0.31010    0.89950    0.51390    1.000
    N11      N        0.50330    0.00680    0.37000    1.000
    N12      N        0.68750    0.58150    0.53750    1.000
    C19      C        0.48530    0.44620    0.69320    1.000
    H9       H        0.48180    0.51390    0.69090    1.000
    C20      C        0.48370    0.38780    0.77300    1.000
    H10      H        0.47980    0.41560    0.82380    1.000
    C21      C        0.48790    0.28510    0.77860    1.000
    C22      C        0.49250    0.24810    0.69980    1.000
    H11      H        0.49400    0.18060    0.70070    1.000
    C23      C        0.49480    0.31100    0.62120    1.000
    H12      H        0.49850    0.28480    0.56950    1.000
    C24      C        0.48900    0.22170    0.86250    1.000
    C25      C        0.49250    0.17390    0.93400    1.000
    C26      C        0.49850    0.12370    0.01850    1.000
    C27      C        0.19180    0.63680    0.54510    1.000
    C28      C        0.34480    0.01450    0.32620    1.000
    H13      H        0.23310    0.00560    0.35840    1.000
    C29      C        0.34130    0.03500    0.23570    1.000
    H14      H        0.22930    0.03850    0.20800    1.000
    C30      C        0.50650    0.05030    0.18640    1.000
    C31      C        0.67020    0.03680    0.23000    1.000
    H15      H        0.78300    0.04210    0.19860    1.000
    C32      C        0.66410    0.01490    0.32190    1.000
    H16      H        0.77450    0.00570    0.35070    1.000
    C33      C        0.50290    0.08490    0.09340    1.000
    C34      C        0.80340    0.84200    0.52010    1.000
    C35      C        0.19450    0.84150    0.52280    1.000
    C36      C        0.80350    0.63720    0.54300    1.000
    Fe1      Fe       0.50000    0.50000    0.50000    1.000
    Fe2      Fe       0.50000    0.00000    0.50000    1.000
