# CIF file generated by openbabel 3.1.0, see https://openbabel.org
data_I
_chemical_name_common 'image0'
_cell_length_a 27.514
_cell_length_b 14.252
_cell_length_c 24.004
_cell_angle_alpha 90
_cell_angle_beta 113.521
_cell_angle_gamma 90
_space_group_name_H-M_alt 'P 1'
_space_group_name_Hall 'P 1'
loop_
    _symmetry_equiv_pos_as_xyz
    x,y,z
loop_
    _atom_site_label
    _atom_site_type_symbol
    _atom_site_fract_x
    _atom_site_fract_y
    _atom_site_fract_z
    _atom_site_occupancy
    Ag1      Ag       0.25069    0.78135    0.21921    1.000
    P1       P        0.25191    0.62858    0.17324    1.000
    P2       P        0.24666    0.93949    0.17801    1.000
    N1       N        0.33864    0.79160    0.29690    1.000
    N2       N        0.42139    0.83690    0.34190    1.000
    N3       N        0.16426    0.80080    0.34130    1.000
    N4       N        0.19511    0.76980    0.27181    1.000
    C1       C        0.27390    0.53600    0.23120    1.000
    H1       H        0.27250    0.47560    0.21190    1.000
    H2       H        0.31030    0.54750    0.25910    1.000
    C2       C        0.26200    0.03500    0.23420    1.000
    H3       H        0.29850    0.02870    0.26300    1.000
    H4       H        0.25870    0.09450    0.21340    1.000
    C3       C        0.18990    0.58620    0.11780    1.000
    C4       C        0.14990    0.64880    0.08950    1.000
    H5       H        0.15570    0.71220    0.09920    1.000
    C5       C        0.10130    0.62050    0.04690    1.000
    H6       H        0.07450    0.66380    0.02780    1.000
    C6       C        0.09330    0.52400    0.03300    1.000
    H7       H        0.06070    0.50290    0.00510    1.000
    C7       C        0.13160    0.46430    0.05940    1.000
    H8       H        0.12650    0.40100    0.04920    1.000
    C8       C        0.17870    0.49400    0.10170    1.000
    H9       H        0.20470    0.44940    0.12070    1.000
    C9       C        0.29750    0.61800    0.13590    1.000
    C10      C        0.28120    0.60850    0.07450    1.000
    H10      H        0.24520    0.60280    0.05020    1.000
    C11      C        0.31740    0.60730    0.04790    1.000
    H11      H        0.30560    0.60100    0.00600    1.000
    C12      C        0.37020    0.61510    0.08260    1.000
    H12      H        0.39440    0.61360    0.06450    1.000
    C13      C        0.38740    0.62510    0.14350    1.000
    H13      H        0.42330    0.63010    0.16780    1.000
    C14      C        0.35010    0.62770    0.16870    1.000
    H14      H        0.36190    0.63650    0.21050    1.000
    C15      C        0.18570    0.97700    0.11770    1.000
    C16      C        0.13950    0.93010    0.10890    1.000
    H15      H        0.14040    0.88040    0.13440    1.000
    C17      C        0.09110    0.95560    0.06240    1.000
    H16      H        0.06040    0.92200    0.05620    1.000
    C18      C        0.08980    0.03020    0.02660    1.000
    H17      H        0.05760    0.04880    0.99660    1.000
    C19      C        0.13460    0.07810    0.03400    1.000
    H18      H        0.13290    0.12920    0.00910    1.000
    C20      C        0.18330    0.05070    0.07880    1.000
    H19      H        0.21410    0.08200    0.08260    1.000
    C21      C        0.29630    0.95410    0.14700    1.000
    C22      C        0.33310    0.02790    0.16210    1.000
    H20      H        0.33080    0.07590    0.18710    1.000
    C23      C        0.37250    0.03040    0.14060    1.000
    H21      H        0.39710    0.07910    0.15230    1.000
    C24      C        0.37620    0.96280    0.10240    1.000
    H22      H        0.40270    0.96550    0.08760    1.000
    C25      C        0.33920    0.88840    0.08560    1.000
    H23      H        0.34110    0.84190    0.05940    1.000
    C26      C        0.30030    0.88470    0.10810    1.000
    H24      H        0.27630    0.83510    0.09710    1.000
    C27      C        0.37580    0.84650    0.29420    1.000
    H25      H        0.37080    0.88760    0.26230    1.000
    C28      C        0.36290    0.74690    0.35060    1.000
    H26      H        0.34670    0.70320    0.36640    1.000
    C29      C        0.41350    0.77410    0.37800    1.000
    H27      H        0.43820    0.75290    0.41510    1.000
    C30      C        0.46960    0.88870    0.35390    1.000
    H28      H        0.49810    0.86120    0.38860    1.000
    H29      H        0.46490    0.95290    0.36420    1.000
    C31      C        0.48530    0.88880    0.29950    1.000
    C32      C        0.49260    0.80740    0.27300    1.000
    H30      H        0.48690    0.75020    0.28810    1.000
    C33      C        0.49170    0.97040    0.27410    1.000
    H31      H        0.48510    0.02710    0.28890    1.000
    C34      C        0.20500    0.69830    0.47010    1.000
    H32      H        0.17460    0.66310    0.45000    1.000
    C35      C        0.25300    0.84080    0.48270    1.000
    H33      H        0.25520    0.90240    0.47120    1.000
    C36      C        0.20770    0.78980    0.45230    1.000
    C37      C        0.16250    0.83320    0.39930    1.000
    H34      H        0.12900    0.81540    0.40060    1.000
    H35      H        0.16530    0.90110    0.40180    1.000
    C38      C        0.20760    0.79360    0.32900    1.000
    H36      H        0.24200    0.80420    0.35710    1.000
    C39      C        0.12190    0.77850    0.28860    1.000
    H37      H        0.08650    0.77650    0.28310    1.000
    C40      C        0.14100    0.76050    0.24680    1.000
    H38      H        0.12070    0.74410    0.20670    1.000
    Ag2      Ag       0.75069    0.28135    0.21921    1.000
    P3       P        0.75191    0.12858    0.17324    1.000
    P4       P        0.74666    0.43949    0.17801    1.000
    N5       N        0.83864    0.29160    0.29690    1.000
    N6       N        0.92139    0.33690    0.34190    1.000
    N7       N        0.66426    0.30080    0.34130    1.000
    N8       N        0.69511    0.26980    0.27181    1.000
    C41      C        0.77390    0.03600    0.23120    1.000
    H39      H        0.77250    0.97560    0.21190    1.000
    H40      H        0.81030    0.04750    0.25910    1.000
    C42      C        0.76200    0.53500    0.23420    1.000
    H41      H        0.79850    0.52870    0.26300    1.000
    H42      H        0.75870    0.59450    0.21340    1.000
    C43      C        0.68990    0.08620    0.11780    1.000
    C44      C        0.64990    0.14880    0.08950    1.000
    H43      H        0.65570    0.21220    0.09920    1.000
    C45      C        0.60130    0.12050    0.04690    1.000
    H44      H        0.57450    0.16380    0.02780    1.000
    C46      C        0.59330    0.02400    0.03300    1.000
    H45      H        0.56070    0.00290    0.00510    1.000
    C47      C        0.63160    0.96430    0.05940    1.000
    H46      H        0.62650    0.90100    0.04920    1.000
    C48      C        0.67870    0.99400    0.10170    1.000
    H47      H        0.70470    0.94940    0.12070    1.000
    C49      C        0.79750    0.11800    0.13590    1.000
    C50      C        0.78120    0.10850    0.07450    1.000
    H48      H        0.74520    0.10280    0.05020    1.000
    C51      C        0.81740    0.10730    0.04790    1.000
    H49      H        0.80560    0.10100    0.00600    1.000
    C52      C        0.87020    0.11510    0.08260    1.000
    H50      H        0.89440    0.11360    0.06450    1.000
    C53      C        0.88740    0.12510    0.14350    1.000
    H51      H        0.92330    0.13010    0.16780    1.000
    C54      C        0.85010    0.12770    0.16870    1.000
    H52      H        0.86190    0.13650    0.21050    1.000
    C55      C        0.68570    0.47700    0.11770    1.000
    C56      C        0.63950    0.43010    0.10890    1.000
    H53      H        0.64040    0.38040    0.13440    1.000
    C57      C        0.59110    0.45560    0.06240    1.000
    H54      H        0.56040    0.42200    0.05620    1.000
    C58      C        0.58980    0.53020    0.02660    1.000
    H55      H        0.55760    0.54880    0.99660    1.000
    C59      C        0.63460    0.57810    0.03400    1.000
    H56      H        0.63290    0.62920    0.00910    1.000
    C60      C        0.68330    0.55070    0.07880    1.000
    H57      H        0.71410    0.58200    0.08260    1.000
    C61      C        0.79630    0.45410    0.14700    1.000
    C62      C        0.83310    0.52790    0.16210    1.000
    H58      H        0.83080    0.57590    0.18710    1.000
    C63      C        0.87250    0.53040    0.14060    1.000
    H59      H        0.89710    0.57910    0.15230    1.000
    C64      C        0.87620    0.46280    0.10240    1.000
    H60      H        0.90270    0.46550    0.08760    1.000
    C65      C        0.83920    0.38840    0.08560    1.000
    H61      H        0.84110    0.34190    0.05940    1.000
    C66      C        0.80030    0.38470    0.10810    1.000
    H62      H        0.77630    0.33510    0.09710    1.000
    C67      C        0.87580    0.34650    0.29420    1.000
    H63      H        0.87080    0.38760    0.26230    1.000
    C68      C        0.86290    0.24690    0.35060    1.000
    H64      H        0.84670    0.20320    0.36640    1.000
    C69      C        0.91350    0.27410    0.37800    1.000
    H65      H        0.93820    0.25290    0.41510    1.000
    C70      C        0.96960    0.38870    0.35390    1.000
    H66      H        0.99810    0.36120    0.38860    1.000
    H67      H        0.96490    0.45290    0.36420    1.000
    C71      C        0.98530    0.38880    0.29950    1.000
    C72      C        0.99260    0.30740    0.27300    1.000
    H68      H        0.98690    0.25020    0.28810    1.000
    C73      C        0.99170    0.47040    0.27410    1.000
    H69      H        0.98510    0.52710    0.28890    1.000
    C74      C        0.70500    0.19830    0.47010    1.000
    H70      H        0.67460    0.16310    0.45000    1.000
    C75      C        0.75300    0.34080    0.48270    1.000
    H71      H        0.75520    0.40240    0.47120    1.000
    C76      C        0.70770    0.28980    0.45230    1.000
    C77      C        0.66250    0.33320    0.39930    1.000
    H72      H        0.62900    0.31540    0.40060    1.000
    H73      H        0.66530    0.40110    0.40180    1.000
    C78      C        0.70760    0.29360    0.32900    1.000
    H74      H        0.74200    0.30420    0.35710    1.000
    C79      C        0.62190    0.27850    0.28860    1.000
    H75      H        0.58650    0.27650    0.28310    1.000
    C80      C        0.64100    0.26050    0.24680    1.000
    H76      H        0.62070    0.24410    0.20670    1.000
    Ag3      Ag       0.74930    0.78135    0.28079    1.000
    P5       P        0.74809    0.62858    0.32676    1.000
    P6       P        0.75334    0.93949    0.32199    1.000
    N9       N        0.66136    0.79160    0.20310    1.000
    N10      N        0.57861    0.83690    0.15810    1.000
    N11      N        0.83574    0.80080    0.15870    1.000
    N12      N        0.80489    0.76980    0.22819    1.000
    C81      C        0.72610    0.53600    0.26880    1.000
    H77      H        0.72750    0.47560    0.28810    1.000
    H78      H        0.68970    0.54750    0.24090    1.000
    C82      C        0.73800    0.03500    0.26580    1.000
    H79      H        0.70150    0.02870    0.23700    1.000
    H80      H        0.74130    0.09450    0.28660    1.000
    C83      C        0.81010    0.58620    0.38220    1.000
    C84      C        0.85010    0.64880    0.41050    1.000
    H81      H        0.84430    0.71220    0.40080    1.000
    C85      C        0.89870    0.62050    0.45310    1.000
    H82      H        0.92550    0.66380    0.47220    1.000
    C86      C        0.90670    0.52400    0.46700    1.000
    H83      H        0.93930    0.50290    0.49490    1.000
    C87      C        0.86840    0.46430    0.44060    1.000
    H84      H        0.87350    0.40100    0.45080    1.000
    C88      C        0.82130    0.49400    0.39830    1.000
    H85      H        0.79530    0.44940    0.37930    1.000
    C89      C        0.70250    0.61800    0.36410    1.000
    C90      C        0.71880    0.60850    0.42550    1.000
    H86      H        0.75480    0.60280    0.44980    1.000
    C91      C        0.68260    0.60730    0.45210    1.000
    H87      H        0.69440    0.60100    0.49400    1.000
    C92      C        0.62980    0.61510    0.41740    1.000
    H88      H        0.60560    0.61360    0.43550    1.000
    C93      C        0.61260    0.62510    0.35650    1.000
    H89      H        0.57670    0.63010    0.33220    1.000
    C94      C        0.64990    0.62770    0.33130    1.000
    H90      H        0.63810    0.63650    0.28950    1.000
    C95      C        0.81430    0.97700    0.38230    1.000
    C96      C        0.86050    0.93010    0.39110    1.000
    H91      H        0.85960    0.88040    0.36560    1.000
    C97      C        0.90890    0.95560    0.43760    1.000
    H92      H        0.93960    0.92200    0.44380    1.000
    C98      C        0.91020    0.03020    0.47340    1.000
    H93      H        0.94240    0.04880    0.50340    1.000
    C99      C        0.86540    0.07810    0.46600    1.000
    H94      H        0.86710    0.12920    0.49090    1.000
    C100     C        0.81670    0.05070    0.42120    1.000
    H95      H        0.78590    0.08200    0.41740    1.000
    C101     C        0.70370    0.95410    0.35300    1.000
    C102     C        0.66690    0.02790    0.33790    1.000
    H96      H        0.66920    0.07590    0.31290    1.000
    C103     C        0.62750    0.03040    0.35940    1.000
    H97      H        0.60290    0.07910    0.34770    1.000
    C104     C        0.62380    0.96280    0.39760    1.000
    H98      H        0.59730    0.96550    0.41240    1.000
    C105     C        0.66080    0.88840    0.41440    1.000
    H99      H        0.65890    0.84190    0.44060    1.000
    C106     C        0.69970    0.88470    0.39190    1.000
    H100     H        0.72370    0.83510    0.40290    1.000
    C107     C        0.62420    0.84650    0.20580    1.000
    H101     H        0.62920    0.88760    0.23770    1.000
    C108     C        0.63710    0.74690    0.14940    1.000
    H102     H        0.65330    0.70320    0.13360    1.000
    C109     C        0.58650    0.77410    0.12200    1.000
    H103     H        0.56180    0.75290    0.08490    1.000
    C110     C        0.53040    0.88870    0.14610    1.000
    H104     H        0.50190    0.86120    0.11140    1.000
    H105     H        0.53510    0.95290    0.13580    1.000
    C111     C        0.51470    0.88880    0.20050    1.000
    C112     C        0.50740    0.80740    0.22700    1.000
    H106     H        0.51310    0.75020    0.21190    1.000
    C113     C        0.50830    0.97040    0.22590    1.000
    H107     H        0.51490    0.02710    0.21110    1.000
    C114     C        0.79500    0.69830    0.02990    1.000
    H108     H        0.82540    0.66310    0.05000    1.000
    C115     C        0.74700    0.84080    0.01730    1.000
    H109     H        0.74480    0.90240    0.02880    1.000
    C116     C        0.79230    0.78980    0.04770    1.000
    C117     C        0.83750    0.83320    0.10070    1.000
    H110     H        0.87100    0.81540    0.09940    1.000
    H111     H        0.83470    0.90110    0.09820    1.000
    C118     C        0.79240    0.79360    0.17100    1.000
    H112     H        0.75800    0.80420    0.14290    1.000
    C119     C        0.87810    0.77850    0.21140    1.000
    H113     H        0.91350    0.77650    0.21690    1.000
    C120     C        0.85900    0.76050    0.25320    1.000
    H114     H        0.87930    0.74410    0.29330    1.000
    Ag4      Ag       0.24930    0.28135    0.28079    1.000
    P7       P        0.24809    0.12858    0.32676    1.000
    P8       P        0.25334    0.43949    0.32199    1.000
    N13      N        0.16136    0.29160    0.20310    1.000
    N14      N        0.07861    0.33690    0.15810    1.000
    N15      N        0.33574    0.30080    0.15870    1.000
    N16      N        0.30489    0.26980    0.22819    1.000
    C121     C        0.22610    0.03600    0.26880    1.000
    H115     H        0.22750    0.97560    0.28810    1.000
    H116     H        0.18970    0.04750    0.24090    1.000
    C122     C        0.23800    0.53500    0.26580    1.000
    H117     H        0.20150    0.52870    0.23700    1.000
    H118     H        0.24130    0.59450    0.28660    1.000
    C123     C        0.31010    0.08620    0.38220    1.000
    C124     C        0.35010    0.14880    0.41050    1.000
    H119     H        0.34430    0.21220    0.40080    1.000
    C125     C        0.39870    0.12050    0.45310    1.000
    H120     H        0.42550    0.16380    0.47220    1.000
    C126     C        0.40670    0.02400    0.46700    1.000
    H121     H        0.43930    0.00290    0.49490    1.000
    C127     C        0.36840    0.96430    0.44060    1.000
    H122     H        0.37350    0.90100    0.45080    1.000
    C128     C        0.32130    0.99400    0.39830    1.000
    H123     H        0.29530    0.94940    0.37930    1.000
    C129     C        0.20250    0.11800    0.36410    1.000
    C130     C        0.21880    0.10850    0.42550    1.000
    H124     H        0.25480    0.10280    0.44980    1.000
    C131     C        0.18260    0.10730    0.45210    1.000
    H125     H        0.19440    0.10100    0.49400    1.000
    C132     C        0.12980    0.11510    0.41740    1.000
    H126     H        0.10560    0.11360    0.43550    1.000
    C133     C        0.11260    0.12510    0.35650    1.000
    H127     H        0.07670    0.13010    0.33220    1.000
    C134     C        0.14990    0.12770    0.33130    1.000
    H128     H        0.13810    0.13650    0.28950    1.000
    C135     C        0.31430    0.47700    0.38230    1.000
    C136     C        0.36050    0.43010    0.39110    1.000
    H129     H        0.35960    0.38040    0.36560    1.000
    C137     C        0.40890    0.45560    0.43760    1.000
    H130     H        0.43960    0.42200    0.44380    1.000
    C138     C        0.41020    0.53020    0.47340    1.000
    H131     H        0.44240    0.54880    0.50340    1.000
    C139     C        0.36540    0.57810    0.46600    1.000
    H132     H        0.36710    0.62920    0.49090    1.000
    C140     C        0.31670    0.55070    0.42120    1.000
    H133     H        0.28590    0.58200    0.41740    1.000
    C141     C        0.20370    0.45410    0.35300    1.000
    C142     C        0.16690    0.52790    0.33790    1.000
    H134     H        0.16920    0.57590    0.31290    1.000
    C143     C        0.12750    0.53040    0.35940    1.000
    H135     H        0.10290    0.57910    0.34770    1.000
    C144     C        0.12380    0.46280    0.39760    1.000
    H136     H        0.09730    0.46550    0.41240    1.000
    C145     C        0.16080    0.38840    0.41440    1.000
    H137     H        0.15890    0.34190    0.44060    1.000
    C146     C        0.19970    0.38470    0.39190    1.000
    H138     H        0.22370    0.33510    0.40290    1.000
    C147     C        0.12420    0.34650    0.20580    1.000
    H139     H        0.12920    0.38760    0.23770    1.000
    C148     C        0.13710    0.24690    0.14940    1.000
    H140     H        0.15330    0.20320    0.13360    1.000
    C149     C        0.08650    0.27410    0.12200    1.000
    H141     H        0.06180    0.25290    0.08490    1.000
    C150     C        0.03040    0.38870    0.14610    1.000
    H142     H        0.00190    0.36120    0.11140    1.000
    H143     H        0.03510    0.45290    0.13580    1.000
    C151     C        0.01470    0.38880    0.20050    1.000
    C152     C        0.00740    0.30740    0.22700    1.000
    H144     H        0.01310    0.25020    0.21190    1.000
    C153     C        0.00830    0.47040    0.22590    1.000
    H145     H        0.01490    0.52710    0.21110    1.000
    C154     C        0.29500    0.19830    0.02990    1.000
    H146     H        0.32540    0.16310    0.05000    1.000
    C155     C        0.24700    0.34080    0.01730    1.000
    H147     H        0.24480    0.40240    0.02880    1.000
    C156     C        0.29230    0.28980    0.04770    1.000
    C157     C        0.33750    0.33320    0.10070    1.000
    H148     H        0.37100    0.31540    0.09940    1.000
    H149     H        0.33470    0.40110    0.09820    1.000
    C158     C        0.29240    0.29360    0.17100    1.000
    H150     H        0.25800    0.30420    0.14290    1.000
    C159     C        0.37810    0.27850    0.21140    1.000
    H151     H        0.41350    0.27650    0.21690    1.000
    C160     C        0.35900    0.26050    0.25320    1.000
    H152     H        0.37930    0.24410    0.29330    1.000
    Ag5      Ag       0.74930    0.21865    0.78079    1.000
    P9       P        0.74809    0.37142    0.82676    1.000
    P10      P        0.75334    0.06051    0.82199    1.000
    N17      N        0.66136    0.20840    0.70310    1.000
    N18      N        0.57861    0.16310    0.65810    1.000
    N19      N        0.83574    0.19920    0.65870    1.000
    N20      N        0.80489    0.23020    0.72819    1.000
    C161     C        0.72610    0.46400    0.76880    1.000
    H153     H        0.72750    0.52440    0.78810    1.000
    H154     H        0.68970    0.45250    0.74090    1.000
    C162     C        0.73800    0.96500    0.76580    1.000
    H155     H        0.70150    0.97130    0.73700    1.000
    H156     H        0.74130    0.90550    0.78660    1.000
    C163     C        0.81010    0.41380    0.88220    1.000
    C164     C        0.85010    0.35120    0.91050    1.000
    H157     H        0.84430    0.28780    0.90080    1.000
    C165     C        0.89870    0.37950    0.95310    1.000
    H158     H        0.92550    0.33620    0.97220    1.000
    C166     C        0.90670    0.47600    0.96700    1.000
    H159     H        0.93930    0.49710    0.99490    1.000
    C167     C        0.86840    0.53570    0.94060    1.000
    H160     H        0.87350    0.59900    0.95080    1.000
    C168     C        0.82130    0.50600    0.89830    1.000
    H161     H        0.79530    0.55060    0.87930    1.000
    C169     C        0.70250    0.38200    0.86410    1.000
    C170     C        0.71880    0.39150    0.92550    1.000
    H162     H        0.75480    0.39720    0.94980    1.000
    C171     C        0.68260    0.39270    0.95210    1.000
    H163     H        0.69440    0.39900    0.99400    1.000
    C172     C        0.62980    0.38490    0.91740    1.000
    H164     H        0.60560    0.38640    0.93550    1.000
    C173     C        0.61260    0.37490    0.85650    1.000
    H165     H        0.57670    0.36990    0.83220    1.000
    C174     C        0.64990    0.37230    0.83130    1.000
    H166     H        0.63810    0.36350    0.78950    1.000
    C175     C        0.81430    0.02300    0.88230    1.000
    C176     C        0.86050    0.06990    0.89110    1.000
    H167     H        0.85960    0.11960    0.86560    1.000
    C177     C        0.90890    0.04440    0.93760    1.000
    H168     H        0.93960    0.07800    0.94380    1.000
    C178     C        0.91020    0.96980    0.97340    1.000
    H169     H        0.94240    0.95120    0.00340    1.000
    C179     C        0.86540    0.92190    0.96600    1.000
    H170     H        0.86710    0.87080    0.99090    1.000
    C180     C        0.81670    0.94930    0.92120    1.000
    H171     H        0.78590    0.91800    0.91740    1.000
    C181     C        0.70370    0.04590    0.85300    1.000
    C182     C        0.66690    0.97210    0.83790    1.000
    H172     H        0.66920    0.92410    0.81290    1.000
    C183     C        0.62750    0.96960    0.85940    1.000
    H173     H        0.60290    0.92090    0.84770    1.000
    C184     C        0.62380    0.03720    0.89760    1.000
    H174     H        0.59730    0.03450    0.91240    1.000
    C185     C        0.66080    0.11160    0.91440    1.000
    H175     H        0.65890    0.15810    0.94060    1.000
    C186     C        0.69970    0.11530    0.89190    1.000
    H176     H        0.72370    0.16490    0.90290    1.000
    C187     C        0.62420    0.15350    0.70580    1.000
    H177     H        0.62920    0.11240    0.73770    1.000
    C188     C        0.63710    0.25310    0.64940    1.000
    H178     H        0.65330    0.29680    0.63360    1.000
    C189     C        0.58650    0.22590    0.62200    1.000
    H179     H        0.56180    0.24710    0.58490    1.000
    C190     C        0.53040    0.11130    0.64610    1.000
    H180     H        0.50190    0.13880    0.61140    1.000
    H181     H        0.53510    0.04710    0.63580    1.000
    C191     C        0.51470    0.11120    0.70050    1.000
    C192     C        0.50740    0.19260    0.72700    1.000
    H182     H        0.51310    0.24980    0.71190    1.000
    C193     C        0.50830    0.02960    0.72590    1.000
    H183     H        0.51490    0.97290    0.71110    1.000
    C194     C        0.79500    0.30170    0.52990    1.000
    H184     H        0.82540    0.33690    0.55000    1.000
    C195     C        0.74700    0.15920    0.51730    1.000
    H185     H        0.74480    0.09760    0.52880    1.000
    C196     C        0.79230    0.21020    0.54770    1.000
    C197     C        0.83750    0.16680    0.60070    1.000
    H186     H        0.87100    0.18460    0.59940    1.000
    H187     H        0.83470    0.09890    0.59820    1.000
    C198     C        0.79240    0.20640    0.67100    1.000
    H188     H        0.75800    0.19580    0.64290    1.000
    C199     C        0.87810    0.22150    0.71140    1.000
    H189     H        0.91350    0.22350    0.71690    1.000
    C200     C        0.85900    0.23950    0.75320    1.000
    H190     H        0.87930    0.25590    0.79330    1.000
    Ag6      Ag       0.24930    0.71865    0.78079    1.000
    P11      P        0.24809    0.87142    0.82676    1.000
    P12      P        0.25334    0.56051    0.82199    1.000
    N21      N        0.16136    0.70840    0.70310    1.000
    N22      N        0.07861    0.66310    0.65810    1.000
    N23      N        0.33574    0.69920    0.65870    1.000
    N24      N        0.30489    0.73020    0.72819    1.000
    C201     C        0.22610    0.96400    0.76880    1.000
    H191     H        0.22750    0.02440    0.78810    1.000
    H192     H        0.18970    0.95250    0.74090    1.000
    C202     C        0.23800    0.46500    0.76580    1.000
    H193     H        0.20150    0.47130    0.73700    1.000
    H194     H        0.24130    0.40550    0.78660    1.000
    C203     C        0.31010    0.91380    0.88220    1.000
    C204     C        0.35010    0.85120    0.91050    1.000
    H195     H        0.34430    0.78780    0.90080    1.000
    C205     C        0.39870    0.87950    0.95310    1.000
    H196     H        0.42550    0.83620    0.97220    1.000
    C206     C        0.40670    0.97600    0.96700    1.000
    H197     H        0.43930    0.99710    0.99490    1.000
    C207     C        0.36840    0.03570    0.94060    1.000
    H198     H        0.37350    0.09900    0.95080    1.000
    C208     C        0.32130    0.00600    0.89830    1.000
    H199     H        0.29530    0.05060    0.87930    1.000
    C209     C        0.20250    0.88200    0.86410    1.000
    C210     C        0.21880    0.89150    0.92550    1.000
    H200     H        0.25480    0.89720    0.94980    1.000
    C211     C        0.18260    0.89270    0.95210    1.000
    H201     H        0.19440    0.89900    0.99400    1.000
    C212     C        0.12980    0.88490    0.91740    1.000
    H202     H        0.10560    0.88640    0.93550    1.000
    C213     C        0.11260    0.87490    0.85650    1.000
    H203     H        0.07670    0.86990    0.83220    1.000
    C214     C        0.14990    0.87230    0.83130    1.000
    H204     H        0.13810    0.86350    0.78950    1.000
    C215     C        0.31430    0.52300    0.88230    1.000
    C216     C        0.36050    0.56990    0.89110    1.000
    H205     H        0.35960    0.61960    0.86560    1.000
    C217     C        0.40890    0.54440    0.93760    1.000
    H206     H        0.43960    0.57800    0.94380    1.000
    C218     C        0.41020    0.46980    0.97340    1.000
    H207     H        0.44240    0.45120    0.00340    1.000
    C219     C        0.36540    0.42190    0.96600    1.000
    H208     H        0.36710    0.37080    0.99090    1.000
    C220     C        0.31670    0.44930    0.92120    1.000
    H209     H        0.28590    0.41800    0.91740    1.000
    C221     C        0.20370    0.54590    0.85300    1.000
    C222     C        0.16690    0.47210    0.83790    1.000
    H210     H        0.16920    0.42410    0.81290    1.000
    C223     C        0.12750    0.46960    0.85940    1.000
    H211     H        0.10290    0.42090    0.84770    1.000
    C224     C        0.12380    0.53720    0.89760    1.000
    H212     H        0.09730    0.53450    0.91240    1.000
    C225     C        0.16080    0.61160    0.91440    1.000
    H213     H        0.15890    0.65810    0.94060    1.000
    C226     C        0.19970    0.61530    0.89190    1.000
    H214     H        0.22370    0.66490    0.90290    1.000
    C227     C        0.12420    0.65350    0.70580    1.000
    H215     H        0.12920    0.61240    0.73770    1.000
    C228     C        0.13710    0.75310    0.64940    1.000
    H216     H        0.15330    0.79680    0.63360    1.000
    C229     C        0.08650    0.72590    0.62200    1.000
    H217     H        0.06180    0.74710    0.58490    1.000
    C230     C        0.03040    0.61130    0.64610    1.000
    H218     H        0.00190    0.63880    0.61140    1.000
    H219     H        0.03510    0.54710    0.63580    1.000
    C231     C        0.01470    0.61120    0.70050    1.000
    C232     C        0.00740    0.69260    0.72700    1.000
    H220     H        0.01310    0.74980    0.71190    1.000
    C233     C        0.00830    0.52960    0.72590    1.000
    H221     H        0.01490    0.47290    0.71110    1.000
    C234     C        0.29500    0.80170    0.52990    1.000
    H222     H        0.32540    0.83690    0.55000    1.000
    C235     C        0.24700    0.65920    0.51730    1.000
    H223     H        0.24480    0.59760    0.52880    1.000
    C236     C        0.29230    0.71020    0.54770    1.000
    C237     C        0.33750    0.66680    0.60070    1.000
    H224     H        0.37100    0.68460    0.59940    1.000
    H225     H        0.33470    0.59890    0.59820    1.000
    C238     C        0.29240    0.70640    0.67100    1.000
    H226     H        0.25800    0.69580    0.64290    1.000
    C239     C        0.37810    0.72150    0.71140    1.000
    H227     H        0.41350    0.72350    0.71690    1.000
    C240     C        0.35900    0.73950    0.75320    1.000
    H228     H        0.37930    0.75590    0.79330    1.000
    Ag7      Ag       0.25069    0.21865    0.71921    1.000
    P13      P        0.25191    0.37142    0.67324    1.000
    P14      P        0.24666    0.06051    0.67801    1.000
    N25      N        0.33864    0.20840    0.79690    1.000
    N26      N        0.42139    0.16310    0.84190    1.000
    N27      N        0.16426    0.19920    0.84130    1.000
    N28      N        0.19511    0.23020    0.77181    1.000
    C241     C        0.27390    0.46400    0.73120    1.000
    H229     H        0.27250    0.52440    0.71190    1.000
    H230     H        0.31030    0.45250    0.75910    1.000
    C242     C        0.26200    0.96500    0.73420    1.000
    H231     H        0.29850    0.97130    0.76300    1.000
    H232     H        0.25870    0.90550    0.71340    1.000
    C243     C        0.18990    0.41380    0.61780    1.000
    C244     C        0.14990    0.35120    0.58950    1.000
    H233     H        0.15570    0.28780    0.59920    1.000
    C245     C        0.10130    0.37950    0.54690    1.000
    H234     H        0.07450    0.33620    0.52780    1.000
    C246     C        0.09330    0.47600    0.53300    1.000
    H235     H        0.06070    0.49710    0.50510    1.000
    C247     C        0.13160    0.53570    0.55940    1.000
    H236     H        0.12650    0.59900    0.54920    1.000
    C248     C        0.17870    0.50600    0.60170    1.000
    H237     H        0.20470    0.55060    0.62070    1.000
    C249     C        0.29750    0.38200    0.63590    1.000
    C250     C        0.28120    0.39150    0.57450    1.000
    H238     H        0.24520    0.39720    0.55020    1.000
    C251     C        0.31740    0.39270    0.54790    1.000
    H239     H        0.30560    0.39900    0.50600    1.000
    C252     C        0.37020    0.38490    0.58260    1.000
    H240     H        0.39440    0.38640    0.56450    1.000
    C253     C        0.38740    0.37490    0.64350    1.000
    H241     H        0.42330    0.36990    0.66780    1.000
    C254     C        0.35010    0.37230    0.66870    1.000
    H242     H        0.36190    0.36350    0.71050    1.000
    C255     C        0.18570    0.02300    0.61770    1.000
    C256     C        0.13950    0.06990    0.60890    1.000
    H243     H        0.14040    0.11960    0.63440    1.000
    C257     C        0.09110    0.04440    0.56240    1.000
    H244     H        0.06040    0.07800    0.55620    1.000
    C258     C        0.08980    0.96980    0.52660    1.000
    H245     H        0.05760    0.95120    0.49660    1.000
    C259     C        0.13460    0.92190    0.53400    1.000
    H246     H        0.13290    0.87080    0.50910    1.000
    C260     C        0.18330    0.94930    0.57880    1.000
    H247     H        0.21410    0.91800    0.58260    1.000
    C261     C        0.29630    0.04590    0.64700    1.000
    C262     C        0.33310    0.97210    0.66210    1.000
    H248     H        0.33080    0.92410    0.68710    1.000
    C263     C        0.37250    0.96960    0.64060    1.000
    H249     H        0.39710    0.92090    0.65230    1.000
    C264     C        0.37620    0.03720    0.60240    1.000
    H250     H        0.40270    0.03450    0.58760    1.000
    C265     C        0.33920    0.11160    0.58560    1.000
    H251     H        0.34110    0.15810    0.55940    1.000
    C266     C        0.30030    0.11530    0.60810    1.000
    H252     H        0.27630    0.16490    0.59710    1.000
    C267     C        0.37580    0.15350    0.79420    1.000
    H253     H        0.37080    0.11240    0.76230    1.000
    C268     C        0.36290    0.25310    0.85060    1.000
    H254     H        0.34670    0.29680    0.86640    1.000
    C269     C        0.41350    0.22590    0.87800    1.000
    H255     H        0.43820    0.24710    0.91510    1.000
    C270     C        0.46960    0.11130    0.85390    1.000
    H256     H        0.49810    0.13880    0.88860    1.000
    H257     H        0.46490    0.04710    0.86420    1.000
    C271     C        0.48530    0.11120    0.79950    1.000
    C272     C        0.49260    0.19260    0.77300    1.000
    H258     H        0.48690    0.24980    0.78810    1.000
    C273     C        0.49170    0.02960    0.77410    1.000
    H259     H        0.48510    0.97290    0.78890    1.000
    C274     C        0.20500    0.30170    0.97010    1.000
    H260     H        0.17460    0.33690    0.95000    1.000
    C275     C        0.25300    0.15920    0.98270    1.000
    H261     H        0.25520    0.09760    0.97120    1.000
    C276     C        0.20770    0.21020    0.95230    1.000
    C277     C        0.16250    0.16680    0.89930    1.000
    H262     H        0.12900    0.18460    0.90060    1.000
    H263     H        0.16530    0.09890    0.90180    1.000
    C278     C        0.20760    0.20640    0.82900    1.000
    H264     H        0.24200    0.19580    0.85710    1.000
    C279     C        0.12190    0.22150    0.78860    1.000
    H265     H        0.08650    0.22350    0.78310    1.000
    C280     C        0.14100    0.23950    0.74680    1.000
    H266     H        0.12070    0.25590    0.70670    1.000
    Ag8      Ag       0.75069    0.71865    0.71921    1.000
    P15      P        0.75191    0.87142    0.67324    1.000
    P16      P        0.74666    0.56051    0.67801    1.000
    N29      N        0.83864    0.70840    0.79690    1.000
    N30      N        0.92139    0.66310    0.84190    1.000
    N31      N        0.66426    0.69920    0.84130    1.000
    N32      N        0.69511    0.73020    0.77181    1.000
    C281     C        0.77390    0.96400    0.73120    1.000
    H267     H        0.77250    0.02440    0.71190    1.000
    H268     H        0.81030    0.95250    0.75910    1.000
    C282     C        0.76200    0.46500    0.73420    1.000
    H269     H        0.79850    0.47130    0.76300    1.000
    H270     H        0.75870    0.40550    0.71340    1.000
    C283     C        0.68990    0.91380    0.61780    1.000
    C284     C        0.64990    0.85120    0.58950    1.000
    H271     H        0.65570    0.78780    0.59920    1.000
    C285     C        0.60130    0.87950    0.54690    1.000
    H272     H        0.57450    0.83620    0.52780    1.000
    C286     C        0.59330    0.97600    0.53300    1.000
    H273     H        0.56070    0.99710    0.50510    1.000
    C287     C        0.63160    0.03570    0.55940    1.000
    H274     H        0.62650    0.09900    0.54920    1.000
    C288     C        0.67870    0.00600    0.60170    1.000
    H275     H        0.70470    0.05060    0.62070    1.000
    C289     C        0.79750    0.88200    0.63590    1.000
    C290     C        0.78120    0.89150    0.57450    1.000
    H276     H        0.74520    0.89720    0.55020    1.000
    C291     C        0.81740    0.89270    0.54790    1.000
    H277     H        0.80560    0.89900    0.50600    1.000
    C292     C        0.87020    0.88490    0.58260    1.000
    H278     H        0.89440    0.88640    0.56450    1.000
    C293     C        0.88740    0.87490    0.64350    1.000
    H279     H        0.92330    0.86990    0.66780    1.000
    C294     C        0.85010    0.87230    0.66870    1.000
    H280     H        0.86190    0.86350    0.71050    1.000
    C295     C        0.68570    0.52300    0.61770    1.000
    C296     C        0.63950    0.56990    0.60890    1.000
    H281     H        0.64040    0.61960    0.63440    1.000
    C297     C        0.59110    0.54440    0.56240    1.000
    H282     H        0.56040    0.57800    0.55620    1.000
    C298     C        0.58980    0.46980    0.52660    1.000
    H283     H        0.55760    0.45120    0.49660    1.000
    C299     C        0.63460    0.42190    0.53400    1.000
    H284     H        0.63290    0.37080    0.50910    1.000
    C300     C        0.68330    0.44930    0.57880    1.000
    H285     H        0.71410    0.41800    0.58260    1.000
    C301     C        0.79630    0.54590    0.64700    1.000
    C302     C        0.83310    0.47210    0.66210    1.000
    H286     H        0.83080    0.42410    0.68710    1.000
    C303     C        0.87250    0.46960    0.64060    1.000
    H287     H        0.89710    0.42090    0.65230    1.000
    C304     C        0.87620    0.53720    0.60240    1.000
    H288     H        0.90270    0.53450    0.58760    1.000
    C305     C        0.83920    0.61160    0.58560    1.000
    H289     H        0.84110    0.65810    0.55940    1.000
    C306     C        0.80030    0.61530    0.60810    1.000
    H290     H        0.77630    0.66490    0.59710    1.000
    C307     C        0.87580    0.65350    0.79420    1.000
    H291     H        0.87080    0.61240    0.76230    1.000
    C308     C        0.86290    0.75310    0.85060    1.000
    H292     H        0.84670    0.79680    0.86640    1.000
    C309     C        0.91350    0.72590    0.87800    1.000
    H293     H        0.93820    0.74710    0.91510    1.000
    C310     C        0.96960    0.61130    0.85390    1.000
    H294     H        0.99810    0.63880    0.88860    1.000
    H295     H        0.96490    0.54710    0.86420    1.000
    C311     C        0.98530    0.61120    0.79950    1.000
    C312     C        0.99260    0.69260    0.77300    1.000
    H296     H        0.98690    0.74980    0.78810    1.000
    C313     C        0.99170    0.52960    0.77410    1.000
    H297     H        0.98510    0.47290    0.78890    1.000
    C314     C        0.70500    0.80170    0.97010    1.000
    H298     H        0.67460    0.83690    0.95000    1.000
    C315     C        0.75300    0.65920    0.98270    1.000
    H299     H        0.75520    0.59760    0.97120    1.000
    C316     C        0.70770    0.71020    0.95230    1.000
    C317     C        0.66250    0.66680    0.89930    1.000
    H300     H        0.62900    0.68460    0.90060    1.000
    H301     H        0.66530    0.59890    0.90180    1.000
    C318     C        0.70760    0.70640    0.82900    1.000
    H302     H        0.74200    0.69580    0.85710    1.000
    C319     C        0.62190    0.72150    0.78860    1.000
    H303     H        0.58650    0.72350    0.78310    1.000
    C320     C        0.64100    0.73950    0.74680    1.000
    H304     H        0.62070    0.75590    0.70670    1.000
