data_functionalizedCrystal
_audit_creation_method	'EQeq! by Chris Wilmer'
_symmetry_space_group_name_H-M	'P1'
_symmetry_Int_Tables_number	1
_symmetry_cell_setting	triclinic
loop_
_symmetry_equiv_pos_as_xyz
  x,y,z
_cell_length_a	34.5922
_cell_length_b	14.8141
_cell_length_c	31.4266
_cell_angle_alpha	90
_cell_angle_beta	100.79
_cell_angle_gamma	90
loop_
_atom_site_label
_atom_site_type_symbol
_atom_site_fract_x
_atom_site_fract_y
_atom_site_fract_z
_atom_site_charge
Mof_I 	I 	0.26719	0.24108	0.20893	-0.389
Mof_I 	I 	0.37469	0.16549	0.30304	-0.399
Mof_I 	I 	0.10716	0.26522	0.10149	-0.378
Mof_I 	I 	0.47441	0.34155	0.37263	-0.356
Mof_I 	I 	0.14893	0.40061	0.99048	-0.374
Mof_I 	I 	0.37421	0.26523	0.43775	-0.384
Mof_Zn	Zn	0.12696	0.40554	0.06263	1.165
Mof_Zn	Zn	0.41353	0.37847	0.40363	1.165
Mof_Zn	Zn	0.32888	0.14701	0.22909	1.163
Mof_N 	N 	0.3166	0.0102	0.222	-0.278
Mof_N 	N 	0.2668	0.6914	0.1875	-0.144
Mof_C 	C 	0.3101	0.5949	0.2506	0.119
Mof_N 	N 	0.4269	0.4834	0.447	-0.264
Mof_N 	N 	0.4235	0.7219	0.5596	-0.141
Mof_C 	C 	0.2607	0.6056	0.1931	0.111
Mof_N 	N 	0.377	0.4485	0.3551	-0.27
Mof_C 	C 	0.5163	0.8943	0.5554	0.04
Mof_N 	N 	0.4753	0.7693	0.5256	-0.22
Mof_N 	N 	0.3204	0.6802	0.2474	-0.137
Mof_N 	N 	0.5808	0.0069	0.5579	-0.281
Mof_C 	C 	0.2872	0.9763	0.1947	0.086
Mof_H 	H 	0.27	0.0165	0.1767	-0.018
Mof_C 	C 	0.2967	0.7275	0.216	0.1
Mof_C 	C 	0.4465	0.7123	0.5304	0.113
Mof_N 	N 	0.1691	0.4715	0.1061	-0.274
Mof_C 	C 	0.3332	0.5426	0.2864	0.037
Mof_C 	C 	0.3513	0.7732	0.6508	0.099
Mof_H 	H 	0.3289	0.7363	0.6511	-0.021
Mof_C 	C 	0.4401	0.6323	0.5012	0.027
Mof_N 	N 	0.4599	0.8499	0.5854	-0.14
Mof_C 	C 	0.5671	0.9911	0.5927	0.081
Mof_H 	H 	0.5796	0.0186	0.619	-0.02
Mof_N 	N 	0.2798	0.5531	0.2249	-0.219
Mof_C 	C 	0.4071	0.8061	0.6195	0.09
Mof_C 	C 	0.3449	0.4092	0.3307	0.053
Mof_H 	H 	0.337	0.3509	0.3382	-0.006
Mof_C 	C 	0.3039	0.8242	0.216	0.063
Mof_C 	C 	0.4821	0.8348	0.5552	0.108
Mof_N 	N 	0.3602	0.8333	0.6803	-0.293
Mof_C 	C 	0.3662	0.5806	0.3122	-0.115
Mof_H 	H 	0.3741	0.6404	0.3071	0.089
Mof_C 	C 	0.4317	0.7927	0.5849	0.112
Mof_C 	C 	0.228	0.559	0.1626	0.035
Mof_C 	C 	0.3406	0.9517	0.2462	0.069
Mof_H 	H 	0.3627	0.9753	0.2656	-0.015
Mof_C 	C 	0.3238	0.4525	0.2953	-0.109
Mof_H 	H 	0.303	0.4222	0.2769	0.063
Mof_C 	C 	0.3736	0.7597	0.618	-0.142
Mof_H 	H 	0.3649	0.7184	0.595	0.093
Mof_C 	C 	0.4671	0.6046	0.4766	-0.096
Mof_H 	H 	0.491	0.6375	0.4784	0.055
Mof_C 	C 	0.5657	0.9609	0.5227	0.078
Mof_H 	H 	0.5774	0.9675	0.4979	-0.008
Mof_C 	C 	0.2799	0.8848	0.1905	-0.133
Mof_H 	H 	0.2582	0.8636	0.1698	0.083
Mof_C 	C 	0.4607	0.5326	0.4503	0.052
Mof_H 	H 	0.4798	0.5158	0.4337	-0.002
Mof_C 	C 	0.1817	0.5524	0.0977	0.074
Mof_H 	H 	0.1704	0.5788	0.0707	-0.002
Mof_C 	C 	0.3998	0.5086	0.471	0.048
Mof_H 	H 	0.3766	0.4737	0.4699	-0.006
Mof_C 	C 	0.3356	0.8599	0.2447	-0.124
Mof_H 	H 	0.3534	0.8215	0.263	0.086
Mof_C 	C 	0.1871	0.4335	0.1441	0.067
Mof_H 	H 	0.1781	0.3763	0.152	-0.002
Mof_C 	C 	0.3868	0.5299	0.345	0.082
Mof_H 	H 	0.41	0.5554	0.3616	-0.01
Mof_C 	C 	0.4058	0.5845	0.4971	-0.096
Mof_H 	H 	0.3859	0.6035	0.5122	0.071
Mof_C 	C 	0.2105	0.6029	0.1253	-0.112
Mof_H 	H 	0.2173	0.6627	0.1187	0.084
Mof_C 	C 	0.2165	0.4731	0.1706	-0.122
Mof_H 	H 	0.2299	0.4416	0.1954	0.077
Mof_C 	C 	0.5338	0.9038	0.5201	-0.121
Mof_H 	H 	0.5242	0.8715	0.4941	0.067
Mof_C 	C 	0.5345	0.9348	0.5934	-0.119
Mof_H 	H 	0.5252	0.9249	0.6196	0.086
Mof_C 	C 	0.3911	0.8834	0.678	0.115
Mof_H 	H 	0.3964	0.9325	0.6976	-0.033
Mof_C 	C 	0.4152	0.8714	0.6509	-0.159
Mof_H 	H 	0.4381	0.9078	0.6529	0.096
Mof_H 	H 	0.4888	0.764	0.5046	0.111
Mof_H 	H 	0.2733	0.4966	0.2287	0.118
Mof_I 	I 	0.76719	0.74108	0.20893	-0.388
Mof_I 	I 	0.87469	0.66549	0.30304	-0.398
Mof_I 	I 	0.60716	0.76522	0.10149	-0.378
Mof_I 	I 	0.97441	0.84155	0.37263	-0.356
Mof_I 	I 	0.64893	0.90061	0.99048	-0.374
Mof_I 	I 	0.87421	0.76523	0.43775	-0.384
Mof_Zn	Zn	0.62696	0.90554	0.06263	1.165
Mof_Zn	Zn	0.91353	0.87847	0.40363	1.165
Mof_Zn	Zn	0.82888	0.64701	0.22909	1.163
Mof_N 	N 	0.8166	0.5102	0.222	-0.279
Mof_N 	N 	0.7668	0.1914	0.1875	-0.143
Mof_C 	C 	0.8101	0.0949	0.2506	0.119
Mof_N 	N 	0.9269	0.9834	0.447	-0.265
Mof_N 	N 	0.9235	0.2219	0.5596	-0.141
Mof_C 	C 	0.7607	0.1056	0.1931	0.111
Mof_N 	N 	0.877	0.9485	0.3551	-0.27
Mof_C 	C 	0.0163	0.3943	0.5554	0.039
Mof_N 	N 	0.9753	0.2693	0.5256	-0.22
Mof_N 	N 	0.8204	0.1802	0.2474	-0.137
Mof_N 	N 	0.0808	0.5069	0.5579	-0.281
Mof_C 	C 	0.7872	0.4763	0.1947	0.086
Mof_H 	H 	0.77	0.5165	0.1767	-0.019
Mof_C 	C 	0.7967	0.2275	0.216	0.1
Mof_C 	C 	0.9465	0.2123	0.5304	0.113
Mof_N 	N 	0.6691	0.9715	0.1061	-0.275
Mof_C 	C 	0.8332	0.0426	0.2864	0.037
Mof_C 	C 	0.8513	0.2732	0.6508	0.099
Mof_H 	H 	0.8289	0.2363	0.6511	-0.021
Mof_C 	C 	0.9401	0.1323	0.5012	0.027
Mof_N 	N 	0.9599	0.3499	0.5854	-0.14
Mof_C 	C 	0.0671	0.4911	0.5927	0.081
Mof_H 	H 	0.0796	0.5186	0.619	-0.019
Mof_N 	N 	0.7798	0.0531	0.2249	-0.219
Mof_C 	C 	0.9071	0.3061	0.6195	0.09
Mof_C 	C 	0.8449	0.9092	0.3307	0.053
Mof_H 	H 	0.837	0.8509	0.3382	-0.006
Mof_C 	C 	0.8039	0.3242	0.216	0.064
Mof_C 	C 	0.9821	0.3348	0.5552	0.108
Mof_N 	N 	0.8602	0.3333	0.6803	-0.293
Mof_C 	C 	0.8662	0.0806	0.3122	-0.115
Mof_H 	H 	0.8741	0.1404	0.3071	0.09
Mof_C 	C 	0.9317	0.2927	0.5849	0.112
Mof_C 	C 	0.728	0.059	0.1626	0.036
Mof_C 	C 	0.8406	0.4517	0.2462	0.069
Mof_H 	H 	0.8627	0.4753	0.2656	-0.015
Mof_C 	C 	0.8238	0.9525	0.2953	-0.11
Mof_H 	H 	0.803	0.9222	0.2769	0.063
Mof_C 	C 	0.8736	0.2597	0.618	-0.142
Mof_H 	H 	0.8649	0.2184	0.595	0.093
Mof_C 	C 	0.9671	0.1046	0.4766	-0.096
Mof_H 	H 	0.991	0.1375	0.4784	0.055
Mof_C 	C 	0.0657	0.4609	0.5227	0.078
Mof_H 	H 	0.0774	0.4675	0.4979	-0.008
Mof_C 	C 	0.7799	0.3848	0.1905	-0.133
Mof_H 	H 	0.7582	0.3636	0.1698	0.083
Mof_C 	C 	0.9607	0.0326	0.4503	0.052
Mof_H 	H 	0.9798	0.0158	0.4337	-0.002
Mof_C 	C 	0.6817	0.0524	0.0977	0.074
Mof_H 	H 	0.6704	0.0788	0.0707	-0.002
Mof_C 	C 	0.8998	0.0086	0.471	0.048
Mof_H 	H 	0.8766	0.9737	0.4699	-0.006
Mof_C 	C 	0.8356	0.3599	0.2447	-0.124
Mof_H 	H 	0.8534	0.3215	0.263	0.086
Mof_C 	C 	0.6871	0.9335	0.1441	0.068
Mof_H 	H 	0.6781	0.8763	0.152	-0.002
Mof_C 	C 	0.8868	0.0299	0.345	0.082
Mof_H 	H 	0.91	0.0554	0.3616	-0.01
Mof_C 	C 	0.9058	0.0845	0.4971	-0.096
Mof_H 	H 	0.8859	0.1035	0.5122	0.071
Mof_C 	C 	0.7105	0.1029	0.1253	-0.112
Mof_H 	H 	0.7173	0.1627	0.1187	0.084
Mof_C 	C 	0.7165	0.9731	0.1706	-0.123
Mof_H 	H 	0.7299	0.9416	0.1954	0.077
Mof_C 	C 	0.0338	0.4038	0.5201	-0.121
Mof_H 	H 	0.0242	0.3715	0.4941	0.067
Mof_C 	C 	0.0345	0.4348	0.5934	-0.119
Mof_H 	H 	0.0252	0.4249	0.6196	0.086
Mof_C 	C 	0.8911	0.3834	0.678	0.115
Mof_H 	H 	0.8964	0.4325	0.6976	-0.033
Mof_C 	C 	0.9152	0.3714	0.6509	-0.159
Mof_H 	H 	0.9381	0.4078	0.6529	0.096
Mof_H 	H 	0.9888	0.264	0.5046	0.111
Mof_H 	H 	0.7733	0.9966	0.2287	0.118
Mof_I 	I 	0.26719	0.75892	0.70893	-0.388
Mof_I 	I 	0.37469	0.83451	0.80304	-0.398
Mof_I 	I 	0.10716	0.73478	0.60149	-0.378
Mof_I 	I 	0.47441	0.65845	0.87263	-0.356
Mof_I 	I 	0.14893	0.59939	0.49048	-0.374
Mof_I 	I 	0.37421	0.73477	0.93775	-0.384
Mof_Zn	Zn	0.12696	0.59446	0.56263	1.165
Mof_Zn	Zn	0.41353	0.62153	0.90363	1.165
Mof_Zn	Zn	0.32888	0.85299	0.72909	1.163
Mof_N 	N 	0.3166	0.9898	0.722	-0.279
Mof_N 	N 	0.2668	0.3086	0.6875	-0.143
Mof_C 	C 	0.3101	0.4051	0.7506	0.119
Mof_N 	N 	0.4269	0.5166	0.947	-0.265
Mof_N 	N 	0.4235	0.2781	0.0596	-0.141
Mof_C 	C 	0.2607	0.3944	0.6931	0.111
Mof_N 	N 	0.377	0.5515	0.8551	-0.27
Mof_C 	C 	0.5163	0.1057	0.0554	0.04
Mof_N 	N 	0.4753	0.2307	0.0256	-0.22
Mof_N 	N 	0.3204	0.3198	0.7474	-0.137
Mof_N 	N 	0.5808	0.9931	0.0579	-0.282
Mof_C 	C 	0.2872	0.0237	0.6947	0.086
Mof_H 	H 	0.27	0.9835	0.6767	-0.018
Mof_C 	C 	0.2967	0.2725	0.716	0.1
Mof_C 	C 	0.4465	0.2877	0.0304	0.113
Mof_N 	N 	0.1691	0.5285	0.6061	-0.274
Mof_C 	C 	0.3332	0.4574	0.7864	0.037
Mof_C 	C 	0.3513	0.2268	0.1508	0.099
Mof_H 	H 	0.3289	0.2637	0.1511	-0.021
Mof_C 	C 	0.4401	0.3677	0.0012	0.027
Mof_N 	N 	0.4599	0.1501	0.0854	-0.14
Mof_C 	C 	0.5671	0.0089	0.0927	0.081
Mof_H 	H 	0.5796	0.9814	0.119	-0.02
Mof_N 	N 	0.2798	0.4469	0.7249	-0.219
Mof_C 	C 	0.4071	0.1939	0.1195	0.09
Mof_C 	C 	0.3449	0.5908	0.8307	0.053
Mof_H 	H 	0.337	0.6491	0.8382	-0.006
Mof_C 	C 	0.3039	0.1758	0.716	0.063
Mof_C 	C 	0.4821	0.1652	0.0552	0.108
Mof_N 	N 	0.3602	0.1667	0.1803	-0.293
Mof_C 	C 	0.3662	0.4194	0.8122	-0.115
Mof_H 	H 	0.3741	0.3596	0.8071	0.089
Mof_C 	C 	0.4317	0.2073	0.0849	0.112
Mof_C 	C 	0.228	0.441	0.6626	0.035
Mof_C 	C 	0.3406	0.0483	0.7462	0.069
Mof_H 	H 	0.3627	0.0247	0.7656	-0.015
Mof_C 	C 	0.3238	0.5475	0.7953	-0.109
Mof_H 	H 	0.303	0.5778	0.7769	0.063
Mof_C 	C 	0.3736	0.2403	0.118	-0.142
Mof_H 	H 	0.3649	0.2816	0.095	0.093
Mof_C 	C 	0.4671	0.3954	0.9766	-0.097
Mof_H 	H 	0.491	0.3625	0.9784	0.055
Mof_C 	C 	0.5657	0.0391	0.0227	0.079
Mof_H 	H 	0.5774	0.0325	0.9979	-0.008
Mof_C 	C 	0.2799	0.1152	0.6905	-0.133
Mof_H 	H 	0.2582	0.1364	0.6698	0.083
Mof_C 	C 	0.4607	0.4674	0.9503	0.052
Mof_H 	H 	0.4798	0.4842	0.9337	-0.002
Mof_C 	C 	0.1817	0.4476	0.5977	0.074
Mof_H 	H 	0.1704	0.4212	0.5707	-0.002
Mof_C 	C 	0.3998	0.4914	0.971	0.048
Mof_H 	H 	0.3766	0.5263	0.9699	-0.006
Mof_C 	C 	0.3356	0.1401	0.7447	-0.124
Mof_H 	H 	0.3534	0.1785	0.763	0.086
Mof_C 	C 	0.1871	0.5665	0.6441	0.067
Mof_H 	H 	0.1781	0.6237	0.652	-0.002
Mof_C 	C 	0.3868	0.4701	0.845	0.082
Mof_H 	H 	0.41	0.4446	0.8616	-0.01
Mof_C 	C 	0.4058	0.4155	0.9971	-0.096
Mof_H 	H 	0.3859	0.3965	0.0122	0.072
Mof_C 	C 	0.2105	0.3971	0.6253	-0.112
Mof_H 	H 	0.2173	0.3373	0.6187	0.084
Mof_C 	C 	0.2165	0.5269	0.6706	-0.122
Mof_H 	H 	0.2299	0.5584	0.6954	0.077
Mof_C 	C 	0.5338	0.0962	0.0201	-0.121
Mof_H 	H 	0.5242	0.1285	0.9941	0.067
Mof_C 	C 	0.5345	0.0652	0.0934	-0.119
Mof_H 	H 	0.5252	0.0751	0.1196	0.086
Mof_C 	C 	0.3911	0.1166	0.178	0.115
Mof_H 	H 	0.3964	0.0675	0.1976	-0.033
Mof_C 	C 	0.4152	0.1286	0.1509	-0.159
Mof_H 	H 	0.4381	0.0922	0.1529	0.096
Mof_H 	H 	0.4888	0.236	0.0046	0.111
Mof_H 	H 	0.2733	0.5034	0.7287	0.118
Mof_I 	I 	0.76719	0.25892	0.70893	-0.388
Mof_I 	I 	0.87469	0.33451	0.80304	-0.398
Mof_I 	I 	0.60716	0.23478	0.60149	-0.378
Mof_I 	I 	0.97441	0.15845	0.87263	-0.356
Mof_I 	I 	0.64893	0.09939	0.49048	-0.374
Mof_I 	I 	0.87421	0.23477	0.93775	-0.384
Mof_Zn	Zn	0.62696	0.09446	0.56263	1.165
Mof_Zn	Zn	0.91353	0.12153	0.90363	1.165
Mof_Zn	Zn	0.82888	0.35299	0.72909	1.163
Mof_N 	N 	0.8166	0.4898	0.722	-0.279
Mof_N 	N 	0.7668	0.8086	0.6875	-0.143
Mof_C 	C 	0.8101	0.9051	0.7506	0.119
Mof_N 	N 	0.9269	0.0166	0.947	-0.265
Mof_N 	N 	0.9235	0.7781	0.0596	-0.141
Mof_C 	C 	0.7607	0.8944	0.6931	0.111
Mof_N 	N 	0.877	0.0515	0.8551	-0.27
Mof_C 	C 	0.0163	0.6057	0.0554	0.039
Mof_N 	N 	0.9753	0.7307	0.0256	-0.22
Mof_N 	N 	0.8204	0.8198	0.7474	-0.137
Mof_N 	N 	0.0808	0.4931	0.0579	-0.281
Mof_C 	C 	0.7872	0.5237	0.6947	0.086
Mof_H 	H 	0.77	0.4835	0.6767	-0.019
Mof_C 	C 	0.7967	0.7725	0.716	0.1
Mof_C 	C 	0.9465	0.7877	0.0304	0.113
Mof_N 	N 	0.6691	0.0285	0.6061	-0.275
Mof_C 	C 	0.8332	0.9574	0.7864	0.037
Mof_C 	C 	0.8513	0.7268	0.1508	0.099
Mof_H 	H 	0.8289	0.7637	0.1511	-0.021
Mof_C 	C 	0.9401	0.8677	0.0012	0.026
Mof_N 	N 	0.9599	0.6501	0.0854	-0.14
Mof_C 	C 	0.0671	0.5089	0.0927	0.081
Mof_H 	H 	0.0796	0.4814	0.119	-0.02
Mof_N 	N 	0.7798	0.9469	0.7249	-0.219
Mof_C 	C 	0.9071	0.6939	0.1195	0.09
Mof_C 	C 	0.8449	0.0908	0.8307	0.053
Mof_H 	H 	0.837	0.1491	0.8382	-0.006
Mof_C 	C 	0.8039	0.6758	0.716	0.064
Mof_C 	C 	0.9821	0.6652	0.0552	0.108
Mof_N 	N 	0.8602	0.6667	0.1803	-0.293
Mof_C 	C 	0.8662	0.9194	0.8122	-0.115
Mof_H 	H 	0.8741	0.8596	0.8071	0.09
Mof_C 	C 	0.9317	0.7073	0.0849	0.112
Mof_C 	C 	0.728	0.941	0.6626	0.036
Mof_C 	C 	0.8406	0.5483	0.7462	0.069
Mof_H 	H 	0.8627	0.5247	0.7656	-0.015
Mof_C 	C 	0.8238	0.0475	0.7953	-0.11
Mof_H 	H 	0.803	0.0778	0.7769	0.064
Mof_C 	C 	0.8736	0.7403	0.118	-0.142
Mof_H 	H 	0.8649	0.7816	0.095	0.093
Mof_C 	C 	0.9671	0.8954	0.9766	-0.096
Mof_H 	H 	0.991	0.8625	0.9784	0.055
Mof_C 	C 	0.0657	0.5391	0.0227	0.078
Mof_H 	H 	0.0774	0.5325	0.9979	-0.008
Mof_C 	C 	0.7799	0.6152	0.6905	-0.133
Mof_H 	H 	0.7582	0.6364	0.6698	0.083
Mof_C 	C 	0.9607	0.9674	0.9503	0.052
Mof_H 	H 	0.9798	0.9842	0.9337	-0.002
Mof_C 	C 	0.6817	0.9476	0.5977	0.074
Mof_H 	H 	0.6704	0.9212	0.5707	-0.002
Mof_C 	C 	0.8998	0.9914	0.971	0.049
Mof_H 	H 	0.8766	0.0263	0.9699	-0.006
Mof_C 	C 	0.8356	0.6401	0.7447	-0.124
Mof_H 	H 	0.8534	0.6785	0.763	0.086
Mof_C 	C 	0.6871	0.0665	0.6441	0.067
Mof_H 	H 	0.6781	0.1237	0.652	-0.002
Mof_C 	C 	0.8868	0.9701	0.845	0.082
Mof_H 	H 	0.91	0.9446	0.8616	-0.01
Mof_C 	C 	0.9058	0.9155	0.9971	-0.095
Mof_H 	H 	0.8859	0.8965	0.0122	0.071
Mof_C 	C 	0.7105	0.8971	0.6253	-0.112
Mof_H 	H 	0.7173	0.8373	0.6187	0.084
Mof_C 	C 	0.7165	0.0269	0.6706	-0.123
Mof_H 	H 	0.7299	0.0584	0.6954	0.077
Mof_C 	C 	0.0338	0.5962	0.0201	-0.121
Mof_H 	H 	0.0242	0.6285	0.9941	0.067
Mof_C 	C 	0.0345	0.5652	0.0934	-0.119
Mof_H 	H 	0.0252	0.5751	0.1196	0.086
Mof_C 	C 	0.8911	0.6166	0.178	0.115
Mof_H 	H 	0.8964	0.5675	0.1976	-0.033
Mof_C 	C 	0.9152	0.6286	0.1509	-0.159
Mof_H 	H 	0.9381	0.5922	0.1529	0.096
Mof_H 	H 	0.9888	0.736	0.0046	0.111
Mof_H 	H 	0.7733	0.0034	0.7287	0.118
Mof_I 	I 	0.73281	0.24108	0.29107	-0.388
Mof_I 	I 	0.62531	0.16549	0.19696	-0.398
Mof_I 	I 	0.89284	0.26522	0.39851	-0.378
Mof_I 	I 	0.52559	0.34155	0.12737	-0.356
Mof_I 	I 	0.85107	0.40061	0.50952	-0.374
Mof_I 	I 	0.62579	0.26523	0.06225	-0.384
Mof_Zn	Zn	0.87304	0.40554	0.43737	1.165
Mof_Zn	Zn	0.58647	0.37847	0.09637	1.165
Mof_Zn	Zn	0.67112	0.14701	0.27091	1.163
Mof_N 	N 	0.6834	0.0102	0.278	-0.279
Mof_N 	N 	0.7332	0.6914	0.3125	-0.143
Mof_C 	C 	0.6899	0.5949	0.2494	0.119
Mof_N 	N 	0.5731	0.4834	0.053	-0.265
Mof_N 	N 	0.5765	0.7219	0.9404	-0.141
Mof_C 	C 	0.7393	0.6056	0.3069	0.111
Mof_N 	N 	0.623	0.4485	0.1449	-0.27
Mof_C 	C 	0.4837	0.8943	0.9446	0.04
Mof_N 	N 	0.5247	0.7693	0.9744	-0.22
Mof_N 	N 	0.6796	0.6802	0.2526	-0.137
Mof_N 	N 	0.4192	0.0069	0.9421	-0.282
Mof_C 	C 	0.7128	0.9763	0.3053	0.086
Mof_H 	H 	0.73	0.0165	0.3233	-0.018
Mof_C 	C 	0.7033	0.7275	0.284	0.1
Mof_C 	C 	0.5535	0.7123	0.9696	0.113
Mof_N 	N 	0.8309	0.4715	0.3939	-0.274
Mof_C 	C 	0.6668	0.5426	0.2136	0.037
Mof_C 	C 	0.6487	0.7732	0.8492	0.099
Mof_H 	H 	0.6711	0.7363	0.8489	-0.021
Mof_C 	C 	0.5599	0.6323	0.9988	0.027
Mof_N 	N 	0.5401	0.8499	0.9146	-0.14
Mof_C 	C 	0.4329	0.9911	0.9073	0.081
Mof_H 	H 	0.4204	0.0186	0.881	-0.02
Mof_N 	N 	0.7202	0.5531	0.2751	-0.219
Mof_C 	C 	0.5929	0.8061	0.8805	0.09
Mof_C 	C 	0.6551	0.4092	0.1693	0.053
Mof_H 	H 	0.663	0.3509	0.1618	-0.006
Mof_C 	C 	0.6961	0.8242	0.284	0.063
Mof_C 	C 	0.5179	0.8348	0.9448	0.108
Mof_N 	N 	0.6398	0.8333	0.8197	-0.293
Mof_C 	C 	0.6338	0.5806	0.1878	-0.115
Mof_H 	H 	0.6259	0.6404	0.1929	0.089
Mof_C 	C 	0.5683	0.7927	0.9151	0.112
Mof_C 	C 	0.772	0.559	0.3374	0.035
Mof_C 	C 	0.6594	0.9517	0.2538	0.069
Mof_H 	H 	0.6373	0.9753	0.2344	-0.015
Mof_C 	C 	0.6762	0.4525	0.2047	-0.109
Mof_H 	H 	0.697	0.4222	0.2231	0.063
Mof_C 	C 	0.6264	0.7597	0.882	-0.142
Mof_H 	H 	0.6351	0.7184	0.905	0.093
Mof_C 	C 	0.5329	0.6046	0.0234	-0.097
Mof_H 	H 	0.509	0.6375	0.0216	0.055
Mof_C 	C 	0.4343	0.9609	0.9773	0.079
Mof_H 	H 	0.4226	0.9675	0.0021	-0.008
Mof_C 	C 	0.7201	0.8848	0.3095	-0.133
Mof_H 	H 	0.7418	0.8636	0.3302	0.083
Mof_C 	C 	0.5393	0.5326	0.0497	0.052
Mof_H 	H 	0.5202	0.5158	0.0663	-0.002
Mof_C 	C 	0.8183	0.5524	0.4023	0.074
Mof_H 	H 	0.8296	0.5788	0.4293	-0.002
Mof_C 	C 	0.6002	0.5086	0.029	0.048
Mof_H 	H 	0.6234	0.4737	0.0301	-0.006
Mof_C 	C 	0.6644	0.8599	0.2553	-0.124
Mof_H 	H 	0.6466	0.8215	0.237	0.086
Mof_C 	C 	0.8129	0.4335	0.3559	0.067
Mof_H 	H 	0.8219	0.3763	0.348	-0.002
Mof_C 	C 	0.6132	0.5299	0.155	0.082
Mof_H 	H 	0.59	0.5554	0.1384	-0.01
Mof_C 	C 	0.5942	0.5845	0.0029	-0.096
Mof_H 	H 	0.6141	0.6035	0.9878	0.072
Mof_C 	C 	0.7895	0.6029	0.3747	-0.112
Mof_H 	H 	0.7827	0.6627	0.3813	0.084
Mof_C 	C 	0.7835	0.4731	0.3294	-0.122
Mof_H 	H 	0.7701	0.4416	0.3046	0.077
Mof_C 	C 	0.4662	0.9038	0.9799	-0.121
Mof_H 	H 	0.4758	0.8715	0.0059	0.067
Mof_C 	C 	0.4655	0.9348	0.9066	-0.119
Mof_H 	H 	0.4748	0.9249	0.8804	0.086
Mof_C 	C 	0.6089	0.8834	0.822	0.115
Mof_H 	H 	0.6036	0.9325	0.8024	-0.033
Mof_C 	C 	0.5848	0.8714	0.8491	-0.159
Mof_H 	H 	0.5619	0.9078	0.8471	0.096
Mof_H 	H 	0.5112	0.764	0.9954	0.111
Mof_H 	H 	0.7267	0.4966	0.2713	0.118
Mof_I 	I 	0.23281	0.74108	0.29107	-0.388
Mof_I 	I 	0.12531	0.66549	0.19696	-0.398
Mof_I 	I 	0.39284	0.76522	0.39851	-0.378
Mof_I 	I 	0.02559	0.84155	0.12737	-0.356
Mof_I 	I 	0.35107	0.90061	0.50952	-0.374
Mof_I 	I 	0.12579	0.76523	0.06225	-0.384
Mof_Zn	Zn	0.37304	0.90554	0.43737	1.165
Mof_Zn	Zn	0.08647	0.87847	0.09637	1.165
Mof_Zn	Zn	0.17112	0.64701	0.27091	1.163
Mof_N 	N 	0.1834	0.5102	0.278	-0.279
Mof_N 	N 	0.2332	0.1914	0.3125	-0.143
Mof_C 	C 	0.1899	0.0949	0.2494	0.119
Mof_N 	N 	0.0731	0.9834	0.053	-0.265
Mof_N 	N 	0.0765	0.2219	0.9404	-0.141
Mof_C 	C 	0.2393	0.1056	0.3069	0.111
Mof_N 	N 	0.123	0.9485	0.1449	-0.27
Mof_C 	C 	0.9837	0.3943	0.9446	0.039
Mof_N 	N 	0.0247	0.2693	0.9744	-0.22
Mof_N 	N 	0.1796	0.1802	0.2526	-0.137
Mof_N 	N 	0.9192	0.5069	0.9421	-0.281
Mof_C 	C 	0.2128	0.4763	0.3053	0.086
Mof_H 	H 	0.23	0.5165	0.3233	-0.019
Mof_C 	C 	0.2033	0.2275	0.284	0.1
Mof_C 	C 	0.0535	0.2123	0.9696	0.113
Mof_N 	N 	0.3309	0.9715	0.3939	-0.275
Mof_C 	C 	0.1668	0.0426	0.2136	0.037
Mof_C 	C 	0.1487	0.2732	0.8492	0.099
Mof_H 	H 	0.1711	0.2363	0.8489	-0.021
Mof_C 	C 	0.0599	0.1323	0.9988	0.026
Mof_N 	N 	0.0401	0.3499	0.9146	-0.14
Mof_C 	C 	0.9329	0.4911	0.9073	0.081
Mof_H 	H 	0.9204	0.5186	0.881	-0.02
Mof_N 	N 	0.2202	0.0531	0.2751	-0.219
Mof_C 	C 	0.0929	0.3061	0.8805	0.09
Mof_C 	C 	0.1551	0.9092	0.1693	0.053
Mof_H 	H 	0.163	0.8509	0.1618	-0.006
Mof_C 	C 	0.1961	0.3242	0.284	0.064
Mof_C 	C 	0.0179	0.3348	0.9448	0.108
Mof_N 	N 	0.1398	0.3333	0.8197	-0.293
Mof_C 	C 	0.1338	0.0806	0.1878	-0.115
Mof_H 	H 	0.1259	0.1404	0.1929	0.09
Mof_C 	C 	0.0683	0.2927	0.9151	0.112
Mof_C 	C 	0.272	0.059	0.3374	0.036
Mof_C 	C 	0.1594	0.4517	0.2538	0.069
Mof_H 	H 	0.1373	0.4753	0.2344	-0.015
Mof_C 	C 	0.1762	0.9525	0.2047	-0.11
Mof_H 	H 	0.197	0.9222	0.2231	0.064
Mof_C 	C 	0.1264	0.2597	0.882	-0.142
Mof_H 	H 	0.1351	0.2184	0.905	0.093
Mof_C 	C 	0.0329	0.1046	0.0234	-0.096
Mof_H 	H 	0.009	0.1375	0.0216	0.055
Mof_C 	C 	0.9343	0.4609	0.9773	0.078
Mof_H 	H 	0.9226	0.4675	0.0021	-0.008
Mof_C 	C 	0.2201	0.3848	0.3095	-0.133
Mof_H 	H 	0.2418	0.3636	0.3302	0.083
Mof_C 	C 	0.0393	0.0326	0.0497	0.052
Mof_H 	H 	0.0202	0.0158	0.0663	-0.002
Mof_C 	C 	0.3183	0.0524	0.4023	0.074
Mof_H 	H 	0.3296	0.0788	0.4293	-0.002
Mof_C 	C 	0.1002	0.0086	0.029	0.049
Mof_H 	H 	0.1234	0.9737	0.0301	-0.006
Mof_C 	C 	0.1644	0.3599	0.2553	-0.124
Mof_H 	H 	0.1466	0.3215	0.237	0.086
Mof_C 	C 	0.3129	0.9335	0.3559	0.067
Mof_H 	H 	0.3219	0.8763	0.348	-0.002
Mof_C 	C 	0.1132	0.0299	0.155	0.082
Mof_H 	H 	0.09	0.0554	0.1384	-0.01
Mof_C 	C 	0.0942	0.0845	0.0029	-0.095
Mof_H 	H 	0.1141	0.1035	0.9878	0.071
Mof_C 	C 	0.2895	0.1029	0.3747	-0.112
Mof_H 	H 	0.2827	0.1627	0.3813	0.084
Mof_C 	C 	0.2835	0.9731	0.3294	-0.123
Mof_H 	H 	0.2701	0.9416	0.3046	0.077
Mof_C 	C 	0.9662	0.4038	0.9799	-0.121
Mof_H 	H 	0.9758	0.3715	0.0059	0.067
Mof_C 	C 	0.9655	0.4348	0.9066	-0.119
Mof_H 	H 	0.9748	0.4249	0.8804	0.086
Mof_C 	C 	0.1089	0.3834	0.822	0.115
Mof_H 	H 	0.1036	0.4325	0.8024	-0.033
Mof_C 	C 	0.0848	0.3714	0.8491	-0.159
Mof_H 	H 	0.0619	0.4078	0.8471	0.096
Mof_H 	H 	0.0112	0.264	0.9954	0.111
Mof_H 	H 	0.2267	0.9966	0.2713	0.118
Mof_I 	I 	0.73281	0.75892	0.79107	-0.388
Mof_I 	I 	0.62531	0.83451	0.69696	-0.398
Mof_I 	I 	0.89284	0.73478	0.89851	-0.378
Mof_I 	I 	0.52559	0.65845	0.62737	-0.356
Mof_I 	I 	0.85107	0.59939	0.00952	-0.374
Mof_I 	I 	0.62579	0.73477	0.56225	-0.384
Mof_Zn	Zn	0.87304	0.59446	0.93737	1.165
Mof_Zn	Zn	0.58647	0.62153	0.59637	1.165
Mof_Zn	Zn	0.67112	0.85299	0.77091	1.163
Mof_N 	N 	0.6834	0.9898	0.778	-0.278
Mof_N 	N 	0.7332	0.3086	0.8125	-0.144
Mof_C 	C 	0.6899	0.4051	0.7494	0.119
Mof_N 	N 	0.5731	0.5166	0.553	-0.264
Mof_N 	N 	0.5765	0.2781	0.4404	-0.141
Mof_C 	C 	0.7393	0.3944	0.8069	0.111
Mof_N 	N 	0.623	0.5515	0.6449	-0.27
Mof_C 	C 	0.4837	0.1057	0.4446	0.04
Mof_N 	N 	0.5247	0.2307	0.4744	-0.22
Mof_N 	N 	0.6796	0.3198	0.7526	-0.137
Mof_N 	N 	0.4192	0.9931	0.4421	-0.281
Mof_C 	C 	0.7128	0.0237	0.8053	0.086
Mof_H 	H 	0.73	0.9835	0.8233	-0.018
Mof_C 	C 	0.7033	0.2725	0.784	0.1
Mof_C 	C 	0.5535	0.2877	0.4696	0.113
Mof_N 	N 	0.8309	0.5285	0.8939	-0.274
Mof_C 	C 	0.6668	0.4574	0.7136	0.037
Mof_C 	C 	0.6487	0.2268	0.3492	0.099
Mof_H 	H 	0.6711	0.2637	0.3489	-0.021
Mof_C 	C 	0.5599	0.3677	0.4988	0.027
Mof_N 	N 	0.5401	0.1501	0.4146	-0.14
Mof_C 	C 	0.4329	0.0089	0.4073	0.081
Mof_H 	H 	0.4204	0.9814	0.381	-0.02
Mof_N 	N 	0.7202	0.4469	0.7751	-0.219
Mof_C 	C 	0.5929	0.1939	0.3805	0.09
Mof_C 	C 	0.6551	0.5908	0.6693	0.053
Mof_H 	H 	0.663	0.6491	0.6618	-0.006
Mof_C 	C 	0.6961	0.1758	0.784	0.063
Mof_C 	C 	0.5179	0.1652	0.4448	0.108
Mof_N 	N 	0.6398	0.1667	0.3197	-0.293
Mof_C 	C 	0.6338	0.4194	0.6878	-0.115
Mof_H 	H 	0.6259	0.3596	0.6929	0.089
Mof_C 	C 	0.5683	0.2073	0.4151	0.112
Mof_C 	C 	0.772	0.441	0.8374	0.035
Mof_C 	C 	0.6594	0.0483	0.7538	0.069
Mof_H 	H 	0.6373	0.0247	0.7344	-0.015
Mof_C 	C 	0.6762	0.5475	0.7047	-0.109
Mof_H 	H 	0.697	0.5778	0.7231	0.063
Mof_C 	C 	0.6264	0.2403	0.382	-0.142
Mof_H 	H 	0.6351	0.2816	0.405	0.093
Mof_C 	C 	0.5329	0.3954	0.5234	-0.096
Mof_H 	H 	0.509	0.3625	0.5216	0.055
Mof_C 	C 	0.4343	0.0391	0.4773	0.078
Mof_H 	H 	0.4226	0.0325	0.5021	-0.008
Mof_C 	C 	0.7201	0.1152	0.8095	-0.133
Mof_H 	H 	0.7418	0.1364	0.8302	0.083
Mof_C 	C 	0.5393	0.4674	0.5497	0.052
Mof_H 	H 	0.5202	0.4842	0.5663	-0.002
Mof_C 	C 	0.8183	0.4476	0.9023	0.074
Mof_H 	H 	0.8296	0.4212	0.9293	-0.002
Mof_C 	C 	0.6002	0.4914	0.529	0.048
Mof_H 	H 	0.6234	0.5263	0.5301	-0.006
Mof_C 	C 	0.6644	0.1401	0.7553	-0.124
Mof_H 	H 	0.6466	0.1785	0.737	0.086
Mof_C 	C 	0.8129	0.5665	0.8559	0.067
Mof_H 	H 	0.8219	0.6237	0.848	-0.002
Mof_C 	C 	0.6132	0.4701	0.655	0.082
Mof_H 	H 	0.59	0.4446	0.6384	-0.01
Mof_C 	C 	0.5942	0.4155	0.5029	-0.096
Mof_H 	H 	0.6141	0.3965	0.4878	0.071
Mof_C 	C 	0.7895	0.3971	0.8747	-0.112
Mof_H 	H 	0.7827	0.3373	0.8813	0.084
Mof_C 	C 	0.7835	0.5269	0.8294	-0.122
Mof_H 	H 	0.7701	0.5584	0.8046	0.077
Mof_C 	C 	0.4662	0.0962	0.4799	-0.121
Mof_H 	H 	0.4758	0.1285	0.5059	0.067
Mof_C 	C 	0.4655	0.0652	0.4066	-0.119
Mof_H 	H 	0.4748	0.0751	0.3804	0.086
Mof_C 	C 	0.6089	0.1166	0.322	0.115
Mof_H 	H 	0.6036	0.0675	0.3024	-0.033
Mof_C 	C 	0.5848	0.1286	0.3491	-0.159
Mof_H 	H 	0.5619	0.0922	0.3471	0.096
Mof_H 	H 	0.5112	0.236	0.4954	0.111
Mof_H 	H 	0.7267	0.5034	0.7713	0.118
Mof_I 	I 	0.23281	0.25892	0.79107	-0.388
Mof_I 	I 	0.12531	0.33451	0.69696	-0.398
Mof_I 	I 	0.39284	0.23478	0.89851	-0.378
Mof_I 	I 	0.02559	0.15845	0.62737	-0.356
Mof_I 	I 	0.35107	0.09939	0.00952	-0.374
Mof_I 	I 	0.12579	0.23477	0.56225	-0.384
Mof_Zn	Zn	0.37304	0.09446	0.93737	1.165
Mof_Zn	Zn	0.08647	0.12153	0.59637	1.165
Mof_Zn	Zn	0.17112	0.35299	0.77091	1.163
Mof_N 	N 	0.1834	0.4898	0.778	-0.279
Mof_N 	N 	0.2332	0.8086	0.8125	-0.143
Mof_C 	C 	0.1899	0.9051	0.7494	0.119
Mof_N 	N 	0.0731	0.0166	0.553	-0.265
Mof_N 	N 	0.0765	0.7781	0.4404	-0.141
Mof_C 	C 	0.2393	0.8944	0.8069	0.111
Mof_N 	N 	0.123	0.0515	0.6449	-0.27
Mof_C 	C 	0.9837	0.6057	0.4446	0.039
Mof_N 	N 	0.0247	0.7307	0.4744	-0.22
Mof_N 	N 	0.1796	0.8198	0.7526	-0.137
Mof_N 	N 	0.9192	0.4931	0.4421	-0.281
Mof_C 	C 	0.2128	0.5237	0.8053	0.086
Mof_H 	H 	0.23	0.4835	0.8233	-0.019
Mof_C 	C 	0.2033	0.7725	0.784	0.1
Mof_C 	C 	0.0535	0.7877	0.4696	0.113
Mof_N 	N 	0.3309	0.0285	0.8939	-0.275
Mof_C 	C 	0.1668	0.9574	0.7136	0.037
Mof_C 	C 	0.1487	0.7268	0.3492	0.099
Mof_H 	H 	0.1711	0.7637	0.3489	-0.021
Mof_C 	C 	0.0599	0.8677	0.4988	0.027
Mof_N 	N 	0.0401	0.6501	0.4146	-0.14
Mof_C 	C 	0.9329	0.5089	0.4073	0.081
Mof_H 	H 	0.9204	0.4814	0.381	-0.019
Mof_N 	N 	0.2202	0.9469	0.7751	-0.219
Mof_C 	C 	0.0929	0.6939	0.3805	0.09
Mof_C 	C 	0.1551	0.0908	0.6693	0.053
Mof_H 	H 	0.163	0.1491	0.6618	-0.006
Mof_C 	C 	0.1961	0.6758	0.784	0.064
Mof_C 	C 	0.0179	0.6652	0.4448	0.108
Mof_N 	N 	0.1398	0.6667	0.3197	-0.293
Mof_C 	C 	0.1338	0.9194	0.6878	-0.115
Mof_H 	H 	0.1259	0.8596	0.6929	0.09
Mof_C 	C 	0.0683	0.7073	0.4151	0.112
Mof_C 	C 	0.272	0.941	0.8374	0.036
Mof_C 	C 	0.1594	0.5483	0.7538	0.069
Mof_H 	H 	0.1373	0.5247	0.7344	-0.015
Mof_C 	C 	0.1762	0.0475	0.7047	-0.11
Mof_H 	H 	0.197	0.0778	0.7231	0.063
Mof_C 	C 	0.1264	0.7403	0.382	-0.142
Mof_H 	H 	0.1351	0.7816	0.405	0.093
Mof_C 	C 	0.0329	0.8954	0.5234	-0.096
Mof_H 	H 	0.009	0.8625	0.5216	0.055
Mof_C 	C 	0.9343	0.5391	0.4773	0.078
Mof_H 	H 	0.9226	0.5325	0.5021	-0.008
Mof_C 	C 	0.2201	0.6152	0.8095	-0.133
Mof_H 	H 	0.2418	0.6364	0.8302	0.083
Mof_C 	C 	0.0393	0.9674	0.5497	0.052
Mof_H 	H 	0.0202	0.9842	0.5663	-0.002
Mof_C 	C 	0.3183	0.9476	0.9023	0.074
Mof_H 	H 	0.3296	0.9212	0.9293	-0.002
Mof_C 	C 	0.1002	0.9914	0.529	0.048
Mof_H 	H 	0.1234	0.0263	0.5301	-0.006
Mof_C 	C 	0.1644	0.6401	0.7553	-0.124
Mof_H 	H 	0.1466	0.6785	0.737	0.086
Mof_C 	C 	0.3129	0.0665	0.8559	0.068
Mof_H 	H 	0.3219	0.1237	0.848	-0.002
Mof_C 	C 	0.1132	0.9701	0.655	0.082
Mof_H 	H 	0.09	0.9446	0.6384	-0.01
Mof_C 	C 	0.0942	0.9155	0.5029	-0.096
Mof_H 	H 	0.1141	0.8965	0.4878	0.071
Mof_C 	C 	0.2895	0.8971	0.8747	-0.112
Mof_H 	H 	0.2827	0.8373	0.8813	0.084
Mof_C 	C 	0.2835	0.0269	0.8294	-0.123
Mof_H 	H 	0.2701	0.0584	0.8046	0.077
Mof_C 	C 	0.9662	0.5962	0.4799	-0.121
Mof_H 	H 	0.9758	0.6285	0.5059	0.067
Mof_C 	C 	0.9655	0.5652	0.4066	-0.119
Mof_H 	H 	0.9748	0.5751	0.3804	0.086
Mof_C 	C 	0.1089	0.6166	0.322	0.115
Mof_H 	H 	0.1036	0.5675	0.3024	-0.033
Mof_C 	C 	0.0848	0.6286	0.3491	-0.159
Mof_H 	H 	0.0619	0.5922	0.3471	0.096
Mof_H 	H 	0.0112	0.736	0.4954	0.111
Mof_H 	H 	0.2267	0.0034	0.7713	0.118
_end
