data_functionalizedCrystal
_audit_creation_method	'EQeq! by Chris Wilmer'
_symmetry_space_group_name_H-M	'P1'
_symmetry_Int_Tables_number	1
_symmetry_cell_setting	triclinic
loop_
_symmetry_equiv_pos_as_xyz
  x,y,z
_cell_length_a	22.3773
_cell_length_b	6.7633
_cell_length_c	4.3529
_cell_angle_alpha	90
_cell_angle_beta	90
_cell_angle_gamma	90
loop_
_atom_site_label
_atom_site_type_symbol
_atom_site_fract_x
_atom_site_fract_y
_atom_site_fract_z
_atom_site_charge
Mof_O 	O 	0.0596	0.9363	0.6905	-0.259
Mof_O 	O 	0.4404	0.5637	0.6905	-0.325
Mof_O 	O 	0.9404	0.4363	0.3095	-0.369
Mof_O 	O 	0.5596	0.0637	0.3095	-0.47
Mof_O 	O 	0.9404	0.0637	0.3095	-0.43
Mof_O 	O 	0.5596	0.4363	0.3095	-0.409
Mof_O 	O 	0.0596	0.5637	0.6905	-0.344
Mof_O 	O 	0.4404	0.9363	0.6905	-0.241
Mof_Cu	Cu	-0	0.5	-0	0.78
Mof_Cu	Cu	0.5	0	-0	0.756
Mof_Cu	Cu	-0	0	-0	0.717
Mof_Cu	Cu	0.5	0.5	-0	0.819
Mof_P 	P 	0.0666	0.75	0.4999	0.411
Mof_O 	O 	0.0186	0.75	0.2368	-0.493
Mof_C 	C 	0.1388	0.75	0.308	-0.154
Mof_C 	C 	0.1932	0.75	0.544	0.107
Mof_P 	P 	0.4334	0.75	0.4999	0.411
Mof_O 	O 	0.4814	0.75	0.2368	-0.464
Mof_C 	C 	0.3612	0.75	0.308	-0.152
Mof_C 	C 	0.3068	0.75	0.544	0.107
Mof_P 	P 	0.9334	0.25	0.5001	0.395
Mof_O 	O 	0.9814	0.25	0.7632	-0.324
Mof_C 	C 	0.8612	0.25	0.692	0.03
Mof_C 	C 	0.8068	0.25	0.456	-0.061
Mof_P 	P 	0.5666	0.25	0.5001	0.397
Mof_O 	O 	0.5186	0.25	0.7632	-0.383
Mof_C 	C 	0.6388	0.25	0.692	0.024
Mof_C 	C 	0.6932	0.25	0.456	-0.063
Mof_C 	C 	0.25	0.75	0.366	-0.095
Mof_C 	C 	0.75	0.25	0.634	0.082
_end
