# CIF file generated by openbabel 3.1.0, see https://openbabel.org
data_I
_chemical_name_common 'image0'
_cell_length_a 16.8446
_cell_length_b 15.1638
_cell_length_c 8.3702
_cell_angle_alpha 90
_cell_angle_beta 116.29
_cell_angle_gamma 90
_space_group_name_H-M_alt 'P 1'
_space_group_name_Hall 'P 1'
loop_
    _symmetry_equiv_pos_as_xyz
    x,y,z
loop_
    _atom_site_label
    _atom_site_type_symbol
    _atom_site_fract_x
    _atom_site_fract_y
    _atom_site_fract_z
    _atom_site_occupancy
    C1       C        0.12487    0.94120    0.58960    1.000
    C2       C        0.20569    0.89270    0.72340    1.000
    C3       C        0.23000    0.81110    0.68500    1.000
    H1       H        0.19770    0.78610    0.57320    1.000
    C4       C        0.30200    0.76650    0.81160    1.000
    H2       H        0.31740    0.71170    0.78430    1.000
    C5       C        0.35163    0.80289    0.97960    1.000
    C6       C        0.32640    0.88470    0.01630    1.000
    H3       H        0.35870    0.91000    0.12790    1.000
    C7       C        0.25430    0.92910    0.89000    1.000
    H4       H        0.23840    0.98380    0.91730    1.000
    C8       C        0.43352    0.66472    0.12230    1.000
    H5       H        0.38810    0.63350    0.03240    1.000
    C9       C        0.42978    0.75636    0.11890    1.000
    O1       O        0.08836    0.90945    0.43350    1.000
    O2       O        0.10011    0.00924    0.63740    1.000
    C10      C        0.62487    0.44120    0.58960    1.000
    C11      C        0.70569    0.39270    0.72340    1.000
    C12      C        0.73000    0.31110    0.68500    1.000
    H6       H        0.69770    0.28610    0.57320    1.000
    C13      C        0.80200    0.26650    0.81160    1.000
    H7       H        0.81740    0.21170    0.78430    1.000
    C14      C        0.85163    0.30289    0.97960    1.000
    C15      C        0.82640    0.38470    0.01630    1.000
    H8       H        0.85870    0.41000    0.12790    1.000
    C16      C        0.75430    0.42910    0.89000    1.000
    H9       H        0.73840    0.48380    0.91730    1.000
    C17      C        0.93352    0.16472    0.12230    1.000
    H10      H        0.88810    0.13350    0.03240    1.000
    C18      C        0.92978    0.25636    0.11890    1.000
    O3       O        0.58836    0.40945    0.43350    1.000
    O4       O        0.60011    0.50924    0.63740    1.000
    C19      C        0.87513    0.94120    0.91040    1.000
    C20      C        0.79431    0.89270    0.77660    1.000
    C21      C        0.77000    0.81110    0.81500    1.000
    H11      H        0.80230    0.78610    0.92680    1.000
    C22      C        0.69800    0.76650    0.68840    1.000
    H12      H        0.68260    0.71170    0.71570    1.000
    C23      C        0.64837    0.80289    0.52040    1.000
    C24      C        0.67360    0.88470    0.48370    1.000
    H13      H        0.64130    0.91000    0.37210    1.000
    C25      C        0.74570    0.92910    0.61000    1.000
    H14      H        0.76160    0.98380    0.58270    1.000
    C26      C        0.56648    0.66472    0.37770    1.000
    H15      H        0.61190    0.63350    0.46760    1.000
    C27      C        0.57022    0.75636    0.38110    1.000
    O5       O        0.91164    0.90945    0.06650    1.000
    O6       O        0.89989    0.00924    0.86260    1.000
    C28      C        0.37513    0.44120    0.91040    1.000
    C29      C        0.29431    0.39270    0.77660    1.000
    C30      C        0.27000    0.31110    0.81500    1.000
    H16      H        0.30230    0.28610    0.92680    1.000
    C31      C        0.19800    0.26650    0.68840    1.000
    H17      H        0.18260    0.21170    0.71570    1.000
    C32      C        0.14837    0.30289    0.52040    1.000
    C33      C        0.17360    0.38470    0.48370    1.000
    H18      H        0.14130    0.41000    0.37210    1.000
    C34      C        0.24570    0.42910    0.61000    1.000
    H19      H        0.26160    0.48380    0.58270    1.000
    C35      C        0.06648    0.16472    0.37770    1.000
    H20      H        0.11190    0.13350    0.46760    1.000
    C36      C        0.07022    0.25636    0.38110    1.000
    O7       O        0.41164    0.40945    0.06650    1.000
    O8       O        0.39989    0.50924    0.86260    1.000
    Zn1      Zn       0.00000    0.98363    0.25000    1.000
    Zn2      Zn       0.50000    0.48363    0.25000    1.000
    C37      C        0.50000    0.80130    0.25000    1.000
    H21      H        0.50000    0.86270    0.25000    1.000
    N1       N        0.50000    0.61930    0.25000    1.000
    C38      C        0.00000    0.30130    0.25000    1.000
    H22      H        0.00000    0.36270    0.25000    1.000
    N2       N        0.00000    0.11930    0.25000    1.000
    C39      C        0.87513    0.05880    0.41040    1.000
    C40      C        0.79431    0.10730    0.27660    1.000
    C41      C        0.77000    0.18890    0.31500    1.000
    H23      H        0.80230    0.21390    0.42680    1.000
    C42      C        0.69800    0.23350    0.18840    1.000
    H24      H        0.68260    0.28830    0.21570    1.000
    C43      C        0.64837    0.19711    0.02040    1.000
    C44      C        0.67360    0.11530    0.98370    1.000
    H25      H        0.64130    0.09000    0.87210    1.000
    C45      C        0.74570    0.07090    0.11000    1.000
    H26      H        0.76160    0.01620    0.08270    1.000
    C46      C        0.56648    0.33528    0.87770    1.000
    H27      H        0.61190    0.36650    0.96760    1.000
    C47      C        0.57022    0.24364    0.88110    1.000
    O9       O        0.91164    0.09055    0.56650    1.000
    O10      O        0.89989    0.99076    0.36260    1.000
    C48      C        0.37513    0.55880    0.41040    1.000
    C49      C        0.29431    0.60730    0.27660    1.000
    C50      C        0.27000    0.68890    0.31500    1.000
    H28      H        0.30230    0.71390    0.42680    1.000
    C51      C        0.19800    0.73350    0.18840    1.000
    H29      H        0.18260    0.78830    0.21570    1.000
    C52      C        0.14837    0.69711    0.02040    1.000
    C53      C        0.17360    0.61530    0.98370    1.000
    H30      H        0.14130    0.59000    0.87210    1.000
    C54      C        0.24570    0.57090    0.11000    1.000
    H31      H        0.26160    0.51620    0.08270    1.000
    C55      C        0.06648    0.83528    0.87770    1.000
    H32      H        0.11190    0.86650    0.96760    1.000
    C56      C        0.07022    0.74364    0.88110    1.000
    O11      O        0.41164    0.59055    0.56650    1.000
    O12      O        0.39989    0.49076    0.36260    1.000
    C57      C        0.12487    0.05880    0.08960    1.000
    C58      C        0.20569    0.10730    0.22340    1.000
    C59      C        0.23000    0.18890    0.18500    1.000
    H33      H        0.19770    0.21390    0.07320    1.000
    C60      C        0.30200    0.23350    0.31160    1.000
    H34      H        0.31740    0.28830    0.28430    1.000
    C61      C        0.35163    0.19711    0.47960    1.000
    C62      C        0.32640    0.11530    0.51630    1.000
    H35      H        0.35870    0.09000    0.62790    1.000
    C63      C        0.25430    0.07090    0.39000    1.000
    H36      H        0.23840    0.01620    0.41730    1.000
    C64      C        0.43352    0.33528    0.62230    1.000
    H37      H        0.38810    0.36650    0.53240    1.000
    C65      C        0.42978    0.24364    0.61890    1.000
    O13      O        0.08836    0.09055    0.93350    1.000
    O14      O        0.10011    0.99076    0.13740    1.000
    C66      C        0.62487    0.55880    0.08960    1.000
    C67      C        0.70569    0.60730    0.22340    1.000
    C68      C        0.73000    0.68890    0.18500    1.000
    H38      H        0.69770    0.71390    0.07320    1.000
    C69      C        0.80200    0.73350    0.31160    1.000
    H39      H        0.81740    0.78830    0.28430    1.000
    C70      C        0.85163    0.69711    0.47960    1.000
    C71      C        0.82640    0.61530    0.51630    1.000
    H40      H        0.85870    0.59000    0.62790    1.000
    C72      C        0.75430    0.57090    0.39000    1.000
    H41      H        0.73840    0.51620    0.41730    1.000
    C73      C        0.93352    0.83528    0.62230    1.000
    H42      H        0.88810    0.86650    0.53240    1.000
    C74      C        0.92978    0.74364    0.61890    1.000
    O15      O        0.58836    0.59055    0.93350    1.000
    O16      O        0.60011    0.49076    0.13740    1.000
    Zn3      Zn       0.00000    0.01637    0.75000    1.000
    Zn4      Zn       0.50000    0.51637    0.75000    1.000
    C75      C        0.50000    0.19870    0.75000    1.000
    H43      H        0.50000    0.13730    0.75000    1.000
    N3       N        0.50000    0.38070    0.75000    1.000
    C76      C        0.00000    0.69870    0.75000    1.000
    H44      H        0.00000    0.63730    0.75000    1.000
    N4       N        0.00000    0.88070    0.75000    1.000
