data_functionalizedCrystal
_audit_creation_method	'EQeq! by Chris Wilmer'
_symmetry_space_group_name_H-M	'P1'
_symmetry_Int_Tables_number	1
_symmetry_cell_setting	triclinic
loop_
_symmetry_equiv_pos_as_xyz
  x,y,z
_cell_length_a	15.095
_cell_length_b	25.0532
_cell_length_c	29.7588
_cell_angle_alpha	90
_cell_angle_beta	107.936
_cell_angle_gamma	90
loop_
_atom_site_label
_atom_site_type_symbol
_atom_site_fract_x
_atom_site_fract_y
_atom_site_fract_z
_atom_site_charge
Mof_Pr	Pr	0.04151	0.59997	0.46473	2.551
Mof_Pr	Pr	0.95673	0.7591	0.50388	2.53
Mof_Pr	Pr	0.03358	0.92362	0.48509	2.496
Mof_I 	I 	0.32773	0.56718	0.81614	-0.601
Mof_I 	I 	0.52221	0.64482	0.73936	-0.763
Mof_I 	I 	0.48761	0.7118	0.87306	-0.567
Mof_I 	I 	0.25937	0.71886	0.73034	-0.574
Mof_I 	I 	0.49778	0.81161	0.75989	-0.766
Mof_I 	I 	0.6842	0.74907	0.67205	-0.593
Mof_I 	I 	0.74218	0.60336	0.26497	-0.607
Mof_I 	I 	0.50352	0.89191	0.62795	-0.562
Mof_I 	I 	0.48719	0.9789	0.74946	-0.764
Mof_I 	I 	0.30404	0.91135	0.83579	-0.625
Mof_I 	I 	0.47135	0.44514	0.38098	-0.582
Mof_I 	I 	0.22655	0.05547	0.74678	-0.58
Mof_Cu	Cu	0.34893	0.62282	0.7423	0.722
Mof_Cu	Cu	0.4828	0.62318	0.81973	0.719
Mof_Cu	Cu	0.32287	0.67056	0.81434	0.717
Mof_Cu	Cu	0.43604	0.71875	0.77916	0.732
Mof_Cu	Cu	0.53122	0.79579	0.67644	0.721
Mof_Cu	Cu	0.66925	0.70177	0.25279	0.727
Mof_Cu	Cu	0.67649	0.85354	0.67835	0.718
Mof_Cu	Cu	0.5639	0.89428	0.72018	0.748
Mof_Cu	Cu	0.31834	0.96106	0.75718	0.731
Mof_Cu	Cu	0.45986	0.53951	0.33406	0.733
Mof_Cu	Cu	0.70255	0.51629	0.66576	0.733
Mof_Cu	Cu	0.59286	0.55644	0.71173	0.739
Mof_O 	O 	0.123	0.52979	0.51706	-0.61
Mof_O 	O 	0.0646	0.47166	0.55718	-0.648
Mof_O 	O 	0.1793	0.64484	0.51968	-0.575
Mof_O 	O 	0.1022	0.71664	0.5308	-0.644
Mof_O 	O 	0.9881	0.60802	0.53502	-0.575
Mof_O 	O 	0.9267	0.68537	0.549	-0.594
Mof_O 	O 	0.8987	0.653	0.44264	-0.648
Mof_O 	O 	0.8106	0.71716	0.45559	-0.581
Mof_O 	O 	0.0756	0.68105	0.42942	-0.649
Mof_O 	O 	0.0143	0.76039	0.43629	-0.621
Mof_O 	O 	0.0241	0.79634	0.5852	-0.527
Mof_O 	O 	0.0806	0.84437	0.53817	-0.661
Mof_O 	O 	0.9073	0.84479	0.4558	-0.666
Mof_O 	O 	0.9553	0.88924	0.40357	-0.511
Mof_O 	O 	0.1952	0.9543	0.52925	-0.534
Mof_O 	O 	0.0973	0.014	0.54019	-0.661
Mof_O 	O 	0.035	0.07114	0.45198	-0.612
Mof_O 	O 	0.0791	0.98982	0.43661	-0.594
Mof_N 	N 	0.2833	0.57902	0.68533	-0.207
Mof_N 	N 	0.4217	0.75409	0.63631	-0.212
Mof_N 	N 	0.7835	0.55342	0.63125	-0.214
Mof_N 	N 	0.5728	0.58352	0.36867	-0.211
Mof_N 	N 	0.2325	0.7981	0.3441	-0.21
Mof_N 	N 	0.249	0.9139	0.70224	-0.217
Mof_N 	N 	0.7373	0.7549	0.30241	-0.222
Mof_N 	N 	0.4114	0.07825	0.64067	-0.216
Mof_N 	N 	0.2413	0.1128	0.3554	-0.211
Mof_C 	C 	0.2999	0.5895	0.6445	-0.026
Mof_H 	H 	0.3494	0.6131	0.6449	0.025
Mof_C 	C 	0.2485	0.5675	0.60184	0.034
Mof_H 	H 	0.2633	0.5754	0.5738	0.03
Mof_C 	C 	0.1751	0.5339	0.6007	-0.18
Mof_C 	C 	0.1596	0.5212	0.6429	0.046
Mof_H 	H 	0.1118	0.4967	0.6435	-0.001
Mof_C 	C 	0.214	0.5444	0.684	-0.027
Mof_H 	H 	0.2023	0.5357	0.7128	0.035
Mof_C 	C 	0.1159	0.5102	0.55448	0.567
Mof_C 	C 	0.4271	0.7142	0.6069	-0.008
Mof_H 	H 	0.4869	0.7012	0.6081	0.032
Mof_C 	C 	0.3496	0.6916	0.575	0.008
Mof_H 	H 	0.3562	0.6639	0.5544	0.039
Mof_C 	C 	0.2619	0.7099	0.57349	-0.148
Mof_C 	C 	0.2561	0.749	0.6052	0.019
Mof_H 	H 	0.1971	0.7615	0.606	0.035
Mof_C 	C 	0.3369	0.7697	0.6358	-0.015
Mof_H 	H 	0.332	0.7964	0.6576	0.021
Mof_C 	C 	0.1745	0.6883	0.53846	0.533
Mof_C 	C 	0.8402	0.527	0.6122	0.003
Mof_H 	H 	0.846	0.4895	0.6165	-0.035
Mof_C 	C 	0.891	0.5518	0.5865	0.003
Mof_H 	H 	0.9297	0.5315	0.5731	-0.006
Mof_C 	C 	0.8844	0.6067	0.58066	-0.138
Mof_C 	C 	0.8281	0.6345	0.6017	0.007
Mof_H 	H 	0.8236	0.6722	0.5993	0.037
Mof_C 	C 	0.7787	0.6065	0.6261	-0.001
Mof_H 	H 	0.7395	0.6259	0.6398	0.024
Mof_C 	C 	0.938	0.6354	0.55247	0.516
Mof_C 	C 	0.6576	0.5669	0.3688	-0.018
Mof_H 	H 	0.6619	0.5347	0.3527	0.022
Mof_C 	C 	0.739	0.594	0.3911	0.018
Mof_H 	H 	0.7975	0.5804	0.3907	0.015
Mof_C 	C 	0.734	0.6413	0.414	-0.144
Mof_C 	C 	0.6469	0.6596	0.4134	-0.002
Mof_H 	H 	0.6408	0.6921	0.4287	0.049
Mof_C 	C 	0.5691	0.63	0.3903	0
Mof_H 	H 	0.5098	0.6432	0.3898	0.027
Mof_C 	C 	0.8213	0.6728	0.4392	0.507
Mof_C 	C 	0.2337	0.7453	0.3523	-0.015
Mof_H 	H 	0.2743	0.7233	0.3416	0.026
Mof_C 	C 	0.1781	0.722	0.3757	0.03
Mof_H 	H 	0.1808	0.6846	0.3813	0.017
Mof_C 	C 	0.1184	0.7536	0.391	-0.174
Mof_C 	C 	0.1109	0.8065	0.37875	0.02
Mof_H 	H 	0.066	0.8286	0.386	0.01
Mof_C 	C 	0.1695	0.8271	0.3557	-0.012
Mof_H 	H 	0.1646	0.8639	0.3478	0.016
Mof_C 	C 	0.0644	0.7294	0.42119	0.551
Mof_C 	C 	0.1762	0.8835	0.7033	0.016
Mof_H 	H 	0.1632	0.8803	0.7324	0.013
Mof_C 	C 	0.1197	0.8567	0.6649	-0.02
Mof_H 	H 	0.0691	0.8358	0.6676	0.052
Mof_C 	C 	0.1377	0.8609	0.622	-0.097
Mof_C 	C 	0.2143	0.8899	0.6205	-0.021
Mof_H 	H 	0.2305	0.8919	0.5922	0.037
Mof_C 	C 	0.2676	0.9162	0.6609	0
Mof_H 	H 	0.3195	0.9367	0.6592	0.016
Mof_C 	C 	0.0763	0.8322	0.5789	0.418
Mof_C 	C 	0.7167	0.7618	0.3423	0.004
Mof_H 	H 	0.6642	0.7435	0.346	0.009
Mof_C 	C 	0.7675	0.7942	0.37889	-0.026
Mof_H 	H 	0.7501	0.7981	0.4068	0.028
Mof_C 	C 	0.844	0.8209	0.37393	-0.091
Mof_C 	C 	0.8627	0.8167	0.3315	-0.022
Mof_H 	H 	0.9117	0.8368	0.326	0.058
Mof_C 	C 	0.8095	0.7831	0.2974	0.011
Mof_H 	H 	0.8244	0.7796	0.2687	0.017
Mof_C 	C 	0.9064	0.8541	0.41334	0.392
Mof_C 	C 	0.4203	0.0476	0.6053	0.012
Mof_H 	H 	0.4799	0.0446	0.601	0.019
Mof_C 	C 	0.3469	0.0202	0.5749	-0.016
Mof_H 	H 	0.3559	0.9984	0.5505	0.05
Mof_C 	C 	0.2595	0.0253	0.5808	-0.109
Mof_C 	C 	0.2504	0.0548	0.6176	-0.015
Mof_H 	H 	0.1917	0.0577	0.6231	0.043
Mof_C 	C 	0.3278	0.0806	0.64706	-0.006
Mof_H 	H 	0.3211	0.1008	0.6728	0.015
Mof_C 	C 	0.1785	0.9959	0.54752	0.444
Mof_C 	C 	0.1799	0.1399	0.369	-0.011
Mof_H 	H 	0.1725	0.1768	0.3614	0.013
Mof_C 	C 	0.1257	0.1177	0.3937	0.019
Mof_H 	H 	0.0838	0.1395	0.4037	0.01
Mof_C 	C 	0.1318	0.0646	0.4039	-0.162
Mof_C 	C 	0.1958	0.0355	0.3896	0.029
Mof_H 	H 	0.2021	0.9982	0.3956	0.028
Mof_C 	C 	0.2505	0.0606	0.3667	-0.017
Mof_H 	H 	0.2965	0.0404	0.3584	0.035
Mof_C 	C 	0.077	0.0392	0.4327	0.535
Mof_Pr	Pr	0.95849	0.09997	0.03527	2.522
Mof_Pr	Pr	0.04327	0.2591	0.99612	2.515
Mof_Pr	Pr	0.96642	0.42362	0.01491	2.488
Mof_I 	I 	0.67227	0.06718	0.68386	-0.601
Mof_I 	I 	0.47779	0.14482	0.76064	-0.762
Mof_I 	I 	0.51239	0.2118	0.62694	-0.568
Mof_I 	I 	0.74063	0.21886	0.76966	-0.573
Mof_I 	I 	0.50222	0.31161	0.74011	-0.766
Mof_I 	I 	0.3158	0.24907	0.82795	-0.593
Mof_I 	I 	0.25782	0.10336	0.23503	-0.605
Mof_I 	I 	0.49648	0.39191	0.87204	-0.561
Mof_I 	I 	0.51281	0.4789	0.75054	-0.763
Mof_I 	I 	0.69596	0.41135	0.66421	-0.623
Mof_I 	I 	0.52865	0.94514	0.11902	-0.581
Mof_I 	I 	0.77345	0.55547	0.75322	-0.58
Mof_Cu	Cu	0.65107	0.12282	0.7577	0.722
Mof_Cu	Cu	0.5172	0.12318	0.68027	0.719
Mof_Cu	Cu	0.67713	0.17056	0.68566	0.717
Mof_Cu	Cu	0.56396	0.21875	0.72084	0.732
Mof_Cu	Cu	0.46878	0.29579	0.82356	0.721
Mof_Cu	Cu	0.33075	0.20177	0.24721	0.727
Mof_Cu	Cu	0.32351	0.35354	0.82165	0.718
Mof_Cu	Cu	0.4361	0.39428	0.77982	0.748
Mof_Cu	Cu	0.68166	0.46106	0.74282	0.731
Mof_Cu	Cu	0.54014	0.03951	0.16594	0.732
Mof_Cu	Cu	0.29745	0.01629	0.83424	0.734
Mof_Cu	Cu	0.40714	0.05644	0.78827	0.739
Mof_O 	O 	0.877	0.02979	0.98294	-0.602
Mof_O 	O 	0.9354	0.97166	0.94282	-0.638
Mof_O 	O 	0.8207	0.14484	0.98032	-0.568
Mof_O 	O 	0.8978	0.21664	0.9692	-0.637
Mof_O 	O 	0.0119	0.10802	0.96498	-0.573
Mof_O 	O 	0.0733	0.18537	0.951	-0.593
Mof_O 	O 	0.1013	0.153	0.05736	-0.641
Mof_O 	O 	0.1894	0.21716	0.04441	-0.576
Mof_O 	O 	0.9244	0.18105	0.07058	-0.647
Mof_O 	O 	0.9857	0.26039	0.06371	-0.621
Mof_O 	O 	0.9759	0.29634	0.9148	-0.522
Mof_O 	O 	0.9194	0.34437	0.96183	-0.655
Mof_O 	O 	0.0927	0.34479	0.0442	-0.661
Mof_O 	O 	0.0447	0.38924	0.09643	-0.509
Mof_O 	O 	0.8048	0.4543	0.97075	-0.532
Mof_O 	O 	0.9027	0.514	0.95981	-0.66
Mof_O 	O 	0.965	0.57114	0.04802	-0.613
Mof_O 	O 	0.9209	0.48982	0.06339	-0.591
Mof_N 	N 	0.7167	0.07902	0.81467	-0.208
Mof_N 	N 	0.5783	0.25409	0.86369	-0.213
Mof_N 	N 	0.2165	0.05342	0.86875	-0.215
Mof_N 	N 	0.4272	0.08352	0.13133	-0.211
Mof_N 	N 	0.7675	0.2981	0.1559	-0.21
Mof_N 	N 	0.751	0.4139	0.79776	-0.217
Mof_N 	N 	0.2627	0.2549	0.19759	-0.222
Mof_N 	N 	0.5886	0.57825	0.85933	-0.216
Mof_N 	N 	0.7587	0.6128	0.1446	-0.211
Mof_C 	C 	0.7001	0.0895	0.8555	-0.024
Mof_H 	H 	0.6506	0.1131	0.8551	0.024
Mof_C 	C 	0.7515	0.0675	0.89816	0.03
Mof_H 	H 	0.7367	0.0754	0.9262	0.032
Mof_C 	C 	0.8249	0.0339	0.8993	-0.173
Mof_C 	C 	0.8404	0.0212	0.8571	0.037
Mof_H 	H 	0.8882	0.9967	0.8565	0.005
Mof_C 	C 	0.786	0.0444	0.816	-0.022
Mof_H 	H 	0.7977	0.0357	0.7872	0.034
Mof_C 	C 	0.8841	0.0102	0.94552	0.559
Mof_C 	C 	0.5729	0.2142	0.8931	-0.006
Mof_H 	H 	0.5131	0.2012	0.8919	0.032
Mof_C 	C 	0.6504	0.1916	0.925	0.007
Mof_H 	H 	0.6438	0.1639	0.9456	0.041
Mof_C 	C 	0.7381	0.2099	0.92651	-0.146
Mof_C 	C 	0.7439	0.249	0.8948	0.018
Mof_H 	H 	0.8029	0.2615	0.894	0.036
Mof_C 	C 	0.6631	0.2697	0.8642	-0.015
Mof_H 	H 	0.668	0.2964	0.8424	0.021
Mof_C 	C 	0.8255	0.1883	0.96154	0.531
Mof_C 	C 	0.1598	0.027	0.8878	0.011
Mof_H 	H 	0.154	0.9895	0.8835	-0.041
Mof_C 	C 	0.109	0.0518	0.9135	-0.002
Mof_H 	H 	0.0703	0.0315	0.9269	-0.004
Mof_C 	C 	0.1156	0.1067	0.91934	-0.135
Mof_C 	C 	0.1719	0.1345	0.8983	0.005
Mof_H 	H 	0.1764	0.1722	0.9007	0.037
Mof_C 	C 	0.2213	0.1065	0.8739	0
Mof_H 	H 	0.2605	0.1259	0.8602	0.024
Mof_C 	C 	0.062	0.1354	0.94753	0.513
Mof_C 	C 	0.3424	0.0669	0.1312	-0.016
Mof_H 	H 	0.3381	0.0347	0.1473	0.022
Mof_C 	C 	0.261	0.094	0.1089	0.016
Mof_H 	H 	0.2025	0.0804	0.1093	0.016
Mof_C 	C 	0.266	0.1413	0.086	-0.141
Mof_C 	C 	0.3531	0.1596	0.0866	-0.003
Mof_H 	H 	0.3592	0.1921	0.0713	0.05
Mof_C 	C 	0.4309	0.13	0.1097	0.001
Mof_H 	H 	0.4902	0.1432	0.1102	0.027
Mof_C 	C 	0.1787	0.1728	0.0608	0.505
Mof_C 	C 	0.7663	0.2453	0.1477	-0.015
Mof_H 	H 	0.7257	0.2233	0.1584	0.026
Mof_C 	C 	0.8219	0.222	0.1243	0.03
Mof_H 	H 	0.8192	0.1846	0.1187	0.017
Mof_C 	C 	0.8816	0.2536	0.109	-0.174
Mof_C 	C 	0.8891	0.3065	0.12125	0.019
Mof_H 	H 	0.934	0.3286	0.114	0.009
Mof_C 	C 	0.8305	0.3271	0.1443	-0.012
Mof_H 	H 	0.8354	0.3639	0.1522	0.015
Mof_C 	C 	0.9356	0.2294	0.07881	0.549
Mof_C 	C 	0.8238	0.3835	0.7967	0.017
Mof_H 	H 	0.8368	0.3803	0.7676	0.014
Mof_C 	C 	0.8803	0.3567	0.8351	-0.021
Mof_H 	H 	0.9309	0.3358	0.8324	0.054
Mof_C 	C 	0.8623	0.3609	0.878	-0.094
Mof_C 	C 	0.7857	0.3899	0.8795	-0.021
Mof_H 	H 	0.7695	0.3919	0.9078	0.038
Mof_C 	C 	0.7324	0.4162	0.8391	0.001
Mof_H 	H 	0.6805	0.4367	0.8408	0.016
Mof_C 	C 	0.9237	0.3322	0.9211	0.417
Mof_C 	C 	0.2833	0.2618	0.1577	0.005
Mof_H 	H 	0.3358	0.2435	0.154	0.008
Mof_C 	C 	0.2325	0.2942	0.12111	-0.027
Mof_H 	H 	0.2499	0.2981	0.0932	0.029
Mof_C 	C 	0.156	0.3209	0.12607	-0.089
Mof_C 	C 	0.1373	0.3167	0.1685	-0.023
Mof_H 	H 	0.0883	0.3368	0.174	0.059
Mof_C 	C 	0.1905	0.2831	0.2026	0.012
Mof_H 	H 	0.1756	0.2796	0.2313	0.017
Mof_C 	C 	0.0936	0.3541	0.08666	0.391
Mof_C 	C 	0.5797	0.5476	0.8947	0.013
Mof_H 	H 	0.5201	0.5446	0.899	0.019
Mof_C 	C 	0.6531	0.5202	0.9251	-0.017
Mof_H 	H 	0.6441	0.4984	0.9495	0.053
Mof_C 	C 	0.7405	0.5253	0.9192	-0.111
Mof_C 	C 	0.7496	0.5548	0.8824	-0.013
Mof_H 	H 	0.8083	0.5577	0.8769	0.043
Mof_C 	C 	0.6722	0.5806	0.85294	-0.006
Mof_H 	H 	0.6789	0.6008	0.8272	0.015
Mof_C 	C 	0.8215	0.4959	0.95248	0.45
Mof_C 	C 	0.8201	0.6399	0.131	-0.01
Mof_H 	H 	0.8275	0.6768	0.1386	0.012
Mof_C 	C 	0.8743	0.6177	0.1063	0.017
Mof_H 	H 	0.9162	0.6395	0.0963	0.009
Mof_C 	C 	0.8682	0.5646	0.0961	-0.159
Mof_C 	C 	0.8042	0.5355	0.1104	0.023
Mof_H 	H 	0.7979	0.4982	0.1044	0.031
Mof_C 	C 	0.7495	0.5606	0.1333	-0.014
Mof_H 	H 	0.7035	0.5404	0.1416	0.033
Mof_C 	C 	0.923	0.5392	0.0673	0.529
Mof_Pr	Pr	0.95849	0.40003	0.53527	2.55
Mof_Pr	Pr	0.04327	0.2409	0.49612	2.529
Mof_Pr	Pr	0.96642	0.07638	0.51491	2.496
Mof_I 	I 	0.67227	0.43282	0.18386	-0.601
Mof_I 	I 	0.47779	0.35518	0.26064	-0.763
Mof_I 	I 	0.51239	0.2882	0.12694	-0.567
Mof_I 	I 	0.74063	0.28114	0.26966	-0.574
Mof_I 	I 	0.50222	0.18839	0.24011	-0.766
Mof_I 	I 	0.3158	0.25093	0.32795	-0.593
Mof_I 	I 	0.25782	0.39664	0.73503	-0.607
Mof_I 	I 	0.49648	0.10809	0.37204	-0.562
Mof_I 	I 	0.51281	0.0211	0.25054	-0.764
Mof_I 	I 	0.69596	0.08865	0.16421	-0.625
Mof_I 	I 	0.52865	0.55486	0.61902	-0.582
Mof_I 	I 	0.77345	0.94452	0.25322	-0.58
Mof_Cu	Cu	0.65107	0.37718	0.2577	0.722
Mof_Cu	Cu	0.5172	0.37682	0.18027	0.719
Mof_Cu	Cu	0.67713	0.32944	0.18566	0.717
Mof_Cu	Cu	0.56396	0.28125	0.22084	0.732
Mof_Cu	Cu	0.46878	0.20421	0.32356	0.721
Mof_Cu	Cu	0.33075	0.29823	0.74721	0.727
Mof_Cu	Cu	0.32351	0.14646	0.32165	0.718
Mof_Cu	Cu	0.4361	0.10572	0.27982	0.748
Mof_Cu	Cu	0.68166	0.03894	0.24282	0.731
Mof_Cu	Cu	0.54014	0.46049	0.66594	0.733
Mof_Cu	Cu	0.29745	0.48371	0.33424	0.733
Mof_Cu	Cu	0.40714	0.44356	0.28827	0.739
Mof_O 	O 	0.877	0.47021	0.48294	-0.61
Mof_O 	O 	0.9354	0.52834	0.44282	-0.648
Mof_O 	O 	0.8207	0.35516	0.48032	-0.575
Mof_O 	O 	0.8978	0.28336	0.4692	-0.644
Mof_O 	O 	0.0119	0.39198	0.46498	-0.575
Mof_O 	O 	0.0733	0.31463	0.451	-0.594
Mof_O 	O 	0.1013	0.347	0.55736	-0.648
Mof_O 	O 	0.1894	0.28284	0.54441	-0.581
Mof_O 	O 	0.9244	0.31895	0.57058	-0.649
Mof_O 	O 	0.9857	0.23961	0.56371	-0.621
Mof_O 	O 	0.9759	0.20366	0.4148	-0.527
Mof_O 	O 	0.9194	0.15563	0.46183	-0.661
Mof_O 	O 	0.0927	0.15521	0.5442	-0.666
Mof_O 	O 	0.0447	0.11076	0.59643	-0.511
Mof_O 	O 	0.8048	0.0457	0.47075	-0.534
Mof_O 	O 	0.9027	0.986	0.45981	-0.661
Mof_O 	O 	0.965	0.92886	0.54802	-0.612
Mof_O 	O 	0.9209	0.01018	0.56339	-0.594
Mof_N 	N 	0.7167	0.42098	0.31467	-0.207
Mof_N 	N 	0.5783	0.24591	0.36369	-0.212
Mof_N 	N 	0.2165	0.44658	0.36875	-0.214
Mof_N 	N 	0.4272	0.41648	0.63133	-0.211
Mof_N 	N 	0.7675	0.2019	0.6559	-0.21
Mof_N 	N 	0.751	0.0861	0.29776	-0.217
Mof_N 	N 	0.2627	0.2451	0.69759	-0.222
Mof_N 	N 	0.5886	0.92175	0.35933	-0.216
Mof_N 	N 	0.7587	0.8872	0.6446	-0.211
Mof_C 	C 	0.7001	0.4105	0.3555	-0.026
Mof_H 	H 	0.6506	0.3869	0.3551	0.025
Mof_C 	C 	0.7515	0.4325	0.39816	0.034
Mof_H 	H 	0.7367	0.4246	0.4262	0.03
Mof_C 	C 	0.8249	0.4661	0.3993	-0.18
Mof_C 	C 	0.8404	0.4788	0.3571	0.046
Mof_H 	H 	0.8882	0.5033	0.3565	-0.001
Mof_C 	C 	0.786	0.4556	0.316	-0.027
Mof_H 	H 	0.7977	0.4643	0.2872	0.035
Mof_C 	C 	0.8841	0.4898	0.44552	0.567
Mof_C 	C 	0.5729	0.2858	0.3931	-0.008
Mof_H 	H 	0.5131	0.2988	0.3919	0.032
Mof_C 	C 	0.6504	0.3084	0.425	0.008
Mof_H 	H 	0.6438	0.3361	0.4456	0.039
Mof_C 	C 	0.7381	0.2901	0.42651	-0.148
Mof_C 	C 	0.7439	0.251	0.3948	0.019
Mof_H 	H 	0.8029	0.2385	0.394	0.035
Mof_C 	C 	0.6631	0.2303	0.3642	-0.015
Mof_H 	H 	0.668	0.2036	0.3424	0.021
Mof_C 	C 	0.8255	0.3117	0.46154	0.533
Mof_C 	C 	0.1598	0.473	0.3878	0.003
Mof_H 	H 	0.154	0.5105	0.3835	-0.035
Mof_C 	C 	0.109	0.4482	0.4135	0.003
Mof_H 	H 	0.0703	0.4685	0.4269	-0.006
Mof_C 	C 	0.1156	0.3933	0.41934	-0.138
Mof_C 	C 	0.1719	0.3655	0.3983	0.007
Mof_H 	H 	0.1764	0.3278	0.4007	0.037
Mof_C 	C 	0.2213	0.3935	0.3739	-0.001
Mof_H 	H 	0.2605	0.3741	0.3602	0.024
Mof_C 	C 	0.062	0.3646	0.44753	0.516
Mof_C 	C 	0.3424	0.4331	0.6312	-0.018
Mof_H 	H 	0.3381	0.4653	0.6473	0.022
Mof_C 	C 	0.261	0.406	0.6089	0.018
Mof_H 	H 	0.2025	0.4196	0.6093	0.015
Mof_C 	C 	0.266	0.3587	0.586	-0.144
Mof_C 	C 	0.3531	0.3404	0.5866	-0.002
Mof_H 	H 	0.3592	0.3079	0.5713	0.049
Mof_C 	C 	0.4309	0.37	0.6097	0
Mof_H 	H 	0.4902	0.3568	0.6102	0.027
Mof_C 	C 	0.1787	0.3272	0.5608	0.507
Mof_C 	C 	0.7663	0.2547	0.6477	-0.015
Mof_H 	H 	0.7257	0.2767	0.6584	0.026
Mof_C 	C 	0.8219	0.278	0.6243	0.03
Mof_H 	H 	0.8192	0.3154	0.6187	0.017
Mof_C 	C 	0.8816	0.2464	0.609	-0.174
Mof_C 	C 	0.8891	0.1935	0.62125	0.02
Mof_H 	H 	0.934	0.1714	0.614	0.01
Mof_C 	C 	0.8305	0.1729	0.6443	-0.012
Mof_H 	H 	0.8354	0.1361	0.6522	0.016
Mof_C 	C 	0.9356	0.2706	0.57881	0.551
Mof_C 	C 	0.8238	0.1165	0.2967	0.016
Mof_H 	H 	0.8368	0.1197	0.2676	0.013
Mof_C 	C 	0.8803	0.1433	0.3351	-0.02
Mof_H 	H 	0.9309	0.1642	0.3324	0.052
Mof_C 	C 	0.8623	0.1391	0.378	-0.097
Mof_C 	C 	0.7857	0.1101	0.3795	-0.021
Mof_H 	H 	0.7695	0.1081	0.4078	0.037
Mof_C 	C 	0.7324	0.0838	0.3391	0
Mof_H 	H 	0.6805	0.0633	0.3408	0.016
Mof_C 	C 	0.9237	0.1678	0.4211	0.418
Mof_C 	C 	0.2833	0.2382	0.6577	0.004
Mof_H 	H 	0.3358	0.2565	0.654	0.009
Mof_C 	C 	0.2325	0.2058	0.62111	-0.026
Mof_H 	H 	0.2499	0.2019	0.5932	0.028
Mof_C 	C 	0.156	0.1791	0.62607	-0.091
Mof_C 	C 	0.1373	0.1833	0.6685	-0.022
Mof_H 	H 	0.0883	0.1632	0.674	0.058
Mof_C 	C 	0.1905	0.2169	0.7026	0.011
Mof_H 	H 	0.1756	0.2204	0.7313	0.017
Mof_C 	C 	0.0936	0.1459	0.58666	0.392
Mof_C 	C 	0.5797	0.9524	0.3947	0.012
Mof_H 	H 	0.5201	0.9554	0.399	0.019
Mof_C 	C 	0.6531	0.9798	0.4251	-0.016
Mof_H 	H 	0.6441	0.0016	0.4495	0.05
Mof_C 	C 	0.7405	0.9747	0.4192	-0.109
Mof_C 	C 	0.7496	0.9452	0.3824	-0.015
Mof_H 	H 	0.8083	0.9423	0.3769	0.043
Mof_C 	C 	0.6722	0.9194	0.35294	-0.006
Mof_H 	H 	0.6789	0.8992	0.3272	0.015
Mof_C 	C 	0.8215	0.0041	0.45248	0.444
Mof_C 	C 	0.8201	0.8601	0.631	-0.011
Mof_H 	H 	0.8275	0.8232	0.6386	0.013
Mof_C 	C 	0.8743	0.8823	0.6063	0.019
Mof_H 	H 	0.9162	0.8605	0.5963	0.01
Mof_C 	C 	0.8682	0.9354	0.5961	-0.162
Mof_C 	C 	0.8042	0.9645	0.6104	0.029
Mof_H 	H 	0.7979	0.0018	0.6044	0.028
Mof_C 	C 	0.7495	0.9394	0.6333	-0.017
Mof_H 	H 	0.7035	0.9596	0.6416	0.035
Mof_C 	C 	0.923	0.9608	0.5673	0.535
Mof_Pr	Pr	0.04151	0.90003	0.96473	2.522
Mof_Pr	Pr	0.95673	0.7409	0.00388	2.515
Mof_Pr	Pr	0.03358	0.57638	0.98509	2.488
Mof_I 	I 	0.32773	0.93282	0.31614	-0.601
Mof_I 	I 	0.52221	0.85518	0.23936	-0.762
Mof_I 	I 	0.48761	0.7882	0.37306	-0.568
Mof_I 	I 	0.25937	0.78114	0.23034	-0.573
Mof_I 	I 	0.49778	0.68839	0.25989	-0.766
Mof_I 	I 	0.6842	0.75093	0.17205	-0.593
Mof_I 	I 	0.74218	0.89664	0.76497	-0.605
Mof_I 	I 	0.50352	0.60809	0.12795	-0.561
Mof_I 	I 	0.48719	0.5211	0.24946	-0.763
Mof_I 	I 	0.30404	0.58865	0.33579	-0.623
Mof_I 	I 	0.47135	0.05486	0.88098	-0.581
Mof_I 	I 	0.22655	0.44452	0.24678	-0.58
Mof_Cu	Cu	0.34893	0.87718	0.2423	0.722
Mof_Cu	Cu	0.4828	0.87682	0.31973	0.719
Mof_Cu	Cu	0.32287	0.82944	0.31434	0.717
Mof_Cu	Cu	0.43604	0.78125	0.27916	0.732
Mof_Cu	Cu	0.53122	0.70421	0.17644	0.721
Mof_Cu	Cu	0.66925	0.79823	0.75279	0.727
Mof_Cu	Cu	0.67649	0.64646	0.17835	0.718
Mof_Cu	Cu	0.5639	0.60572	0.22018	0.748
Mof_Cu	Cu	0.31834	0.53894	0.25718	0.731
Mof_Cu	Cu	0.45986	0.96049	0.83406	0.732
Mof_Cu	Cu	0.70255	0.98371	0.16576	0.734
Mof_Cu	Cu	0.59286	0.94356	0.21173	0.739
Mof_O 	O 	0.123	0.97021	0.01706	-0.602
Mof_O 	O 	0.0646	0.02834	0.05718	-0.638
Mof_O 	O 	0.1793	0.85516	0.01968	-0.568
Mof_O 	O 	0.1022	0.78336	0.0308	-0.637
Mof_O 	O 	0.9881	0.89198	0.03502	-0.573
Mof_O 	O 	0.9267	0.81463	0.049	-0.593
Mof_O 	O 	0.8987	0.847	0.94264	-0.641
Mof_O 	O 	0.8106	0.78284	0.95559	-0.576
Mof_O 	O 	0.0756	0.81895	0.92942	-0.647
Mof_O 	O 	0.0143	0.73961	0.93629	-0.621
Mof_O 	O 	0.0241	0.70366	0.0852	-0.522
Mof_O 	O 	0.0806	0.65563	0.03817	-0.655
Mof_O 	O 	0.9073	0.65521	0.9558	-0.661
Mof_O 	O 	0.9553	0.61076	0.90357	-0.509
Mof_O 	O 	0.1952	0.5457	0.02925	-0.532
Mof_O 	O 	0.0973	0.486	0.04019	-0.66
Mof_O 	O 	0.035	0.42886	0.95198	-0.613
Mof_O 	O 	0.0791	0.51018	0.93661	-0.591
Mof_N 	N 	0.2833	0.92098	0.18533	-0.208
Mof_N 	N 	0.4217	0.74591	0.13631	-0.213
Mof_N 	N 	0.7835	0.94658	0.13125	-0.215
Mof_N 	N 	0.5728	0.91648	0.86867	-0.211
Mof_N 	N 	0.2325	0.7019	0.8441	-0.21
Mof_N 	N 	0.249	0.5861	0.20224	-0.217
Mof_N 	N 	0.7373	0.7451	0.80241	-0.222
Mof_N 	N 	0.4114	0.42175	0.14067	-0.216
Mof_N 	N 	0.2413	0.3872	0.8554	-0.211
Mof_C 	C 	0.2999	0.9105	0.1445	-0.024
Mof_H 	H 	0.3494	0.8869	0.1449	0.024
Mof_C 	C 	0.2485	0.9325	0.10184	0.03
Mof_H 	H 	0.2633	0.9246	0.0738	0.032
Mof_C 	C 	0.1751	0.9661	0.1007	-0.173
Mof_C 	C 	0.1596	0.9788	0.1429	0.037
Mof_H 	H 	0.1118	0.0033	0.1435	0.005
Mof_C 	C 	0.214	0.9556	0.184	-0.022
Mof_H 	H 	0.2023	0.9643	0.2128	0.034
Mof_C 	C 	0.1159	0.9898	0.05448	0.559
Mof_C 	C 	0.4271	0.7858	0.1069	-0.006
Mof_H 	H 	0.4869	0.7988	0.1081	0.032
Mof_C 	C 	0.3496	0.8084	0.075	0.007
Mof_H 	H 	0.3562	0.8361	0.0544	0.041
Mof_C 	C 	0.2619	0.7901	0.07349	-0.146
Mof_C 	C 	0.2561	0.751	0.1052	0.018
Mof_H 	H 	0.1971	0.7385	0.106	0.036
Mof_C 	C 	0.3369	0.7303	0.1358	-0.015
Mof_H 	H 	0.332	0.7036	0.1576	0.021
Mof_C 	C 	0.1745	0.8117	0.03846	0.531
Mof_C 	C 	0.8402	0.973	0.1122	0.011
Mof_H 	H 	0.846	0.0105	0.1165	-0.041
Mof_C 	C 	0.891	0.9482	0.0865	-0.002
Mof_H 	H 	0.9297	0.9685	0.0731	-0.004
Mof_C 	C 	0.8844	0.8933	0.08066	-0.135
Mof_C 	C 	0.8281	0.8655	0.1017	0.005
Mof_H 	H 	0.8236	0.8278	0.0993	0.037
Mof_C 	C 	0.7787	0.8935	0.1261	0
Mof_H 	H 	0.7395	0.8741	0.1398	0.024
Mof_C 	C 	0.938	0.8646	0.05247	0.513
Mof_C 	C 	0.6576	0.9331	0.8688	-0.016
Mof_H 	H 	0.6619	0.9653	0.8527	0.022
Mof_C 	C 	0.739	0.906	0.8911	0.016
Mof_H 	H 	0.7975	0.9196	0.8907	0.016
Mof_C 	C 	0.734	0.8587	0.914	-0.141
Mof_C 	C 	0.6469	0.8404	0.9134	-0.003
Mof_H 	H 	0.6408	0.8079	0.9287	0.05
Mof_C 	C 	0.5691	0.87	0.8903	0.001
Mof_H 	H 	0.5098	0.8568	0.8898	0.027
Mof_C 	C 	0.8213	0.8272	0.9392	0.505
Mof_C 	C 	0.2337	0.7547	0.8523	-0.015
Mof_H 	H 	0.2743	0.7767	0.8416	0.026
Mof_C 	C 	0.1781	0.778	0.8757	0.03
Mof_H 	H 	0.1808	0.8154	0.8813	0.017
Mof_C 	C 	0.1184	0.7464	0.891	-0.174
Mof_C 	C 	0.1109	0.6935	0.87875	0.019
Mof_H 	H 	0.066	0.6714	0.886	0.009
Mof_C 	C 	0.1695	0.6729	0.8557	-0.012
Mof_H 	H 	0.1646	0.6361	0.8478	0.015
Mof_C 	C 	0.0644	0.7706	0.92119	0.549
Mof_C 	C 	0.1762	0.6165	0.2033	0.017
Mof_H 	H 	0.1632	0.6197	0.2324	0.014
Mof_C 	C 	0.1197	0.6433	0.1649	-0.021
Mof_H 	H 	0.0691	0.6642	0.1676	0.054
Mof_C 	C 	0.1377	0.6391	0.122	-0.094
Mof_C 	C 	0.2143	0.6101	0.1205	-0.021
Mof_H 	H 	0.2305	0.6081	0.0922	0.038
Mof_C 	C 	0.2676	0.5838	0.1609	0.001
Mof_H 	H 	0.3195	0.5633	0.1592	0.016
Mof_C 	C 	0.0763	0.6678	0.0789	0.417
Mof_C 	C 	0.7167	0.7382	0.8423	0.005
Mof_H 	H 	0.6642	0.7565	0.846	0.008
Mof_C 	C 	0.7675	0.7058	0.87889	-0.027
Mof_H 	H 	0.7501	0.7019	0.9068	0.029
Mof_C 	C 	0.844	0.6791	0.87393	-0.089
Mof_C 	C 	0.8627	0.6833	0.8315	-0.023
Mof_H 	H 	0.9117	0.6632	0.826	0.059
Mof_C 	C 	0.8095	0.7169	0.7974	0.012
Mof_H 	H 	0.8244	0.7204	0.7687	0.017
Mof_C 	C 	0.9064	0.6459	0.91334	0.391
Mof_C 	C 	0.4203	0.4524	0.1053	0.013
Mof_H 	H 	0.4799	0.4554	0.101	0.019
Mof_C 	C 	0.3469	0.4798	0.0749	-0.017
Mof_H 	H 	0.3559	0.5016	0.0505	0.053
Mof_C 	C 	0.2595	0.4747	0.0808	-0.111
Mof_C 	C 	0.2504	0.4452	0.1176	-0.013
Mof_H 	H 	0.1917	0.4423	0.1231	0.043
Mof_C 	C 	0.3278	0.4194	0.14706	-0.006
Mof_H 	H 	0.3211	0.3992	0.1728	0.015
Mof_C 	C 	0.1785	0.5041	0.04752	0.45
Mof_C 	C 	0.1799	0.3601	0.869	-0.01
Mof_H 	H 	0.1725	0.3232	0.8614	0.012
Mof_C 	C 	0.1257	0.3823	0.8937	0.017
Mof_H 	H 	0.0838	0.3605	0.9037	0.009
Mof_C 	C 	0.1318	0.4354	0.9039	-0.159
Mof_C 	C 	0.1958	0.4645	0.8896	0.023
Mof_H 	H 	0.2021	0.5018	0.8956	0.031
Mof_C 	C 	0.2505	0.4394	0.8667	-0.014
Mof_H 	H 	0.2965	0.4596	0.8584	0.033
Mof_C 	C 	0.077	0.4608	0.9327	0.529
_end
