data_functionalizedCrystal
_audit_creation_method	'EQeq! by Chris Wilmer'
_symmetry_space_group_name_H-M	'P1'
_symmetry_Int_Tables_number	1
_symmetry_cell_setting	triclinic
loop_
_symmetry_equiv_pos_as_xyz
  x,y,z
_cell_length_a	12.079
_cell_length_b	12.382
_cell_length_c	12.568
_cell_angle_alpha	99.99
_cell_angle_beta	96
_cell_angle_gamma	91.29
loop_
_atom_site_label
_atom_site_type_symbol
_atom_site_fract_x
_atom_site_fract_y
_atom_site_fract_z
_atom_site_charge
Mof_C 	C 	0.6861	0.2438	0.5215	0.383
Mof_C 	C 	0.7559	0.3475	0.5419	-0.232
Mof_C 	C 	0.791	0.3972	0.4582	0.308
Mof_C 	C 	0.8534	0.4966	0.4829	-0.258
Mof_H 	H 	0.8762	0.53	0.4267	0.134
Mof_C 	C 	0.8813	0.5453	0.589	0.106
Mof_H 	H 	0.9213	0.6131	0.6045	-0.002
Mof_C 	C 	0.8515	0.4963	0.6758	-0.126
Mof_C 	C 	0.7861	0.3996	0.6516	0.09
Mof_H 	H 	0.7615	0.3682	0.7083	0.02
Mof_C 	C 	0.8819	0.5503	0.792	0.172
Mof_C 	C 	0.8075	0.5474	0.87	-0.248
Mof_H 	H 	0.738	0.5099	0.8492	0.136
Mof_C 	C 	0.8344	0.5994	0.9787	0.243
Mof_C 	C 	0.935	0.6557	0.0066	-0.295
Mof_H 	H 	0.9524	0.692	0.0788	0.135
Mof_C 	C 	0.0125	0.6618	0.9339	0.187
Mof_C 	C 	0.984	0.6065	0.8274	-0.21
Mof_H 	H 	0.0363	0.6072	0.7771	0.108
Mof_C 	C 	0.7462	0.5999	0.0552	-0.177
Mof_C 	C 	0.68	0.5066	0.0502	0.135
Mof_H 	H 	0.6914	0.4423	0.0011	-0.013
Mof_C 	C 	0.5952	0.5084	0.1191	-0.273
Mof_H 	H 	0.5532	0.4436	0.1192	0.14
Mof_C 	C 	0.573	0.6032	0.1862	0.323
Mof_C 	C 	0.6388	0.6979	0.1935	-0.247
Mof_C 	C 	0.7247	0.6949	0.1259	0.124
Mof_H 	H 	0.7689	0.759	0.1284	0.003
Mof_C 	C 	0.6192	0.8009	0.2679	0.412
Mof_C 	C 	0.1212	0.7223	0.9677	-0.091
Mof_C 	C 	0.1727	0.7309	0.074	0.044
Mof_H 	H 	0.1391	0.6957	0.1236	0.013
Mof_C 	C 	0.2745	0.7915	0.1078	-0.204
Mof_H 	H 	0.3092	0.793	0.1786	0.121
Mof_C 	C 	0.3239	0.8486	0.0392	0.235
Mof_C 	C 	0.274	0.8387	0.9296	-0.197
Mof_C 	C 	0.1736	0.7778	0.8986	0.085
Mof_H 	H 	0.1397	0.7742	0.8272	0.019
Mof_C 	C 	0.3236	0.8981	0.8496	0.423
Mof_Cu	Cu	0.46319	0.90391	0.41747	0.915
Mof_Cu	Cu	0.67281	0.03833	0.35389	0.888
Mof_O 	O 	0.6597	0.1988	0.4219	-0.426
Mof_O 	O 	0.6565	0.2069	0.6011	-0.428
Mof_O 	O 	0.4811	0.5958	0.244	-0.424
Mof_H 	H 	0.5024	0.6038	0.31	0.258
Mof_O 	O 	0.5358	0.7963	0.3213	-0.418
Mof_O 	O 	0.6803	0.8854	0.2723	-0.399
Mof_O 	O 	0.4182	0.9081	0.0781	-0.339
Mof_O 	O 	0.4191	0.943	0.8723	-0.431
Mof_O 	O 	0.269	0.8984	0.7603	-0.41
Mof_O 	O 	0.7672	0.3511	0.3508	-0.436
Mof_H 	H 	0.7694	0.2833	0.344	0.269
Mof_O 	O 	0.6051	0.9891	0.4746	-0.714
Mof_H 	H 	0.6496	0.9494	0.5049	0.253
Mof_C 	C 	0.3139	0.7562	0.4785	0.384
Mof_C 	C 	0.2441	0.6525	0.4581	-0.226
Mof_C 	C 	0.209	0.6028	0.5418	0.306
Mof_C 	C 	0.1466	0.5034	0.5171	-0.256
Mof_H 	H 	0.1238	0.47	0.5733	0.128
Mof_C 	C 	0.1187	0.4547	0.411	0.096
Mof_H 	H 	0.0787	0.3869	0.3955	-0.009
Mof_C 	C 	0.1485	0.5037	0.3242	-0.116
Mof_C 	C 	0.2139	0.6004	0.3484	0.082
Mof_H 	H 	0.2385	0.6318	0.2917	0.022
Mof_C 	C 	0.1181	0.4497	0.208	0.134
Mof_C 	C 	0.1925	0.4526	0.13	-0.176
Mof_H 	H 	0.262	0.4901	0.1508	0.102
Mof_C 	C 	0.1656	0.4006	0.0213	0.07
Mof_C 	C 	0.065	0.3443	0.9934	-0.132
Mof_H 	H 	0.0476	0.308	0.9212	0.078
Mof_C 	C 	0.9875	0.3382	0.0661	0.134
Mof_C 	C 	0.016	0.3935	0.1726	-0.217
Mof_H 	H 	0.9637	0.3928	0.2229	0.118
Mof_C 	C 	0.2538	0.4001	0.9448	-0.066
Mof_C 	C 	0.32	0.4934	0.9498	0.072
Mof_H 	H 	0.3086	0.5577	0.9989	0.029
Mof_C 	C 	0.4048	0.4916	0.8809	-0.228
Mof_H 	H 	0.4468	0.5564	0.8808	0.135
Mof_C 	C 	0.427	0.3968	0.8138	0.302
Mof_C 	C 	0.3612	0.3021	0.8065	-0.224
Mof_C 	C 	0.2753	0.3051	0.8741	0.068
Mof_H 	H 	0.2311	0.241	0.8716	0.016
Mof_C 	C 	0.3808	0.1991	0.7321	0.409
Mof_C 	C 	0.8788	0.2777	0.0323	-0.17
Mof_C 	C 	0.8273	0.2691	0.926	0.152
Mof_H 	H 	0.8609	0.3043	0.8764	-0.017
Mof_C 	C 	0.7255	0.2085	0.8922	-0.284
Mof_H 	H 	0.6908	0.207	0.8214	0.143
Mof_C 	C 	0.6761	0.1514	0.9608	0.327
Mof_C 	C 	0.726	0.1613	0.0704	-0.299
Mof_C 	C 	0.8264	0.2222	0.1014	0.139
Mof_H 	H 	0.8603	0.2258	0.1728	-0.006
Mof_C 	C 	0.6764	0.1019	0.1504	0.451
Mof_Cu	Cu	0.53681	0.09609	0.58253	0.888
Mof_Cu	Cu	0.32719	0.96167	0.64611	0.933
Mof_O 	O 	0.3403	0.8012	0.5781	-0.41
Mof_O 	O 	0.3435	0.7931	0.3989	-0.412
Mof_O 	O 	0.5189	0.4042	0.756	-0.413
Mof_H 	H 	0.4976	0.3962	0.69	0.254
Mof_O 	O 	0.4642	0.2037	0.6787	-0.427
Mof_O 	O 	0.3197	0.1146	0.7277	-0.445
Mof_O 	O 	0.5818	0.0919	0.9219	-0.384
Mof_O 	O 	0.5809	0.057	0.1277	-0.502
Mof_O 	O 	0.731	0.1016	0.2397	-0.444
Mof_O 	O 	0.2328	0.6489	0.6492	-0.435
Mof_H 	H 	0.2306	0.7167	0.656	0.271
Mof_O 	O 	0.3949	0.0109	0.5254	-0.79
Mof_H 	H 	0.3504	0.0506	0.4951	0.247
Mof_Cu	Cu	0.5	0	-0	0.914
_end
