data_functionalizedCrystal
_audit_creation_method	'EQeq! by Chris Wilmer'
_symmetry_space_group_name_H-M	'P1'
_symmetry_Int_Tables_number	1
_symmetry_cell_setting	triclinic
loop_
_symmetry_equiv_pos_as_xyz
  x,y,z
_cell_length_a	7.9973
_cell_length_b	9.7743
_cell_length_c	10.8627
_cell_angle_alpha	87.194
_cell_angle_beta	84.679
_cell_angle_gamma	74.744
loop_
_atom_site_label
_atom_site_type_symbol
_atom_site_fract_x
_atom_site_fract_y
_atom_site_fract_z
_atom_site_charge
Mof_Cu	Cu	0.87713	0.92944	0.01304	0.922
Mof_C 	C 	0.0144	0.9876	0.6279	-0.03
Mof_C 	C 	0.1163	0.882	0.5499	-0.046
Mof_C 	C 	0.8996	0.1038	0.5773	0.006
Mof_C 	C 	0.0209	0.984	0.7666	0.332
Mof_C 	C 	0.2486	0.7549	0.5972	0.335
Mof_C 	C 	0.3752	0.6308	0.0086	-0.035
Mof_C 	C 	0.5487	0.6219	0.0281	-0.031
Mof_C 	C 	0.3286	0.5086	0.9818	-0.015
Mof_C 	C 	0.2377	0.7701	0.0103	0.331
Mof_C 	C 	0.6084	0.7447	0.0716	0.305
Mof_O 	O 	0.9109	0.933	0.8299	-0.35
Mof_O 	O 	0.1258	0.0441	0.8075	-0.365
Mof_O 	O 	0.3551	0.6899	0.513	-0.416
Mof_O 	O 	0.2486	0.727	0.7097	-0.258
Mof_O 	O 	0.0818	0.7655	0.0234	-0.375
Mof_O 	O 	0.2896	0.8819	0.9956	-0.349
Mof_O 	O 	0.5668	0.7783	0.181	-0.232
Mof_O 	O 	0.703	0.7989	0.9948	-0.284
Mof_H 	H 	0.8224	0.182	0.6286	0.055
Mof_H 	H 	0.2159	0.5128	0.9661	0.066
Mof_Cu	Cu	0.12287	0.07056	0.98696	0.921
Mof_C 	C 	0.9856	0.0124	0.3721	-0.031
Mof_C 	C 	0.8837	0.118	0.4501	-0.047
Mof_C 	C 	0.1004	0.8962	0.4227	0.006
Mof_C 	C 	0.9791	0.016	0.2334	0.332
Mof_C 	C 	0.7514	0.2451	0.4028	0.335
Mof_C 	C 	0.6248	0.3692	0.9914	-0.035
Mof_C 	C 	0.4513	0.3781	0.9719	-0.031
Mof_C 	C 	0.6714	0.4914	0.0182	-0.015
Mof_C 	C 	0.7623	0.2299	0.9897	0.331
Mof_C 	C 	0.3916	0.2553	0.9284	0.305
Mof_O 	O 	0.0891	0.067	0.1701	-0.35
Mof_O 	O 	0.8742	0.9559	0.1925	-0.365
Mof_O 	O 	0.6449	0.3101	0.487	-0.416
Mof_O 	O 	0.7514	0.273	0.2903	-0.258
Mof_O 	O 	0.9182	0.2345	0.9766	-0.375
Mof_O 	O 	0.7104	0.1181	0.0044	-0.349
Mof_O 	O 	0.4332	0.2217	0.819	-0.232
Mof_O 	O 	0.297	0.2011	0.0052	-0.284
Mof_H 	H 	0.1776	0.818	0.3714	0.055
Mof_H 	H 	0.7841	0.4872	0.0339	0.066
Mof_Cu	Cu	0.5	0.5	0.5	0.871
_end
