# CIF file generated by openbabel 3.1.0, see https://openbabel.org
data_I
_chemical_name_common 'image0'
_cell_length_a 12.139
_cell_length_b 21.571
_cell_length_c 12.611
_cell_angle_alpha 90
_cell_angle_beta 90.351
_cell_angle_gamma 90
_space_group_name_H-M_alt 'P 1'
_space_group_name_Hall 'P 1'
loop_
    _symmetry_equiv_pos_as_xyz
    x,y,z
loop_
    _atom_site_label
    _atom_site_type_symbol
    _atom_site_fract_x
    _atom_site_fract_y
    _atom_site_fract_z
    _atom_site_occupancy
    C1       C        0.35360    0.38620    0.34900    1.000
    H1       H        0.35670    0.43140    0.36270    1.000
    H2       H        0.37640    0.36430    0.41450    1.000
    C2       C        0.42870    0.37010    0.26140    1.000
    H3       H        0.40740    0.39340    0.19690    1.000
    H4       H        0.42250    0.32520    0.24560    1.000
    C3       C        0.21060    0.30440    0.35460    1.000
    H5       H        0.16800    0.30630    0.42120    1.000
    H6       H        0.27870    0.28040    0.36800    1.000
    C4       C        0.14280    0.27350    0.26850    1.000
    H7       H        0.18830    0.26860    0.20420    1.000
    H8       H        0.07930    0.30030    0.25010    1.000
    C5       C        0.15730    0.41340    0.34650    1.000
    H9       H        0.17970    0.43510    0.41230    1.000
    H10      H        0.08540    0.39310    0.35890    1.000
    C6       C        0.14720    0.45930    0.25630    1.000
    H11      H        0.12880    0.43720    0.18970    1.000
    H12      H        0.21830    0.48100    0.24630    1.000
    C7       C        0.26130    0.30550    0.64970    1.000
    H13      H        0.30290    0.30290    0.58260    1.000
    H14      H        0.18930    0.28480    0.63920    1.000
    C8       C        0.32550    0.27330    0.73830    1.000
    H15      H        0.39750    0.29420    0.74800    1.000
    H16      H        0.28420    0.27710    0.80550    1.000
    C9       C        0.13380    0.39310    0.65500    1.000
    H17      H        0.10560    0.37340    0.58930    1.000
    H18      H        0.13530    0.43850    0.64420    1.000
    C10      C        0.05990    0.37720    0.74680    1.000
    H19      H        0.05820    0.33160    0.75550    1.000
    H20      H        0.09180    0.39520    0.81250    1.000
    C11      C        0.33170    0.41220    0.64650    1.000
    H21      H        0.31010    0.43400    0.58060    1.000
    H22      H        0.39970    0.38840    0.63250    1.000
    C12      C        0.35250    0.45900    0.73490    1.000
    H23      H        0.28360    0.48200    0.74920    1.000
    H24      H        0.37380    0.43670    0.80050    1.000
    C13      C        0.61430    0.32880    0.31670    1.000
    H25      H        0.69160    0.34110    0.33080    1.000
    H26      H        0.61380    0.30120    0.25400    1.000
    C14      C        0.57170    0.29350    0.41070    1.000
    C15      C        0.50920    0.24100    0.39840    1.000
    H27      H        0.49140    0.22680    0.32900    1.000
    C16      C        0.47150    0.20800    0.48570    1.000
    H28      H        0.42740    0.17210    0.47570    1.000
    C17      C        0.49820    0.22750    0.58660    1.000
    C18      C        0.56410    0.28120    0.60020    1.000
    H29      H        0.58360    0.29500    0.66940    1.000
    C19      C        0.59950    0.31320    0.51310    1.000
    H30      H        0.64350    0.34930    0.52230    1.000
    C20      C        0.46120    0.19160    0.68290    1.000
    H31      H        0.46750    0.14670    0.66790    1.000
    H32      H        0.51100    0.20120    0.74310    1.000
    C21      C        0.98090    0.21160    0.32660    1.000
    H33      H        0.95450    0.16850    0.33520    1.000
    H34      H        0.94140    0.22990    0.26530    1.000
    C22      C        0.95260    0.24810    0.42510    1.000
    C23      C        0.91150    0.30800    0.41680    1.000
    H35      H        0.90240    0.32660    0.34900    1.000
    C24      C        0.88370    0.34060    0.50760    1.000
    H36      H        0.85720    0.38190    0.50100    1.000
    C25      C        0.89350    0.31470    0.60680    1.000
    C26      C        0.93420    0.25430    0.61410    1.000
    H37      H        0.94170    0.23540    0.68180    1.000
    C27      C        0.96390    0.22160    0.52460    1.000
    H38      H        0.99210    0.18070    0.53130    1.000
    C28      C        0.86240    0.34990    0.70360    1.000
    H39      H        0.85600    0.32060    0.76360    1.000
    H40      H        0.78910    0.36890    0.69200    1.000
    C29      C        0.10280    0.56930    0.31140    1.000
    H41      H        0.04100    0.59800    0.32580    1.000
    H42      H        0.14400    0.58600    0.25020    1.000
    C30      C        0.17870    0.56830    0.40730    1.000
    C31      C        0.13670    0.56540    0.50950    1.000
    H43      H        0.05930    0.56390    0.52010    1.000
    C32      C        0.20760    0.56460    0.59560    1.000
    H44      H        0.17820    0.56240    0.66510    1.000
    C33      C        0.32070    0.56700    0.58250    1.000
    C34      C        0.36390    0.56920    0.47890    1.000
    H45      H        0.44130    0.57000    0.46810    1.000
    C35      C        0.29220    0.57000    0.39360    1.000
    H46      H        0.32110    0.57180    0.32380    1.000
    C36      C        0.39880    0.56780    0.67600    1.000
    H47      H        0.36050    0.58610    0.73770    1.000
    H48      H        0.46210    0.59490    0.65910    1.000
    C37      C        0.60630    0.42100    0.20520    1.000
    H49      H        0.59210    0.40060    0.13620    1.000
    H50      H        0.68680    0.42000    0.21870    1.000
    C38      C        0.56810    0.48760    0.19960    1.000
    C39      C        0.12570    0.16180    0.22150    1.000
    H51      H        0.08010    0.12460    0.23540    1.000
    H52      H        0.10560    0.17780    0.15040    1.000
    C40      C        0.24340    0.14390    0.22230    1.000
    C41      C        0.97880    0.51590    0.18950    1.000
    H53      H        0.02230    0.52220    0.12420    1.000
    H54      H        0.93450    0.55380    0.20150    1.000
    C42      C        0.90170    0.46100    0.17350    1.000
    C43      C        0.32010    0.16570    0.80900    1.000
    H55      H        0.35680    0.18350    0.87230    1.000
    H56      H        0.35150    0.12400    0.79680    1.000
    C44      C        0.19820    0.15950    0.83060    1.000
    C45      C        0.90480    0.43210    0.83090    1.000
    H57      H        0.92740    0.40810    0.89430    1.000
    H58      H        0.82330    0.43470    0.82990    1.000
    C46      C        0.95380    0.49730    0.83650    1.000
    C47      C        0.51950    0.51380    0.79740    1.000
    H59      H        0.47650    0.52410    0.86150    1.000
    H60      H        0.56780    0.54950    0.78160    1.000
    C48      C        0.59110    0.45730    0.82090    1.000
    Eu1      Eu       0.74308    0.54237    0.99612    1.000
    N1       N        0.23860    0.36780    0.31890    1.000
    N2       N        0.54820    0.38570    0.29170    1.000
    H61      H        0.54700    0.41050    0.35200    1.000
    N3       N        0.10110    0.21040    0.30350    1.000
    H62      H        0.13820    0.19970    0.36560    1.000
    N4       N        0.05610    0.50690    0.28150    1.000
    H63      H        0.01570    0.49200    0.33860    1.000
    N5       N        0.24440    0.37050    0.67860    1.000
    N6       N        0.34420    0.20600    0.71440    1.000
    H64      H        0.29750    0.19440    0.65920    1.000
    N7       N        0.94360    0.40050    0.73380    1.000
    H65      H        0.94350    0.42950    0.67930    1.000
    N8       N        0.44180    0.50430    0.70650    1.000
    H66      H        0.48120    0.48830    0.64970    1.000
    O1       O        0.62270    0.52080    0.13350    1.000
    O2       O        0.49300    0.50590    0.25510    1.000
    O3       O        0.30940    0.16980    0.28210    1.000
    O4       O        0.26800    0.10210    0.15480    1.000
    O5       O        0.91110    0.41440    0.23010    1.000
    O6       O        0.83620    0.46750    0.09560    1.000
    O7       O        0.13010    0.18700    0.77680    1.000
    O8       O        0.17770    0.12222    0.90540    1.000
    O9       O        0.02580    0.51450    0.77820    1.000
    O10      O        0.91370    0.53020    0.91290    1.000
    O11      O        0.58330    0.41020    0.76550    1.000
    O12      O        0.65710    0.46440    0.89940    1.000
    C49      C        0.64640    0.88620    0.65100    1.000
    H67      H        0.64330    0.93140    0.63730    1.000
    H68      H        0.62360    0.86430    0.58550    1.000
    C50      C        0.57130    0.87010    0.73860    1.000
    H69      H        0.59260    0.89340    0.80310    1.000
    H70      H        0.57750    0.82520    0.75440    1.000
    C51      C        0.78940    0.80440    0.64540    1.000
    H71      H        0.83200    0.80630    0.57880    1.000
    H72      H        0.72130    0.78040    0.63200    1.000
    C52      C        0.85720    0.77350    0.73150    1.000
    H73      H        0.81170    0.76860    0.79580    1.000
    H74      H        0.92070    0.80030    0.74990    1.000
    C53      C        0.84270    0.91340    0.65350    1.000
    H75      H        0.82030    0.93510    0.58770    1.000
    H76      H        0.91460    0.89310    0.64110    1.000
    C54      C        0.85280    0.95930    0.74370    1.000
    H77      H        0.87120    0.93720    0.81030    1.000
    H78      H        0.78170    0.98100    0.75370    1.000
    C55      C        0.73870    0.80550    0.35030    1.000
    H79      H        0.69710    0.80290    0.41740    1.000
    H80      H        0.81070    0.78480    0.36080    1.000
    C56      C        0.67450    0.77330    0.26170    1.000
    H81      H        0.60250    0.79420    0.25200    1.000
    H82      H        0.71580    0.77710    0.19450    1.000
    C57      C        0.86620    0.89310    0.34500    1.000
    H83      H        0.89440    0.87340    0.41070    1.000
    H84      H        0.86470    0.93850    0.35580    1.000
    C58      C        0.94010    0.87720    0.25320    1.000
    H85      H        0.94180    0.83160    0.24450    1.000
    H86      H        0.90820    0.89520    0.18750    1.000
    C59      C        0.66830    0.91220    0.35350    1.000
    H87      H        0.68990    0.93400    0.41940    1.000
    H88      H        0.60030    0.88840    0.36750    1.000
    C60      C        0.64750    0.95900    0.26510    1.000
    H89      H        0.71640    0.98200    0.25080    1.000
    H90      H        0.62620    0.93670    0.19950    1.000
    C61      C        0.38570    0.82880    0.68330    1.000
    H91      H        0.30840    0.84110    0.66920    1.000
    H92      H        0.38620    0.80120    0.74600    1.000
    C62      C        0.42830    0.79350    0.58930    1.000
    C63      C        0.49080    0.74100    0.60160    1.000
    H93      H        0.50860    0.72680    0.67100    1.000
    C64      C        0.52850    0.70800    0.51430    1.000
    H94      H        0.57260    0.67210    0.52430    1.000
    C65      C        0.50180    0.72750    0.41340    1.000
    C66      C        0.43590    0.78120    0.39980    1.000
    H95      H        0.41640    0.79500    0.33060    1.000
    C67      C        0.40050    0.81320    0.48690    1.000
    H96      H        0.35650    0.84930    0.47770    1.000
    C68      C        0.53880    0.69160    0.31710    1.000
    H97      H        0.53250    0.64670    0.33210    1.000
    H98      H        0.48900    0.70120    0.25690    1.000
    C69      C        0.01910    0.71160    0.67340    1.000
    H99      H        0.04550    0.66850    0.66480    1.000
    H100     H        0.05860    0.72990    0.73470    1.000
    C70      C        0.04740    0.74810    0.57490    1.000
    C71      C        0.08850    0.80800    0.58320    1.000
    H101     H        0.09760    0.82660    0.65100    1.000
    C72      C        0.11630    0.84060    0.49240    1.000
    H102     H        0.14280    0.88190    0.49900    1.000
    C73      C        0.10650    0.81470    0.39320    1.000
    C74      C        0.06580    0.75430    0.38590    1.000
    H103     H        0.05830    0.73540    0.31820    1.000
    C75      C        0.03610    0.72160    0.47540    1.000
    H104     H        0.00790    0.68070    0.46870    1.000
    C76      C        0.13760    0.84990    0.29640    1.000
    H105     H        0.14400    0.82060    0.23640    1.000
    H106     H        0.21090    0.86890    0.30800    1.000
    C77      C        0.89720    0.06930    0.68860    1.000
    H107     H        0.95900    0.09800    0.67420    1.000
    H108     H        0.85600    0.08600    0.74980    1.000
    C78      C        0.82130    0.06830    0.59270    1.000
    C79      C        0.86330    0.06540    0.49050    1.000
    H109     H        0.94070    0.06390    0.47990    1.000
    C80      C        0.79240    0.06460    0.40440    1.000
    H110     H        0.82180    0.06240    0.33490    1.000
    C81      C        0.67930    0.06700    0.41750    1.000
    C82      C        0.63610    0.06920    0.52110    1.000
    H111     H        0.55870    0.07000    0.53190    1.000
    C83      C        0.70780    0.07000    0.60640    1.000
    H112     H        0.67890    0.07180    0.67620    1.000
    C84      C        0.60120    0.06780    0.32400    1.000
    H113     H        0.63950    0.08610    0.26230    1.000
    H114     H        0.53790    0.09490    0.34090    1.000
    C85      C        0.39370    0.92100    0.79480    1.000
    H115     H        0.40790    0.90060    0.86380    1.000
    H116     H        0.31320    0.92000    0.78130    1.000
    C86      C        0.43190    0.98760    0.80040    1.000
    C87      C        0.87430    0.66180    0.77850    1.000
    H117     H        0.91990    0.62460    0.76460    1.000
    H118     H        0.89440    0.67780    0.84960    1.000
    C88      C        0.75660    0.64390    0.77770    1.000
    C89      C        0.02120    0.01590    0.81050    1.000
    H119     H        0.97770    0.02220    0.87580    1.000
    H120     H        0.06550    0.05380    0.79850    1.000
    C90      C        0.09830    0.96100    0.82650    1.000
    C91      C        0.67990    0.66570    0.19100    1.000
    H121     H        0.64320    0.68350    0.12770    1.000
    H122     H        0.64850    0.62400    0.20320    1.000
    C92      C        0.80180    0.65950    0.16940    1.000
    C93      C        0.09520    0.93210    0.16910    1.000
    H123     H        0.07260    0.90810    0.10570    1.000
    H124     H        0.17670    0.93470    0.17010    1.000
    C94      C        0.04620    0.99730    0.16350    1.000
    C95      C        0.48050    0.01380    0.20260    1.000
    H125     H        0.52350    0.02410    0.13850    1.000
    H126     H        0.43220    0.04950    0.21840    1.000
    C96      C        0.40890    0.95730    0.17910    1.000
    Eu2      Eu       0.25692    0.04237    0.00388    1.000
    N9       N        0.76140    0.86780    0.68110    1.000
    N10      N        0.45180    0.88570    0.70830    1.000
    H127     H        0.45300    0.91050    0.64800    1.000
    N11      N        0.89890    0.71040    0.69650    1.000
    H128     H        0.86180    0.69970    0.63440    1.000
    N12      N        0.94390    0.00690    0.71850    1.000
    H129     H        0.98430    0.99200    0.66140    1.000
    N13      N        0.75560    0.87050    0.32140    1.000
    N14      N        0.65580    0.70600    0.28560    1.000
    H130     H        0.70250    0.69440    0.34080    1.000
    N15      N        0.05640    0.90050    0.26620    1.000
    H131     H        0.05650    0.92950    0.32070    1.000
    N16      N        0.55820    0.00430    0.29350    1.000
    H132     H        0.51880    0.98830    0.35030    1.000
    O13      O        0.37730    0.02080    0.86650    1.000
    O14      O        0.50700    0.00590    0.74490    1.000
    O15      O        0.69060    0.66980    0.71790    1.000
    O16      O        0.73200    0.60210    0.84520    1.000
    O17      O        0.08890    0.91440    0.76990    1.000
    O18      O        0.16380    0.96750    0.90440    1.000
    O19      O        0.86990    0.68700    0.22320    1.000
    O20      O        0.82230    0.62222    0.09460    1.000
    O21      O        0.97420    0.01450    0.22180    1.000
    O22      O        0.08630    0.03020    0.08710    1.000
    O23      O        0.41670    0.91020    0.23450    1.000
    O24      O        0.34290    0.96440    0.10060    1.000
