# CIF file generated by openbabel 3.1.0, see https://openbabel.org
data_I
_chemical_name_common 'image0'
_cell_length_a 9.1768
_cell_length_b 12.7229
_cell_length_c 16.483
_cell_angle_alpha 68.53
_cell_angle_beta 83.285
_cell_angle_gamma 73.259
_space_group_name_H-M_alt 'P 1'
_space_group_name_Hall 'P 1'
loop_
    _symmetry_equiv_pos_as_xyz
    x,y,z
loop_
    _atom_site_label
    _atom_site_type_symbol
    _atom_site_fract_x
    _atom_site_fract_y
    _atom_site_fract_z
    _atom_site_occupancy
    Fe1      Fe       0.94514    0.55459    0.12999    1.000
    Fe2      Fe       0.97130    0.06611    0.12269    1.000
    Fe3      Fe       0.31144    0.19092    0.24756    1.000
    Fe4      Fe       0.31093    0.68775    0.25197    1.000
    Fe5      Fe       0.96282    0.44117    0.38236    1.000
    Fe6      Fe       0.96301    0.94138    0.38258    1.000
    P1       P        0.09340    0.30870    0.07950    1.000
    P2       P        0.65930    0.52230    0.26290    1.000
    P3       P        0.12570    0.87760    0.07970    1.000
    P4       P        0.22750    0.93910    0.28010    1.000
    P5       P        0.21940    0.43770    0.27545    1.000
    P6       P        0.05270    0.65910    0.40090    1.000
    P7       P        0.04710    0.16370    0.40290    1.000
    P8       P        0.67080    0.04400    0.25280    1.000
    P9       P        0.69770    0.10830    0.25420    1.000
    O1       O        0.00370    0.21760    0.10640    1.000
    O2       O        0.24190    0.26170    0.13050    1.000
    O3       O        0.99460    0.41890    0.09500    1.000
    O4       O        0.14090    0.33790    0.98240    1.000
    O5       O        0.74560    0.52930    0.17650    1.000
    O6       O        0.52470    0.62870    0.25160    1.000
    O7       O        0.75690    0.50830    0.33540    1.000
    O8       O        0.59690    0.41080    0.28950    1.000
    O9       O        0.16950    0.99090    0.06900    1.000
    O10      O        0.12570    0.85750    0.99390    1.000
    O11      O        0.96770    0.89690    0.12310    1.000
    O12      O        0.24020    0.76750    0.13550    1.000
    O13      O        0.31400    0.03280    0.24950    1.000
    O14      O        0.32700    0.83730    0.25520    1.000
    O15      O        0.19250    0.90190    0.37940    1.000
    O16      O        0.06420    0.98550    0.24300    1.000
    O17      O        0.05340    0.46610    0.24360    1.000
    O18      O        0.32880    0.34250    0.24680    1.000
    O19      O        0.27440    0.54850    0.23500    1.000
    O20      O        0.19480    0.40000    0.37510    1.000
    O21      O        0.21320    0.65710    0.36180    1.000
    O22      O        0.96600    0.60700    0.35740    1.000
    O23      O        0.96010    0.78510    0.38660    1.000
    O24      O        0.07430    0.58710    0.49750    1.000
    O25      O        0.19440    0.17230    0.35010    1.000
    O26      O        0.94450    0.28610    0.39420    1.000
    O27      O        0.95540    0.10530    0.36990    1.000
    O28      O        0.09410    0.09330    0.49720    1.000
    O29      O        0.76620    0.08720    0.17210    1.000
    O30      O        0.52820    0.13960    0.25390    1.000
    O31      O        0.75640    0.99820    0.33690    1.000
    O32      O        0.61500    0.94320    0.24400    1.000
    O33      O        0.64300    0.87200    0.24700    1.000
    O34      O        0.73400    0.21100    0.26400    1.000
    O35      O        0.78400    0.26200    0.23900    1.000
    Fe7      Fe       0.05486    0.44541    0.87001    1.000
    Fe8      Fe       0.02870    0.93389    0.87731    1.000
    Fe9      Fe       0.68856    0.80908    0.75244    1.000
    Fe10     Fe       0.68907    0.31225    0.74803    1.000
    Fe11     Fe       0.03718    0.55883    0.61764    1.000
    Fe12     Fe       0.03699    0.05862    0.61742    1.000
    P10      P        0.90660    0.69130    0.92050    1.000
    P11      P        0.34070    0.47770    0.73710    1.000
    P12      P        0.87430    0.12240    0.92030    1.000
    P13      P        0.77250    0.06090    0.71990    1.000
    P14      P        0.78060    0.56230    0.72455    1.000
    P15      P        0.94730    0.34090    0.59910    1.000
    P16      P        0.95290    0.83630    0.59710    1.000
    P17      P        0.32920    0.95600    0.74720    1.000
    P18      P        0.30230    0.89170    0.74580    1.000
    O36      O        0.99630    0.78240    0.89360    1.000
    O37      O        0.75810    0.73830    0.86950    1.000
    O38      O        0.00540    0.58110    0.90500    1.000
    O39      O        0.85910    0.66210    0.01760    1.000
    O40      O        0.25440    0.47070    0.82350    1.000
    O41      O        0.47530    0.37130    0.74840    1.000
    O42      O        0.24310    0.49170    0.66460    1.000
    O43      O        0.40310    0.58920    0.71050    1.000
    O44      O        0.83050    0.00910    0.93100    1.000
    O45      O        0.87430    0.14250    0.00610    1.000
    O46      O        0.03230    0.10310    0.87690    1.000
    O47      O        0.75980    0.23250    0.86450    1.000
    O48      O        0.68600    0.96720    0.75050    1.000
    O49      O        0.67300    0.16270    0.74480    1.000
    O50      O        0.80750    0.09810    0.62060    1.000
    O51      O        0.93580    0.01450    0.75700    1.000
    O52      O        0.94660    0.53390    0.75640    1.000
    O53      O        0.67120    0.65750    0.75320    1.000
    O54      O        0.72560    0.45150    0.76500    1.000
    O55      O        0.80520    0.60000    0.62490    1.000
    O56      O        0.78680    0.34290    0.63820    1.000
    O57      O        0.03400    0.39300    0.64260    1.000
    O58      O        0.03990    0.21490    0.61340    1.000
    O59      O        0.92570    0.41290    0.50250    1.000
    O60      O        0.80560    0.82770    0.64990    1.000
    O61      O        0.05550    0.71390    0.60580    1.000
    O62      O        0.04460    0.89470    0.63010    1.000
    O63      O        0.90590    0.90670    0.50280    1.000
    O64      O        0.23380    0.91280    0.82790    1.000
    O65      O        0.47180    0.86040    0.74610    1.000
    O66      O        0.24360    0.00180    0.66310    1.000
    O67      O        0.38500    0.05680    0.75600    1.000
    O68      O        0.35700    0.12800    0.75300    1.000
    O69      O        0.26600    0.78900    0.73600    1.000
    O70      O        0.21600    0.73800    0.76100    1.000
