# CIF file generated by openbabel 3.1.0, see https://openbabel.org
data_I
_chemical_name_common 'image0'
_cell_length_a 13.7355
_cell_length_b 40.624
_cell_length_c 20.8303
_cell_angle_alpha 90
_cell_angle_beta 90
_cell_angle_gamma 90
_space_group_name_H-M_alt 'P 1'
_space_group_name_Hall 'P 1'
loop_
    _symmetry_equiv_pos_as_xyz
    x,y,z
loop_
    _atom_site_label
    _atom_site_type_symbol
    _atom_site_fract_x
    _atom_site_fract_y
    _atom_site_fract_z
    _atom_site_occupancy
    C1       C        0.27100    0.68750    0.74400    1.000
    C2       C        0.35590    0.66270    0.73460    1.000
    C3       C        0.90350    0.89787    0.35660    1.000
    H1       H        0.91250    0.89350    0.31320    1.000
    C4       C        0.97230    0.91686    0.38790    1.000
    H2       H        0.02490    0.92510    0.36480    1.000
    C5       C        0.96520    0.92382    0.45160    1.000
    C6       C        0.88360    0.91110    0.47980    1.000
    H3       H        0.87290    0.91490    0.52320    1.000
    C7       C        0.81750    0.89303    0.44590    1.000
    H4       H        0.76270    0.88540    0.46750    1.000
    C8       C        0.03740    0.94372    0.48600    1.000
    C9       C        0.12800    0.94791    0.46060    1.000
    H5       H        0.14320    0.93800    0.42160    1.000
    C10      C        0.19860    0.96678    0.49170    1.000
    H6       H        0.25960    0.96930    0.47310    1.000
    C11      C        0.17920    0.98161    0.54920    1.000
    C12      C        0.08570    0.97785    0.57450    1.000
    H7       H        0.06940    0.98820    0.61280    1.000
    C13      C        0.01840    0.95910    0.54350    1.000
    H8       H        0.95720    0.95660    0.56190    1.000
    C14      C        0.25480    0.02873    0.68450    1.000
    H9       H        0.25690    0.04870    0.66280    1.000
    C15      C        0.25660    0.02850    0.75070    1.000
    H10      H        0.26250    0.04840    0.77250    1.000
    C16      C        0.24680    0.02866    0.89250    1.000
    H11      H        0.24480    0.04870    0.87090    1.000
    C17      C        0.24640    0.02893    0.95810    1.000
    H12      H        0.24380    0.04880    0.98020    1.000
    C18      C        0.18420    0.02054    0.09430    1.000
    C19      C        0.21120    0.03479    0.15060    1.000
    H13      H        0.27380    0.03130    0.16620    1.000
    C20      C        0.14800    0.05424    0.18470    1.000
    H14      H        0.16940    0.06440    0.22210    1.000
    C21      C        0.05290    0.05900    0.16460    1.000
    C22      C        0.02660    0.04461    0.10630    1.000
    H15      H        0.96400    0.04770    0.09040    1.000
    C23      C        0.09140    0.02613    0.07230    1.000
    H16      H        0.07230    0.01710    0.03330    1.000
    C24      C        0.98580    0.07831    0.20390    1.000
    C25      C        0.99090    0.07797    0.27080    1.000
    H17      H        0.03770    0.06520    0.29150    1.000
    C26      C        0.92530    0.09688    0.30650    1.000
    H18      H        0.93020    0.09660    0.35100    1.000
    C27      C        0.84950    0.11446    0.21610    1.000
    H19      H        0.80030    0.12680    0.19720    1.000
    C28      C        0.91020    0.09666    0.17690    1.000
    H20      H        0.90090    0.09680    0.13270    1.000
    C29      C        0.61660    0.83670    0.43240    1.000
    C30      C        0.57250    0.81209    0.47880    1.000
    C31      C        0.50300    0.82131    0.51820    1.000
    H21      H        0.48260    0.84310    0.51710    1.000
    C32      C        0.45920    0.80020    0.56090    1.000
    H22      H        0.41040    0.80800    0.58790    1.000
    C33      C        0.48710    0.76780    0.56400    1.000
    C34      C        0.55980    0.75930    0.52670    1.000
    H23      H        0.58290    0.73780    0.52990    1.000
    C35      C        0.60470    0.78005    0.48280    1.000
    H24      H        0.65510    0.77250    0.45680    1.000
    C36      C        0.43662    0.74409    0.60583    1.000
    C37      C        0.34786    0.75170    0.63425    1.000
    H25      H        0.31670    0.77140    0.62430    1.000
    C38      C        0.30570    0.72992    0.67757    1.000
    H26      H        0.24640    0.73500    0.69660    1.000
    C39      C        0.35240    0.70053    0.69248    1.000
    C40      C        0.44110    0.69292    0.66407    1.000
    H27      H        0.47230    0.67330    0.67400    1.000
    C41      C        0.48320    0.71470    0.62074    1.000
    H28      H        0.54260    0.70960    0.60170    1.000
    N1       N        0.82642    0.88579    0.38479    1.000
    N2       N        0.85740    0.11491    0.28002    1.000
    O1       O        0.68247    0.82435    0.39717    1.000
    O2       O        0.59319    0.86514    0.43381    1.000
    O3       O        0.31120    0.66984    0.77706    1.000
    Zn1      Zn       0.73236    0.85604    0.33508    1.000
    O4       O        0.37580    0.63420    0.72290    1.000
    O5       O        0.18530    0.68950    0.75270    1.000
    C42      C        0.22900    0.31250    0.74400    1.000
    C43      C        0.14410    0.33730    0.73460    1.000
    C44      C        0.59650    0.10213    0.35660    1.000
    H29      H        0.58750    0.10650    0.31320    1.000
    C45      C        0.52770    0.08314    0.38790    1.000
    H30      H        0.47510    0.07490    0.36480    1.000
    C46      C        0.53480    0.07618    0.45160    1.000
    C47      C        0.61640    0.08890    0.47980    1.000
    H31      H        0.62710    0.08510    0.52320    1.000
    C48      C        0.68250    0.10697    0.44590    1.000
    H32      H        0.73730    0.11460    0.46750    1.000
    C49      C        0.46260    0.05628    0.48600    1.000
    C50      C        0.37200    0.05209    0.46060    1.000
    H33      H        0.35680    0.06200    0.42160    1.000
    C51      C        0.30140    0.03322    0.49170    1.000
    H34      H        0.24040    0.03070    0.47310    1.000
    C52      C        0.32080    0.01839    0.54920    1.000
    C53      C        0.41430    0.02215    0.57450    1.000
    H35      H        0.43060    0.01180    0.61280    1.000
    C54      C        0.48160    0.04090    0.54350    1.000
    H36      H        0.54280    0.04340    0.56190    1.000
    C55      C        0.24520    0.97127    0.68450    1.000
    H37      H        0.24310    0.95130    0.66280    1.000
    C56      C        0.24340    0.97150    0.75070    1.000
    H38      H        0.23750    0.95160    0.77250    1.000
    C57      C        0.25320    0.97134    0.89250    1.000
    H39      H        0.25520    0.95130    0.87090    1.000
    C58      C        0.25360    0.97107    0.95810    1.000
    H40      H        0.25620    0.95120    0.98020    1.000
    C59      C        0.31580    0.97946    0.09430    1.000
    C60      C        0.28880    0.96521    0.15060    1.000
    H41      H        0.22620    0.96870    0.16620    1.000
    C61      C        0.35200    0.94576    0.18470    1.000
    H42      H        0.33060    0.93560    0.22210    1.000
    C62      C        0.44710    0.94100    0.16460    1.000
    C63      C        0.47340    0.95539    0.10630    1.000
    H43      H        0.53600    0.95230    0.09040    1.000
    C64      C        0.40860    0.97387    0.07230    1.000
    H44      H        0.42770    0.98290    0.03330    1.000
    C65      C        0.51420    0.92169    0.20390    1.000
    C66      C        0.50910    0.92203    0.27080    1.000
    H45      H        0.46230    0.93480    0.29150    1.000
    C67      C        0.57470    0.90312    0.30650    1.000
    H46      H        0.56980    0.90340    0.35100    1.000
    C68      C        0.65050    0.88554    0.21610    1.000
    H47      H        0.69970    0.87320    0.19720    1.000
    C69      C        0.58980    0.90334    0.17690    1.000
    H48      H        0.59910    0.90320    0.13270    1.000
    C70      C        0.88340    0.16330    0.43240    1.000
    C71      C        0.92750    0.18791    0.47880    1.000
    C72      C        0.99700    0.17869    0.51820    1.000
    H49      H        0.01740    0.15690    0.51710    1.000
    C73      C        0.04080    0.19980    0.56090    1.000
    H50      H        0.08960    0.19200    0.58790    1.000
    C74      C        0.01290    0.23220    0.56400    1.000
    C75      C        0.94020    0.24070    0.52670    1.000
    H51      H        0.91710    0.26220    0.52990    1.000
    C76      C        0.89530    0.21995    0.48280    1.000
    H52      H        0.84490    0.22750    0.45680    1.000
    C77      C        0.06338    0.25591    0.60583    1.000
    C78      C        0.15214    0.24830    0.63425    1.000
    H53      H        0.18330    0.22860    0.62430    1.000
    C79      C        0.19430    0.27008    0.67757    1.000
    H54      H        0.25360    0.26500    0.69660    1.000
    C80      C        0.14760    0.29947    0.69248    1.000
    C81      C        0.05890    0.30708    0.66407    1.000
    H55      H        0.02770    0.32670    0.67400    1.000
    C82      C        0.01680    0.28530    0.62074    1.000
    H56      H        0.95740    0.29040    0.60170    1.000
    N3       N        0.67358    0.11421    0.38479    1.000
    N4       N        0.64260    0.88509    0.28002    1.000
    O6       O        0.81753    0.17565    0.39717    1.000
    O7       O        0.90681    0.13486    0.43381    1.000
    O8       O        0.18880    0.33016    0.77706    1.000
    Zn2      Zn       0.76764    0.14396    0.33508    1.000
    O9       O        0.12420    0.36580    0.72290    1.000
    O10      O        0.31470    0.31050    0.75270    1.000
    C83      C        0.77100    0.81250    0.24400    1.000
    C84      C        0.85590    0.83730    0.23460    1.000
    C85      C        0.40350    0.60213    0.85660    1.000
    H57      H        0.41250    0.60650    0.81320    1.000
    C86      C        0.47230    0.58314    0.88790    1.000
    H58      H        0.52490    0.57490    0.86480    1.000
    C87      C        0.46520    0.57618    0.95160    1.000
    C88      C        0.38360    0.58890    0.97980    1.000
    H59      H        0.37290    0.58510    0.02320    1.000
    C89      C        0.31750    0.60697    0.94590    1.000
    H60      H        0.26270    0.61460    0.96750    1.000
    C90      C        0.53740    0.55628    0.98600    1.000
    C91      C        0.62800    0.55209    0.96060    1.000
    H61      H        0.64320    0.56200    0.92160    1.000
    C92      C        0.69860    0.53322    0.99170    1.000
    H62      H        0.75960    0.53070    0.97310    1.000
    C93      C        0.67920    0.51839    0.04920    1.000
    C94      C        0.58570    0.52215    0.07450    1.000
    H63      H        0.56940    0.51180    0.11280    1.000
    C95      C        0.51840    0.54090    0.04350    1.000
    H64      H        0.45720    0.54340    0.06190    1.000
    C96      C        0.75480    0.47127    0.18450    1.000
    H65      H        0.75690    0.45130    0.16280    1.000
    C97      C        0.75660    0.47150    0.25070    1.000
    H66      H        0.76250    0.45160    0.27250    1.000
    C98      C        0.74680    0.47134    0.39250    1.000
    H67      H        0.74480    0.45130    0.37090    1.000
    C99      C        0.74640    0.47107    0.45810    1.000
    H68      H        0.74380    0.45120    0.48020    1.000
    C100     C        0.68420    0.47946    0.59430    1.000
    C101     C        0.71120    0.46521    0.65060    1.000
    H69      H        0.77380    0.46870    0.66620    1.000
    C102     C        0.64800    0.44576    0.68470    1.000
    H70      H        0.66940    0.43560    0.72210    1.000
    C103     C        0.55290    0.44100    0.66460    1.000
    C104     C        0.52660    0.45539    0.60630    1.000
    H71      H        0.46400    0.45230    0.59040    1.000
    C105     C        0.59140    0.47387    0.57230    1.000
    H72      H        0.57230    0.48290    0.53330    1.000
    C106     C        0.48580    0.42169    0.70390    1.000
    C107     C        0.49090    0.42203    0.77080    1.000
    H73      H        0.53770    0.43480    0.79150    1.000
    C108     C        0.42530    0.40312    0.80650    1.000
    H74      H        0.43020    0.40340    0.85100    1.000
    C109     C        0.34950    0.38554    0.71610    1.000
    H75      H        0.30030    0.37320    0.69720    1.000
    C110     C        0.41020    0.40334    0.67690    1.000
    H76      H        0.40090    0.40320    0.63270    1.000
    C111     C        0.11660    0.66330    0.93240    1.000
    C112     C        0.07250    0.68791    0.97880    1.000
    C113     C        0.00300    0.67869    0.01820    1.000
    H77      H        0.98260    0.65690    0.01710    1.000
    C114     C        0.95920    0.69980    0.06090    1.000
    H78      H        0.91040    0.69200    0.08790    1.000
    C115     C        0.98710    0.73220    0.06400    1.000
    C116     C        0.05980    0.74070    0.02670    1.000
    H79      H        0.08290    0.76220    0.02990    1.000
    C117     C        0.10470    0.71995    0.98280    1.000
    H80      H        0.15510    0.72750    0.95680    1.000
    C118     C        0.93662    0.75591    0.10583    1.000
    C119     C        0.84786    0.74830    0.13425    1.000
    H81      H        0.81670    0.72860    0.12430    1.000
    C120     C        0.80570    0.77008    0.17757    1.000
    H82      H        0.74640    0.76500    0.19660    1.000
    C121     C        0.85240    0.79947    0.19248    1.000
    C122     C        0.94110    0.80708    0.16407    1.000
    H83      H        0.97230    0.82670    0.17400    1.000
    C123     C        0.98320    0.78530    0.12074    1.000
    H84      H        0.04260    0.79040    0.10170    1.000
    N5       N        0.32642    0.61421    0.88479    1.000
    N6       N        0.35740    0.38509    0.78002    1.000
    O11      O        0.18247    0.67565    0.89717    1.000
    O12      O        0.09319    0.63486    0.93381    1.000
    O13      O        0.81120    0.83016    0.27706    1.000
    Zn3      Zn       0.23236    0.64396    0.83508    1.000
    O14      O        0.87580    0.86580    0.22290    1.000
    O15      O        0.68530    0.81050    0.25270    1.000
    C124     C        0.72900    0.18750    0.24400    1.000
    C125     C        0.64410    0.16270    0.23460    1.000
    C126     C        0.09650    0.39787    0.85660    1.000
    H85      H        0.08750    0.39350    0.81320    1.000
    C127     C        0.02770    0.41686    0.88790    1.000
    H86      H        0.97510    0.42510    0.86480    1.000
    C128     C        0.03480    0.42382    0.95160    1.000
    C129     C        0.11640    0.41110    0.97980    1.000
    H87      H        0.12710    0.41490    0.02320    1.000
    C130     C        0.18250    0.39303    0.94590    1.000
    H88      H        0.23730    0.38540    0.96750    1.000
    C131     C        0.96260    0.44372    0.98600    1.000
    C132     C        0.87200    0.44791    0.96060    1.000
    H89      H        0.85680    0.43800    0.92160    1.000
    C133     C        0.80140    0.46678    0.99170    1.000
    H90      H        0.74040    0.46930    0.97310    1.000
    C134     C        0.82080    0.48161    0.04920    1.000
    C135     C        0.91430    0.47785    0.07450    1.000
    H91      H        0.93060    0.48820    0.11280    1.000
    C136     C        0.98160    0.45910    0.04350    1.000
    H92      H        0.04280    0.45660    0.06190    1.000
    C137     C        0.74520    0.52873    0.18450    1.000
    H93      H        0.74310    0.54870    0.16280    1.000
    C138     C        0.74340    0.52850    0.25070    1.000
    H94      H        0.73750    0.54840    0.27250    1.000
    C139     C        0.75320    0.52866    0.39250    1.000
    H95      H        0.75520    0.54870    0.37090    1.000
    C140     C        0.75360    0.52893    0.45810    1.000
    H96      H        0.75620    0.54880    0.48020    1.000
    C141     C        0.81580    0.52054    0.59430    1.000
    C142     C        0.78880    0.53479    0.65060    1.000
    H97      H        0.72620    0.53130    0.66620    1.000
    C143     C        0.85200    0.55424    0.68470    1.000
    H98      H        0.83060    0.56440    0.72210    1.000
    C144     C        0.94710    0.55900    0.66460    1.000
    C145     C        0.97340    0.54461    0.60630    1.000
    H99      H        0.03600    0.54770    0.59040    1.000
    C146     C        0.90860    0.52613    0.57230    1.000
    H100     H        0.92770    0.51710    0.53330    1.000
    C147     C        0.01420    0.57831    0.70390    1.000
    C148     C        0.00910    0.57797    0.77080    1.000
    H101     H        0.96230    0.56520    0.79150    1.000
    C149     C        0.07470    0.59688    0.80650    1.000
    H102     H        0.06980    0.59660    0.85100    1.000
    C150     C        0.15050    0.61446    0.71610    1.000
    H103     H        0.19970    0.62680    0.69720    1.000
    C151     C        0.08980    0.59666    0.67690    1.000
    H104     H        0.09910    0.59680    0.63270    1.000
    C152     C        0.38340    0.33670    0.93240    1.000
    C153     C        0.42750    0.31209    0.97880    1.000
    C154     C        0.49700    0.32131    0.01820    1.000
    H105     H        0.51740    0.34310    0.01710    1.000
    C155     C        0.54080    0.30020    0.06090    1.000
    H106     H        0.58960    0.30800    0.08790    1.000
    C156     C        0.51290    0.26780    0.06400    1.000
    C157     C        0.44020    0.25930    0.02670    1.000
    H107     H        0.41710    0.23780    0.02990    1.000
    C158     C        0.39530    0.28005    0.98280    1.000
    H108     H        0.34490    0.27250    0.95680    1.000
    C159     C        0.56338    0.24409    0.10583    1.000
    C160     C        0.65214    0.25170    0.13425    1.000
    H109     H        0.68330    0.27140    0.12430    1.000
    C161     C        0.69430    0.22992    0.17757    1.000
    H110     H        0.75360    0.23500    0.19660    1.000
    C162     C        0.64760    0.20053    0.19248    1.000
    C163     C        0.55890    0.19292    0.16407    1.000
    H111     H        0.52770    0.17330    0.17400    1.000
    C164     C        0.51680    0.21470    0.12074    1.000
    H112     H        0.45740    0.20960    0.10170    1.000
    N7       N        0.17358    0.38579    0.88479    1.000
    N8       N        0.14260    0.61491    0.78002    1.000
    O16      O        0.31753    0.32435    0.89717    1.000
    O17      O        0.40681    0.36514    0.93381    1.000
    O18      O        0.68880    0.16984    0.27706    1.000
    Zn4      Zn       0.26764    0.35604    0.83508    1.000
    O19      O        0.62420    0.13420    0.22290    1.000
    O20      O        0.81470    0.18950    0.25270    1.000
    C165     C        0.25000    0.00000    0.65040    1.000
    C166     C        0.25000    0.00000    0.78560    1.000
    C167     C        0.25000    0.00000    0.85660    1.000
    C168     C        0.25000    0.00000    0.99100    1.000
    N9       N        0.25000    0.00000    0.58192    1.000
    N10      N        0.25000    0.00000    0.05929    1.000
    C169     C        0.75000    0.50000    0.15040    1.000
    C170     C        0.75000    0.50000    0.28560    1.000
    C171     C        0.75000    0.50000    0.35660    1.000
    C172     C        0.75000    0.50000    0.49100    1.000
    N11      N        0.75000    0.50000    0.08192    1.000
    N12      N        0.75000    0.50000    0.55929    1.000
    C173     C        0.22900    0.18750    0.75600    1.000
    C174     C        0.14410    0.16270    0.76540    1.000
    C175     C        0.59650    0.39787    0.14340    1.000
    H113     H        0.58750    0.39350    0.18680    1.000
    C176     C        0.52770    0.41686    0.11210    1.000
    H114     H        0.47510    0.42510    0.13520    1.000
    C177     C        0.53480    0.42382    0.04840    1.000
    C178     C        0.61640    0.41110    0.02020    1.000
    H115     H        0.62710    0.41490    0.97680    1.000
    C179     C        0.68250    0.39303    0.05410    1.000
    H116     H        0.73730    0.38540    0.03250    1.000
    C180     C        0.46260    0.44372    0.01400    1.000
    C181     C        0.37200    0.44791    0.03940    1.000
    H117     H        0.35680    0.43800    0.07840    1.000
    C182     C        0.30140    0.46678    0.00830    1.000
    H118     H        0.24040    0.46930    0.02690    1.000
    C183     C        0.32080    0.48161    0.95080    1.000
    C184     C        0.41430    0.47785    0.92550    1.000
    H119     H        0.43060    0.48820    0.88720    1.000
    C185     C        0.48160    0.45910    0.95650    1.000
    H120     H        0.54280    0.45660    0.93810    1.000
    C186     C        0.24520    0.52873    0.81550    1.000
    H121     H        0.24310    0.54870    0.83720    1.000
    C187     C        0.24340    0.52850    0.74930    1.000
    H122     H        0.23750    0.54840    0.72750    1.000
    C188     C        0.25320    0.52866    0.60750    1.000
    H123     H        0.25520    0.54870    0.62910    1.000
    C189     C        0.25360    0.52893    0.54190    1.000
    H124     H        0.25620    0.54880    0.51980    1.000
    C190     C        0.31580    0.52054    0.40570    1.000
    C191     C        0.28880    0.53479    0.34940    1.000
    H125     H        0.22620    0.53130    0.33380    1.000
    C192     C        0.35200    0.55424    0.31530    1.000
    H126     H        0.33060    0.56440    0.27790    1.000
    C193     C        0.44710    0.55900    0.33540    1.000
    C194     C        0.47340    0.54461    0.39370    1.000
    H127     H        0.53600    0.54770    0.40960    1.000
    C195     C        0.40860    0.52613    0.42770    1.000
    H128     H        0.42770    0.51710    0.46670    1.000
    C196     C        0.51420    0.57831    0.29610    1.000
    C197     C        0.50910    0.57797    0.22920    1.000
    H129     H        0.46230    0.56520    0.20850    1.000
    C198     C        0.57470    0.59688    0.19350    1.000
    H130     H        0.56980    0.59660    0.14900    1.000
    C199     C        0.65050    0.61446    0.28390    1.000
    H131     H        0.69970    0.62680    0.30280    1.000
    C200     C        0.58980    0.59666    0.32310    1.000
    H132     H        0.59910    0.59680    0.36730    1.000
    C201     C        0.88340    0.33670    0.06760    1.000
    C202     C        0.92750    0.31209    0.02120    1.000
    C203     C        0.99700    0.32131    0.98180    1.000
    H133     H        0.01740    0.34310    0.98290    1.000
    C204     C        0.04080    0.30020    0.93910    1.000
    H134     H        0.08960    0.30800    0.91210    1.000
    C205     C        0.01290    0.26780    0.93600    1.000
    C206     C        0.94020    0.25930    0.97330    1.000
    H135     H        0.91710    0.23780    0.97010    1.000
    C207     C        0.89530    0.28005    0.01720    1.000
    H136     H        0.84490    0.27250    0.04320    1.000
    C208     C        0.06338    0.24409    0.89417    1.000
    C209     C        0.15214    0.25170    0.86575    1.000
    H137     H        0.18330    0.27140    0.87570    1.000
    C210     C        0.19430    0.22992    0.82243    1.000
    H138     H        0.25360    0.23500    0.80340    1.000
    C211     C        0.14760    0.20053    0.80752    1.000
    C212     C        0.05890    0.19292    0.83593    1.000
    H139     H        0.02770    0.17330    0.82600    1.000
    C213     C        0.01680    0.21470    0.87926    1.000
    H140     H        0.95740    0.20960    0.89830    1.000
    N13      N        0.67358    0.38579    0.11521    1.000
    N14      N        0.64260    0.61491    0.21998    1.000
    O21      O        0.81753    0.32435    0.10283    1.000
    O22      O        0.90681    0.36514    0.06619    1.000
    O23      O        0.18880    0.16984    0.72294    1.000
    Zn5      Zn       0.76764    0.35604    0.16492    1.000
    O24      O        0.12420    0.13420    0.77710    1.000
    O25      O        0.31470    0.18950    0.74730    1.000
    C214     C        0.27100    0.81250    0.75600    1.000
    C215     C        0.35590    0.83730    0.76540    1.000
    C216     C        0.90350    0.60213    0.14340    1.000
    H141     H        0.91250    0.60650    0.18680    1.000
    C217     C        0.97230    0.58314    0.11210    1.000
    H142     H        0.02490    0.57490    0.13520    1.000
    C218     C        0.96520    0.57618    0.04840    1.000
    C219     C        0.88360    0.58890    0.02020    1.000
    H143     H        0.87290    0.58510    0.97680    1.000
    C220     C        0.81750    0.60697    0.05410    1.000
    H144     H        0.76270    0.61460    0.03250    1.000
    C221     C        0.03740    0.55628    0.01400    1.000
    C222     C        0.12800    0.55209    0.03940    1.000
    H145     H        0.14320    0.56200    0.07840    1.000
    C223     C        0.19860    0.53322    0.00830    1.000
    H146     H        0.25960    0.53070    0.02690    1.000
    C224     C        0.17920    0.51839    0.95080    1.000
    C225     C        0.08570    0.52215    0.92550    1.000
    H147     H        0.06940    0.51180    0.88720    1.000
    C226     C        0.01840    0.54090    0.95650    1.000
    H148     H        0.95720    0.54340    0.93810    1.000
    C227     C        0.25480    0.47127    0.81550    1.000
    H149     H        0.25690    0.45130    0.83720    1.000
    C228     C        0.25660    0.47150    0.74930    1.000
    H150     H        0.26250    0.45160    0.72750    1.000
    C229     C        0.24680    0.47134    0.60750    1.000
    H151     H        0.24480    0.45130    0.62910    1.000
    C230     C        0.24640    0.47107    0.54190    1.000
    H152     H        0.24380    0.45120    0.51980    1.000
    C231     C        0.18420    0.47946    0.40570    1.000
    C232     C        0.21120    0.46521    0.34940    1.000
    H153     H        0.27380    0.46870    0.33380    1.000
    C233     C        0.14800    0.44576    0.31530    1.000
    H154     H        0.16940    0.43560    0.27790    1.000
    C234     C        0.05290    0.44100    0.33540    1.000
    C235     C        0.02660    0.45539    0.39370    1.000
    H155     H        0.96400    0.45230    0.40960    1.000
    C236     C        0.09140    0.47387    0.42770    1.000
    H156     H        0.07230    0.48290    0.46670    1.000
    C237     C        0.98580    0.42169    0.29610    1.000
    C238     C        0.99090    0.42203    0.22920    1.000
    H157     H        0.03770    0.43480    0.20850    1.000
    C239     C        0.92530    0.40312    0.19350    1.000
    H158     H        0.93020    0.40340    0.14900    1.000
    C240     C        0.84950    0.38554    0.28390    1.000
    H159     H        0.80030    0.37320    0.30280    1.000
    C241     C        0.91020    0.40334    0.32310    1.000
    H160     H        0.90090    0.40320    0.36730    1.000
    C242     C        0.61660    0.66330    0.06760    1.000
    C243     C        0.57250    0.68791    0.02120    1.000
    C244     C        0.50300    0.67869    0.98180    1.000
    H161     H        0.48260    0.65690    0.98290    1.000
    C245     C        0.45920    0.69980    0.93910    1.000
    H162     H        0.41040    0.69200    0.91210    1.000
    C246     C        0.48710    0.73220    0.93600    1.000
    C247     C        0.55980    0.74070    0.97330    1.000
    H163     H        0.58290    0.76220    0.97010    1.000
    C248     C        0.60470    0.71995    0.01720    1.000
    H164     H        0.65510    0.72750    0.04320    1.000
    C249     C        0.43662    0.75591    0.89417    1.000
    C250     C        0.34786    0.74830    0.86575    1.000
    H165     H        0.31670    0.72860    0.87570    1.000
    C251     C        0.30570    0.77008    0.82243    1.000
    H166     H        0.24640    0.76500    0.80340    1.000
    C252     C        0.35240    0.79947    0.80752    1.000
    C253     C        0.44110    0.80708    0.83593    1.000
    H167     H        0.47230    0.82670    0.82600    1.000
    C254     C        0.48320    0.78530    0.87926    1.000
    H168     H        0.54260    0.79040    0.89830    1.000
    N15      N        0.82642    0.61421    0.11521    1.000
    N16      N        0.85740    0.38509    0.21998    1.000
    O26      O        0.68247    0.67565    0.10283    1.000
    O27      O        0.59319    0.63486    0.06619    1.000
    O28      O        0.31120    0.83016    0.72294    1.000
    Zn6      Zn       0.73236    0.64396    0.16492    1.000
    O29      O        0.37580    0.86580    0.77710    1.000
    O30      O        0.18530    0.81050    0.74730    1.000
    C255     C        0.72900    0.31250    0.25600    1.000
    C256     C        0.64410    0.33730    0.26540    1.000
    C257     C        0.09650    0.10213    0.64340    1.000
    H169     H        0.08750    0.10650    0.68680    1.000
    C258     C        0.02770    0.08314    0.61210    1.000
    H170     H        0.97510    0.07490    0.63520    1.000
    C259     C        0.03480    0.07618    0.54840    1.000
    C260     C        0.11640    0.08890    0.52020    1.000
    H171     H        0.12710    0.08510    0.47680    1.000
    C261     C        0.18250    0.10697    0.55410    1.000
    H172     H        0.23730    0.11460    0.53250    1.000
    C262     C        0.96260    0.05628    0.51400    1.000
    C263     C        0.87200    0.05209    0.53940    1.000
    H173     H        0.85680    0.06200    0.57840    1.000
    C264     C        0.80140    0.03322    0.50830    1.000
    H174     H        0.74040    0.03070    0.52690    1.000
    C265     C        0.82080    0.01839    0.45080    1.000
    C266     C        0.91430    0.02215    0.42550    1.000
    H175     H        0.93060    0.01180    0.38720    1.000
    C267     C        0.98160    0.04090    0.45650    1.000
    H176     H        0.04280    0.04340    0.43810    1.000
    C268     C        0.74520    0.97127    0.31550    1.000
    H177     H        0.74310    0.95130    0.33720    1.000
    C269     C        0.74340    0.97150    0.24930    1.000
    H178     H        0.73750    0.95160    0.22750    1.000
    C270     C        0.75320    0.97134    0.10750    1.000
    H179     H        0.75520    0.95130    0.12910    1.000
    C271     C        0.75360    0.97107    0.04190    1.000
    H180     H        0.75620    0.95120    0.01980    1.000
    C272     C        0.81580    0.97946    0.90570    1.000
    C273     C        0.78880    0.96521    0.84940    1.000
    H181     H        0.72620    0.96870    0.83380    1.000
    C274     C        0.85200    0.94576    0.81530    1.000
    H182     H        0.83060    0.93560    0.77790    1.000
    C275     C        0.94710    0.94100    0.83540    1.000
    C276     C        0.97340    0.95539    0.89370    1.000
    H183     H        0.03600    0.95230    0.90960    1.000
    C277     C        0.90860    0.97387    0.92770    1.000
    H184     H        0.92770    0.98290    0.96670    1.000
    C278     C        0.01420    0.92169    0.79610    1.000
    C279     C        0.00910    0.92203    0.72920    1.000
    H185     H        0.96230    0.93480    0.70850    1.000
    C280     C        0.07470    0.90312    0.69350    1.000
    H186     H        0.06980    0.90340    0.64900    1.000
    C281     C        0.15050    0.88554    0.78390    1.000
    H187     H        0.19970    0.87320    0.80280    1.000
    C282     C        0.08980    0.90334    0.82310    1.000
    H188     H        0.09910    0.90320    0.86730    1.000
    C283     C        0.38340    0.16330    0.56760    1.000
    C284     C        0.42750    0.18791    0.52120    1.000
    C285     C        0.49700    0.17869    0.48180    1.000
    H189     H        0.51740    0.15690    0.48290    1.000
    C286     C        0.54080    0.19980    0.43910    1.000
    H190     H        0.58960    0.19200    0.41210    1.000
    C287     C        0.51290    0.23220    0.43600    1.000
    C288     C        0.44020    0.24070    0.47330    1.000
    H191     H        0.41710    0.26220    0.47010    1.000
    C289     C        0.39530    0.21995    0.51720    1.000
    H192     H        0.34490    0.22750    0.54320    1.000
    C290     C        0.56338    0.25591    0.39417    1.000
    C291     C        0.65214    0.24830    0.36575    1.000
    H193     H        0.68330    0.22860    0.37570    1.000
    C292     C        0.69430    0.27008    0.32243    1.000
    H194     H        0.75360    0.26500    0.30340    1.000
    C293     C        0.64760    0.29947    0.30752    1.000
    C294     C        0.55890    0.30708    0.33593    1.000
    H195     H        0.52770    0.32670    0.32600    1.000
    C295     C        0.51680    0.28530    0.37926    1.000
    H196     H        0.45740    0.29040    0.39830    1.000
    N17      N        0.17358    0.11421    0.61521    1.000
    N18      N        0.14260    0.88509    0.71998    1.000
    O31      O        0.31753    0.17565    0.60283    1.000
    O32      O        0.40681    0.13486    0.56619    1.000
    O33      O        0.68880    0.33016    0.22294    1.000
    Zn7      Zn       0.26764    0.14396    0.66492    1.000
    O34      O        0.62420    0.36580    0.27710    1.000
    O35      O        0.81470    0.31050    0.24730    1.000
    C296     C        0.77100    0.68750    0.25600    1.000
    C297     C        0.85590    0.66270    0.26540    1.000
    C298     C        0.40350    0.89787    0.64340    1.000
    H197     H        0.41250    0.89350    0.68680    1.000
    C299     C        0.47230    0.91686    0.61210    1.000
    H198     H        0.52490    0.92510    0.63520    1.000
    C300     C        0.46520    0.92382    0.54840    1.000
    C301     C        0.38360    0.91110    0.52020    1.000
    H199     H        0.37290    0.91490    0.47680    1.000
    C302     C        0.31750    0.89303    0.55410    1.000
    H200     H        0.26270    0.88540    0.53250    1.000
    C303     C        0.53740    0.94372    0.51400    1.000
    C304     C        0.62800    0.94791    0.53940    1.000
    H201     H        0.64320    0.93800    0.57840    1.000
    C305     C        0.69860    0.96678    0.50830    1.000
    H202     H        0.75960    0.96930    0.52690    1.000
    C306     C        0.67920    0.98161    0.45080    1.000
    C307     C        0.58570    0.97785    0.42550    1.000
    H203     H        0.56940    0.98820    0.38720    1.000
    C308     C        0.51840    0.95910    0.45650    1.000
    H204     H        0.45720    0.95660    0.43810    1.000
    C309     C        0.75480    0.02873    0.31550    1.000
    H205     H        0.75690    0.04870    0.33720    1.000
    C310     C        0.75660    0.02850    0.24930    1.000
    H206     H        0.76250    0.04840    0.22750    1.000
    C311     C        0.74680    0.02866    0.10750    1.000
    H207     H        0.74480    0.04870    0.12910    1.000
    C312     C        0.74640    0.02893    0.04190    1.000
    H208     H        0.74380    0.04880    0.01980    1.000
    C313     C        0.68420    0.02054    0.90570    1.000
    C314     C        0.71120    0.03479    0.84940    1.000
    H209     H        0.77380    0.03130    0.83380    1.000
    C315     C        0.64800    0.05424    0.81530    1.000
    H210     H        0.66940    0.06440    0.77790    1.000
    C316     C        0.55290    0.05900    0.83540    1.000
    C317     C        0.52660    0.04461    0.89370    1.000
    H211     H        0.46400    0.04770    0.90960    1.000
    C318     C        0.59140    0.02613    0.92770    1.000
    H212     H        0.57230    0.01710    0.96670    1.000
    C319     C        0.48580    0.07831    0.79610    1.000
    C320     C        0.49090    0.07797    0.72920    1.000
    H213     H        0.53770    0.06520    0.70850    1.000
    C321     C        0.42530    0.09688    0.69350    1.000
    H214     H        0.43020    0.09660    0.64900    1.000
    C322     C        0.34950    0.11446    0.78390    1.000
    H215     H        0.30030    0.12680    0.80280    1.000
    C323     C        0.41020    0.09666    0.82310    1.000
    H216     H        0.40090    0.09680    0.86730    1.000
    C324     C        0.11660    0.83670    0.56760    1.000
    C325     C        0.07250    0.81209    0.52120    1.000
    C326     C        0.00300    0.82131    0.48180    1.000
    H217     H        0.98260    0.84310    0.48290    1.000
    C327     C        0.95920    0.80020    0.43910    1.000
    H218     H        0.91040    0.80800    0.41210    1.000
    C328     C        0.98710    0.76780    0.43600    1.000
    C329     C        0.05980    0.75930    0.47330    1.000
    H219     H        0.08290    0.73780    0.47010    1.000
    C330     C        0.10470    0.78005    0.51720    1.000
    H220     H        0.15510    0.77250    0.54320    1.000
    C331     C        0.93662    0.74409    0.39417    1.000
    C332     C        0.84786    0.75170    0.36575    1.000
    H221     H        0.81670    0.77140    0.37570    1.000
    C333     C        0.80570    0.72992    0.32243    1.000
    H222     H        0.74640    0.73500    0.30340    1.000
    C334     C        0.85240    0.70053    0.30752    1.000
    C335     C        0.94110    0.69292    0.33593    1.000
    H223     H        0.97230    0.67330    0.32600    1.000
    C336     C        0.98320    0.71470    0.37926    1.000
    H224     H        0.04260    0.70960    0.39830    1.000
    N19      N        0.32642    0.88579    0.61521    1.000
    N20      N        0.35740    0.11491    0.71998    1.000
    O36      O        0.18247    0.82435    0.60283    1.000
    O37      O        0.09319    0.86514    0.56619    1.000
    O38      O        0.81120    0.66984    0.22294    1.000
    Zn8      Zn       0.23236    0.85604    0.66492    1.000
    O39      O        0.87580    0.63420    0.27710    1.000
    O40      O        0.68530    0.68950    0.24730    1.000
    C337     C        0.25000    0.50000    0.84960    1.000
    C338     C        0.25000    0.50000    0.71440    1.000
    C339     C        0.25000    0.50000    0.64340    1.000
    C340     C        0.25000    0.50000    0.50900    1.000
    N21      N        0.25000    0.50000    0.91808    1.000
    N22      N        0.25000    0.50000    0.44071    1.000
    C341     C        0.75000    0.00000    0.34960    1.000
    C342     C        0.75000    0.00000    0.21440    1.000
    C343     C        0.75000    0.00000    0.14340    1.000
    C344     C        0.75000    0.00000    0.00900    1.000
    N23      N        0.75000    0.00000    0.41808    1.000
    N24      N        0.75000    0.00000    0.94071    1.000
