data_functionalizedCrystal
_audit_creation_method	'EQeq! by Chris Wilmer'
_symmetry_space_group_name_H-M	'P1'
_symmetry_Int_Tables_number	1
_symmetry_cell_setting	triclinic
loop_
_symmetry_equiv_pos_as_xyz
  x,y,z
_cell_length_a	10.021
_cell_length_b	8.286
_cell_length_c	11.856
_cell_angle_alpha	90
_cell_angle_beta	103.13
_cell_angle_gamma	90
loop_
_atom_site_label
_atom_site_type_symbol
_atom_site_fract_x
_atom_site_fract_y
_atom_site_fract_z
_atom_site_charge
Mof_Zn	Zn	0.6773	0.5303	0.4704	1.225
Mof_Zn	Zn	0.6219	0.0521	0.4296	1.19
Mof_Zn	Zn	0.9268	0.3254	0.1632	1.233
Mof_Zn	Zn	0.6637	0.9422	0.7858	1.248
Mof_P 	P 	0.6456	0.3444	0.2404	0.552
Mof_P 	P 	0.5828	0.2565	0.6258	0.533
Mof_P 	P 	0.927	0.0954	0.955	0.457
Mof_P 	P 	0.8269	0.8287	0.6029	0.538
Mof_O 	O 	0.7058	0.4897	0.3173	-0.454
Mof_O 	O 	0.8298	0.6743	0.5302	-0.419
Mof_O 	O 	0.6873	0.3386	0.5691	-0.503
Mof_O 	O 	0.5096	0.1237	0.5403	-0.699
Mof_O 	O 	0.65	0.1911	0.3109	-0.532
Mof_O 	O 	0.4779	0.3685	0.6553	-0.48
Mof_O 	O 	0.7963	0.9778	0.5231	-0.362
Mof_O 	O 	0.7302	0.3188	0.1471	-0.423
Mof_O 	O 	0.9689	0.8567	0.682	-0.407
Mof_O 	O 	0.9712	0.1336	0.0819	-0.452
Mof_O 	O 	0.0482	0.0396	0.9047	-0.457
Mof_O 	O 	0.7165	0.8042	0.6726	-0.506
Mof_O 	O 	0.5013	0.3833	0.172	-0.461
Mof_O 	O 	0.6589	0.1741	0.739	-0.463
Mof_O 	O 	0.808	0.9742	0.9311	-0.337
Mof_O 	O 	0.874	0.2601	0.8935	-0.436
Mof_H 	H 	0.8098	0.2938	0.919	0.243
Mof_Zn	Zn	0.3227	0.0303	0.5296	1.185
Mof_Zn	Zn	0.3781	0.5521	0.5704	1.227
Mof_Zn	Zn	0.0732	0.8254	0.8368	1.25
Mof_Zn	Zn	0.3363	0.4422	0.2142	1.226
Mof_P 	P 	0.3544	0.8444	0.7596	0.552
Mof_P 	P 	0.4172	0.7565	0.3742	0.533
Mof_P 	P 	0.073	0.5954	0.045	0.552
Mof_P 	P 	0.1731	0.3287	0.3971	0.537
Mof_O 	O 	0.2942	0.9897	0.6827	-0.391
Mof_O 	O 	0.1702	0.1743	0.4698	-0.465
Mof_O 	O 	0.3127	0.8386	0.4309	-0.443
Mof_O 	O 	0.4904	0.6237	0.4597	-0.649
Mof_O 	O 	0.35	0.6911	0.6891	-0.492
Mof_O 	O 	0.5221	0.8685	0.3447	-0.415
Mof_O 	O 	0.2037	0.4778	0.4769	-0.434
Mof_O 	O 	0.2698	0.8188	0.8529	-0.388
Mof_O 	O 	0.0311	0.3567	0.318	-0.443
Mof_O 	O 	0.0288	0.6336	0.9181	-0.425
Mof_O 	O 	0.9518	0.5396	0.0953	-0.395
Mof_O 	O 	0.2835	0.3042	0.3274	-0.54
Mof_O 	O 	0.4987	0.8833	0.828	-0.422
Mof_O 	O 	0.3411	0.6741	0.261	-0.399
Mof_O 	O 	0.192	0.4742	0.0689	-0.44
Mof_O 	O 	0.126	0.7601	0.1065	-0.417
Mof_H 	H 	0.1902	0.7938	0.081	0.268
_end
