# CIF file generated by openbabel 3.1.0, see https://openbabel.org
data_I
_chemical_name_common 'ICIZAV_clean'
_cell_length_a 7.5074
_cell_length_b 9.2012
_cell_length_c 11.6139
_cell_angle_alpha 100.368
_cell_angle_beta 104.665
_cell_angle_gamma 94.691
_space_group_name_H-M_alt 'P 1'
_space_group_name_Hall 'P 1'
loop_
    _symmetry_equiv_pos_as_xyz
    x,y,z
loop_
    _atom_site_label
    _atom_site_type_symbol
    _atom_site_fract_x
    _atom_site_fract_y
    _atom_site_fract_z
    _atom_site_occupancy
    Cu1      Cu       0.83950    0.87880    0.48816    1.000
    Cu2      Cu       0.35870    0.92474    0.27853    1.000
    Cu3      Cu       0.16050    0.12120    0.51184    1.000
    Cu4      Cu       0.64130    0.07526    0.72147    1.000
    P1       P        0.64680    0.16390    0.47590    1.000
    P2       P        0.96550    0.91970    0.26090    1.000
    P3       P        0.35320    0.83610    0.52410    1.000
    P4       P        0.03450    0.08030    0.73910    1.000
    H1       H        0.68500    0.44190    0.65200    1.000
    H2       H        0.76120    0.69120    0.65060    1.000
    H3       H        0.83490    0.58710    0.32550    1.000
    H4       H        0.76530    0.33810    0.31940    1.000
    H5       H        0.91770    0.18380    0.16250    1.000
    H6       H        0.79010    0.23260    0.97360    1.000
    H7       H        0.60050    0.81290    0.84030    1.000
    H8       H        0.72070    0.75380    0.02550    1.000
    H9       H        0.31500    0.55810    0.34800    1.000
    H10      H        0.23880    0.30880    0.34940    1.000
    H11      H        0.16510    0.41290    0.67450    1.000
    H12      H        0.23470    0.66190    0.68060    1.000
    H13      H        0.08230    0.81620    0.83750    1.000
    H14      H        0.20990    0.76740    0.02640    1.000
    H15      H        0.39950    0.18710    0.15970    1.000
    H16      H        0.27930    0.24620    0.97450    1.000
    C1       C        0.71620    0.35900    0.48380    1.000
    C2       C        0.71490    0.46860    0.58490    1.000
    C3       C        0.75950    0.61910    0.58290    1.000
    C4       C        0.80400    0.55750    0.39110    1.000
    C5       C        0.76200    0.40760    0.38750    1.000
    C6       C        0.84040    0.96180    0.11710    1.000
    C7       C        0.85600    0.10570    0.09830    1.000
    C8       C        0.77900    0.13460    0.98390    1.000
    C9       C        0.66700    0.88810    0.90540    1.000
    C10      C        0.74000    0.85200    0.01700    1.000
    C11      C        0.28380    0.64100    0.51620    1.000
    C12      C        0.28510    0.53140    0.41510    1.000
    C13      C        0.24050    0.38090    0.41710    1.000
    C14      C        0.19600    0.44250    0.60890    1.000
    C15      C        0.23800    0.59240    0.61250    1.000
    C16      C        0.15960    0.03820    0.88290    1.000
    C17      C        0.14400    0.89430    0.90170    1.000
    C18      C        0.22100    0.86540    0.01610    1.000
    C19      C        0.33300    0.11190    0.09460    1.000
    C20      C        0.26000    0.14800    0.98300    1.000
    N1       N        0.79940    0.66250    0.48840    1.000
    N2       N        0.69010    0.02670    0.88780    1.000
    N3       N        0.20060    0.33750    0.51160    1.000
    N4       N        0.30990    0.97330    0.11220    1.000
    O1       O        0.82550    0.09090    0.49370    1.000
    O2       O        0.51370    0.11210    0.34930    1.000
    O3       O        0.54780    0.15610    0.57600    1.000
    O4       O        0.81920    0.84710    0.31090    1.000
    O5       O        0.07350    0.06890    0.33390    1.000
    O6       O        0.10070    0.81170    0.23120    1.000
    O7       O        0.17450    0.90910    0.50630    1.000
    O8       O        0.48630    0.88790    0.65070    1.000
    O9       O        0.45220    0.84390    0.42400    1.000
    O10      O        0.18080    0.15290    0.68910    1.000
    O11      O        0.92650    0.93110    0.66610    1.000
    O12      O        0.89930    0.18830    0.76880    1.000
