data_functionalizedCrystal
_audit_creation_method	'EQeq! by Chris Wilmer'
_symmetry_space_group_name_H-M	'P1'
_symmetry_Int_Tables_number	1
_symmetry_cell_setting	triclinic
loop_
_symmetry_equiv_pos_as_xyz
  x,y,z
_cell_length_a	12.2069
_cell_length_b	14.4811
_cell_length_c	28.55
_cell_angle_alpha	90
_cell_angle_beta	90
_cell_angle_gamma	90
loop_
_atom_site_label
_atom_site_type_symbol
_atom_site_fract_x
_atom_site_fract_y
_atom_site_fract_z
_atom_site_charge
Mof_Sm	Sm	0.38782	0.4743	0.70775	2.595
Mof_Sm	Sm	0.61574	0.493	0.60508	2.56
Mof_Sm	Sm	0.61218	0.5257	0.20775	2.596
Mof_Sm	Sm	0.38426	0.507	0.10508	2.561
Mof_Sm	Sm	0.11218	0.9743	0.70775	2.594
Mof_Sm	Sm	0.88426	0.993	0.60508	2.542
Mof_Sm	Sm	0.88782	0.0257	0.20775	2.595
Mof_Sm	Sm	0.11574	0.007	0.10508	2.538
Mof_Zn	Zn	0.17469	0.27699	0.76605	1.204
Mof_Zn	Zn	0.66846	0.18926	0.54906	1.203
Mof_Zn	Zn	0.82531	0.72301	0.26605	1.203
Mof_Zn	Zn	0.33154	0.81074	0.04906	1.201
Mof_Zn	Zn	0.32531	0.77699	0.76605	1.204
Mof_Zn	Zn	0.83154	0.68926	0.54906	1.202
Mof_Zn	Zn	0.67469	0.22301	0.26605	1.204
Mof_Zn	Zn	0.16846	0.31074	0.04906	1.2
Mof_H 	H 	0.9417	0.3017	0.6474	0.02
Mof_H 	H 	0.9291	0.4559	0.5294	0.057
Mof_H 	H 	0.192	0.4775	0.6158	0.038
Mof_H 	H 	0.207	0.7395	0.6387	0.009
Mof_H 	H 	0.1766	0.8635	0.5107	0.087
Mof_H 	H 	0.4207	0.6804	0.5327	0.071
Mof_H 	H 	0.7036	0.7294	0.6772	0.001
Mof_H 	H 	0.9386	0.7756	0.7756	0.073
Mof_H 	H 	0.6992	0.5851	0.7979	0.084
Mof_H 	H 	0.2427	0.3845	0.9067	0.04
Mof_H 	H 	0.513	0.463	0.8333	0.07
Mof_H 	H 	0.5094	0.4826	0.9754	0.075
Mof_H 	H 	0.0552	0.6645	0.6682	0.015
Mof_H 	H 	0.0799	0.4945	0.7817	0.051
Mof_H 	H 	0.8172	0.4771	0.6943	0.041
Mof_H 	H 	0.0583	0.6983	0.1474	0.019
Mof_H 	H 	0.0709	0.5441	0.0294	0.053
Mof_H 	H 	0.808	0.5225	0.1158	0.038
Mof_H 	H 	0.793	0.2605	0.1387	0.007
Mof_H 	H 	0.8234	0.1365	0.0107	0.078
Mof_H 	H 	0.5793	0.3196	0.0327	0.064
Mof_H 	H 	0.2964	0.2706	0.1772	0.001
Mof_H 	H 	0.0614	0.2244	0.2756	0.073
Mof_H 	H 	0.3008	0.4149	0.2979	0.084
Mof_H 	H 	0.7573	0.6155	0.4067	0.039
Mof_H 	H 	0.487	0.537	0.3333	0.071
Mof_H 	H 	0.4906	0.5174	0.4754	0.07
Mof_H 	H 	0.9448	0.3355	0.1682	0.015
Mof_H 	H 	0.9201	0.5055	0.2817	0.051
Mof_H 	H 	0.1828	0.5229	0.1943	0.041
Mof_H 	H 	0.5583	0.8017	0.6474	0.02
Mof_H 	H 	0.5709	0.9559	0.5294	0.057
Mof_H 	H 	0.308	0.9775	0.6158	0.038
Mof_H 	H 	0.293	0.2395	0.6387	0.009
Mof_H 	H 	0.3234	0.3635	0.5107	0.087
Mof_H 	H 	0.0793	0.1804	0.5327	0.071
Mof_H 	H 	0.7964	0.2294	0.6772	0.002
Mof_H 	H 	0.5614	0.2756	0.7756	0.074
Mof_H 	H 	0.8008	0.0851	0.7979	0.086
Mof_H 	H 	0.2573	0.8845	0.9067	0.038
Mof_H 	H 	0.987	0.963	0.8333	0.063
Mof_H 	H 	0.9906	0.9826	0.9754	0.068
Mof_H 	H 	0.4448	0.1645	0.6682	0.011
Mof_H 	H 	0.4201	0.9945	0.7817	0.041
Mof_H 	H 	0.6828	0.9771	0.6943	0.029
Mof_H 	H 	0.4417	0.1983	0.1474	0.019
Mof_H 	H 	0.4291	0.0441	0.0294	0.052
Mof_H 	H 	0.692	0.0225	0.1158	0.037
Mof_H 	H 	0.707	0.7605	0.1387	0.007
Mof_H 	H 	0.6766	0.6365	0.0107	0.079
Mof_H 	H 	0.9207	0.8196	0.0327	0.065
Mof_H 	H 	0.2036	0.7706	0.1772	0.002
Mof_H 	H 	0.4386	0.7244	0.2756	0.074
Mof_H 	H 	0.1992	0.9149	0.2979	0.085
Mof_H 	H 	0.7427	0.1155	0.4067	0.038
Mof_H 	H 	0.013	0.037	0.3333	0.065
Mof_H 	H 	0.0094	0.0174	0.4754	0.065
Mof_H 	H 	0.5552	0.8355	0.1682	0.012
Mof_H 	H 	0.5799	0.0055	0.2817	0.043
Mof_H 	H 	0.3172	0.0229	0.1943	0.03
Mof_C 	C 	0.0759	0.387	0.6384	-0.145
Mof_C 	C 	0.973	0.3466	0.6271	0.069
Mof_C 	C 	0.9181	0.3726	0.5865	-0.124
Mof_C 	C 	0.9664	0.4373	0.557	-0.034
Mof_C 	C 	0.0676	0.475	0.5671	0.087
Mof_C 	C 	0.1231	0.4506	0.6085	-0.006
Mof_C 	C 	0.1337	0.3624	0.6834	0.488
Mof_C 	C 	0.8075	0.3337	0.575	0.426
Mof_C 	C 	0.3208	0.695	0.5886	-0.139
Mof_C 	C 	0.2307	0.7469	0.6073	0.074
Mof_C 	C 	0.1797	0.809	0.5768	-0.114
Mof_C 	C 	0.2141	0.8223	0.531	-0.038
Mof_C 	C 	0.3037	0.7741	0.5162	0.109
Mof_C 	C 	0.3578	0.7117	0.5442	-0.012
Mof_C 	C 	0.0843	0.8704	0.5929	0.449
Mof_C 	C 	0.376	0.6182	0.6161	0.553
Mof_C 	C 	0.6875	0.6469	0.7342	-0.146
Mof_C 	C 	0.7346	0.7157	0.707	0.1
Mof_C 	C 	0.8246	0.7646	0.7216	-0.142
Mof_C 	C 	0.8763	0.7424	0.765	-0.015
Mof_C 	C 	0.8319	0.6702	0.7911	0.104
Mof_C 	C 	0.734	0.6276	0.7774	-0.017
Mof_C 	C 	0.5891	0.5948	0.7202	0.465
Mof_C 	C 	0.873	0.8454	0.6959	0.498
Mof_C 	C 	0.3687	0.4319	0.9485	-0.124
Mof_C 	C 	0.3155	0.4077	0.9061	0.062
Mof_C 	C 	0.3693	0.4177	0.8638	-0.119
Mof_C 	C 	0.4753	0.4552	0.8621	-0.021
Mof_C 	C 	0.523	0.4806	0.9048	0.096
Mof_C 	C 	0.4725	0.4673	0.9472	-0.018
Mof_C 	C 	0.3147	0.4194	0.9957	0.504
Mof_C 	C 	0.3175	0.3915	0.8172	0.478
Mof_C 	C 	0.9329	0.5712	0.6742	-0.147
Mof_C 	C 	0.0278	0.6147	0.6864	0.079
Mof_C 	C 	0.0846	0.5842	0.7265	-0.135
Mof_C 	C 	0.0414	0.5159	0.7549	-0.026
Mof_C 	C 	0.9411	0.4801	0.743	0.085
Mof_C 	C 	0.8852	0.5048	0.7023	-0.005
Mof_C 	C 	0.8763	0.5977	0.6301	0.451
Mof_C 	C 	0.1918	0.6288	0.7415	0.459
Mof_C 	C 	0.9241	0.613	0.1384	-0.145
Mof_C 	C 	0.027	0.6534	0.1271	0.069
Mof_C 	C 	0.0819	0.6274	0.0865	-0.126
Mof_C 	C 	0.0336	0.5627	0.057	-0.034
Mof_C 	C 	0.9324	0.525	0.0671	0.087
Mof_C 	C 	0.8769	0.5494	0.1085	-0.005
Mof_C 	C 	0.8663	0.6376	0.1834	0.488
Mof_C 	C 	0.1925	0.6663	0.075	0.427
Mof_C 	C 	0.6792	0.305	0.0886	-0.145
Mof_C 	C 	0.7693	0.2531	0.1073	0.079
Mof_C 	C 	0.8203	0.191	0.0768	-0.121
Mof_C 	C 	0.7859	0.1777	0.031	-0.027
Mof_C 	C 	0.6963	0.2259	0.0162	0.088
Mof_C 	C 	0.6422	0.2883	0.0442	-0.002
Mof_C 	C 	0.9157	0.1296	0.0929	0.451
Mof_C 	C 	0.624	0.3818	0.1161	0.555
Mof_C 	C 	0.3125	0.3531	0.2342	-0.146
Mof_C 	C 	0.2654	0.2843	0.207	0.1
Mof_C 	C 	0.1754	0.2354	0.2216	-0.142
Mof_C 	C 	0.1237	0.2576	0.265	-0.015
Mof_C 	C 	0.1681	0.3298	0.2911	0.105
Mof_C 	C 	0.266	0.3724	0.2774	-0.017
Mof_C 	C 	0.4109	0.4052	0.2202	0.465
Mof_C 	C 	0.127	0.1546	0.1959	0.497
Mof_C 	C 	0.6313	0.5681	0.4485	-0.121
Mof_C 	C 	0.6845	0.5923	0.4061	0.059
Mof_C 	C 	0.6307	0.5823	0.3638	-0.119
Mof_C 	C 	0.5247	0.5448	0.3621	-0.023
Mof_C 	C 	0.477	0.5194	0.4048	0.096
Mof_C 	C 	0.5275	0.5327	0.4472	-0.022
Mof_C 	C 	0.6853	0.5806	0.4957	0.482
Mof_C 	C 	0.6825	0.6085	0.3172	0.478
Mof_C 	C 	0.0671	0.4288	0.1742	-0.147
Mof_C 	C 	0.9722	0.3853	0.1864	0.079
Mof_C 	C 	0.9154	0.4158	0.2265	-0.135
Mof_C 	C 	0.9586	0.4841	0.2549	-0.026
Mof_C 	C 	0.0589	0.5199	0.243	0.085
Mof_C 	C 	0.1148	0.4952	0.2023	-0.005
Mof_C 	C 	0.1237	0.4023	0.1301	0.451
Mof_C 	C 	0.8082	0.3712	0.2415	0.459
Mof_C 	C 	0.4241	0.887	0.6384	-0.144
Mof_C 	C 	0.527	0.8466	0.6271	0.068
Mof_C 	C 	0.5819	0.8726	0.5865	-0.124
Mof_C 	C 	0.5336	0.9373	0.557	-0.033
Mof_C 	C 	0.4324	0.975	0.5671	0.086
Mof_C 	C 	0.3769	0.9506	0.6085	-0.006
Mof_C 	C 	0.3663	0.8624	0.6834	0.487
Mof_C 	C 	0.6925	0.8337	0.575	0.426
Mof_C 	C 	0.1792	0.195	0.5886	-0.138
Mof_C 	C 	0.2693	0.2469	0.6073	0.074
Mof_C 	C 	0.3203	0.309	0.5768	-0.115
Mof_C 	C 	0.2859	0.3223	0.531	-0.038
Mof_C 	C 	0.1963	0.2741	0.5162	0.109
Mof_C 	C 	0.1422	0.2117	0.5442	-0.012
Mof_C 	C 	0.4157	0.3704	0.5929	0.449
Mof_C 	C 	0.124	0.1182	0.6161	0.552
Mof_C 	C 	0.8125	0.1469	0.7342	-0.144
Mof_C 	C 	0.7654	0.2157	0.707	0.099
Mof_C 	C 	0.6754	0.2646	0.7216	-0.141
Mof_C 	C 	0.6237	0.2424	0.765	-0.015
Mof_C 	C 	0.6681	0.1702	0.7911	0.105
Mof_C 	C 	0.766	0.1276	0.7774	-0.017
Mof_C 	C 	0.9109	0.0948	0.7202	0.463
Mof_C 	C 	0.627	0.3454	0.6959	0.498
Mof_C 	C 	0.1313	0.9319	0.9485	-0.129
Mof_C 	C 	0.1845	0.9077	0.9061	0.067
Mof_C 	C 	0.1307	0.9177	0.8638	-0.125
Mof_C 	C 	0.0247	0.9552	0.8621	-0.009
Mof_C 	C 	0.977	0.9806	0.9048	0.081
Mof_C 	C 	0.0275	0.9673	0.9472	-0.005
Mof_C 	C 	0.1853	0.9194	0.9957	0.5
Mof_C 	C 	0.1825	0.8915	0.8172	0.48
Mof_C 	C 	0.5671	0.0712	0.6742	-0.159
Mof_C 	C 	0.4722	0.1147	0.6864	0.091
Mof_C 	C 	0.4154	0.0842	0.7265	-0.147
Mof_C 	C 	0.4586	0.0159	0.7549	-0.001
Mof_C 	C 	0.5589	0.9801	0.743	0.063
Mof_C 	C 	0.6148	0.0048	0.7023	0.021
Mof_C 	C 	0.6237	0.0977	0.6301	0.455
Mof_C 	C 	0.3082	0.1288	0.7415	0.463
Mof_C 	C 	0.5759	0.113	0.1384	-0.145
Mof_C 	C 	0.473	0.1534	0.1271	0.069
Mof_C 	C 	0.4181	0.1274	0.0865	-0.127
Mof_C 	C 	0.4664	0.0627	0.057	-0.032
Mof_C 	C 	0.5676	0.025	0.0671	0.083
Mof_C 	C 	0.6231	0.0494	0.1085	-0.004
Mof_C 	C 	0.6337	0.1376	0.1834	0.488
Mof_C 	C 	0.3075	0.1663	0.075	0.426
Mof_C 	C 	0.8208	0.805	0.0886	-0.143
Mof_C 	C 	0.7307	0.7531	0.1073	0.078
Mof_C 	C 	0.6797	0.691	0.0768	-0.12
Mof_C 	C 	0.7141	0.6777	0.031	-0.029
Mof_C 	C 	0.8037	0.7259	0.0162	0.093
Mof_C 	C 	0.8578	0.7883	0.0442	-0.004
Mof_C 	C 	0.5843	0.6296	0.0929	0.451
Mof_C 	C 	0.876	0.8818	0.1161	0.554
Mof_C 	C 	0.1875	0.8531	0.2342	-0.144
Mof_C 	C 	0.2346	0.7843	0.207	0.099
Mof_C 	C 	0.3246	0.7354	0.2216	-0.141
Mof_C 	C 	0.3763	0.7576	0.265	-0.016
Mof_C 	C 	0.3319	0.8298	0.2911	0.106
Mof_C 	C 	0.234	0.8724	0.2774	-0.018
Mof_C 	C 	0.0891	0.9052	0.2202	0.463
Mof_C 	C 	0.373	0.6546	0.1959	0.498
Mof_C 	C 	0.8687	0.0681	0.4485	-0.126
Mof_C 	C 	0.8155	0.0923	0.4061	0.064
Mof_C 	C 	0.8693	0.0823	0.3638	-0.124
Mof_C 	C 	0.9753	0.0448	0.3621	-0.011
Mof_C 	C 	0.023	0.0194	0.4048	0.085
Mof_C 	C 	0.9725	0.0327	0.4472	-0.009
Mof_C 	C 	0.8147	0.0806	0.4957	0.483
Mof_C 	C 	0.8175	0.1085	0.3172	0.48
Mof_C 	C 	0.4329	0.9288	0.1742	-0.158
Mof_C 	C 	0.5278	0.8853	0.1864	0.089
Mof_C 	C 	0.5846	0.9158	0.2265	-0.145
Mof_C 	C 	0.5414	0.9841	0.2549	-0.005
Mof_C 	C 	0.4411	0.0199	0.243	0.066
Mof_C 	C 	0.3852	0.9952	0.2023	0.019
Mof_C 	C 	0.3763	0.9023	0.1301	0.454
Mof_C 	C 	0.6918	0.8712	0.2415	0.462
Mof_Br	Br	0.13268	0.55747	0.52471	-0.243
Mof_Br	Br	0.354	0.79012	0.45341	-0.175
Mof_Br	Br	0.90657	0.6333	0.84595	-0.18
Mof_Br	Br	0.6695	0.52642	0.90276	-0.175
Mof_Br	Br	0.87618	0.39119	0.78388	-0.243
Mof_Br	Br	0.86732	0.44253	0.02471	-0.252
Mof_Br	Br	0.646	0.20988	0.95341	-0.154
Mof_Br	Br	0.09343	0.3667	0.34595	-0.181
Mof_Br	Br	0.3305	0.47358	0.40276	-0.18
Mof_Br	Br	0.12382	0.60881	0.28388	-0.244
Mof_Br	Br	0.36732	0.05747	0.52471	-0.241
Mof_Br	Br	0.146	0.29012	0.45341	-0.175
Mof_Br	Br	0.59343	0.1333	0.84595	-0.178
Mof_Br	Br	0.8305	0.02642	0.90276	-0.165
Mof_Br	Br	0.62382	0.89119	0.78388	-0.242
Mof_Br	Br	0.63268	0.94253	0.02471	-0.247
Mof_Br	Br	0.854	0.70988	0.95341	-0.159
Mof_Br	Br	0.40657	0.8667	0.34595	-0.18
Mof_Br	Br	0.1695	0.97358	0.40276	-0.174
Mof_Br	Br	0.37618	0.10881	0.28388	-0.242
Mof_O 	O 	0.2216	0.4016	0.6926	-0.642
Mof_O 	O 	0.0862	0.3058	0.7104	-0.507
Mof_O 	O 	0.8027	0.2456	0.5736	-0.494
Mof_O 	O 	0.7317	0.3876	0.5634	-0.572
Mof_O 	O 	0.334	0.5951	0.6551	-0.592
Mof_O 	O 	0.4573	0.5859	0.5984	-0.616
Mof_O 	O 	0.08	0.8981	0.6353	-0.652
Mof_O 	O 	0.0128	0.8916	0.5633	-0.527
Mof_O 	O 	0.5196	0.5729	0.7511	-0.517
Mof_O 	O 	0.5774	0.569	0.6782	-0.66
Mof_O 	O 	0.8297	0.8722	0.6581	-0.573
Mof_O 	O 	0.9576	0.8832	0.7153	-0.595
Mof_O 	O 	0.367	0.4403	0.0306	-0.613
Mof_O 	O 	0.2186	0.3836	0.9953	-0.499
Mof_O 	O 	0.2212	0.3535	0.8194	-0.494
Mof_O 	O 	0.3686	0.405	0.7816	-0.603
Mof_O 	O 	0.7838	0.562	0.6207	-0.621
Mof_O 	O 	0.923	0.6572	0.603	-0.495
Mof_O 	O 	0.1941	0.7141	0.7419	-0.509
Mof_O 	O 	0.272	0.5787	0.7516	-0.579
Mof_O 	O 	0.7784	0.5984	0.1926	-0.642
Mof_O 	O 	0.9138	0.6942	0.2104	-0.508
Mof_O 	O 	0.1973	0.7544	0.0736	-0.496
Mof_O 	O 	0.2683	0.6124	0.0634	-0.574
Mof_O 	O 	0.666	0.4049	0.1551	-0.593
Mof_O 	O 	0.5427	0.4141	0.0984	-0.618
Mof_O 	O 	0.92	0.1019	0.1353	-0.652
Mof_O 	O 	0.9872	0.1084	0.0633	-0.531
Mof_O 	O 	0.4804	0.4271	0.2511	-0.517
Mof_O 	O 	0.4226	0.431	0.1782	-0.66
Mof_O 	O 	0.1703	0.1278	0.1581	-0.573
Mof_O 	O 	0.0424	0.1168	0.2153	-0.595
Mof_O 	O 	0.633	0.5597	0.5306	-0.595
Mof_O 	O 	0.7814	0.6164	0.4953	-0.504
Mof_O 	O 	0.7788	0.6465	0.3194	-0.495
Mof_O 	O 	0.6314	0.595	0.2816	-0.603
Mof_O 	O 	0.2162	0.438	0.1207	-0.622
Mof_O 	O 	0.077	0.3428	0.103	-0.496
Mof_O 	O 	0.8059	0.2859	0.2419	-0.509
Mof_O 	O 	0.728	0.4213	0.2516	-0.58
Mof_O 	O 	0.2784	0.9016	0.6926	-0.642
Mof_O 	O 	0.4138	0.8058	0.7104	-0.506
Mof_O 	O 	0.6973	0.7456	0.5736	-0.495
Mof_O 	O 	0.7683	0.8876	0.5634	-0.571
Mof_O 	O 	0.166	0.0951	0.6551	-0.591
Mof_O 	O 	0.0427	0.0859	0.5984	-0.615
Mof_O 	O 	0.42	0.3981	0.6353	-0.653
Mof_O 	O 	0.4872	0.3916	0.5633	-0.531
Mof_O 	O 	0.9804	0.0729	0.7511	-0.513
Mof_O 	O 	0.9226	0.069	0.6782	-0.654
Mof_O 	O 	0.6703	0.3722	0.6581	-0.574
Mof_O 	O 	0.5424	0.3832	0.7153	-0.593
Mof_O 	O 	0.133	0.9403	0.0306	-0.603
Mof_O 	O 	0.2814	0.8836	0.9953	-0.499
Mof_O 	O 	0.2788	0.8535	0.8194	-0.495
Mof_O 	O 	0.1314	0.905	0.7816	-0.603
Mof_O 	O 	0.7162	0.062	0.6207	-0.618
Mof_O 	O 	0.577	0.1572	0.603	-0.494
Mof_O 	O 	0.3059	0.2141	0.7419	-0.51
Mof_O 	O 	0.228	0.0787	0.7516	-0.58
Mof_O 	O 	0.7216	0.0984	0.1926	-0.642
Mof_O 	O 	0.5862	0.1942	0.2104	-0.506
Mof_O 	O 	0.3027	0.2544	0.0736	-0.497
Mof_O 	O 	0.2317	0.1124	0.0634	-0.574
Mof_O 	O 	0.834	0.9049	0.1551	-0.592
Mof_O 	O 	0.9573	0.9141	0.0984	-0.615
Mof_O 	O 	0.58	0.6019	0.1353	-0.654
Mof_O 	O 	0.5128	0.6084	0.0633	-0.534
Mof_O 	O 	0.0196	0.9271	0.2511	-0.514
Mof_O 	O 	0.0774	0.931	0.1782	-0.654
Mof_O 	O 	0.3297	0.6278	0.1581	-0.574
Mof_O 	O 	0.4576	0.6168	0.2153	-0.593
Mof_O 	O 	0.867	0.0597	0.5306	-0.591
Mof_O 	O 	0.7186	0.1164	0.4953	-0.503
Mof_O 	O 	0.7212	0.1465	0.3194	-0.495
Mof_O 	O 	0.8686	0.095	0.2816	-0.603
Mof_O 	O 	0.2838	0.938	0.1207	-0.617
Mof_O 	O 	0.423	0.8428	0.103	-0.494
Mof_O 	O 	0.6941	0.7859	0.2419	-0.51
Mof_O 	O 	0.772	0.9213	0.2516	-0.58
_end
