data_functionalizedCrystal
_audit_creation_method	'EQeq! by Chris Wilmer'
_symmetry_space_group_name_H-M	'P1'
_symmetry_Int_Tables_number	1
_symmetry_cell_setting	triclinic
loop_
_symmetry_equiv_pos_as_xyz
  x,y,z
_cell_length_a	23.31
_cell_length_b	18.952
_cell_length_c	26.57
_cell_angle_alpha	90
_cell_angle_beta	94.757
_cell_angle_gamma	90
loop_
_atom_site_label
_atom_site_type_symbol
_atom_site_fract_x
_atom_site_fract_y
_atom_site_fract_z
_atom_site_charge
Mof_Zn	Zn	0.95932	0.27808	0.19323	1.236
Mof_Zn	Zn	0.03422	0.26088	0.31804	1.238
Mof_Zn	Zn	0.86825	0.77568	0.31884	1.25
Mof_Zn	Zn	0.12953	0.76305	0.17881	1.245
Mof_Zn	Zn	0.72263	0.40989	0.5016	1.247
Mof_O 	O 	0.9222	0.2241	0.139	-0.415
Mof_O 	O 	0.9227	0.3088	0.0798	-0.257
Mof_O 	O 	0.8985	0.3935	0.2079	-0.303
Mof_O 	O 	0.9887	0.3752	0.1935	-0.435
Mof_O 	O 	0.9146	0.2497	0.2504	-0.455
Mof_O 	O 	0.9589	0.3087	0.3157	-0.457
Mof_O 	O 	0.0358	0.231	0.2006	-0.455
Mof_O 	O 	0.0833	0.2881	0.2654	-0.455
Mof_O 	O 	0.9348	0.7243	0.6121	-0.417
Mof_O 	O 	0.0113	0.1623	0.3131	-0.431
Mof_O 	O 	0.9057	0.619	0.6353	-0.268
Mof_O 	O 	0.1045	0.1419	0.3069	-0.276
Mof_O 	O 	0.0876	0.8414	0.2058	-0.421
Mof_O 	O 	0.1617	0.9035	0.2419	-0.243
Mof_O 	O 	0.8714	0.9515	0.3021	-0.249
Mof_O 	O 	0.9226	0.8525	0.3141	-0.421
Mof_O 	O 	0.9147	0.7944	0.4307	-0.254
Mof_O 	O 	0.84	0.7504	0.3832	-0.419
Mof_O 	O 	0.9179	0.6984	0.3021	-0.418
Mof_O 	O 	0.8455	0.6223	0.2855	-0.25
Mof_O 	O 	0.8729	0.2312	0.8964	-0.401
Mof_O 	O 	0.8291	0.1286	0.885	-0.273
Mof_O 	O 	0.072	0.6882	0.1832	-0.4
Mof_O 	O 	0.1252	0.588	0.1922	-0.237
Mof_O 	O 	0.6529	0.2883	0.2867	-0.278
Mof_O 	O 	0.7046	0.2889	0.2195	-0.406
Mof_O 	O 	0.3411	0.2257	0.2187	-0.282
Mof_O 	O 	0.2945	0.2438	0.2873	-0.405
Mof_O 	O 	0.7729	0.4898	0.5176	-0.405
Mof_O 	O 	0.7578	0.5212	0.436	-0.268
Mof_O 	O 	0.8541	0.9474	0.0174	-0.409
Mof_O 	O 	0.8925	0.9805	0.0936	-0.235
Mof_O 	O 	0.2255	0.1348	0.0677	-0.419
Mof_O 	O 	0.1426	0.1905	0.046	-0.257
Mof_O 	O 	0.8437	0.3524	0.4641	-0.258
Mof_O 	O 	0.7485	0.3467	0.451	-0.431
Mof_C 	C 	0.9144	0.2479	0.0922	0.319
Mof_C 	C 	0.8935	0.191	0.0539	-0.066
Mof_C 	C 	0.915	0.2826	0.2912	0.385
Mof_C 	C 	0.8828	0.2109	0.0018	0.026
Mof_H 	H 	0.8886	0.257	0.9913	0.066
Mof_C 	C 	0.8634	0.1581	0.9675	-0.082
Mof_C 	C 	0.8567	0.0901	0.9843	0.041
Mof_H 	H 	0.8423	0.0563	0.9612	0.044
Mof_C 	C 	0.8703	0.0693	0.0341	-0.093
Mof_C 	C 	0.8889	0.1231	0.0692	0.033
Mof_H 	H 	0.898	0.1116	0.103	0.066
Mof_C 	C 	0.9487	0.4115	0.2063	0.333
Mof_C 	C 	0.8581	0.2913	0.3126	-0.103
Mof_C 	C 	0.8554	0.3083	0.3639	0.05
Mof_H 	H 	0.8889	0.3105	0.3854	0.052
Mof_C 	C 	0.0811	0.2562	0.2237	0.383
Mof_C 	C 	0.1369	0.2415	0.2008	-0.108
Mof_C 	C 	0.137	0.223	0.1503	0.055
Mof_H 	H 	0.1029	0.225	0.1296	0.048
Mof_C 	C 	0.1876	0.2464	0.2288	0.065
Mof_H 	H 	0.1877	0.2626	0.2619	0.056
Mof_C 	C 	0.9101	0.6656	0.6033	0.336
Mof_C 	C 	0.0529	0.1232	0.3051	0.329
Mof_C 	C 	0.0388	0.0467	0.292	-0.072
Mof_C 	C 	0.9841	0.0199	0.2989	0.031
Mof_H 	H 	0.9563	0.0489	0.3113	0.063
Mof_C 	C 	0.9714	0.951	0.2872	-0.075
Mof_C 	C 	0.0122	0.9086	0.265	0.041
Mof_H 	H 	0.0026	0.8628	0.2548	0.058
Mof_C 	C 	0.0664	0.935	0.2583	-0.083
Mof_C 	C 	0.0795	0.0019	0.2738	0.034
Mof_H 	H 	0.1169	0.0182	0.2722	0.062
Mof_C 	C 	0.9162	0.9175	0.3021	0.354
Mof_C 	C 	0.2968	0.2319	0.2386	0.336
Mof_C 	C 	0.1087	0.8906	0.2336	0.344
Mof_C 	C 	0.8734	0.7532	0.4229	0.337
Mof_C 	C 	0.2369	0.205	0.1607	0.042
Mof_H 	H 	0.2707	0.1907	0.1474	0.063
Mof_C 	C 	0.8638	0.7017	0.4641	-0.076
Mof_C 	C 	0.8912	0.7081	0.5125	0.032
Mof_H 	H 	0.9167	0.7452	0.5193	0.065
Mof_C 	C 	0.8816	0.6612	0.5509	-0.074
Mof_C 	C 	0.8451	0.6047	0.5396	0.021
Mof_H 	H 	0.839	0.572	0.5647	0.071
Mof_C 	C 	0.8167	0.595	0.491	-0.066
Mof_C 	C 	0.8267	0.6439	0.4543	0.023
Mof_H 	H 	0.8084	0.6385	0.422	0.065
Mof_C 	C 	0.7793	0.5324	0.4797	0.305
Mof_C 	C 	0.6987	0.2925	0.2681	0.322
Mof_C 	C 	0.7544	0.2995	0.3009	-0.078
Mof_C 	C 	0.8077	0.2894	0.2826	0.055
Mof_H 	H 	0.8092	0.2808	0.2483	0.058
Mof_C 	C 	0.8963	0.6433	0.2822	0.329
Mof_C 	C 	0.9378	0.6024	0.2523	-0.062
Mof_C 	C 	0.9231	0.5326	0.2399	0.011
Mof_H 	H 	0.8874	0.5145	0.2466	0.071
Mof_C 	C 	0.9632	0.4906	0.2174	-0.051
Mof_C 	C 	0.0153	0.5187	0.2053	0.015
Mof_H 	H 	0.0426	0.4901	0.1918	0.07
Mof_C 	C 	0.0265	0.5903	0.2137	-0.062
Mof_C 	C 	0.988	0.6305	0.2378	0.029
Mof_H 	H 	0.9963	0.6778	0.2445	0.063
Mof_C 	C 	0.0801	0.622	0.1951	0.324
Mof_C 	C 	0.872	0.9938	0.0516	0.35
Mof_C 	C 	0.7993	0.3427	0.4371	0.358
Mof_C 	C 	0.8018	0.3218	0.3826	-0.09
Mof_C 	C 	0.7524	0.3176	0.3511	0.043
Mof_H 	H 	0.7171	0.3269	0.3636	0.062
Mof_C 	C 	0.1844	0.1744	0.0767	0.334
Mof_C 	C 	0.8533	0.1731	0.9128	0.33
Mof_C 	C 	0.2393	0.2285	0.2106	-0.088
Mof_C 	C 	0.1861	0.2022	0.1306	-0.084
Mof_Zn	Zn	0.54068	0.77808	0.30677	1.237
Mof_Zn	Zn	0.46578	0.76088	0.18196	1.239
Mof_Zn	Zn	0.63175	0.27568	0.18116	1.25
Mof_Zn	Zn	0.37047	0.26305	0.32119	1.245
Mof_Zn	Zn	0.77737	0.90989	0.9984	1.246
Mof_O 	O 	0.5778	0.7241	0.361	-0.415
Mof_O 	O 	0.5773	0.8088	0.4202	-0.257
Mof_O 	O 	0.6015	0.8935	0.2921	-0.303
Mof_O 	O 	0.5113	0.8752	0.3065	-0.435
Mof_O 	O 	0.5854	0.7497	0.2496	-0.455
Mof_O 	O 	0.5411	0.8087	0.1843	-0.456
Mof_O 	O 	0.4642	0.731	0.2994	-0.455
Mof_O 	O 	0.4167	0.7881	0.2346	-0.455
Mof_O 	O 	0.5652	0.2243	0.8879	-0.417
Mof_O 	O 	0.4887	0.6623	0.1869	-0.431
Mof_O 	O 	0.5943	0.119	0.8647	-0.268
Mof_O 	O 	0.3955	0.6419	0.1931	-0.277
Mof_O 	O 	0.4124	0.3414	0.2942	-0.421
Mof_O 	O 	0.3383	0.4035	0.2581	-0.243
Mof_O 	O 	0.6286	0.4515	0.1979	-0.249
Mof_O 	O 	0.5774	0.3525	0.1859	-0.421
Mof_O 	O 	0.5853	0.2944	0.0693	-0.254
Mof_O 	O 	0.66	0.2504	0.1168	-0.419
Mof_O 	O 	0.5821	0.1984	0.1979	-0.418
Mof_O 	O 	0.6545	0.1223	0.2145	-0.25
Mof_O 	O 	0.6271	0.7312	0.6036	-0.401
Mof_O 	O 	0.6709	0.6286	0.615	-0.273
Mof_O 	O 	0.428	0.1882	0.3168	-0.4
Mof_O 	O 	0.3748	0.088	0.3078	-0.237
Mof_O 	O 	0.8471	0.7883	0.2133	-0.278
Mof_O 	O 	0.7954	0.7889	0.2805	-0.406
Mof_O 	O 	0.1589	0.7257	0.2813	-0.282
Mof_O 	O 	0.2055	0.7438	0.2127	-0.405
Mof_O 	O 	0.7271	0.9898	0.9824	-0.406
Mof_O 	O 	0.7422	0.0212	0.064	-0.269
Mof_O 	O 	0.6459	0.4474	0.4826	-0.41
Mof_O 	O 	0.6075	0.4805	0.4064	-0.235
Mof_O 	O 	0.2745	0.6348	0.4323	-0.419
Mof_O 	O 	0.3574	0.6905	0.454	-0.257
Mof_O 	O 	0.6563	0.8524	0.0359	-0.258
Mof_O 	O 	0.7515	0.8467	0.049	-0.431
Mof_C 	C 	0.5856	0.7479	0.4078	0.319
Mof_C 	C 	0.6065	0.691	0.4461	-0.065
Mof_C 	C 	0.585	0.7826	0.2088	0.385
Mof_C 	C 	0.6172	0.7109	0.4982	0.025
Mof_H 	H 	0.6114	0.757	0.5087	0.066
Mof_C 	C 	0.6366	0.6581	0.5325	-0.081
Mof_C 	C 	0.6433	0.5901	0.5157	0.04
Mof_H 	H 	0.6577	0.5563	0.5388	0.044
Mof_C 	C 	0.6297	0.5693	0.4659	-0.091
Mof_C 	C 	0.6111	0.6231	0.4308	0.032
Mof_H 	H 	0.602	0.6116	0.397	0.066
Mof_C 	C 	0.5513	0.9115	0.2937	0.333
Mof_C 	C 	0.6419	0.7913	0.1874	-0.103
Mof_C 	C 	0.6446	0.8083	0.1361	0.05
Mof_H 	H 	0.6111	0.8105	0.1146	0.052
Mof_C 	C 	0.4189	0.7562	0.2763	0.383
Mof_C 	C 	0.3631	0.7415	0.2992	-0.108
Mof_C 	C 	0.363	0.723	0.3497	0.055
Mof_H 	H 	0.3971	0.725	0.3704	0.048
Mof_C 	C 	0.3124	0.7464	0.2712	0.065
Mof_H 	H 	0.3123	0.7626	0.2381	0.057
Mof_C 	C 	0.5899	0.1656	0.8967	0.336
Mof_C 	C 	0.4471	0.6232	0.1949	0.329
Mof_C 	C 	0.4612	0.5467	0.208	-0.073
Mof_C 	C 	0.5159	0.5199	0.2011	0.034
Mof_H 	H 	0.5437	0.5489	0.1887	0.062
Mof_C 	C 	0.5286	0.451	0.2128	-0.078
Mof_C 	C 	0.4878	0.4086	0.235	0.043
Mof_H 	H 	0.4974	0.3628	0.2452	0.057
Mof_C 	C 	0.4336	0.435	0.2417	-0.084
Mof_C 	C 	0.4205	0.5019	0.2262	0.036
Mof_H 	H 	0.3831	0.5182	0.2278	0.062
Mof_C 	C 	0.5838	0.4175	0.1979	0.354
Mof_C 	C 	0.2032	0.7319	0.2614	0.336
Mof_C 	C 	0.3913	0.3906	0.2664	0.345
Mof_C 	C 	0.6266	0.2532	0.0771	0.338
Mof_C 	C 	0.2631	0.705	0.3393	0.042
Mof_H 	H 	0.2293	0.6907	0.3526	0.063
Mof_C 	C 	0.6362	0.2017	0.0359	-0.078
Mof_C 	C 	0.6088	0.2081	0.9875	0.034
Mof_H 	H 	0.5833	0.2452	0.9807	0.065
Mof_C 	C 	0.6184	0.1612	0.9491	-0.075
Mof_C 	C 	0.6549	0.1047	0.9604	0.022
Mof_H 	H 	0.661	0.072	0.9353	0.071
Mof_C 	C 	0.6833	0.095	0.009	-0.067
Mof_C 	C 	0.6733	0.1439	0.0457	0.024
Mof_H 	H 	0.6916	0.1385	0.078	0.065
Mof_C 	C 	0.7207	0.0324	0.0203	0.305
Mof_C 	C 	0.8013	0.7925	0.2319	0.322
Mof_C 	C 	0.7456	0.7995	0.1991	-0.078
Mof_C 	C 	0.6923	0.7894	0.2174	0.055
Mof_H 	H 	0.6908	0.7808	0.2517	0.058
Mof_C 	C 	0.6037	0.1433	0.2178	0.329
Mof_C 	C 	0.5622	0.1024	0.2477	-0.061
Mof_C 	C 	0.5769	0.0326	0.2601	0.01
Mof_H 	H 	0.6126	0.0145	0.2534	0.071
Mof_C 	C 	0.5368	0.9906	0.2826	-0.05
Mof_C 	C 	0.4847	0.0187	0.2947	0.013
Mof_H 	H 	0.4574	0.9901	0.3082	0.071
Mof_C 	C 	0.4735	0.0903	0.2863	-0.06
Mof_C 	C 	0.512	0.1305	0.2622	0.027
Mof_H 	H 	0.5037	0.1778	0.2555	0.064
Mof_C 	C 	0.4199	0.122	0.3049	0.324
Mof_C 	C 	0.628	0.4938	0.4484	0.349
Mof_C 	C 	0.7007	0.8427	0.0629	0.358
Mof_C 	C 	0.6982	0.8218	0.1174	-0.089
Mof_C 	C 	0.7476	0.8176	0.1489	0.043
Mof_H 	H 	0.7829	0.8269	0.1364	0.062
Mof_C 	C 	0.3156	0.6744	0.4233	0.334
Mof_C 	C 	0.6467	0.6731	0.5872	0.33
Mof_C 	C 	0.2607	0.7285	0.2894	-0.088
Mof_C 	C 	0.3139	0.7022	0.3694	-0.084
Mof_Zn	Zn	0.04068	0.72192	0.80677	1.237
Mof_Zn	Zn	0.96578	0.73912	0.68196	1.239
Mof_Zn	Zn	0.13175	0.22432	0.68116	1.25
Mof_Zn	Zn	0.87047	0.23695	0.82119	1.245
Mof_Zn	Zn	0.27737	0.59011	0.4984	1.247
Mof_O 	O 	0.0778	0.7759	0.861	-0.415
Mof_O 	O 	0.0773	0.6912	0.9202	-0.257
Mof_O 	O 	0.1015	0.6065	0.7921	-0.303
Mof_O 	O 	0.0113	0.6248	0.8065	-0.435
Mof_O 	O 	0.0854	0.7503	0.7496	-0.455
Mof_O 	O 	0.0411	0.6913	0.6843	-0.457
Mof_O 	O 	0.9642	0.769	0.7994	-0.455
Mof_O 	O 	0.9167	0.7119	0.7346	-0.455
Mof_O 	O 	0.0652	0.2757	0.3879	-0.417
Mof_O 	O 	0.9887	0.8377	0.6869	-0.431
Mof_O 	O 	0.0943	0.381	0.3647	-0.268
Mof_O 	O 	0.8955	0.8581	0.6931	-0.276
Mof_O 	O 	0.9124	0.1586	0.7942	-0.421
Mof_O 	O 	0.8383	0.0965	0.7581	-0.243
Mof_O 	O 	0.1286	0.0485	0.6979	-0.249
Mof_O 	O 	0.0774	0.1475	0.6859	-0.421
Mof_O 	O 	0.0853	0.2056	0.5693	-0.254
Mof_O 	O 	0.16	0.2496	0.6168	-0.419
Mof_O 	O 	0.0821	0.3016	0.6979	-0.418
Mof_O 	O 	0.1545	0.3777	0.7145	-0.25
Mof_O 	O 	0.1271	0.7688	0.1036	-0.401
Mof_O 	O 	0.1709	0.8714	0.115	-0.273
Mof_O 	O 	0.928	0.3118	0.8168	-0.4
Mof_O 	O 	0.8748	0.412	0.8078	-0.237
Mof_O 	O 	0.3471	0.7117	0.7133	-0.278
Mof_O 	O 	0.2954	0.7111	0.7805	-0.406
Mof_O 	O 	0.6589	0.7743	0.7813	-0.282
Mof_O 	O 	0.7055	0.7562	0.7127	-0.405
Mof_O 	O 	0.2271	0.5102	0.4824	-0.405
Mof_O 	O 	0.2422	0.4788	0.564	-0.268
Mof_O 	O 	0.1459	0.0526	0.9826	-0.409
Mof_O 	O 	0.1075	0.0195	0.9064	-0.235
Mof_O 	O 	0.7745	0.8652	0.9323	-0.419
Mof_O 	O 	0.8574	0.8095	0.954	-0.257
Mof_O 	O 	0.1563	0.6476	0.5359	-0.258
Mof_O 	O 	0.2515	0.6533	0.549	-0.431
Mof_C 	C 	0.0856	0.7521	0.9078	0.319
Mof_C 	C 	0.1065	0.809	0.9461	-0.066
Mof_C 	C 	0.085	0.7174	0.7088	0.385
Mof_C 	C 	0.1172	0.7891	0.9982	0.026
Mof_H 	H 	0.1114	0.743	0.0087	0.066
Mof_C 	C 	0.1366	0.8419	0.0325	-0.082
Mof_C 	C 	0.1433	0.9099	0.0157	0.041
Mof_H 	H 	0.1577	0.9437	0.0388	0.044
Mof_C 	C 	0.1297	0.9307	0.9659	-0.093
Mof_C 	C 	0.1111	0.8769	0.9308	0.033
Mof_H 	H 	0.102	0.8884	0.897	0.066
Mof_C 	C 	0.0513	0.5885	0.7937	0.333
Mof_C 	C 	0.1419	0.7087	0.6874	-0.103
Mof_C 	C 	0.1446	0.6917	0.6361	0.05
Mof_H 	H 	0.1111	0.6895	0.6146	0.052
Mof_C 	C 	0.9189	0.7438	0.7763	0.383
Mof_C 	C 	0.8631	0.7585	0.7992	-0.108
Mof_C 	C 	0.863	0.777	0.8497	0.055
Mof_H 	H 	0.8971	0.775	0.8704	0.048
Mof_C 	C 	0.8124	0.7536	0.7712	0.065
Mof_H 	H 	0.8123	0.7374	0.7381	0.056
Mof_C 	C 	0.0899	0.3344	0.3967	0.336
Mof_C 	C 	0.9471	0.8768	0.6949	0.329
Mof_C 	C 	0.9612	0.9533	0.708	-0.072
Mof_C 	C 	0.0159	0.9801	0.7011	0.031
Mof_H 	H 	0.0437	0.9511	0.6887	0.063
Mof_C 	C 	0.0286	0.049	0.7128	-0.075
Mof_C 	C 	0.9878	0.0914	0.735	0.041
Mof_H 	H 	0.9974	0.1372	0.7452	0.058
Mof_C 	C 	0.9336	0.065	0.7417	-0.083
Mof_C 	C 	0.9205	0.9981	0.7262	0.034
Mof_H 	H 	0.8831	0.9818	0.7278	0.062
Mof_C 	C 	0.0838	0.0825	0.6979	0.354
Mof_C 	C 	0.7032	0.7681	0.7614	0.336
Mof_C 	C 	0.8913	0.1094	0.7664	0.344
Mof_C 	C 	0.1266	0.2468	0.5771	0.337
Mof_C 	C 	0.7631	0.795	0.8393	0.042
Mof_H 	H 	0.7293	0.8093	0.8526	0.063
Mof_C 	C 	0.1362	0.2983	0.5359	-0.076
Mof_C 	C 	0.1088	0.2919	0.4875	0.032
Mof_H 	H 	0.0833	0.2548	0.4807	0.065
Mof_C 	C 	0.1184	0.3388	0.4491	-0.074
Mof_C 	C 	0.1549	0.3953	0.4604	0.021
Mof_H 	H 	0.161	0.428	0.4353	0.071
Mof_C 	C 	0.1833	0.405	0.509	-0.066
Mof_C 	C 	0.1733	0.3561	0.5457	0.023
Mof_H 	H 	0.1916	0.3615	0.578	0.065
Mof_C 	C 	0.2207	0.4676	0.5203	0.305
Mof_C 	C 	0.3013	0.7075	0.7319	0.322
Mof_C 	C 	0.2456	0.7005	0.6991	-0.078
Mof_C 	C 	0.1923	0.7106	0.7174	0.055
Mof_H 	H 	0.1908	0.7192	0.7517	0.058
Mof_C 	C 	0.1037	0.3567	0.7178	0.329
Mof_C 	C 	0.0622	0.3976	0.7477	-0.062
Mof_C 	C 	0.0769	0.4674	0.7601	0.011
Mof_H 	H 	0.1126	0.4855	0.7534	0.071
Mof_C 	C 	0.0368	0.5094	0.7826	-0.051
Mof_C 	C 	0.9847	0.4813	0.7947	0.015
Mof_H 	H 	0.9574	0.5099	0.8082	0.07
Mof_C 	C 	0.9735	0.4097	0.7863	-0.062
Mof_C 	C 	0.012	0.3695	0.7622	0.029
Mof_H 	H 	0.0037	0.3222	0.7555	0.063
Mof_C 	C 	0.9199	0.378	0.8049	0.324
Mof_C 	C 	0.128	0.0062	0.9484	0.35
Mof_C 	C 	0.2007	0.6573	0.5629	0.358
Mof_C 	C 	0.1982	0.6782	0.6174	-0.09
Mof_C 	C 	0.2476	0.6824	0.6489	0.043
Mof_H 	H 	0.2829	0.6731	0.6364	0.062
Mof_C 	C 	0.8156	0.8256	0.9233	0.334
Mof_C 	C 	0.1467	0.8269	0.0872	0.33
Mof_C 	C 	0.7607	0.7715	0.7894	-0.088
Mof_C 	C 	0.8139	0.7978	0.8694	-0.084
Mof_Zn	Zn	0.45932	0.22192	0.69323	1.237
Mof_Zn	Zn	0.53422	0.23912	0.81804	1.239
Mof_Zn	Zn	0.36825	0.72432	0.81884	1.25
Mof_Zn	Zn	0.62953	0.73695	0.67881	1.245
Mof_Zn	Zn	0.22263	0.09011	0.0016	1.246
Mof_O 	O 	0.4222	0.2759	0.639	-0.415
Mof_O 	O 	0.4227	0.1912	0.5798	-0.257
Mof_O 	O 	0.3985	0.1065	0.7079	-0.303
Mof_O 	O 	0.4887	0.1248	0.6935	-0.435
Mof_O 	O 	0.4146	0.2503	0.7504	-0.455
Mof_O 	O 	0.4589	0.1913	0.8157	-0.456
Mof_O 	O 	0.5358	0.269	0.7006	-0.455
Mof_O 	O 	0.5833	0.2119	0.7654	-0.455
Mof_O 	O 	0.4348	0.7757	0.1121	-0.417
Mof_O 	O 	0.5113	0.3377	0.8131	-0.431
Mof_O 	O 	0.4057	0.881	0.1353	-0.268
Mof_O 	O 	0.6045	0.3581	0.8069	-0.277
Mof_O 	O 	0.5876	0.6586	0.7058	-0.421
Mof_O 	O 	0.6617	0.5965	0.7419	-0.243
Mof_O 	O 	0.3714	0.5485	0.8021	-0.249
Mof_O 	O 	0.4226	0.6475	0.8141	-0.421
Mof_O 	O 	0.4147	0.7056	0.9307	-0.254
Mof_O 	O 	0.34	0.7496	0.8832	-0.419
Mof_O 	O 	0.4179	0.8016	0.8021	-0.418
Mof_O 	O 	0.3455	0.8777	0.7855	-0.25
Mof_O 	O 	0.3729	0.2688	0.3964	-0.401
Mof_O 	O 	0.3291	0.3714	0.385	-0.273
Mof_O 	O 	0.572	0.8118	0.6832	-0.4
Mof_O 	O 	0.6252	0.912	0.6922	-0.237
Mof_O 	O 	0.1529	0.2117	0.7867	-0.278
Mof_O 	O 	0.2046	0.2111	0.7195	-0.406
Mof_O 	O 	0.8411	0.2743	0.7187	-0.282
Mof_O 	O 	0.7945	0.2562	0.7873	-0.405
Mof_O 	O 	0.2729	0.0102	0.0176	-0.406
Mof_O 	O 	0.2578	0.9788	0.936	-0.269
Mof_O 	O 	0.3541	0.5526	0.5174	-0.41
Mof_O 	O 	0.3925	0.5195	0.5936	-0.235
Mof_O 	O 	0.7255	0.3652	0.5677	-0.419
Mof_O 	O 	0.6426	0.3095	0.546	-0.257
Mof_O 	O 	0.3437	0.1476	0.9641	-0.258
Mof_O 	O 	0.2485	0.1533	0.951	-0.431
Mof_C 	C 	0.4144	0.2521	0.5922	0.319
Mof_C 	C 	0.3935	0.309	0.5539	-0.065
Mof_C 	C 	0.415	0.2174	0.7912	0.385
Mof_C 	C 	0.3828	0.2891	0.5018	0.025
Mof_H 	H 	0.3886	0.243	0.4913	0.066
Mof_C 	C 	0.3634	0.3419	0.4675	-0.081
Mof_C 	C 	0.3567	0.4099	0.4843	0.04
Mof_H 	H 	0.3423	0.4437	0.4612	0.044
Mof_C 	C 	0.3703	0.4307	0.5341	-0.091
Mof_C 	C 	0.3889	0.3769	0.5692	0.032
Mof_H 	H 	0.398	0.3884	0.603	0.066
Mof_C 	C 	0.4487	0.0885	0.7063	0.333
Mof_C 	C 	0.3581	0.2087	0.8126	-0.103
Mof_C 	C 	0.3554	0.1917	0.8639	0.05
Mof_H 	H 	0.3889	0.1895	0.8854	0.052
Mof_C 	C 	0.5811	0.2438	0.7237	0.383
Mof_C 	C 	0.6369	0.2585	0.7008	-0.108
Mof_C 	C 	0.637	0.277	0.6503	0.055
Mof_H 	H 	0.6029	0.275	0.6296	0.048
Mof_C 	C 	0.6876	0.2536	0.7288	0.065
Mof_H 	H 	0.6877	0.2374	0.7619	0.057
Mof_C 	C 	0.4101	0.8344	0.1033	0.336
Mof_C 	C 	0.5529	0.3768	0.8051	0.329
Mof_C 	C 	0.5388	0.4533	0.792	-0.073
Mof_C 	C 	0.4841	0.4801	0.7989	0.034
Mof_H 	H 	0.4563	0.4511	0.8113	0.062
Mof_C 	C 	0.4714	0.549	0.7872	-0.078
Mof_C 	C 	0.5122	0.5914	0.765	0.043
Mof_H 	H 	0.5026	0.6372	0.7548	0.057
Mof_C 	C 	0.5664	0.565	0.7583	-0.084
Mof_C 	C 	0.5795	0.4981	0.7738	0.036
Mof_H 	H 	0.6169	0.4818	0.7722	0.062
Mof_C 	C 	0.4162	0.5825	0.8021	0.354
Mof_C 	C 	0.7968	0.2681	0.7386	0.336
Mof_C 	C 	0.6087	0.6094	0.7336	0.345
Mof_C 	C 	0.3734	0.7468	0.9229	0.338
Mof_C 	C 	0.7369	0.295	0.6607	0.042
Mof_H 	H 	0.7707	0.3093	0.6474	0.063
Mof_C 	C 	0.3638	0.7983	0.9641	-0.078
Mof_C 	C 	0.3912	0.7919	0.0125	0.034
Mof_H 	H 	0.4167	0.7548	0.0193	0.065
Mof_C 	C 	0.3816	0.8388	0.0509	-0.075
Mof_C 	C 	0.3451	0.8953	0.0396	0.022
Mof_H 	H 	0.339	0.928	0.0647	0.071
Mof_C 	C 	0.3167	0.905	0.991	-0.067
Mof_C 	C 	0.3267	0.8561	0.9543	0.024
Mof_H 	H 	0.3084	0.8615	0.922	0.065
Mof_C 	C 	0.2793	0.9676	0.9797	0.305
Mof_C 	C 	0.1987	0.2075	0.7681	0.322
Mof_C 	C 	0.2544	0.2005	0.8009	-0.078
Mof_C 	C 	0.3077	0.2106	0.7826	0.055
Mof_H 	H 	0.3092	0.2192	0.7483	0.058
Mof_C 	C 	0.3963	0.8567	0.7822	0.329
Mof_C 	C 	0.4378	0.8976	0.7523	-0.061
Mof_C 	C 	0.4231	0.9674	0.7399	0.01
Mof_H 	H 	0.3874	0.9855	0.7466	0.071
Mof_C 	C 	0.4632	0.0094	0.7174	-0.05
Mof_C 	C 	0.5153	0.9813	0.7053	0.013
Mof_H 	H 	0.5426	0.0099	0.6918	0.071
Mof_C 	C 	0.5265	0.9097	0.7137	-0.06
Mof_C 	C 	0.488	0.8695	0.7378	0.027
Mof_H 	H 	0.4963	0.8222	0.7445	0.064
Mof_C 	C 	0.5801	0.878	0.6951	0.324
Mof_C 	C 	0.372	0.5062	0.5516	0.349
Mof_C 	C 	0.2993	0.1573	0.9371	0.358
Mof_C 	C 	0.3018	0.1782	0.8826	-0.089
Mof_C 	C 	0.2524	0.1824	0.8511	0.043
Mof_H 	H 	0.2171	0.1731	0.8636	0.062
Mof_C 	C 	0.6844	0.3256	0.5767	0.334
Mof_C 	C 	0.3533	0.3269	0.4128	0.33
Mof_C 	C 	0.7393	0.2715	0.7106	-0.088
Mof_C 	C 	0.6861	0.2978	0.6306	-0.084
_end
