# CIF file generated by openbabel 3.1.0, see https://openbabel.org
data_I
_chemical_name_common 'image0'
_cell_length_a 20.2686
_cell_length_b 18.9736
_cell_length_c 27.9855
_cell_angle_alpha 90
_cell_angle_beta 107.632
_cell_angle_gamma 90
_space_group_name_H-M_alt 'P 1'
_space_group_name_Hall 'P 1'
loop_
    _symmetry_equiv_pos_as_xyz
    x,y,z
loop_
    _atom_site_label
    _atom_site_type_symbol
    _atom_site_fract_x
    _atom_site_fract_y
    _atom_site_fract_z
    _atom_site_occupancy
    La1      La       0.49073    0.01748    0.41637    1.000
    La2      La       0.45820    0.43146    0.44030    1.000
    O1       O        0.40290    0.92420    0.36880    1.000
    O2       O        0.48710    0.88540    0.43360    1.000
    O3       O        0.55700    0.11200    0.38430    1.000
    O4       O        0.07680    0.70310    0.11690    1.000
    O5       O        0.10140    0.59080    0.13390    1.000
    O6       O        0.41890    0.55500    0.42410    1.000
    O7       O        0.48510    0.62980    0.48020    1.000
    O8       O        0.43680    0.49910    0.52620    1.000
    O9       O        0.46640    0.53270    0.85160    1.000
    O10      O        0.36560    0.57300    0.85520    1.000
    O11      O        0.08060    0.49810    0.52990    1.000
    O12      O        0.11500    0.50380    0.46050    1.000
    O13      O        0.35330    0.44520    0.46850    1.000
    C1       C        0.43230    0.87450    0.39660    1.000
    C2       C        0.40530    0.80070    0.38510    1.000
    C3       C        0.43360    0.74530    0.41740    1.000
    H1       H        0.46900    0.75440    0.44790    1.000
    C4       C        0.41050    0.67700    0.40540    1.000
    C5       C        0.44270    0.61460    0.44010    1.000
    C6       C        0.35870    0.66380    0.35980    1.000
    H2       H        0.34380    0.61680    0.35110    1.000
    C7       C        0.32860    0.71900    0.32700    1.000
    C8       C        0.35280    0.78830    0.34060    1.000
    H3       H        0.33300    0.82670    0.31920    1.000
    C9       C        0.27440    0.70470    0.27880    1.000
    C10      C        0.26880    0.63860    0.25720    1.000
    H4       H        0.30130    0.60300    0.27250    1.000
    C11      C        0.21670    0.62380    0.21350    1.000
    H5       H        0.21380    0.57820    0.19910    1.000
    C12      C        0.17540    0.74150    0.21110    1.000
    H6       H        0.14420    0.77770    0.19500    1.000
    C13      C        0.22730    0.75590    0.25490    1.000
    H7       H        0.23080    0.80180    0.26900    1.000
    C14      C        0.16880    0.67460    0.19060    1.000
    C15      C        0.11130    0.65580    0.14290    1.000
    C16      C        0.37300    0.47870    0.50840    1.000
    C17      C        0.32340    0.49300    0.53680    1.000
    C18      C        0.25220    0.49050    0.51170    1.000
    H8       H        0.23680    0.48190    0.47660    1.000
    C19      C        0.20420    0.50020    0.53680    1.000
    C20      C        0.12840    0.49940    0.50680    1.000
    C21      C        0.22740    0.50990    0.58930    1.000
    H9       H        0.19450    0.51460    0.60710    1.000
    C22      C        0.29760    0.51280    0.61520    1.000
    C23      C        0.34490    0.50560    0.58790    1.000
    H10      H        0.39310    0.50960    0.60500    1.000
    C24      C        0.32340    0.52100    0.67110    1.000
    C25      C        0.37490    0.53730    0.77560    1.000
    C26      C        0.40430    0.54960    0.83110    1.000
    C27      C        0.28080    0.55000    0.69660    1.000
    H11      H        0.23500    0.56480    0.67940    1.000
    C28      C        0.30790    0.55700    0.74820    1.000
    H12      H        0.27880    0.57560    0.76600    1.000
    C29      C        0.41130    0.49930    0.74930    1.000
    H13      H        0.45500    0.47970    0.76700    1.000
    C30      C        0.38560    0.48940    0.69780    1.000
    H14      H        0.41020    0.46120    0.68100    1.000
    O14      O        0.53540    0.96700    0.35060    1.000
    N1       N        0.58340    0.96200    0.28660    1.000
    C31      C        0.56630    0.93680    0.32270    1.000
    C32      C        0.61730    0.92320    0.25340    1.000
    H15      H        0.61940    0.87280    0.26140    1.000
    H16      H        0.66430    0.94140    0.25900    1.000
    H17      H        0.59020    0.93020    0.21830    1.000
    C33      C        0.58850    0.04060    0.28120    1.000
    H18      H        0.57050    0.06430    0.30570    1.000
    H19      H        0.56130    0.05470    0.24720    1.000
    H20      H        0.63700    0.05380    0.28700    1.000
    C34      C        0.57500    0.85460    0.33110    1.000
    H21      H        0.55980    0.84130    0.36010    1.000
    H22      H        0.62310    0.84140    0.33720    1.000
    H23      H        0.54580    0.83010    0.30120    1.000
    O15      O        0.54300    0.11600    0.37310    1.000
    C35      C        0.23700    0.64200    0.27300    1.000
    H24      H        0.24550    0.60870    0.29940    1.000
    C36      C        0.18800    0.63100    0.22700    1.000
    H25      H        0.16660    0.58570    0.22210    1.000
    C37      C        0.19900    0.73100    0.19400    1.000
    H26      H        0.18820    0.76270    0.16650    1.000
    C38      C        0.25100    0.75100    0.24100    1.000
    H27      H        0.26810    0.79770    0.24550    1.000
    C39      C        0.28500    0.54600    0.70200    1.000
    H28      H        0.23860    0.55940    0.68450    1.000
    C40      C        0.30300    0.55400    0.75100    1.000
    H29      H        0.27170    0.56900    0.76890    1.000
    C41      C        0.41800    0.54900    0.75060    1.000
    H30      H        0.46460    0.56290    0.76630    1.000
    C42      C        0.39000    0.54100    0.69660    1.000
    H31      H        0.42010    0.54980    0.67730    1.000
    O16      O        0.53180    0.82190    0.32520    1.000
    C43      C        0.55990    0.78300    0.29930    1.000
    N2       N        0.52440    0.73150    0.27640    1.000
    C44      C        0.47800    0.69000    0.29980    1.000
    H32      H        0.46730    0.71780    0.32550    1.000
    H33      H        0.43560    0.68050    0.27340    1.000
    H34      H        0.49980    0.64590    0.31370    1.000
    C45      C        0.55770    0.68300    0.24770    1.000
    H35      H        0.58930    0.71360    0.23670    1.000
    H36      H        0.58080    0.63930    0.26030    1.000
    H37      H        0.51670    0.67380    0.22000    1.000
    C46      C        0.61380    0.81900    0.27670    1.000
    H38      H        0.62540    0.86300    0.29500    1.000
    H39      H        0.65580    0.79130    0.28070    1.000
    H40      H        0.59240    0.82920    0.24170    1.000
    O17      O        0.63400    0.02900    0.33160    1.000
    La3      La       0.99073    0.51748    0.41637    1.000
    La4      La       0.95820    0.93146    0.44030    1.000
    O18      O        0.90290    0.42420    0.36880    1.000
    O19      O        0.98710    0.38540    0.43360    1.000
    O20      O        0.05700    0.61200    0.38430    1.000
    O21      O        0.57680    0.20310    0.11690    1.000
    O22      O        0.60140    0.09080    0.13390    1.000
    O23      O        0.91890    0.05500    0.42410    1.000
    O24      O        0.98510    0.12980    0.48020    1.000
    O25      O        0.93680    0.99910    0.52620    1.000
    O26      O        0.96640    0.03270    0.85160    1.000
    O27      O        0.86560    0.07300    0.85520    1.000
    O28      O        0.58060    0.99810    0.52990    1.000
    O29      O        0.61500    0.00380    0.46050    1.000
    O30      O        0.85330    0.94520    0.46850    1.000
    C47      C        0.93230    0.37450    0.39660    1.000
    C48      C        0.90530    0.30070    0.38510    1.000
    C49      C        0.93360    0.24530    0.41740    1.000
    H41      H        0.96900    0.25440    0.44790    1.000
    C50      C        0.91050    0.17700    0.40540    1.000
    C51      C        0.94270    0.11460    0.44010    1.000
    C52      C        0.85870    0.16380    0.35980    1.000
    H42      H        0.84380    0.11680    0.35110    1.000
    C53      C        0.82860    0.21900    0.32700    1.000
    C54      C        0.85280    0.28830    0.34060    1.000
    H43      H        0.83300    0.32670    0.31920    1.000
    C55      C        0.77440    0.20470    0.27880    1.000
    C56      C        0.76880    0.13860    0.25720    1.000
    H44      H        0.80130    0.10300    0.27250    1.000
    C57      C        0.71670    0.12380    0.21350    1.000
    H45      H        0.71380    0.07820    0.19910    1.000
    C58      C        0.67540    0.24150    0.21110    1.000
    H46      H        0.64420    0.27770    0.19500    1.000
    C59      C        0.72730    0.25590    0.25490    1.000
    H47      H        0.73080    0.30180    0.26900    1.000
    C60      C        0.66880    0.17460    0.19060    1.000
    C61      C        0.61130    0.15580    0.14290    1.000
    C62      C        0.87300    0.97870    0.50840    1.000
    C63      C        0.82340    0.99300    0.53680    1.000
    C64      C        0.75220    0.99050    0.51170    1.000
    H48      H        0.73680    0.98190    0.47660    1.000
    C65      C        0.70420    0.00020    0.53680    1.000
    C66      C        0.62840    0.99940    0.50680    1.000
    C67      C        0.72740    0.00990    0.58930    1.000
    H49      H        0.69450    0.01460    0.60710    1.000
    C68      C        0.79760    0.01280    0.61520    1.000
    C69      C        0.84490    0.00560    0.58790    1.000
    H50      H        0.89310    0.00960    0.60500    1.000
    C70      C        0.82340    0.02100    0.67110    1.000
    C71      C        0.87490    0.03730    0.77560    1.000
    C72      C        0.90430    0.04960    0.83110    1.000
    C73      C        0.78080    0.05000    0.69660    1.000
    H51      H        0.73500    0.06480    0.67940    1.000
    C74      C        0.80790    0.05700    0.74820    1.000
    H52      H        0.77880    0.07560    0.76600    1.000
    C75      C        0.91130    0.99930    0.74930    1.000
    H53      H        0.95500    0.97970    0.76700    1.000
    C76      C        0.88560    0.98940    0.69780    1.000
    H54      H        0.91020    0.96120    0.68100    1.000
    O31      O        0.03540    0.46700    0.35060    1.000
    N3       N        0.08340    0.46200    0.28660    1.000
    C77      C        0.06630    0.43680    0.32270    1.000
    C78      C        0.11730    0.42320    0.25340    1.000
    H55      H        0.11940    0.37280    0.26140    1.000
    H56      H        0.16430    0.44140    0.25900    1.000
    H57      H        0.09020    0.43020    0.21830    1.000
    C79      C        0.08850    0.54060    0.28120    1.000
    H58      H        0.07050    0.56430    0.30570    1.000
    H59      H        0.06130    0.55470    0.24720    1.000
    H60      H        0.13700    0.55380    0.28700    1.000
    C80      C        0.07500    0.35460    0.33110    1.000
    H61      H        0.05980    0.34130    0.36010    1.000
    H62      H        0.12310    0.34140    0.33720    1.000
    H63      H        0.04580    0.33010    0.30120    1.000
    O32      O        0.04300    0.61600    0.37310    1.000
    C81      C        0.73700    0.14200    0.27300    1.000
    H64      H        0.74550    0.10870    0.29940    1.000
    C82      C        0.68800    0.13100    0.22700    1.000
    H65      H        0.66660    0.08570    0.22210    1.000
    C83      C        0.69900    0.23100    0.19400    1.000
    H66      H        0.68820    0.26270    0.16650    1.000
    C84      C        0.75100    0.25100    0.24100    1.000
    H67      H        0.76810    0.29770    0.24550    1.000
    C85      C        0.78500    0.04600    0.70200    1.000
    H68      H        0.73860    0.05940    0.68450    1.000
    C86      C        0.80300    0.05400    0.75100    1.000
    H69      H        0.77170    0.06900    0.76890    1.000
    C87      C        0.91800    0.04900    0.75060    1.000
    H70      H        0.96460    0.06290    0.76630    1.000
    C88      C        0.89000    0.04100    0.69660    1.000
    H71      H        0.92010    0.04980    0.67730    1.000
    O33      O        0.03180    0.32190    0.32520    1.000
    C89      C        0.05990    0.28300    0.29930    1.000
    N4       N        0.02440    0.23150    0.27640    1.000
    C90      C        0.97800    0.19000    0.29980    1.000
    H72      H        0.96730    0.21780    0.32550    1.000
    H73      H        0.93560    0.18050    0.27340    1.000
    H74      H        0.99980    0.14590    0.31370    1.000
    C91      C        0.05770    0.18300    0.24770    1.000
    H75      H        0.08930    0.21360    0.23670    1.000
    H76      H        0.08080    0.13930    0.26030    1.000
    H77      H        0.01670    0.17380    0.22000    1.000
    C92      C        0.11380    0.31900    0.27670    1.000
    H78      H        0.12540    0.36300    0.29500    1.000
    H79      H        0.15580    0.29130    0.28070    1.000
    H80      H        0.09240    0.32920    0.24170    1.000
    O34      O        0.13400    0.52900    0.33160    1.000
    La5      La       0.50927    0.01748    0.08363    1.000
    La6      La       0.54180    0.43146    0.05970    1.000
    O35      O        0.59710    0.92420    0.13120    1.000
    O36      O        0.51290    0.88540    0.06640    1.000
    O37      O        0.44300    0.11200    0.11570    1.000
    O38      O        0.92320    0.70310    0.38310    1.000
    O39      O        0.89860    0.59080    0.36610    1.000
    O40      O        0.58110    0.55500    0.07590    1.000
    O41      O        0.51490    0.62980    0.01980    1.000
    O42      O        0.56320    0.49910    0.97380    1.000
    O43      O        0.53360    0.53270    0.64840    1.000
    O44      O        0.63440    0.57300    0.64480    1.000
    O45      O        0.91940    0.49810    0.97010    1.000
    O46      O        0.88500    0.50380    0.03950    1.000
    O47      O        0.64670    0.44520    0.03150    1.000
    C93      C        0.56770    0.87450    0.10340    1.000
    C94      C        0.59470    0.80070    0.11490    1.000
    C95      C        0.56640    0.74530    0.08260    1.000
    H81      H        0.53100    0.75440    0.05210    1.000
    C96      C        0.58950    0.67700    0.09460    1.000
    C97      C        0.55730    0.61460    0.05990    1.000
    C98      C        0.64130    0.66380    0.14020    1.000
    H82      H        0.65620    0.61680    0.14890    1.000
    C99      C        0.67140    0.71900    0.17300    1.000
    C100     C        0.64720    0.78830    0.15940    1.000
    H83      H        0.66700    0.82670    0.18080    1.000
    C101     C        0.72560    0.70470    0.22120    1.000
    C102     C        0.73120    0.63860    0.24280    1.000
    H84      H        0.69870    0.60300    0.22750    1.000
    C103     C        0.78330    0.62380    0.28650    1.000
    H85      H        0.78620    0.57820    0.30090    1.000
    C104     C        0.82460    0.74150    0.28890    1.000
    H86      H        0.85580    0.77770    0.30500    1.000
    C105     C        0.77270    0.75590    0.24510    1.000
    H87      H        0.76920    0.80180    0.23100    1.000
    C106     C        0.83120    0.67460    0.30940    1.000
    C107     C        0.88870    0.65580    0.35710    1.000
    C108     C        0.62700    0.47870    0.99160    1.000
    C109     C        0.67660    0.49300    0.96320    1.000
    C110     C        0.74780    0.49050    0.98830    1.000
    H88      H        0.76320    0.48190    0.02340    1.000
    C111     C        0.79580    0.50020    0.96320    1.000
    C112     C        0.87160    0.49940    0.99320    1.000
    C113     C        0.77260    0.50990    0.91070    1.000
    H89      H        0.80550    0.51460    0.89290    1.000
    C114     C        0.70240    0.51280    0.88480    1.000
    C115     C        0.65510    0.50560    0.91210    1.000
    H90      H        0.60690    0.50960    0.89500    1.000
    C116     C        0.67660    0.52100    0.82890    1.000
    C117     C        0.62510    0.53730    0.72440    1.000
    C118     C        0.59570    0.54960    0.66890    1.000
    C119     C        0.71920    0.55000    0.80340    1.000
    H91      H        0.76500    0.56480    0.82060    1.000
    C120     C        0.69210    0.55700    0.75180    1.000
    H92      H        0.72120    0.57560    0.73400    1.000
    C121     C        0.58870    0.49930    0.75070    1.000
    H93      H        0.54500    0.47970    0.73300    1.000
    C122     C        0.61440    0.48940    0.80220    1.000
    H94      H        0.58980    0.46120    0.81900    1.000
    O48      O        0.46460    0.96700    0.14940    1.000
    N5       N        0.41660    0.96200    0.21340    1.000
    C123     C        0.43370    0.93680    0.17730    1.000
    C124     C        0.38270    0.92320    0.24660    1.000
    H95      H        0.38060    0.87280    0.23860    1.000
    H96      H        0.33570    0.94140    0.24100    1.000
    H97      H        0.40980    0.93020    0.28170    1.000
    C125     C        0.41150    0.04060    0.21880    1.000
    H98      H        0.42950    0.06430    0.19430    1.000
    H99      H        0.43870    0.05470    0.25280    1.000
    H100     H        0.36300    0.05380    0.21300    1.000
    C126     C        0.42500    0.85460    0.16890    1.000
    H101     H        0.44020    0.84130    0.13990    1.000
    H102     H        0.37690    0.84140    0.16280    1.000
    H103     H        0.45420    0.83010    0.19880    1.000
    O49      O        0.45700    0.11600    0.12690    1.000
    C127     C        0.76300    0.64200    0.22700    1.000
    H104     H        0.75450    0.60870    0.20060    1.000
    C128     C        0.81200    0.63100    0.27300    1.000
    H105     H        0.83340    0.58570    0.27790    1.000
    C129     C        0.80100    0.73100    0.30600    1.000
    H106     H        0.81180    0.76270    0.33350    1.000
    C130     C        0.74900    0.75100    0.25900    1.000
    H107     H        0.73190    0.79770    0.25450    1.000
    C131     C        0.71500    0.54600    0.79800    1.000
    H108     H        0.76140    0.55940    0.81550    1.000
    C132     C        0.69700    0.55400    0.74900    1.000
    H109     H        0.72830    0.56900    0.73110    1.000
    C133     C        0.58200    0.54900    0.74940    1.000
    H110     H        0.53540    0.56290    0.73370    1.000
    C134     C        0.61000    0.54100    0.80340    1.000
    H111     H        0.57990    0.54980    0.82270    1.000
    O50      O        0.46820    0.82190    0.17480    1.000
    C135     C        0.44010    0.78300    0.20070    1.000
    N6       N        0.47560    0.73150    0.22360    1.000
    C136     C        0.52200    0.69000    0.20020    1.000
    H112     H        0.53270    0.71780    0.17450    1.000
    H113     H        0.56440    0.68050    0.22660    1.000
    H114     H        0.50020    0.64590    0.18630    1.000
    C137     C        0.44230    0.68300    0.25230    1.000
    H115     H        0.41070    0.71360    0.26330    1.000
    H116     H        0.41920    0.63930    0.23970    1.000
    H117     H        0.48330    0.67380    0.28000    1.000
    C138     C        0.38620    0.81900    0.22330    1.000
    H118     H        0.37460    0.86300    0.20500    1.000
    H119     H        0.34420    0.79130    0.21930    1.000
    H120     H        0.40760    0.82920    0.25830    1.000
    O51      O        0.36600    0.02900    0.16840    1.000
    La7      La       0.00927    0.51748    0.08363    1.000
    La8      La       0.04180    0.93146    0.05970    1.000
    O52      O        0.09710    0.42420    0.13120    1.000
    O53      O        0.01290    0.38540    0.06640    1.000
    O54      O        0.94300    0.61200    0.11570    1.000
    O55      O        0.42320    0.20310    0.38310    1.000
    O56      O        0.39860    0.09080    0.36610    1.000
    O57      O        0.08110    0.05500    0.07590    1.000
    O58      O        0.01490    0.12980    0.01980    1.000
    O59      O        0.06320    0.99910    0.97380    1.000
    O60      O        0.03360    0.03270    0.64840    1.000
    O61      O        0.13440    0.07300    0.64480    1.000
    O62      O        0.41940    0.99810    0.97010    1.000
    O63      O        0.38500    0.00380    0.03950    1.000
    O64      O        0.14670    0.94520    0.03150    1.000
    C139     C        0.06770    0.37450    0.10340    1.000
    C140     C        0.09470    0.30070    0.11490    1.000
    C141     C        0.06640    0.24530    0.08260    1.000
    H121     H        0.03100    0.25440    0.05210    1.000
    C142     C        0.08950    0.17700    0.09460    1.000
    C143     C        0.05730    0.11460    0.05990    1.000
    C144     C        0.14130    0.16380    0.14020    1.000
    H122     H        0.15620    0.11680    0.14890    1.000
    C145     C        0.17140    0.21900    0.17300    1.000
    C146     C        0.14720    0.28830    0.15940    1.000
    H123     H        0.16700    0.32670    0.18080    1.000
    C147     C        0.22560    0.20470    0.22120    1.000
    C148     C        0.23120    0.13860    0.24280    1.000
    H124     H        0.19870    0.10300    0.22750    1.000
    C149     C        0.28330    0.12380    0.28650    1.000
    H125     H        0.28620    0.07820    0.30090    1.000
    C150     C        0.32460    0.24150    0.28890    1.000
    H126     H        0.35580    0.27770    0.30500    1.000
    C151     C        0.27270    0.25590    0.24510    1.000
    H127     H        0.26920    0.30180    0.23100    1.000
    C152     C        0.33120    0.17460    0.30940    1.000
    C153     C        0.38870    0.15580    0.35710    1.000
    C154     C        0.12700    0.97870    0.99160    1.000
    C155     C        0.17660    0.99300    0.96320    1.000
    C156     C        0.24780    0.99050    0.98830    1.000
    H128     H        0.26320    0.98190    0.02340    1.000
    C157     C        0.29580    0.00020    0.96320    1.000
    C158     C        0.37160    0.99940    0.99320    1.000
    C159     C        0.27260    0.00990    0.91070    1.000
    H129     H        0.30550    0.01460    0.89290    1.000
    C160     C        0.20240    0.01280    0.88480    1.000
    C161     C        0.15510    0.00560    0.91210    1.000
    H130     H        0.10690    0.00960    0.89500    1.000
    C162     C        0.17660    0.02100    0.82890    1.000
    C163     C        0.12510    0.03730    0.72440    1.000
    C164     C        0.09570    0.04960    0.66890    1.000
    C165     C        0.21920    0.05000    0.80340    1.000
    H131     H        0.26500    0.06480    0.82060    1.000
    C166     C        0.19210    0.05700    0.75180    1.000
    H132     H        0.22120    0.07560    0.73400    1.000
    C167     C        0.08870    0.99930    0.75070    1.000
    H133     H        0.04500    0.97970    0.73300    1.000
    C168     C        0.11440    0.98940    0.80220    1.000
    H134     H        0.08980    0.96120    0.81900    1.000
    O65      O        0.96460    0.46700    0.14940    1.000
    N7       N        0.91660    0.46200    0.21340    1.000
    C169     C        0.93370    0.43680    0.17730    1.000
    C170     C        0.88270    0.42320    0.24660    1.000
    H135     H        0.88060    0.37280    0.23860    1.000
    H136     H        0.83570    0.44140    0.24100    1.000
    H137     H        0.90980    0.43020    0.28170    1.000
    C171     C        0.91150    0.54060    0.21880    1.000
    H138     H        0.92950    0.56430    0.19430    1.000
    H139     H        0.93870    0.55470    0.25280    1.000
    H140     H        0.86300    0.55380    0.21300    1.000
    C172     C        0.92500    0.35460    0.16890    1.000
    H141     H        0.94020    0.34130    0.13990    1.000
    H142     H        0.87690    0.34140    0.16280    1.000
    H143     H        0.95420    0.33010    0.19880    1.000
    O66      O        0.95700    0.61600    0.12690    1.000
    C173     C        0.26300    0.14200    0.22700    1.000
    H144     H        0.25450    0.10870    0.20060    1.000
    C174     C        0.31200    0.13100    0.27300    1.000
    H145     H        0.33340    0.08570    0.27790    1.000
    C175     C        0.30100    0.23100    0.30600    1.000
    H146     H        0.31180    0.26270    0.33350    1.000
    C176     C        0.24900    0.25100    0.25900    1.000
    H147     H        0.23190    0.29770    0.25450    1.000
    C177     C        0.21500    0.04600    0.79800    1.000
    H148     H        0.26140    0.05940    0.81550    1.000
    C178     C        0.19700    0.05400    0.74900    1.000
    H149     H        0.22830    0.06900    0.73110    1.000
    C179     C        0.08200    0.04900    0.74940    1.000
    H150     H        0.03540    0.06290    0.73370    1.000
    C180     C        0.11000    0.04100    0.80340    1.000
    H151     H        0.07990    0.04980    0.82270    1.000
    O67      O        0.96820    0.32190    0.17480    1.000
    C181     C        0.94010    0.28300    0.20070    1.000
    N8       N        0.97560    0.23150    0.22360    1.000
    C182     C        0.02200    0.19000    0.20020    1.000
    H152     H        0.03270    0.21780    0.17450    1.000
    H153     H        0.06440    0.18050    0.22660    1.000
    H154     H        0.00020    0.14590    0.18630    1.000
    C183     C        0.94230    0.18300    0.25230    1.000
    H155     H        0.91070    0.21360    0.26330    1.000
    H156     H        0.91920    0.13930    0.23970    1.000
    H157     H        0.98330    0.17380    0.28000    1.000
    C184     C        0.88620    0.31900    0.22330    1.000
    H158     H        0.87460    0.36300    0.20500    1.000
    H159     H        0.84420    0.29130    0.21930    1.000
    H160     H        0.90760    0.32920    0.25830    1.000
    O68      O        0.86600    0.52900    0.16840    1.000
    La9      La       0.50927    0.98252    0.58363    1.000
    La10     La       0.54180    0.56854    0.55970    1.000
    O69      O        0.59710    0.07580    0.63120    1.000
    O70      O        0.51290    0.11460    0.56640    1.000
    O71      O        0.44300    0.88800    0.61570    1.000
    O72      O        0.92320    0.29690    0.88310    1.000
    O73      O        0.89860    0.40920    0.86610    1.000
    O74      O        0.58110    0.44500    0.57590    1.000
    O75      O        0.51490    0.37020    0.51980    1.000
    O76      O        0.56320    0.50090    0.47380    1.000
    O77      O        0.53360    0.46730    0.14840    1.000
    O78      O        0.63440    0.42700    0.14480    1.000
    O79      O        0.91940    0.50190    0.47010    1.000
    O80      O        0.88500    0.49620    0.53950    1.000
    O81      O        0.64670    0.55480    0.53150    1.000
    C185     C        0.56770    0.12550    0.60340    1.000
    C186     C        0.59470    0.19930    0.61490    1.000
    C187     C        0.56640    0.25470    0.58260    1.000
    H161     H        0.53100    0.24560    0.55210    1.000
    C188     C        0.58950    0.32300    0.59460    1.000
    C189     C        0.55730    0.38540    0.55990    1.000
    C190     C        0.64130    0.33620    0.64020    1.000
    H162     H        0.65620    0.38320    0.64890    1.000
    C191     C        0.67140    0.28100    0.67300    1.000
    C192     C        0.64720    0.21170    0.65940    1.000
    H163     H        0.66700    0.17330    0.68080    1.000
    C193     C        0.72560    0.29530    0.72120    1.000
    C194     C        0.73120    0.36140    0.74280    1.000
    H164     H        0.69870    0.39700    0.72750    1.000
    C195     C        0.78330    0.37620    0.78650    1.000
    H165     H        0.78620    0.42180    0.80090    1.000
    C196     C        0.82460    0.25850    0.78890    1.000
    H166     H        0.85580    0.22230    0.80500    1.000
    C197     C        0.77270    0.24410    0.74510    1.000
    H167     H        0.76920    0.19820    0.73100    1.000
    C198     C        0.83120    0.32540    0.80940    1.000
    C199     C        0.88870    0.34420    0.85710    1.000
    C200     C        0.62700    0.52130    0.49160    1.000
    C201     C        0.67660    0.50700    0.46320    1.000
    C202     C        0.74780    0.50950    0.48830    1.000
    H168     H        0.76320    0.51810    0.52340    1.000
    C203     C        0.79580    0.49980    0.46320    1.000
    C204     C        0.87160    0.50060    0.49320    1.000
    C205     C        0.77260    0.49010    0.41070    1.000
    H169     H        0.80550    0.48540    0.39290    1.000
    C206     C        0.70240    0.48720    0.38480    1.000
    C207     C        0.65510    0.49440    0.41210    1.000
    H170     H        0.60690    0.49040    0.39500    1.000
    C208     C        0.67660    0.47900    0.32890    1.000
    C209     C        0.62510    0.46270    0.22440    1.000
    C210     C        0.59570    0.45040    0.16890    1.000
    C211     C        0.71920    0.45000    0.30340    1.000
    H171     H        0.76500    0.43520    0.32060    1.000
    C212     C        0.69210    0.44300    0.25180    1.000
    H172     H        0.72120    0.42440    0.23400    1.000
    C213     C        0.58870    0.50070    0.25070    1.000
    H173     H        0.54500    0.52030    0.23300    1.000
    C214     C        0.61440    0.51060    0.30220    1.000
    H174     H        0.58980    0.53880    0.31900    1.000
    O82      O        0.46460    0.03300    0.64940    1.000
    N9       N        0.41660    0.03800    0.71340    1.000
    C215     C        0.43370    0.06320    0.67730    1.000
    C216     C        0.38270    0.07680    0.74660    1.000
    H175     H        0.38060    0.12720    0.73860    1.000
    H176     H        0.33570    0.05860    0.74100    1.000
    H177     H        0.40980    0.06980    0.78170    1.000
    C217     C        0.41150    0.95940    0.71880    1.000
    H178     H        0.42950    0.93570    0.69430    1.000
    H179     H        0.43870    0.94530    0.75280    1.000
    H180     H        0.36300    0.94620    0.71300    1.000
    C218     C        0.42500    0.14540    0.66890    1.000
    H181     H        0.44020    0.15870    0.63990    1.000
    H182     H        0.37690    0.15860    0.66280    1.000
    H183     H        0.45420    0.16990    0.69880    1.000
    O83      O        0.45700    0.88400    0.62690    1.000
    C219     C        0.76300    0.35800    0.72700    1.000
    H184     H        0.75450    0.39130    0.70060    1.000
    C220     C        0.81200    0.36900    0.77300    1.000
    H185     H        0.83340    0.41430    0.77790    1.000
    C221     C        0.80100    0.26900    0.80600    1.000
    H186     H        0.81180    0.23730    0.83350    1.000
    C222     C        0.74900    0.24900    0.75900    1.000
    H187     H        0.73190    0.20230    0.75450    1.000
    C223     C        0.71500    0.45400    0.29800    1.000
    H188     H        0.76140    0.44060    0.31550    1.000
    C224     C        0.69700    0.44600    0.24900    1.000
    H189     H        0.72830    0.43100    0.23110    1.000
    C225     C        0.58200    0.45100    0.24940    1.000
    H190     H        0.53540    0.43710    0.23370    1.000
    C226     C        0.61000    0.45900    0.30340    1.000
    H191     H        0.57990    0.45020    0.32270    1.000
    O84      O        0.46820    0.17810    0.67480    1.000
    C227     C        0.44010    0.21700    0.70070    1.000
    N10      N        0.47560    0.26850    0.72360    1.000
    C228     C        0.52200    0.31000    0.70020    1.000
    H192     H        0.53270    0.28220    0.67450    1.000
    H193     H        0.56440    0.31950    0.72660    1.000
    H194     H        0.50020    0.35410    0.68630    1.000
    C229     C        0.44230    0.31700    0.75230    1.000
    H195     H        0.41070    0.28640    0.76330    1.000
    H196     H        0.41920    0.36070    0.73970    1.000
    H197     H        0.48330    0.32620    0.78000    1.000
    C230     C        0.38620    0.18100    0.72330    1.000
    H198     H        0.37460    0.13700    0.70500    1.000
    H199     H        0.34420    0.20870    0.71930    1.000
    H200     H        0.40760    0.17080    0.75830    1.000
    O85      O        0.36600    0.97100    0.66840    1.000
    La11     La       0.00927    0.48252    0.58363    1.000
    La12     La       0.04180    0.06854    0.55970    1.000
    O86      O        0.09710    0.57580    0.63120    1.000
    O87      O        0.01290    0.61460    0.56640    1.000
    O88      O        0.94300    0.38800    0.61570    1.000
    O89      O        0.42320    0.79690    0.88310    1.000
    O90      O        0.39860    0.90920    0.86610    1.000
    O91      O        0.08110    0.94500    0.57590    1.000
    O92      O        0.01490    0.87020    0.51980    1.000
    O93      O        0.06320    0.00090    0.47380    1.000
    O94      O        0.03360    0.96730    0.14840    1.000
    O95      O        0.13440    0.92700    0.14480    1.000
    O96      O        0.41940    0.00190    0.47010    1.000
    O97      O        0.38500    0.99620    0.53950    1.000
    O98      O        0.14670    0.05480    0.53150    1.000
    C231     C        0.06770    0.62550    0.60340    1.000
    C232     C        0.09470    0.69930    0.61490    1.000
    C233     C        0.06640    0.75470    0.58260    1.000
    H201     H        0.03100    0.74560    0.55210    1.000
    C234     C        0.08950    0.82300    0.59460    1.000
    C235     C        0.05730    0.88540    0.55990    1.000
    C236     C        0.14130    0.83620    0.64020    1.000
    H202     H        0.15620    0.88320    0.64890    1.000
    C237     C        0.17140    0.78100    0.67300    1.000
    C238     C        0.14720    0.71170    0.65940    1.000
    H203     H        0.16700    0.67330    0.68080    1.000
    C239     C        0.22560    0.79530    0.72120    1.000
    C240     C        0.23120    0.86140    0.74280    1.000
    H204     H        0.19870    0.89700    0.72750    1.000
    C241     C        0.28330    0.87620    0.78650    1.000
    H205     H        0.28620    0.92180    0.80090    1.000
    C242     C        0.32460    0.75850    0.78890    1.000
    H206     H        0.35580    0.72230    0.80500    1.000
    C243     C        0.27270    0.74410    0.74510    1.000
    H207     H        0.26920    0.69820    0.73100    1.000
    C244     C        0.33120    0.82540    0.80940    1.000
    C245     C        0.38870    0.84420    0.85710    1.000
    C246     C        0.12700    0.02130    0.49160    1.000
    C247     C        0.17660    0.00700    0.46320    1.000
    C248     C        0.24780    0.00950    0.48830    1.000
    H208     H        0.26320    0.01810    0.52340    1.000
    C249     C        0.29580    0.99980    0.46320    1.000
    C250     C        0.37160    0.00060    0.49320    1.000
    C251     C        0.27260    0.99010    0.41070    1.000
    H209     H        0.30550    0.98540    0.39290    1.000
    C252     C        0.20240    0.98720    0.38480    1.000
    C253     C        0.15510    0.99440    0.41210    1.000
    H210     H        0.10690    0.99040    0.39500    1.000
    C254     C        0.17660    0.97900    0.32890    1.000
    C255     C        0.12510    0.96270    0.22440    1.000
    C256     C        0.09570    0.95040    0.16890    1.000
    C257     C        0.21920    0.95000    0.30340    1.000
    H211     H        0.26500    0.93520    0.32060    1.000
    C258     C        0.19210    0.94300    0.25180    1.000
    H212     H        0.22120    0.92440    0.23400    1.000
    C259     C        0.08870    0.00070    0.25070    1.000
    H213     H        0.04500    0.02030    0.23300    1.000
    C260     C        0.11440    0.01060    0.30220    1.000
    H214     H        0.08980    0.03880    0.31900    1.000
    O99      O        0.96460    0.53300    0.64940    1.000
    N11      N        0.91660    0.53800    0.71340    1.000
    C261     C        0.93370    0.56320    0.67730    1.000
    C262     C        0.88270    0.57680    0.74660    1.000
    H215     H        0.88060    0.62720    0.73860    1.000
    H216     H        0.83570    0.55860    0.74100    1.000
    H217     H        0.90980    0.56980    0.78170    1.000
    C263     C        0.91150    0.45940    0.71880    1.000
    H218     H        0.92950    0.43570    0.69430    1.000
    H219     H        0.93870    0.44530    0.75280    1.000
    H220     H        0.86300    0.44620    0.71300    1.000
    C264     C        0.92500    0.64540    0.66890    1.000
    H221     H        0.94020    0.65870    0.63990    1.000
    H222     H        0.87690    0.65860    0.66280    1.000
    H223     H        0.95420    0.66990    0.69880    1.000
    O100     O        0.95700    0.38400    0.62690    1.000
    C265     C        0.26300    0.85800    0.72700    1.000
    H224     H        0.25450    0.89130    0.70060    1.000
    C266     C        0.31200    0.86900    0.77300    1.000
    H225     H        0.33340    0.91430    0.77790    1.000
    C267     C        0.30100    0.76900    0.80600    1.000
    H226     H        0.31180    0.73730    0.83350    1.000
    C268     C        0.24900    0.74900    0.75900    1.000
    H227     H        0.23190    0.70230    0.75450    1.000
    C269     C        0.21500    0.95400    0.29800    1.000
    H228     H        0.26140    0.94060    0.31550    1.000
    C270     C        0.19700    0.94600    0.24900    1.000
    H229     H        0.22830    0.93100    0.23110    1.000
    C271     C        0.08200    0.95100    0.24940    1.000
    H230     H        0.03540    0.93710    0.23370    1.000
    C272     C        0.11000    0.95900    0.30340    1.000
    H231     H        0.07990    0.95020    0.32270    1.000
    O101     O        0.96820    0.67810    0.67480    1.000
    C273     C        0.94010    0.71700    0.70070    1.000
    N12      N        0.97560    0.76850    0.72360    1.000
    C274     C        0.02200    0.81000    0.70020    1.000
    H232     H        0.03270    0.78220    0.67450    1.000
    H233     H        0.06440    0.81950    0.72660    1.000
    H234     H        0.00020    0.85410    0.68630    1.000
    C275     C        0.94230    0.81700    0.75230    1.000
    H235     H        0.91070    0.78640    0.76330    1.000
    H236     H        0.91920    0.86070    0.73970    1.000
    H237     H        0.98330    0.82620    0.78000    1.000
    C276     C        0.88620    0.68100    0.72330    1.000
    H238     H        0.87460    0.63700    0.70500    1.000
    H239     H        0.84420    0.70870    0.71930    1.000
    H240     H        0.90760    0.67080    0.75830    1.000
    O102     O        0.86600    0.47100    0.66840    1.000
    La13     La       0.49073    0.98252    0.91637    1.000
    La14     La       0.45820    0.56854    0.94030    1.000
    O103     O        0.40290    0.07580    0.86880    1.000
    O104     O        0.48710    0.11460    0.93360    1.000
    O105     O        0.55700    0.88800    0.88430    1.000
    O106     O        0.07680    0.29690    0.61690    1.000
    O107     O        0.10140    0.40920    0.63390    1.000
    O108     O        0.41890    0.44500    0.92410    1.000
    O109     O        0.48510    0.37020    0.98020    1.000
    O110     O        0.43680    0.50090    0.02620    1.000
    O111     O        0.46640    0.46730    0.35160    1.000
    O112     O        0.36560    0.42700    0.35520    1.000
    O113     O        0.08060    0.50190    0.02990    1.000
    O114     O        0.11500    0.49620    0.96050    1.000
    O115     O        0.35330    0.55480    0.96850    1.000
    C277     C        0.43230    0.12550    0.89660    1.000
    C278     C        0.40530    0.19930    0.88510    1.000
    C279     C        0.43360    0.25470    0.91740    1.000
    H241     H        0.46900    0.24560    0.94790    1.000
    C280     C        0.41050    0.32300    0.90540    1.000
    C281     C        0.44270    0.38540    0.94010    1.000
    C282     C        0.35870    0.33620    0.85980    1.000
    H242     H        0.34380    0.38320    0.85110    1.000
    C283     C        0.32860    0.28100    0.82700    1.000
    C284     C        0.35280    0.21170    0.84060    1.000
    H243     H        0.33300    0.17330    0.81920    1.000
    C285     C        0.27440    0.29530    0.77880    1.000
    C286     C        0.26880    0.36140    0.75720    1.000
    H244     H        0.30130    0.39700    0.77250    1.000
    C287     C        0.21670    0.37620    0.71350    1.000
    H245     H        0.21380    0.42180    0.69910    1.000
    C288     C        0.17540    0.25850    0.71110    1.000
    H246     H        0.14420    0.22230    0.69500    1.000
    C289     C        0.22730    0.24410    0.75490    1.000
    H247     H        0.23080    0.19820    0.76900    1.000
    C290     C        0.16880    0.32540    0.69060    1.000
    C291     C        0.11130    0.34420    0.64290    1.000
    C292     C        0.37300    0.52130    0.00840    1.000
    C293     C        0.32340    0.50700    0.03680    1.000
    C294     C        0.25220    0.50950    0.01170    1.000
    H248     H        0.23680    0.51810    0.97660    1.000
    C295     C        0.20420    0.49980    0.03680    1.000
    C296     C        0.12840    0.50060    0.00680    1.000
    C297     C        0.22740    0.49010    0.08930    1.000
    H249     H        0.19450    0.48540    0.10710    1.000
    C298     C        0.29760    0.48720    0.11520    1.000
    C299     C        0.34490    0.49440    0.08790    1.000
    H250     H        0.39310    0.49040    0.10500    1.000
    C300     C        0.32340    0.47900    0.17110    1.000
    C301     C        0.37490    0.46270    0.27560    1.000
    C302     C        0.40430    0.45040    0.33110    1.000
    C303     C        0.28080    0.45000    0.19660    1.000
    H251     H        0.23500    0.43520    0.17940    1.000
    C304     C        0.30790    0.44300    0.24820    1.000
    H252     H        0.27880    0.42440    0.26600    1.000
    C305     C        0.41130    0.50070    0.24930    1.000
    H253     H        0.45500    0.52030    0.26700    1.000
    C306     C        0.38560    0.51060    0.19780    1.000
    H254     H        0.41020    0.53880    0.18100    1.000
    O116     O        0.53540    0.03300    0.85060    1.000
    N13      N        0.58340    0.03800    0.78660    1.000
    C307     C        0.56630    0.06320    0.82270    1.000
    C308     C        0.61730    0.07680    0.75340    1.000
    H255     H        0.61940    0.12720    0.76140    1.000
    H256     H        0.66430    0.05860    0.75900    1.000
    H257     H        0.59020    0.06980    0.71830    1.000
    C309     C        0.58850    0.95940    0.78120    1.000
    H258     H        0.57050    0.93570    0.80570    1.000
    H259     H        0.56130    0.94530    0.74720    1.000
    H260     H        0.63700    0.94620    0.78700    1.000
    C310     C        0.57500    0.14540    0.83110    1.000
    H261     H        0.55980    0.15870    0.86010    1.000
    H262     H        0.62310    0.15860    0.83720    1.000
    H263     H        0.54580    0.16990    0.80120    1.000
    O117     O        0.54300    0.88400    0.87310    1.000
    C311     C        0.23700    0.35800    0.77300    1.000
    H264     H        0.24550    0.39130    0.79940    1.000
    C312     C        0.18800    0.36900    0.72700    1.000
    H265     H        0.16660    0.41430    0.72210    1.000
    C313     C        0.19900    0.26900    0.69400    1.000
    H266     H        0.18820    0.23730    0.66650    1.000
    C314     C        0.25100    0.24900    0.74100    1.000
    H267     H        0.26810    0.20230    0.74550    1.000
    C315     C        0.28500    0.45400    0.20200    1.000
    H268     H        0.23860    0.44060    0.18450    1.000
    C316     C        0.30300    0.44600    0.25100    1.000
    H269     H        0.27170    0.43100    0.26890    1.000
    C317     C        0.41800    0.45100    0.25060    1.000
    H270     H        0.46460    0.43710    0.26630    1.000
    C318     C        0.39000    0.45900    0.19660    1.000
    H271     H        0.42010    0.45020    0.17730    1.000
    O118     O        0.53180    0.17810    0.82520    1.000
    C319     C        0.55990    0.21700    0.79930    1.000
    N14      N        0.52440    0.26850    0.77640    1.000
    C320     C        0.47800    0.31000    0.79980    1.000
    H272     H        0.46730    0.28220    0.82550    1.000
    H273     H        0.43560    0.31950    0.77340    1.000
    H274     H        0.49980    0.35410    0.81370    1.000
    C321     C        0.55770    0.31700    0.74770    1.000
    H275     H        0.58930    0.28640    0.73670    1.000
    H276     H        0.58080    0.36070    0.76030    1.000
    H277     H        0.51670    0.32620    0.72000    1.000
    C322     C        0.61380    0.18100    0.77670    1.000
    H278     H        0.62540    0.13700    0.79500    1.000
    H279     H        0.65580    0.20870    0.78070    1.000
    H280     H        0.59240    0.17080    0.74170    1.000
    O119     O        0.63400    0.97100    0.83160    1.000
    La15     La       0.99073    0.48252    0.91637    1.000
    La16     La       0.95820    0.06854    0.94030    1.000
    O120     O        0.90290    0.57580    0.86880    1.000
    O121     O        0.98710    0.61460    0.93360    1.000
    O122     O        0.05700    0.38800    0.88430    1.000
    O123     O        0.57680    0.79690    0.61690    1.000
    O124     O        0.60140    0.90920    0.63390    1.000
    O125     O        0.91890    0.94500    0.92410    1.000
    O126     O        0.98510    0.87020    0.98020    1.000
    O127     O        0.93680    0.00090    0.02620    1.000
    O128     O        0.96640    0.96730    0.35160    1.000
    O129     O        0.86560    0.92700    0.35520    1.000
    O130     O        0.58060    0.00190    0.02990    1.000
    O131     O        0.61500    0.99620    0.96050    1.000
    O132     O        0.85330    0.05480    0.96850    1.000
    C323     C        0.93230    0.62550    0.89660    1.000
    C324     C        0.90530    0.69930    0.88510    1.000
    C325     C        0.93360    0.75470    0.91740    1.000
    H281     H        0.96900    0.74560    0.94790    1.000
    C326     C        0.91050    0.82300    0.90540    1.000
    C327     C        0.94270    0.88540    0.94010    1.000
    C328     C        0.85870    0.83620    0.85980    1.000
    H282     H        0.84380    0.88320    0.85110    1.000
    C329     C        0.82860    0.78100    0.82700    1.000
    C330     C        0.85280    0.71170    0.84060    1.000
    H283     H        0.83300    0.67330    0.81920    1.000
    C331     C        0.77440    0.79530    0.77880    1.000
    C332     C        0.76880    0.86140    0.75720    1.000
    H284     H        0.80130    0.89700    0.77250    1.000
    C333     C        0.71670    0.87620    0.71350    1.000
    H285     H        0.71380    0.92180    0.69910    1.000
    C334     C        0.67540    0.75850    0.71110    1.000
    H286     H        0.64420    0.72230    0.69500    1.000
    C335     C        0.72730    0.74410    0.75490    1.000
    H287     H        0.73080    0.69820    0.76900    1.000
    C336     C        0.66880    0.82540    0.69060    1.000
    C337     C        0.61130    0.84420    0.64290    1.000
    C338     C        0.87300    0.02130    0.00840    1.000
    C339     C        0.82340    0.00700    0.03680    1.000
    C340     C        0.75220    0.00950    0.01170    1.000
    H288     H        0.73680    0.01810    0.97660    1.000
    C341     C        0.70420    0.99980    0.03680    1.000
    C342     C        0.62840    0.00060    0.00680    1.000
    C343     C        0.72740    0.99010    0.08930    1.000
    H289     H        0.69450    0.98540    0.10710    1.000
    C344     C        0.79760    0.98720    0.11520    1.000
    C345     C        0.84490    0.99440    0.08790    1.000
    H290     H        0.89310    0.99040    0.10500    1.000
    C346     C        0.82340    0.97900    0.17110    1.000
    C347     C        0.87490    0.96270    0.27560    1.000
    C348     C        0.90430    0.95040    0.33110    1.000
    C349     C        0.78080    0.95000    0.19660    1.000
    H291     H        0.73500    0.93520    0.17940    1.000
    C350     C        0.80790    0.94300    0.24820    1.000
    H292     H        0.77880    0.92440    0.26600    1.000
    C351     C        0.91130    0.00070    0.24930    1.000
    H293     H        0.95500    0.02030    0.26700    1.000
    C352     C        0.88560    0.01060    0.19780    1.000
    H294     H        0.91020    0.03880    0.18100    1.000
    O133     O        0.03540    0.53300    0.85060    1.000
    N15      N        0.08340    0.53800    0.78660    1.000
    C353     C        0.06630    0.56320    0.82270    1.000
    C354     C        0.11730    0.57680    0.75340    1.000
    H295     H        0.11940    0.62720    0.76140    1.000
    H296     H        0.16430    0.55860    0.75900    1.000
    H297     H        0.09020    0.56980    0.71830    1.000
    C355     C        0.08850    0.45940    0.78120    1.000
    H298     H        0.07050    0.43570    0.80570    1.000
    H299     H        0.06130    0.44530    0.74720    1.000
    H300     H        0.13700    0.44620    0.78700    1.000
    C356     C        0.07500    0.64540    0.83110    1.000
    H301     H        0.05980    0.65870    0.86010    1.000
    H302     H        0.12310    0.65860    0.83720    1.000
    H303     H        0.04580    0.66990    0.80120    1.000
    O134     O        0.04300    0.38400    0.87310    1.000
    C357     C        0.73700    0.85800    0.77300    1.000
    H304     H        0.74550    0.89130    0.79940    1.000
    C358     C        0.68800    0.86900    0.72700    1.000
    H305     H        0.66660    0.91430    0.72210    1.000
    C359     C        0.69900    0.76900    0.69400    1.000
    H306     H        0.68820    0.73730    0.66650    1.000
    C360     C        0.75100    0.74900    0.74100    1.000
    H307     H        0.76810    0.70230    0.74550    1.000
    C361     C        0.78500    0.95400    0.20200    1.000
    H308     H        0.73860    0.94060    0.18450    1.000
    C362     C        0.80300    0.94600    0.25100    1.000
    H309     H        0.77170    0.93100    0.26890    1.000
    C363     C        0.91800    0.95100    0.25060    1.000
    H310     H        0.96460    0.93710    0.26630    1.000
    C364     C        0.89000    0.95900    0.19660    1.000
    H311     H        0.92010    0.95020    0.17730    1.000
    O135     O        0.03180    0.67810    0.82520    1.000
    C365     C        0.05990    0.71700    0.79930    1.000
    N16      N        0.02440    0.76850    0.77640    1.000
    C366     C        0.97800    0.81000    0.79980    1.000
    H312     H        0.96730    0.78220    0.82550    1.000
    H313     H        0.93560    0.81950    0.77340    1.000
    H314     H        0.99980    0.85410    0.81370    1.000
    C367     C        0.05770    0.81700    0.74770    1.000
    H315     H        0.08930    0.78640    0.73670    1.000
    H316     H        0.08080    0.86070    0.76030    1.000
    H317     H        0.01670    0.82620    0.72000    1.000
    C368     C        0.11380    0.68100    0.77670    1.000
    H318     H        0.12540    0.63700    0.79500    1.000
    H319     H        0.15580    0.70870    0.78070    1.000
    H320     H        0.09240    0.67080    0.74170    1.000
    O136     O        0.13400    0.47100    0.83160    1.000
