# CIF file generated by openbabel 3.1.0, see https://openbabel.org
data_I
_chemical_name_common 'image0'
_cell_length_a 7.7351
_cell_length_b 10.8172
_cell_length_c 7.154
_cell_angle_alpha 90
_cell_angle_beta 90
_cell_angle_gamma 90
_space_group_name_H-M_alt 'P 1'
_space_group_name_Hall 'P 1'
loop_
    _symmetry_equiv_pos_as_xyz
    x,y,z
loop_
    _atom_site_label
    _atom_site_type_symbol
    _atom_site_fract_x
    _atom_site_fract_y
    _atom_site_fract_z
    _atom_site_occupancy
    N1       N        0.09110    0.58155    0.39540    1.000
    N2       N        0.92140    0.59212    0.40410    1.000
    C1       C        0.16350    0.48930    0.49080    1.000
    H1       H        0.28400    0.48100    0.48300    1.000
    N3       N        0.90890    0.08155    0.60460    1.000
    N4       N        0.07860    0.09212    0.59590    1.000
    C2       C        0.83650    0.98930    0.50920    1.000
    H2       H        0.71600    0.98100    0.51700    1.000
    N5       N        0.90890    0.41845    0.60460    1.000
    N6       N        0.07860    0.40788    0.59590    1.000
    C3       C        0.83650    0.51070    0.50920    1.000
    H3       H        0.71600    0.51900    0.51700    1.000
    N7       N        0.09110    0.91845    0.39540    1.000
    N8       N        0.92140    0.90788    0.40410    1.000
    C4       C        0.16350    0.01070    0.49080    1.000
    H4       H        0.28400    0.01900    0.48300    1.000
    Ag1      Ag       0.27445    0.75000    0.29211    1.000
    Ag2      Ag       0.72555    0.25000    0.70789    1.000
    N9       N        0.40890    0.41845    0.89540    1.000
    N10      N        0.57860    0.40788    0.90410    1.000
    C5       C        0.33650    0.51070    0.99080    1.000
    H5       H        0.21600    0.51900    0.98300    1.000
    N11      N        0.59110    0.91845    0.10460    1.000
    N12      N        0.42140    0.90788    0.09590    1.000
    C6       C        0.66350    0.01070    0.00920    1.000
    H6       H        0.78400    0.01900    0.01700    1.000
    N13      N        0.59110    0.58155    0.10460    1.000
    N14      N        0.42140    0.59212    0.09590    1.000
    C7       C        0.66350    0.48930    0.00920    1.000
    H7       H        0.78400    0.48100    0.01700    1.000
    N15      N        0.40890    0.08155    0.89540    1.000
    N16      N        0.57860    0.09212    0.90410    1.000
    C8       C        0.33650    0.98930    0.99080    1.000
    H8       H        0.21600    0.98100    0.98300    1.000
    Ag3      Ag       0.22555    0.25000    0.79211    1.000
    Ag4      Ag       0.77445    0.75000    0.20789    1.000
