data_functionalizedCrystal
_audit_creation_method	'EQeq! by Chris Wilmer'
_symmetry_space_group_name_H-M	'P1'
_symmetry_Int_Tables_number	1
_symmetry_cell_setting	triclinic
loop_
_symmetry_equiv_pos_as_xyz
  x,y,z
_cell_length_a	9.0808
_cell_length_b	9.641
_cell_length_c	11.6416
_cell_angle_alpha	108.051
_cell_angle_beta	94.17
_cell_angle_gamma	108.174
loop_
_atom_site_label
_atom_site_type_symbol
_atom_site_fract_x
_atom_site_fract_y
_atom_site_fract_z
_atom_site_charge
Mof_Tb	Tb	0.2789	0.02876	0.99152	1.974
Mof_O 	O 	0.4225	0.8907	0.0507	-0.612
Mof_O 	O 	0.3012	0.8809	0.7871	-0.432
Mof_O 	O 	0.9114	0.2256	0.0758	-0.501
Mof_O 	O 	0.576	0.7607	0.0779	-0.461
Mof_O 	O 	0.1168	0.9839	0.7944	-0.404
Mof_C 	C 	0.9564	0.5635	0.2102	-0.219
Mof_C 	C 	0.0551	0.2694	0.0737	0.489
Mof_N 	N 	0.1919	0.6952	0.1463	-0.081
Mof_N 	N 	0.0899	0.5587	0.1457	-0.033
Mof_C 	C 	0.2881	0.5041	0.0706	0.036
Mof_C 	C 	0.4446	0.7791	0.075	0.401
Mof_C 	C 	0.1845	0.8943	0.7339	0.344
Mof_C 	C 	0.3132	0.6591	0.0985	-0.072
Mof_C 	C 	0.1212	0.8044	0.5979	-0.141
Mof_C 	C 	0.1454	0.4404	0.1005	-0.1
Mof_C 	C 	0.0151	0.6481	0.3475	0.152
Mof_C 	C 	0.1268	0.6122	0.4114	-0.166
Mof_C 	C 	0.1807	0.6912	0.5346	0.078
Mof_C 	C 	0.0071	0.8343	0.5361	0.092
Mof_C 	C 	0.956	0.7591	0.4106	-0.177
Mof_O 	O 	0.1358	0.1837	0.0468	-0.591
Mof_H 	H 	0.367	0.458	0.026	0.027
Mof_H 	H 	0.277	0.653	0.568	0.008
Mof_H 	H 	0.884	0.475	0.191	0.136
Mof_H 	H 	0.195	0.563	0.369	0.088
Mof_H 	H 	0.923	0.895	0.564	0.004
Mof_H 	H 	0.875	0.763	0.347	0.078
Mof_H 	H 	0.913	0.643	0.179	0.083
Mof_Tb	Tb	0.7211	0.97124	0.00848	1.974
Mof_O 	O 	0.5775	0.1093	0.9493	-0.612
Mof_O 	O 	0.6988	0.1191	0.2129	-0.432
Mof_O 	O 	0.0886	0.7744	0.9242	-0.501
Mof_O 	O 	0.424	0.2393	0.9221	-0.461
Mof_O 	O 	0.8832	0.0161	0.2056	-0.404
Mof_C 	C 	0.0436	0.4365	0.7898	-0.219
Mof_C 	C 	0.9449	0.7306	0.9263	0.489
Mof_N 	N 	0.8081	0.3048	0.8537	-0.081
Mof_N 	N 	0.9101	0.4413	0.8543	-0.033
Mof_C 	C 	0.7119	0.4959	0.9294	0.036
Mof_C 	C 	0.5554	0.2209	0.925	0.401
Mof_C 	C 	0.8155	0.1057	0.2661	0.344
Mof_C 	C 	0.6868	0.3409	0.9015	-0.072
Mof_C 	C 	0.8788	0.1956	0.4021	-0.141
Mof_C 	C 	0.8546	0.5596	0.8995	-0.1
Mof_C 	C 	0.9849	0.3519	0.6525	0.152
Mof_C 	C 	0.8732	0.3878	0.5886	-0.166
Mof_C 	C 	0.8193	0.3088	0.4654	0.078
Mof_C 	C 	0.9929	0.1657	0.4639	0.092
Mof_C 	C 	0.044	0.2409	0.5894	-0.177
Mof_O 	O 	0.8642	0.8163	0.9532	-0.591
Mof_H 	H 	0.633	0.542	0.974	0.027
Mof_H 	H 	0.723	0.347	0.432	0.008
Mof_H 	H 	0.116	0.525	0.809	0.136
Mof_H 	H 	0.805	0.437	0.631	0.088
Mof_H 	H 	0.077	0.105	0.436	0.004
Mof_H 	H 	0.125	0.237	0.653	0.078
Mof_H 	H 	0.087	0.357	0.821	0.083
_end
