data_functionalizedCrystal
_audit_creation_method	'EQeq! by Chris Wilmer'
_symmetry_space_group_name_H-M	'P1'
_symmetry_Int_Tables_number	1
_symmetry_cell_setting	triclinic
loop_
_symmetry_equiv_pos_as_xyz
  x,y,z
_cell_length_a	7.1291
_cell_length_b	16.0748
_cell_length_c	11.0375
_cell_angle_alpha	90
_cell_angle_beta	90
_cell_angle_gamma	90
loop_
_atom_site_label
_atom_site_type_symbol
_atom_site_fract_x
_atom_site_fract_y
_atom_site_fract_z
_atom_site_charge
Mof_Cd	Cd	0.54464	0.22384	0.86621	0.46
Mof_O 	O 	0.4287	0.11171	0.9853	-0.164
Mof_O 	O 	0.2572	0.22457	0.9986	-0.2
Mof_C 	C 	0.2884	0.1498	0.0247	0.133
Mof_C 	C 	0.1559	0.1046	0.1091	0
Mof_C 	C 	0.2004	0.0248	0.1515	-0.041
Mof_H 	H 	0.3112	0.9995	0.1268	0.065
Mof_C 	C 	0.0798	0.983	0.2307	-0.036
Mof_C 	C 	0.1333	0.8987	0.2847	0.315
Mof_O 	O 	0.3009	0.8773	0.2709	-0.291
Mof_O 	O 	0.0071	0.86063	0.3381	-0.295
Mof_C 	C 	0.911	0.0201	0.2656	-0.049
Mof_H 	H 	0.8288	0.9922	0.3168	0.073
Mof_C 	C 	0.867	0.0993	0.2229	0.015
Mof_C 	C 	0.6914	0.1372	0.2593	0.077
Mof_N 	N 	0.55	0.1651	0.2892	-0.108
Mof_C 	C 	0.99	0.1422	0.1464	-0.067
Mof_H 	H 	0.9609	0.1958	0.1206	0.069
Mof_Cd	Cd	0.45536	0.77616	0.36621	0.448
Mof_O 	O 	0.5713	0.88829	0.4853	-0.258
Mof_O 	O 	0.7428	0.77543	0.4986	-0.293
Mof_C 	C 	0.7116	0.8502	0.5247	0.304
Mof_C 	C 	0.8441	0.8954	0.6091	-0.04
Mof_C 	C 	0.7996	0.9752	0.6515	-0.01
Mof_H 	H 	0.6888	0.0005	0.6268	0.071
Mof_C 	C 	0.9202	0.017	0.7307	-0.036
Mof_C 	C 	0.8667	0.1013	0.7847	0.322
Mof_O 	O 	0.6991	0.1227	0.7709	-0.283
Mof_O 	O 	0.9929	0.13937	0.8381	-0.281
Mof_C 	C 	0.089	0.9799	0.7656	-0.036
Mof_H 	H 	0.1712	0.0078	0.8168	0.08
Mof_C 	C 	0.133	0.9007	0.7229	0.011
Mof_C 	C 	0.3086	0.8628	0.7593	0.099
Mof_N 	N 	0.45	0.8349	0.7892	-0.1
Mof_C 	C 	0.01	0.8578	0.6464	-0.029
Mof_H 	H 	0.0391	0.8042	0.6206	0.077
Mof_Cd	Cd	0.04464	0.27616	0.86621	0.456
Mof_O 	O 	0.9287	0.38829	0.9853	-0.161
Mof_O 	O 	0.7572	0.27543	0.9986	-0.196
Mof_C 	C 	0.7884	0.3502	0.0247	0.128
Mof_C 	C 	0.6559	0.3954	0.1091	0
Mof_C 	C 	0.7004	0.4752	0.1515	-0.039
Mof_H 	H 	0.8112	0.5005	0.1268	0.064
Mof_C 	C 	0.5798	0.517	0.2307	-0.038
Mof_C 	C 	0.6333	0.6013	0.2847	0.316
Mof_O 	O 	0.8009	0.6227	0.2709	-0.292
Mof_O 	O 	0.5071	0.63937	0.3381	-0.296
Mof_C 	C 	0.411	0.4799	0.2656	-0.05
Mof_H 	H 	0.3288	0.5078	0.3168	0.074
Mof_C 	C 	0.367	0.4007	0.2229	0.016
Mof_C 	C 	0.1914	0.3628	0.2593	0.077
Mof_N 	N 	0.05	0.3349	0.2892	-0.107
Mof_C 	C 	0.49	0.3578	0.1464	-0.067
Mof_H 	H 	0.4609	0.3042	0.1206	0.069
Mof_Cd	Cd	0.95536	0.72384	0.36621	0.446
Mof_O 	O 	0.0713	0.61171	0.4853	-0.258
Mof_O 	O 	0.2428	0.72457	0.4986	-0.292
Mof_C 	C 	0.2116	0.6498	0.5247	0.304
Mof_C 	C 	0.3441	0.6046	0.6091	-0.041
Mof_C 	C 	0.2996	0.5248	0.6515	-0.004
Mof_H 	H 	0.1888	0.4995	0.6268	0.067
Mof_C 	C 	0.4202	0.483	0.7307	-0.042
Mof_C 	C 	0.3667	0.3987	0.7847	0.323
Mof_O 	O 	0.1991	0.3773	0.7709	-0.284
Mof_O 	O 	0.4929	0.36063	0.8381	-0.283
Mof_C 	C 	0.589	0.5201	0.7656	-0.031
Mof_H 	H 	0.6712	0.4922	0.8168	0.08
Mof_C 	C 	0.633	0.5993	0.7229	0.01
Mof_C 	C 	0.8086	0.6372	0.7593	0.1
Mof_N 	N 	0.95	0.6651	0.7892	-0.1
Mof_C 	C 	0.51	0.6422	0.6464	-0.027
Mof_H 	H 	0.5391	0.6958	0.6206	0.076
_end
