data_functionalizedCrystal
_audit_creation_method	'EQeq! by Chris Wilmer'
_symmetry_space_group_name_H-M	'P1'
_symmetry_Int_Tables_number	1
_symmetry_cell_setting	triclinic
loop_
_symmetry_equiv_pos_as_xyz
  x,y,z
_cell_length_a	20.745
_cell_length_b	8.3255
_cell_length_c	17.3435
_cell_angle_alpha	90
_cell_angle_beta	90
_cell_angle_gamma	90
loop_
_atom_site_label
_atom_site_type_symbol
_atom_site_fract_x
_atom_site_fract_y
_atom_site_fract_z
_atom_site_charge
Mof_C 	C 	0.4109	0.1013	0.3599	0.199
Mof_C 	C 	0.37649	0.1638	0.4298	0.008
Mof_C 	C 	0.32246	0.2652	0.4296	-0.065
Mof_C 	C 	0.29444	0.3232	0.3546	0.322
Mof_O 	O 	0.46004	0.1757	0.33823	-0.217
Mof_O 	O 	0.39283	0.9692	0.3307	-0.154
Mof_O 	O 	0.31363	0.2616	0.29301	-0.258
Mof_O 	O 	0.25446	0.4353	0.35786	-0.268
Mof_C 	C 	0.9109	0.6013	0.8599	0.282
Mof_C 	C 	0.87649	0.6638	0.9298	0.002
Mof_C 	C 	0.82246	0.7652	0.9296	-0.015
Mof_C 	C 	0.79444	0.8232	0.8546	0.312
Mof_O 	O 	0.96004	0.6757	0.83823	-0.199
Mof_O 	O 	0.89283	0.4692	0.8307	-0.235
Mof_O 	O 	0.81363	0.7616	0.79301	-0.236
Mof_O 	O 	0.75446	0.9353	0.85786	-0.221
Mof_C 	C 	0.5891	0.8987	0.3599	0.372
Mof_C 	C 	0.62351	0.8362	0.4298	-0.038
Mof_C 	C 	0.67754	0.7348	0.4296	-0.015
Mof_C 	C 	0.70556	0.6768	0.3546	0.315
Mof_O 	O 	0.53996	0.8243	0.33823	-0.234
Mof_O 	O 	0.60717	0.0308	0.3307	-0.305
Mof_O 	O 	0.68637	0.7384	0.29301	-0.236
Mof_O 	O 	0.74554	0.5647	0.35786	-0.259
Mof_C 	C 	0.0891	0.3987	0.8599	0.285
Mof_C 	C 	0.12351	0.3362	0.9298	-0.009
Mof_C 	C 	0.17754	0.2348	0.9296	-0.036
Mof_C 	C 	0.20556	0.1768	0.8546	0.318
Mof_O 	O 	0.03996	0.3243	0.83823	-0.255
Mof_O 	O 	0.10717	0.5308	0.8307	-0.238
Mof_O 	O 	0.18637	0.2384	0.79301	-0.266
Mof_O 	O 	0.24554	0.0647	0.85786	-0.28
Mof_C 	C 	0.0891	0.6013	0.6401	0.29
Mof_C 	C 	0.12351	0.6638	0.5702	-0.026
Mof_C 	C 	0.17754	0.7652	0.5704	-0.026
Mof_C 	C 	0.20556	0.8232	0.6454	0.312
Mof_O 	O 	0.03996	0.6757	0.66177	-0.237
Mof_O 	O 	0.10717	0.4692	0.6693	-0.253
Mof_O 	O 	0.18637	0.7616	0.70699	-0.24
Mof_O 	O 	0.24554	0.9353	0.64214	-0.226
Mof_C 	C 	0.5891	0.1013	0.1401	0.197
Mof_C 	C 	0.62351	0.1638	0.0702	0.009
Mof_C 	C 	0.67754	0.2652	0.0704	-0.061
Mof_C 	C 	0.70556	0.3232	0.1454	0.32
Mof_O 	O 	0.53996	0.1757	0.16177	-0.217
Mof_O 	O 	0.60717	0.9692	0.1693	-0.155
Mof_O 	O 	0.68637	0.2616	0.20699	-0.258
Mof_O 	O 	0.74554	0.4353	0.14214	-0.268
Mof_C 	C 	0.9109	0.3987	0.6401	0.282
Mof_C 	C 	0.87649	0.3362	0.5702	-0.009
Mof_C 	C 	0.82246	0.2348	0.5704	-0.054
Mof_C 	C 	0.79444	0.1768	0.6454	0.324
Mof_O 	O 	0.96004	0.3243	0.66177	-0.224
Mof_O 	O 	0.89283	0.5308	0.6693	-0.226
Mof_O 	O 	0.81363	0.2384	0.70699	-0.264
Mof_O 	O 	0.75446	0.0647	0.64214	-0.283
Mof_C 	C 	0.4109	0.8987	0.1401	0.37
Mof_C 	C 	0.37649	0.8362	0.0702	-0.035
Mof_C 	C 	0.32246	0.7348	0.0704	-0.012
Mof_C 	C 	0.29444	0.6768	0.1454	0.313
Mof_O 	O 	0.46004	0.8243	0.16177	-0.235
Mof_O 	O 	0.39283	0.0308	0.1693	-0.305
Mof_O 	O 	0.31363	0.7384	0.20699	-0.235
Mof_O 	O 	0.25446	0.5647	0.14214	-0.26
Mof_C 	C 	0.5891	0.8987	0.6401	0.372
Mof_C 	C 	0.62351	0.8362	0.5702	-0.038
Mof_C 	C 	0.67754	0.7348	0.5704	-0.015
Mof_C 	C 	0.70556	0.6768	0.6454	0.315
Mof_O 	O 	0.53996	0.8243	0.66177	-0.234
Mof_O 	O 	0.60717	0.0308	0.6693	-0.305
Mof_O 	O 	0.68637	0.7384	0.70699	-0.235
Mof_O 	O 	0.74554	0.5647	0.64214	-0.259
Mof_C 	C 	0.0891	0.3987	0.1401	0.286
Mof_C 	C 	0.12351	0.3362	0.0702	-0.02
Mof_C 	C 	0.17754	0.2348	0.0704	-0.048
Mof_C 	C 	0.20556	0.1768	0.1454	0.319
Mof_O 	O 	0.03996	0.3243	0.16177	-0.259
Mof_O 	O 	0.10717	0.5308	0.1693	-0.241
Mof_O 	O 	0.18637	0.2384	0.20699	-0.267
Mof_O 	O 	0.24554	0.0647	0.14214	-0.284
Mof_C 	C 	0.4109	0.1013	0.6401	0.198
Mof_C 	C 	0.37649	0.1638	0.5702	0.007
Mof_C 	C 	0.32246	0.2652	0.5704	-0.065
Mof_C 	C 	0.29444	0.3232	0.6454	0.321
Mof_O 	O 	0.46004	0.1757	0.66177	-0.217
Mof_O 	O 	0.39283	0.9692	0.6693	-0.154
Mof_O 	O 	0.31363	0.2616	0.70699	-0.257
Mof_O 	O 	0.25446	0.4353	0.64214	-0.267
Mof_C 	C 	0.9109	0.6013	0.1401	0.283
Mof_C 	C 	0.87649	0.6638	0.0702	-0.01
Mof_C 	C 	0.82246	0.7652	0.0704	-0.026
Mof_C 	C 	0.79444	0.8232	0.1454	0.313
Mof_O 	O 	0.96004	0.6757	0.16177	-0.203
Mof_O 	O 	0.89283	0.4692	0.1693	-0.238
Mof_O 	O 	0.81363	0.7616	0.20699	-0.237
Mof_O 	O 	0.75446	0.9353	0.14214	-0.225
Mof_C 	C 	0.9109	0.3987	0.3599	0.282
Mof_C 	C 	0.87649	0.3362	0.4298	-0.009
Mof_C 	C 	0.82246	0.2348	0.4296	-0.054
Mof_C 	C 	0.79444	0.1768	0.3546	0.324
Mof_O 	O 	0.96004	0.3243	0.33823	-0.224
Mof_O 	O 	0.89283	0.5308	0.3307	-0.226
Mof_O 	O 	0.81363	0.2384	0.29301	-0.264
Mof_O 	O 	0.75446	0.0647	0.35786	-0.283
Mof_C 	C 	0.4109	0.8987	0.8599	0.369
Mof_C 	C 	0.37649	0.8362	0.9298	-0.023
Mof_C 	C 	0.32246	0.7348	0.9296	-0.001
Mof_C 	C 	0.29444	0.6768	0.8546	0.312
Mof_O 	O 	0.46004	0.8243	0.83823	-0.231
Mof_O 	O 	0.39283	0.0308	0.8307	-0.302
Mof_O 	O 	0.31363	0.7384	0.79301	-0.235
Mof_O 	O 	0.25446	0.5647	0.85786	-0.256
Mof_C 	C 	0.0891	0.6013	0.3599	0.29
Mof_C 	C 	0.12351	0.6638	0.4298	-0.026
Mof_C 	C 	0.17754	0.7652	0.4296	-0.026
Mof_C 	C 	0.20556	0.8232	0.3546	0.312
Mof_O 	O 	0.03996	0.6757	0.33823	-0.237
Mof_O 	O 	0.10717	0.4692	0.3307	-0.253
Mof_O 	O 	0.18637	0.7616	0.29301	-0.24
Mof_O 	O 	0.24554	0.9353	0.35786	-0.226
Mof_C 	C 	0.5891	0.1013	0.8599	0.196
Mof_C 	C 	0.62351	0.1638	0.9298	0.021
Mof_C 	C 	0.67754	0.2652	0.9296	-0.049
Mof_C 	C 	0.70556	0.3232	0.8546	0.319
Mof_O 	O 	0.53996	0.1757	0.83823	-0.214
Mof_O 	O 	0.60717	0.9692	0.8307	-0.151
Mof_O 	O 	0.68637	0.2616	0.79301	-0.257
Mof_O 	O 	0.74554	0.4353	0.85786	-0.263
Mof_C 	C 	0.4032	0.1171	0.5	-0.052
Mof_H 	H 	0.4399	0.053	0.5	0.057
Mof_C 	C 	0.2974	0.3169	0.5	0.015
Mof_H 	H 	0.2628	0.3881	0.5	0.064
Mof_C 	C 	0.9032	0.6171	-0	-0.035
Mof_H 	H 	0.9399	0.553	-0	0.076
Mof_C 	C 	0.7974	0.8169	-0	-0.02
Mof_H 	H 	0.7628	0.8881	-0	0.088
Mof_C 	C 	0.5968	0.8829	0.5	0.017
Mof_H 	H 	0.5601	0.947	0.5	0.074
Mof_C 	C 	0.7026	0.6831	0.5	-0.009
Mof_H 	H 	0.7372	0.6119	0.5	0.08
Mof_C 	C 	0.0968	0.3829	-0	-0.037
Mof_H 	H 	0.0601	0.447	-0	0.059
Mof_C 	C 	0.2026	0.1831	-0	-0.015
Mof_H 	H 	0.2372	0.1119	-0	0.061
Mof_C 	C 	0.0968	0.6171	0.5	-0.006
Mof_H 	H 	0.0601	0.553	0.5	0.052
Mof_C 	C 	0.2026	0.8169	0.5	-0.006
Mof_H 	H 	0.2372	0.8881	0.5	0.087
Mof_C 	C 	0.5968	0.1171	-0	-0.072
Mof_H 	H 	0.5601	0.053	-0	0.06
Mof_C 	C 	0.7026	0.3169	-0	-0.005
Mof_H 	H 	0.7372	0.3881	-0	0.067
Mof_C 	C 	0.9032	0.3829	0.5	-0.025
Mof_H 	H 	0.9399	0.447	0.5	0.078
Mof_C 	C 	0.7974	0.1831	0.5	0.012
Mof_H 	H 	0.7628	0.1119	0.5	0.057
Mof_C 	C 	0.4032	0.8829	-0	-0.004
Mof_H 	H 	0.4399	0.947	-0	0.077
Mof_C 	C 	0.2974	0.6831	-0	-0.03
Mof_H 	H 	0.2628	0.6119	-0	0.082
Mof_Cd	Cd	0.5	4.21366e-33	0.25	0.451
Mof_Cd	Cd	2.35097e-33	0.5	0.75	0.48
Mof_Cd	Cd	0.5	1.68547e-32	0.75	0.452
Mof_Cd	Cd	2.89049e-33	0.5	0.25	0.48
Mof_Cd	Cd	0.20249	0.5	0.25	0.523
Mof_Cd	Cd	0.79751	0.5	0.25	0.524
Mof_Cd	Cd	0.29751	1.68547e-32	0.75	0.456
Mof_Cd	Cd	0.70249	1.68547e-32	0.75	0.457
Mof_Cd	Cd	0.79751	0.5	0.75	0.525
Mof_Cd	Cd	0.20249	0.5	0.75	0.523
Mof_Cd	Cd	0.70249	4.21366e-33	0.25	0.457
Mof_Cd	Cd	0.29751	4.21366e-33	0.25	0.456
_end
