# CIF file generated by openbabel 3.1.0, see https://openbabel.org
data_I
_chemical_name_common 'image0'
_cell_length_a 18.845
_cell_length_b 29.996
_cell_length_c 12.41
_cell_angle_alpha 90
_cell_angle_beta 90
_cell_angle_gamma 90
_space_group_name_H-M_alt 'P 1'
_space_group_name_Hall 'P 1'
loop_
    _symmetry_equiv_pos_as_xyz
    x,y,z
loop_
    _atom_site_label
    _atom_site_type_symbol
    _atom_site_fract_x
    _atom_site_fract_y
    _atom_site_fract_z
    _atom_site_occupancy
    Cd1      Cd       0.09219    0.65333    0.56054    1.000
    Cd2      Cd       0.17650    0.61020    0.81729    1.000
    Cd3      Cd       0.36493    0.61401    0.82189    1.000
    O1       O        0.20460    0.67765    0.48910    1.000
    O2       O        0.12790    0.64475    0.38220    1.000
    O3       O        0.17720    0.62781    0.99340    1.000
    O4       O        0.27800    0.65177    0.92330    1.000
    O5       O        0.62090    0.66794    0.26630    1.000
    O6       O        0.64770    0.71807    0.14280    1.000
    O7       O        0.26660    0.61000    0.69450    1.000
    O8       O        0.16850    0.58856    0.61220    1.000
    O9       O        0.47320    0.64765    0.47490    1.000
    O10      O        0.50720    0.59885    0.35440    1.000
    O11      O        0.34670    0.56130    0.94410    1.000
    O12      O        0.23840    0.54759    0.87890    1.000
    N1       N        0.42870    0.56541    0.71510    1.000
    C1       C        0.18680    0.66490    0.39700    1.000
    C2       C        0.23390    0.67210    0.30190    1.000
    C3       C        0.29800    0.69582    0.31300    1.000
    H1       H        0.31050    0.70760    0.37970    1.000
    C4       C        0.34280    0.70177    0.22500    1.000
    C5       C        0.32330    0.68490    0.12460    1.000
    H2       H        0.35330    0.68860    0.06580    1.000
    C6       C        0.25920    0.66256    0.11190    1.000
    C7       C        0.21520    0.65610    0.20060    1.000
    H3       H        0.17260    0.64080    0.19210    1.000
    C8       C        0.23730    0.64633    0.00230    1.000
    C9       C        0.41130    0.72742    0.23750    1.000
    C10      C        0.47560    0.70513    0.22400    1.000
    H4       H        0.47550    0.67500    0.20600    1.000
    C11      C        0.53970    0.72714    0.23710    1.000
    C12      C        0.60860    0.70348    0.21300    1.000
    C13      C        0.23470    0.59500    0.61200    1.000
    C14      C        0.27830    0.58442    0.51540    1.000
    C15      C        0.34450    0.60446    0.50530    1.000
    H5       H        0.35970    0.62480    0.55690    1.000
    C16      C        0.38790    0.59430    0.41860    1.000
    C17      C        0.46020    0.61550    0.41420    1.000
    C18      C        0.36450    0.56414    0.34110    1.000
    H6       H        0.39490    0.55610    0.28530    1.000
    C19      C        0.29630    0.54565    0.34480    1.000
    C20      C        0.25320    0.55580    0.43400    1.000
    H7       H        0.20800    0.54360    0.43920    1.000
    C21      C        0.27040    0.51983    0.24920    1.000
    C22      C        0.28830    0.53883    0.14870    1.000
    H8       H        0.31400    0.56530    0.14800    1.000
    C23      C        0.26920    0.51990    0.05120    1.000
    C24      C        0.28610    0.54410    0.94890    1.000
    C25      C        0.49130    0.57540    0.66920    1.000
    H9       H        0.51560    0.60050    0.69340    1.000
    C26      C        0.52160    0.55030    0.58760    1.000
    H10      H        0.56560    0.55840    0.56000    1.000
    C27      C        0.48640    0.51289    0.54650    1.000
    C28      C        0.42300    0.50151    0.59720    1.000
    H11      H        0.39810    0.47630    0.57530    1.000
    C29      C        0.39700    0.52780    0.68070    1.000
    H12      H        0.35530    0.51890    0.71460    1.000
    Cd4      Cd       0.40781    0.34667    0.56054    1.000
    Cd5      Cd       0.32350    0.38980    0.81729    1.000
    Cd6      Cd       0.13507    0.38599    0.82189    1.000
    O13      O        0.29540    0.32235    0.48910    1.000
    O14      O        0.37210    0.35525    0.38220    1.000
    O15      O        0.32280    0.37219    0.99340    1.000
    O16      O        0.22200    0.34823    0.92330    1.000
    O17      O        0.87910    0.33206    0.26630    1.000
    O18      O        0.85230    0.28193    0.14280    1.000
    O19      O        0.23340    0.39000    0.69450    1.000
    O20      O        0.33150    0.41144    0.61220    1.000
    O21      O        0.02680    0.35235    0.47490    1.000
    O22      O        0.99280    0.40115    0.35440    1.000
    O23      O        0.15330    0.43870    0.94410    1.000
    O24      O        0.26160    0.45241    0.87890    1.000
    N2       N        0.07130    0.43459    0.71510    1.000
    C30      C        0.31320    0.33510    0.39700    1.000
    C31      C        0.26610    0.32790    0.30190    1.000
    C32      C        0.20200    0.30418    0.31300    1.000
    H13      H        0.18950    0.29240    0.37970    1.000
    C33      C        0.15720    0.29823    0.22500    1.000
    C34      C        0.17670    0.31510    0.12460    1.000
    H14      H        0.14670    0.31140    0.06580    1.000
    C35      C        0.24080    0.33744    0.11190    1.000
    C36      C        0.28480    0.34390    0.20060    1.000
    H15      H        0.32740    0.35920    0.19210    1.000
    C37      C        0.26270    0.35367    0.00230    1.000
    C38      C        0.08870    0.27258    0.23750    1.000
    C39      C        0.02440    0.29487    0.22400    1.000
    H16      H        0.02450    0.32500    0.20600    1.000
    C40      C        0.96030    0.27286    0.23710    1.000
    C41      C        0.89140    0.29652    0.21300    1.000
    C42      C        0.26530    0.40500    0.61200    1.000
    C43      C        0.22170    0.41558    0.51540    1.000
    C44      C        0.15550    0.39554    0.50530    1.000
    H17      H        0.14030    0.37520    0.55690    1.000
    C45      C        0.11210    0.40570    0.41860    1.000
    C46      C        0.03980    0.38450    0.41420    1.000
    C47      C        0.13550    0.43586    0.34110    1.000
    H18      H        0.10510    0.44390    0.28530    1.000
    C48      C        0.20370    0.45435    0.34480    1.000
    C49      C        0.24680    0.44420    0.43400    1.000
    H19      H        0.29200    0.45640    0.43920    1.000
    C50      C        0.22960    0.48017    0.24920    1.000
    C51      C        0.21170    0.46117    0.14870    1.000
    H20      H        0.18600    0.43470    0.14800    1.000
    C52      C        0.23080    0.48010    0.05120    1.000
    C53      C        0.21390    0.45590    0.94890    1.000
    C54      C        0.00870    0.42460    0.66920    1.000
    H21      H        0.98440    0.39950    0.69340    1.000
    C55      C        0.97840    0.44970    0.58760    1.000
    H22      H        0.93440    0.44160    0.56000    1.000
    C56      C        0.01360    0.48711    0.54650    1.000
    C57      C        0.07700    0.49849    0.59720    1.000
    H23      H        0.10190    0.52370    0.57530    1.000
    C58      C        0.10300    0.47220    0.68070    1.000
    H24      H        0.14470    0.48110    0.71460    1.000
    Cd7      Cd       0.40781    0.15333    0.93946    1.000
    Cd8      Cd       0.32350    0.11020    0.68271    1.000
    Cd9      Cd       0.13507    0.11401    0.67811    1.000
    O25      O        0.29540    0.17765    0.01090    1.000
    O26      O        0.37210    0.14475    0.11780    1.000
    O27      O        0.32280    0.12781    0.50660    1.000
    O28      O        0.22200    0.15177    0.57670    1.000
    O29      O        0.87910    0.16794    0.23370    1.000
    O30      O        0.85230    0.21807    0.35720    1.000
    O31      O        0.23340    0.11000    0.80550    1.000
    O32      O        0.33150    0.08856    0.88780    1.000
    O33      O        0.02680    0.14765    0.02510    1.000
    O34      O        0.99280    0.09885    0.14560    1.000
    O35      O        0.15330    0.06130    0.55590    1.000
    O36      O        0.26160    0.04759    0.62110    1.000
    N3       N        0.07130    0.06541    0.78490    1.000
    C59      C        0.31320    0.16490    0.10300    1.000
    C60      C        0.26610    0.17210    0.19810    1.000
    C61      C        0.20200    0.19582    0.18700    1.000
    H25      H        0.18950    0.20760    0.12030    1.000
    C62      C        0.15720    0.20177    0.27500    1.000
    C63      C        0.17670    0.18490    0.37540    1.000
    H26      H        0.14670    0.18860    0.43420    1.000
    C64      C        0.24080    0.16256    0.38810    1.000
    C65      C        0.28480    0.15610    0.29940    1.000
    H27      H        0.32740    0.14080    0.30790    1.000
    C66      C        0.26270    0.14633    0.49770    1.000
    C67      C        0.08870    0.22742    0.26250    1.000
    C68      C        0.02440    0.20513    0.27600    1.000
    H28      H        0.02450    0.17500    0.29400    1.000
    C69      C        0.96030    0.22714    0.26290    1.000
    C70      C        0.89140    0.20348    0.28700    1.000
    C71      C        0.26530    0.09500    0.88800    1.000
    C72      C        0.22170    0.08442    0.98460    1.000
    C73      C        0.15550    0.10446    0.99470    1.000
    H29      H        0.14030    0.12480    0.94310    1.000
    C74      C        0.11210    0.09430    0.08140    1.000
    C75      C        0.03980    0.11550    0.08580    1.000
    C76      C        0.13550    0.06414    0.15890    1.000
    H30      H        0.10510    0.05610    0.21470    1.000
    C77      C        0.20370    0.04565    0.15520    1.000
    C78      C        0.24680    0.05580    0.06600    1.000
    H31      H        0.29200    0.04360    0.06080    1.000
    C79      C        0.22960    0.01983    0.25080    1.000
    C80      C        0.21170    0.03883    0.35130    1.000
    H32      H        0.18600    0.06530    0.35200    1.000
    C81      C        0.23080    0.01990    0.44880    1.000
    C82      C        0.21390    0.04410    0.55110    1.000
    C83      C        0.00870    0.07540    0.83080    1.000
    H33      H        0.98440    0.10050    0.80660    1.000
    C84      C        0.97840    0.05030    0.91240    1.000
    H34      H        0.93440    0.05840    0.94000    1.000
    C85      C        0.01360    0.01289    0.95350    1.000
    C86      C        0.07700    0.00151    0.90280    1.000
    H35      H        0.10190    0.97630    0.92470    1.000
    C87      C        0.10300    0.02780    0.81930    1.000
    H36      H        0.14470    0.01890    0.78540    1.000
    Cd10     Cd       0.09219    0.84667    0.93946    1.000
    Cd11     Cd       0.17650    0.88980    0.68271    1.000
    Cd12     Cd       0.36493    0.88599    0.67811    1.000
    O37      O        0.20460    0.82235    0.01090    1.000
    O38      O        0.12790    0.85525    0.11780    1.000
    O39      O        0.17720    0.87219    0.50660    1.000
    O40      O        0.27800    0.84823    0.57670    1.000
    O41      O        0.62090    0.83206    0.23370    1.000
    O42      O        0.64770    0.78193    0.35720    1.000
    O43      O        0.26660    0.89000    0.80550    1.000
    O44      O        0.16850    0.91144    0.88780    1.000
    O45      O        0.47320    0.85235    0.02510    1.000
    O46      O        0.50720    0.90115    0.14560    1.000
    O47      O        0.34670    0.93870    0.55590    1.000
    O48      O        0.23840    0.95241    0.62110    1.000
    N4       N        0.42870    0.93459    0.78490    1.000
    C88      C        0.18680    0.83510    0.10300    1.000
    C89      C        0.23390    0.82790    0.19810    1.000
    C90      C        0.29800    0.80418    0.18700    1.000
    H37      H        0.31050    0.79240    0.12030    1.000
    C91      C        0.34280    0.79823    0.27500    1.000
    C92      C        0.32330    0.81510    0.37540    1.000
    H38      H        0.35330    0.81140    0.43420    1.000
    C93      C        0.25920    0.83744    0.38810    1.000
    C94      C        0.21520    0.84390    0.29940    1.000
    H39      H        0.17260    0.85920    0.30790    1.000
    C95      C        0.23730    0.85367    0.49770    1.000
    C96      C        0.41130    0.77258    0.26250    1.000
    C97      C        0.47560    0.79487    0.27600    1.000
    H40      H        0.47550    0.82500    0.29400    1.000
    C98      C        0.53970    0.77286    0.26290    1.000
    C99      C        0.60860    0.79652    0.28700    1.000
    C100     C        0.23470    0.90500    0.88800    1.000
    C101     C        0.27830    0.91558    0.98460    1.000
    C102     C        0.34450    0.89554    0.99470    1.000
    H41      H        0.35970    0.87520    0.94310    1.000
    C103     C        0.38790    0.90570    0.08140    1.000
    C104     C        0.46020    0.88450    0.08580    1.000
    C105     C        0.36450    0.93586    0.15890    1.000
    H42      H        0.39490    0.94390    0.21470    1.000
    C106     C        0.29630    0.95435    0.15520    1.000
    C107     C        0.25320    0.94420    0.06600    1.000
    H43      H        0.20800    0.95640    0.06080    1.000
    C108     C        0.27040    0.98017    0.25080    1.000
    C109     C        0.28830    0.96117    0.35130    1.000
    H44      H        0.31400    0.93470    0.35200    1.000
    C110     C        0.26920    0.98010    0.44880    1.000
    C111     C        0.28610    0.95590    0.55110    1.000
    C112     C        0.49130    0.92460    0.83080    1.000
    H45      H        0.51560    0.89950    0.80660    1.000
    C113     C        0.52160    0.94970    0.91240    1.000
    H46      H        0.56560    0.94160    0.94000    1.000
    C114     C        0.48640    0.98711    0.95350    1.000
    C115     C        0.42300    0.99849    0.90280    1.000
    H47      H        0.39810    0.02370    0.92470    1.000
    C116     C        0.39700    0.97220    0.81930    1.000
    H48      H        0.35530    0.98110    0.78540    1.000
    Cd13     Cd       0.90781    0.34667    0.43946    1.000
    Cd14     Cd       0.82350    0.38980    0.18271    1.000
    Cd15     Cd       0.63507    0.38599    0.17811    1.000
    O49      O        0.79540    0.32235    0.51090    1.000
    O50      O        0.87210    0.35525    0.61780    1.000
    O51      O        0.82280    0.37219    0.00660    1.000
    O52      O        0.72200    0.34823    0.07670    1.000
    O53      O        0.37910    0.33206    0.73370    1.000
    O54      O        0.35230    0.28193    0.85720    1.000
    O55      O        0.73340    0.39000    0.30550    1.000
    O56      O        0.83150    0.41144    0.38780    1.000
    O57      O        0.52680    0.35235    0.52510    1.000
    O58      O        0.49280    0.40115    0.64560    1.000
    O59      O        0.65330    0.43870    0.05590    1.000
    O60      O        0.76160    0.45241    0.12110    1.000
    N5       N        0.57130    0.43459    0.28490    1.000
    C117     C        0.81320    0.33510    0.60300    1.000
    C118     C        0.76610    0.32790    0.69810    1.000
    C119     C        0.70200    0.30418    0.68700    1.000
    H49      H        0.68950    0.29240    0.62030    1.000
    C120     C        0.65720    0.29823    0.77500    1.000
    C121     C        0.67670    0.31510    0.87540    1.000
    H50      H        0.64670    0.31140    0.93420    1.000
    C122     C        0.74080    0.33744    0.88810    1.000
    C123     C        0.78480    0.34390    0.79940    1.000
    H51      H        0.82740    0.35920    0.80790    1.000
    C124     C        0.76270    0.35367    0.99770    1.000
    C125     C        0.58870    0.27258    0.76250    1.000
    C126     C        0.52440    0.29487    0.77600    1.000
    H52      H        0.52450    0.32500    0.79400    1.000
    C127     C        0.46030    0.27286    0.76290    1.000
    C128     C        0.39140    0.29652    0.78700    1.000
    C129     C        0.76530    0.40500    0.38800    1.000
    C130     C        0.72170    0.41558    0.48460    1.000
    C131     C        0.65550    0.39554    0.49470    1.000
    H53      H        0.64030    0.37520    0.44310    1.000
    C132     C        0.61210    0.40570    0.58140    1.000
    C133     C        0.53980    0.38450    0.58580    1.000
    C134     C        0.63550    0.43586    0.65890    1.000
    H54      H        0.60510    0.44390    0.71470    1.000
    C135     C        0.70370    0.45435    0.65520    1.000
    C136     C        0.74680    0.44420    0.56600    1.000
    H55      H        0.79200    0.45640    0.56080    1.000
    C137     C        0.72960    0.48017    0.75080    1.000
    C138     C        0.71170    0.46117    0.85130    1.000
    H56      H        0.68600    0.43470    0.85200    1.000
    C139     C        0.73080    0.48010    0.94880    1.000
    C140     C        0.71390    0.45590    0.05110    1.000
    C141     C        0.50870    0.42460    0.33080    1.000
    H57      H        0.48440    0.39950    0.30660    1.000
    C142     C        0.47840    0.44970    0.41240    1.000
    H58      H        0.43440    0.44160    0.44000    1.000
    C143     C        0.51360    0.48711    0.45350    1.000
    C144     C        0.57700    0.49849    0.40280    1.000
    H59      H        0.60190    0.52370    0.42470    1.000
    C145     C        0.60300    0.47220    0.31930    1.000
    H60      H        0.64470    0.48110    0.28540    1.000
    Cd16     Cd       0.59219    0.65333    0.43946    1.000
    Cd17     Cd       0.67650    0.61020    0.18271    1.000
    Cd18     Cd       0.86493    0.61401    0.17811    1.000
    O61      O        0.70460    0.67765    0.51090    1.000
    O62      O        0.62790    0.64475    0.61780    1.000
    O63      O        0.67720    0.62781    0.00660    1.000
    O64      O        0.77800    0.65177    0.07670    1.000
    O65      O        0.12090    0.66794    0.73370    1.000
    O66      O        0.14770    0.71807    0.85720    1.000
    O67      O        0.76660    0.61000    0.30550    1.000
    O68      O        0.66850    0.58856    0.38780    1.000
    O69      O        0.97320    0.64765    0.52510    1.000
    O70      O        0.00720    0.59885    0.64560    1.000
    O71      O        0.84670    0.56130    0.05590    1.000
    O72      O        0.73840    0.54759    0.12110    1.000
    N6       N        0.92870    0.56541    0.28490    1.000
    C146     C        0.68680    0.66490    0.60300    1.000
    C147     C        0.73390    0.67210    0.69810    1.000
    C148     C        0.79800    0.69582    0.68700    1.000
    H61      H        0.81050    0.70760    0.62030    1.000
    C149     C        0.84280    0.70177    0.77500    1.000
    C150     C        0.82330    0.68490    0.87540    1.000
    H62      H        0.85330    0.68860    0.93420    1.000
    C151     C        0.75920    0.66256    0.88810    1.000
    C152     C        0.71520    0.65610    0.79940    1.000
    H63      H        0.67260    0.64080    0.80790    1.000
    C153     C        0.73730    0.64633    0.99770    1.000
    C154     C        0.91130    0.72742    0.76250    1.000
    C155     C        0.97560    0.70513    0.77600    1.000
    H64      H        0.97550    0.67500    0.79400    1.000
    C156     C        0.03970    0.72714    0.76290    1.000
    C157     C        0.10860    0.70348    0.78700    1.000
    C158     C        0.73470    0.59500    0.38800    1.000
    C159     C        0.77830    0.58442    0.48460    1.000
    C160     C        0.84450    0.60446    0.49470    1.000
    H65      H        0.85970    0.62480    0.44310    1.000
    C161     C        0.88790    0.59430    0.58140    1.000
    C162     C        0.96020    0.61550    0.58580    1.000
    C163     C        0.86450    0.56414    0.65890    1.000
    H66      H        0.89490    0.55610    0.71470    1.000
    C164     C        0.79630    0.54565    0.65520    1.000
    C165     C        0.75320    0.55580    0.56600    1.000
    H67      H        0.70800    0.54360    0.56080    1.000
    C166     C        0.77040    0.51983    0.75080    1.000
    C167     C        0.78830    0.53883    0.85130    1.000
    H68      H        0.81400    0.56530    0.85200    1.000
    C168     C        0.76920    0.51990    0.94880    1.000
    C169     C        0.78610    0.54410    0.05110    1.000
    C170     C        0.99130    0.57540    0.33080    1.000
    H69      H        0.01560    0.60050    0.30660    1.000
    C171     C        0.02160    0.55030    0.41240    1.000
    H70      H        0.06560    0.55840    0.44000    1.000
    C172     C        0.98640    0.51289    0.45350    1.000
    C173     C        0.92300    0.50151    0.40280    1.000
    H71      H        0.89810    0.47630    0.42470    1.000
    C174     C        0.89700    0.52780    0.31930    1.000
    H72      H        0.85530    0.51890    0.28540    1.000
    Cd19     Cd       0.59219    0.84667    0.06054    1.000
    Cd20     Cd       0.67650    0.88980    0.31729    1.000
    Cd21     Cd       0.86493    0.88599    0.32189    1.000
    O73      O        0.70460    0.82235    0.98910    1.000
    O74      O        0.62790    0.85525    0.88220    1.000
    O75      O        0.67720    0.87219    0.49340    1.000
    O76      O        0.77800    0.84823    0.42330    1.000
    O77      O        0.12090    0.83206    0.76630    1.000
    O78      O        0.14770    0.78193    0.64280    1.000
    O79      O        0.76660    0.89000    0.19450    1.000
    O80      O        0.66850    0.91144    0.11220    1.000
    O81      O        0.97320    0.85235    0.97490    1.000
    O82      O        0.00720    0.90115    0.85440    1.000
    O83      O        0.84670    0.93870    0.44410    1.000
    O84      O        0.73840    0.95241    0.37890    1.000
    N7       N        0.92870    0.93459    0.21510    1.000
    C175     C        0.68680    0.83510    0.89700    1.000
    C176     C        0.73390    0.82790    0.80190    1.000
    C177     C        0.79800    0.80418    0.81300    1.000
    H73      H        0.81050    0.79240    0.87970    1.000
    C178     C        0.84280    0.79823    0.72500    1.000
    C179     C        0.82330    0.81510    0.62460    1.000
    H74      H        0.85330    0.81140    0.56580    1.000
    C180     C        0.75920    0.83744    0.61190    1.000
    C181     C        0.71520    0.84390    0.70060    1.000
    H75      H        0.67260    0.85920    0.69210    1.000
    C182     C        0.73730    0.85367    0.50230    1.000
    C183     C        0.91130    0.77258    0.73750    1.000
    C184     C        0.97560    0.79487    0.72400    1.000
    H76      H        0.97550    0.82500    0.70600    1.000
    C185     C        0.03970    0.77286    0.73710    1.000
    C186     C        0.10860    0.79652    0.71300    1.000
    C187     C        0.73470    0.90500    0.11200    1.000
    C188     C        0.77830    0.91558    0.01540    1.000
    C189     C        0.84450    0.89554    0.00530    1.000
    H77      H        0.85970    0.87520    0.05690    1.000
    C190     C        0.88790    0.90570    0.91860    1.000
    C191     C        0.96020    0.88450    0.91420    1.000
    C192     C        0.86450    0.93586    0.84110    1.000
    H78      H        0.89490    0.94390    0.78530    1.000
    C193     C        0.79630    0.95435    0.84480    1.000
    C194     C        0.75320    0.94420    0.93400    1.000
    H79      H        0.70800    0.95640    0.93920    1.000
    C195     C        0.77040    0.98017    0.74920    1.000
    C196     C        0.78830    0.96117    0.64870    1.000
    H80      H        0.81400    0.93470    0.64800    1.000
    C197     C        0.76920    0.98010    0.55120    1.000
    C198     C        0.78610    0.95590    0.44890    1.000
    C199     C        0.99130    0.92460    0.16920    1.000
    H81      H        0.01560    0.89950    0.19340    1.000
    C200     C        0.02160    0.94970    0.08760    1.000
    H82      H        0.06560    0.94160    0.06000    1.000
    C201     C        0.98640    0.98711    0.04650    1.000
    C202     C        0.92300    0.99849    0.09720    1.000
    H83      H        0.89810    0.02370    0.07530    1.000
    C203     C        0.89700    0.97220    0.18070    1.000
    H84      H        0.85530    0.98110    0.21460    1.000
    Cd22     Cd       0.90781    0.15333    0.06054    1.000
    Cd23     Cd       0.82350    0.11020    0.31729    1.000
    Cd24     Cd       0.63507    0.11401    0.32189    1.000
    O85      O        0.79540    0.17765    0.98910    1.000
    O86      O        0.87210    0.14475    0.88220    1.000
    O87      O        0.82280    0.12781    0.49340    1.000
    O88      O        0.72200    0.15177    0.42330    1.000
    O89      O        0.37910    0.16794    0.76630    1.000
    O90      O        0.35230    0.21807    0.64280    1.000
    O91      O        0.73340    0.11000    0.19450    1.000
    O92      O        0.83150    0.08856    0.11220    1.000
    O93      O        0.52680    0.14765    0.97490    1.000
    O94      O        0.49280    0.09885    0.85440    1.000
    O95      O        0.65330    0.06130    0.44410    1.000
    O96      O        0.76160    0.04759    0.37890    1.000
    N8       N        0.57130    0.06541    0.21510    1.000
    C204     C        0.81320    0.16490    0.89700    1.000
    C205     C        0.76610    0.17210    0.80190    1.000
    C206     C        0.70200    0.19582    0.81300    1.000
    H85      H        0.68950    0.20760    0.87970    1.000
    C207     C        0.65720    0.20177    0.72500    1.000
    C208     C        0.67670    0.18490    0.62460    1.000
    H86      H        0.64670    0.18860    0.56580    1.000
    C209     C        0.74080    0.16256    0.61190    1.000
    C210     C        0.78480    0.15610    0.70060    1.000
    H87      H        0.82740    0.14080    0.69210    1.000
    C211     C        0.76270    0.14633    0.50230    1.000
    C212     C        0.58870    0.22742    0.73750    1.000
    C213     C        0.52440    0.20513    0.72400    1.000
    H88      H        0.52450    0.17500    0.70600    1.000
    C214     C        0.46030    0.22714    0.73710    1.000
    C215     C        0.39140    0.20348    0.71300    1.000
    C216     C        0.76530    0.09500    0.11200    1.000
    C217     C        0.72170    0.08442    0.01540    1.000
    C218     C        0.65550    0.10446    0.00530    1.000
    H89      H        0.64030    0.12480    0.05690    1.000
    C219     C        0.61210    0.09430    0.91860    1.000
    C220     C        0.53980    0.11550    0.91420    1.000
    C221     C        0.63550    0.06414    0.84110    1.000
    H90      H        0.60510    0.05610    0.78530    1.000
    C222     C        0.70370    0.04565    0.84480    1.000
    C223     C        0.74680    0.05580    0.93400    1.000
    H91      H        0.79200    0.04360    0.93920    1.000
    C224     C        0.72960    0.01983    0.74920    1.000
    C225     C        0.71170    0.03883    0.64870    1.000
    H92      H        0.68600    0.06530    0.64800    1.000
    C226     C        0.73080    0.01990    0.55120    1.000
    C227     C        0.71390    0.04410    0.44890    1.000
    C228     C        0.50870    0.07540    0.16920    1.000
    H93      H        0.48440    0.10050    0.19340    1.000
    C229     C        0.47840    0.05030    0.08760    1.000
    H94      H        0.43440    0.05840    0.06000    1.000
    C230     C        0.51360    0.01289    0.04650    1.000
    C231     C        0.57700    0.00151    0.09720    1.000
    H95      H        0.60190    0.97630    0.07530    1.000
    C232     C        0.60300    0.02780    0.18070    1.000
    H96      H        0.64470    0.01890    0.21460    1.000
