# CIF file generated by openbabel 3.1.0, see https://openbabel.org
data_I
_chemical_name_common 'image0'
_cell_length_a 12.375
_cell_length_b 23.376
_cell_length_c 8.5893
_cell_angle_alpha 90
_cell_angle_beta 104.46
_cell_angle_gamma 90
_space_group_name_H-M_alt 'P 1'
_space_group_name_Hall 'P 1'
loop_
    _symmetry_equiv_pos_as_xyz
    x,y,z
loop_
    _atom_site_label
    _atom_site_type_symbol
    _atom_site_fract_x
    _atom_site_fract_y
    _atom_site_fract_z
    _atom_site_occupancy
    Cd1      Cd       0.23929    0.21877    0.45246    1.000
    O1       O        0.09410    0.93850    0.34620    1.000
    O2       O        0.24840    0.78280    0.62890    1.000
    O3       O        0.44320    0.94810    0.67320    1.000
    O4       O        0.21640    0.14190    0.61670    1.000
    O5       O        0.25560    0.11850    0.39390    1.000
    O6       O        0.89570    0.78450    0.10880    1.000
    O7       O        0.95140    0.70910    0.24380    1.000
    O8       O        0.70690    0.77350    0.78540    1.000
    O9       O        0.59440    0.76240    0.93740    1.000
    N1       N        0.16690    0.86010    0.48640    1.000
    N2       N        0.34540    0.86510    0.65480    1.000
    N3       N        0.27040    0.94380    0.50390    1.000
    C1       C        0.17070    0.91640    0.43840    1.000
    C2       C        0.25340    0.83250    0.59290    1.000
    C3       C        0.35690    0.92140    0.61140    1.000
    C4       C        0.06270    0.82680    0.42380    1.000
    H1       H        0.99990    0.85270    0.39070    1.000
    H2       H        0.04910    0.80220    0.50780    1.000
    C5       C        0.07390    0.79110    0.28270    1.000
    H3       H        0.13350    0.76340    0.31780    1.000
    H4       H        0.09310    0.81550    0.20230    1.000
    C6       C        0.96610    0.76010    0.20990    1.000
    C7       C        0.43720    0.83710    0.77330    1.000
    H5       H        0.40740    0.80590    0.82410    1.000
    H6       H        0.47090    0.86450    0.85620    1.000
    C8       C        0.52420    0.81460    0.69700    1.000
    H7       H        0.55900    0.84650    0.65550    1.000
    H8       H        0.48900    0.79040    0.60690    1.000
    C9       C        0.61340    0.78060    0.81280    1.000
    C10      C        0.27970    0.00510    0.46500    1.000
    H9       H        0.24260    0.01150    0.35280    1.000
    H10      H        0.35780    0.01490    0.48050    1.000
    C11      C        0.22870    0.04320    0.56790    1.000
    H11      H        0.26810    0.03810    0.67980    1.000
    H12      H        0.15160    0.03220    0.55630    1.000
    C12      C        0.23330    0.10540    0.52340    1.000
    Cd2      Cd       0.76071    0.71877    0.04754    1.000
    O10      O        0.90590    0.43850    0.15380    1.000
    O11      O        0.75160    0.28280    0.87110    1.000
    O12      O        0.55680    0.44810    0.82680    1.000
    O13      O        0.78360    0.64190    0.88330    1.000
    O14      O        0.74440    0.61850    0.10610    1.000
    O15      O        0.10430    0.28450    0.39120    1.000
    O16      O        0.04860    0.20910    0.25620    1.000
    O17      O        0.29310    0.27350    0.71460    1.000
    O18      O        0.40560    0.26240    0.56260    1.000
    N4       N        0.83310    0.36010    0.01360    1.000
    N5       N        0.65460    0.36510    0.84520    1.000
    N6       N        0.72960    0.44380    0.99610    1.000
    C13      C        0.82930    0.41640    0.06160    1.000
    C14      C        0.74660    0.33250    0.90710    1.000
    C15      C        0.64310    0.42140    0.88860    1.000
    C16      C        0.93730    0.32680    0.07620    1.000
    H13      H        0.00010    0.35270    0.10930    1.000
    H14      H        0.95090    0.30220    0.99220    1.000
    C17      C        0.92610    0.29110    0.21730    1.000
    H15      H        0.86650    0.26340    0.18220    1.000
    H16      H        0.90690    0.31550    0.29770    1.000
    C18      C        0.03390    0.26010    0.29010    1.000
    C19      C        0.56280    0.33710    0.72670    1.000
    H17      H        0.59260    0.30590    0.67590    1.000
    H18      H        0.52910    0.36450    0.64380    1.000
    C20      C        0.47580    0.31460    0.80300    1.000
    H19      H        0.44100    0.34650    0.84450    1.000
    H20      H        0.51100    0.29040    0.89310    1.000
    C21      C        0.38660    0.28060    0.68720    1.000
    C22      C        0.72030    0.50510    0.03500    1.000
    H21      H        0.75740    0.51150    0.14720    1.000
    H22      H        0.64220    0.51490    0.01950    1.000
    C23      C        0.77130    0.54320    0.93210    1.000
    H23      H        0.73190    0.53810    0.82020    1.000
    H24      H        0.84840    0.53220    0.94370    1.000
    C24      C        0.76670    0.60540    0.97660    1.000
    Cd3      Cd       0.76071    0.78123    0.54754    1.000
    O19      O        0.90590    0.06150    0.65380    1.000
    O20      O        0.75160    0.21720    0.37110    1.000
    O21      O        0.55680    0.05190    0.32680    1.000
    O22      O        0.78360    0.85810    0.38330    1.000
    O23      O        0.74440    0.88150    0.60610    1.000
    O24      O        0.10430    0.21550    0.89120    1.000
    O25      O        0.04860    0.29090    0.75620    1.000
    O26      O        0.29310    0.22650    0.21460    1.000
    O27      O        0.40560    0.23760    0.06260    1.000
    N7       N        0.83310    0.13990    0.51360    1.000
    N8       N        0.65460    0.13490    0.34520    1.000
    N9       N        0.72960    0.05620    0.49610    1.000
    C25      C        0.82930    0.08360    0.56160    1.000
    C26      C        0.74660    0.16750    0.40710    1.000
    C27      C        0.64310    0.07860    0.38860    1.000
    C28      C        0.93730    0.17320    0.57620    1.000
    H25      H        0.00010    0.14730    0.60930    1.000
    H26      H        0.95090    0.19780    0.49220    1.000
    C29      C        0.92610    0.20890    0.71730    1.000
    H27      H        0.86650    0.23660    0.68220    1.000
    H28      H        0.90690    0.18450    0.79770    1.000
    C30      C        0.03390    0.23990    0.79010    1.000
    C31      C        0.56280    0.16290    0.22670    1.000
    H29      H        0.59260    0.19410    0.17590    1.000
    H30      H        0.52910    0.13550    0.14380    1.000
    C32      C        0.47580    0.18540    0.30300    1.000
    H31      H        0.44100    0.15350    0.34450    1.000
    H32      H        0.51100    0.20960    0.39310    1.000
    C33      C        0.38660    0.21940    0.18720    1.000
    C34      C        0.72030    0.99490    0.53500    1.000
    H33      H        0.75740    0.98850    0.64720    1.000
    H34      H        0.64220    0.98510    0.51950    1.000
    C35      C        0.77130    0.95680    0.43210    1.000
    H35      H        0.73190    0.96190    0.32020    1.000
    H36      H        0.84840    0.96780    0.44370    1.000
    C36      C        0.76670    0.89460    0.47660    1.000
    Cd4      Cd       0.23929    0.28123    0.95246    1.000
    O28      O        0.09410    0.56150    0.84620    1.000
    O29      O        0.24840    0.71720    0.12890    1.000
    O30      O        0.44320    0.55190    0.17320    1.000
    O31      O        0.21640    0.35810    0.11670    1.000
    O32      O        0.25560    0.38150    0.89390    1.000
    O33      O        0.89570    0.71550    0.60880    1.000
    O34      O        0.95140    0.79090    0.74380    1.000
    O35      O        0.70690    0.72650    0.28540    1.000
    O36      O        0.59440    0.73760    0.43740    1.000
    N10      N        0.16690    0.63990    0.98640    1.000
    N11      N        0.34540    0.63490    0.15480    1.000
    N12      N        0.27040    0.55620    0.00390    1.000
    C37      C        0.17070    0.58360    0.93840    1.000
    C38      C        0.25340    0.66750    0.09290    1.000
    C39      C        0.35690    0.57860    0.11140    1.000
    C40      C        0.06270    0.67320    0.92380    1.000
    H37      H        0.99990    0.64730    0.89070    1.000
    H38      H        0.04910    0.69780    0.00780    1.000
    C41      C        0.07390    0.70890    0.78270    1.000
    H39      H        0.13350    0.73660    0.81780    1.000
    H40      H        0.09310    0.68450    0.70230    1.000
    C42      C        0.96610    0.73990    0.70990    1.000
    C43      C        0.43720    0.66290    0.27330    1.000
    H41      H        0.40740    0.69410    0.32410    1.000
    H42      H        0.47090    0.63550    0.35620    1.000
    C44      C        0.52420    0.68540    0.19700    1.000
    H43      H        0.55900    0.65350    0.15550    1.000
    H44      H        0.48900    0.70960    0.10690    1.000
    C45      C        0.61340    0.71940    0.31280    1.000
    C46      C        0.27970    0.49490    0.96500    1.000
    H45      H        0.24260    0.48850    0.85280    1.000
    H46      H        0.35780    0.48510    0.98050    1.000
    C47      C        0.22870    0.45680    0.06790    1.000
    H47      H        0.26810    0.46190    0.17980    1.000
    H48      H        0.15160    0.46780    0.05630    1.000
    C48      C        0.23330    0.39460    0.02340    1.000
