data_functionalizedCrystal
_audit_creation_method	'EQeq! by Chris Wilmer'
_symmetry_space_group_name_H-M	'P1'
_symmetry_Int_Tables_number	1
_symmetry_cell_setting	triclinic
loop_
_symmetry_equiv_pos_as_xyz
  x,y,z
_cell_length_a	6.929
_cell_length_b	8.185
_cell_length_c	10.4415
_cell_angle_alpha	108.751
_cell_angle_beta	109.378
_cell_angle_gamma	90
loop_
_atom_site_label
_atom_site_type_symbol
_atom_site_fract_x
_atom_site_fract_y
_atom_site_fract_z
_atom_site_charge
Mof_Ni	Ni	-1.48308e-17	0	0.5	1.045
Mof_Ni	Ni	0.5	0.5	0.5	1.091
Mof_H 	H 	0.0633	0.0118	0.8048	-0.051
Mof_H 	H 	0.8206	0.8517	0.9262	0.044
Mof_H 	H 	0.2585	0.4882	0.1952	0.086
Mof_H 	H 	0.8944	0.6483	0.0738	0.08
Mof_H 	H 	0.9367	0.9882	0.1952	0.237
Mof_H 	H 	0.1794	0.1483	0.0738	0.014
Mof_H 	H 	0.7415	0.5118	0.8048	0.11
Mof_H 	H 	0.1056	0.3517	0.9262	-0.033
Mof_C 	C 	0.8163	0.8197	0.6636	0.349
Mof_C 	C 	0.9542	0.94	0.8066	-0.017
Mof_C 	C 	0.9329	0.9417	0.9292	-0.006
Mof_C 	C 	0.1527	0.6803	0.3364	0.393
Mof_C 	C 	0.1476	0.56	0.1934	-0.184
Mof_C 	C 	0.0037	0.5583	0.0708	-0.059
Mof_C 	C 	0.1837	0.1803	0.3364	0.468
Mof_C 	C 	0.0458	0.06	0.1934	-0.445
Mof_C 	C 	0.0671	0.0583	0.0708	0.071
Mof_C 	C 	0.8473	0.3197	0.6636	0.427
Mof_C 	C 	0.8524	0.44	0.8066	-0.29
Mof_C 	C 	0.9963	0.4417	0.9292	0.136
Mof_O 	O 	0.83887	0.8287	0.55034	-0.383
Mof_O 	O 	0.6825	0.7131	0.6606	-0.414
Mof_O 	O 	0.28853	0.6713	0.44966	-0.431
Mof_O 	O 	0.0219	0.7869	0.3394	-0.42
Mof_O 	O 	0.16113	0.1713	0.44966	-0.488
Mof_O 	O 	0.3175	0.2869	0.3394	-0.454
Mof_O 	O 	0.71147	0.3287	0.55034	-0.449
Mof_O 	O 	0.9781	0.2131	0.6606	-0.427
_end
