data_functionalizedCrystal
_audit_creation_method	'EQeq! by Chris Wilmer'
_symmetry_space_group_name_H-M	'P1'
_symmetry_Int_Tables_number	1
_symmetry_cell_setting	triclinic
loop_
_symmetry_equiv_pos_as_xyz
  x,y,z
_cell_length_a	14.1894
_cell_length_b	26.7346
_cell_length_c	27.1323
_cell_angle_alpha	79.4555
_cell_angle_beta	74.8418
_cell_angle_gamma	74.6108
loop_
_atom_site_label
_atom_site_type_symbol
_atom_site_fract_x
_atom_site_fract_y
_atom_site_fract_z
_atom_site_charge
Mof_Cu	Cu	0.94973	0.38893	0.88527	0.864
Mof_Cu	Cu	0.67796	0.17044	0.98262	0.857
Mof_Cu	Cu	0.64245	0.17822	0.39588	0.871
Mof_Cu	Cu	0.22393	0.11107	0.61473	0.864
Mof_Cu	Cu	0.83102	0.32956	0.51738	0.857
Mof_Cu	Cu	0.21655	0.32178	0.10412	0.871
Mof_Cu	Cu	0.05027	0.61107	0.11473	0.864
Mof_Cu	Cu	0.32204	0.82956	0.01738	0.857
Mof_Cu	Cu	0.35755	0.82178	0.60412	0.871
Mof_Cu	Cu	0.77607	0.88893	0.38527	0.864
Mof_Cu	Cu	0.16898	0.67044	0.48262	0.856
Mof_Cu	Cu	0.78345	0.67822	0.89588	0.87
Mof_H 	H 	0.8558	0.5437	0.7635	0.267
Mof_H 	H 	0.8792	0.5737	0.8031	0.262
Mof_H 	H 	0.9685	0.5471	0.7595	0.271
Mof_H 	H 	0.1362	0.4179	0.8907	0.013
Mof_H 	H 	0.2929	0.3753	0.9095	0.082
Mof_H 	H 	0.1933	0.2431	0.9527	0.075
Mof_H 	H 	0.0473	0.2856	0.9298	-0.021
Mof_H 	H 	0.8765	0.3208	0.9832	-0.007
Mof_H 	H 	0.7202	0.3105	0.0361	0.067
Mof_H 	H 	0.5887	0.441	0.9568	0.085
Mof_H 	H 	0.7455	0.4512	0.9104	0.009
Mof_H 	H 	0.9989	0.1199	0.6639	0.02
Mof_H 	H 	0.8924	0.1345	0.7421	0.085
Mof_H 	H 	0.0937	0.2022	0.7738	0.069
Mof_H 	H 	0.1939	0.1898	0.694	0.01
Mof_H 	H 	0.6312	0.3823	0.5813	0.007
Mof_H 	H 	0.4941	0.44	0.5746	0.087
Mof_H 	H 	0.6419	0.4954	0.4334	0.08
Mof_H 	H 	0.7796	0.4306	0.4468	0.015
Mof_H 	H 	0.5935	0.2747	0.9185	0.008
Mof_H 	H 	0.4424	0.3206	0.8978	0.092
Mof_H 	H 	0.3055	0.2212	0.0028	0.07
Mof_H 	H 	0.4569	0.1739	0.0199	0.008
Mof_H 	H 	0.5442	0.211	0.073	-0.013
Mof_H 	H 	0.5398	0.2139	0.1599	0.103
Mof_H 	H 	0.8311	0.1407	0.1353	0.096
Mof_H 	H 	0.8284	0.1394	0.0504	-0.014
Mof_H 	H 	0.8102	0.1798	0.2944	0.017
Mof_H 	H 	0.8236	0.1802	0.208	0.075
Mof_H 	H 	0.5372	0.1657	0.2399	0.091
Mof_H 	H 	0.5278	0.1686	0.326	0.004
Mof_H 	H 	0.7006	0.1261	0.4927	-0.009
Mof_H 	H 	0.8303	0.1025	0.5301	0.099
Mof_H 	H 	0.572	0.3256	0.0942	0.094
Mof_H 	H 	0.8513	0.1991	0.3725	0.017
Mof_H 	H 	0.439	0.1454	0.4436	-0.001
Mof_H 	H 	0.381	0.0753	0.4913	0.064
Mof_H 	H 	0.6668	0.9896	0.4654	0.071
Mof_H 	H 	0.7161	0.0642	0.4218	0.014
Mof_H 	H 	0.3265	0.2779	0.3685	0.269
Mof_H 	H 	0.2977	0.2908	0.4266	0.252
Mof_H 	H 	0.3526	0.328	0.3816	0.27
Mof_H 	H 	0.8111	0.0907	0.9207	0.007
Mof_H 	H 	0.9186	0.0894	0.839	0.086
Mof_H 	H 	0.898	0.2447	0.8305	0.076
Mof_H 	H 	0.7904	0.246	0.9122	-0.009
Mof_H 	H 	0.163	0.9563	0.7365	0.267
Mof_H 	H 	0.256	0.9263	0.6969	0.262
Mof_H 	H 	0.2751	0.9529	0.7405	0.271
Mof_H 	H 	0.4448	0.0821	0.6093	0.013
Mof_H 	H 	0.5777	0.1247	0.5905	0.081
Mof_H 	H 	0.3891	0.2569	0.5473	0.075
Mof_H 	H 	0.2627	0.2144	0.5702	-0.021
Mof_H 	H 	0.1805	0.1792	0.5168	-0.007
Mof_H 	H 	0.0668	0.1895	0.4639	0.067
Mof_H 	H 	0.9865	0.059	0.5432	0.087
Mof_H 	H 	0.1071	0.0488	0.5896	0.008
Mof_H 	H 	0.7827	0.3801	0.8361	0.019
Mof_H 	H 	0.769	0.3655	0.7579	0.085
Mof_H 	H 	0.0697	0.2978	0.7262	0.07
Mof_H 	H 	0.0777	0.3102	0.806	0.01
Mof_H 	H 	0.5948	0.1177	0.9187	0.007
Mof_H 	H 	0.5087	0.06	0.9254	0.088
Mof_H 	H 	0.5707	0.0046	0.0666	0.08
Mof_H 	H 	0.657	0.0694	0.0532	0.015
Mof_H 	H 	0.7867	0.2253	0.5815	0.008
Mof_H 	H 	0.6608	0.1794	0.6022	0.092
Mof_H 	H 	0.5295	0.2788	0.4972	0.071
Mof_H 	H 	0.6507	0.3261	0.4801	0.008
Mof_H 	H 	0.8282	0.289	0.427	-0.013
Mof_H 	H 	0.9136	0.2861	0.3401	0.102
Mof_H 	H 	0.1071	0.3593	0.3647	0.096
Mof_H 	H 	0.0182	0.3606	0.4496	-0.016
Mof_H 	H 	0.2844	0.3202	0.2056	0.016
Mof_H 	H 	0.2118	0.3198	0.292	0.075
Mof_H 	H 	0.9428	0.3343	0.2601	0.094
Mof_H 	H 	0.0224	0.3314	0.174	0.003
Mof_H 	H 	0.3194	0.3739	0.0073	-0.009
Mof_H 	H 	0.4629	0.3975	0.9699	0.099
Mof_H 	H 	0.9918	0.1744	0.4058	0.095
Mof_H 	H 	0.4229	0.3009	0.1275	0.017
Mof_H 	H 	0.028	0.3546	0.0564	-0
Mof_H 	H 	0.9476	0.4247	0.0087	0.063
Mof_H 	H 	0.1218	0.5104	0.0346	0.071
Mof_H 	H 	0.2021	0.4358	0.0782	0.014
Mof_H 	H 	0.9729	0.2221	0.1315	0.273
Mof_H 	H 	0.0151	0.2092	0.0734	0.253
Mof_H 	H 	0.0622	0.172	0.1184	0.272
Mof_H 	H 	0.8225	0.4093	0.5793	0.007
Mof_H 	H 	0.847	0.4106	0.661	0.086
Mof_H 	H 	0.9732	0.2553	0.6695	0.077
Mof_H 	H 	0.9486	0.254	0.5878	-0.009
Mof_H 	H 	0.1442	0.4563	0.2365	0.267
Mof_H 	H 	0.1208	0.4263	0.1969	0.262
Mof_H 	H 	0.0315	0.4529	0.2405	0.271
Mof_H 	H 	0.8638	0.5821	0.1093	0.013
Mof_H 	H 	0.7071	0.6247	0.0905	0.082
Mof_H 	H 	0.8067	0.7569	0.0473	0.075
Mof_H 	H 	0.9527	0.7144	0.0702	-0.021
Mof_H 	H 	0.1235	0.6792	0.0168	-0.007
Mof_H 	H 	0.2798	0.6895	0.9639	0.067
Mof_H 	H 	0.4113	0.559	0.0432	0.085
Mof_H 	H 	0.2545	0.5488	0.0896	0.009
Mof_H 	H 	0.0011	0.8801	0.3361	0.02
Mof_H 	H 	0.1076	0.8655	0.2579	0.085
Mof_H 	H 	0.9063	0.7978	0.2262	0.069
Mof_H 	H 	0.8061	0.8102	0.306	0.01
Mof_H 	H 	0.3688	0.6177	0.4187	0.007
Mof_H 	H 	0.5059	0.56	0.4254	0.087
Mof_H 	H 	0.3581	0.5046	0.5666	0.08
Mof_H 	H 	0.2204	0.5694	0.5532	0.015
Mof_H 	H 	0.4065	0.7253	0.0815	0.008
Mof_H 	H 	0.5576	0.6794	0.1022	0.092
Mof_H 	H 	0.6945	0.7788	0.9972	0.07
Mof_H 	H 	0.5431	0.8261	0.9801	0.008
Mof_H 	H 	0.4558	0.789	0.927	-0.013
Mof_H 	H 	0.4602	0.7861	0.8401	0.103
Mof_H 	H 	0.1689	0.8593	0.8647	0.096
Mof_H 	H 	0.1716	0.8606	0.9496	-0.014
Mof_H 	H 	0.1898	0.8202	0.7056	0.017
Mof_H 	H 	0.1764	0.8198	0.792	0.075
Mof_H 	H 	0.4628	0.8343	0.7601	0.091
Mof_H 	H 	0.4722	0.8314	0.674	0.004
Mof_H 	H 	0.2994	0.8739	0.5073	-0.009
Mof_H 	H 	0.1697	0.8975	0.4699	0.099
Mof_H 	H 	0.428	0.6744	0.9058	0.094
Mof_H 	H 	0.1487	0.8009	0.6275	0.017
Mof_H 	H 	0.561	0.8546	0.5564	-0.001
Mof_H 	H 	0.619	0.9247	0.5087	0.064
Mof_H 	H 	0.3332	0.0104	0.5346	0.071
Mof_H 	H 	0.2839	0.9358	0.5782	0.014
Mof_H 	H 	0.6735	0.7221	0.6315	0.269
Mof_H 	H 	0.7023	0.7092	0.5734	0.252
Mof_H 	H 	0.6474	0.672	0.6184	0.27
Mof_H 	H 	0.1889	0.9093	0.0793	0.007
Mof_H 	H 	0.0814	0.9106	0.161	0.086
Mof_H 	H 	0.102	0.7553	0.1695	0.076
Mof_H 	H 	0.2096	0.754	0.0878	-0.009
Mof_H 	H 	0.837	0.0437	0.2635	0.267
Mof_H 	H 	0.744	0.0737	0.3031	0.262
Mof_H 	H 	0.7249	0.0471	0.2595	0.271
Mof_H 	H 	0.5552	0.9179	0.3907	0.013
Mof_H 	H 	0.4223	0.8753	0.4095	0.081
Mof_H 	H 	0.6109	0.7431	0.4527	0.075
Mof_H 	H 	0.7373	0.7856	0.4298	-0.021
Mof_H 	H 	0.8195	0.8208	0.4832	-0.007
Mof_H 	H 	0.9332	0.8105	0.5361	0.067
Mof_H 	H 	0.0135	0.941	0.4568	0.087
Mof_H 	H 	0.8929	0.9512	0.4104	0.008
Mof_H 	H 	0.2173	0.6199	0.1639	0.019
Mof_H 	H 	0.231	0.6345	0.2421	0.085
Mof_H 	H 	0.9303	0.7022	0.2738	0.07
Mof_H 	H 	0.9223	0.6898	0.194	0.01
Mof_H 	H 	0.4052	0.8823	0.0813	0.007
Mof_H 	H 	0.4913	0.94	0.0746	0.088
Mof_H 	H 	0.4293	0.9954	0.9334	0.08
Mof_H 	H 	0.343	0.9306	0.9468	0.015
Mof_H 	H 	0.2133	0.7747	0.4185	0.008
Mof_H 	H 	0.3392	0.8206	0.3978	0.092
Mof_H 	H 	0.4705	0.7212	0.5028	0.071
Mof_H 	H 	0.3493	0.6739	0.5199	0.008
Mof_H 	H 	0.1718	0.711	0.573	-0.013
Mof_H 	H 	0.0864	0.7139	0.6599	0.102
Mof_H 	H 	0.8929	0.6407	0.6353	0.096
Mof_H 	H 	0.9818	0.6394	0.5504	-0.016
Mof_H 	H 	0.7156	0.6798	0.7944	0.016
Mof_H 	H 	0.7882	0.6802	0.708	0.075
Mof_H 	H 	0.0572	0.6657	0.7399	0.094
Mof_H 	H 	0.9776	0.6686	0.826	0.003
Mof_H 	H 	0.6806	0.6261	0.9927	-0.009
Mof_H 	H 	0.5371	0.6025	0.0301	0.099
Mof_H 	H 	0.0082	0.8256	0.5942	0.095
Mof_H 	H 	0.5771	0.6991	0.8725	0.017
Mof_H 	H 	0.972	0.6454	0.9436	-0
Mof_H 	H 	0.0524	0.5753	0.9913	0.063
Mof_H 	H 	0.8782	0.4896	0.9654	0.071
Mof_H 	H 	0.7979	0.5642	0.9218	0.014
Mof_H 	H 	0.0271	0.7779	0.8685	0.273
Mof_H 	H 	0.9849	0.7908	0.9266	0.253
Mof_H 	H 	0.9378	0.828	0.8816	0.272
Mof_H 	H 	0.1775	0.5907	0.4207	0.007
Mof_H 	H 	0.153	0.5894	0.339	0.086
Mof_H 	H 	0.0268	0.7447	0.3305	0.077
Mof_H 	H 	0.0514	0.746	0.4122	-0.009
Mof_C 	C 	0.9195	0.4956	0.818	0.339
Mof_C 	C 	0.9045	0.544	0.7832	-0.767
Mof_C 	C 	0.1496	0.3814	0.9016	0.062
Mof_C 	C 	0.2428	0.3563	0.9141	-0.112
Mof_C 	C 	0.2608	0.3032	0.9332	0.051
Mof_C 	C 	0.185	0.2788	0.9388	-0.133
Mof_C 	C 	0.0977	0.3045	0.9249	0.078
Mof_C 	C 	0.8171	0.346	0.9784	0.051
Mof_C 	C 	0.7231	0.3384	0.0088	-0.102
Mof_C 	C 	0.6367	0.3711	0.9989	0.042
Mof_C 	C 	0.6466	0.4153	0.9627	-0.096
Mof_C 	C 	0.7412	0.4214	0.9354	0.081
Mof_C 	C 	0.0171	0.1371	0.6865	0.038
Mof_C 	C 	0.9535	0.1456	0.7334	-0.096
Mof_C 	C 	0.9759	0.1702	0.7688	0.036
Mof_C 	C 	0.073	0.186	0.7514	-0.102
Mof_C 	C 	0.1333	0.178	0.7042	0.043
Mof_C 	C 	0.6327	0.4054	0.5502	0.091
Mof_C 	C 	0.5516	0.44	0.5472	-0.117
Mof_C 	C 	0.5455	0.4793	0.5033	0.062
Mof_C 	C 	0.6374	0.4724	0.4648	-0.099
Mof_C 	C 	0.7195	0.4328	0.4728	0.067
Mof_C 	C 	0.5339	0.2634	0.936	0.074
Mof_C 	C 	0.444	0.2912	0.9234	-0.122
Mof_C 	C 	0.3595	0.2757	0.9479	0.051
Mof_C 	C 	0.3652	0.2322	0.9848	-0.119
Mof_C 	C 	0.4541	0.2046	0.9958	0.058
Mof_C 	C 	0.6034	0.1966	0.0856	0.09
Mof_C 	C 	0.6003	0.1979	0.1381	-0.129
Mof_C 	C 	0.686	0.1754	0.1582	0.081
Mof_C 	C 	0.7702	0.1551	0.1241	-0.137
Mof_C 	C 	0.7687	0.1549	0.0731	0.084
Mof_C 	C 	0.7535	0.1776	0.2832	0.07
Mof_C 	C 	0.7617	0.178	0.2314	-0.105
Mof_C 	C 	0.6806	0.1751	0.2127	0.042
Mof_C 	C 	0.5936	0.17	0.25	-0.1
Mof_C 	C 	0.5888	0.1708	0.3016	0.064
Mof_C 	C 	0.7603	0.137	0.4746	0.092
Mof_C 	C 	0.8362	0.1233	0.4975	-0.141
Mof_C 	C 	0.5386	0.3609	0.0259	0.075
Mof_C 	C 	0.5219	0.3344	0.0748	-0.133
Mof_C 	C 	0.8469	0.1786	0.4052	0.087
Mof_C 	C 	0.4863	0.1135	0.4491	0.074
Mof_C 	C 	0.4508	0.0717	0.4771	-0.11
Mof_C 	C 	0.519	0.0226	0.485	0.052
Mof_C 	C 	0.6177	0.0213	0.4627	-0.1
Mof_C 	C 	0.6466	0.0665	0.4359	0.072
Mof_C 	C 	0.4445	0.2603	0.4013	0.329
Mof_C 	C 	0.3473	0.2919	0.3939	-0.769
Mof_C 	C 	0.8289	0.1218	0.9024	0.061
Mof_C 	C 	0.8925	0.1212	0.8538	-0.098
Mof_C 	C 	0.918	0.1669	0.8271	0.057
Mof_C 	C 	0.8799	0.2134	0.8488	-0.114
Mof_C 	C 	0.8162	0.2142	0.8974	0.053
Mof_C 	C 	0.2331	0.0044	0.682	0.338
Mof_C 	C 	0.2317	0.956	0.7168	-0.766
Mof_C 	C 	0.4326	0.1186	0.5984	0.062
Mof_C 	C 	0.5132	0.1437	0.5859	-0.112
Mof_C 	C 	0.4972	0.1968	0.5668	0.05
Mof_C 	C 	0.4026	0.2212	0.5612	-0.133
Mof_C 	C 	0.3271	0.1955	0.5751	0.077
Mof_C 	C 	0.1415	0.154	0.5216	0.053
Mof_C 	C 	0.0703	0.1616	0.4912	-0.106
Mof_C 	C 	0.0067	0.1289	0.5011	0.043
Mof_C 	C 	0.0246	0.0847	0.5373	-0.101
Mof_C 	C 	0.098	0.0786	0.5646	0.083
Mof_C 	C 	0.8407	0.3629	0.8135	0.041
Mof_C 	C 	0.8325	0.3544	0.7666	-0.098
Mof_C 	C 	0.9149	0.3298	0.7312	0.036
Mof_C 	C 	0.0104	0.314	0.7486	-0.102
Mof_C 	C 	0.0155	0.322	0.7958	0.043
Mof_C 	C 	0.5883	0.0946	0.9498	0.091
Mof_C 	C 	0.5388	0.06	0.9528	-0.117
Mof_C 	C 	0.5281	0.0207	0.9967	0.062
Mof_C 	C 	0.5746	0.0276	0.0352	-0.099
Mof_C 	C 	0.6251	0.0672	0.0272	0.068
Mof_C 	C 	0.7333	0.2366	0.564	0.074
Mof_C 	C 	0.6586	0.2088	0.5766	-0.122
Mof_C 	C 	0.5831	0.2243	0.5521	0.052
Mof_C 	C 	0.5822	0.2678	0.5152	-0.12
Mof_C 	C 	0.6545	0.2954	0.5042	0.058
Mof_C 	C 	0.8856	0.3034	0.4144	0.09
Mof_C 	C 	0.9363	0.3021	0.3619	-0.127
Mof_C 	C 	0.0196	0.3246	0.3418	0.079
Mof_C 	C 	0.0494	0.3449	0.3759	-0.138
Mof_C 	C 	0.9967	0.3451	0.4269	0.087
Mof_C 	C 	0.2143	0.3224	0.2168	0.07
Mof_C 	C 	0.1711	0.322	0.2686	-0.106
Mof_C 	C 	0.0684	0.3249	0.2873	0.044
Mof_C 	C 	0.0136	0.33	0.25	-0.104
Mof_C 	C 	0.0612	0.3292	0.1984	0.066
Mof_C 	C 	0.3719	0.363	0.0254	0.092
Mof_C 	C 	0.457	0.3767	0.0025	-0.141
Mof_C 	C 	0.9254	0.1391	0.4741	0.075
Mof_C 	C 	0.9311	0.1656	0.4252	-0.133
Mof_C 	C 	0.4307	0.3214	0.0948	0.087
Mof_C 	C 	0.0489	0.3865	0.0509	0.069
Mof_C 	C 	0.9996	0.4283	0.0229	-0.104
Mof_C 	C 	0.0266	0.4774	0.015	0.05
Mof_C 	C 	0.1017	0.4787	0.0373	-0.1
Mof_C 	C 	0.149	0.4335	0.0641	0.072
Mof_C 	C 	0.1061	0.2397	0.0987	0.33
Mof_C 	C 	0.0331	0.2081	0.1061	-0.777
Mof_C 	C 	0.8531	0.3782	0.5976	0.061
Mof_C 	C 	0.8675	0.3788	0.6462	-0.098
Mof_C 	C 	0.912	0.3331	0.6729	0.057
Mof_C 	C 	0.9421	0.2866	0.6512	-0.114
Mof_C 	C 	0.9278	0.2858	0.6026	0.053
Mof_C 	C 	0.0805	0.5044	0.182	0.339
Mof_C 	C 	0.0955	0.456	0.2168	-0.767
Mof_C 	C 	0.8504	0.6186	0.0984	0.062
Mof_C 	C 	0.7572	0.6437	0.0859	-0.112
Mof_C 	C 	0.7392	0.6968	0.0668	0.051
Mof_C 	C 	0.815	0.7212	0.0612	-0.133
Mof_C 	C 	0.9023	0.6955	0.0751	0.078
Mof_C 	C 	0.1829	0.654	0.0216	0.051
Mof_C 	C 	0.2769	0.6616	0.9912	-0.102
Mof_C 	C 	0.3633	0.6289	0.0011	0.042
Mof_C 	C 	0.3534	0.5847	0.0373	-0.096
Mof_C 	C 	0.2588	0.5786	0.0646	0.081
Mof_C 	C 	0.9829	0.8629	0.3135	0.038
Mof_C 	C 	0.0465	0.8544	0.2666	-0.096
Mof_C 	C 	0.0241	0.8298	0.2312	0.036
Mof_C 	C 	0.927	0.814	0.2486	-0.102
Mof_C 	C 	0.8667	0.822	0.2958	0.043
Mof_C 	C 	0.3673	0.5946	0.4498	0.091
Mof_C 	C 	0.4484	0.56	0.4528	-0.117
Mof_C 	C 	0.4545	0.5207	0.4967	0.062
Mof_C 	C 	0.3626	0.5276	0.5352	-0.099
Mof_C 	C 	0.2805	0.5672	0.5272	0.067
Mof_C 	C 	0.4661	0.7366	0.064	0.074
Mof_C 	C 	0.556	0.7088	0.0766	-0.122
Mof_C 	C 	0.6405	0.7243	0.0521	0.051
Mof_C 	C 	0.6348	0.7678	0.0152	-0.119
Mof_C 	C 	0.5459	0.7954	0.0042	0.058
Mof_C 	C 	0.3966	0.8034	0.9144	0.09
Mof_C 	C 	0.3997	0.8021	0.8619	-0.129
Mof_C 	C 	0.314	0.8246	0.8418	0.081
Mof_C 	C 	0.2298	0.8449	0.8759	-0.137
Mof_C 	C 	0.2313	0.8451	0.9269	0.084
Mof_C 	C 	0.2465	0.8224	0.7168	0.07
Mof_C 	C 	0.2383	0.822	0.7686	-0.105
Mof_C 	C 	0.3194	0.8249	0.7873	0.042
Mof_C 	C 	0.4064	0.83	0.75	-0.1
Mof_C 	C 	0.4112	0.8292	0.6984	0.064
Mof_C 	C 	0.2397	0.863	0.5254	0.092
Mof_C 	C 	0.1638	0.8767	0.5025	-0.141
Mof_C 	C 	0.4614	0.6391	0.9741	0.075
Mof_C 	C 	0.4781	0.6656	0.9252	-0.133
Mof_C 	C 	0.1531	0.8214	0.5948	0.087
Mof_C 	C 	0.5137	0.8865	0.5509	0.074
Mof_C 	C 	0.5492	0.9283	0.5229	-0.11
Mof_C 	C 	0.481	0.9774	0.515	0.052
Mof_C 	C 	0.3823	0.9787	0.5373	-0.1
Mof_C 	C 	0.3534	0.9335	0.5641	0.072
Mof_C 	C 	0.5555	0.7397	0.5987	0.329
Mof_C 	C 	0.6527	0.7081	0.6061	-0.769
Mof_C 	C 	0.1711	0.8782	0.0976	0.061
Mof_C 	C 	0.1075	0.8788	0.1462	-0.098
Mof_C 	C 	0.082	0.8331	0.1729	0.057
Mof_C 	C 	0.1201	0.7866	0.1512	-0.114
Mof_C 	C 	0.1838	0.7858	0.1026	0.053
Mof_C 	C 	0.7669	0.9956	0.318	0.338
Mof_C 	C 	0.7683	0.044	0.2832	-0.766
Mof_C 	C 	0.5674	0.8814	0.4016	0.062
Mof_C 	C 	0.4868	0.8563	0.4141	-0.112
Mof_C 	C 	0.5028	0.8032	0.4332	0.05
Mof_C 	C 	0.5974	0.7788	0.4388	-0.133
Mof_C 	C 	0.6729	0.8045	0.4249	0.077
Mof_C 	C 	0.8585	0.846	0.4784	0.053
Mof_C 	C 	0.9297	0.8384	0.5088	-0.106
Mof_C 	C 	0.9933	0.8711	0.4989	0.043
Mof_C 	C 	0.9754	0.9153	0.4627	-0.101
Mof_C 	C 	0.902	0.9214	0.4354	0.083
Mof_C 	C 	0.1593	0.6371	0.1865	0.041
Mof_C 	C 	0.1675	0.6456	0.2334	-0.098
Mof_C 	C 	0.0851	0.6702	0.2688	0.036
Mof_C 	C 	0.9896	0.686	0.2514	-0.102
Mof_C 	C 	0.9845	0.678	0.2042	0.043
Mof_C 	C 	0.4117	0.9054	0.0502	0.091
Mof_C 	C 	0.4612	0.94	0.0472	-0.117
Mof_C 	C 	0.4719	0.9793	0.0033	0.062
Mof_C 	C 	0.4254	0.9724	0.9648	-0.099
Mof_C 	C 	0.3749	0.9328	0.9728	0.068
Mof_C 	C 	0.2667	0.7634	0.436	0.074
Mof_C 	C 	0.3414	0.7912	0.4234	-0.122
Mof_C 	C 	0.4169	0.7757	0.4479	0.052
Mof_C 	C 	0.4178	0.7322	0.4848	-0.12
Mof_C 	C 	0.3455	0.7046	0.4958	0.058
Mof_C 	C 	0.1144	0.6966	0.5856	0.09
Mof_C 	C 	0.0637	0.6979	0.6381	-0.127
Mof_C 	C 	0.9804	0.6754	0.6582	0.079
Mof_C 	C 	0.9506	0.6551	0.6241	-0.138
Mof_C 	C 	0.0033	0.6549	0.5731	0.087
Mof_C 	C 	0.7857	0.6776	0.7832	0.07
Mof_C 	C 	0.8289	0.678	0.7314	-0.106
Mof_C 	C 	0.9316	0.6751	0.7127	0.044
Mof_C 	C 	0.9864	0.67	0.75	-0.104
Mof_C 	C 	0.9388	0.6708	0.8016	0.066
Mof_C 	C 	0.6281	0.637	0.9746	0.092
Mof_C 	C 	0.543	0.6233	0.9975	-0.141
Mof_C 	C 	0.0746	0.8609	0.5259	0.075
Mof_C 	C 	0.0689	0.8344	0.5748	-0.133
Mof_C 	C 	0.5693	0.6786	0.9052	0.087
Mof_C 	C 	0.9511	0.6135	0.9491	0.069
Mof_C 	C 	0.0004	0.5717	0.9771	-0.104
Mof_C 	C 	0.9734	0.5226	0.985	0.05
Mof_C 	C 	0.8983	0.5213	0.9627	-0.1
Mof_C 	C 	0.851	0.5665	0.9359	0.072
Mof_C 	C 	0.8939	0.7603	0.9013	0.33
Mof_C 	C 	0.9669	0.7919	0.8939	-0.777
Mof_C 	C 	0.1469	0.6218	0.4024	0.061
Mof_C 	C 	0.1325	0.6212	0.3538	-0.098
Mof_C 	C 	0.088	0.6669	0.3271	0.057
Mof_C 	C 	0.0579	0.7134	0.3488	-0.114
Mof_C 	C 	0.0722	0.7142	0.3974	0.053
Mof_N 	N 	0.9326	0.4576	0.8442	-0.32
Mof_N 	N 	0.0783	0.3547	0.9047	-0.243
Mof_N 	N 	0.8244	0.3887	0.9423	-0.233
Mof_N 	N 	0.1084	0.1529	0.6709	-0.208
Mof_N 	N 	0.7201	0.3977	0.5143	-0.228
Mof_N 	N 	0.54	0.2217	0.9717	-0.221
Mof_N 	N 	0.685	0.1761	0.0547	-0.246
Mof_N 	N 	0.6687	0.1745	0.3183	-0.224
Mof_N 	N 	0.7598	0.1652	0.4272	-0.24
Mof_N 	N 	0.5844	0.1123	0.4287	-0.222
Mof_N 	N 	0.5193	0.2348	0.405	-0.321
Mof_N 	N 	0.7906	0.1684	0.9242	-0.24
Mof_N 	N 	0.2344	0.0424	0.6558	-0.319
Mof_N 	N 	0.3377	0.1453	0.5953	-0.243
Mof_N 	N 	0.1554	0.1113	0.5577	-0.234
Mof_N 	N 	0.9322	0.3471	0.8291	-0.209
Mof_N 	N 	0.6321	0.1023	0.9857	-0.229
Mof_N 	N 	0.7334	0.2783	0.5283	-0.221
Mof_N 	N 	0.9158	0.3239	0.4453	-0.246
Mof_N 	N 	0.1615	0.3255	0.1817	-0.225
Mof_N 	N 	0.3522	0.3348	0.0728	-0.241
Mof_N 	N 	0.1254	0.3877	0.0713	-0.221
Mof_N 	N 	0.1591	0.2652	0.095	-0.322
Mof_N 	N 	0.8832	0.3316	0.5758	-0.24
Mof_N 	N 	0.0674	0.5424	0.1558	-0.32
Mof_N 	N 	0.9217	0.6453	0.0953	-0.243
Mof_N 	N 	0.1756	0.6113	0.0577	-0.233
Mof_N 	N 	0.8916	0.8471	0.3291	-0.208
Mof_N 	N 	0.2799	0.6023	0.4857	-0.228
Mof_N 	N 	0.46	0.7783	0.0283	-0.221
Mof_N 	N 	0.315	0.8239	0.9453	-0.246
Mof_N 	N 	0.3313	0.8255	0.6817	-0.224
Mof_N 	N 	0.2402	0.8348	0.5728	-0.24
Mof_N 	N 	0.4156	0.8877	0.5713	-0.222
Mof_N 	N 	0.4807	0.7652	0.595	-0.321
Mof_N 	N 	0.2094	0.8316	0.0758	-0.24
Mof_N 	N 	0.7656	0.9576	0.3442	-0.319
Mof_N 	N 	0.6623	0.8547	0.4047	-0.243
Mof_N 	N 	0.8446	0.8887	0.4423	-0.234
Mof_N 	N 	0.0678	0.6529	0.1709	-0.209
Mof_N 	N 	0.3679	0.8977	0.0143	-0.229
Mof_N 	N 	0.2666	0.7217	0.4717	-0.221
Mof_N 	N 	0.0842	0.6761	0.5547	-0.246
Mof_N 	N 	0.8385	0.6745	0.8183	-0.225
Mof_N 	N 	0.6478	0.6652	0.9272	-0.241
Mof_N 	N 	0.8746	0.6123	0.9287	-0.221
Mof_N 	N 	0.8409	0.7348	0.905	-0.322
Mof_N 	N 	0.1168	0.6684	0.4242	-0.24
Mof_P 	P 	0.57909	0.44732	0.2353	0.599
Mof_W 	W 	0.66009	0.56105	0.24259	1.319
Mof_W 	W 	0.82624	0.46359	0.17767	1.331
Mof_W 	W 	0.47294	0.56681	0.16739	1.317
Mof_W 	W 	0.40523	0.54334	0.30928	1.322
Mof_W 	W 	0.75599	0.44482	0.30902	1.311
Mof_W 	W 	0.64456	0.47294	0.09882	1.311
Mof_W 	W 	0.50142	0.42501	0.37233	1.319
Mof_W 	W 	0.74915	0.3451	0.16674	1.322
Mof_W 	W 	0.40874	0.45493	0.15697	1.323
Mof_W 	W 	0.33185	0.43451	0.29893	1.311
Mof_W 	W 	0.68547	0.32404	0.29844	1.339
Mof_W 	W 	0.51355	0.32955	0.22895	1.319
Mof_O 	O 	0.6755	0.6208	0.2452	-0.382
Mof_O 	O 	0.7237	0.5188	0.2958	-0.473
Mof_O 	O 	0.5334	0.5574	0.2918	-0.481
Mof_O 	O 	0.5837	0.5745	0.1917	-0.485
Mof_O 	O 	0.778	0.5346	0.1942	-0.481
Mof_O 	O 	0.6666	0.4695	0.2391	-0.441
Mof_O 	O 	0.9397	0.4664	0.1404	-0.411
Mof_O 	O 	0.8534	0.445	0.2446	-0.488
Mof_O 	O 	0.7432	0.4834	0.1286	-0.489
Mof_O 	O 	0.8164	0.3944	0.1766	-0.494
Mof_O 	O 	0.4221	0.6287	0.1445	-0.398
Mof_O 	O 	0.5702	0.5428	0.1078	-0.483
Mof_O 	O 	0.3875	0.5302	0.1516	-0.475
Mof_O 	O 	0.4051	0.5619	0.2371	-0.492
Mof_O 	O 	0.5432	0.4734	0.1872	-0.444
Mof_O 	O 	0.3314	0.598	0.3346	-0.393
Mof_O 	O 	0.3065	0.504	0.3124	-0.478
Mof_O 	O 	0.4366	0.4978	0.368	-0.478
Mof_O 	O 	0.4924	0.4579	0.2825	-0.44
Mof_O 	O 	0.8314	0.4345	0.3513	-0.388
Mof_O 	O 	0.7526	0.3759	0.3003	-0.497
Mof_O 	O 	0.6252	0.4467	0.3523	-0.488
Mof_O 	O 	0.6999	0.4782	0.0348	-0.384
Mof_O 	O 	0.69	0.3995	0.1225	-0.488
Mof_O 	O 	0.5188	0.4571	0.1003	-0.477
Mof_O 	O 	0.4885	0.4076	0.4372	-0.386
Mof_O 	O 	0.575	0.3623	0.3445	-0.501
Mof_O 	O 	0.3816	0.4143	0.3613	-0.484
Mof_O 	O 	0.8401	0.307	0.1258	-0.407
Mof_O 	O 	0.7687	0.3095	0.2337	-0.474
Mof_O 	O 	0.6365	0.3145	0.1785	-0.48
Mof_O 	O 	0.6147	0.388	0.233	-0.44
Mof_O 	O 	0.3176	0.4498	0.1294	-0.406
Mof_O 	O 	0.3398	0.4567	0.2275	-0.499
Mof_O 	O 	0.4672	0.385	0.1786	-0.491
Mof_O 	O 	0.2152	0.4221	0.3197	-0.407
Mof_O 	O 	0.4157	0.3696	0.2772	-0.501
Mof_O 	O 	0.7342	0.2731	0.3385	-0.428
Mof_O 	O 	0.5887	0.297	0.2798	-0.483
Mof_O 	O 	0.458	0.2818	0.2242	-0.388
Mof_P 	P 	0.26171	0.05268	0.2647	0.599
Mof_W 	W 	0.46373	0.93895	0.25741	1.319
Mof_W 	W 	0.4675	0.03641	0.32233	1.331
Mof_W 	W 	0.20714	0.93319	0.33261	1.317
Mof_W 	W 	0.25785	0.95666	0.19072	1.323
Mof_W 	W 	0.50983	0.05518	0.19098	1.312
Mof_W 	W 	0.21632	0.02706	0.40118	1.31
Mof_W 	W 	0.29876	0.07499	0.12767	1.319
Mof_W 	W 	0.26099	0.1549	0.33326	1.322
Mof_W 	W 	0.02064	0.04507	0.34303	1.319
Mof_W 	W 	0.06529	0.06549	0.20107	1.307
Mof_W 	W 	0.30795	0.17596	0.20156	1.339
Mof_W 	W 	0.07205	0.17045	0.27105	1.317
Mof_O 	O 	0.5415	0.8792	0.2548	-0.382
Mof_O 	O 	0.5383	0.9812	0.2042	-0.473
Mof_O 	O 	0.3826	0.9426	0.2082	-0.481
Mof_O 	O 	0.3499	0.9255	0.3083	-0.485
Mof_O 	O 	0.5068	0.9654	0.3058	-0.481
Mof_O 	O 	0.3752	0.0305	0.2609	-0.441
Mof_O 	O 	0.5465	0.0336	0.3596	-0.412
Mof_O 	O 	0.543	0.055	0.2554	-0.489
Mof_O 	O 	0.3552	0.0166	0.3714	-0.489
Mof_O 	O 	0.3874	0.1056	0.3234	-0.495
Mof_O 	O 	0.1953	0.8713	0.3555	-0.398
Mof_O 	O 	0.2208	0.9572	0.3922	-0.482
Mof_O 	O 	0.0693	0.9698	0.3484	-0.474
Mof_O 	O 	0.2041	0.9381	0.2629	-0.492
Mof_O 	O 	0.2038	0.0266	0.3128	-0.444
Mof_O 	O 	0.264	0.902	0.1654	-0.393
Mof_O 	O 	0.1229	0.996	0.1876	-0.477
Mof_O 	O 	0.3024	0.0022	0.132	-0.478
Mof_O 	O 	0.2328	0.0421	0.2175	-0.44
Mof_O 	O 	0.6172	0.0655	0.1487	-0.388
Mof_O 	O 	0.4288	0.1241	0.1997	-0.497
Mof_O 	O 	0.4242	0.0533	0.1477	-0.488
Mof_O 	O 	0.2129	0.0218	0.4652	-0.385
Mof_O 	O 	0.212	0.1005	0.3775	-0.488
Mof_O 	O 	0.0762	0.0429	0.3997	-0.477
Mof_O 	O 	0.3333	0.0924	0.0628	-0.386
Mof_O 	O 	0.2818	0.1377	0.1555	-0.501
Mof_O 	O 	0.1572	0.0857	0.1387	-0.484
Mof_O 	O 	0.2729	0.193	0.3742	-0.407
Mof_O 	O 	0.3119	0.1905	0.2663	-0.474
Mof_O 	O 	0.1295	0.1855	0.3215	-0.48
Mof_O 	O 	0.2357	0.112	0.267	-0.439
Mof_O 	O 	0.8968	0.0502	0.3706	-0.404
Mof_O 	O 	0.024	0.0433	0.2725	-0.499
Mof_O 	O 	0.0308	0.115	0.3214	-0.491
Mof_O 	O 	0.957	0.0779	0.1803	-0.405
Mof_O 	O 	0.0625	0.1304	0.2228	-0.501
Mof_O 	O 	0.3458	0.2269	0.1615	-0.428
Mof_O 	O 	0.1655	0.203	0.2202	-0.483
Mof_O 	O 	0.964	0.2182	0.2758	-0.386
Mof_P 	P 	0.42091	0.55268	0.7647	0.599
Mof_W 	W 	0.33991	0.43895	0.75741	1.319
Mof_W 	W 	0.17376	0.53641	0.82233	1.331
Mof_W 	W 	0.52706	0.43319	0.83261	1.317
Mof_W 	W 	0.59477	0.45666	0.69072	1.322
Mof_W 	W 	0.24401	0.55518	0.69098	1.311
Mof_W 	W 	0.35544	0.52706	0.90118	1.311
Mof_W 	W 	0.49858	0.57499	0.62767	1.319
Mof_W 	W 	0.25085	0.6549	0.83326	1.322
Mof_W 	W 	0.59126	0.54507	0.84303	1.323
Mof_W 	W 	0.66815	0.56549	0.70107	1.311
Mof_W 	W 	0.31453	0.67596	0.70156	1.339
Mof_W 	W 	0.48645	0.67045	0.77105	1.319
Mof_O 	O 	0.3245	0.3792	0.7548	-0.382
Mof_O 	O 	0.2763	0.4812	0.7042	-0.473
Mof_O 	O 	0.4666	0.4426	0.7082	-0.481
Mof_O 	O 	0.4163	0.4255	0.8083	-0.485
Mof_O 	O 	0.222	0.4654	0.8058	-0.481
Mof_O 	O 	0.3334	0.5305	0.7609	-0.441
Mof_O 	O 	0.0603	0.5336	0.8596	-0.411
Mof_O 	O 	0.1466	0.555	0.7554	-0.488
Mof_O 	O 	0.2568	0.5166	0.8714	-0.489
Mof_O 	O 	0.1836	0.6056	0.8234	-0.494
Mof_O 	O 	0.5779	0.3713	0.8555	-0.398
Mof_O 	O 	0.4298	0.4572	0.8922	-0.483
Mof_O 	O 	0.6125	0.4698	0.8484	-0.475
Mof_O 	O 	0.5949	0.4381	0.7629	-0.492
Mof_O 	O 	0.4568	0.5266	0.8128	-0.444
Mof_O 	O 	0.6686	0.402	0.6654	-0.393
Mof_O 	O 	0.6935	0.496	0.6876	-0.478
Mof_O 	O 	0.5634	0.5022	0.632	-0.478
Mof_O 	O 	0.5076	0.5421	0.7175	-0.44
Mof_O 	O 	0.1686	0.5655	0.6487	-0.388
Mof_O 	O 	0.2474	0.6241	0.6997	-0.497
Mof_O 	O 	0.3748	0.5533	0.6477	-0.488
Mof_O 	O 	0.3001	0.5218	0.9652	-0.384
Mof_O 	O 	0.31	0.6005	0.8775	-0.488
Mof_O 	O 	0.4812	0.5429	0.8997	-0.477
Mof_O 	O 	0.5115	0.5924	0.5628	-0.386
Mof_O 	O 	0.425	0.6377	0.6555	-0.501
Mof_O 	O 	0.6184	0.5857	0.6387	-0.484
Mof_O 	O 	0.1599	0.693	0.8742	-0.407
Mof_O 	O 	0.2313	0.6905	0.7663	-0.474
Mof_O 	O 	0.3635	0.6855	0.8215	-0.48
Mof_O 	O 	0.3853	0.612	0.767	-0.44
Mof_O 	O 	0.6824	0.5502	0.8706	-0.406
Mof_O 	O 	0.6602	0.5433	0.7725	-0.499
Mof_O 	O 	0.5328	0.615	0.8214	-0.491
Mof_O 	O 	0.7848	0.5779	0.6803	-0.407
Mof_O 	O 	0.5843	0.6304	0.7228	-0.501
Mof_O 	O 	0.2658	0.7269	0.6615	-0.428
Mof_O 	O 	0.4113	0.703	0.7202	-0.483
Mof_O 	O 	0.542	0.7182	0.7758	-0.388
Mof_P 	P 	0.73829	0.94732	0.7353	0.599
Mof_W 	W 	0.53627	0.06105	0.74259	1.319
Mof_W 	W 	0.5325	0.96359	0.67767	1.331
Mof_W 	W 	0.79286	0.06681	0.66739	1.317
Mof_W 	W 	0.74215	0.04334	0.80928	1.323
Mof_W 	W 	0.49017	0.94482	0.80902	1.312
Mof_W 	W 	0.78368	0.97294	0.59882	1.31
Mof_W 	W 	0.70124	0.92501	0.87233	1.319
Mof_W 	W 	0.73901	0.8451	0.66674	1.322
Mof_W 	W 	0.97936	0.95493	0.65697	1.319
Mof_W 	W 	0.93471	0.93451	0.79893	1.307
Mof_W 	W 	0.69205	0.82404	0.79844	1.339
Mof_W 	W 	0.92795	0.82955	0.72895	1.317
Mof_O 	O 	0.4585	0.1208	0.7452	-0.382
Mof_O 	O 	0.4617	0.0188	0.7958	-0.473
Mof_O 	O 	0.6174	0.0574	0.7918	-0.481
Mof_O 	O 	0.6501	0.0745	0.6917	-0.485
Mof_O 	O 	0.4932	0.0346	0.6942	-0.481
Mof_O 	O 	0.6248	0.9695	0.7391	-0.441
Mof_O 	O 	0.4535	0.9664	0.6404	-0.412
Mof_O 	O 	0.457	0.945	0.7446	-0.489
Mof_O 	O 	0.6448	0.9834	0.6286	-0.489
Mof_O 	O 	0.6126	0.8944	0.6766	-0.495
Mof_O 	O 	0.8047	0.1287	0.6445	-0.398
Mof_O 	O 	0.7792	0.0428	0.6078	-0.482
Mof_O 	O 	0.9307	0.0302	0.6516	-0.474
Mof_O 	O 	0.7959	0.0619	0.7371	-0.492
Mof_O 	O 	0.7962	0.9734	0.6872	-0.444
Mof_O 	O 	0.736	0.098	0.8346	-0.393
Mof_O 	O 	0.8771	0.004	0.8124	-0.477
Mof_O 	O 	0.6976	0.9978	0.868	-0.478
Mof_O 	O 	0.7672	0.9579	0.7825	-0.44
Mof_O 	O 	0.3828	0.9345	0.8513	-0.388
Mof_O 	O 	0.5712	0.8759	0.8003	-0.497
Mof_O 	O 	0.5758	0.9467	0.8523	-0.488
Mof_O 	O 	0.7871	0.9782	0.5348	-0.385
Mof_O 	O 	0.788	0.8995	0.6225	-0.488
Mof_O 	O 	0.9238	0.9571	0.6003	-0.477
Mof_O 	O 	0.6667	0.9076	0.9372	-0.386
Mof_O 	O 	0.7182	0.8623	0.8445	-0.501
Mof_O 	O 	0.8428	0.9143	0.8613	-0.484
Mof_O 	O 	0.7271	0.807	0.6258	-0.407
Mof_O 	O 	0.6881	0.8095	0.7337	-0.474
Mof_O 	O 	0.8705	0.8145	0.6785	-0.48
Mof_O 	O 	0.7643	0.888	0.733	-0.439
Mof_O 	O 	0.1032	0.9498	0.6294	-0.404
Mof_O 	O 	0.976	0.9567	0.7275	-0.499
Mof_O 	O 	0.9692	0.885	0.6786	-0.491
Mof_O 	O 	0.043	0.9221	0.8197	-0.405
Mof_O 	O 	0.9375	0.8696	0.7772	-0.501
Mof_O 	O 	0.6542	0.7731	0.8385	-0.428
Mof_O 	O 	0.8345	0.797	0.7798	-0.483
Mof_O 	O 	0.036	0.7818	0.7242	-0.386
_end
