data_functionalizedCrystal
_audit_creation_method	'EQeq! by Chris Wilmer'
_symmetry_space_group_name_H-M	'P1'
_symmetry_Int_Tables_number	1
_symmetry_cell_setting	triclinic
loop_
_symmetry_equiv_pos_as_xyz
  x,y,z
_cell_length_a	21.56
_cell_length_b	21.56
_cell_length_c	77.814
_cell_angle_alpha	90
_cell_angle_beta	90
_cell_angle_gamma	120
loop_
_atom_site_label
_atom_site_type_symbol
_atom_site_fract_x
_atom_site_fract_y
_atom_site_fract_z
_atom_site_charge
Mof_Zn	Zn	0.76984	0.41138	0.85447	1.203
Mof_Zn	Zn	0.67251	0.32728	0.88536	1.212
Mof_Zn	Zn	0.67205	0.24165	0.85311	1.208
Mof_Zn	Zn	0.59794	0.34059	0.85149	1.173
Mof_Zn	Zn	0.64154	0.23016	0.1878	1.203
Mof_Zn	Zn	0.65477	0.32749	0.21869	1.211
Mof_Zn	Zn	0.5696	0.32795	0.18644	1.208
Mof_Zn	Zn	0.74265	0.40206	0.18482	1.173
Mof_Zn	Zn	0.58862	0.35846	0.52114	1.203
Mof_Zn	Zn	0.67272	0.34523	0.55202	1.212
Mof_Zn	Zn	0.75835	0.4304	0.51977	1.208
Mof_Zn	Zn	0.65941	0.25735	0.51815	1.173
Mof_Zn	Zn	0.23016	0.58862	0.35447	1.203
Mof_Zn	Zn	0.32749	0.67272	0.38536	1.212
Mof_Zn	Zn	0.32795	0.75835	0.35311	1.208
Mof_Zn	Zn	0.40206	0.65941	0.35149	1.173
Mof_Zn	Zn	0.35846	0.76984	0.6878	1.203
Mof_Zn	Zn	0.34523	0.67251	0.71869	1.211
Mof_Zn	Zn	0.4304	0.67205	0.68644	1.208
Mof_Zn	Zn	0.25735	0.59794	0.68482	1.173
Mof_Zn	Zn	0.41138	0.64154	0.02114	1.203
Mof_Zn	Zn	0.32728	0.65477	0.05202	1.212
Mof_Zn	Zn	0.24165	0.5696	0.01977	1.208
Mof_Zn	Zn	0.34059	0.74265	0.01815	1.173
Mof_H 	H 	0.7938	0.4731	0.9224	0.071
Mof_H 	H 	0.0302	0.6313	0.9072	0.057
Mof_H 	H 	0.9515	0.5529	0.8866	0.034
Mof_H 	H 	0.8404	0.5236	0.9551	0.123
Mof_H 	H 	0.8485	0.5975	0.9492	0.12
Mof_H 	H 	0.002	0.6988	0.9393	0.096
Mof_H 	H 	0.0469	0.6598	0.9422	0.099
Mof_H 	H 	0.9945	0.548	0.9569	0.122
Mof_H 	H 	0.9343	0.5231	0.9711	0.127
Mof_H 	H 	0.968	0.7099	0.9675	0.123
Mof_H 	H 	0.9151	0.6457	0.9795	0.132
Mof_H 	H 	0.0862	0.5651	0.9844	0.045
Mof_H 	H 	0.1444	0.7465	0.0097	0.012
Mof_H 	H 	0.0569	0.761	0.9955	0.079
Mof_H 	H 	0.9215	0.4165	0.8172	0.057
Mof_H 	H 	0.9239	0.2002	0.8172	0.076
Mof_H 	H 	0.8408	0.2111	0.8333	0.013
Mof_H 	H 	0.0117	0.4441	0.7885	0.128
Mof_H 	H 	0.0694	0.4544	0.8025	0.127
Mof_H 	H 	0.0833	0.3318	0.8054	0.132
Mof_H 	H 	0.0335	0.2709	0.7923	0.123
Mof_H 	H 	0.1544	0.4584	0.7862	0.105
Mof_H 	H 	0.1509	0.3885	0.7787	0.119
Mof_H 	H 	0.9592	0.342	0.7709	0.122
Mof_H 	H 	0.9965	0.2969	0.7666	0.117
Mof_H 	H 	0.2161	0.5171	0.7535	0.075
Mof_H 	H 	0.0692	0.4618	0.7163	0.022
Mof_H 	H 	0.9817	0.3802	0.7339	0.058
Mof_H 	H 	0.603	0.4874	0.8294	0.035
Mof_H 	H 	0.8037	0.6841	0.8053	0.073
Mof_H 	H 	0.814	0.6057	0.8234	0.024
Mof_H 	H 	0.5329	0.5045	0.8003	0.137
Mof_H 	H 	0.5398	0.57	0.8108	0.151
Mof_H 	H 	0.6963	0.6818	0.7825	0.129
Mof_H 	H 	0.6623	0.7022	0.7979	0.132
Mof_H 	H 	0.4912	0.5956	0.7851	0.134
Mof_H 	H 	0.5564	0.6746	0.7859	0.133
Mof_H 	H 	0.645	0.5721	0.7711	0.144
Mof_H 	H 	0.5635	0.5125	0.7723	0.143
Mof_H 	H 	0.4844	0.6738	0.7552	0.066
Mof_H 	H 	0.5568	0.602	0.7162	0.004
Mof_H 	H 	0.6063	0.5639	0.7353	0.076
Mof_H 	H 	0.6793	0.2062	0.25573	0.072
Mof_H 	H 	0.6011	0.9698	0.24053	0.054
Mof_H 	H 	0.6014	0.0485	0.21993	0.036
Mof_H 	H 	0.6832	0.1596	0.28843	0.124
Mof_H 	H 	0.749	0.1515	0.28253	0.121
Mof_H 	H 	0.6968	0.998	0.27263	0.093
Mof_H 	H 	0.6129	0.9531	0.27553	0.096
Mof_H 	H 	0.5535	0.0055	0.29023	0.123
Mof_H 	H 	0.5888	0.0657	0.30443	0.127
Mof_H 	H 	0.7419	0.032	0.30083	0.123
Mof_H 	H 	0.7306	0.0849	0.31283	0.133
Mof_H 	H 	0.4789	0.9138	0.31773	0.046
Mof_H 	H 	0.6021	0.8556	0.34303	0.012
Mof_H 	H 	0.7041	0.9431	0.32883	0.078
Mof_H 	H 	0.495	0.0785	0.15053	0.058
Mof_H 	H 	0.2763	0.0761	0.15053	0.077
Mof_H 	H 	0.3703	0.1592	0.16663	0.013
Mof_H 	H 	0.4324	0.9883	0.12183	0.129
Mof_H 	H 	0.385	0.9306	0.13583	0.128
Mof_H 	H 	0.2485	0.9167	0.13873	0.133
Mof_H 	H 	0.2374	0.9665	0.12563	0.123
Mof_H 	H 	0.304	0.8456	0.11953	0.105
Mof_H 	H 	0.2376	0.8491	0.11203	0.119
Mof_H 	H 	0.3828	0.0408	0.10423	0.126
Mof_H 	H 	0.3004	0.0035	0.09993	0.122
Mof_H 	H 	0.301	0.7839	0.08683	0.075
Mof_H 	H 	0.3926	0.9308	0.04963	0.02
Mof_H 	H 	0.3985	0.0183	0.06723	0.061
Mof_H 	H 	0.8844	0.397	0.16273	0.032
Mof_H 	H 	0.8804	0.1963	0.13863	0.072
Mof_H 	H 	0.7917	0.186	0.15673	0.025
Mof_H 	H 	0.9716	0.4671	0.13363	0.119
Mof_H 	H 	0.0302	0.4602	0.14413	0.123
Mof_H 	H 	0.9855	0.3037	0.11583	0.115
Mof_H 	H 	0.0399	0.3377	0.13123	0.107
Mof_H 	H 	0.1044	0.5088	0.11843	0.123
Mof_H 	H 	0.1182	0.4436	0.11923	0.122
Mof_H 	H 	0.9271	0.355	0.10443	0.128
Mof_H 	H 	0.949	0.4365	0.10563	0.129
Mof_H 	H 	0.1894	0.5156	0.08853	0.064
Mof_H 	H 	0.0452	0.4432	0.04953	-0.002
Mof_H 	H 	0.9576	0.3937	0.06863	0.091
Mof_H 	H 	0.5269	0.3207	0.58907	0.07
Mof_H 	H 	0.3687	0.3989	0.57387	0.069
Mof_H 	H 	0.4471	0.3986	0.55327	0.03
Mof_H 	H 	0.4764	0.3168	0.62177	0.124
Mof_H 	H 	0.4025	0.251	0.61587	0.122
Mof_H 	H 	0.3012	0.3032	0.60597	0.114
Mof_H 	H 	0.3402	0.3871	0.60887	0.116
Mof_H 	H 	0.452	0.4465	0.62357	0.126
Mof_H 	H 	0.4769	0.4112	0.63777	0.131
Mof_H 	H 	0.2901	0.2581	0.63417	0.126
Mof_H 	H 	0.3543	0.2694	0.64617	0.137
Mof_H 	H 	0.4349	0.5211	0.65107	0.049
Mof_H 	H 	0.2535	0.3979	0.67637	0.011
Mof_H 	H 	0.239	0.2959	0.66217	0.083
Mof_H 	H 	0.5835	0.505	0.48387	0.059
Mof_H 	H 	0.7998	0.7237	0.48387	0.076
Mof_H 	H 	0.7889	0.6297	0.49997	0.013
Mof_H 	H 	0.5559	0.5676	0.45517	0.13
Mof_H 	H 	0.5456	0.615	0.46917	0.13
Mof_H 	H 	0.6682	0.7515	0.47207	0.134
Mof_H 	H 	0.7291	0.7626	0.45897	0.123
Mof_H 	H 	0.5416	0.696	0.45287	0.105
Mof_H 	H 	0.6115	0.7624	0.44537	0.119
Mof_H 	H 	0.658	0.6172	0.43757	0.136
Mof_H 	H 	0.7031	0.6996	0.43327	0.132
Mof_H 	H 	0.4829	0.699	0.42017	0.073
Mof_H 	H 	0.5382	0.6074	0.38297	0.013
Mof_H 	H 	0.6198	0.6015	0.40057	0.074
Mof_H 	H 	0.5126	0.1156	0.49607	0.032
Mof_H 	H 	0.3159	0.1196	0.47197	0.073
Mof_H 	H 	0.3943	0.2083	0.49007	0.025
Mof_H 	H 	0.4955	0.0284	0.46697	0.119
Mof_H 	H 	0.43	0.9698	0.47747	0.124
Mof_H 	H 	0.3182	0.0145	0.44917	0.116
Mof_H 	H 	0.2978	0.9601	0.46457	0.108
Mof_H 	H 	0.4044	0.8956	0.45177	0.123
Mof_H 	H 	0.3254	0.8818	0.45257	0.123
Mof_H 	H 	0.4279	0.0729	0.43777	0.129
Mof_H 	H 	0.4875	0.051	0.43897	0.13
Mof_H 	H 	0.3262	0.8106	0.42187	0.064
Mof_H 	H 	0.398	0.9548	0.38287	-0.002
Mof_H 	H 	0.4361	0.0424	0.40197	0.092
Mof_H 	H 	0.2062	0.5269	0.4224	0.072
Mof_H 	H 	0.9698	0.3687	0.4072	0.058
Mof_H 	H 	0.0485	0.4471	0.3866	0.035
Mof_H 	H 	0.1596	0.4764	0.4551	0.124
Mof_H 	H 	0.1515	0.4025	0.4492	0.121
Mof_H 	H 	0.998	0.3012	0.4393	0.097
Mof_H 	H 	0.9531	0.3402	0.4422	0.1
Mof_H 	H 	0.0055	0.452	0.4569	0.123
Mof_H 	H 	0.0657	0.4769	0.4711	0.128
Mof_H 	H 	0.032	0.2901	0.4675	0.124
Mof_H 	H 	0.0849	0.3543	0.4795	0.133
Mof_H 	H 	0.9138	0.4349	0.4844	0.046
Mof_H 	H 	0.8556	0.2535	0.5097	0.012
Mof_H 	H 	0.9431	0.239	0.4955	0.079
Mof_H 	H 	0.0785	0.5835	0.3172	0.057
Mof_H 	H 	0.0761	0.7998	0.3172	0.076
Mof_H 	H 	0.1592	0.7889	0.3333	0.013
Mof_H 	H 	0.9883	0.5559	0.2885	0.128
Mof_H 	H 	0.9306	0.5456	0.3025	0.127
Mof_H 	H 	0.9167	0.6682	0.3054	0.132
Mof_H 	H 	0.9665	0.7291	0.2923	0.123
Mof_H 	H 	0.8456	0.5416	0.2862	0.105
Mof_H 	H 	0.8491	0.6115	0.2787	0.119
Mof_H 	H 	0.0408	0.658	0.2709	0.122
Mof_H 	H 	0.0035	0.7031	0.2666	0.117
Mof_H 	H 	0.7839	0.4829	0.2535	0.075
Mof_H 	H 	0.9308	0.5382	0.2163	0.022
Mof_H 	H 	0.0183	0.6198	0.2339	0.058
Mof_H 	H 	0.397	0.5126	0.3294	0.035
Mof_H 	H 	0.1963	0.3159	0.3053	0.073
Mof_H 	H 	0.186	0.3943	0.3234	0.024
Mof_H 	H 	0.4671	0.4955	0.3003	0.137
Mof_H 	H 	0.4602	0.43	0.3108	0.151
Mof_H 	H 	0.3037	0.3182	0.2825	0.129
Mof_H 	H 	0.3377	0.2978	0.2979	0.132
Mof_H 	H 	0.5088	0.4044	0.2851	0.134
Mof_H 	H 	0.4436	0.3254	0.2859	0.133
Mof_H 	H 	0.355	0.4279	0.2711	0.144
Mof_H 	H 	0.4365	0.4875	0.2723	0.143
Mof_H 	H 	0.5156	0.3262	0.2552	0.066
Mof_H 	H 	0.4432	0.398	0.2162	0.004
Mof_H 	H 	0.3937	0.4361	0.2353	0.076
Mof_H 	H 	0.3207	0.7938	0.75573	0.072
Mof_H 	H 	0.3989	0.0302	0.74053	0.054
Mof_H 	H 	0.3986	0.9515	0.71993	0.036
Mof_H 	H 	0.3168	0.8404	0.78843	0.124
Mof_H 	H 	0.251	0.8485	0.78253	0.121
Mof_H 	H 	0.3032	0.002	0.77263	0.093
Mof_H 	H 	0.3871	0.0469	0.77553	0.096
Mof_H 	H 	0.4465	0.9945	0.79023	0.123
Mof_H 	H 	0.4112	0.9343	0.80443	0.127
Mof_H 	H 	0.2581	0.968	0.80083	0.123
Mof_H 	H 	0.2694	0.9151	0.81283	0.133
Mof_H 	H 	0.5211	0.0862	0.81773	0.046
Mof_H 	H 	0.3979	0.1444	0.84303	0.012
Mof_H 	H 	0.2959	0.0569	0.82883	0.078
Mof_H 	H 	0.505	0.9215	0.65053	0.058
Mof_H 	H 	0.7237	0.9239	0.65053	0.077
Mof_H 	H 	0.6297	0.8408	0.66663	0.013
Mof_H 	H 	0.5676	0.0117	0.62183	0.129
Mof_H 	H 	0.615	0.0694	0.63583	0.128
Mof_H 	H 	0.7515	0.0833	0.63873	0.133
Mof_H 	H 	0.7626	0.0335	0.62563	0.123
Mof_H 	H 	0.696	0.1544	0.61953	0.105
Mof_H 	H 	0.7624	0.1509	0.61203	0.119
Mof_H 	H 	0.6172	0.9592	0.60423	0.126
Mof_H 	H 	0.6996	0.9965	0.59993	0.122
Mof_H 	H 	0.699	0.2161	0.58683	0.075
Mof_H 	H 	0.6074	0.0692	0.54963	0.02
Mof_H 	H 	0.6015	0.9817	0.56723	0.061
Mof_H 	H 	0.1156	0.603	0.66273	0.032
Mof_H 	H 	0.1196	0.8037	0.63863	0.072
Mof_H 	H 	0.2083	0.814	0.65673	0.025
Mof_H 	H 	0.0284	0.5329	0.63363	0.119
Mof_H 	H 	0.9698	0.5398	0.64413	0.123
Mof_H 	H 	0.0145	0.6963	0.61583	0.115
Mof_H 	H 	0.9601	0.6623	0.63123	0.107
Mof_H 	H 	0.8956	0.4912	0.61843	0.123
Mof_H 	H 	0.8818	0.5564	0.61923	0.122
Mof_H 	H 	0.0729	0.645	0.60443	0.128
Mof_H 	H 	0.051	0.5635	0.60563	0.129
Mof_H 	H 	0.8106	0.4844	0.58853	0.064
Mof_H 	H 	0.9548	0.5568	0.54953	-0.002
Mof_H 	H 	0.0424	0.6063	0.56863	0.091
Mof_H 	H 	0.4731	0.6793	0.08907	0.07
Mof_H 	H 	0.6313	0.6011	0.07387	0.069
Mof_H 	H 	0.5529	0.6014	0.05327	0.03
Mof_H 	H 	0.5236	0.6832	0.12177	0.124
Mof_H 	H 	0.5975	0.749	0.11587	0.122
Mof_H 	H 	0.6988	0.6968	0.10597	0.114
Mof_H 	H 	0.6598	0.6129	0.10887	0.116
Mof_H 	H 	0.548	0.5535	0.12357	0.126
Mof_H 	H 	0.5231	0.5888	0.13777	0.131
Mof_H 	H 	0.7099	0.7419	0.13417	0.126
Mof_H 	H 	0.6457	0.7306	0.14617	0.137
Mof_H 	H 	0.5651	0.4789	0.15107	0.049
Mof_H 	H 	0.7465	0.6021	0.17637	0.011
Mof_H 	H 	0.761	0.7041	0.16217	0.083
Mof_H 	H 	0.4165	0.495	0.98387	0.059
Mof_H 	H 	0.2002	0.2763	0.98387	0.076
Mof_H 	H 	0.2111	0.3703	0.99997	0.013
Mof_H 	H 	0.4441	0.4324	0.95517	0.13
Mof_H 	H 	0.4544	0.385	0.96917	0.13
Mof_H 	H 	0.3318	0.2485	0.97207	0.134
Mof_H 	H 	0.2709	0.2374	0.95897	0.123
Mof_H 	H 	0.4584	0.304	0.95287	0.105
Mof_H 	H 	0.3885	0.2376	0.94537	0.119
Mof_H 	H 	0.342	0.3828	0.93757	0.136
Mof_H 	H 	0.2969	0.3004	0.93327	0.132
Mof_H 	H 	0.5171	0.301	0.92017	0.073
Mof_H 	H 	0.4618	0.3926	0.88297	0.013
Mof_H 	H 	0.3802	0.3985	0.90057	0.074
Mof_H 	H 	0.4874	0.8844	0.99607	0.032
Mof_H 	H 	0.6841	0.8804	0.97197	0.073
Mof_H 	H 	0.6057	0.7917	0.99007	0.025
Mof_H 	H 	0.5045	0.9716	0.96697	0.119
Mof_H 	H 	0.57	0.0302	0.97747	0.124
Mof_H 	H 	0.6818	0.9855	0.94917	0.116
Mof_H 	H 	0.7022	0.0399	0.96457	0.108
Mof_H 	H 	0.5956	0.1044	0.95177	0.123
Mof_H 	H 	0.6746	0.1182	0.95257	0.123
Mof_H 	H 	0.5721	0.9271	0.93777	0.129
Mof_H 	H 	0.5125	0.949	0.93897	0.13
Mof_H 	H 	0.6738	0.1894	0.92187	0.064
Mof_H 	H 	0.602	0.0452	0.88287	-0.002
Mof_H 	H 	0.5639	0.9576	0.90197	0.092
Mof_C 	C 	0.863	0.5045	0.90282	-0.079
Mof_C 	C 	0.84054	0.50558	0.91918	-0.065
Mof_C 	C 	0.8873	0.5548	0.93086	0.056
Mof_C 	C 	0.9587	0.6017	0.92679	0.06
Mof_C 	C 	0.9826	0.6003	0.9101	-0.108
Mof_C 	C 	0.936	0.553	0.89772	0.009
Mof_C 	C 	0.8711	0.5683	0.94917	-0.31
Mof_C 	C 	0.9476	0.6092	0.95759	0.239
Mof_C 	C 	0.9991	0.6528	0.94096	-0.263
Mof_C 	C 	0.973	0.5643	0.96536	-0.304
Mof_C 	C 	0.0294	0.6157	0.97844	0.01
Mof_C 	C 	0.0195	0.6698	0.98186	0.111
Mof_C 	C 	0.9574	0.6641	0.97222	-0.329
Mof_C 	C 	0.0824	0.6054	0.98668	-0.032
Mof_C 	C 	0.1273	0.6558	0.99789	-0.121
Mof_C 	C 	0.1156	0.7129	0.0015	0.046
Mof_C 	C 	0.0625	0.7217	0.99328	-0.169
Mof_C 	C 	0.1827	0.6475	0.00718	0.355
Mof_C 	C 	0.81149	0.45364	0.88998	0.376
Mof_C 	C 	0.8664	0.3101	0.82657	-0.125
Mof_C 	C 	0.9205	0.3729	0.81688	-0.046
Mof_C 	C 	0.9685	0.364	0.80757	0.038
Mof_C 	C 	0.9724	0.3021	0.80847	0.086
Mof_C 	C 	0.9231	0.2429	0.81737	-0.157
Mof_C 	C 	0.8727	0.2497	0.82658	0.058
Mof_C 	C 	0.0289	0.4195	0.79581	-0.317
Mof_C 	C 	0.0485	0.3714	0.78528	0.276
Mof_C 	C 	0.0416	0.3142	0.79808	-0.341
Mof_C 	C 	0.1272	0.4167	0.77896	-0.31
Mof_C 	C 	0.118	0.4382	0.76087	0.05
Mof_C 	C 	0.0487	0.3976	0.75536	0.072
Mof_C 	C 	0.005	0.3443	0.76943	-0.331
Mof_C 	C 	0.1692	0.4885	0.74979	-0.062
Mof_C 	C 	0.1505	0.4962	0.73304	-0.096
Mof_C 	C 	0.0808	0.4556	0.7275	0.033
Mof_C 	C 	0.0287	0.407	0.7378	-0.119
Mof_C 	C 	0.2079	0.5483	0.72193	0.37
Mof_C 	C 	0.8163	0.3154	0.83696	0.35
Mof_C 	C 	0.7088	0.5376	0.82786	-0.111
Mof_C 	C 	0.6423	0.5241	0.82381	-0.067
Mof_C 	C 	0.6315	0.5634	0.81161	0.069
Mof_C 	C 	0.6928	0.6286	0.80496	0.082
Mof_C 	C 	0.7631	0.6439	0.8096	-0.147
Mof_C 	C 	0.7685	0.5974	0.82056	0.037
Mof_C 	C 	0.5648	0.5543	0.80319	-0.397
Mof_C 	C 	0.5883	0.5988	0.78758	0.332
Mof_C 	C 	0.6656	0.6635	0.79252	-0.351
Mof_C 	C 	0.5401	0.6269	0.78139	-0.36
Mof_C 	C 	0.5444	0.629	0.7622	0.047
Mof_C 	C 	0.5801	0.5969	0.75757	0.118
Mof_C 	C 	0.5965	0.56367	0.772	-0.406
Mof_C 	C 	0.51017	0.65281	0.75109	-0.049
Mof_C 	C 	0.5161	0.6438	0.73338	-0.114
Mof_C 	C 	0.5532	0.6092	0.72787	0.07
Mof_C 	C 	0.5825	0.5872	0.73923	-0.177
Mof_C 	C 	0.476	0.6639	0.7211	0.388
Mof_C 	C 	0.7178	0.4883	0.84041	0.386
Mof_C 	C 	0.6415	0.137	0.23615	-0.077
Mof_C 	C 	0.66504	0.15946	0.25251	-0.067
Mof_C 	C 	0.6675	0.1127	0.26419	0.058
Mof_C 	C 	0.643	0.0413	0.26012	0.056
Mof_C 	C 	0.6177	0.0174	0.24343	-0.102
Mof_C 	C 	0.617	0.064	0.23105	0.005
Mof_C 	C 	0.6972	0.1289	0.2825	-0.31
Mof_C 	C 	0.6616	0.0524	0.29092	0.236
Mof_C 	C 	0.6537	0.0009	0.27429	-0.255
Mof_C 	C 	0.5913	0.027	0.29869	-0.301
Mof_C 	C 	0.5863	0.9706	0.31177	0.009
Mof_C 	C 	0.6503	0.9805	0.31519	0.109
Mof_C 	C 	0.7067	0.0426	0.30555	-0.327
Mof_C 	C 	0.523	0.9176	0.32001	-0.032
Mof_C 	C 	0.5285	0.8727	0.33122	-0.122
Mof_C 	C 	0.5973	0.8844	0.33483	0.045
Mof_C 	C 	0.6592	0.9375	0.32661	-0.168
Mof_C 	C 	0.4648	0.8173	0.34051	0.355
Mof_C 	C 	0.64215	0.18851	0.22331	0.375
Mof_C 	C 	0.4437	0.1336	0.1599	-0.124
Mof_C 	C 	0.4524	0.0795	0.15021	-0.047
Mof_C 	C 	0.3955	0.0315	0.1409	0.04
Mof_C 	C 	0.3297	0.0276	0.1418	0.088
Mof_C 	C 	0.3198	0.0769	0.1507	-0.158
Mof_C 	C 	0.377	0.1273	0.15991	0.058
Mof_C 	C 	0.3906	0.9711	0.12914	-0.321
Mof_C 	C 	0.3229	0.9515	0.11861	0.28
Mof_C 	C 	0.2726	0.9584	0.13141	-0.345
Mof_C 	C 	0.2895	0.8728	0.11229	-0.31
Mof_C 	C 	0.3202	0.882	0.0942	0.048
Mof_C 	C 	0.3489	0.9513	0.08869	0.077
Mof_C 	C 	0.3393	0.995	0.10276	-0.342
Mof_C 	C 	0.3193	0.8308	0.08312	-0.06
Mof_C 	C 	0.3457	0.8495	0.06637	-0.098
Mof_C 	C 	0.3748	0.9192	0.06083	0.037
Mof_C 	C 	0.3783	0.9713	0.07113	-0.125
Mof_C 	C 	0.3404	0.7921	0.05526	0.371
Mof_C 	C 	0.4991	0.1837	0.17029	0.35
Mof_C 	C 	0.8288	0.2912	0.16119	-0.115
Mof_C 	C 	0.8818	0.3577	0.15714	-0.054
Mof_C 	C 	0.9319	0.3685	0.14494	0.053
Mof_C 	C 	0.9358	0.3072	0.13829	0.075
Mof_C 	C 	0.8808	0.2369	0.14293	-0.141
Mof_C 	C 	0.8289	0.2315	0.15389	0.037
Mof_C 	C 	0.9895	0.4352	0.13652	-0.322
Mof_C 	C 	0.0105	0.4117	0.12091	0.262
Mof_C 	C 	0.9979	0.3344	0.12585	-0.291
Mof_C 	C 	0.0868	0.4599	0.11472	-0.325
Mof_C 	C 	0.0846	0.4556	0.09553	0.041
Mof_C 	C 	0.0168	0.4199	0.0909	0.103
Mof_C 	C 	0.96717	0.4035	0.10533	-0.346
Mof_C 	C 	0.14264	0.48983	0.08442	-0.043
Mof_C 	C 	0.1277	0.4839	0.06671	-0.12
Mof_C 	C 	0.056	0.4468	0.0612	0.082
Mof_C 	C 	0.0047	0.4175	0.07256	-0.196
Mof_C 	C 	0.1879	0.524	0.05443	0.39
Mof_C 	C 	0.7705	0.2822	0.17374	0.387
Mof_C 	C 	0.4955	0.3585	0.56949	-0.086
Mof_C 	C 	0.49442	0.33496	0.58585	-0.058
Mof_C 	C 	0.4452	0.3325	0.59753	0.048
Mof_C 	C 	0.3983	0.357	0.59346	0.078
Mof_C 	C 	0.3997	0.3823	0.57677	-0.131
Mof_C 	C 	0.447	0.383	0.56439	0.021
Mof_C 	C 	0.4317	0.3028	0.61584	-0.312
Mof_C 	C 	0.3908	0.3384	0.62426	0.252
Mof_C 	C 	0.3472	0.3463	0.60763	-0.303
Mof_C 	C 	0.4357	0.4087	0.63203	-0.32
Mof_C 	C 	0.3843	0.4137	0.64511	0.016
Mof_C 	C 	0.3302	0.3497	0.64853	0.122
Mof_C 	C 	0.3359	0.2933	0.63889	-0.348
Mof_C 	C 	0.3946	0.477	0.65335	-0.034
Mof_C 	C 	0.3442	0.4715	0.66456	-0.122
Mof_C 	C 	0.2871	0.4027	0.66817	0.049
Mof_C 	C 	0.2783	0.3408	0.65995	-0.174
Mof_C 	C 	0.3525	0.5352	0.67385	0.354
Mof_C 	C 	0.54636	0.35785	0.55665	0.378
Mof_C 	C 	0.6899	0.5563	0.49324	-0.124
Mof_C 	C 	0.6271	0.5476	0.48355	-0.049
Mof_C 	C 	0.636	0.6045	0.47424	0.042
Mof_C 	C 	0.6979	0.6703	0.47514	0.089
Mof_C 	C 	0.7571	0.6802	0.48404	-0.158
Mof_C 	C 	0.7503	0.623	0.49325	0.058
Mof_C 	C 	0.5805	0.6094	0.46248	-0.327
Mof_C 	C 	0.6286	0.6771	0.45195	0.288
Mof_C 	C 	0.6858	0.7274	0.46475	-0.35
Mof_C 	C 	0.5833	0.7105	0.44563	-0.31
Mof_C 	C 	0.5618	0.6798	0.42754	0.041
Mof_C 	C 	0.6024	0.6511	0.42203	0.089
Mof_C 	C 	0.6557	0.6607	0.4361	-0.367
Mof_C 	C 	0.5115	0.6807	0.41646	-0.053
Mof_C 	C 	0.5038	0.6543	0.39971	-0.106
Mof_C 	C 	0.5444	0.6252	0.39417	0.052
Mof_C 	C 	0.593	0.6217	0.40447	-0.149
Mof_C 	C 	0.4517	0.6596	0.3886	0.374
Mof_C 	C 	0.6846	0.5009	0.50363	0.349
Mof_C 	C 	0.4624	0.1712	0.49453	-0.115
Mof_C 	C 	0.4759	0.1182	0.49048	-0.054
Mof_C 	C 	0.4366	0.0681	0.47828	0.053
Mof_C 	C 	0.3714	0.0642	0.47163	0.076
Mof_C 	C 	0.3561	0.1192	0.47627	-0.142
Mof_C 	C 	0.4026	0.1711	0.48723	0.038
Mof_C 	C 	0.4457	0.0105	0.46986	-0.325
Mof_C 	C 	0.4012	0.9895	0.45425	0.265
Mof_C 	C 	0.3365	0.0021	0.45919	-0.293
Mof_C 	C 	0.3731	0.9132	0.44806	-0.326
Mof_C 	C 	0.371	0.9154	0.42887	0.04
Mof_C 	C 	0.4031	0.9832	0.42424	0.104
Mof_C 	C 	0.43633	0.03283	0.43867	-0.348
Mof_C 	C 	0.34719	0.85736	0.41776	-0.042
Mof_C 	C 	0.3562	0.8723	0.40005	-0.12
Mof_C 	C 	0.3908	0.944	0.39454	0.083
Mof_C 	C 	0.4128	0.9953	0.4059	-0.198
Mof_C 	C 	0.3361	0.8121	0.38777	0.391
Mof_C 	C 	0.5117	0.2295	0.50708	0.387
Mof_C 	C 	0.137	0.4955	0.40282	-0.079
Mof_C 	C 	0.15946	0.49442	0.41918	-0.065
Mof_C 	C 	0.1127	0.4452	0.43086	0.056
Mof_C 	C 	0.0413	0.3983	0.42679	0.06
Mof_C 	C 	0.0174	0.3997	0.4101	-0.108
Mof_C 	C 	0.064	0.447	0.39772	0.009
Mof_C 	C 	0.1289	0.4317	0.44917	-0.31
Mof_C 	C 	0.0524	0.3908	0.45759	0.239
Mof_C 	C 	0.0009	0.3472	0.44096	-0.263
Mof_C 	C 	0.027	0.4357	0.46536	-0.304
Mof_C 	C 	0.9706	0.3843	0.47844	0.01
Mof_C 	C 	0.9805	0.3302	0.48186	0.111
Mof_C 	C 	0.0426	0.3359	0.47222	-0.329
Mof_C 	C 	0.9176	0.3946	0.48668	-0.032
Mof_C 	C 	0.8727	0.3442	0.49789	-0.121
Mof_C 	C 	0.8844	0.2871	0.5015	0.046
Mof_C 	C 	0.9375	0.2783	0.49328	-0.169
Mof_C 	C 	0.8173	0.3525	0.50718	0.355
Mof_C 	C 	0.18851	0.54636	0.38998	0.376
Mof_C 	C 	0.1336	0.6899	0.32657	-0.125
Mof_C 	C 	0.0795	0.6271	0.31688	-0.046
Mof_C 	C 	0.0315	0.636	0.30757	0.038
Mof_C 	C 	0.0276	0.6979	0.30847	0.086
Mof_C 	C 	0.0769	0.7571	0.31737	-0.157
Mof_C 	C 	0.1273	0.7503	0.32658	0.058
Mof_C 	C 	0.9711	0.5805	0.29581	-0.317
Mof_C 	C 	0.9515	0.6286	0.28528	0.276
Mof_C 	C 	0.9584	0.6858	0.29808	-0.341
Mof_C 	C 	0.8728	0.5833	0.27896	-0.31
Mof_C 	C 	0.882	0.5618	0.26087	0.05
Mof_C 	C 	0.9513	0.6024	0.25536	0.072
Mof_C 	C 	0.995	0.6557	0.26943	-0.331
Mof_C 	C 	0.8308	0.5115	0.24979	-0.062
Mof_C 	C 	0.8495	0.5038	0.23304	-0.096
Mof_C 	C 	0.9192	0.5444	0.2275	0.033
Mof_C 	C 	0.9713	0.593	0.2378	-0.119
Mof_C 	C 	0.7921	0.4517	0.22193	0.37
Mof_C 	C 	0.1837	0.6846	0.33696	0.35
Mof_C 	C 	0.2912	0.4624	0.32786	-0.111
Mof_C 	C 	0.3577	0.4759	0.32381	-0.067
Mof_C 	C 	0.3685	0.4366	0.31161	0.069
Mof_C 	C 	0.3072	0.3714	0.30496	0.082
Mof_C 	C 	0.2369	0.3561	0.3096	-0.147
Mof_C 	C 	0.2315	0.4026	0.32056	0.037
Mof_C 	C 	0.4352	0.4457	0.30319	-0.397
Mof_C 	C 	0.4117	0.4012	0.28758	0.332
Mof_C 	C 	0.3344	0.3365	0.29252	-0.351
Mof_C 	C 	0.4599	0.3731	0.28139	-0.36
Mof_C 	C 	0.4556	0.371	0.2622	0.047
Mof_C 	C 	0.4199	0.4031	0.25757	0.118
Mof_C 	C 	0.4035	0.43633	0.272	-0.406
Mof_C 	C 	0.48983	0.34719	0.25109	-0.049
Mof_C 	C 	0.4839	0.3562	0.23338	-0.114
Mof_C 	C 	0.4468	0.3908	0.22787	0.07
Mof_C 	C 	0.4175	0.4128	0.23923	-0.177
Mof_C 	C 	0.524	0.3361	0.2211	0.388
Mof_C 	C 	0.2822	0.5117	0.34041	0.386
Mof_C 	C 	0.3585	0.863	0.73615	-0.077
Mof_C 	C 	0.33496	0.84054	0.75251	-0.067
Mof_C 	C 	0.3325	0.8873	0.76419	0.058
Mof_C 	C 	0.357	0.9587	0.76012	0.056
Mof_C 	C 	0.3823	0.9826	0.74343	-0.102
Mof_C 	C 	0.383	0.936	0.73105	0.005
Mof_C 	C 	0.3028	0.8711	0.7825	-0.31
Mof_C 	C 	0.3384	0.9476	0.79092	0.236
Mof_C 	C 	0.3463	0.9991	0.77429	-0.255
Mof_C 	C 	0.4087	0.973	0.79869	-0.301
Mof_C 	C 	0.4137	0.0294	0.81177	0.009
Mof_C 	C 	0.3497	0.0195	0.81519	0.109
Mof_C 	C 	0.2933	0.9574	0.80555	-0.327
Mof_C 	C 	0.477	0.0824	0.82001	-0.032
Mof_C 	C 	0.4715	0.1273	0.83122	-0.122
Mof_C 	C 	0.4027	0.1156	0.83483	0.045
Mof_C 	C 	0.3408	0.0625	0.82661	-0.168
Mof_C 	C 	0.5352	0.1827	0.84051	0.355
Mof_C 	C 	0.35785	0.81149	0.72331	0.375
Mof_C 	C 	0.5563	0.8664	0.6599	-0.124
Mof_C 	C 	0.5476	0.9205	0.65021	-0.047
Mof_C 	C 	0.6045	0.9685	0.6409	0.04
Mof_C 	C 	0.6703	0.9724	0.6418	0.088
Mof_C 	C 	0.6802	0.9231	0.6507	-0.158
Mof_C 	C 	0.623	0.8727	0.65991	0.058
Mof_C 	C 	0.6094	0.0289	0.62914	-0.321
Mof_C 	C 	0.6771	0.0485	0.61861	0.28
Mof_C 	C 	0.7274	0.0416	0.63141	-0.345
Mof_C 	C 	0.7105	0.1272	0.61229	-0.31
Mof_C 	C 	0.6798	0.118	0.5942	0.048
Mof_C 	C 	0.6511	0.0487	0.58869	0.077
Mof_C 	C 	0.6607	0.005	0.60276	-0.342
Mof_C 	C 	0.6807	0.1692	0.58312	-0.06
Mof_C 	C 	0.6543	0.1505	0.56637	-0.098
Mof_C 	C 	0.6252	0.0808	0.56083	0.037
Mof_C 	C 	0.6217	0.0287	0.57113	-0.125
Mof_C 	C 	0.6596	0.2079	0.55526	0.371
Mof_C 	C 	0.5009	0.8163	0.67029	0.35
Mof_C 	C 	0.1712	0.7088	0.66119	-0.115
Mof_C 	C 	0.1182	0.6423	0.65714	-0.054
Mof_C 	C 	0.0681	0.6315	0.64494	0.053
Mof_C 	C 	0.0642	0.6928	0.63829	0.075
Mof_C 	C 	0.1192	0.7631	0.64293	-0.141
Mof_C 	C 	0.1711	0.7685	0.65389	0.037
Mof_C 	C 	0.0105	0.5648	0.63652	-0.322
Mof_C 	C 	0.9895	0.5883	0.62091	0.262
Mof_C 	C 	0.0021	0.6656	0.62585	-0.291
Mof_C 	C 	0.9132	0.5401	0.61472	-0.325
Mof_C 	C 	0.9154	0.5444	0.59553	0.041
Mof_C 	C 	0.9832	0.5801	0.5909	0.103
Mof_C 	C 	0.03283	0.5965	0.60533	-0.346
Mof_C 	C 	0.85736	0.51017	0.58442	-0.043
Mof_C 	C 	0.8723	0.5161	0.56671	-0.12
Mof_C 	C 	0.944	0.5532	0.5612	0.082
Mof_C 	C 	0.9953	0.5825	0.57256	-0.196
Mof_C 	C 	0.8121	0.476	0.55443	0.39
Mof_C 	C 	0.2295	0.7178	0.67374	0.387
Mof_C 	C 	0.5045	0.6415	0.06949	-0.086
Mof_C 	C 	0.50558	0.66504	0.08585	-0.058
Mof_C 	C 	0.5548	0.6675	0.09753	0.048
Mof_C 	C 	0.6017	0.643	0.09346	0.078
Mof_C 	C 	0.6003	0.6177	0.07677	-0.131
Mof_C 	C 	0.553	0.617	0.06439	0.021
Mof_C 	C 	0.5683	0.6972	0.11584	-0.312
Mof_C 	C 	0.6092	0.6616	0.12426	0.252
Mof_C 	C 	0.6528	0.6537	0.10763	-0.303
Mof_C 	C 	0.5643	0.5913	0.13203	-0.32
Mof_C 	C 	0.6157	0.5863	0.14511	0.016
Mof_C 	C 	0.6698	0.6503	0.14853	0.122
Mof_C 	C 	0.6641	0.7067	0.13889	-0.348
Mof_C 	C 	0.6054	0.523	0.15335	-0.034
Mof_C 	C 	0.6558	0.5285	0.16456	-0.122
Mof_C 	C 	0.7129	0.5973	0.16817	0.049
Mof_C 	C 	0.7217	0.6592	0.15995	-0.174
Mof_C 	C 	0.6475	0.4648	0.17385	0.354
Mof_C 	C 	0.45364	0.64215	0.05665	0.378
Mof_C 	C 	0.3101	0.4437	0.99324	-0.124
Mof_C 	C 	0.3729	0.4524	0.98355	-0.049
Mof_C 	C 	0.364	0.3955	0.97424	0.042
Mof_C 	C 	0.3021	0.3297	0.97514	0.089
Mof_C 	C 	0.2429	0.3198	0.98404	-0.158
Mof_C 	C 	0.2497	0.377	0.99325	0.058
Mof_C 	C 	0.4195	0.3906	0.96248	-0.327
Mof_C 	C 	0.3714	0.3229	0.95195	0.288
Mof_C 	C 	0.3142	0.2726	0.96475	-0.35
Mof_C 	C 	0.4167	0.2895	0.94563	-0.31
Mof_C 	C 	0.4382	0.3202	0.92754	0.041
Mof_C 	C 	0.3976	0.3489	0.92203	0.089
Mof_C 	C 	0.3443	0.3393	0.9361	-0.367
Mof_C 	C 	0.4885	0.3193	0.91646	-0.053
Mof_C 	C 	0.4962	0.3457	0.89971	-0.106
Mof_C 	C 	0.4556	0.3748	0.89417	0.052
Mof_C 	C 	0.407	0.3783	0.90447	-0.149
Mof_C 	C 	0.5483	0.3404	0.8886	0.374
Mof_C 	C 	0.3154	0.4991	0.00363	0.349
Mof_C 	C 	0.5376	0.8288	0.99453	-0.115
Mof_C 	C 	0.5241	0.8818	0.99048	-0.054
Mof_C 	C 	0.5634	0.9319	0.97828	0.053
Mof_C 	C 	0.6286	0.9358	0.97163	0.076
Mof_C 	C 	0.6439	0.8808	0.97627	-0.142
Mof_C 	C 	0.5974	0.8289	0.98723	0.038
Mof_C 	C 	0.5543	0.9895	0.96986	-0.325
Mof_C 	C 	0.5988	0.0105	0.95425	0.265
Mof_C 	C 	0.6635	0.9979	0.95919	-0.293
Mof_C 	C 	0.6269	0.0868	0.94806	-0.326
Mof_C 	C 	0.629	0.0846	0.92887	0.04
Mof_C 	C 	0.5969	0.0168	0.92424	0.104
Mof_C 	C 	0.56367	0.96717	0.93867	-0.348
Mof_C 	C 	0.65281	0.14264	0.91776	-0.042
Mof_C 	C 	0.6438	0.1277	0.90005	-0.12
Mof_C 	C 	0.6092	0.056	0.89454	0.083
Mof_C 	C 	0.5872	0.0047	0.9059	-0.198
Mof_C 	C 	0.6639	0.1879	0.88777	0.391
Mof_C 	C 	0.4883	0.7705	0.00708	0.387
Mof_O 	O 	0.67831	0.32906	0.86076	-0.963
Mof_O 	O 	0.83322	0.45614	0.87483	-0.494
Mof_O 	O 	0.74983	0.41291	0.89568	-0.507
Mof_O 	O 	0.1823	0.5896	0.0051	-0.51
Mof_O 	O 	0.22783	0.70063	0.01607	-0.501
Mof_O 	O 	0.82415	0.37968	0.83978	-0.479
Mof_O 	O 	0.7633	0.25864	0.84309	-0.492
Mof_O 	O 	0.26974	0.58527	0.72863	-0.492
Mof_O 	O 	0.19351	0.55137	0.70628	-0.483
Mof_O 	O 	0.77662	0.492	0.84137	-0.496
Mof_O 	O 	0.6672	0.45253	0.84978	-0.538
Mof_O 	O 	0.43422	0.68177	0.72758	-0.51
Mof_O 	O 	0.48418	0.65821	0.70526	-0.497
Mof_O 	O 	0.65075	0.32169	0.19409	-0.963
Mof_O 	O 	0.62292	0.16678	0.20816	-0.493
Mof_O 	O 	0.66308	0.25017	0.22901	-0.507
Mof_O 	O 	0.4073	0.8177	0.33843	-0.51
Mof_O 	O 	0.4728	0.77217	0.3494	-0.502
Mof_O 	O 	0.55553	0.17585	0.17311	-0.478
Mof_O 	O 	0.49534	0.2367	0.17642	-0.492
Mof_O 	O 	0.31553	0.73026	0.06196	-0.492
Mof_O 	O 	0.35786	0.80649	0.03961	-0.483
Mof_O 	O 	0.71538	0.22338	0.1747	-0.496
Mof_O 	O 	0.78533	0.3328	0.18311	-0.538
Mof_O 	O 	0.24755	0.56578	0.06091	-0.511
Mof_O 	O 	0.17403	0.51582	0.03859	-0.498
Mof_O 	O 	0.67094	0.34925	0.52743	-0.963
Mof_O 	O 	0.54386	0.37708	0.5415	-0.494
Mof_O 	O 	0.58709	0.33692	0.56235	-0.508
Mof_O 	O 	0.4104	0.5927	0.67177	-0.509
Mof_O 	O 	0.29937	0.5272	0.68274	-0.501
Mof_O 	O 	0.62032	0.44447	0.50645	-0.478
Mof_O 	O 	0.74136	0.50466	0.50976	-0.492
Mof_O 	O 	0.41473	0.68447	0.3953	-0.492
Mof_O 	O 	0.44863	0.64214	0.37295	-0.485
Mof_O 	O 	0.508	0.28462	0.50804	-0.496
Mof_O 	O 	0.54747	0.21467	0.51645	-0.538
Mof_O 	O 	0.31823	0.75245	0.39425	-0.511
Mof_O 	O 	0.34179	0.82597	0.37193	-0.498
Mof_O 	O 	0.32169	0.67094	0.36076	-0.963
Mof_O 	O 	0.16678	0.54386	0.37483	-0.494
Mof_O 	O 	0.25017	0.58709	0.39568	-0.507
Mof_O 	O 	0.8177	0.4104	0.5051	-0.51
Mof_O 	O 	0.77217	0.29937	0.51607	-0.501
Mof_O 	O 	0.17585	0.62032	0.33978	-0.479
Mof_O 	O 	0.2367	0.74136	0.34309	-0.492
Mof_O 	O 	0.73026	0.41473	0.22863	-0.492
Mof_O 	O 	0.80649	0.44863	0.20628	-0.483
Mof_O 	O 	0.22338	0.508	0.34137	-0.496
Mof_O 	O 	0.3328	0.54747	0.34978	-0.538
Mof_O 	O 	0.56578	0.31823	0.22758	-0.51
Mof_O 	O 	0.51582	0.34179	0.20526	-0.497
Mof_O 	O 	0.34925	0.67831	0.69409	-0.963
Mof_O 	O 	0.37708	0.83322	0.70816	-0.493
Mof_O 	O 	0.33692	0.74983	0.72901	-0.507
Mof_O 	O 	0.5927	0.1823	0.83843	-0.51
Mof_O 	O 	0.5272	0.22783	0.8494	-0.502
Mof_O 	O 	0.44447	0.82415	0.67311	-0.478
Mof_O 	O 	0.50466	0.7633	0.67642	-0.492
Mof_O 	O 	0.68447	0.26974	0.56196	-0.492
Mof_O 	O 	0.64214	0.19351	0.53961	-0.483
Mof_O 	O 	0.28462	0.77662	0.6747	-0.496
Mof_O 	O 	0.21467	0.6672	0.68311	-0.538
Mof_O 	O 	0.75245	0.43422	0.56091	-0.511
Mof_O 	O 	0.82597	0.48418	0.53859	-0.498
Mof_O 	O 	0.32906	0.65075	0.02743	-0.963
Mof_O 	O 	0.45614	0.62292	0.0415	-0.494
Mof_O 	O 	0.41291	0.66308	0.06235	-0.508
Mof_O 	O 	0.5896	0.4073	0.17177	-0.509
Mof_O 	O 	0.70063	0.4728	0.18274	-0.501
Mof_O 	O 	0.37968	0.55553	0.00645	-0.478
Mof_O 	O 	0.25864	0.49534	0.00976	-0.492
Mof_O 	O 	0.58527	0.31553	0.8953	-0.492
Mof_O 	O 	0.55137	0.35786	0.87295	-0.485
Mof_O 	O 	0.492	0.71538	0.00804	-0.496
Mof_O 	O 	0.45253	0.78533	0.01645	-0.538
Mof_O 	O 	0.68177	0.24755	0.89425	-0.511
Mof_O 	O 	0.65821	0.17403	0.87193	-0.498
Mof_Zn	Zn	0.35846	0.58862	0.47886	1.204
Mof_Zn	Zn	0.34523	0.67272	0.44798	1.213
Mof_Zn	Zn	0.4304	0.75835	0.48023	1.209
Mof_Zn	Zn	0.25735	0.65941	0.48185	1.174
Mof_Zn	Zn	0.41138	0.76984	0.14553	1.204
Mof_Zn	Zn	0.32728	0.67251	0.11464	1.213
Mof_Zn	Zn	0.24165	0.67205	0.14689	1.209
Mof_Zn	Zn	0.34059	0.59794	0.14851	1.174
Mof_Zn	Zn	0.23016	0.64154	0.8122	1.204
Mof_Zn	Zn	0.32749	0.65477	0.78131	1.212
Mof_Zn	Zn	0.32795	0.5696	0.81356	1.209
Mof_Zn	Zn	0.40206	0.74265	0.81518	1.174
Mof_Zn	Zn	0.64154	0.41138	0.97886	1.204
Mof_Zn	Zn	0.65477	0.32728	0.94798	1.213
Mof_Zn	Zn	0.5696	0.24165	0.98023	1.209
Mof_Zn	Zn	0.74265	0.34059	0.98185	1.174
Mof_Zn	Zn	0.58862	0.23016	0.64553	1.204
Mof_Zn	Zn	0.67272	0.32749	0.61464	1.213
Mof_Zn	Zn	0.75835	0.32795	0.64689	1.209
Mof_Zn	Zn	0.65941	0.40206	0.64851	1.174
Mof_Zn	Zn	0.76984	0.35846	0.3122	1.204
Mof_Zn	Zn	0.67251	0.34523	0.28131	1.212
Mof_Zn	Zn	0.67205	0.4304	0.31356	1.209
Mof_Zn	Zn	0.59794	0.25735	0.31518	1.174
Mof_H 	H 	0.3207	0.5269	0.41093	0.07
Mof_H 	H 	0.3989	0.3687	0.42613	0.069
Mof_H 	H 	0.3986	0.4471	0.44673	0.03
Mof_H 	H 	0.3168	0.4764	0.37823	0.124
Mof_H 	H 	0.251	0.4025	0.38413	0.122
Mof_H 	H 	0.3032	0.3012	0.39403	0.114
Mof_H 	H 	0.3871	0.3402	0.39113	0.116
Mof_H 	H 	0.4465	0.452	0.37643	0.126
Mof_H 	H 	0.4112	0.4769	0.36223	0.131
Mof_H 	H 	0.2581	0.2901	0.36583	0.126
Mof_H 	H 	0.2694	0.3543	0.35383	0.137
Mof_H 	H 	0.5211	0.4349	0.34893	0.049
Mof_H 	H 	0.3979	0.2535	0.32363	0.011
Mof_H 	H 	0.2959	0.239	0.33783	0.083
Mof_H 	H 	0.505	0.5835	0.51613	0.059
Mof_H 	H 	0.7237	0.7998	0.51613	0.076
Mof_H 	H 	0.6297	0.7889	0.50003	0.013
Mof_H 	H 	0.5676	0.5559	0.54483	0.13
Mof_H 	H 	0.615	0.5456	0.53083	0.13
Mof_H 	H 	0.7515	0.6682	0.52793	0.134
Mof_H 	H 	0.7626	0.7291	0.54103	0.123
Mof_H 	H 	0.696	0.5416	0.54713	0.105
Mof_H 	H 	0.7624	0.6115	0.55463	0.119
Mof_H 	H 	0.6172	0.658	0.56243	0.136
Mof_H 	H 	0.6996	0.7031	0.56673	0.132
Mof_H 	H 	0.699	0.4829	0.57983	0.073
Mof_H 	H 	0.6074	0.5382	0.61703	0.013
Mof_H 	H 	0.6015	0.6198	0.59943	0.074
Mof_H 	H 	0.1156	0.5126	0.50393	0.032
Mof_H 	H 	0.1196	0.3159	0.52803	0.073
Mof_H 	H 	0.2083	0.3943	0.50993	0.025
Mof_H 	H 	0.0284	0.4955	0.53303	0.119
Mof_H 	H 	0.9698	0.43	0.52253	0.124
Mof_H 	H 	0.0145	0.3182	0.55083	0.116
Mof_H 	H 	0.9601	0.2978	0.53543	0.108
Mof_H 	H 	0.8956	0.4044	0.54823	0.123
Mof_H 	H 	0.8818	0.3254	0.54743	0.123
Mof_H 	H 	0.0729	0.4279	0.56223	0.129
Mof_H 	H 	0.051	0.4875	0.56103	0.13
Mof_H 	H 	0.8106	0.3262	0.57813	0.064
Mof_H 	H 	0.9548	0.398	0.61713	-0.002
Mof_H 	H 	0.0424	0.4361	0.59803	0.092
Mof_H 	H 	0.4731	0.7938	0.0776	0.072
Mof_H 	H 	0.6313	0.0302	0.0928	0.058
Mof_H 	H 	0.5529	0.9515	0.1134	0.035
Mof_H 	H 	0.5236	0.8404	0.0449	0.124
Mof_H 	H 	0.5975	0.8485	0.0508	0.121
Mof_H 	H 	0.6988	0.002	0.0607	0.097
Mof_H 	H 	0.6598	0.0469	0.0578	0.1
Mof_H 	H 	0.548	0.9945	0.0431	0.123
Mof_H 	H 	0.5231	0.9343	0.0289	0.128
Mof_H 	H 	0.7099	0.968	0.0325	0.124
Mof_H 	H 	0.6457	0.9151	0.0205	0.133
Mof_H 	H 	0.5651	0.0862	0.0156	0.046
Mof_H 	H 	0.7465	0.1444	0.9903	0.012
Mof_H 	H 	0.761	0.0569	0.0045	0.079
Mof_H 	H 	0.4165	0.9215	0.1828	0.057
Mof_H 	H 	0.2002	0.9239	0.1828	0.076
Mof_H 	H 	0.2111	0.8408	0.1667	0.013
Mof_H 	H 	0.4441	0.0117	0.2115	0.128
Mof_H 	H 	0.4544	0.0694	0.1975	0.127
Mof_H 	H 	0.3318	0.0833	0.1946	0.132
Mof_H 	H 	0.2709	0.0335	0.2077	0.123
Mof_H 	H 	0.4584	0.1544	0.2138	0.105
Mof_H 	H 	0.3885	0.1509	0.2213	0.119
Mof_H 	H 	0.342	0.9592	0.2291	0.122
Mof_H 	H 	0.2969	0.9965	0.2334	0.117
Mof_H 	H 	0.5171	0.2161	0.2465	0.075
Mof_H 	H 	0.4618	0.0692	0.2837	0.022
Mof_H 	H 	0.3802	0.9817	0.2661	0.058
Mof_H 	H 	0.4874	0.603	0.1706	0.035
Mof_H 	H 	0.6841	0.8037	0.1947	0.073
Mof_H 	H 	0.6057	0.814	0.1766	0.024
Mof_H 	H 	0.5045	0.5329	0.1997	0.137
Mof_H 	H 	0.57	0.5398	0.1892	0.151
Mof_H 	H 	0.6818	0.6963	0.2175	0.129
Mof_H 	H 	0.7022	0.6623	0.2021	0.132
Mof_H 	H 	0.5956	0.4912	0.2149	0.134
Mof_H 	H 	0.6746	0.5564	0.2141	0.133
Mof_H 	H 	0.5721	0.645	0.2289	0.144
Mof_H 	H 	0.5125	0.5635	0.2277	0.143
Mof_H 	H 	0.6738	0.4844	0.2448	0.066
Mof_H 	H 	0.602	0.5568	0.2838	0.004
Mof_H 	H 	0.5639	0.6063	0.2647	0.076
Mof_H 	H 	0.2062	0.6793	0.74427	0.072
Mof_H 	H 	0.9698	0.6011	0.75947	0.054
Mof_H 	H 	0.0485	0.6014	0.78007	0.036
Mof_H 	H 	0.1596	0.6832	0.71157	0.124
Mof_H 	H 	0.1515	0.749	0.71747	0.121
Mof_H 	H 	0.998	0.6968	0.72737	0.093
Mof_H 	H 	0.9531	0.6129	0.72447	0.096
Mof_H 	H 	0.0055	0.5535	0.70977	0.123
Mof_H 	H 	0.0657	0.5888	0.69557	0.127
Mof_H 	H 	0.032	0.7419	0.69917	0.123
Mof_H 	H 	0.0849	0.7306	0.68717	0.133
Mof_H 	H 	0.9138	0.4789	0.68227	0.046
Mof_H 	H 	0.8556	0.6021	0.65697	0.012
Mof_H 	H 	0.9431	0.7041	0.67117	0.078
Mof_H 	H 	0.0785	0.495	0.84947	0.058
Mof_H 	H 	0.0761	0.2763	0.84947	0.077
Mof_H 	H 	0.1592	0.3703	0.83337	0.013
Mof_H 	H 	0.9883	0.4324	0.87817	0.129
Mof_H 	H 	0.9306	0.385	0.86417	0.128
Mof_H 	H 	0.9167	0.2485	0.86127	0.133
Mof_H 	H 	0.9665	0.2374	0.87437	0.123
Mof_H 	H 	0.8456	0.304	0.88047	0.105
Mof_H 	H 	0.8491	0.2376	0.88797	0.119
Mof_H 	H 	0.0408	0.3828	0.89577	0.126
Mof_H 	H 	0.0035	0.3004	0.90007	0.122
Mof_H 	H 	0.7839	0.301	0.91317	0.075
Mof_H 	H 	0.9308	0.3926	0.95037	0.02
Mof_H 	H 	0.0183	0.3985	0.93277	0.061
Mof_H 	H 	0.397	0.8844	0.83727	0.032
Mof_H 	H 	0.1963	0.8804	0.86137	0.072
Mof_H 	H 	0.186	0.7917	0.84327	0.025
Mof_H 	H 	0.4671	0.9716	0.86637	0.119
Mof_H 	H 	0.4602	0.0302	0.85587	0.123
Mof_H 	H 	0.3037	0.9855	0.88417	0.115
Mof_H 	H 	0.3377	0.0399	0.86877	0.107
Mof_H 	H 	0.5088	0.1044	0.88157	0.123
Mof_H 	H 	0.4436	0.1182	0.88077	0.122
Mof_H 	H 	0.355	0.9271	0.89557	0.128
Mof_H 	H 	0.4365	0.949	0.89437	0.129
Mof_H 	H 	0.5156	0.1894	0.91147	0.064
Mof_H 	H 	0.4432	0.0452	0.95047	-0.002
Mof_H 	H 	0.3937	0.9576	0.93137	0.091
Mof_H 	H 	0.6793	0.4731	0.91093	0.07
Mof_H 	H 	0.6011	0.6313	0.92613	0.069
Mof_H 	H 	0.6014	0.5529	0.94673	0.03
Mof_H 	H 	0.6832	0.5236	0.87823	0.124
Mof_H 	H 	0.749	0.5975	0.88413	0.122
Mof_H 	H 	0.6968	0.6988	0.89403	0.114
Mof_H 	H 	0.6129	0.6598	0.89113	0.116
Mof_H 	H 	0.5535	0.548	0.87643	0.126
Mof_H 	H 	0.5888	0.5231	0.86223	0.131
Mof_H 	H 	0.7419	0.7099	0.86583	0.126
Mof_H 	H 	0.7306	0.6457	0.85383	0.137
Mof_H 	H 	0.4789	0.5651	0.84893	0.049
Mof_H 	H 	0.6021	0.7465	0.82363	0.011
Mof_H 	H 	0.7041	0.761	0.83783	0.083
Mof_H 	H 	0.495	0.4165	0.01613	0.059
Mof_H 	H 	0.2763	0.2002	0.01613	0.076
Mof_H 	H 	0.3703	0.2111	3e-05	0.013
Mof_H 	H 	0.4324	0.4441	0.04483	0.13
Mof_H 	H 	0.385	0.4544	0.03083	0.13
Mof_H 	H 	0.2485	0.3318	0.02793	0.134
Mof_H 	H 	0.2374	0.2709	0.04103	0.123
Mof_H 	H 	0.304	0.4584	0.04713	0.105
Mof_H 	H 	0.2376	0.3885	0.05463	0.119
Mof_H 	H 	0.3828	0.342	0.06243	0.136
Mof_H 	H 	0.3004	0.2969	0.06673	0.132
Mof_H 	H 	0.301	0.5171	0.07983	0.073
Mof_H 	H 	0.3926	0.4618	0.11703	0.013
Mof_H 	H 	0.3985	0.3802	0.09943	0.074
Mof_H 	H 	0.8844	0.4874	0.00393	0.032
Mof_H 	H 	0.8804	0.6841	0.02803	0.073
Mof_H 	H 	0.7917	0.6057	0.00993	0.025
Mof_H 	H 	0.9716	0.5045	0.03303	0.119
Mof_H 	H 	0.0302	0.57	0.02253	0.124
Mof_H 	H 	0.9855	0.6818	0.05083	0.116
Mof_H 	H 	0.0399	0.7022	0.03543	0.108
Mof_H 	H 	0.1044	0.5956	0.04823	0.123
Mof_H 	H 	0.1182	0.6746	0.04743	0.123
Mof_H 	H 	0.9271	0.5721	0.06223	0.129
Mof_H 	H 	0.949	0.5125	0.06103	0.13
Mof_H 	H 	0.1894	0.6738	0.07813	0.064
Mof_H 	H 	0.0452	0.602	0.11713	-0.002
Mof_H 	H 	0.9576	0.5639	0.09803	0.092
Mof_H 	H 	0.5269	0.2062	0.5776	0.072
Mof_H 	H 	0.3687	0.9698	0.5928	0.058
Mof_H 	H 	0.4471	0.0485	0.6134	0.035
Mof_H 	H 	0.4764	0.1596	0.5449	0.124
Mof_H 	H 	0.4025	0.1515	0.5508	0.121
Mof_H 	H 	0.3012	0.998	0.5607	0.097
Mof_H 	H 	0.3402	0.9531	0.5578	0.1
Mof_H 	H 	0.452	0.0055	0.5431	0.123
Mof_H 	H 	0.4769	0.0657	0.5289	0.128
Mof_H 	H 	0.2901	0.032	0.5325	0.124
Mof_H 	H 	0.3543	0.0849	0.5205	0.133
Mof_H 	H 	0.4349	0.9138	0.5156	0.046
Mof_H 	H 	0.2535	0.8556	0.4903	0.012
Mof_H 	H 	0.239	0.9431	0.5045	0.079
Mof_H 	H 	0.5835	0.0785	0.6828	0.057
Mof_H 	H 	0.7998	0.0761	0.6828	0.076
Mof_H 	H 	0.7889	0.1592	0.6667	0.013
Mof_H 	H 	0.5559	0.9883	0.7115	0.128
Mof_H 	H 	0.5456	0.9306	0.6975	0.127
Mof_H 	H 	0.6682	0.9167	0.6946	0.132
Mof_H 	H 	0.7291	0.9665	0.7077	0.123
Mof_H 	H 	0.5416	0.8456	0.7138	0.105
Mof_H 	H 	0.6115	0.8491	0.7213	0.119
Mof_H 	H 	0.658	0.0408	0.7291	0.122
Mof_H 	H 	0.7031	0.0035	0.7334	0.117
Mof_H 	H 	0.4829	0.7839	0.7465	0.075
Mof_H 	H 	0.5382	0.9308	0.7837	0.022
Mof_H 	H 	0.6198	0.0183	0.7661	0.058
Mof_H 	H 	0.5126	0.397	0.6706	0.035
Mof_H 	H 	0.3159	0.1963	0.6947	0.073
Mof_H 	H 	0.3943	0.186	0.6766	0.024
Mof_H 	H 	0.4955	0.4671	0.6997	0.137
Mof_H 	H 	0.43	0.4602	0.6892	0.151
Mof_H 	H 	0.3182	0.3037	0.7175	0.129
Mof_H 	H 	0.2978	0.3377	0.7021	0.132
Mof_H 	H 	0.4044	0.5088	0.7149	0.134
Mof_H 	H 	0.3254	0.4436	0.7141	0.133
Mof_H 	H 	0.4279	0.355	0.7289	0.144
Mof_H 	H 	0.4875	0.4365	0.7277	0.143
Mof_H 	H 	0.3262	0.5156	0.7448	0.066
Mof_H 	H 	0.398	0.4432	0.7838	0.004
Mof_H 	H 	0.4361	0.3937	0.7647	0.076
Mof_H 	H 	0.7938	0.3207	0.24427	0.072
Mof_H 	H 	0.0302	0.3989	0.25947	0.054
Mof_H 	H 	0.9515	0.3986	0.28007	0.036
Mof_H 	H 	0.8404	0.3168	0.21157	0.124
Mof_H 	H 	0.8485	0.251	0.21747	0.121
Mof_H 	H 	0.002	0.3032	0.22737	0.093
Mof_H 	H 	0.0469	0.3871	0.22447	0.096
Mof_H 	H 	0.9945	0.4465	0.20977	0.123
Mof_H 	H 	0.9343	0.4112	0.19557	0.127
Mof_H 	H 	0.968	0.2581	0.19917	0.123
Mof_H 	H 	0.9151	0.2694	0.18717	0.133
Mof_H 	H 	0.0862	0.5211	0.18227	0.046
Mof_H 	H 	0.1444	0.3979	0.15697	0.012
Mof_H 	H 	0.0569	0.2959	0.17117	0.078
Mof_H 	H 	0.9215	0.505	0.34947	0.058
Mof_H 	H 	0.9239	0.7237	0.34947	0.077
Mof_H 	H 	0.8408	0.6297	0.33337	0.013
Mof_H 	H 	0.0117	0.5676	0.37817	0.129
Mof_H 	H 	0.0694	0.615	0.36417	0.128
Mof_H 	H 	0.0833	0.7515	0.36127	0.133
Mof_H 	H 	0.0335	0.7626	0.37437	0.123
Mof_H 	H 	0.1544	0.696	0.38047	0.105
Mof_H 	H 	0.1509	0.7624	0.38797	0.119
Mof_H 	H 	0.9592	0.6172	0.39577	0.126
Mof_H 	H 	0.9965	0.6996	0.40007	0.122
Mof_H 	H 	0.2161	0.699	0.41317	0.075
Mof_H 	H 	0.0692	0.6074	0.45037	0.02
Mof_H 	H 	0.9817	0.6015	0.43277	0.061
Mof_H 	H 	0.603	0.1156	0.33727	0.032
Mof_H 	H 	0.8037	0.1196	0.36137	0.072
Mof_H 	H 	0.814	0.2083	0.34327	0.025
Mof_H 	H 	0.5329	0.0284	0.36637	0.119
Mof_H 	H 	0.5398	0.9698	0.35587	0.123
Mof_H 	H 	0.6963	0.0145	0.38417	0.115
Mof_H 	H 	0.6623	0.9601	0.36877	0.107
Mof_H 	H 	0.4912	0.8956	0.38157	0.123
Mof_H 	H 	0.5564	0.8818	0.38077	0.122
Mof_H 	H 	0.645	0.0729	0.39557	0.128
Mof_H 	H 	0.5635	0.051	0.39437	0.129
Mof_H 	H 	0.4844	0.8106	0.41147	0.064
Mof_H 	H 	0.5568	0.9548	0.45047	-0.002
Mof_H 	H 	0.6063	0.0424	0.43137	0.091
Mof_C 	C 	0.3585	0.4955	0.43051	-0.086
Mof_C 	C 	0.33496	0.49442	0.41415	-0.058
Mof_C 	C 	0.3325	0.4452	0.40247	0.048
Mof_C 	C 	0.357	0.3983	0.40654	0.078
Mof_C 	C 	0.3823	0.3997	0.42323	-0.131
Mof_C 	C 	0.383	0.447	0.43561	0.021
Mof_C 	C 	0.3028	0.4317	0.38416	-0.312
Mof_C 	C 	0.3384	0.3908	0.37574	0.252
Mof_C 	C 	0.3463	0.3472	0.39237	-0.303
Mof_C 	C 	0.4087	0.4357	0.36797	-0.32
Mof_C 	C 	0.4137	0.3843	0.35489	0.016
Mof_C 	C 	0.3497	0.3302	0.35147	0.122
Mof_C 	C 	0.2933	0.3359	0.36111	-0.348
Mof_C 	C 	0.477	0.3946	0.34665	-0.034
Mof_C 	C 	0.4715	0.3442	0.33544	-0.122
Mof_C 	C 	0.4027	0.2871	0.33183	0.049
Mof_C 	C 	0.3408	0.2783	0.34005	-0.174
Mof_C 	C 	0.5352	0.3525	0.32615	0.354
Mof_C 	C 	0.35785	0.54636	0.44335	0.378
Mof_C 	C 	0.5563	0.6899	0.50676	-0.124
Mof_C 	C 	0.5476	0.6271	0.51645	-0.049
Mof_C 	C 	0.6045	0.636	0.52576	0.042
Mof_C 	C 	0.6703	0.6979	0.52486	0.089
Mof_C 	C 	0.6802	0.7571	0.51596	-0.158
Mof_C 	C 	0.623	0.7503	0.50675	0.058
Mof_C 	C 	0.6094	0.5805	0.53752	-0.327
Mof_C 	C 	0.6771	0.6286	0.54805	0.288
Mof_C 	C 	0.7274	0.6858	0.53525	-0.35
Mof_C 	C 	0.7105	0.5833	0.55437	-0.31
Mof_C 	C 	0.6798	0.5618	0.57246	0.041
Mof_C 	C 	0.6511	0.6024	0.57797	0.089
Mof_C 	C 	0.6607	0.6557	0.5639	-0.367
Mof_C 	C 	0.6807	0.5115	0.58354	-0.053
Mof_C 	C 	0.6543	0.5038	0.60029	-0.106
Mof_C 	C 	0.6252	0.5444	0.60583	0.052
Mof_C 	C 	0.6217	0.593	0.59553	-0.149
Mof_C 	C 	0.6596	0.4517	0.6114	0.374
Mof_C 	C 	0.5009	0.6846	0.49637	0.349
Mof_C 	C 	0.1712	0.4624	0.50547	-0.115
Mof_C 	C 	0.1182	0.4759	0.50952	-0.054
Mof_C 	C 	0.0681	0.4366	0.52172	0.053
Mof_C 	C 	0.0642	0.3714	0.52837	0.076
Mof_C 	C 	0.1192	0.3561	0.52373	-0.142
Mof_C 	C 	0.1711	0.4026	0.51277	0.038
Mof_C 	C 	0.0105	0.4457	0.53014	-0.325
Mof_C 	C 	0.9895	0.4012	0.54575	0.265
Mof_C 	C 	0.0021	0.3365	0.54081	-0.293
Mof_C 	C 	0.9132	0.3731	0.55194	-0.326
Mof_C 	C 	0.9154	0.371	0.57113	0.04
Mof_C 	C 	0.9832	0.4031	0.57576	0.104
Mof_C 	C 	0.03283	0.43633	0.56133	-0.348
Mof_C 	C 	0.85736	0.34719	0.58224	-0.042
Mof_C 	C 	0.8723	0.3562	0.59995	-0.12
Mof_C 	C 	0.944	0.3908	0.60546	0.083
Mof_C 	C 	0.9953	0.4128	0.5941	-0.198
Mof_C 	C 	0.8121	0.3361	0.61223	0.391
Mof_C 	C 	0.2295	0.5117	0.49292	0.387
Mof_C 	C 	0.5045	0.863	0.09718	-0.079
Mof_C 	C 	0.50558	0.84054	0.08082	-0.065
Mof_C 	C 	0.5548	0.8873	0.06914	0.056
Mof_C 	C 	0.6017	0.9587	0.07321	0.06
Mof_C 	C 	0.6003	0.9826	0.0899	-0.108
Mof_C 	C 	0.553	0.936	0.10228	0.009
Mof_C 	C 	0.5683	0.8711	0.05083	-0.31
Mof_C 	C 	0.6092	0.9476	0.04241	0.239
Mof_C 	C 	0.6528	0.9991	0.05904	-0.263
Mof_C 	C 	0.5643	0.973	0.03464	-0.304
Mof_C 	C 	0.6157	0.0294	0.02156	0.01
Mof_C 	C 	0.6698	0.0195	0.01814	0.111
Mof_C 	C 	0.6641	0.9574	0.02778	-0.329
Mof_C 	C 	0.6054	0.0824	0.01332	-0.032
Mof_C 	C 	0.6558	0.1273	0.00211	-0.121
Mof_C 	C 	0.7129	0.1156	0.9985	0.046
Mof_C 	C 	0.7217	0.0625	0.00672	-0.169
Mof_C 	C 	0.6475	0.1827	0.99282	0.355
Mof_C 	C 	0.45364	0.81149	0.11002	0.376
Mof_C 	C 	0.3101	0.8664	0.17343	-0.125
Mof_C 	C 	0.3729	0.9205	0.18312	-0.046
Mof_C 	C 	0.364	0.9685	0.19243	0.038
Mof_C 	C 	0.3021	0.9724	0.19153	0.086
Mof_C 	C 	0.2429	0.9231	0.18263	-0.157
Mof_C 	C 	0.2497	0.8727	0.17342	0.058
Mof_C 	C 	0.4195	0.0289	0.20419	-0.317
Mof_C 	C 	0.3714	0.0485	0.21472	0.276
Mof_C 	C 	0.3142	0.0416	0.20192	-0.341
Mof_C 	C 	0.4167	0.1272	0.22104	-0.31
Mof_C 	C 	0.4382	0.118	0.23913	0.05
Mof_C 	C 	0.3976	0.0487	0.24464	0.072
Mof_C 	C 	0.3443	0.005	0.23057	-0.331
Mof_C 	C 	0.4885	0.1692	0.25021	-0.062
Mof_C 	C 	0.4962	0.1505	0.26696	-0.096
Mof_C 	C 	0.4556	0.0808	0.2725	0.033
Mof_C 	C 	0.407	0.0287	0.2622	-0.119
Mof_C 	C 	0.5483	0.2079	0.27807	0.37
Mof_C 	C 	0.3154	0.8163	0.16304	0.35
Mof_C 	C 	0.5376	0.7088	0.17214	-0.111
Mof_C 	C 	0.5241	0.6423	0.17619	-0.067
Mof_C 	C 	0.5634	0.6315	0.18839	0.069
Mof_C 	C 	0.6286	0.6928	0.19504	0.082
Mof_C 	C 	0.6439	0.7631	0.1904	-0.147
Mof_C 	C 	0.5974	0.7685	0.17944	0.037
Mof_C 	C 	0.5543	0.5648	0.19681	-0.397
Mof_C 	C 	0.5988	0.5883	0.21242	0.332
Mof_C 	C 	0.6635	0.6656	0.20748	-0.351
Mof_C 	C 	0.6269	0.5401	0.21861	-0.36
Mof_C 	C 	0.629	0.5444	0.2378	0.047
Mof_C 	C 	0.5969	0.5801	0.24243	0.118
Mof_C 	C 	0.56367	0.5965	0.228	-0.406
Mof_C 	C 	0.65281	0.51017	0.24891	-0.049
Mof_C 	C 	0.6438	0.5161	0.26662	-0.114
Mof_C 	C 	0.6092	0.5532	0.27213	0.07
Mof_C 	C 	0.5872	0.5825	0.26077	-0.177
Mof_C 	C 	0.6639	0.476	0.2789	0.388
Mof_C 	C 	0.4883	0.7178	0.15959	0.386
Mof_C 	C 	0.137	0.6415	0.76385	-0.077
Mof_C 	C 	0.15946	0.66504	0.74749	-0.067
Mof_C 	C 	0.1127	0.6675	0.73581	0.058
Mof_C 	C 	0.0413	0.643	0.73988	0.056
Mof_C 	C 	0.0174	0.6177	0.75657	-0.102
Mof_C 	C 	0.064	0.617	0.76895	0.005
Mof_C 	C 	0.1289	0.6972	0.7175	-0.31
Mof_C 	C 	0.0524	0.6616	0.70908	0.236
Mof_C 	C 	0.0009	0.6537	0.72571	-0.255
Mof_C 	C 	0.027	0.5913	0.70131	-0.301
Mof_C 	C 	0.9706	0.5863	0.68823	0.009
Mof_C 	C 	0.9805	0.6503	0.68481	0.109
Mof_C 	C 	0.0426	0.7067	0.69445	-0.327
Mof_C 	C 	0.9176	0.523	0.67999	-0.032
Mof_C 	C 	0.8727	0.5285	0.66878	-0.122
Mof_C 	C 	0.8844	0.5973	0.66517	0.045
Mof_C 	C 	0.9375	0.6592	0.67339	-0.168
Mof_C 	C 	0.8173	0.4648	0.65949	0.355
Mof_C 	C 	0.18851	0.64215	0.77669	0.375
Mof_C 	C 	0.1336	0.4437	0.8401	-0.124
Mof_C 	C 	0.0795	0.4524	0.84979	-0.047
Mof_C 	C 	0.0315	0.3955	0.8591	0.04
Mof_C 	C 	0.0276	0.3297	0.8582	0.088
Mof_C 	C 	0.0769	0.3198	0.8493	-0.158
Mof_C 	C 	0.1273	0.377	0.84009	0.058
Mof_C 	C 	0.9711	0.3906	0.87086	-0.321
Mof_C 	C 	0.9515	0.3229	0.88139	0.28
Mof_C 	C 	0.9584	0.2726	0.86859	-0.345
Mof_C 	C 	0.8728	0.2895	0.88771	-0.31
Mof_C 	C 	0.882	0.3202	0.9058	0.048
Mof_C 	C 	0.9513	0.3489	0.91131	0.077
Mof_C 	C 	0.995	0.3393	0.89724	-0.342
Mof_C 	C 	0.8308	0.3193	0.91688	-0.06
Mof_C 	C 	0.8495	0.3457	0.93363	-0.098
Mof_C 	C 	0.9192	0.3748	0.93917	0.037
Mof_C 	C 	0.9713	0.3783	0.92887	-0.125
Mof_C 	C 	0.7921	0.3404	0.94474	0.371
Mof_C 	C 	0.1837	0.4991	0.82971	0.35
Mof_C 	C 	0.2912	0.8288	0.83881	-0.115
Mof_C 	C 	0.3577	0.8818	0.84286	-0.054
Mof_C 	C 	0.3685	0.9319	0.85506	0.053
Mof_C 	C 	0.3072	0.9358	0.86171	0.075
Mof_C 	C 	0.2369	0.8808	0.85707	-0.141
Mof_C 	C 	0.2315	0.8289	0.84611	0.037
Mof_C 	C 	0.4352	0.9895	0.86348	-0.322
Mof_C 	C 	0.4117	0.0105	0.87909	0.262
Mof_C 	C 	0.3344	0.9979	0.87415	-0.291
Mof_C 	C 	0.4599	0.0868	0.88528	-0.325
Mof_C 	C 	0.4556	0.0846	0.90447	0.041
Mof_C 	C 	0.4199	0.0168	0.9091	0.103
Mof_C 	C 	0.4035	0.96717	0.89467	-0.346
Mof_C 	C 	0.48983	0.14264	0.91558	-0.043
Mof_C 	C 	0.4839	0.1277	0.93329	-0.12
Mof_C 	C 	0.4468	0.056	0.9388	0.082
Mof_C 	C 	0.4175	0.0047	0.92744	-0.196
Mof_C 	C 	0.524	0.1879	0.94557	0.39
Mof_C 	C 	0.2822	0.7705	0.82626	0.387
Mof_C 	C 	0.6415	0.5045	0.93051	-0.086
Mof_C 	C 	0.66504	0.50558	0.91415	-0.058
Mof_C 	C 	0.6675	0.5548	0.90247	0.048
Mof_C 	C 	0.643	0.6017	0.90654	0.078
Mof_C 	C 	0.6177	0.6003	0.92323	-0.131
Mof_C 	C 	0.617	0.553	0.93561	0.021
Mof_C 	C 	0.6972	0.5683	0.88416	-0.312
Mof_C 	C 	0.6616	0.6092	0.87574	0.252
Mof_C 	C 	0.6537	0.6528	0.89237	-0.303
Mof_C 	C 	0.5913	0.5643	0.86797	-0.32
Mof_C 	C 	0.5863	0.6157	0.85489	0.016
Mof_C 	C 	0.6503	0.6698	0.85147	0.122
Mof_C 	C 	0.7067	0.6641	0.86111	-0.348
Mof_C 	C 	0.523	0.6054	0.84665	-0.034
Mof_C 	C 	0.5285	0.6558	0.83544	-0.122
Mof_C 	C 	0.5973	0.7129	0.83183	0.049
Mof_C 	C 	0.6592	0.7217	0.84005	-0.174
Mof_C 	C 	0.4648	0.6475	0.82615	0.354
Mof_C 	C 	0.64215	0.45364	0.94335	0.378
Mof_C 	C 	0.4437	0.3101	0.00676	-0.124
Mof_C 	C 	0.4524	0.3729	0.01645	-0.049
Mof_C 	C 	0.3955	0.364	0.02576	0.042
Mof_C 	C 	0.3297	0.3021	0.02486	0.089
Mof_C 	C 	0.3198	0.2429	0.01596	-0.158
Mof_C 	C 	0.377	0.2497	0.00675	0.058
Mof_C 	C 	0.3906	0.4195	0.03752	-0.327
Mof_C 	C 	0.3229	0.3714	0.04805	0.288
Mof_C 	C 	0.2726	0.3142	0.03525	-0.35
Mof_C 	C 	0.2895	0.4167	0.05437	-0.31
Mof_C 	C 	0.3202	0.4382	0.07246	0.041
Mof_C 	C 	0.3489	0.3976	0.07797	0.089
Mof_C 	C 	0.3393	0.3443	0.0639	-0.367
Mof_C 	C 	0.3193	0.4885	0.08354	-0.053
Mof_C 	C 	0.3457	0.4962	0.10029	-0.106
Mof_C 	C 	0.3748	0.4556	0.10583	0.052
Mof_C 	C 	0.3783	0.407	0.09553	-0.149
Mof_C 	C 	0.3404	0.5483	0.1114	0.374
Mof_C 	C 	0.4991	0.3154	0.99637	0.349
Mof_C 	C 	0.8288	0.5376	0.00547	-0.115
Mof_C 	C 	0.8818	0.5241	0.00952	-0.054
Mof_C 	C 	0.9319	0.5634	0.02172	0.053
Mof_C 	C 	0.9358	0.6286	0.02837	0.076
Mof_C 	C 	0.8808	0.6439	0.02373	-0.142
Mof_C 	C 	0.8289	0.5974	0.01277	0.038
Mof_C 	C 	0.9895	0.5543	0.03014	-0.325
Mof_C 	C 	0.0105	0.5988	0.04575	0.265
Mof_C 	C 	0.9979	0.6635	0.04081	-0.293
Mof_C 	C 	0.0868	0.6269	0.05194	-0.326
Mof_C 	C 	0.0846	0.629	0.07113	0.04
Mof_C 	C 	0.0168	0.5969	0.07576	0.104
Mof_C 	C 	0.96717	0.56367	0.06133	-0.348
Mof_C 	C 	0.14264	0.65281	0.08224	-0.042
Mof_C 	C 	0.1277	0.6438	0.09995	-0.12
Mof_C 	C 	0.056	0.6092	0.10546	0.083
Mof_C 	C 	0.0047	0.5872	0.0941	-0.198
Mof_C 	C 	0.1879	0.6639	0.11223	0.391
Mof_C 	C 	0.7705	0.4883	0.99292	0.387
Mof_C 	C 	0.4955	0.137	0.59718	-0.079
Mof_C 	C 	0.49442	0.15946	0.58082	-0.065
Mof_C 	C 	0.4452	0.1127	0.56914	0.056
Mof_C 	C 	0.3983	0.0413	0.57321	0.06
Mof_C 	C 	0.3997	0.0174	0.5899	-0.108
Mof_C 	C 	0.447	0.064	0.60228	0.009
Mof_C 	C 	0.4317	0.1289	0.55083	-0.31
Mof_C 	C 	0.3908	0.0524	0.54241	0.239
Mof_C 	C 	0.3472	0.0009	0.55904	-0.263
Mof_C 	C 	0.4357	0.027	0.53464	-0.304
Mof_C 	C 	0.3843	0.9706	0.52156	0.01
Mof_C 	C 	0.3302	0.9805	0.51814	0.111
Mof_C 	C 	0.3359	0.0426	0.52778	-0.329
Mof_C 	C 	0.3946	0.9176	0.51332	-0.032
Mof_C 	C 	0.3442	0.8727	0.50211	-0.121
Mof_C 	C 	0.2871	0.8844	0.4985	0.046
Mof_C 	C 	0.2783	0.9375	0.50672	-0.169
Mof_C 	C 	0.3525	0.8173	0.49282	0.355
Mof_C 	C 	0.54636	0.18851	0.61002	0.376
Mof_C 	C 	0.6899	0.1336	0.67343	-0.125
Mof_C 	C 	0.6271	0.0795	0.68312	-0.046
Mof_C 	C 	0.636	0.0315	0.69243	0.038
Mof_C 	C 	0.6979	0.0276	0.69153	0.086
Mof_C 	C 	0.7571	0.0769	0.68263	-0.157
Mof_C 	C 	0.7503	0.1273	0.67342	0.058
Mof_C 	C 	0.5805	0.9711	0.70419	-0.317
Mof_C 	C 	0.6286	0.9515	0.71472	0.276
Mof_C 	C 	0.6858	0.9584	0.70192	-0.341
Mof_C 	C 	0.5833	0.8728	0.72104	-0.31
Mof_C 	C 	0.5618	0.882	0.73913	0.05
Mof_C 	C 	0.6024	0.9513	0.74464	0.072
Mof_C 	C 	0.6557	0.995	0.73057	-0.331
Mof_C 	C 	0.5115	0.8308	0.75021	-0.062
Mof_C 	C 	0.5038	0.8495	0.76696	-0.096
Mof_C 	C 	0.5444	0.9192	0.7725	0.033
Mof_C 	C 	0.593	0.9713	0.7622	-0.119
Mof_C 	C 	0.4517	0.7921	0.77807	0.37
Mof_C 	C 	0.6846	0.1837	0.66304	0.35
Mof_C 	C 	0.4624	0.2912	0.67214	-0.111
Mof_C 	C 	0.4759	0.3577	0.67619	-0.067
Mof_C 	C 	0.4366	0.3685	0.68839	0.069
Mof_C 	C 	0.3714	0.3072	0.69504	0.082
Mof_C 	C 	0.3561	0.2369	0.6904	-0.147
Mof_C 	C 	0.4026	0.2315	0.67944	0.037
Mof_C 	C 	0.4457	0.4352	0.69681	-0.397
Mof_C 	C 	0.4012	0.4117	0.71242	0.332
Mof_C 	C 	0.3365	0.3344	0.70748	-0.351
Mof_C 	C 	0.3731	0.4599	0.71861	-0.36
Mof_C 	C 	0.371	0.4556	0.7378	0.047
Mof_C 	C 	0.4031	0.4199	0.74243	0.118
Mof_C 	C 	0.43633	0.4035	0.728	-0.406
Mof_C 	C 	0.34719	0.48983	0.74891	-0.049
Mof_C 	C 	0.3562	0.4839	0.76662	-0.114
Mof_C 	C 	0.3908	0.4468	0.77213	0.07
Mof_C 	C 	0.4128	0.4175	0.76077	-0.177
Mof_C 	C 	0.3361	0.524	0.7789	0.388
Mof_C 	C 	0.5117	0.2822	0.65959	0.386
Mof_C 	C 	0.863	0.3585	0.26385	-0.077
Mof_C 	C 	0.84054	0.33496	0.24749	-0.067
Mof_C 	C 	0.8873	0.3325	0.23581	0.058
Mof_C 	C 	0.9587	0.357	0.23988	0.056
Mof_C 	C 	0.9826	0.3823	0.25657	-0.102
Mof_C 	C 	0.936	0.383	0.26895	0.005
Mof_C 	C 	0.8711	0.3028	0.2175	-0.31
Mof_C 	C 	0.9476	0.3384	0.20908	0.236
Mof_C 	C 	0.9991	0.3463	0.22571	-0.255
Mof_C 	C 	0.973	0.4087	0.20131	-0.301
Mof_C 	C 	0.0294	0.4137	0.18823	0.009
Mof_C 	C 	0.0195	0.3497	0.18481	0.109
Mof_C 	C 	0.9574	0.2933	0.19445	-0.327
Mof_C 	C 	0.0824	0.477	0.17999	-0.032
Mof_C 	C 	0.1273	0.4715	0.16878	-0.122
Mof_C 	C 	0.1156	0.4027	0.16517	0.045
Mof_C 	C 	0.0625	0.3408	0.17339	-0.168
Mof_C 	C 	0.1827	0.5352	0.15949	0.355
Mof_C 	C 	0.81149	0.35785	0.27669	0.375
Mof_C 	C 	0.8664	0.5563	0.3401	-0.124
Mof_C 	C 	0.9205	0.5476	0.34979	-0.047
Mof_C 	C 	0.9685	0.6045	0.3591	0.04
Mof_C 	C 	0.9724	0.6703	0.3582	0.088
Mof_C 	C 	0.9231	0.6802	0.3493	-0.158
Mof_C 	C 	0.8727	0.623	0.34009	0.058
Mof_C 	C 	0.0289	0.6094	0.37086	-0.321
Mof_C 	C 	0.0485	0.6771	0.38139	0.28
Mof_C 	C 	0.0416	0.7274	0.36859	-0.345
Mof_C 	C 	0.1272	0.7105	0.38771	-0.31
Mof_C 	C 	0.118	0.6798	0.4058	0.048
Mof_C 	C 	0.0487	0.6511	0.41131	0.077
Mof_C 	C 	0.005	0.6607	0.39724	-0.342
Mof_C 	C 	0.1692	0.6807	0.41688	-0.06
Mof_C 	C 	0.1505	0.6543	0.43363	-0.098
Mof_C 	C 	0.0808	0.6252	0.43917	0.037
Mof_C 	C 	0.0287	0.6217	0.42887	-0.125
Mof_C 	C 	0.2079	0.6596	0.44474	0.371
Mof_C 	C 	0.8163	0.5009	0.32971	0.35
Mof_C 	C 	0.7088	0.1712	0.33881	-0.115
Mof_C 	C 	0.6423	0.1182	0.34286	-0.054
Mof_C 	C 	0.6315	0.0681	0.35506	0.053
Mof_C 	C 	0.6928	0.0642	0.36171	0.075
Mof_C 	C 	0.7631	0.1192	0.35707	-0.141
Mof_C 	C 	0.7685	0.1711	0.34611	0.037
Mof_C 	C 	0.5648	0.0105	0.36348	-0.322
Mof_C 	C 	0.5883	0.9895	0.37909	0.262
Mof_C 	C 	0.6656	0.0021	0.37415	-0.291
Mof_C 	C 	0.5401	0.9132	0.38528	-0.325
Mof_C 	C 	0.5444	0.9154	0.40447	0.041
Mof_C 	C 	0.5801	0.9832	0.4091	0.103
Mof_C 	C 	0.5965	0.03283	0.39467	-0.346
Mof_C 	C 	0.51017	0.85736	0.41558	-0.043
Mof_C 	C 	0.5161	0.8723	0.43329	-0.12
Mof_C 	C 	0.5532	0.944	0.4388	0.082
Mof_C 	C 	0.5825	0.9953	0.42744	-0.196
Mof_C 	C 	0.476	0.8121	0.44557	0.39
Mof_C 	C 	0.7178	0.2295	0.32626	0.387
Mof_O 	O 	0.34925	0.67094	0.47257	-0.963
Mof_O 	O 	0.37708	0.54386	0.4585	-0.494
Mof_O 	O 	0.33692	0.58709	0.43765	-0.508
Mof_O 	O 	0.5927	0.4104	0.32823	-0.509
Mof_O 	O 	0.5272	0.29937	0.31726	-0.501
Mof_O 	O 	0.44447	0.62032	0.49355	-0.478
Mof_O 	O 	0.50466	0.74136	0.49024	-0.492
Mof_O 	O 	0.68447	0.41473	0.6047	-0.492
Mof_O 	O 	0.64214	0.44863	0.62705	-0.485
Mof_O 	O 	0.28462	0.508	0.49196	-0.496
Mof_O 	O 	0.21467	0.54747	0.48355	-0.538
Mof_O 	O 	0.75245	0.31823	0.60575	-0.511
Mof_O 	O 	0.82597	0.34179	0.62807	-0.498
Mof_O 	O 	0.32906	0.67831	0.13924	-0.963
Mof_O 	O 	0.45614	0.83322	0.12517	-0.494
Mof_O 	O 	0.41291	0.74983	0.10432	-0.507
Mof_O 	O 	0.5896	0.1823	0.9949	-0.51
Mof_O 	O 	0.70063	0.22783	0.98393	-0.501
Mof_O 	O 	0.37968	0.82415	0.16022	-0.479
Mof_O 	O 	0.25864	0.7633	0.15691	-0.492
Mof_O 	O 	0.58527	0.26974	0.27137	-0.492
Mof_O 	O 	0.55137	0.19351	0.29372	-0.483
Mof_O 	O 	0.492	0.77662	0.15863	-0.496
Mof_O 	O 	0.45253	0.6672	0.15022	-0.538
Mof_O 	O 	0.68177	0.43422	0.27242	-0.51
Mof_O 	O 	0.65821	0.48418	0.29474	-0.497
Mof_O 	O 	0.32169	0.65075	0.80591	-0.963
Mof_O 	O 	0.16678	0.62292	0.79184	-0.493
Mof_O 	O 	0.25017	0.66308	0.77099	-0.507
Mof_O 	O 	0.8177	0.4073	0.66157	-0.51
Mof_O 	O 	0.77217	0.4728	0.6506	-0.502
Mof_O 	O 	0.17585	0.55553	0.82689	-0.478
Mof_O 	O 	0.2367	0.49534	0.82358	-0.492
Mof_O 	O 	0.73026	0.31553	0.93804	-0.492
Mof_O 	O 	0.80649	0.35786	0.96039	-0.483
Mof_O 	O 	0.22338	0.71538	0.8253	-0.496
Mof_O 	O 	0.3328	0.78533	0.81689	-0.538
Mof_O 	O 	0.56578	0.24755	0.93909	-0.511
Mof_O 	O 	0.51582	0.17403	0.96141	-0.498
Mof_O 	O 	0.65075	0.32906	0.97257	-0.963
Mof_O 	O 	0.62292	0.45614	0.9585	-0.494
Mof_O 	O 	0.66308	0.41291	0.93765	-0.508
Mof_O 	O 	0.4073	0.5896	0.82823	-0.509
Mof_O 	O 	0.4728	0.70063	0.81726	-0.501
Mof_O 	O 	0.55553	0.37968	0.99355	-0.478
Mof_O 	O 	0.49534	0.25864	0.99024	-0.492
Mof_O 	O 	0.31553	0.58527	0.1047	-0.492
Mof_O 	O 	0.35786	0.55137	0.12705	-0.485
Mof_O 	O 	0.71538	0.492	0.99196	-0.496
Mof_O 	O 	0.78533	0.45253	0.98355	-0.538
Mof_O 	O 	0.24755	0.68177	0.10575	-0.511
Mof_O 	O 	0.17403	0.65821	0.12807	-0.498
Mof_O 	O 	0.67094	0.32169	0.63924	-0.963
Mof_O 	O 	0.54386	0.16678	0.62517	-0.494
Mof_O 	O 	0.58709	0.25017	0.60432	-0.507
Mof_O 	O 	0.4104	0.8177	0.4949	-0.51
Mof_O 	O 	0.29937	0.77217	0.48393	-0.501
Mof_O 	O 	0.62032	0.17585	0.66022	-0.479
Mof_O 	O 	0.74136	0.2367	0.65691	-0.492
Mof_O 	O 	0.41473	0.73026	0.77137	-0.492
Mof_O 	O 	0.44863	0.80649	0.79372	-0.483
Mof_O 	O 	0.508	0.22338	0.65863	-0.496
Mof_O 	O 	0.54747	0.3328	0.65022	-0.538
Mof_O 	O 	0.31823	0.56578	0.77242	-0.51
Mof_O 	O 	0.34179	0.51582	0.79474	-0.497
Mof_O 	O 	0.67831	0.34925	0.30591	-0.963
Mof_O 	O 	0.83322	0.37708	0.29184	-0.493
Mof_O 	O 	0.74983	0.33692	0.27099	-0.507
Mof_O 	O 	0.1823	0.5927	0.16157	-0.51
Mof_O 	O 	0.22783	0.5272	0.1506	-0.502
Mof_O 	O 	0.82415	0.44447	0.32689	-0.478
Mof_O 	O 	0.7633	0.50466	0.32358	-0.492
Mof_O 	O 	0.26974	0.68447	0.43804	-0.492
Mof_O 	O 	0.19351	0.64214	0.46039	-0.483
Mof_O 	O 	0.77662	0.28462	0.3253	-0.496
Mof_O 	O 	0.6672	0.21467	0.31689	-0.538
Mof_O 	O 	0.43422	0.75245	0.43909	-0.511
Mof_O 	O 	0.48418	0.82597	0.46141	-0.498
_end
