data_functionalizedCrystal
_audit_creation_method	'EQeq! by Chris Wilmer'
_symmetry_space_group_name_H-M	'P1'
_symmetry_Int_Tables_number	1
_symmetry_cell_setting	triclinic
loop_
_symmetry_equiv_pos_as_xyz
  x,y,z
_cell_length_a	13.365
_cell_length_b	13.365
_cell_length_c	27.429
_cell_angle_alpha	90
_cell_angle_beta	90
_cell_angle_gamma	90
loop_
_atom_site_label
_atom_site_type_symbol
_atom_site_fract_x
_atom_site_fract_y
_atom_site_fract_z
_atom_site_charge
Mof_Zn	Zn	0.58775	0.02348	0.05332	1.183
Mof_C 	C 	0.4817	0.1221	0.26446	-0.029
Mof_H 	H 	0.4333	0.1681	0.2741	0.057
Mof_C 	C 	0.4998	0.1063	0.21505	-0.026
Mof_H 	H 	0.4653	0.1432	0.1917	0.05
Mof_C 	C 	0.57	0.0351	0.20079	-0.056
Mof_C 	C 	0.5885	0.0153	0.14754	0.292
Mof_C 	C 	0.5595	0.221	0.0026	0.091
Mof_H 	H 	0.6002	0.2529	0.0253	-0.05
Mof_C 	C 	0.4669	0.1937	0.94181	0.089
Mof_H 	H 	0.4297	0.2025	0.9134	-0.008
Mof_N 	N 	0.5161	0.2676	0.96454	-0.293
Mof_N 	N 	0.4772	0.1068	0.96444	-0.261
Mof_N 	N 	0.5374	0.1245	0.00404	-0.262
Mof_O 	O 	0.5493	0.07607	0.11678	-0.464
Mof_O 	O 	0.64022	0.9424	0.13467	-0.328
Mof_Zn	Zn	0.91225	0.47652	0.05332	1.185
Mof_C 	C 	0.0183	0.3779	0.26446	-0.027
Mof_H 	H 	0.0667	0.3319	0.2741	0.058
Mof_C 	C 	0.0002	0.3937	0.21505	-0.025
Mof_H 	H 	0.0347	0.3568	0.1917	0.051
Mof_C 	C 	0.93	0.4649	0.20079	-0.054
Mof_C 	C 	0.9115	0.4847	0.14754	0.295
Mof_C 	C 	0.9405	0.279	0.0026	0.092
Mof_H 	H 	0.8998	0.2471	0.0253	-0.049
Mof_C 	C 	0.0331	0.3063	0.94181	0.095
Mof_H 	H 	0.0703	0.2975	0.9134	-0.008
Mof_N 	N 	0.9839	0.2324	0.96454	-0.295
Mof_N 	N 	0.0228	0.3932	0.96444	-0.26
Mof_N 	N 	0.9626	0.3755	0.00404	-0.261
Mof_O 	O 	0.9507	0.42393	0.11678	-0.465
Mof_O 	O 	0.85978	0.5576	0.13467	-0.33
Mof_Zn	Zn	0.47652	0.58775	0.05332	1.185
Mof_C 	C 	0.3779	0.4817	0.26446	-0.028
Mof_H 	H 	0.3319	0.4333	0.2741	0.058
Mof_C 	C 	0.3937	0.4998	0.21505	-0.025
Mof_H 	H 	0.3568	0.4653	0.1917	0.051
Mof_C 	C 	0.4649	0.57	0.20079	-0.053
Mof_C 	C 	0.4847	0.5885	0.14754	0.295
Mof_C 	C 	0.279	0.5595	0.0026	0.092
Mof_H 	H 	0.2471	0.6002	0.0253	-0.049
Mof_C 	C 	0.3063	0.4669	0.94181	0.09
Mof_H 	H 	0.2975	0.4297	0.9134	-0.007
Mof_N 	N 	0.2324	0.5161	0.96454	-0.292
Mof_N 	N 	0.3932	0.4772	0.96444	-0.26
Mof_N 	N 	0.3755	0.5374	0.00404	-0.261
Mof_O 	O 	0.42393	0.5493	0.11678	-0.465
Mof_O 	O 	0.5576	0.64022	0.13467	-0.33
Mof_Zn	Zn	0.02348	0.91225	0.05332	1.183
Mof_C 	C 	0.1221	0.0183	0.26446	-0.022
Mof_H 	H 	0.1681	0.0667	0.2741	0.056
Mof_C 	C 	0.1063	0.0002	0.21505	-0.019
Mof_H 	H 	0.1432	0.0347	0.1917	0.05
Mof_C 	C 	0.0351	0.93	0.20079	-0.062
Mof_C 	C 	0.0153	0.9115	0.14754	0.291
Mof_C 	C 	0.221	0.9405	0.0026	0.092
Mof_H 	H 	0.2529	0.8998	0.0253	-0.049
Mof_C 	C 	0.1937	0.0331	0.94181	0.095
Mof_H 	H 	0.2025	0.0703	0.9134	-0.008
Mof_N 	N 	0.2676	0.9839	0.96454	-0.295
Mof_N 	N 	0.1068	0.0228	0.96444	-0.257
Mof_N 	N 	0.1245	0.9626	0.00404	-0.263
Mof_O 	O 	0.07607	0.9507	0.11678	-0.466
Mof_O 	O 	0.9424	0.85978	0.13467	-0.325
Mof_Zn	Zn	0.41225	0.52348	0.44668	1.185
Mof_C 	C 	0.5183	0.6221	0.23554	-0.028
Mof_H 	H 	0.5667	0.6681	0.2259	0.058
Mof_C 	C 	0.5002	0.6063	0.28495	-0.025
Mof_H 	H 	0.5347	0.6432	0.3083	0.051
Mof_C 	C 	0.43	0.5351	0.29921	-0.053
Mof_C 	C 	0.4115	0.5153	0.35246	0.295
Mof_C 	C 	0.4405	0.721	0.4974	0.092
Mof_H 	H 	0.3998	0.7529	0.4747	-0.049
Mof_C 	C 	0.5331	0.6937	0.55819	0.09
Mof_H 	H 	0.5703	0.7025	0.5866	-0.007
Mof_N 	N 	0.4839	0.7676	0.53546	-0.292
Mof_N 	N 	0.5228	0.6068	0.53556	-0.26
Mof_N 	N 	0.4626	0.6245	0.49596	-0.261
Mof_O 	O 	0.4507	0.57607	0.38322	-0.465
Mof_O 	O 	0.35978	0.4424	0.36533	-0.33
Mof_Zn	Zn	0.08775	0.97652	0.44668	1.184
Mof_C 	C 	0.9817	0.8779	0.23554	-0.022
Mof_H 	H 	0.9333	0.8319	0.2259	0.056
Mof_C 	C 	0.9998	0.8937	0.28495	-0.018
Mof_H 	H 	0.9653	0.8568	0.3083	0.05
Mof_C 	C 	0.07	0.9649	0.29921	-0.063
Mof_C 	C 	0.0885	0.9847	0.35246	0.292
Mof_C 	C 	0.0595	0.779	0.4974	0.092
Mof_H 	H 	0.1002	0.7471	0.4747	-0.049
Mof_C 	C 	0.9669	0.8063	0.55819	0.094
Mof_H 	H 	0.9297	0.7975	0.5866	-0.007
Mof_N 	N 	0.0161	0.7324	0.53546	-0.294
Mof_N 	N 	0.9772	0.8932	0.53556	-0.258
Mof_N 	N 	0.0374	0.8755	0.49596	-0.263
Mof_O 	O 	0.0493	0.92393	0.38322	-0.466
Mof_O 	O 	0.14022	0.0576	0.36533	-0.326
Mof_Zn	Zn	0.52348	0.08775	0.44668	1.185
Mof_C 	C 	0.6221	0.9817	0.23554	-0.027
Mof_H 	H 	0.6681	0.9333	0.2259	0.058
Mof_C 	C 	0.6063	0.9998	0.28495	-0.024
Mof_H 	H 	0.6432	0.9653	0.3083	0.051
Mof_C 	C 	0.5351	0.07	0.29921	-0.055
Mof_C 	C 	0.5153	0.0885	0.35246	0.295
Mof_C 	C 	0.721	0.0595	0.4974	0.092
Mof_H 	H 	0.7529	0.1002	0.4747	-0.049
Mof_C 	C 	0.6937	0.9669	0.55819	0.094
Mof_H 	H 	0.7025	0.9297	0.5866	-0.008
Mof_N 	N 	0.7676	0.0161	0.53546	-0.294
Mof_N 	N 	0.6068	0.9772	0.53556	-0.26
Mof_N 	N 	0.6245	0.0374	0.49596	-0.261
Mof_O 	O 	0.57607	0.0493	0.38322	-0.465
Mof_O 	O 	0.4424	0.14022	0.36533	-0.33
Mof_Zn	Zn	0.97652	0.41225	0.44668	1.184
Mof_C 	C 	0.8779	0.5183	0.23554	-0.028
Mof_H 	H 	0.8319	0.5667	0.2259	0.058
Mof_C 	C 	0.8937	0.5002	0.28495	-0.025
Mof_H 	H 	0.8568	0.5347	0.3083	0.051
Mof_C 	C 	0.9649	0.43	0.29921	-0.054
Mof_C 	C 	0.9847	0.4115	0.35246	0.293
Mof_C 	C 	0.779	0.4405	0.4974	0.092
Mof_H 	H 	0.7471	0.3998	0.4747	-0.049
Mof_C 	C 	0.8063	0.5331	0.55819	0.09
Mof_H 	H 	0.7975	0.5703	0.5866	-0.007
Mof_N 	N 	0.7324	0.4839	0.53546	-0.292
Mof_N 	N 	0.8932	0.5228	0.53556	-0.26
Mof_N 	N 	0.8755	0.4626	0.49596	-0.261
Mof_O 	O 	0.92393	0.4507	0.38322	-0.464
Mof_O 	O 	0.0576	0.35978	0.36533	-0.329
Mof_Zn	Zn	0.41225	0.97652	0.94668	1.184
Mof_C 	C 	0.5183	0.8779	0.73554	-0.028
Mof_H 	H 	0.5667	0.8319	0.7259	0.058
Mof_C 	C 	0.5002	0.8937	0.78495	-0.025
Mof_H 	H 	0.5347	0.8568	0.8083	0.051
Mof_C 	C 	0.43	0.9649	0.79921	-0.055
Mof_C 	C 	0.4115	0.9847	0.85246	0.293
Mof_C 	C 	0.4405	0.779	0.9974	0.092
Mof_H 	H 	0.3998	0.7471	0.9747	-0.049
Mof_C 	C 	0.5331	0.8063	0.05819	0.09
Mof_H 	H 	0.5703	0.7975	0.0866	-0.007
Mof_N 	N 	0.4839	0.7324	0.03546	-0.292
Mof_N 	N 	0.5228	0.8932	0.03556	-0.26
Mof_N 	N 	0.4626	0.8755	0.99596	-0.261
Mof_O 	O 	0.4507	0.92393	0.88322	-0.464
Mof_O 	O 	0.35978	0.0576	0.86533	-0.328
Mof_Zn	Zn	0.08775	0.52348	0.94668	1.185
Mof_C 	C 	0.9817	0.6221	0.73554	-0.027
Mof_H 	H 	0.9333	0.6681	0.7259	0.058
Mof_C 	C 	0.9998	0.6063	0.78495	-0.025
Mof_H 	H 	0.9653	0.6432	0.8083	0.051
Mof_C 	C 	0.07	0.5351	0.79921	-0.054
Mof_C 	C 	0.0885	0.5153	0.85246	0.295
Mof_C 	C 	0.0595	0.721	0.9974	0.092
Mof_H 	H 	0.1002	0.7529	0.9747	-0.049
Mof_C 	C 	0.9669	0.6937	0.05819	0.095
Mof_H 	H 	0.9297	0.7025	0.0866	-0.008
Mof_N 	N 	0.0161	0.7676	0.03546	-0.295
Mof_N 	N 	0.9772	0.6068	0.03556	-0.26
Mof_N 	N 	0.0374	0.6245	0.99596	-0.261
Mof_O 	O 	0.0493	0.57607	0.88322	-0.465
Mof_O 	O 	0.14022	0.4424	0.86533	-0.33
Mof_Zn	Zn	0.52348	0.41225	0.94668	1.185
Mof_C 	C 	0.6221	0.5183	0.73554	-0.028
Mof_H 	H 	0.6681	0.5667	0.7259	0.058
Mof_C 	C 	0.6063	0.5002	0.78495	-0.025
Mof_H 	H 	0.6432	0.5347	0.8083	0.051
Mof_C 	C 	0.5351	0.43	0.79921	-0.053
Mof_C 	C 	0.5153	0.4115	0.85246	0.295
Mof_C 	C 	0.721	0.4405	0.9974	0.092
Mof_H 	H 	0.7529	0.3998	0.9747	-0.049
Mof_C 	C 	0.6937	0.5331	0.05819	0.09
Mof_H 	H 	0.7025	0.5703	0.0866	-0.007
Mof_N 	N 	0.7676	0.4839	0.03546	-0.292
Mof_N 	N 	0.6068	0.5228	0.03556	-0.26
Mof_N 	N 	0.6245	0.4626	0.99596	-0.261
Mof_O 	O 	0.57607	0.4507	0.88322	-0.465
Mof_O 	O 	0.4424	0.35978	0.86533	-0.33
Mof_Zn	Zn	0.97652	0.08775	0.94668	1.183
Mof_C 	C 	0.8779	0.9817	0.73554	-0.022
Mof_H 	H 	0.8319	0.9333	0.7259	0.056
Mof_C 	C 	0.8937	0.9998	0.78495	-0.019
Mof_H 	H 	0.8568	0.9653	0.8083	0.05
Mof_C 	C 	0.9649	0.07	0.79921	-0.062
Mof_C 	C 	0.9847	0.0885	0.85246	0.291
Mof_C 	C 	0.779	0.0595	0.9974	0.092
Mof_H 	H 	0.7471	0.1002	0.9747	-0.049
Mof_C 	C 	0.8063	0.9669	0.05819	0.095
Mof_H 	H 	0.7975	0.9297	0.0866	-0.008
Mof_N 	N 	0.7324	0.0161	0.03546	-0.295
Mof_N 	N 	0.8932	0.9772	0.03556	-0.257
Mof_N 	N 	0.8755	0.0374	0.99596	-0.263
Mof_O 	O 	0.92393	0.0493	0.88322	-0.466
Mof_O 	O 	0.0576	0.14022	0.86533	-0.325
Mof_Zn	Zn	0.58775	0.47652	0.55332	1.185
Mof_C 	C 	0.4817	0.3779	0.76446	-0.028
Mof_H 	H 	0.4333	0.3319	0.7741	0.058
Mof_C 	C 	0.4998	0.3937	0.71505	-0.025
Mof_H 	H 	0.4653	0.3568	0.6917	0.051
Mof_C 	C 	0.57	0.4649	0.70079	-0.053
Mof_C 	C 	0.5885	0.4847	0.64754	0.295
Mof_C 	C 	0.5595	0.279	0.5026	0.092
Mof_H 	H 	0.6002	0.2471	0.5253	-0.049
Mof_C 	C 	0.4669	0.3063	0.44181	0.09
Mof_H 	H 	0.4297	0.2975	0.4134	-0.007
Mof_N 	N 	0.5161	0.2324	0.46454	-0.292
Mof_N 	N 	0.4772	0.3932	0.46444	-0.26
Mof_N 	N 	0.5374	0.3755	0.50404	-0.261
Mof_O 	O 	0.5493	0.42393	0.61678	-0.465
Mof_O 	O 	0.64022	0.5576	0.63467	-0.33
Mof_Zn	Zn	0.91225	0.02348	0.55332	1.184
Mof_C 	C 	0.0183	0.1221	0.76446	-0.022
Mof_H 	H 	0.0667	0.1681	0.7741	0.056
Mof_C 	C 	0.0002	0.1063	0.71505	-0.018
Mof_H 	H 	0.0347	0.1432	0.6917	0.05
Mof_C 	C 	0.93	0.0351	0.70079	-0.063
Mof_C 	C 	0.9115	0.0153	0.64754	0.292
Mof_C 	C 	0.9405	0.221	0.5026	0.092
Mof_H 	H 	0.8998	0.2529	0.5253	-0.049
Mof_C 	C 	0.0331	0.1937	0.44181	0.094
Mof_H 	H 	0.0703	0.2025	0.4134	-0.007
Mof_N 	N 	0.9839	0.2676	0.46454	-0.294
Mof_N 	N 	0.0228	0.1068	0.46444	-0.258
Mof_N 	N 	0.9626	0.1245	0.50404	-0.263
Mof_O 	O 	0.9507	0.07607	0.61678	-0.466
Mof_O 	O 	0.85978	0.9424	0.63467	-0.326
Mof_Zn	Zn	0.47652	0.91225	0.55332	1.185
Mof_C 	C 	0.3779	0.0183	0.76446	-0.027
Mof_H 	H 	0.3319	0.0667	0.7741	0.058
Mof_C 	C 	0.3937	0.0002	0.71505	-0.024
Mof_H 	H 	0.3568	0.0347	0.6917	0.051
Mof_C 	C 	0.4649	0.93	0.70079	-0.055
Mof_C 	C 	0.4847	0.9115	0.64754	0.295
Mof_C 	C 	0.279	0.9405	0.5026	0.092
Mof_H 	H 	0.2471	0.8998	0.5253	-0.049
Mof_C 	C 	0.3063	0.0331	0.44181	0.094
Mof_H 	H 	0.2975	0.0703	0.4134	-0.008
Mof_N 	N 	0.2324	0.9839	0.46454	-0.294
Mof_N 	N 	0.3932	0.0228	0.46444	-0.26
Mof_N 	N 	0.3755	0.9626	0.50404	-0.261
Mof_O 	O 	0.42393	0.9507	0.61678	-0.465
Mof_O 	O 	0.5576	0.85978	0.63467	-0.33
Mof_Zn	Zn	0.02348	0.58775	0.55332	1.184
Mof_C 	C 	0.1221	0.4817	0.76446	-0.028
Mof_H 	H 	0.1681	0.4333	0.7741	0.058
Mof_C 	C 	0.1063	0.4998	0.71505	-0.025
Mof_H 	H 	0.1432	0.4653	0.6917	0.051
Mof_C 	C 	0.0351	0.57	0.70079	-0.054
Mof_C 	C 	0.0153	0.5885	0.64754	0.293
Mof_C 	C 	0.221	0.5595	0.5026	0.092
Mof_H 	H 	0.2529	0.6002	0.5253	-0.049
Mof_C 	C 	0.1937	0.4669	0.44181	0.09
Mof_H 	H 	0.2025	0.4297	0.4134	-0.007
Mof_N 	N 	0.2676	0.5161	0.46454	-0.292
Mof_N 	N 	0.1068	0.4772	0.46444	-0.26
Mof_N 	N 	0.1245	0.5374	0.50404	-0.261
Mof_O 	O 	0.07607	0.5493	0.61678	-0.464
Mof_O 	O 	0.9424	0.64022	0.63467	-0.329
_end
