data_functionalizedCrystal
_audit_creation_method	'EQeq! by Chris Wilmer'
_symmetry_space_group_name_H-M	'P1'
_symmetry_Int_Tables_number	1
_symmetry_cell_setting	triclinic
loop_
_symmetry_equiv_pos_as_xyz
  x,y,z
_cell_length_a	8.4015
_cell_length_b	8.4015
_cell_length_c	12.015
_cell_angle_alpha	90
_cell_angle_beta	90
_cell_angle_gamma	90
loop_
_atom_site_label
_atom_site_type_symbol
_atom_site_fract_x
_atom_site_fract_y
_atom_site_fract_z
_atom_site_charge
Mof_Cu	Cu	0.80664	0.40272	0.37512	0.926
Mof_Cu	Cu	0.19336	0.59728	0.87512	0.925
Mof_Cu	Cu	0.59728	0.80664	0.12512	0.926
Mof_Cu	Cu	0.40272	0.19336	0.62512	0.925
Mof_H 	H 	0.8332	0.0289	0.4103	0.243
Mof_H 	H 	0.6792	0.9376	0.3746	0.238
Mof_H 	H 	0.1668	0.9711	0.9103	0.239
Mof_H 	H 	0.3208	0.0624	0.8746	0.233
Mof_H 	H 	0.9711	0.8332	0.1603	0.248
Mof_H 	H 	0.0624	0.6792	0.1246	0.248
Mof_H 	H 	0.0289	0.1668	0.6603	0.243
Mof_H 	H 	0.9376	0.3208	0.6246	0.239
Mof_C 	C 	0.7415	0.1119	0.2625	0.532
Mof_C 	C 	0.727	0.0424	0.38	-0.707
Mof_C 	C 	0.6298	0.1412	0.4615	0.535
Mof_C 	C 	0.2585	0.8881	0.7625	0.529
Mof_C 	C 	0.273	0.9576	0.88	-0.699
Mof_C 	C 	0.3702	0.8588	0.9615	0.52
Mof_C 	C 	0.8881	0.7415	0.0125	0.55
Mof_C 	C 	0.9576	0.727	0.13	-0.724
Mof_C 	C 	0.8588	0.6298	0.2115	0.54
Mof_C 	C 	0.1119	0.2585	0.5125	0.533
Mof_C 	C 	0.0424	0.273	0.63	-0.71
Mof_C 	C 	0.1412	0.3702	0.7115	0.536
Mof_O 	O 	0.7679	0.2592	0.2529	-0.417
Mof_O 	O 	0.7329	0.0216	0.1823	-0.41
Mof_O 	O 	0.6481	0.2887	0.4662	-0.492
Mof_O 	O 	0.5359	0.0663	0.5233	-0.443
Mof_O 	O 	0.2321	0.7408	0.7529	-0.419
Mof_O 	O 	0.2671	0.9784	0.6823	-0.413
Mof_O 	O 	0.3519	0.7113	0.9662	-0.493
Mof_O 	O 	0.4641	0.9337	0.0233	-0.431
Mof_O 	O 	0.7408	0.7679	0.0029	-0.419
Mof_O 	O 	0.9784	0.7329	0.9323	-0.426
Mof_O 	O 	0.7113	0.6481	0.2162	-0.492
Mof_O 	O 	0.9337	0.5359	0.2733	-0.444
Mof_O 	O 	0.2592	0.2321	0.5029	-0.419
Mof_O 	O 	0.0216	0.2671	0.4323	-0.412
Mof_O 	O 	0.2887	0.3519	0.7162	-0.493
Mof_O 	O 	0.0663	0.4641	0.7733	-0.445
_end
