data_functionalizedCrystal
_audit_creation_method	'EQeq! by Chris Wilmer'
_symmetry_space_group_name_H-M	'P1'
_symmetry_Int_Tables_number	1
_symmetry_cell_setting	triclinic
loop_
_symmetry_equiv_pos_as_xyz
  x,y,z
_cell_length_a	7.2829
_cell_length_b	7.2829
_cell_length_c	8.1691
_cell_angle_alpha	90
_cell_angle_beta	90
_cell_angle_gamma	120
loop_
_atom_site_label
_atom_site_type_symbol
_atom_site_fract_x
_atom_site_fract_y
_atom_site_fract_z
_atom_site_charge
Mof_Zn	Zn	0.66667	0.33334	0.75	1.251
Mof_Zn	Zn	0.33333	0.66666	0.25	1.249
Mof_H 	H 	-0	0.5654	-0	-0.065
Mof_H 	H 	7.05875e-18	0.4346	0.5	-0.091
Mof_H 	H 	0.5654	0	-0	-0.061
Mof_H 	H 	0.4346	0.4346	-0	-0.084
Mof_H 	H 	0.5654	0.5654	0.5	-0.093
Mof_H 	H 	0.4346	0	0.5	-0.085
Mof_C 	C 	0.5628	0	0.5	0.349
Mof_C 	C 	4.49297e-17	0.5628	0.5	0.381
Mof_C 	C 	0.4372	0.4372	0.5	0.462
Mof_C 	C 	0.4372	0	-0	0.204
Mof_C 	C 	3.7871e-17	0.4372	-0	0.243
Mof_C 	C 	0.5628	0.5628	-0	0.314
Mof_O 	O 	0.1103	0.4155	0.1057	-0.364
Mof_O 	O 	0.5845	0.8897	0.3943	-0.31
Mof_O 	O 	0.4155	0.3052	0.6057	-0.398
Mof_O 	O 	0.1103	0.6948	0.3943	-0.369
Mof_O 	O 	0.8897	0.3052	0.8943	-0.249
Mof_O 	O 	0.5845	0.6948	0.1057	-0.347
Mof_O 	O 	0.3052	0.8897	0.1057	-0.297
Mof_O 	O 	0.8897	0.5845	0.6057	-0.323
Mof_O 	O 	0.6948	0.5845	0.8943	-0.272
Mof_O 	O 	0.4155	0.1103	0.8943	-0.28
Mof_O 	O 	0.3052	0.4155	0.3943	-0.404
Mof_O 	O 	0.6948	0.1103	0.6057	-0.361
_end
