# CIF file generated by openbabel 3.1.0, see https://openbabel.org
data_I
_chemical_name_common 'image0'
_cell_length_a 6.7427
_cell_length_b 18.653
_cell_length_c 8.546
_cell_angle_alpha 90
_cell_angle_beta 90
_cell_angle_gamma 90
_space_group_name_H-M_alt 'P 1'
_space_group_name_Hall 'P 1'
loop_
    _symmetry_equiv_pos_as_xyz
    x,y,z
loop_
    _atom_site_label
    _atom_site_type_symbol
    _atom_site_fract_x
    _atom_site_fract_y
    _atom_site_fract_z
    _atom_site_occupancy
    O1       O        0.83710    0.59332    0.22850    1.000
    O2       O        0.82280    0.81717    0.98440    1.000
    O3       O        0.68180    0.74296    0.15300    1.000
    O4       O        0.51210    0.54923    0.43210    1.000
    C1       C        0.76690    0.75760    0.02680    1.000
    H1       H        0.79000    0.71970    0.95850    1.000
    O5       O        0.33710    0.09332    0.22850    1.000
    O6       O        0.32280    0.31717    0.98440    1.000
    O7       O        0.18180    0.24296    0.15300    1.000
    O8       O        0.01210    0.04923    0.43210    1.000
    C2       C        0.26690    0.25760    0.02680    1.000
    H2       H        0.29000    0.21970    0.95850    1.000
    O9       O        0.16290    0.40668    0.72850    1.000
    O10      O        0.17720    0.18283    0.48440    1.000
    O11      O        0.31820    0.25704    0.65300    1.000
    O12      O        0.48790    0.45077    0.93210    1.000
    C3       C        0.23310    0.24240    0.52680    1.000
    H3       H        0.21000    0.28030    0.45850    1.000
    O13      O        0.66290    0.90668    0.72850    1.000
    O14      O        0.67720    0.68283    0.48440    1.000
    O15      O        0.81820    0.75704    0.65300    1.000
    O16      O        0.98790    0.95077    0.93210    1.000
    C4       C        0.73310    0.74240    0.52680    1.000
    H4       H        0.71000    0.78030    0.45850    1.000
    O17      O        0.16290    0.59332    0.27150    1.000
    O18      O        0.17720    0.81717    0.51560    1.000
    O19      O        0.31820    0.74296    0.34700    1.000
    O20      O        0.48790    0.54923    0.06790    1.000
    C5       C        0.23310    0.75760    0.47320    1.000
    H5       H        0.21000    0.71970    0.54150    1.000
    O21      O        0.66290    0.09332    0.27150    1.000
    O22      O        0.67720    0.31717    0.51560    1.000
    O23      O        0.81820    0.24296    0.34700    1.000
    O24      O        0.98790    0.04923    0.06790    1.000
    C6       C        0.73310    0.25760    0.47320    1.000
    H6       H        0.71000    0.21970    0.54150    1.000
    O25      O        0.83710    0.40668    0.77150    1.000
    O26      O        0.82280    0.18283    0.01560    1.000
    O27      O        0.68180    0.25704    0.84700    1.000
    O28      O        0.51210    0.45077    0.56790    1.000
    C7       C        0.76690    0.24240    0.97320    1.000
    H7       H        0.79000    0.28030    0.04150    1.000
    O29      O        0.33710    0.90668    0.77150    1.000
    O30      O        0.32280    0.68283    0.01560    1.000
    O31      O        0.18180    0.75704    0.84700    1.000
    O32      O        0.01210    0.95077    0.56790    1.000
    C8       C        0.26690    0.74240    0.97320    1.000
    H8       H        0.29000    0.78030    0.04150    1.000
    Eu1      Eu       0.50000    0.64250    0.25000    1.000
    Eu2      Eu       0.00000    0.14250    0.25000    1.000
    Eu3      Eu       0.50000    0.35750    0.75000    1.000
    Eu4      Eu       0.00000    0.85750    0.75000    1.000
    C9       C        0.00000    0.62390    0.25000    1.000
    H9       H        0.00000    0.67380    0.25000    1.000
    C10      C        0.50000    0.12390    0.25000    1.000
    H10      H        0.50000    0.17380    0.25000    1.000
    C11      C        0.00000    0.37610    0.75000    1.000
    H11      H        0.00000    0.32620    0.75000    1.000
    C12      C        0.50000    0.87610    0.75000    1.000
    H12      H        0.50000    0.82620    0.75000    1.000
    C13      C        0.42820    0.50000    0.50000    1.000
    H13      H        0.29030    0.50000    0.50000    1.000
    C14      C        0.92820    0.00000    0.50000    1.000
    H14      H        0.79030    0.00000    0.50000    1.000
    C15      C        0.57180    0.50000    0.00000    1.000
    H15      H        0.70970    0.50000    0.00000    1.000
    C16      C        0.07180    0.00000    0.00000    1.000
    H16      H        0.20970    0.00000    0.00000    1.000
