data_functionalizedCrystal
_audit_creation_method	'EQeq! by Chris Wilmer'
_symmetry_space_group_name_H-M	'P1'
_symmetry_Int_Tables_number	1
_symmetry_cell_setting	triclinic
loop_
_symmetry_equiv_pos_as_xyz
  x,y,z
_cell_length_a	14.285
_cell_length_b	18.7158
_cell_length_c	18.7158
_cell_angle_alpha	66.24
_cell_angle_beta	75.2608
_cell_angle_gamma	104.739
loop_
_atom_site_label
_atom_site_type_symbol
_atom_site_fract_x
_atom_site_fract_y
_atom_site_fract_z
_atom_site_charge
Mof_Cu	Cu	0.40337	0.44059	0.00743	0.838
Mof_Cu	Cu	0.46757	0.52714	0.33119	0.886
Mof_Cu	Cu	0.4108	0.00743	0.55198	0.837
Mof_Cu	Cu	0.79876	0.33119	0.14167	0.886
Mof_Cu	Cu	0.96278	0.55198	0.44059	0.837
Mof_Cu	Cu	0.94043	0.14167	0.52714	0.886
Mof_Cu	Cu	0.59663	0.55941	0.99257	0.838
Mof_Cu	Cu	0.53243	0.47286	0.66881	0.886
Mof_Cu	Cu	0.5892	0.99257	0.44802	0.837
Mof_Cu	Cu	0.20124	0.66881	0.85833	0.886
Mof_Cu	Cu	0.03722	0.44802	0.55941	0.838
Mof_Cu	Cu	0.05957	0.85833	0.47286	0.887
Mof_H 	H 	0.199	0.3153	0.1711	0.015
Mof_H 	H 	0.5928	0.5785	0.1514	-0.018
Mof_H 	H 	0.2684	0.3704	0.405	0.144
Mof_H 	H 	0.1706	0.3054	0.418	0.165
Mof_H 	H 	0.3451	0.2552	0.0876	-0.02
Mof_H 	H 	0.7586	0.4977	0.0511	-0.004
Mof_H 	H 	0.5272	0.1157	0.1824	0.158
Mof_H 	H 	0.6288	0.1783	0.1673	0.128
Mof_H 	H 	0.3701	0.1711	0.5136	0.015
Mof_H 	H 	0.7442	0.1514	0.2701	-0.018
Mof_H 	H 	0.6734	0.405	0.2246	0.144
Mof_H 	H 	0.5886	0.418	0.2766	0.165
Mof_H 	H 	0.4327	0.0876	0.6572	-0.02
Mof_H 	H 	0.8097	0.0511	0.4512	-0.004
Mof_H 	H 	0.7096	0.1824	0.7019	0.158
Mof_H 	H 	0.7961	0.1673	0.6544	0.128
Mof_H 	H 	0.8837	0.5136	0.3153	0.015
Mof_H 	H 	0.0143	0.2701	0.5785	-0.019
Mof_H 	H 	0.898	0.2246	0.3704	0.145
Mof_H 	H 	0.8652	0.2766	0.3054	0.165
Mof_H 	H 	0.0899	0.6572	0.2552	-0.02
Mof_H 	H 	0.2609	0.4512	0.4977	-0.004
Mof_H 	H 	0.4115	0.7019	0.1157	0.158
Mof_H 	H 	0.4505	0.6544	0.1783	0.128
Mof_H 	H 	0.801	0.6847	0.8289	0.015
Mof_H 	H 	0.4072	0.4215	0.8486	-0.018
Mof_H 	H 	0.7316	0.6296	0.595	0.144
Mof_H 	H 	0.8294	0.6946	0.582	0.165
Mof_H 	H 	0.6549	0.7448	0.9124	-0.02
Mof_H 	H 	0.2414	0.5023	0.9489	-0.004
Mof_H 	H 	0.4728	0.8843	0.8176	0.158
Mof_H 	H 	0.3712	0.8217	0.8327	0.128
Mof_H 	H 	0.6299	0.8289	0.4864	0.015
Mof_H 	H 	0.2558	0.8486	0.7299	-0.018
Mof_H 	H 	0.3266	0.595	0.7754	0.144
Mof_H 	H 	0.4114	0.582	0.7234	0.165
Mof_H 	H 	0.5673	0.9124	0.3428	-0.02
Mof_H 	H 	0.1903	0.9489	0.5488	-0.004
Mof_H 	H 	0.2904	0.8176	0.2981	0.158
Mof_H 	H 	0.2039	0.8327	0.3456	0.128
Mof_H 	H 	0.1163	0.4864	0.6847	0.015
Mof_H 	H 	0.9857	0.7299	0.4215	-0.019
Mof_H 	H 	0.102	0.7754	0.6296	0.145
Mof_H 	H 	0.1348	0.7234	0.6946	0.165
Mof_H 	H 	0.9101	0.3428	0.7448	-0.02
Mof_H 	H 	0.7391	0.5488	0.5023	-0.004
Mof_H 	H 	0.5885	0.2981	0.8843	0.158
Mof_H 	H 	0.5495	0.3456	0.8217	0.128
Mof_C 	C 	0.6694	0.5683	0.32	0.236
Mof_C 	C 	0.6124	0.5928	0.3835	0.211
Mof_C 	C 	0.2418	0.3555	0.1921	0.105
Mof_C 	C 	0.3971	0.4573	0.1559	0.113
Mof_C 	C 	0.3644	0.4405	0.2408	-0.041
Mof_C 	C 	0.2675	0.3739	0.3017	0.155
Mof_C 	C 	0.521	0.5361	0.1678	0.075
Mof_C 	C 	0.4129	0.2728	0.0872	0.114
Mof_C 	C 	0.5561	0.3758	0.0618	0.113
Mof_C 	C 	0.5998	0.3166	0.098	-0.038
Mof_C 	C 	0.537	0.2305	0.1301	0.144
Mof_C 	C 	0.7043	0.4405	0.0569	0.083
Mof_C 	C 	0.9894	0.32	0.1117	0.236
Mof_C 	C 	0.9959	0.3835	0.0237	0.211
Mof_C 	C 	0.4339	0.1921	0.4524	0.105
Mof_C 	C 	0.553	0.1559	0.3868	0.113
Mof_C 	C 	0.6052	0.2408	0.3187	-0.041
Mof_C 	C 	0.5692	0.3017	0.3244	0.155
Mof_C 	C 	0.6888	0.1678	0.2961	0.075
Mof_C 	C 	0.5001	0.0872	0.64	0.114
Mof_C 	C 	0.6179	0.0618	0.5624	0.113
Mof_C 	C 	0.6978	0.098	0.5854	-0.038
Mof_C 	C 	0.6671	0.1301	0.6394	0.144
Mof_C 	C 	0.7612	0.0569	0.5026	0.083
Mof_C 	C 	0.1011	0.1117	0.5683	0.237
Mof_C 	C 	0.0196	0.0237	0.5928	0.209
Mof_C 	C 	0.8863	0.4524	0.3555	0.105
Mof_C 	C 	0.9398	0.3868	0.4573	0.113
Mof_C 	C 	0.9239	0.3187	0.4405	-0.041
Mof_C 	C 	0.8936	0.3244	0.3739	0.155
Mof_C 	C 	0.9849	0.2961	0.5361	0.076
Mof_C 	C 	0.1401	0.64	0.2728	0.114
Mof_C 	C 	0.1803	0.5624	0.3758	0.113
Mof_C 	C 	0.2832	0.5854	0.3166	-0.038
Mof_C 	C 	0.3065	0.6394	0.2305	0.144
Mof_C 	C 	0.2638	0.5026	0.4405	0.083
Mof_C 	C 	0.3306	0.4317	0.68	0.236
Mof_C 	C 	0.3876	0.4072	0.6165	0.211
Mof_C 	C 	0.7582	0.6445	0.8079	0.105
Mof_C 	C 	0.6029	0.5427	0.8441	0.113
Mof_C 	C 	0.6356	0.5595	0.7592	-0.041
Mof_C 	C 	0.7325	0.6261	0.6983	0.155
Mof_C 	C 	0.479	0.4639	0.8322	0.075
Mof_C 	C 	0.5871	0.7272	0.9128	0.114
Mof_C 	C 	0.4439	0.6242	0.9382	0.113
Mof_C 	C 	0.4002	0.6834	0.902	-0.038
Mof_C 	C 	0.463	0.7695	0.8699	0.144
Mof_C 	C 	0.2957	0.5595	0.9431	0.083
Mof_C 	C 	0.0106	0.68	0.8883	0.236
Mof_C 	C 	0.0041	0.6165	0.9763	0.211
Mof_C 	C 	0.5661	0.8079	0.5476	0.105
Mof_C 	C 	0.447	0.8441	0.6132	0.113
Mof_C 	C 	0.3948	0.7592	0.6813	-0.041
Mof_C 	C 	0.4308	0.6983	0.6756	0.155
Mof_C 	C 	0.3112	0.8322	0.7039	0.075
Mof_C 	C 	0.4999	0.9128	0.36	0.114
Mof_C 	C 	0.3821	0.9382	0.4376	0.113
Mof_C 	C 	0.3022	0.902	0.4146	-0.038
Mof_C 	C 	0.3329	0.8699	0.3606	0.144
Mof_C 	C 	0.2388	0.9431	0.4974	0.083
Mof_C 	C 	0.8989	0.8883	0.4317	0.237
Mof_C 	C 	0.9804	0.9763	0.4072	0.209
Mof_C 	C 	0.1137	0.5476	0.6445	0.105
Mof_C 	C 	0.0602	0.6132	0.5427	0.113
Mof_C 	C 	0.0761	0.6813	0.5595	-0.041
Mof_C 	C 	0.1064	0.6756	0.6261	0.155
Mof_C 	C 	0.0151	0.7039	0.4639	0.076
Mof_C 	C 	0.8599	0.36	0.7272	0.114
Mof_C 	C 	0.8197	0.4376	0.6242	0.113
Mof_C 	C 	0.7168	0.4146	0.6834	-0.038
Mof_C 	C 	0.6935	0.3606	0.7695	0.144
Mof_C 	C 	0.7362	0.4974	0.5595	0.083
Mof_N 	N 	0.2067	0.3338	0.2715	-0.15
Mof_N 	N 	0.3369	0.4155	0.1273	-0.254
Mof_N 	N 	0.4444	0.4943	0.2466	-0.216
Mof_N 	N 	0.4948	0.5176	0.1115	-0.259
Mof_N 	N 	0.2326	0.3478	0.3842	-0.317
Mof_N 	N 	0.4396	0.2075	0.1284	-0.149
Mof_N 	N 	0.4625	0.3533	0.0531	-0.264
Mof_N 	N 	0.6955	0.3612	0.0937	-0.213
Mof_N 	N 	0.6229	0.4528	0.0362	-0.256
Mof_N 	N 	0.5685	0.1672	0.1631	-0.31
Mof_N 	N 	0.4782	0.2715	0.3947	-0.15
Mof_N 	N 	0.4642	0.1273	0.4572	-0.254
Mof_N 	N 	0.691	0.2466	0.2591	-0.216
Mof_N 	N 	0.6063	0.1115	0.3709	-0.259
Mof_N 	N 	0.6168	0.3842	0.268	-0.317
Mof_N 	N 	0.568	0.1284	0.6641	-0.149
Mof_N 	N 	0.5156	0.0531	0.5936	-0.264
Mof_N 	N 	0.7892	0.0937	0.5451	-0.213
Mof_N 	N 	0.6591	0.0362	0.511	-0.256
Mof_N 	N 	0.7316	0.1631	0.6697	-0.31
Mof_N 	N 	0.8729	0.3947	0.3338	-0.15
Mof_N 	N 	0.9214	0.4572	0.4155	-0.254
Mof_N 	N 	0.9501	0.2591	0.4943	-0.217
Mof_N 	N 	0.9772	0.3709	0.5176	-0.259
Mof_N 	N 	0.8848	0.268	0.3478	-0.317
Mof_N 	N 	0.2321	0.6641	0.2075	-0.149
Mof_N 	N 	0.1092	0.5936	0.3533	-0.264
Mof_N 	N 	0.3343	0.5451	0.3612	-0.213
Mof_N 	N 	0.1701	0.511	0.4528	-0.256
Mof_N 	N 	0.4013	0.6697	0.1672	-0.31
Mof_N 	N 	0.7933	0.6662	0.7285	-0.15
Mof_N 	N 	0.6631	0.5845	0.8727	-0.254
Mof_N 	N 	0.5556	0.5057	0.7534	-0.216
Mof_N 	N 	0.5052	0.4824	0.8885	-0.259
Mof_N 	N 	0.7674	0.6522	0.6158	-0.317
Mof_N 	N 	0.5604	0.7925	0.8716	-0.149
Mof_N 	N 	0.5375	0.6467	0.9469	-0.264
Mof_N 	N 	0.3045	0.6388	0.9063	-0.213
Mof_N 	N 	0.3771	0.5472	0.9638	-0.256
Mof_N 	N 	0.4315	0.8328	0.8369	-0.31
Mof_N 	N 	0.5218	0.7285	0.6053	-0.15
Mof_N 	N 	0.5358	0.8727	0.5428	-0.254
Mof_N 	N 	0.309	0.7534	0.7409	-0.216
Mof_N 	N 	0.3937	0.8885	0.6291	-0.259
Mof_N 	N 	0.3832	0.6158	0.732	-0.317
Mof_N 	N 	0.432	0.8716	0.3359	-0.149
Mof_N 	N 	0.4844	0.9469	0.4064	-0.264
Mof_N 	N 	0.2108	0.9063	0.4549	-0.213
Mof_N 	N 	0.3409	0.9638	0.489	-0.256
Mof_N 	N 	0.2684	0.8369	0.3303	-0.31
Mof_N 	N 	0.1271	0.6053	0.6662	-0.15
Mof_N 	N 	0.0786	0.5428	0.5845	-0.254
Mof_N 	N 	0.0499	0.7409	0.5057	-0.217
Mof_N 	N 	0.0228	0.6291	0.4824	-0.259
Mof_N 	N 	0.1152	0.732	0.6522	-0.317
Mof_N 	N 	0.7679	0.3359	0.7925	-0.149
Mof_N 	N 	0.8908	0.4064	0.6467	-0.264
Mof_N 	N 	0.6657	0.4549	0.6388	-0.213
Mof_N 	N 	0.8299	0.489	0.5472	-0.256
Mof_N 	N 	0.5987	0.3303	0.8328	-0.31
Mof_O 	O 	0.612	0.5347	0.2915	-0.373
Mof_O 	O 	0.5131	0.5733	0.3979	-0.349
Mof_O 	O 	0.7634	0.583	0.3008	-0.229
Mof_O 	O 	0.6634	0.6283	0.4118	-0.223
Mof_O 	O 	0.9035	0.2915	0.1738	-0.373
Mof_O 	O 	0.911	0.3979	0.0288	-0.349
Mof_O 	O 	0.0642	0.3008	0.1162	-0.229
Mof_O 	O 	0.0752	0.4118	0.9599	-0.223
Mof_O 	O 	0.0773	0.1738	0.5347	-0.373
Mof_O 	O 	0.9398	0.0288	0.5733	-0.348
Mof_O 	O 	0.1804	0.1162	0.583	-0.229
Mof_O 	O 	0.0351	0.9599	0.6283	-0.222
Mof_O 	O 	0.388	0.4653	0.7085	-0.373
Mof_O 	O 	0.4869	0.4267	0.6021	-0.349
Mof_O 	O 	0.2366	0.417	0.6992	-0.229
Mof_O 	O 	0.3366	0.3717	0.5882	-0.223
Mof_O 	O 	0.0965	0.7085	0.8262	-0.373
Mof_O 	O 	0.089	0.6021	0.9712	-0.349
Mof_O 	O 	0.9358	0.6992	0.8838	-0.229
Mof_O 	O 	0.9248	0.5882	0.0401	-0.223
Mof_O 	O 	0.9227	0.8262	0.4653	-0.373
Mof_O 	O 	0.0602	0.9712	0.4267	-0.348
Mof_O 	O 	0.8196	0.8838	0.417	-0.229
Mof_O 	O 	0.9649	0.0401	0.3717	-0.222
_end
