data_functionalizedCrystal
_audit_creation_method	'EQeq! by Chris Wilmer'
_symmetry_space_group_name_H-M	'P1'
_symmetry_Int_Tables_number	1
_symmetry_cell_setting	triclinic
loop_
_symmetry_equiv_pos_as_xyz
  x,y,z
_cell_length_a	12.7031
_cell_length_b	12.7031
_cell_length_c	35.759
_cell_angle_alpha	90
_cell_angle_beta	90
_cell_angle_gamma	90
loop_
_atom_site_label
_atom_site_type_symbol
_atom_site_fract_x
_atom_site_fract_y
_atom_site_fract_z
_atom_site_charge
Mof_O 	O 	0.5623	0.1797	0.9526	-0.443
Mof_O 	O 	0.7036	0.5318	0.9944	-0.443
Mof_O 	O 	0.5177	0.5047	0.0406	-0.316
Mof_O 	O 	0.6813	0.3542	0.0295	-0.437
Mof_O 	O 	0.4788	0.3068	0.0748	-0.437
Mof_C 	C 	0.7177	0.1464	0.1066	-0.114
Mof_O 	O 	0.3822	0.1419	0.993	-0.472
Mof_O 	O 	0.4509	0.3386	0.9166	-0.476
Mof_O 	O 	0.6117	0.9939	0.1089	-0.334
Mof_O 	O 	0.5948	0.4832	0.8975	-0.435
Mof_O 	O 	0.2859	0.2976	0.9573	-0.501
Mof_O 	O 	0.667	0.3616	0.9563	-0.458
Mof_O 	O 	0.5724	0.1672	0.0292	-0.435
Mof_O 	O 	0.48	0.3147	0.99498	-0.365
Mof_O 	O 	0.3806	0.1305	0.9168	-0.459
Mof_O 	O 	0.6367	0.4488	0.09378	-0.42
Mof_O 	O 	0.6549	0.638	0.0597	-0.419
Mof_C 	C 	0.8901	0.2589	0.0852	0.073
Mof_H 	H 	0.9482	0.2982	0.0777	0.018
Mof_C 	C 	0.6188	0.0899	0.1179	0.32
Mof_N 	N 	0.8256	0.2991	0.1115	-0.129
Mof_O 	O 	0.5493	0.1394	0.1354	-0.299
Mof_C 	C 	0.7329	0.2451	0.1217	0.079
Mof_H 	H 	0.6841	0.2749	0.138	0.026
Mof_C 	C 	0.786	0.1041	0.08	0.062
Mof_H 	H 	0.7735	0.038	0.0698	0.032
Mof_Ag	Ag	0.1464	0.1773	0.98227	0.403
Mof_O 	O 	0.9327	0.0342	0.027	-0.272
Mof_O 	O 	0.0154	0.1879	0.028	-0.375
Mof_C 	C 	0.9469	0.1251	0.0387	0.336
Mof_C 	C 	0.8735	0.163	0.0689	-0.136
Mof_W 	W 	0.69443	0.49956	0.04547	1.026
Mof_W 	W 	0.67226	0.50278	0.94225	0.998
Mof_W 	W 	0.64041	0.25313	0.99395	1.009
Mof_W 	W 	0.41937	0.22751	0.94804	1.262
Mof_W 	W 	0.42385	0.2073	0.0387	0.967
Mof_W 	W 	0.48925	0.43895	0.09727	1.017
Mof_Ag	Ag	0.95089	0.43331	0.89035	0.545
Mof_O 	O 	0.4377	0.8203	0.4526	-0.442
Mof_O 	O 	0.2964	0.4682	0.4944	-0.442
Mof_O 	O 	0.4823	0.4953	0.5406	-0.315
Mof_O 	O 	0.3187	0.6458	0.5295	-0.436
Mof_O 	O 	0.5212	0.6932	0.5748	-0.436
Mof_C 	C 	0.2823	0.8536	0.6066	-0.113
Mof_O 	O 	0.6178	0.8581	0.493	-0.472
Mof_O 	O 	0.5491	0.6614	0.4166	-0.476
Mof_O 	O 	0.3883	0.0061	0.6089	-0.333
Mof_O 	O 	0.4052	0.5168	0.3975	-0.435
Mof_O 	O 	0.7141	0.7024	0.4573	-0.501
Mof_O 	O 	0.333	0.6384	0.4563	-0.458
Mof_O 	O 	0.4276	0.8328	0.5292	-0.435
Mof_O 	O 	0.52	0.6853	0.49498	-0.365
Mof_O 	O 	0.6194	0.8695	0.4168	-0.459
Mof_O 	O 	0.3633	0.5512	0.59378	-0.42
Mof_O 	O 	0.3451	0.362	0.5597	-0.419
Mof_C 	C 	0.1099	0.7411	0.5852	0.073
Mof_H 	H 	0.0518	0.7018	0.5777	0.018
Mof_C 	C 	0.3812	0.9101	0.6179	0.319
Mof_N 	N 	0.1744	0.7009	0.6115	-0.129
Mof_O 	O 	0.4507	0.8606	0.6354	-0.299
Mof_C 	C 	0.2671	0.7549	0.6217	0.079
Mof_H 	H 	0.3159	0.7251	0.638	0.026
Mof_C 	C 	0.214	0.8959	0.58	0.062
Mof_H 	H 	0.2265	0.962	0.5698	0.032
Mof_Ag	Ag	0.8536	0.8227	0.48227	0.403
Mof_O 	O 	0.0673	0.9658	0.527	-0.273
Mof_O 	O 	0.9846	0.8121	0.528	-0.375
Mof_C 	C 	0.0531	0.8749	0.5387	0.335
Mof_C 	C 	0.1265	0.837	0.5689	-0.136
Mof_W 	W 	0.30557	0.50044	0.54547	1.026
Mof_W 	W 	0.32774	0.49722	0.44225	0.998
Mof_W 	W 	0.35959	0.74687	0.49395	1.01
Mof_W 	W 	0.58063	0.77249	0.44804	1.262
Mof_W 	W 	0.57615	0.7927	0.5387	0.967
Mof_W 	W 	0.51075	0.56105	0.59727	1.017
Mof_Ag	Ag	0.04911	0.56669	0.39035	0.545
Mof_O 	O 	0.3203	0.0623	0.2026	-0.436
Mof_O 	O 	0.9682	0.2036	0.2444	-0.44
Mof_O 	O 	0.9953	0.0177	0.2906	-0.309
Mof_O 	O 	0.1458	0.1813	0.2795	-0.435
Mof_O 	O 	0.1932	0.9788	0.3248	-0.436
Mof_C 	C 	0.3536	0.2177	0.3566	-0.112
Mof_O 	O 	0.3581	0.8822	0.243	-0.472
Mof_O 	O 	0.1614	0.9509	0.1666	-0.477
Mof_O 	O 	0.5061	0.1117	0.3589	-0.329
Mof_O 	O 	0.0168	0.0948	0.1475	-0.429
Mof_O 	O 	0.2024	0.7859	0.2073	-0.499
Mof_O 	O 	0.1384	0.167	0.2063	-0.458
Mof_O 	O 	0.3328	0.0724	0.2792	-0.431
Mof_O 	O 	0.1853	0.98	0.24498	-0.37
Mof_O 	O 	0.3695	0.8806	0.1668	-0.459
Mof_O 	O 	0.0512	0.1367	0.34378	-0.415
Mof_O 	O 	0.862	0.1549	0.3097	-0.418
Mof_C 	C 	0.2411	0.3901	0.3352	0.074
Mof_H 	H 	0.2018	0.4482	0.3277	0.018
Mof_C 	C 	0.4101	0.1188	0.3679	0.315
Mof_N 	N 	0.2009	0.3256	0.3615	-0.13
Mof_O 	O 	0.3606	0.0493	0.3854	-0.297
Mof_C 	C 	0.2549	0.2329	0.3717	0.079
Mof_H 	H 	0.2251	0.1841	0.388	0.027
Mof_C 	C 	0.3959	0.286	0.33	0.061
Mof_H 	H 	0.462	0.2735	0.3198	0.031
Mof_Ag	Ag	0.3227	0.6464	0.23227	0.401
Mof_O 	O 	0.4658	0.4327	0.277	-0.272
Mof_O 	O 	0.3121	0.5154	0.278	-0.379
Mof_C 	C 	0.3749	0.4469	0.2887	0.34
Mof_C 	C 	0.337	0.3735	0.3189	-0.137
Mof_W 	W 	0.00044	0.19443	0.29547	1.022
Mof_W 	W 	0.99722	0.17226	0.19225	0.999
Mof_W 	W 	0.24687	0.14041	0.24395	1.014
Mof_W 	W 	0.27249	0.91937	0.19804	1.255
Mof_W 	W 	0.2927	0.92385	0.2887	0.959
Mof_W 	W 	0.06105	0.98925	0.34727	0.997
Mof_Ag	Ag	0.06669	0.45089	0.14035	0.546
Mof_O 	O 	0.6797	0.9377	0.7026	-0.436
Mof_O 	O 	0.0318	0.7964	0.7444	-0.44
Mof_O 	O 	0.0047	0.9823	0.7906	-0.309
Mof_O 	O 	0.8542	0.8187	0.7795	-0.435
Mof_O 	O 	0.8068	0.0212	0.8248	-0.436
Mof_C 	C 	0.6464	0.7823	0.8566	-0.112
Mof_O 	O 	0.6419	0.1178	0.743	-0.472
Mof_O 	O 	0.8386	0.0491	0.6666	-0.477
Mof_O 	O 	0.4939	0.8883	0.8589	-0.329
Mof_O 	O 	0.9832	0.9052	0.6475	-0.429
Mof_O 	O 	0.7976	0.2141	0.7073	-0.499
Mof_O 	O 	0.8616	0.833	0.7063	-0.458
Mof_O 	O 	0.6672	0.9276	0.7792	-0.431
Mof_O 	O 	0.8147	0.02	0.74498	-0.37
Mof_O 	O 	0.6305	0.1194	0.6668	-0.459
Mof_O 	O 	0.9488	0.8633	0.84378	-0.415
Mof_O 	O 	0.138	0.8451	0.8097	-0.418
Mof_C 	C 	0.7589	0.6099	0.8352	0.074
Mof_H 	H 	0.7982	0.5518	0.8277	0.018
Mof_C 	C 	0.5899	0.8812	0.8679	0.315
Mof_N 	N 	0.7991	0.6744	0.8615	-0.13
Mof_O 	O 	0.6394	0.9507	0.8854	-0.297
Mof_C 	C 	0.7451	0.7671	0.8717	0.079
Mof_H 	H 	0.7749	0.8159	0.888	0.027
Mof_C 	C 	0.6041	0.714	0.83	0.061
Mof_H 	H 	0.538	0.7265	0.8198	0.031
Mof_Ag	Ag	0.6773	0.3536	0.73227	0.401
Mof_O 	O 	0.5342	0.5673	0.777	-0.272
Mof_O 	O 	0.6879	0.4846	0.778	-0.379
Mof_C 	C 	0.6251	0.5531	0.7887	0.34
Mof_C 	C 	0.663	0.6265	0.8189	-0.137
Mof_W 	W 	0.99956	0.80557	0.79547	1.021
Mof_W 	W 	0.00278	0.82774	0.69225	0.999
Mof_W 	W 	0.75313	0.85959	0.74395	1.014
Mof_W 	W 	0.72751	0.08063	0.69804	1.255
Mof_W 	W 	0.7073	0.07615	0.7887	0.959
Mof_W 	W 	0.93895	0.01075	0.84727	0.997
Mof_Ag	Ag	0.93331	0.54911	0.64035	0.547
Mof_O 	O 	0.9377	0.6797	0.2974	-0.436
Mof_O 	O 	0.7964	0.0318	0.2556	-0.44
Mof_O 	O 	0.9823	0.0047	0.2094	-0.309
Mof_O 	O 	0.8187	0.8542	0.2205	-0.435
Mof_O 	O 	0.0212	0.8068	0.1752	-0.436
Mof_C 	C 	0.7823	0.6464	0.1434	-0.112
Mof_O 	O 	0.1178	0.6419	0.257	-0.472
Mof_O 	O 	0.0491	0.8386	0.3334	-0.477
Mof_O 	O 	0.8883	0.4939	0.1411	-0.329
Mof_O 	O 	0.9052	0.9832	0.3525	-0.429
Mof_O 	O 	0.2141	0.7976	0.2927	-0.499
Mof_O 	O 	0.833	0.8616	0.2937	-0.458
Mof_O 	O 	0.9276	0.6672	0.2208	-0.431
Mof_O 	O 	0.02	0.8147	0.25502	-0.37
Mof_O 	O 	0.1194	0.6305	0.3332	-0.459
Mof_O 	O 	0.8633	0.9488	0.15622	-0.415
Mof_O 	O 	0.8451	0.138	0.1903	-0.418
Mof_C 	C 	0.6099	0.7589	0.1648	0.074
Mof_H 	H 	0.5518	0.7982	0.1723	0.018
Mof_C 	C 	0.8812	0.5899	0.1321	0.315
Mof_N 	N 	0.6744	0.7991	0.1385	-0.13
Mof_O 	O 	0.9507	0.6394	0.1146	-0.297
Mof_C 	C 	0.7671	0.7451	0.1283	0.079
Mof_H 	H 	0.8159	0.7749	0.112	0.027
Mof_C 	C 	0.714	0.6041	0.17	0.061
Mof_H 	H 	0.7265	0.538	0.1802	0.031
Mof_Ag	Ag	0.3536	0.6773	0.26773	0.401
Mof_O 	O 	0.5673	0.5342	0.223	-0.272
Mof_O 	O 	0.4846	0.6879	0.222	-0.379
Mof_C 	C 	0.5531	0.6251	0.2113	0.34
Mof_C 	C 	0.6265	0.663	0.1811	-0.137
Mof_W 	W 	0.80557	0.99956	0.20453	1.021
Mof_W 	W 	0.82774	0.00278	0.30775	0.999
Mof_W 	W 	0.85959	0.75313	0.25605	1.014
Mof_W 	W 	0.08063	0.72751	0.30196	1.255
Mof_W 	W 	0.07615	0.7073	0.2113	0.959
Mof_W 	W 	0.01075	0.93895	0.15273	0.997
Mof_Ag	Ag	0.54911	0.93331	0.35965	0.547
Mof_O 	O 	0.0623	0.3203	0.7974	-0.436
Mof_O 	O 	0.2036	0.9682	0.7556	-0.44
Mof_O 	O 	0.0177	0.9953	0.7094	-0.309
Mof_O 	O 	0.1813	0.1458	0.7205	-0.435
Mof_O 	O 	0.9788	0.1932	0.6752	-0.436
Mof_C 	C 	0.2177	0.3536	0.6434	-0.112
Mof_O 	O 	0.8822	0.3581	0.757	-0.472
Mof_O 	O 	0.9509	0.1614	0.8334	-0.477
Mof_O 	O 	0.1117	0.5061	0.6411	-0.329
Mof_O 	O 	0.0948	0.0168	0.8525	-0.429
Mof_O 	O 	0.7859	0.2024	0.7927	-0.499
Mof_O 	O 	0.167	0.1384	0.7937	-0.458
Mof_O 	O 	0.0724	0.3328	0.7208	-0.431
Mof_O 	O 	0.98	0.1853	0.75502	-0.37
Mof_O 	O 	0.8806	0.3695	0.8332	-0.459
Mof_O 	O 	0.1367	0.0512	0.65622	-0.415
Mof_O 	O 	0.1549	0.862	0.6903	-0.418
Mof_C 	C 	0.3901	0.2411	0.6648	0.074
Mof_H 	H 	0.4482	0.2018	0.6723	0.018
Mof_C 	C 	0.1188	0.4101	0.6321	0.315
Mof_N 	N 	0.3256	0.2009	0.6385	-0.13
Mof_O 	O 	0.0493	0.3606	0.6146	-0.297
Mof_C 	C 	0.2329	0.2549	0.6283	0.079
Mof_H 	H 	0.1841	0.2251	0.612	0.027
Mof_C 	C 	0.286	0.3959	0.67	0.061
Mof_H 	H 	0.2735	0.462	0.6802	0.031
Mof_Ag	Ag	0.6464	0.3227	0.76773	0.401
Mof_O 	O 	0.4327	0.4658	0.723	-0.272
Mof_O 	O 	0.5154	0.3121	0.722	-0.379
Mof_C 	C 	0.4469	0.3749	0.7113	0.34
Mof_C 	C 	0.3735	0.337	0.6811	-0.137
Mof_W 	W 	0.19443	0.00044	0.70453	1.022
Mof_W 	W 	0.17226	0.99722	0.80775	0.999
Mof_W 	W 	0.14041	0.24687	0.75605	1.014
Mof_W 	W 	0.91937	0.27249	0.80196	1.255
Mof_W 	W 	0.92385	0.2927	0.7113	0.959
Mof_W 	W 	0.98925	0.06105	0.65273	0.997
Mof_Ag	Ag	0.45089	0.06669	0.85965	0.546
Mof_O 	O 	0.1797	0.5623	0.0474	-0.442
Mof_O 	O 	0.5318	0.7036	0.0056	-0.442
Mof_O 	O 	0.5047	0.5177	0.9594	-0.315
Mof_O 	O 	0.3542	0.6813	0.9705	-0.436
Mof_O 	O 	0.3068	0.4788	0.9252	-0.436
Mof_C 	C 	0.1464	0.7177	0.8934	-0.113
Mof_O 	O 	0.1419	0.3822	0.007	-0.472
Mof_O 	O 	0.3386	0.4509	0.0834	-0.476
Mof_O 	O 	0.9939	0.6117	0.8911	-0.334
Mof_O 	O 	0.4832	0.5948	0.1025	-0.435
Mof_O 	O 	0.2976	0.2859	0.0427	-0.501
Mof_O 	O 	0.3616	0.667	0.0437	-0.458
Mof_O 	O 	0.1672	0.5724	0.9708	-0.435
Mof_O 	O 	0.3147	0.48	0.00502	-0.365
Mof_O 	O 	0.1305	0.3806	0.0832	-0.459
Mof_O 	O 	0.4488	0.6367	0.90622	-0.42
Mof_O 	O 	0.638	0.6549	0.9403	-0.419
Mof_C 	C 	0.2589	0.8901	0.9148	0.073
Mof_H 	H 	0.2982	0.9482	0.9223	0.018
Mof_C 	C 	0.0899	0.6188	0.8821	0.32
Mof_N 	N 	0.2991	0.8256	0.8885	-0.129
Mof_O 	O 	0.1394	0.5493	0.8646	-0.299
Mof_C 	C 	0.2451	0.7329	0.8783	0.079
Mof_H 	H 	0.2749	0.6841	0.862	0.026
Mof_C 	C 	0.1041	0.786	0.92	0.062
Mof_H 	H 	0.038	0.7735	0.9302	0.032
Mof_Ag	Ag	0.1773	0.1464	0.01773	0.403
Mof_O 	O 	0.0342	0.9327	0.973	-0.272
Mof_O 	O 	0.1879	0.0154	0.972	-0.375
Mof_C 	C 	0.1251	0.9469	0.9613	0.336
Mof_C 	C 	0.163	0.8735	0.9311	-0.136
Mof_W 	W 	0.49956	0.69443	0.95453	1.026
Mof_W 	W 	0.50278	0.67226	0.05775	0.998
Mof_W 	W 	0.25313	0.64041	0.00605	1.009
Mof_W 	W 	0.22751	0.41937	0.05196	1.262
Mof_W 	W 	0.2073	0.42385	0.9613	0.967
Mof_W 	W 	0.43895	0.48925	0.90273	1.017
Mof_Ag	Ag	0.43331	0.95089	0.10965	0.545
Mof_O 	O 	0.8203	0.4377	0.5474	-0.442
Mof_O 	O 	0.4682	0.2964	0.5056	-0.442
Mof_O 	O 	0.4953	0.4823	0.4594	-0.315
Mof_O 	O 	0.6458	0.3187	0.4705	-0.436
Mof_O 	O 	0.6932	0.5212	0.4252	-0.436
Mof_C 	C 	0.8536	0.2823	0.3934	-0.113
Mof_O 	O 	0.8581	0.6178	0.507	-0.472
Mof_O 	O 	0.6614	0.5491	0.5834	-0.476
Mof_O 	O 	0.0061	0.3883	0.3911	-0.333
Mof_O 	O 	0.5168	0.4052	0.6025	-0.435
Mof_O 	O 	0.7024	0.7141	0.5427	-0.501
Mof_O 	O 	0.6384	0.333	0.5437	-0.458
Mof_O 	O 	0.8328	0.4276	0.4708	-0.435
Mof_O 	O 	0.6853	0.52	0.50502	-0.365
Mof_O 	O 	0.8695	0.6194	0.5832	-0.459
Mof_O 	O 	0.5512	0.3633	0.40622	-0.42
Mof_O 	O 	0.362	0.3451	0.4403	-0.419
Mof_C 	C 	0.7411	0.1099	0.4148	0.073
Mof_H 	H 	0.7018	0.0518	0.4223	0.018
Mof_C 	C 	0.9101	0.3812	0.3821	0.319
Mof_N 	N 	0.7009	0.1744	0.3885	-0.129
Mof_O 	O 	0.8606	0.4507	0.3646	-0.299
Mof_C 	C 	0.7549	0.2671	0.3783	0.079
Mof_H 	H 	0.7251	0.3159	0.362	0.026
Mof_C 	C 	0.8959	0.214	0.42	0.062
Mof_H 	H 	0.962	0.2265	0.4302	0.032
Mof_Ag	Ag	0.8227	0.8536	0.51773	0.403
Mof_O 	O 	0.9658	0.0673	0.473	-0.273
Mof_O 	O 	0.8121	0.9846	0.472	-0.375
Mof_C 	C 	0.8749	0.0531	0.4613	0.335
Mof_C 	C 	0.837	0.1265	0.4311	-0.136
Mof_W 	W 	0.50044	0.30557	0.45453	1.026
Mof_W 	W 	0.49722	0.32774	0.55775	0.998
Mof_W 	W 	0.74687	0.35959	0.50605	1.01
Mof_W 	W 	0.77249	0.58063	0.55196	1.262
Mof_W 	W 	0.7927	0.57615	0.4613	0.967
Mof_W 	W 	0.56105	0.51075	0.40273	1.017
Mof_Ag	Ag	0.56669	0.04911	0.60965	0.545
_end
