# CIF file generated by openbabel 3.1.0, see https://openbabel.org
data_I
_chemical_name_common 'DIDBAV_clean'
_cell_length_a 12.695
_cell_length_b 22.6904
_cell_length_c 22.6904
_cell_angle_alpha 90
_cell_angle_beta 90
_cell_angle_gamma 90
_space_group_name_H-M_alt 'P 1'
_space_group_name_Hall 'P 1'
loop_
    _symmetry_equiv_pos_as_xyz
    x,y,z
loop_
    _atom_site_label
    _atom_site_type_symbol
    _atom_site_fract_x
    _atom_site_fract_y
    _atom_site_fract_z
    _atom_site_occupancy
    Co1      Co       0.74665    0.76792    0.75914    1.000
    Co2      Co       0.74665    0.23208    0.24086    1.000
    Co3      Co       0.25335    0.73208    0.25914    1.000
    Co4      Co       0.25335    0.26792    0.74086    1.000
    H1       H        0.46130    0.21360    0.70840    1.000
    H2       H        0.56060    0.12750    0.72250    1.000
    H3       H        0.33440    0.07060    0.83450    1.000
    H4       H        0.23870    0.15540    0.81270    1.000
    H5       H        0.66360    0.06700    0.77540    1.000
    H6       H        0.75120    0.97800    0.77530    1.000
    H7       H        0.48170    0.89210    0.80760    1.000
    H8       H        0.38970    0.98250    0.80880    1.000
    H9       H        0.30730    0.74940    0.38960    1.000
    H10      H        0.22300    0.75950    0.47870    1.000
    H11      H        0.94880    0.77590    0.39250    1.000
    H12      H        0.04070    0.76530    0.30360    1.000
    H13      H        0.11270    0.71890    0.54980    1.000
    H14      H        0.02000    0.72280    0.63800    1.000
    H15      H        0.80450    0.82940    0.56070    1.000
    H16      H        0.89960    0.82500    0.47180    1.000
    H17      H        0.46130    0.78640    0.29160    1.000
    H18      H        0.56060    0.87250    0.27750    1.000
    H19      H        0.33440    0.92940    0.16550    1.000
    H20      H        0.23870    0.84460    0.18730    1.000
    H21      H        0.66360    0.93300    0.22460    1.000
    H22      H        0.75120    0.02200    0.22470    1.000
    H23      H        0.48170    0.10790    0.19240    1.000
    H24      H        0.38970    0.01750    0.19120    1.000
    H25      H        0.30730    0.25060    0.61040    1.000
    H26      H        0.22300    0.24050    0.52130    1.000
    H27      H        0.94880    0.22410    0.60750    1.000
    H28      H        0.04070    0.23470    0.69640    1.000
    H29      H        0.11270    0.28110    0.45020    1.000
    H30      H        0.02000    0.27720    0.36200    1.000
    H31      H        0.80450    0.17060    0.43930    1.000
    H32      H        0.89960    0.17500    0.52820    1.000
    H33      H        0.53870    0.28640    0.20840    1.000
    H34      H        0.43940    0.37250    0.22250    1.000
    H35      H        0.66560    0.42940    0.33450    1.000
    H36      H        0.76130    0.34460    0.31270    1.000
    H37      H        0.33640    0.43300    0.27540    1.000
    H38      H        0.24880    0.52200    0.27530    1.000
    H39      H        0.51830    0.60790    0.30760    1.000
    H40      H        0.61030    0.51750    0.30880    1.000
    H41      H        0.69270    0.75060    0.88960    1.000
    H42      H        0.77700    0.74050    0.97870    1.000
    H43      H        0.05120    0.72410    0.89250    1.000
    H44      H        0.95930    0.73470    0.80360    1.000
    H45      H        0.88730    0.78110    0.04980    1.000
    H46      H        0.98000    0.77720    0.13800    1.000
    H47      H        0.19550    0.67060    0.06070    1.000
    H48      H        0.10040    0.67500    0.97180    1.000
    H49      H        0.53870    0.71360    0.79160    1.000
    H50      H        0.43940    0.62750    0.77750    1.000
    H51      H        0.66560    0.57060    0.66550    1.000
    H52      H        0.76130    0.65540    0.68730    1.000
    H53      H        0.33640    0.56700    0.72460    1.000
    H54      H        0.24880    0.47800    0.72470    1.000
    H55      H        0.51830    0.39210    0.69240    1.000
    H56      H        0.61030    0.48250    0.69120    1.000
    H57      H        0.69270    0.24940    0.11040    1.000
    H58      H        0.77700    0.25950    0.02130    1.000
    H59      H        0.05120    0.27590    0.10750    1.000
    H60      H        0.95930    0.26530    0.19640    1.000
    H61      H        0.88730    0.21890    0.95020    1.000
    H62      H        0.98000    0.22280    0.86200    1.000
    H63      H        0.19550    0.32940    0.93930    1.000
    H64      H        0.10040    0.32500    0.02820    1.000
    C1       C        0.43320    0.18350    0.73290    1.000
    C2       C        0.49500    0.13250    0.74210    1.000
    C3       C        0.45700    0.09020    0.78050    1.000
    C4       C        0.36150    0.09880    0.80740    1.000
    C5       C        0.30510    0.14970    0.79410    1.000
    C6       C        0.51620    0.03390    0.78740    1.000
    C7       C        0.62500    0.03150    0.78070    1.000
    C8       C        0.67730    0.97880    0.78160    1.000
    C9       C        0.62390    0.92720    0.79160    1.000
    C10      C        0.51840    0.92790    0.80080    1.000
    C11      C        0.46300    0.98170    0.80030    1.000
    C12      C        0.68020    0.86730    0.78550    1.000
    C13      C        0.23300    0.75400    0.39000    1.000
    C14      C        0.18310    0.76010    0.44330    1.000
    C15      C        0.07520    0.76700    0.44570    1.000
    C16      C        0.02280    0.76970    0.39310    1.000
    C17      C        0.07820    0.76320    0.33980    1.000
    C18      C        0.01560    0.77240    0.50170    1.000
    C19      C        0.04990    0.74150    0.55200    1.000
    C20      C        0.99460    0.74340    0.60440    1.000
    C21      C        0.90190    0.77530    0.60760    1.000
    C22      C        0.86700    0.80650    0.55840    1.000
    C23      C        0.92450    0.80420    0.50540    1.000
    C24      C        0.83780    0.77470    0.66280    1.000
    C25      C        0.43320    0.81650    0.26710    1.000
    C26      C        0.49500    0.86750    0.25790    1.000
    C27      C        0.45700    0.90980    0.21950    1.000
    C28      C        0.36150    0.90120    0.19260    1.000
    C29      C        0.30510    0.85030    0.20590    1.000
    C30      C        0.51620    0.96610    0.21260    1.000
    C31      C        0.62500    0.96850    0.21930    1.000
    C32      C        0.67730    0.02120    0.21840    1.000
    C33      C        0.62390    0.07280    0.20840    1.000
    C34      C        0.51840    0.07210    0.19920    1.000
    C35      C        0.46300    0.01830    0.19970    1.000
    C36      C        0.68020    0.13270    0.21450    1.000
    C37      C        0.23300    0.24600    0.61000    1.000
    C38      C        0.18310    0.23990    0.55670    1.000
    C39      C        0.07520    0.23300    0.55430    1.000
    C40      C        0.02280    0.23030    0.60690    1.000
    C41      C        0.07820    0.23680    0.66020    1.000
    C42      C        0.01560    0.22760    0.49830    1.000
    C43      C        0.04990    0.25850    0.44800    1.000
    C44      C        0.99460    0.25660    0.39560    1.000
    C45      C        0.90190    0.22470    0.39240    1.000
    C46      C        0.86700    0.19350    0.44160    1.000
    C47      C        0.92450    0.19580    0.49460    1.000
    C48      C        0.83780    0.22530    0.33720    1.000
    C49      C        0.56680    0.31650    0.23290    1.000
    C50      C        0.50500    0.36750    0.24210    1.000
    C51      C        0.54300    0.40980    0.28050    1.000
    C52      C        0.63850    0.40120    0.30740    1.000
    C53      C        0.69490    0.35030    0.29410    1.000
    C54      C        0.48380    0.46610    0.28740    1.000
    C55      C        0.37500    0.46850    0.28070    1.000
    C56      C        0.32270    0.52120    0.28160    1.000
    C57      C        0.37610    0.57280    0.29160    1.000
    C58      C        0.48160    0.57210    0.30080    1.000
    C59      C        0.53700    0.51830    0.30030    1.000
    C60      C        0.31980    0.63270    0.28550    1.000
    C61      C        0.76700    0.74600    0.89000    1.000
    C62      C        0.81690    0.73990    0.94330    1.000
    C63      C        0.92480    0.73300    0.94570    1.000
    C64      C        0.97720    0.73030    0.89310    1.000
    C65      C        0.92180    0.73680    0.83980    1.000
    C66      C        0.98440    0.72760    0.00170    1.000
    C67      C        0.95010    0.75850    0.05200    1.000
    C68      C        0.00540    0.75660    0.10440    1.000
    C69      C        0.09810    0.72470    0.10760    1.000
    C70      C        0.13300    0.69350    0.05840    1.000
    C71      C        0.07550    0.69580    0.00540    1.000
    C72      C        0.16220    0.72530    0.16280    1.000
    C73      C        0.56680    0.68350    0.76710    1.000
    C74      C        0.50500    0.63250    0.75790    1.000
    C75      C        0.54300    0.59020    0.71950    1.000
    C76      C        0.63850    0.59880    0.69260    1.000
    C77      C        0.69490    0.64970    0.70590    1.000
    C78      C        0.48380    0.53390    0.71260    1.000
    C79      C        0.37500    0.53150    0.71930    1.000
    C80      C        0.32270    0.47880    0.71840    1.000
    C81      C        0.37610    0.42720    0.70840    1.000
    C82      C        0.48160    0.42790    0.69920    1.000
    C83      C        0.53700    0.48170    0.69970    1.000
    C84      C        0.31980    0.36730    0.71450    1.000
    C85      C        0.76700    0.25400    0.11000    1.000
    C86      C        0.81690    0.26010    0.05670    1.000
    C87      C        0.92480    0.26700    0.05430    1.000
    C88      C        0.97720    0.26970    0.10690    1.000
    C89      C        0.92180    0.26320    0.16020    1.000
    C90      C        0.98440    0.27240    0.99830    1.000
    C91      C        0.95010    0.24150    0.94800    1.000
    C92      C        0.00540    0.24340    0.89560    1.000
    C93      C        0.09810    0.27530    0.89240    1.000
    C94      C        0.13300    0.30650    0.94160    1.000
    C95      C        0.07550    0.30420    0.99460    1.000
    C96      C        0.16220    0.27470    0.83720    1.000
    N1       N        0.33990    0.19200    0.75590    1.000
    N2       N        0.18130    0.75430    0.33870    1.000
    N3       N        0.33990    0.80800    0.24410    1.000
    N4       N        0.18130    0.24570    0.66130    1.000
    N5       N        0.66010    0.30800    0.25590    1.000
    N6       N        0.81870    0.74570    0.83870    1.000
    N7       N        0.66010    0.69200    0.74410    1.000
    N8       N        0.81870    0.25430    0.16130    1.000
    O1       O        0.62510    0.82138    0.78596    1.000
    O2       O        0.77730    0.86665    0.77880    1.000
    O3       O        0.74680    0.79381    0.66346    1.000
    O4       O        0.87700    0.74942    0.70794    1.000
    O5       O        0.62510    0.17862    0.21404    1.000
    O6       O        0.77730    0.13335    0.22120    1.000
    O7       O        0.74680    0.20619    0.33654    1.000
    O8       O        0.87700    0.25058    0.29206    1.000
    O9       O        0.37490    0.67862    0.28596    1.000
    O10      O        0.22270    0.63335    0.27880    1.000
    O11      O        0.25320    0.70619    0.16346    1.000
    O12      O        0.12300    0.75058    0.20794    1.000
    O13      O        0.37490    0.32138    0.71404    1.000
    O14      O        0.22270    0.36665    0.72120    1.000
    O15      O        0.25320    0.29381    0.83654    1.000
    O16      O        0.12300    0.24942    0.79206    1.000
    Co5      Co       0.74665    0.74086    0.26792    1.000
    Co6      Co       0.74665    0.25914    0.73208    1.000
    Co7      Co       0.25335    0.75914    0.76792    1.000
    Co8      Co       0.25335    0.24086    0.23208    1.000
    H65      H        0.46130    0.79160    0.71360    1.000
    H66      H        0.56060    0.77750    0.62750    1.000
    H67      H        0.33440    0.66550    0.57060    1.000
    H68      H        0.23870    0.68730    0.65540    1.000
    H69      H        0.66360    0.72460    0.56700    1.000
    H70      H        0.75120    0.72470    0.47800    1.000
    H71      H        0.48170    0.69240    0.39210    1.000
    H72      H        0.38970    0.69120    0.48250    1.000
    H73      H        0.30730    0.11040    0.24940    1.000
    H74      H        0.22300    0.02130    0.25950    1.000
    H75      H        0.94880    0.10750    0.27590    1.000
    H76      H        0.04070    0.19640    0.26530    1.000
    H77      H        0.11270    0.95020    0.21890    1.000
    H78      H        0.02000    0.86200    0.22280    1.000
    H79      H        0.80450    0.93930    0.32940    1.000
    H80      H        0.89960    0.02820    0.32500    1.000
    H81      H        0.46130    0.20840    0.28640    1.000
    H82      H        0.56060    0.22250    0.37250    1.000
    H83      H        0.33440    0.33450    0.42940    1.000
    H84      H        0.23870    0.31270    0.34460    1.000
    H85      H        0.66360    0.27540    0.43300    1.000
    H86      H        0.75120    0.27530    0.52200    1.000
    H87      H        0.48170    0.30760    0.60790    1.000
    H88      H        0.38970    0.30880    0.51750    1.000
    H89      H        0.30730    0.88960    0.75060    1.000
    H90      H        0.22300    0.97870    0.74050    1.000
    H91      H        0.94880    0.89250    0.72410    1.000
    H92      H        0.04070    0.80360    0.73470    1.000
    H93      H        0.11270    0.04980    0.78110    1.000
    H94      H        0.02000    0.13800    0.77720    1.000
    H95      H        0.80450    0.06070    0.67060    1.000
    H96      H        0.89960    0.97180    0.67500    1.000
    H97      H        0.53870    0.70840    0.21360    1.000
    H98      H        0.43940    0.72250    0.12750    1.000
    H99      H        0.66560    0.83450    0.07060    1.000
    H100     H        0.76130    0.81270    0.15540    1.000
    H101     H        0.33640    0.77540    0.06700    1.000
    H102     H        0.24880    0.77530    0.97800    1.000
    H103     H        0.51830    0.80760    0.89210    1.000
    H104     H        0.61030    0.80880    0.98250    1.000
    H105     H        0.69270    0.38960    0.74940    1.000
    H106     H        0.77700    0.47870    0.75950    1.000
    H107     H        0.05120    0.39250    0.77590    1.000
    H108     H        0.95930    0.30360    0.76530    1.000
    H109     H        0.88730    0.54980    0.71890    1.000
    H110     H        0.98000    0.63800    0.72280    1.000
    H111     H        0.19550    0.56070    0.82940    1.000
    H112     H        0.10040    0.47180    0.82500    1.000
    H113     H        0.53870    0.29160    0.78640    1.000
    H114     H        0.43940    0.27750    0.87250    1.000
    H115     H        0.66560    0.16550    0.92940    1.000
    H116     H        0.76130    0.18730    0.84460    1.000
    H117     H        0.33640    0.22460    0.93300    1.000
    H118     H        0.24880    0.22470    0.02200    1.000
    H119     H        0.51830    0.19240    0.10790    1.000
    H120     H        0.61030    0.19120    0.01750    1.000
    H121     H        0.69270    0.61040    0.25060    1.000
    H122     H        0.77700    0.52130    0.24050    1.000
    H123     H        0.05120    0.60750    0.22410    1.000
    H124     H        0.95930    0.69640    0.23470    1.000
    H125     H        0.88730    0.45020    0.28110    1.000
    H126     H        0.98000    0.36200    0.27720    1.000
    H127     H        0.19550    0.43930    0.17060    1.000
    H128     H        0.10040    0.52820    0.17500    1.000
    C97      C        0.43320    0.76710    0.68350    1.000
    C98      C        0.49500    0.75790    0.63250    1.000
    C99      C        0.45700    0.71950    0.59020    1.000
    C100     C        0.36150    0.69260    0.59880    1.000
    C101     C        0.30510    0.70590    0.64970    1.000
    C102     C        0.51620    0.71260    0.53390    1.000
    C103     C        0.62500    0.71930    0.53150    1.000
    C104     C        0.67730    0.71840    0.47880    1.000
    C105     C        0.62390    0.70840    0.42720    1.000
    C106     C        0.51840    0.69920    0.42790    1.000
    C107     C        0.46300    0.69970    0.48170    1.000
    C108     C        0.68020    0.71450    0.36730    1.000
    C109     C        0.23300    0.11000    0.25400    1.000
    C110     C        0.18310    0.05670    0.26010    1.000
    C111     C        0.07520    0.05430    0.26700    1.000
    C112     C        0.02280    0.10690    0.26970    1.000
    C113     C        0.07820    0.16020    0.26320    1.000
    C114     C        0.01560    0.99830    0.27240    1.000
    C115     C        0.04990    0.94800    0.24150    1.000
    C116     C        0.99460    0.89560    0.24340    1.000
    C117     C        0.90190    0.89240    0.27530    1.000
    C118     C        0.86700    0.94160    0.30650    1.000
    C119     C        0.92450    0.99460    0.30420    1.000
    C120     C        0.83780    0.83720    0.27470    1.000
    C121     C        0.43320    0.23290    0.31650    1.000
    C122     C        0.49500    0.24210    0.36750    1.000
    C123     C        0.45700    0.28050    0.40980    1.000
    C124     C        0.36150    0.30740    0.40120    1.000
    C125     C        0.30510    0.29410    0.35030    1.000
    C126     C        0.51620    0.28740    0.46610    1.000
    C127     C        0.62500    0.28070    0.46850    1.000
    C128     C        0.67730    0.28160    0.52120    1.000
    C129     C        0.62390    0.29160    0.57280    1.000
    C130     C        0.51840    0.30080    0.57210    1.000
    C131     C        0.46300    0.30030    0.51830    1.000
    C132     C        0.68020    0.28550    0.63270    1.000
    C133     C        0.23300    0.89000    0.74600    1.000
    C134     C        0.18310    0.94330    0.73990    1.000
    C135     C        0.07520    0.94570    0.73300    1.000
    C136     C        0.02280    0.89310    0.73030    1.000
    C137     C        0.07820    0.83980    0.73680    1.000
    C138     C        0.01560    0.00170    0.72760    1.000
    C139     C        0.04990    0.05200    0.75850    1.000
    C140     C        0.99460    0.10440    0.75660    1.000
    C141     C        0.90190    0.10760    0.72470    1.000
    C142     C        0.86700    0.05840    0.69350    1.000
    C143     C        0.92450    0.00540    0.69580    1.000
    C144     C        0.83780    0.16280    0.72530    1.000
    C145     C        0.56680    0.73290    0.18350    1.000
    C146     C        0.50500    0.74210    0.13250    1.000
    C147     C        0.54300    0.78050    0.09020    1.000
    C148     C        0.63850    0.80740    0.09880    1.000
    C149     C        0.69490    0.79410    0.14970    1.000
    C150     C        0.48380    0.78740    0.03390    1.000
    C151     C        0.37500    0.78070    0.03150    1.000
    C152     C        0.32270    0.78160    0.97880    1.000
    C153     C        0.37610    0.79160    0.92720    1.000
    C154     C        0.48160    0.80080    0.92790    1.000
    C155     C        0.53700    0.80030    0.98170    1.000
    C156     C        0.31980    0.78550    0.86730    1.000
    C157     C        0.76700    0.39000    0.75400    1.000
    C158     C        0.81690    0.44330    0.76010    1.000
    C159     C        0.92480    0.44570    0.76700    1.000
    C160     C        0.97720    0.39310    0.76970    1.000
    C161     C        0.92180    0.33980    0.76320    1.000
    C162     C        0.98440    0.50170    0.77240    1.000
    C163     C        0.95010    0.55200    0.74150    1.000
    C164     C        0.00540    0.60440    0.74340    1.000
    C165     C        0.09810    0.60760    0.77530    1.000
    C166     C        0.13300    0.55840    0.80650    1.000
    C167     C        0.07550    0.50540    0.80420    1.000
    C168     C        0.16220    0.66280    0.77470    1.000
    C169     C        0.56680    0.26710    0.81650    1.000
    C170     C        0.50500    0.25790    0.86750    1.000
    C171     C        0.54300    0.21950    0.90980    1.000
    C172     C        0.63850    0.19260    0.90120    1.000
    C173     C        0.69490    0.20590    0.85030    1.000
    C174     C        0.48380    0.21260    0.96610    1.000
    C175     C        0.37500    0.21930    0.96850    1.000
    C176     C        0.32270    0.21840    0.02120    1.000
    C177     C        0.37610    0.20840    0.07280    1.000
    C178     C        0.48160    0.19920    0.07210    1.000
    C179     C        0.53700    0.19970    0.01830    1.000
    C180     C        0.31980    0.21450    0.13270    1.000
    C181     C        0.76700    0.61000    0.24600    1.000
    C182     C        0.81690    0.55670    0.23990    1.000
    C183     C        0.92480    0.55430    0.23300    1.000
    C184     C        0.97720    0.60690    0.23030    1.000
    C185     C        0.92180    0.66020    0.23680    1.000
    C186     C        0.98440    0.49830    0.22760    1.000
    C187     C        0.95010    0.44800    0.25850    1.000
    C188     C        0.00540    0.39560    0.25660    1.000
    C189     C        0.09810    0.39240    0.22470    1.000
    C190     C        0.13300    0.44160    0.19350    1.000
    C191     C        0.07550    0.49460    0.19580    1.000
    C192     C        0.16220    0.33720    0.22530    1.000
    N9       N        0.33990    0.74410    0.69200    1.000
    N10      N        0.18130    0.16130    0.25430    1.000
    N11      N        0.33990    0.25590    0.30800    1.000
    N12      N        0.18130    0.83870    0.74570    1.000
    N13      N        0.66010    0.75590    0.19200    1.000
    N14      N        0.81870    0.33870    0.75430    1.000
    N15      N        0.66010    0.24410    0.80800    1.000
    N16      N        0.81870    0.66130    0.24570    1.000
    O17      O        0.62510    0.71404    0.32138    1.000
    O18      O        0.77730    0.72120    0.36665    1.000
    O19      O        0.74680    0.83654    0.29381    1.000
    O20      O        0.87700    0.79206    0.24942    1.000
    O21      O        0.62510    0.28596    0.67862    1.000
    O22      O        0.77730    0.27880    0.63335    1.000
    O23      O        0.74680    0.16346    0.70619    1.000
    O24      O        0.87700    0.20794    0.75058    1.000
    O25      O        0.37490    0.78596    0.82138    1.000
    O26      O        0.22270    0.77880    0.86665    1.000
    O27      O        0.25320    0.66346    0.79381    1.000
    O28      O        0.12300    0.70794    0.74942    1.000
    O29      O        0.37490    0.21404    0.17862    1.000
    O30      O        0.22270    0.22120    0.13335    1.000
    O31      O        0.25320    0.33654    0.20619    1.000
    O32      O        0.12300    0.29206    0.25058    1.000
