# CIF file generated by openbabel 3.1.0, see https://openbabel.org
data_I
_chemical_name_common 'image0'
_cell_length_a 8.945
_cell_length_b 14.936
_cell_length_c 12.408
_cell_angle_alpha 90
_cell_angle_beta 108.531
_cell_angle_gamma 90
_space_group_name_H-M_alt 'P 1'
_space_group_name_Hall 'P 1'
loop_
    _symmetry_equiv_pos_as_xyz
    x,y,z
loop_
    _atom_site_label
    _atom_site_type_symbol
    _atom_site_fract_x
    _atom_site_fract_y
    _atom_site_fract_z
    _atom_site_occupancy
    Fe1      Fe       0.12132    0.04953    0.67924    1.000
    Fe2      Fe       0.23500    0.20554    0.90427    1.000
    Cl1      Cl       0.08520    0.94945    0.80424    1.000
    Cl2      Cl       0.08090    0.31250    0.79043    1.000
    O1       O        0.24820    0.28490    0.04870    1.000
    O2       O        0.25880    0.13390    0.78110    1.000
    O3       O        0.30560    0.99230    0.64150    1.000
    O4       O        0.61390    0.36090    0.04520    1.000
    O5       O        0.35790    0.88970    0.52490    1.000
    O6       O        0.05150    0.85820    0.43250    1.000
    O7       O        0.99690    0.96420    0.54330    1.000
    O8       O        0.45070    0.26260    0.93070    1.000
    O9       O        0.40910    0.38820    0.15770    1.000
    C1       C        0.48900    0.31710    0.01290    1.000
    C2       C        0.26630    0.93480    0.56240    1.000
    C3       C        0.08760    0.91860    0.50790    1.000
    C4       C        0.37020    0.33030    0.07850    1.000
    H1       H        0.31430    0.16370    0.74940    1.000
    Fe3      Fe       0.62132    0.54953    0.67924    1.000
    Fe4      Fe       0.73500    0.70554    0.90427    1.000
    Cl3      Cl       0.58520    0.44945    0.80424    1.000
    Cl4      Cl       0.58090    0.81250    0.79043    1.000
    O10      O        0.74820    0.78490    0.04870    1.000
    O11      O        0.75880    0.63390    0.78110    1.000
    O12      O        0.80560    0.49230    0.64150    1.000
    O13      O        0.11390    0.86090    0.04520    1.000
    O14      O        0.85790    0.38970    0.52490    1.000
    O15      O        0.55150    0.35820    0.43250    1.000
    O16      O        0.49690    0.46420    0.54330    1.000
    O17      O        0.95070    0.76260    0.93070    1.000
    O18      O        0.90910    0.88820    0.15770    1.000
    C5       C        0.98900    0.81710    0.01290    1.000
    C6       C        0.76630    0.43480    0.56240    1.000
    C7       C        0.58760    0.41860    0.50790    1.000
    C8       C        0.87020    0.83030    0.07850    1.000
    H2       H        0.81430    0.66370    0.74940    1.000
    Fe5      Fe       0.12132    0.95047    0.17924    1.000
    Fe6      Fe       0.23500    0.79446    0.40427    1.000
    Cl5      Cl       0.08520    0.05055    0.30424    1.000
    Cl6      Cl       0.08090    0.68750    0.29043    1.000
    O19      O        0.24820    0.71510    0.54870    1.000
    O20      O        0.25880    0.86610    0.28110    1.000
    O21      O        0.30560    0.00770    0.14150    1.000
    O22      O        0.61390    0.63910    0.54520    1.000
    O23      O        0.35790    0.11030    0.02490    1.000
    O24      O        0.05150    0.14180    0.93250    1.000
    O25      O        0.99690    0.03580    0.04330    1.000
    O26      O        0.45070    0.73740    0.43070    1.000
    O27      O        0.40910    0.61180    0.65770    1.000
    C9       C        0.48900    0.68290    0.51290    1.000
    C10      C        0.26630    0.06520    0.06240    1.000
    C11      C        0.08760    0.08140    0.00790    1.000
    C12      C        0.37020    0.66970    0.57850    1.000
    H3       H        0.31430    0.83630    0.24940    1.000
    Fe7      Fe       0.62132    0.45047    0.17924    1.000
    Fe8      Fe       0.73500    0.29446    0.40427    1.000
    Cl7      Cl       0.58520    0.55055    0.30424    1.000
    Cl8      Cl       0.58090    0.18750    0.29043    1.000
    O28      O        0.74820    0.21510    0.54870    1.000
    O29      O        0.75880    0.36610    0.28110    1.000
    O30      O        0.80560    0.50770    0.14150    1.000
    O31      O        0.11390    0.13910    0.54520    1.000
    O32      O        0.85790    0.61030    0.02490    1.000
    O33      O        0.55150    0.64180    0.93250    1.000
    O34      O        0.49690    0.53580    0.04330    1.000
    O35      O        0.95070    0.23740    0.43070    1.000
    O36      O        0.90910    0.11180    0.65770    1.000
    C13      C        0.98900    0.18290    0.51290    1.000
    C14      C        0.76630    0.56520    0.06240    1.000
    C15      C        0.58760    0.58140    0.00790    1.000
    C16      C        0.87020    0.16970    0.57850    1.000
    H4       H        0.81430    0.33630    0.24940    1.000
