data_functionalizedCrystal
_audit_creation_method	'EQeq! by Chris Wilmer'
_symmetry_space_group_name_H-M	'P1'
_symmetry_Int_Tables_number	1
_symmetry_cell_setting	triclinic
loop_
_symmetry_equiv_pos_as_xyz
  x,y,z
_cell_length_a	8.0769
_cell_length_b	10.8723
_cell_length_c	12.909
_cell_angle_alpha	101.511
_cell_angle_beta	96.399
_cell_angle_gamma	109.817
loop_
_atom_site_label
_atom_site_type_symbol
_atom_site_fract_x
_atom_site_fract_y
_atom_site_fract_z
_atom_site_charge
Mof_Zn	Zn	0.51291	0.64882	0.49816	1.232
Mof_Zn	Zn	0.10138	0.36887	0.47758	1.233
Mof_O 	O 	0.329	0.4519	0.4368	-0.86
Mof_H 	H 	0.311	0.419	0.37	0.299
Mof_Cl	Cl	0.4363	0.9055	0.0139	-0.732
Mof_N 	N 	0.6409	0.9892	0.4111	-0.243
Mof_H 	H 	0.744	0.047	0.399	0.119
Mof_H 	H 	0.682	0.964	0.469	0.119
Mof_N 	N 	0.3623	0.7554	0.428	-0.325
Mof_H 	H 	0.242	0.719	0.422	0.115
Mof_H 	H 	0.396	0.822	0.49	0.11
Mof_C 	C 	0.52	0.8997	0.3188	0.018
Mof_C 	C 	0.3789	0.786	0.3266	0.052
Mof_C 	C 	0.2564	0.6995	0.2341	-0.026
Mof_H 	H 	0.1629	0.6209	0.2395	0.055
Mof_C 	C 	0.2699	0.7271	0.1347	-0.118
Mof_H 	H 	0.1854	0.6683	0.0721	0.438
Mof_C 	C 	0.4063	0.8402	0.1269	-0.276
Mof_C 	C 	0.5331	0.9267	0.2183	0.075
Mof_H 	H 	0.628	0.0037	0.2117	0.043
Mof_O 	O 	0.0171	0.1738	0.3941	-0.552
Mof_O 	O 	0.2878	0.1608	0.4271	-0.536
Mof_C 	C 	0.1261	0.1117	0.3829	0.623
Mof_C 	C 	0.0524	0.9683	0.3175	-0.942
Mof_H 	H 	0.073	0.9652	0.2438	0.323
Mof_H 	H 	0.9233	0.929	0.3161	0.299
Mof_H 	H 	0.1127	0.9166	0.3498	0.311
Mof_O 	O 	0.8678	0.3856	0.4406	-0.622
Mof_O 	O 	0.5881	0.323	0.3558	-0.513
Mof_C 	C 	0.7486	0.3399	0.3538	0.672
Mof_C 	C 	0.8067	0.3104	0.2482	-1.106
Mof_H 	H 	0.7041	0.2829	0.189	0.41
Mof_H 	H 	0.8526	0.2373	0.2451	0.368
Mof_H 	H 	0.9014	0.3917	0.2416	0.361
Mof_O 	O 	0.107	0.3617	0.6295	-0.572
Mof_O 	O 	0.3883	0.3702	0.6454	-0.564
Mof_C 	C 	0.252	0.3665	0.6821	0.68
Mof_C 	C 	0.26	0.3703	0.7993	-1.061
Mof_H 	H 	0.355	0.3401	0.8245	0.361
Mof_H 	H 	0.1445	0.3104	0.8094	0.358
Mof_H 	H 	0.2858	0.4629	0.8406	0.371
Mof_Cl	Cl	0.109	0.5949	0.022	-0.604
Mof_H 	H 	0.4145	0.8598	0.0588	0.606
Mof_Zn	Zn	0.48709	0.35118	0.50184	1.233
Mof_Zn	Zn	0.89862	0.63113	0.52242	1.234
Mof_O 	O 	0.671	0.5481	0.5632	-0.86
Mof_H 	H 	0.689	0.581	0.63	0.299
Mof_Cl	Cl	0.5637	0.0945	0.9861	-0.732
Mof_N 	N 	0.3591	0.0108	0.5889	-0.243
Mof_H 	H 	0.256	0.953	0.601	0.119
Mof_H 	H 	0.318	0.036	0.531	0.119
Mof_N 	N 	0.6377	0.2446	0.572	-0.325
Mof_H 	H 	0.758	0.281	0.578	0.115
Mof_H 	H 	0.604	0.178	0.51	0.11
Mof_C 	C 	0.48	0.1003	0.6812	0.018
Mof_C 	C 	0.6211	0.214	0.6734	0.052
Mof_C 	C 	0.7436	0.3005	0.7659	-0.026
Mof_H 	H 	0.8371	0.3791	0.7605	0.055
Mof_C 	C 	0.7301	0.2729	0.8653	-0.118
Mof_H 	H 	0.8146	0.3317	0.9279	0.438
Mof_C 	C 	0.5937	0.1598	0.8731	-0.276
Mof_C 	C 	0.4669	0.0733	0.7817	0.075
Mof_H 	H 	0.372	0.9963	0.7883	0.043
Mof_O 	O 	0.9829	0.8262	0.6059	-0.552
Mof_O 	O 	0.7122	0.8392	0.5729	-0.536
Mof_C 	C 	0.8739	0.8883	0.6171	0.623
Mof_C 	C 	0.9476	0.0317	0.6825	-0.942
Mof_H 	H 	0.927	0.0348	0.7562	0.323
Mof_H 	H 	0.0767	0.071	0.6839	0.299
Mof_H 	H 	0.8873	0.0834	0.6502	0.311
Mof_O 	O 	0.1322	0.6144	0.5594	-0.622
Mof_O 	O 	0.4119	0.677	0.6442	-0.513
Mof_C 	C 	0.2514	0.6601	0.6462	0.672
Mof_C 	C 	0.1933	0.6896	0.7518	-1.106
Mof_H 	H 	0.2959	0.7171	0.811	0.41
Mof_H 	H 	0.1474	0.7627	0.7549	0.368
Mof_H 	H 	0.0986	0.6083	0.7584	0.361
Mof_O 	O 	0.893	0.6383	0.3705	-0.572
Mof_O 	O 	0.6117	0.6298	0.3546	-0.564
Mof_C 	C 	0.748	0.6335	0.3179	0.68
Mof_C 	C 	0.74	0.6297	0.2007	-1.061
Mof_H 	H 	0.645	0.6599	0.1755	0.361
Mof_H 	H 	0.8555	0.6896	0.1906	0.358
Mof_H 	H 	0.7142	0.5371	0.1594	0.371
Mof_Cl	Cl	0.891	0.4051	0.978	-0.604
Mof_H 	H 	0.5855	0.1402	0.9412	0.606
_end
