# CIF file generated by openbabel 3.1.0, see https://openbabel.org
data_I
_chemical_name_common 'image0'
_cell_length_a 10.513
_cell_length_b 15.617
_cell_length_c 13.895
_cell_angle_alpha 90
_cell_angle_beta 97.014
_cell_angle_gamma 90
_space_group_name_H-M_alt 'P 1'
_space_group_name_Hall 'P 1'
loop_
    _symmetry_equiv_pos_as_xyz
    x,y,z
loop_
    _atom_site_label
    _atom_site_type_symbol
    _atom_site_fract_x
    _atom_site_fract_y
    _atom_site_fract_z
    _atom_site_occupancy
    Zn1      Zn       0.03326    0.08550    0.39017    1.000
    O1       O        0.12230    0.10652    0.51985    1.000
    O2       O        0.17260    0.11098    0.31218    1.000
    O3       O        0.87200    0.14405    0.36587    1.000
    O4       O        0.02820    0.96204    0.37295    1.000
    P1       P        0.07053    0.10694    0.61767    1.000
    P2       P        0.20793    0.16557    0.22902    1.000
    O5       O        0.02080    0.19556    0.63831    1.000
    H1       H        0.16980    0.08840    0.68350    1.000
    H2       H        0.18160    0.24230    0.24700    1.000
    O6       O        0.35110    0.15988    0.22171    1.000
    Zn2      Zn       0.53326    0.58550    0.39017    1.000
    O7       O        0.62230    0.60652    0.51985    1.000
    O8       O        0.67260    0.61098    0.31218    1.000
    O9       O        0.37200    0.64405    0.36587    1.000
    O10      O        0.52820    0.46204    0.37295    1.000
    P3       P        0.57053    0.60694    0.61767    1.000
    P4       P        0.70793    0.66557    0.22902    1.000
    O11      O        0.52080    0.69556    0.63831    1.000
    H3       H        0.66980    0.58840    0.68350    1.000
    H4       H        0.68160    0.74230    0.24700    1.000
    O12      O        0.85110    0.65988    0.22171    1.000
    Zn3      Zn       0.96674    0.08550    0.10983    1.000
    O13      O        0.87770    0.10652    0.98015    1.000
    O14      O        0.82740    0.11098    0.18782    1.000
    O15      O        0.12800    0.14405    0.13413    1.000
    O16      O        0.97180    0.96204    0.12705    1.000
    P5       P        0.92947    0.10694    0.88233    1.000
    P6       P        0.79207    0.16557    0.27098    1.000
    O17      O        0.97920    0.19556    0.86169    1.000
    H5       H        0.83020    0.08840    0.81650    1.000
    H6       H        0.81840    0.24230    0.25300    1.000
    O18      O        0.64890    0.15988    0.27829    1.000
    Zn4      Zn       0.46674    0.58550    0.10983    1.000
    O19      O        0.37770    0.60652    0.98015    1.000
    O20      O        0.32740    0.61098    0.18782    1.000
    O21      O        0.62800    0.64405    0.13413    1.000
    O22      O        0.47180    0.46204    0.12705    1.000
    P7       P        0.42947    0.60694    0.88233    1.000
    P8       P        0.29207    0.66557    0.27098    1.000
    O23      O        0.47920    0.69556    0.86169    1.000
    H7       H        0.33020    0.58840    0.81650    1.000
    H8       H        0.31840    0.74230    0.25300    1.000
    O24      O        0.14890    0.65988    0.27829    1.000
    Zn5      Zn       0.96674    0.91450    0.60983    1.000
    O25      O        0.87770    0.89348    0.48015    1.000
    O26      O        0.82740    0.88902    0.68782    1.000
    O27      O        0.12800    0.85595    0.63413    1.000
    O28      O        0.97180    0.03796    0.62705    1.000
    P9       P        0.92947    0.89306    0.38233    1.000
    P10      P        0.79207    0.83443    0.77098    1.000
    O29      O        0.97920    0.80444    0.36169    1.000
    H9       H        0.83020    0.91160    0.31650    1.000
    H10      H        0.81840    0.75770    0.75300    1.000
    O30      O        0.64890    0.84012    0.77829    1.000
    Zn6      Zn       0.46674    0.41450    0.60983    1.000
    O31      O        0.37770    0.39348    0.48015    1.000
    O32      O        0.32740    0.38902    0.68782    1.000
    O33      O        0.62800    0.35595    0.63413    1.000
    O34      O        0.47180    0.53796    0.62705    1.000
    P11      P        0.42947    0.39306    0.38233    1.000
    P12      P        0.29207    0.33443    0.77098    1.000
    O35      O        0.47920    0.30444    0.36169    1.000
    H11      H        0.33020    0.41160    0.31650    1.000
    H12      H        0.31840    0.25770    0.75300    1.000
    O36      O        0.14890    0.34012    0.77829    1.000
    Zn7      Zn       0.03326    0.91450    0.89017    1.000
    O37      O        0.12230    0.89348    0.01985    1.000
    O38      O        0.17260    0.88902    0.81218    1.000
    O39      O        0.87200    0.85595    0.86587    1.000
    O40      O        0.02820    0.03796    0.87295    1.000
    P13      P        0.07053    0.89306    0.11767    1.000
    P14      P        0.20793    0.83443    0.72902    1.000
    O41      O        0.02080    0.80444    0.13831    1.000
    H13      H        0.16980    0.91160    0.18350    1.000
    H14      H        0.18160    0.75770    0.74700    1.000
    O42      O        0.35110    0.84012    0.72171    1.000
    Zn8      Zn       0.53326    0.41450    0.89017    1.000
    O43      O        0.62230    0.39348    0.01985    1.000
    O44      O        0.67260    0.38902    0.81218    1.000
    O45      O        0.37200    0.35595    0.86587    1.000
    O46      O        0.52820    0.53796    0.87295    1.000
    P15      P        0.57053    0.39306    0.11767    1.000
    P16      P        0.70793    0.33443    0.72902    1.000
    O47      O        0.52080    0.30444    0.13831    1.000
    H15      H        0.66980    0.41160    0.18350    1.000
    H16      H        0.68160    0.25770    0.74700    1.000
    O48      O        0.85110    0.34012    0.72171    1.000
    Zn9      Zn       0.00000    0.26613    0.75000    1.000
    Zn10     Zn       0.50000    0.76613    0.75000    1.000
    Zn11     Zn       0.00000    0.73387    0.25000    1.000
    Zn12     Zn       0.50000    0.23387    0.25000    1.000
