data_functionalizedCrystal
_audit_creation_method	'EQeq! by Chris Wilmer'
_symmetry_space_group_name_H-M	'P1'
_symmetry_Int_Tables_number	1
_symmetry_cell_setting	triclinic
loop_
_symmetry_equiv_pos_as_xyz
  x,y,z
_cell_length_a	15.4191
_cell_length_b	15.4191
_cell_length_c	15.4191
_cell_angle_alpha	68.7691
_cell_angle_beta	73.9935
_cell_angle_gamma	111.231
loop_
_atom_site_label
_atom_site_type_symbol
_atom_site_fract_x
_atom_site_fract_y
_atom_site_fract_z
_atom_site_charge
Mof_Cu	Cu	0.55255	0.80695	0.10854	0.704
Mof_Cu	Cu	0.22598	0.93156	0.09752	0.801
Mof_Cu	Cu	0.58451	0.69305	0.2544	0.704
Mof_Cu	Cu	0.47092	0.56844	0.70558	0.802
Mof_Cu	Cu	0.2456	0.16109	0.94745	0.703
Mof_Cu	Cu	0.79442	0.8235	0.27402	0.802
Mof_Cu	Cu	0.39146	0.33891	0.91549	0.703
Mof_Cu	Cu	0.40248	0.6765	0.02908	0.801
Mof_Cu	Cu	0.44745	0.19305	0.89146	0.703
Mof_Cu	Cu	0.77402	0.06844	0.90248	0.8
Mof_Cu	Cu	0.41549	0.30695	0.7456	0.704
Mof_Cu	Cu	0.52908	0.43156	0.29442	0.802
Mof_Cu	Cu	0.7544	0.83891	0.05255	0.703
Mof_Cu	Cu	0.20558	0.1765	0.72598	0.802
Mof_Cu	Cu	0.60854	0.66109	0.08451	0.703
Mof_Cu	Cu	0.59752	0.3235	0.97092	0.801
Mof_H 	H 	0.2325	0.7041	0.0118	0.132
Mof_H 	H 	0.2438	0.8207	0.9591	0.165
Mof_H 	H 	0.1568	0.7302	0.0786	0.141
Mof_H 	H 	0.4626	0.9285	0.2033	0.178
Mof_H 	H 	0.3728	0.9576	0.2046	0.168
Mof_H 	H 	0.4855	0.0312	0.1023	0.184
Mof_H 	H 	0.7841	0.7959	0.4716	0.128
Mof_H 	H 	0.7202	0.6793	0.5769	0.156
Mof_H 	H 	0.6912	0.7698	0.5734	0.137
Mof_H 	H 	0.3682	0.5715	0.4659	0.174
Mof_H 	H 	0.3378	0.5424	0.5848	0.164
Mof_H 	H 	0.3665	0.4688	0.5457	0.175
Mof_H 	H 	0.0284	0.7443	0.2675	0.122
Mof_H 	H 	0.9231	0.7029	0.2562	0.152
Mof_H 	H 	0.9266	0.7354	0.3432	0.133
Mof_H 	H 	0.0341	0.1659	0.0374	0.172
Mof_H 	H 	0.9152	0.0774	0.1272	0.164
Mof_H 	H 	0.9543	0.0878	0.0145	0.177
Mof_H 	H 	0.4882	0.7557	0.7159	0.128
Mof_H 	H 	0.5409	0.7971	0.7798	0.157
Mof_H 	H 	0.4214	0.7646	0.8088	0.138
Mof_H 	H 	0.2967	0.3341	0.1318	0.174
Mof_H 	H 	0.2954	0.4226	0.1622	0.164
Mof_H 	H 	0.3977	0.4122	0.1335	0.175
Mof_H 	H 	0.7675	0.2959	0.9882	0.132
Mof_H 	H 	0.7562	0.1793	0.0409	0.165
Mof_H 	H 	0.8432	0.2698	0.9214	0.141
Mof_H 	H 	0.5374	0.0715	0.7967	0.178
Mof_H 	H 	0.6272	0.0424	0.7954	0.168
Mof_H 	H 	0.5145	0.9688	0.8977	0.184
Mof_H 	H 	0.2159	0.2041	0.5284	0.128
Mof_H 	H 	0.2798	0.3207	0.4231	0.156
Mof_H 	H 	0.3088	0.2302	0.4266	0.137
Mof_H 	H 	0.6318	0.4285	0.5341	0.174
Mof_H 	H 	0.6622	0.4576	0.4152	0.164
Mof_H 	H 	0.6335	0.5312	0.4543	0.175
Mof_H 	H 	0.9716	0.2557	0.7325	0.122
Mof_H 	H 	0.0769	0.2971	0.7438	0.152
Mof_H 	H 	0.0734	0.2646	0.6568	0.133
Mof_H 	H 	0.9659	0.8341	0.9626	0.172
Mof_H 	H 	0.0848	0.9226	0.8728	0.164
Mof_H 	H 	0.0457	0.9122	0.9855	0.177
Mof_H 	H 	0.5118	0.2443	0.2841	0.128
Mof_H 	H 	0.4591	0.2029	0.2202	0.157
Mof_H 	H 	0.5786	0.2354	0.1912	0.138
Mof_H 	H 	0.7033	0.6659	0.8682	0.174
Mof_H 	H 	0.7046	0.5774	0.8378	0.164
Mof_H 	H 	0.6023	0.5878	0.8665	0.175
Mof_C 	C 	0.3938	0.8868	0.118	0.22
Mof_C 	C 	0.3064	0.8017	0.0613	0.19
Mof_C 	C 	0.2281	0.7606	0.0245	-0.576
Mof_C 	C 	0.432	0.9571	0.1607	-0.632
Mof_C 	C 	0.4952	0.6132	0.493	0.217
Mof_C 	C 	0.637	0.6983	0.4953	0.186
Mof_C 	C 	0.7149	0.7394	0.5325	-0.558
Mof_C 	C 	0.3822	0.5429	0.5251	-0.615
Mof_C 	C 	0.007	0.0118	0.1062	0.217
Mof_C 	C 	0.0047	0.8677	0.1936	0.177
Mof_C 	C 	0.9675	0.7526	0.2719	-0.541
Mof_C 	C 	0.9749	0.0927	0.068	-0.611
Mof_C 	C 	0.382	0.4882	0.0048	0.216
Mof_C 	C 	0.4387	0.6323	0.863	0.187
Mof_C 	C 	0.4755	0.7474	0.7851	-0.558
Mof_C 	C 	0.3393	0.4073	0.1178	-0.614
Mof_C 	C 	0.6062	0.1132	0.882	0.22
Mof_C 	C 	0.6936	0.1983	0.9387	0.19
Mof_C 	C 	0.7719	0.2394	0.9755	-0.576
Mof_C 	C 	0.568	0.0429	0.8393	-0.632
Mof_C 	C 	0.5048	0.3868	0.507	0.217
Mof_C 	C 	0.363	0.3017	0.5047	0.186
Mof_C 	C 	0.2851	0.2606	0.4675	-0.558
Mof_C 	C 	0.6178	0.4571	0.4749	-0.615
Mof_C 	C 	0.993	0.9882	0.8938	0.217
Mof_C 	C 	0.9953	0.1323	0.8064	0.177
Mof_C 	C 	0.0325	0.2474	0.7281	-0.541
Mof_C 	C 	0.0251	0.9073	0.932	-0.611
Mof_C 	C 	0.618	0.5118	0.9952	0.216
Mof_C 	C 	0.5613	0.3677	0.137	0.187
Mof_C 	C 	0.5245	0.2526	0.2149	-0.558
Mof_C 	C 	0.6607	0.5927	0.8822	-0.614
Mof_I 	I 	0.41956	0.5791	0.24564	-0.805
Mof_I 	I 	0.67526	0.9209	0.15954	-0.807
Mof_I 	I 	0.34046	0.1652	0.08044	-0.8
Mof_I 	I 	0.25436	0.3348	0.82474	-0.804
Mof_I 	I 	0.58044	0.4209	0.75436	-0.805
Mof_I 	I 	0.32474	0.0791	0.84046	-0.807
Mof_I 	I 	0.65954	0.8348	0.91956	-0.8
Mof_I 	I 	0.74564	0.6652	0.17526	-0.804
Mof_N 	N 	0.4343	0.8276	0.1009	-0.261
Mof_N 	N 	0.3142	0.8731	0.0935	-0.332
Mof_N 	N 	0.3782	0.7735	0.0633	-0.278
Mof_N 	N 	0.5715	0.6724	0.3933	-0.26
Mof_N 	N 	0.5334	0.6269	0.5589	-0.33
Mof_N 	N 	0.6632	0.7265	0.3953	-0.276
Mof_N 	N 	0.1067	0.0352	0.0657	-0.257
Mof_N 	N 	0.9411	0.9077	0.1858	-0.329
Mof_N 	N 	0.1047	0.9415	0.1218	-0.278
Mof_N 	N 	0.3991	0.4648	0.9285	-0.26
Mof_N 	N 	0.4065	0.5923	0.9666	-0.329
Mof_N 	N 	0.4367	0.5585	0.8368	-0.276
Mof_N 	N 	0.5657	0.1724	0.8991	-0.261
Mof_N 	N 	0.6858	0.1269	0.9065	-0.332
Mof_N 	N 	0.6218	0.2265	0.9367	-0.278
Mof_N 	N 	0.4285	0.3276	0.6067	-0.26
Mof_N 	N 	0.4666	0.3731	0.4411	-0.33
Mof_N 	N 	0.3368	0.2735	0.6047	-0.276
Mof_N 	N 	0.8933	0.9648	0.9343	-0.257
Mof_N 	N 	0.0589	0.0923	0.8142	-0.329
Mof_N 	N 	0.8953	0.0585	0.8782	-0.278
Mof_N 	N 	0.6009	0.5352	0.0715	-0.26
Mof_N 	N 	0.5935	0.4077	0.0334	-0.329
Mof_N 	N 	0.5633	0.4415	0.1632	-0.276
_end
