# CIF file generated by openbabel 3.1.0, see https://openbabel.org
data_I
_chemical_name_common 'image0'
_cell_length_a 9.042
_cell_length_b 9.042
_cell_length_c 27.231
_cell_angle_alpha 90
_cell_angle_beta 90
_cell_angle_gamma 90
_space_group_name_H-M_alt 'P 1'
_space_group_name_Hall 'P 1'
loop_
    _symmetry_equiv_pos_as_xyz
    x,y,z
loop_
    _atom_site_label
    _atom_site_type_symbol
    _atom_site_fract_x
    _atom_site_fract_y
    _atom_site_fract_z
    _atom_site_occupancy
    Cd1      Cd       0.18552    0.38249    0.19968    1.000
    C1       C        0.48830    0.79750    0.30977    1.000
    H1       H        0.41660    0.82500    0.33250    1.000
    C2       C        0.52990    0.89170    0.27268    1.000
    C3       C        0.63800    0.85650    0.23874    1.000
    H2       H        0.66370    0.92240    0.21390    1.000
    C4       C        0.70700    0.72000    0.24278    1.000
    C5       C        0.66520    0.61910    0.27910    1.000
    H3       H        0.70960    0.52650    0.28090    1.000
    C6       C        0.55660    0.65940    0.31237    1.000
    C7       C        0.38680    0.09190    0.23068    1.000
    H4       H        0.37850    0.04680    0.20010    1.000
    C8       C        0.36560    0.24600    0.29024    1.000
    H5       H        0.33850    0.32900    0.30830    1.000
    C9       C        0.44670    0.13100    0.30748    1.000
    H6       H        0.48610    0.12050    0.33880    1.000
    C10      C        0.87800    0.54870    0.20016    1.000
    H7       H        0.83650    0.46090    0.21140    1.000
    C11      C        0.01960    0.70370    0.16429    1.000
    H8       H        0.09670    0.74280    0.14580    1.000
    C12      C        0.91480    0.78400    0.18694    1.000
    H9       H        0.90530    0.88640    0.18680    1.000
    C13      C        0.59720    0.44490    0.36811    1.000
    H10      H        0.69210    0.42140    0.35750    1.000
    C14      C        0.38310    0.55780    0.37602    1.000
    H11      H        0.30450    0.62320    0.37230    1.000
    C15      C        0.39140    0.44260    0.40782    1.000
    H12      H        0.31790    0.41530    0.42990    1.000
    N1       N        0.32990    0.22070    0.24207    1.000
    N2       N        0.45860    0.03420    0.26942    1.000
    N3       N        0.99660    0.55650    0.17231    1.000
    N4       N        0.82450    0.68430    0.21029    1.000
    N5       N        0.51480    0.55850    0.35023    1.000
    N6       N        0.52480    0.37290    0.40239    1.000
    Cd2      Cd       0.81448    0.61751    0.69968    1.000
    C16      C        0.51170    0.20250    0.80977    1.000
    H13      H        0.58340    0.17500    0.83250    1.000
    C17      C        0.47010    0.10830    0.77268    1.000
    C18      C        0.36200    0.14350    0.73874    1.000
    H14      H        0.33630    0.07760    0.71390    1.000
    C19      C        0.29300    0.28000    0.74278    1.000
    C20      C        0.33480    0.38090    0.77910    1.000
    H15      H        0.29040    0.47350    0.78090    1.000
    C21      C        0.44340    0.34060    0.81237    1.000
    C22      C        0.61320    0.90810    0.73068    1.000
    H16      H        0.62150    0.95320    0.70010    1.000
    C23      C        0.63440    0.75400    0.79024    1.000
    H17      H        0.66150    0.67100    0.80830    1.000
    C24      C        0.55330    0.86900    0.80748    1.000
    H18      H        0.51390    0.87950    0.83880    1.000
    C25      C        0.12200    0.45130    0.70016    1.000
    H19      H        0.16350    0.53910    0.71140    1.000
    C26      C        0.98040    0.29630    0.66429    1.000
    H20      H        0.90330    0.25720    0.64580    1.000
    C27      C        0.08520    0.21600    0.68694    1.000
    H21      H        0.09470    0.11360    0.68680    1.000
    C28      C        0.40280    0.55510    0.86811    1.000
    H22      H        0.30790    0.57860    0.85750    1.000
    C29      C        0.61690    0.44220    0.87602    1.000
    H23      H        0.69550    0.37680    0.87230    1.000
    C30      C        0.60860    0.55740    0.90782    1.000
    H24      H        0.68210    0.58470    0.92990    1.000
    N7       N        0.67010    0.77930    0.74207    1.000
    N8       N        0.54140    0.96580    0.76942    1.000
    N9       N        0.00340    0.44350    0.67231    1.000
    N10      N        0.17550    0.31570    0.71029    1.000
    N11      N        0.48520    0.44150    0.85023    1.000
    N12      N        0.47520    0.62710    0.90239    1.000
    Cd3      Cd       0.61751    0.18552    0.44968    1.000
    C31      C        0.20250    0.48830    0.55977    1.000
    H25      H        0.17500    0.41660    0.58250    1.000
    C32      C        0.10830    0.52990    0.52268    1.000
    C33      C        0.14350    0.63800    0.48874    1.000
    H26      H        0.07760    0.66370    0.46390    1.000
    C34      C        0.28000    0.70700    0.49278    1.000
    C35      C        0.38090    0.66520    0.52910    1.000
    H27      H        0.47350    0.70960    0.53090    1.000
    C36      C        0.34060    0.55660    0.56237    1.000
    C37      C        0.90810    0.38680    0.48068    1.000
    H28      H        0.95320    0.37850    0.45010    1.000
    C38      C        0.75400    0.36560    0.54024    1.000
    H29      H        0.67100    0.33850    0.55830    1.000
    C39      C        0.86900    0.44670    0.55748    1.000
    H30      H        0.87950    0.48610    0.58880    1.000
    C40      C        0.45130    0.87800    0.45016    1.000
    H31      H        0.53910    0.83650    0.46140    1.000
    C41      C        0.29630    0.01960    0.41429    1.000
    H32      H        0.25720    0.09670    0.39580    1.000
    C42      C        0.21600    0.91480    0.43694    1.000
    H33      H        0.11360    0.90530    0.43680    1.000
    C43      C        0.55510    0.59720    0.61811    1.000
    H34      H        0.57860    0.69210    0.60750    1.000
    C44      C        0.44220    0.38310    0.62602    1.000
    H35      H        0.37680    0.30450    0.62230    1.000
    C45      C        0.55740    0.39140    0.65782    1.000
    H36      H        0.58470    0.31790    0.67990    1.000
    N13      N        0.77930    0.32990    0.49207    1.000
    N14      N        0.96580    0.45860    0.51942    1.000
    N15      N        0.44350    0.99660    0.42231    1.000
    N16      N        0.31570    0.82450    0.46029    1.000
    N17      N        0.44150    0.51480    0.60023    1.000
    N18      N        0.62710    0.52480    0.65239    1.000
    Cd4      Cd       0.38249    0.81448    0.94968    1.000
    C46      C        0.79750    0.51170    0.05977    1.000
    H37      H        0.82500    0.58340    0.08250    1.000
    C47      C        0.89170    0.47010    0.02268    1.000
    C48      C        0.85650    0.36200    0.98874    1.000
    H38      H        0.92240    0.33630    0.96390    1.000
    C49      C        0.72000    0.29300    0.99278    1.000
    C50      C        0.61910    0.33480    0.02910    1.000
    H39      H        0.52650    0.29040    0.03090    1.000
    C51      C        0.65940    0.44340    0.06237    1.000
    C52      C        0.09190    0.61320    0.98068    1.000
    H40      H        0.04680    0.62150    0.95010    1.000
    C53      C        0.24600    0.63440    0.04024    1.000
    H41      H        0.32900    0.66150    0.05830    1.000
    C54      C        0.13100    0.55330    0.05748    1.000
    H42      H        0.12050    0.51390    0.08880    1.000
    C55      C        0.54870    0.12200    0.95016    1.000
    H43      H        0.46090    0.16350    0.96140    1.000
    C56      C        0.70370    0.98040    0.91429    1.000
    H44      H        0.74280    0.90330    0.89580    1.000
    C57      C        0.78400    0.08520    0.93694    1.000
    H45      H        0.88640    0.09470    0.93680    1.000
    C58      C        0.44490    0.40280    0.11811    1.000
    H46      H        0.42140    0.30790    0.10750    1.000
    C59      C        0.55780    0.61690    0.12602    1.000
    H47      H        0.62320    0.69550    0.12230    1.000
    C60      C        0.44260    0.60860    0.15782    1.000
    H48      H        0.41530    0.68210    0.17990    1.000
    N19      N        0.22070    0.67010    0.99207    1.000
    N20      N        0.03420    0.54140    0.01942    1.000
    N21      N        0.55650    0.00340    0.92231    1.000
    N22      N        0.68430    0.17550    0.96029    1.000
    N23      N        0.55850    0.48520    0.10023    1.000
    N24      N        0.37290    0.47520    0.15239    1.000
