# CIF file generated by openbabel 3.1.0, see https://openbabel.org
data_I
_chemical_name_common 'image0'
_cell_length_a 10.3149
_cell_length_b 10.3149
_cell_length_c 14.339
_cell_angle_alpha 90
_cell_angle_beta 90
_cell_angle_gamma 90
_space_group_name_H-M_alt 'P 1'
_space_group_name_Hall 'P 1'
loop_
    _symmetry_equiv_pos_as_xyz
    x,y,z
loop_
    _atom_site_label
    _atom_site_type_symbol
    _atom_site_fract_x
    _atom_site_fract_y
    _atom_site_fract_z
    _atom_site_occupancy
    O1       O        0.93020    0.32970    0.05950    1.000
    O2       O        0.92460    0.75030    0.24170    1.000
    O3       O        0.90010    0.92280    0.16100    1.000
    O4       O        0.69300    0.30400    0.08990    1.000
    H1       H        0.74250    0.37660    0.06150    1.000
    C1       C        0.92710    0.80670    0.16510    1.000
    C2       C        0.96450    0.59930    0.07990    1.000
    H2       H        0.93950    0.55360    0.13460    1.000
    C3       C        0.96540    0.73310    0.08020    1.000
    C4       C        0.57500    0.29700    0.03400    1.000
    H3       H        0.55620    0.20630    0.01760    1.000
    H4       H        0.58590    0.34780    0.97600    1.000
    C5       C        0.45800    0.35700    0.09600    1.000
    H5       H        0.37740    0.35370    0.06080    1.000
    H6       H        0.47830    0.44750    0.11220    1.000
    H7       H        0.44900    0.30660    0.15390    1.000
    O5       O        0.06980    0.67030    0.55950    1.000
    O6       O        0.07540    0.24970    0.74170    1.000
    O7       O        0.09990    0.07720    0.66100    1.000
    O8       O        0.30700    0.69600    0.58990    1.000
    H8       H        0.25750    0.62340    0.56150    1.000
    C6       C        0.07290    0.19330    0.66510    1.000
    C7       C        0.03550    0.40070    0.57990    1.000
    H9       H        0.06050    0.44640    0.63460    1.000
    C8       C        0.03460    0.26690    0.58020    1.000
    C9       C        0.42500    0.70300    0.53400    1.000
    H10      H        0.44380    0.79370    0.51760    1.000
    H11      H        0.41410    0.65220    0.47600    1.000
    C10      C        0.54200    0.64300    0.59600    1.000
    H12      H        0.62260    0.64630    0.56080    1.000
    H13      H        0.52170    0.55250    0.61220    1.000
    H14      H        0.55100    0.69340    0.65390    1.000
    O9       O        0.67030    0.93020    0.30950    1.000
    O10      O        0.24970    0.92460    0.49170    1.000
    O11      O        0.07720    0.90010    0.41100    1.000
    O12      O        0.69600    0.69300    0.33990    1.000
    H15      H        0.62340    0.74250    0.31150    1.000
    C11      C        0.19330    0.92710    0.41510    1.000
    C12      C        0.40070    0.96450    0.32990    1.000
    H16      H        0.44640    0.93950    0.38460    1.000
    C13      C        0.26690    0.96540    0.33020    1.000
    C14      C        0.70300    0.57500    0.28400    1.000
    H17      H        0.79370    0.55620    0.26760    1.000
    H18      H        0.65220    0.58590    0.22600    1.000
    C15      C        0.64300    0.45800    0.34600    1.000
    H19      H        0.64630    0.37740    0.31080    1.000
    H20      H        0.55250    0.47830    0.36220    1.000
    H21      H        0.69340    0.44900    0.40390    1.000
    O13      O        0.32970    0.06980    0.80950    1.000
    O14      O        0.75030    0.07540    0.99170    1.000
    O15      O        0.92280    0.09990    0.91100    1.000
    O16      O        0.30400    0.30700    0.83990    1.000
    H22      H        0.37660    0.25750    0.81150    1.000
    C16      C        0.80670    0.07290    0.91510    1.000
    C17      C        0.59930    0.03550    0.82990    1.000
    H23      H        0.55360    0.06050    0.88460    1.000
    C18      C        0.73310    0.03460    0.83020    1.000
    C19      C        0.29700    0.42500    0.78400    1.000
    H24      H        0.20630    0.44380    0.76760    1.000
    H25      H        0.34780    0.41410    0.72600    1.000
    C20      C        0.35700    0.54200    0.84600    1.000
    H26      H        0.35370    0.62260    0.81080    1.000
    H27      H        0.44750    0.52170    0.86220    1.000
    H28      H        0.30660    0.55100    0.90390    1.000
    O17      O        0.06980    0.32970    0.94050    1.000
    O18      O        0.07540    0.75030    0.75830    1.000
    O19      O        0.09990    0.92280    0.83900    1.000
    O20      O        0.30700    0.30400    0.91010    1.000
    H29      H        0.25750    0.37660    0.93850    1.000
    C21      C        0.07290    0.80670    0.83490    1.000
    C22      C        0.03550    0.59930    0.92010    1.000
    H30      H        0.06050    0.55360    0.86540    1.000
    C23      C        0.03460    0.73310    0.91980    1.000
    C24      C        0.42500    0.29700    0.96600    1.000
    H31      H        0.44380    0.20630    0.98240    1.000
    H32      H        0.41410    0.34780    0.02400    1.000
    C25      C        0.54200    0.35700    0.90400    1.000
    H33      H        0.62260    0.35370    0.93920    1.000
    H34      H        0.52170    0.44750    0.88780    1.000
    H35      H        0.55100    0.30660    0.84610    1.000
    O21      O        0.93020    0.67030    0.44050    1.000
    O22      O        0.92460    0.24970    0.25830    1.000
    O23      O        0.90010    0.07720    0.33900    1.000
    O24      O        0.69300    0.69600    0.41010    1.000
    H36      H        0.74250    0.62340    0.43850    1.000
    C26      C        0.92710    0.19330    0.33490    1.000
    C27      C        0.96450    0.40070    0.42010    1.000
    H37      H        0.93950    0.44640    0.36540    1.000
    C28      C        0.96540    0.26690    0.41980    1.000
    C29      C        0.57500    0.70300    0.46600    1.000
    H38      H        0.55620    0.79370    0.48240    1.000
    H39      H        0.58590    0.65220    0.52400    1.000
    C30      C        0.45800    0.64300    0.40400    1.000
    H40      H        0.37740    0.64630    0.43920    1.000
    H41      H        0.47830    0.55250    0.38780    1.000
    H42      H        0.44900    0.69340    0.34610    1.000
    O25      O        0.32970    0.93020    0.69050    1.000
    O26      O        0.75030    0.92460    0.50830    1.000
    O27      O        0.92280    0.90010    0.58900    1.000
    O28      O        0.30400    0.69300    0.66010    1.000
    H43      H        0.37660    0.74250    0.68850    1.000
    C31      C        0.80670    0.92710    0.58490    1.000
    C32      C        0.59930    0.96450    0.67010    1.000
    H44      H        0.55360    0.93950    0.61540    1.000
    C33      C        0.73310    0.96540    0.66980    1.000
    C34      C        0.29700    0.57500    0.71600    1.000
    H45      H        0.20630    0.55620    0.73240    1.000
    H46      H        0.34780    0.58590    0.77400    1.000
    C35      C        0.35700    0.45800    0.65400    1.000
    H47      H        0.35370    0.37740    0.68920    1.000
    H48      H        0.44750    0.47830    0.63780    1.000
    H49      H        0.30660    0.44900    0.59610    1.000
    O29      O        0.67030    0.06980    0.19050    1.000
    O30      O        0.24970    0.07540    0.00830    1.000
    O31      O        0.07720    0.09990    0.08900    1.000
    O32      O        0.69600    0.30700    0.16010    1.000
    H50      H        0.62340    0.25750    0.18850    1.000
    C36      C        0.19330    0.07290    0.08490    1.000
    C37      C        0.40070    0.03550    0.17010    1.000
    H51      H        0.44640    0.06050    0.11540    1.000
    C38      C        0.26690    0.03460    0.16980    1.000
    C39      C        0.70300    0.42500    0.21600    1.000
    H52      H        0.79370    0.44380    0.23240    1.000
    H53      H        0.65220    0.41410    0.27400    1.000
    C40      C        0.64300    0.54200    0.15400    1.000
    H54      H        0.64630    0.62260    0.18920    1.000
    H55      H        0.55250    0.52170    0.13780    1.000
    H56      H        0.69340    0.55100    0.09610    1.000
    Gd1      Gd       0.85983    0.14017    0.12500    1.000
    Gd2      Gd       0.14017    0.85983    0.62500    1.000
    Gd3      Gd       0.85983    0.85983    0.37500    1.000
    Gd4      Gd       0.14017    0.14017    0.87500    1.000
    C41      C        0.00000    0.38650    0.00000    1.000
    C42      C        0.00000    0.53030    0.00000    1.000
    C43      C        0.00000    0.79700    0.00000    1.000
    H57      H        0.00000    0.88910    0.00000    1.000
    C44      C        0.00000    0.61350    0.50000    1.000
    C45      C        0.00000    0.46970    0.50000    1.000
    C46      C        0.00000    0.20300    0.50000    1.000
    H58      H        0.00000    0.11090    0.50000    1.000
    C47      C        0.61350    0.00000    0.25000    1.000
    C48      C        0.46970    0.00000    0.25000    1.000
    C49      C        0.20300    0.00000    0.25000    1.000
    H59      H        0.11090    0.00000    0.25000    1.000
    C50      C        0.38650    0.00000    0.75000    1.000
    C51      C        0.53030    0.00000    0.75000    1.000
    C52      C        0.79700    0.00000    0.75000    1.000
    H60      H        0.88910    0.00000    0.75000    1.000
