data_functionalizedCrystal
_audit_creation_method	'EQeq! by Chris Wilmer'
_symmetry_space_group_name_H-M	'P1'
_symmetry_Int_Tables_number	1
_symmetry_cell_setting	triclinic
loop_
_symmetry_equiv_pos_as_xyz
  x,y,z
_cell_length_a	23.9011
_cell_length_b	34.6395
_cell_length_c	13.4553
_cell_angle_alpha	90
_cell_angle_beta	90
_cell_angle_gamma	90
loop_
_atom_site_label
_atom_site_type_symbol
_atom_site_fract_x
_atom_site_fract_y
_atom_site_fract_z
_atom_site_charge
Mof_C 	C 	0.30508	0.43955	0.57735	0.024
Mof_H 	H 	0.3282	0.4543	0.5369	0.013
Mof_C 	C 	0.31341	0.43417	0.68109	-0.038
Mof_H 	H 	0.3421	0.4445	0.7197	0.043
Mof_C 	C 	0.27112	0.41096	0.71251	-0.102
Mof_H 	H 	0.2654	0.4023	0.7771	0.07
Mof_C 	C 	0.23725	0.40237	0.62866	0.099
Mof_C 	C 	0.18937	0.37874	0.626	-0.119
Mof_C 	C 	0.15852	0.36849	0.54353	0.097
Mof_C 	C 	0.10821	0.34586	0.54009	-0.085
Mof_H 	H 	0.09	0.335	0.5943	0.07
Mof_C 	C 	0.09187	0.34319	0.44249	-0.057
Mof_H 	H 	0.061	0.33	0.4175	0.078
Mof_C 	C 	0.13185	0.36466	0.38799	0.038
Mof_H 	H 	0.1306	0.368	0.3194	0.007
Mof_C 	C 	0.16924	0.36375	0.72374	0.052
Mof_C 	C 	0.15393	0.38926	0.79938	-0.059
Mof_H 	H 	0.1569	0.4157	0.7886	0.053
Mof_C 	C 	0.13437	0.37606	0.89021	-0.088
Mof_H 	H 	0.124	0.3934	0.9398	0.067
Mof_C 	C 	0.13055	0.33646	0.90581	0.095
Mof_C 	C 	0.14551	0.31032	0.83199	-0.089
Mof_H 	H 	0.1429	0.2839	0.8433	0.069
Mof_C 	C 	0.16438	0.3243	0.74098	-0.061
Mof_H 	H 	0.1739	0.307	0.6909	0.056
Mof_C 	C 	0.11564	0.33867	0.09222	-0.011
Mof_H 	H 	0.1341	0.3614	0.1084	0.037
Mof_C 	C 	0.08867	0.3147	0.1543	0.015
Mof_H 	H 	0.0859	0.3183	0.2226	0.043
Mof_C 	C 	0.07961	0.28934	0.01031	0.076
Mof_H 	H 	0.0698	0.2727	0.9589	0.034
Mof_C 	C 	0.17746	0.14255	0.92087	0.045
Mof_H 	H 	0.1768	0.139	0.9894	0.01
Mof_C 	C 	0.14389	0.17003	0.8713	-0.056
Mof_H 	H 	0.1185	0.1872	0.8996	0.072
Mof_C 	C 	0.15681	0.16592	0.7725	-0.086
Mof_H 	H 	0.1417	0.1799	0.72	0.07
Mof_C 	C 	0.19784	0.13619	0.76575	0.096
Mof_C 	C 	0.22218	0.12172	0.6788	-0.113
Mof_C 	C 	0.26636	0.09484	0.67296	0.094
Mof_C 	C 	0.28794	0.07792	0.58439	-0.096
Mof_H 	H 	0.2748	0.0818	0.5201	0.066
Mof_C 	C 	0.33183	0.05474	0.61195	-0.049
Mof_H 	H 	0.3544	0.04	0.5705	0.043
Mof_C 	C 	0.33555	0.05792	0.71565	0.032
Mof_H 	H 	0.3623	0.0452	0.7537	0.01
Mof_C 	C 	0.19955	0.13565	0.58249	0.051
Mof_C 	C 	0.14439	0.12826	0.5566	-0.056
Mof_H 	H 	0.1211	0.1155	0.6013	0.054
Mof_C 	C 	0.12341	0.13969	0.4643	-0.095
Mof_H 	H 	0.087	0.1336	0.4459	0.069
Mof_C 	C 	0.15752	0.16	0.40145	0.103
Mof_C 	C 	0.21213	0.16787	0.4253	-0.094
Mof_H 	H 	0.235	0.1812	0.381	0.071
Mof_C 	C 	0.23273	0.15575	0.51599	-0.057
Mof_H 	H 	0.2696	0.1612	0.5327	0.057
Mof_C 	C 	0.16186	0.17813	0.21897	0.001
Mof_H 	H 	0.1986	0.1716	0.2039	0.033
Mof_C 	C 	0.12366	0.19393	0.1578	0.011
Mof_H 	H 	0.1301	0.2002	0.0916	0.037
Mof_C 	C 	0.08252	0.18768	0.29799	0.104
Mof_H 	H 	0.0562	0.1888	0.3488	0.015
Mof_C 	C 	0.12484	0.46583	0.46879	0.093
Mof_H 	H 	0.1067	0.4424	0.4795	-0.008
Mof_C 	C 	0.33217	0.4663	0.3165	0.1
Mof_H 	H 	0.3493	0.4429	0.301	-0.011
Mof_N 	N 	0.25978	0.42073	0.54551	-0.236
Mof_N 	N 	0.17143	0.37951	0.4462	-0.246
Mof_N 	N 	0.11003	0.32214	0.9985	-0.127
Mof_N 	N 	0.06584	0.28421	0.10382	-0.128
Mof_N 	N 	0.20971	0.12244	0.86118	-0.244
Mof_N 	N 	0.29686	0.08106	0.75368	-0.234
Mof_N 	N 	0.13479	0.1737	0.309	-0.137
Mof_N 	N 	0.0734	0.19955	0.20702	-0.134
Mof_N 	N 	0.28163	0.46578	0.35992	-0.231
Mof_N 	N 	0.17763	0.46591	0.43608	-0.228
Mof_Ni	Ni	0.23096	0.41706	0.40097	1.066
Mof_C 	C 	0.80508	0.93955	0.07735	0.025
Mof_H 	H 	0.8282	0.9543	0.0369	0.012
Mof_C 	C 	0.81341	0.93417	0.18109	-0.038
Mof_H 	H 	0.8421	0.9445	0.2197	0.043
Mof_C 	C 	0.77112	0.91096	0.21251	-0.101
Mof_H 	H 	0.7654	0.9023	0.2771	0.07
Mof_C 	C 	0.73725	0.90237	0.12866	0.099
Mof_C 	C 	0.68937	0.87874	0.126	-0.118
Mof_C 	C 	0.65852	0.86849	0.04353	0.097
Mof_C 	C 	0.60821	0.84586	0.04009	-0.093
Mof_H 	H 	0.59	0.835	0.0943	0.072
Mof_C 	C 	0.59187	0.84319	0.94249	-0.048
Mof_H 	H 	0.561	0.83	0.9175	0.074
Mof_C 	C 	0.63185	0.86466	0.88799	0.035
Mof_H 	H 	0.6306	0.868	0.8194	0.008
Mof_C 	C 	0.66924	0.86375	0.22374	0.052
Mof_C 	C 	0.65393	0.88926	0.29938	-0.06
Mof_H 	H 	0.6569	0.9157	0.2886	0.052
Mof_C 	C 	0.63437	0.87606	0.39021	-0.09
Mof_H 	H 	0.624	0.8934	0.4398	0.065
Mof_C 	C 	0.63055	0.83646	0.40581	0.095
Mof_C 	C 	0.64551	0.81032	0.33199	-0.09
Mof_H 	H 	0.6429	0.7839	0.3433	0.068
Mof_C 	C 	0.66438	0.8243	0.24098	-0.061
Mof_H 	H 	0.6739	0.807	0.1909	0.055
Mof_C 	C 	0.61564	0.83867	0.59222	-0.005
Mof_H 	H 	0.6341	0.8614	0.6084	0.036
Mof_C 	C 	0.58867	0.8147	0.6543	0.012
Mof_H 	H 	0.5859	0.8183	0.7226	0.044
Mof_C 	C 	0.57961	0.78934	0.51031	0.091
Mof_H 	H 	0.5698	0.7727	0.4589	0.024
Mof_C 	C 	0.67746	0.64255	0.42087	0.044
Mof_H 	H 	0.6768	0.639	0.4894	0.008
Mof_C 	C 	0.64389	0.67003	0.3713	-0.056
Mof_H 	H 	0.6185	0.6872	0.3996	0.07
Mof_C 	C 	0.65681	0.66592	0.2725	-0.087
Mof_H 	H 	0.6417	0.6799	0.22	0.07
Mof_C 	C 	0.69784	0.63619	0.26575	0.097
Mof_C 	C 	0.72218	0.62172	0.1788	-0.118
Mof_C 	C 	0.76636	0.59484	0.17296	0.096
Mof_C 	C 	0.78794	0.57792	0.08439	-0.098
Mof_H 	H 	0.7748	0.5818	0.0201	0.065
Mof_C 	C 	0.83183	0.55474	0.11195	-0.049
Mof_H 	H 	0.8544	0.54	0.0705	0.041
Mof_C 	C 	0.83555	0.55792	0.21565	0.031
Mof_H 	H 	0.8623	0.5452	0.2537	0.009
Mof_C 	C 	0.69955	0.63565	0.08249	0.063
Mof_C 	C 	0.64439	0.62826	0.0566	-0.075
Mof_H 	H 	0.6211	0.6155	0.1013	0.059
Mof_C 	C 	0.62341	0.63969	0.9643	-0.075
Mof_H 	H 	0.587	0.6336	0.9459	0.063
Mof_C 	C 	0.65752	0.66	0.90145	0.091
Mof_C 	C 	0.71213	0.66787	0.9253	-0.074
Mof_H 	H 	0.735	0.6812	0.881	0.065
Mof_C 	C 	0.73273	0.65575	0.01599	-0.077
Mof_H 	H 	0.7696	0.6612	0.0327	0.063
Mof_C 	C 	0.66186	0.67813	0.71897	0.001
Mof_H 	H 	0.6986	0.6716	0.7039	0.034
Mof_C 	C 	0.62366	0.69393	0.6578	0.011
Mof_H 	H 	0.6301	0.7002	0.5916	0.038
Mof_C 	C 	0.58252	0.68768	0.79799	0.103
Mof_H 	H 	0.5562	0.6888	0.8488	0.015
Mof_C 	C 	0.62484	0.96583	0.96879	0.085
Mof_H 	H 	0.6067	0.9424	0.9795	-0.005
Mof_C 	C 	0.83217	0.9663	0.8165	0.099
Mof_H 	H 	0.8493	0.9429	0.801	-0.011
Mof_N 	N 	0.75978	0.92073	0.04551	-0.237
Mof_N 	N 	0.67143	0.87951	0.9462	-0.243
Mof_N 	N 	0.61003	0.82214	0.4985	-0.135
Mof_N 	N 	0.56584	0.78421	0.60382	-0.13
Mof_N 	N 	0.70971	0.62244	0.36118	-0.245
Mof_N 	N 	0.79686	0.58106	0.25368	-0.234
Mof_N 	N 	0.63479	0.6737	0.809	-0.135
Mof_N 	N 	0.5734	0.69955	0.70702	-0.134
Mof_N 	N 	0.78163	0.96578	0.85992	-0.231
Mof_N 	N 	0.67763	0.96591	0.93608	-0.227
Mof_Ni	Ni	0.73096	0.91706	0.90097	1.067
Mof_C 	C 	0.69492	0.56045	0.57735	0.025
Mof_H 	H 	0.6718	0.5457	0.5369	0.014
Mof_C 	C 	0.68659	0.56583	0.68109	-0.037
Mof_H 	H 	0.6579	0.5555	0.7197	0.044
Mof_C 	C 	0.72888	0.58904	0.71251	-0.101
Mof_H 	H 	0.7346	0.5977	0.7771	0.071
Mof_C 	C 	0.76275	0.59763	0.62866	0.1
Mof_C 	C 	0.81063	0.62126	0.626	-0.118
Mof_C 	C 	0.84148	0.63151	0.54353	0.098
Mof_C 	C 	0.89179	0.65414	0.54009	-0.085
Mof_H 	H 	0.91	0.665	0.5943	0.069
Mof_C 	C 	0.90813	0.65681	0.44249	-0.057
Mof_H 	H 	0.939	0.67	0.4175	0.074
Mof_C 	C 	0.86815	0.63534	0.38799	0.037
Mof_H 	H 	0.8694	0.632	0.3194	0.006
Mof_C 	C 	0.83076	0.63625	0.72374	0.052
Mof_C 	C 	0.84607	0.61074	0.79938	-0.06
Mof_H 	H 	0.8431	0.5843	0.7886	0.052
Mof_C 	C 	0.86563	0.62394	0.89021	-0.089
Mof_H 	H 	0.876	0.6066	0.9398	0.065
Mof_C 	C 	0.86945	0.66354	0.90581	0.094
Mof_C 	C 	0.85449	0.68968	0.83199	-0.089
Mof_H 	H 	0.8571	0.7161	0.8433	0.068
Mof_C 	C 	0.83562	0.6757	0.74098	-0.062
Mof_H 	H 	0.8261	0.693	0.6909	0.055
Mof_C 	C 	0.88436	0.66133	0.09222	-0.011
Mof_H 	H 	0.8659	0.6386	0.1084	0.037
Mof_C 	C 	0.91133	0.6853	0.1543	0.013
Mof_H 	H 	0.9141	0.6817	0.2226	0.042
Mof_C 	C 	0.92039	0.71066	0.01031	0.078
Mof_H 	H 	0.9302	0.7273	0.9589	0.029
Mof_C 	C 	0.82254	0.85745	0.92087	0.044
Mof_H 	H 	0.8232	0.861	0.9894	0.01
Mof_C 	C 	0.85611	0.82997	0.8713	-0.056
Mof_H 	H 	0.8815	0.8128	0.8996	0.07
Mof_C 	C 	0.84319	0.83408	0.7725	-0.086
Mof_H 	H 	0.8583	0.8201	0.72	0.069
Mof_C 	C 	0.80216	0.86381	0.76575	0.096
Mof_C 	C 	0.77782	0.87828	0.6788	-0.113
Mof_C 	C 	0.73364	0.90516	0.67296	0.094
Mof_C 	C 	0.71206	0.92208	0.58439	-0.096
Mof_H 	H 	0.7252	0.9182	0.5201	0.066
Mof_C 	C 	0.66817	0.94526	0.61195	-0.049
Mof_H 	H 	0.6456	0.96	0.5705	0.043
Mof_C 	C 	0.66445	0.94208	0.71565	0.031
Mof_H 	H 	0.6377	0.9548	0.7537	0.01
Mof_C 	C 	0.80045	0.86435	0.58249	0.051
Mof_C 	C 	0.85561	0.87174	0.5566	-0.056
Mof_H 	H 	0.8789	0.8845	0.6013	0.053
Mof_C 	C 	0.87659	0.86031	0.4643	-0.095
Mof_H 	H 	0.913	0.8664	0.4459	0.066
Mof_C 	C 	0.84248	0.84	0.40145	0.102
Mof_C 	C 	0.78787	0.83213	0.4253	-0.094
Mof_H 	H 	0.765	0.8188	0.381	0.071
Mof_C 	C 	0.76727	0.84425	0.51599	-0.057
Mof_H 	H 	0.7304	0.8388	0.5327	0.057
Mof_C 	C 	0.83814	0.82187	0.21897	0.001
Mof_H 	H 	0.8014	0.8284	0.2039	0.033
Mof_C 	C 	0.87634	0.80607	0.1578	0.011
Mof_H 	H 	0.8699	0.7998	0.0916	0.036
Mof_C 	C 	0.91748	0.81232	0.29799	0.103
Mof_H 	H 	0.9438	0.8112	0.3488	0.012
Mof_C 	C 	0.87516	0.53417	0.46879	0.092
Mof_H 	H 	0.8933	0.5576	0.4795	-0.009
Mof_C 	C 	0.66783	0.5337	0.3165	0.1
Mof_H 	H 	0.6507	0.5571	0.301	-0.011
Mof_N 	N 	0.74022	0.57927	0.54551	-0.236
Mof_N 	N 	0.82857	0.62049	0.4462	-0.246
Mof_N 	N 	0.88997	0.67786	0.9985	-0.128
Mof_N 	N 	0.93416	0.71579	0.10382	-0.131
Mof_N 	N 	0.79029	0.87756	0.86118	-0.244
Mof_N 	N 	0.70314	0.91894	0.75368	-0.234
Mof_N 	N 	0.86521	0.8263	0.309	-0.137
Mof_N 	N 	0.9266	0.80045	0.20702	-0.137
Mof_N 	N 	0.71837	0.53422	0.35992	-0.231
Mof_N 	N 	0.82237	0.53409	0.43608	-0.228
Mof_Ni	Ni	0.76904	0.58294	0.40097	1.066
Mof_C 	C 	0.19492	0.06045	0.07735	0.025
Mof_H 	H 	0.1718	0.0457	0.0369	0.012
Mof_C 	C 	0.18659	0.06583	0.18109	-0.038
Mof_H 	H 	0.1579	0.0555	0.2197	0.044
Mof_C 	C 	0.22888	0.08904	0.21251	-0.101
Mof_H 	H 	0.2346	0.0977	0.2771	0.07
Mof_C 	C 	0.26275	0.09763	0.12866	0.098
Mof_C 	C 	0.31063	0.12126	0.126	-0.118
Mof_C 	C 	0.34148	0.13151	0.04353	0.096
Mof_C 	C 	0.39179	0.15414	0.04009	-0.094
Mof_H 	H 	0.41	0.165	0.0943	0.072
Mof_C 	C 	0.40813	0.15681	0.94249	-0.047
Mof_H 	H 	0.439	0.17	0.9175	0.074
Mof_C 	C 	0.36815	0.13534	0.88799	0.035
Mof_H 	H 	0.3694	0.132	0.8194	0.008
Mof_C 	C 	0.33076	0.13625	0.22374	0.052
Mof_C 	C 	0.34607	0.11074	0.29938	-0.06
Mof_H 	H 	0.3431	0.0843	0.2886	0.052
Mof_C 	C 	0.36563	0.12394	0.39021	-0.09
Mof_H 	H 	0.376	0.1066	0.4398	0.065
Mof_C 	C 	0.36945	0.16354	0.40581	0.095
Mof_C 	C 	0.35449	0.18968	0.33199	-0.09
Mof_H 	H 	0.3571	0.2161	0.3433	0.068
Mof_C 	C 	0.33562	0.1757	0.24098	-0.061
Mof_H 	H 	0.3261	0.193	0.1909	0.055
Mof_C 	C 	0.38436	0.16133	0.59222	-0.005
Mof_H 	H 	0.3659	0.1386	0.6084	0.036
Mof_C 	C 	0.41133	0.1853	0.6543	0.012
Mof_H 	H 	0.4141	0.1817	0.7226	0.044
Mof_C 	C 	0.42039	0.21066	0.51031	0.091
Mof_H 	H 	0.4302	0.2273	0.4589	0.024
Mof_C 	C 	0.32254	0.35745	0.42087	0.044
Mof_H 	H 	0.3232	0.361	0.4894	0.008
Mof_C 	C 	0.35611	0.32997	0.3713	-0.056
Mof_H 	H 	0.3815	0.3128	0.3996	0.07
Mof_C 	C 	0.34319	0.33408	0.2725	-0.087
Mof_H 	H 	0.3583	0.3201	0.22	0.07
Mof_C 	C 	0.30216	0.36381	0.26575	0.098
Mof_C 	C 	0.27782	0.37828	0.1788	-0.118
Mof_C 	C 	0.23364	0.40516	0.17296	0.096
Mof_C 	C 	0.21206	0.42208	0.08439	-0.098
Mof_H 	H 	0.2252	0.4182	0.0201	0.065
Mof_C 	C 	0.16817	0.44526	0.11195	-0.049
Mof_H 	H 	0.1456	0.46	0.0705	0.042
Mof_C 	C 	0.16445	0.44208	0.21565	0.031
Mof_H 	H 	0.1377	0.4548	0.2537	0.01
Mof_C 	C 	0.30045	0.36435	0.08249	0.064
Mof_C 	C 	0.35561	0.37174	0.0566	-0.077
Mof_H 	H 	0.3789	0.3845	0.1013	0.059
Mof_C 	C 	0.37659	0.36031	0.9643	-0.074
Mof_H 	H 	0.413	0.3664	0.9459	0.062
Mof_C 	C 	0.34248	0.34	0.90145	0.09
Mof_C 	C 	0.28787	0.33213	0.9253	-0.072
Mof_H 	H 	0.265	0.3188	0.881	0.065
Mof_C 	C 	0.26727	0.34425	0.01599	-0.079
Mof_H 	H 	0.2304	0.3388	0.0327	0.063
Mof_C 	C 	0.33814	0.32187	0.71897	0.001
Mof_H 	H 	0.3014	0.3284	0.7039	0.034
Mof_C 	C 	0.37634	0.30607	0.6578	0.011
Mof_H 	H 	0.3699	0.2998	0.5916	0.038
Mof_C 	C 	0.41748	0.31232	0.79799	0.103
Mof_H 	H 	0.4438	0.3112	0.8488	0.015
Mof_C 	C 	0.37516	0.03417	0.96879	0.086
Mof_H 	H 	0.3933	0.0576	0.9795	-0.005
Mof_C 	C 	0.16783	0.0337	0.8165	0.1
Mof_H 	H 	0.1507	0.0571	0.801	-0.01
Mof_N 	N 	0.24022	0.07927	0.04551	-0.238
Mof_N 	N 	0.32857	0.12049	0.9462	-0.243
Mof_N 	N 	0.38997	0.17786	0.4985	-0.135
Mof_N 	N 	0.43416	0.21579	0.60382	-0.13
Mof_N 	N 	0.29029	0.37756	0.36118	-0.245
Mof_N 	N 	0.20314	0.41894	0.25368	-0.234
Mof_N 	N 	0.36521	0.3263	0.809	-0.135
Mof_N 	N 	0.4266	0.30045	0.70702	-0.134
Mof_N 	N 	0.21837	0.03422	0.85992	-0.231
Mof_N 	N 	0.32237	0.03409	0.93608	-0.227
Mof_Ni	Ni	0.26904	0.08294	0.90097	1.067
Mof_C 	C 	0.30508	0.56045	0.57735	0.025
Mof_H 	H 	0.3282	0.5457	0.5369	0.014
Mof_C 	C 	0.31341	0.56583	0.68109	-0.037
Mof_H 	H 	0.3421	0.5555	0.7197	0.044
Mof_C 	C 	0.27112	0.58904	0.71251	-0.101
Mof_H 	H 	0.2654	0.5977	0.7771	0.071
Mof_C 	C 	0.23725	0.59763	0.62866	0.1
Mof_C 	C 	0.18937	0.62126	0.626	-0.118
Mof_C 	C 	0.15852	0.63151	0.54353	0.098
Mof_C 	C 	0.10821	0.65414	0.54009	-0.084
Mof_H 	H 	0.09	0.665	0.5943	0.071
Mof_C 	C 	0.09187	0.65681	0.44249	-0.057
Mof_H 	H 	0.061	0.67	0.4175	0.078
Mof_C 	C 	0.13185	0.63534	0.38799	0.038
Mof_H 	H 	0.1306	0.632	0.3194	0.007
Mof_C 	C 	0.16924	0.63625	0.72374	0.052
Mof_C 	C 	0.15393	0.61074	0.79938	-0.059
Mof_H 	H 	0.1569	0.5843	0.7886	0.053
Mof_C 	C 	0.13437	0.62394	0.89021	-0.088
Mof_H 	H 	0.124	0.6066	0.9398	0.067
Mof_C 	C 	0.13055	0.66354	0.90581	0.095
Mof_C 	C 	0.14551	0.68968	0.83199	-0.089
Mof_H 	H 	0.1429	0.7161	0.8433	0.069
Mof_C 	C 	0.16438	0.6757	0.74098	-0.061
Mof_H 	H 	0.1739	0.693	0.6909	0.056
Mof_C 	C 	0.11564	0.66133	0.09222	-0.011
Mof_H 	H 	0.1341	0.6386	0.1084	0.037
Mof_C 	C 	0.08867	0.6853	0.1543	0.015
Mof_H 	H 	0.0859	0.6817	0.2226	0.043
Mof_C 	C 	0.07961	0.71066	0.01031	0.076
Mof_H 	H 	0.0698	0.7273	0.9589	0.033
Mof_C 	C 	0.17746	0.85745	0.92087	0.045
Mof_H 	H 	0.1768	0.861	0.9894	0.01
Mof_C 	C 	0.14389	0.82997	0.8713	-0.056
Mof_H 	H 	0.1185	0.8128	0.8996	0.071
Mof_C 	C 	0.15681	0.83408	0.7725	-0.086
Mof_H 	H 	0.1417	0.8201	0.72	0.07
Mof_C 	C 	0.19784	0.86381	0.76575	0.096
Mof_C 	C 	0.22218	0.87828	0.6788	-0.113
Mof_C 	C 	0.26636	0.90516	0.67296	0.094
Mof_C 	C 	0.28794	0.92208	0.58439	-0.096
Mof_H 	H 	0.2748	0.9182	0.5201	0.066
Mof_C 	C 	0.33183	0.94526	0.61195	-0.049
Mof_H 	H 	0.3544	0.96	0.5705	0.043
Mof_C 	C 	0.33555	0.94208	0.71565	0.032
Mof_H 	H 	0.3623	0.9548	0.7537	0.01
Mof_C 	C 	0.19955	0.86435	0.58249	0.051
Mof_C 	C 	0.14439	0.87174	0.5566	-0.056
Mof_H 	H 	0.1211	0.8845	0.6013	0.054
Mof_C 	C 	0.12341	0.86031	0.4643	-0.095
Mof_H 	H 	0.087	0.8664	0.4459	0.069
Mof_C 	C 	0.15752	0.84	0.40145	0.103
Mof_C 	C 	0.21213	0.83213	0.4253	-0.094
Mof_H 	H 	0.235	0.8188	0.381	0.071
Mof_C 	C 	0.23273	0.84425	0.51599	-0.057
Mof_H 	H 	0.2696	0.8388	0.5327	0.057
Mof_C 	C 	0.16186	0.82187	0.21897	0.001
Mof_H 	H 	0.1986	0.8284	0.2039	0.033
Mof_C 	C 	0.12366	0.80607	0.1578	0.011
Mof_H 	H 	0.1301	0.7998	0.0916	0.037
Mof_C 	C 	0.08252	0.81232	0.29799	0.104
Mof_H 	H 	0.0562	0.8112	0.3488	0.015
Mof_C 	C 	0.12484	0.53417	0.46879	0.093
Mof_H 	H 	0.1067	0.5576	0.4795	-0.008
Mof_C 	C 	0.33217	0.5337	0.3165	0.1
Mof_H 	H 	0.3493	0.5571	0.301	-0.011
Mof_N 	N 	0.25978	0.57927	0.54551	-0.236
Mof_N 	N 	0.17143	0.62049	0.4462	-0.246
Mof_N 	N 	0.11003	0.67786	0.9985	-0.127
Mof_N 	N 	0.06584	0.71579	0.10382	-0.128
Mof_N 	N 	0.20971	0.87756	0.86118	-0.244
Mof_N 	N 	0.29686	0.91894	0.75368	-0.234
Mof_N 	N 	0.13479	0.8263	0.309	-0.137
Mof_N 	N 	0.0734	0.80045	0.20702	-0.134
Mof_N 	N 	0.28163	0.53422	0.35992	-0.231
Mof_N 	N 	0.17763	0.53409	0.43608	-0.228
Mof_Ni	Ni	0.23096	0.58294	0.40097	1.066
Mof_C 	C 	0.80508	0.06045	0.07735	0.025
Mof_H 	H 	0.8282	0.0457	0.0369	0.012
Mof_C 	C 	0.81341	0.06583	0.18109	-0.038
Mof_H 	H 	0.8421	0.0555	0.2197	0.043
Mof_C 	C 	0.77112	0.08904	0.21251	-0.101
Mof_H 	H 	0.7654	0.0977	0.2771	0.07
Mof_C 	C 	0.73725	0.09763	0.12866	0.099
Mof_C 	C 	0.68937	0.12126	0.126	-0.118
Mof_C 	C 	0.65852	0.13151	0.04353	0.097
Mof_C 	C 	0.60821	0.15414	0.04009	-0.093
Mof_H 	H 	0.59	0.165	0.0943	0.072
Mof_C 	C 	0.59187	0.15681	0.94249	-0.048
Mof_H 	H 	0.561	0.17	0.9175	0.074
Mof_C 	C 	0.63185	0.13534	0.88799	0.035
Mof_H 	H 	0.6306	0.132	0.8194	0.008
Mof_C 	C 	0.66924	0.13625	0.22374	0.052
Mof_C 	C 	0.65393	0.11074	0.29938	-0.06
Mof_H 	H 	0.6569	0.0843	0.2886	0.052
Mof_C 	C 	0.63437	0.12394	0.39021	-0.09
Mof_H 	H 	0.624	0.1066	0.4398	0.065
Mof_C 	C 	0.63055	0.16354	0.40581	0.095
Mof_C 	C 	0.64551	0.18968	0.33199	-0.09
Mof_H 	H 	0.6429	0.2161	0.3433	0.068
Mof_C 	C 	0.66438	0.1757	0.24098	-0.061
Mof_H 	H 	0.6739	0.193	0.1909	0.055
Mof_C 	C 	0.61564	0.16133	0.59222	-0.005
Mof_H 	H 	0.6341	0.1386	0.6084	0.036
Mof_C 	C 	0.58867	0.1853	0.6543	0.012
Mof_H 	H 	0.5859	0.1817	0.7226	0.044
Mof_C 	C 	0.57961	0.21066	0.51031	0.091
Mof_H 	H 	0.5698	0.2273	0.4589	0.024
Mof_C 	C 	0.67746	0.35745	0.42087	0.044
Mof_H 	H 	0.6768	0.361	0.4894	0.008
Mof_C 	C 	0.64389	0.32997	0.3713	-0.056
Mof_H 	H 	0.6185	0.3128	0.3996	0.07
Mof_C 	C 	0.65681	0.33408	0.2725	-0.087
Mof_H 	H 	0.6417	0.3201	0.22	0.07
Mof_C 	C 	0.69784	0.36381	0.26575	0.097
Mof_C 	C 	0.72218	0.37828	0.1788	-0.118
Mof_C 	C 	0.76636	0.40516	0.17296	0.096
Mof_C 	C 	0.78794	0.42208	0.08439	-0.098
Mof_H 	H 	0.7748	0.4182	0.0201	0.065
Mof_C 	C 	0.83183	0.44526	0.11195	-0.049
Mof_H 	H 	0.8544	0.46	0.0705	0.041
Mof_C 	C 	0.83555	0.44208	0.21565	0.031
Mof_H 	H 	0.8623	0.4548	0.2537	0.009
Mof_C 	C 	0.69955	0.36435	0.08249	0.063
Mof_C 	C 	0.64439	0.37174	0.0566	-0.075
Mof_H 	H 	0.6211	0.3845	0.1013	0.059
Mof_C 	C 	0.62341	0.36031	0.9643	-0.075
Mof_H 	H 	0.587	0.3664	0.9459	0.063
Mof_C 	C 	0.65752	0.34	0.90145	0.091
Mof_C 	C 	0.71213	0.33213	0.9253	-0.074
Mof_H 	H 	0.735	0.3188	0.881	0.065
Mof_C 	C 	0.73273	0.34425	0.01599	-0.077
Mof_H 	H 	0.7696	0.3388	0.0327	0.063
Mof_C 	C 	0.66186	0.32187	0.71897	0.001
Mof_H 	H 	0.6986	0.3284	0.7039	0.034
Mof_C 	C 	0.62366	0.30607	0.6578	0.011
Mof_H 	H 	0.6301	0.2998	0.5916	0.038
Mof_C 	C 	0.58252	0.31232	0.79799	0.103
Mof_H 	H 	0.5562	0.3112	0.8488	0.015
Mof_C 	C 	0.62484	0.03417	0.96879	0.086
Mof_H 	H 	0.6067	0.0576	0.9795	-0.005
Mof_C 	C 	0.83217	0.0337	0.8165	0.1
Mof_H 	H 	0.8493	0.0571	0.801	-0.011
Mof_N 	N 	0.75978	0.07927	0.04551	-0.237
Mof_N 	N 	0.67143	0.12049	0.9462	-0.243
Mof_N 	N 	0.61003	0.17786	0.4985	-0.135
Mof_N 	N 	0.56584	0.21579	0.60382	-0.13
Mof_N 	N 	0.70971	0.37756	0.36118	-0.245
Mof_N 	N 	0.79686	0.41894	0.25368	-0.234
Mof_N 	N 	0.63479	0.3263	0.809	-0.135
Mof_N 	N 	0.5734	0.30045	0.70702	-0.134
Mof_N 	N 	0.78163	0.03422	0.85992	-0.231
Mof_N 	N 	0.67763	0.03409	0.93608	-0.227
Mof_Ni	Ni	0.73096	0.08294	0.90097	1.067
Mof_C 	C 	0.69492	0.43955	0.57735	0.025
Mof_H 	H 	0.6718	0.4543	0.5369	0.014
Mof_C 	C 	0.68659	0.43417	0.68109	-0.037
Mof_H 	H 	0.6579	0.4445	0.7197	0.044
Mof_C 	C 	0.72888	0.41096	0.71251	-0.101
Mof_H 	H 	0.7346	0.4023	0.7771	0.071
Mof_C 	C 	0.76275	0.40237	0.62866	0.1
Mof_C 	C 	0.81063	0.37874	0.626	-0.118
Mof_C 	C 	0.84148	0.36849	0.54353	0.098
Mof_C 	C 	0.89179	0.34586	0.54009	-0.085
Mof_H 	H 	0.91	0.335	0.5943	0.069
Mof_C 	C 	0.90813	0.34319	0.44249	-0.057
Mof_H 	H 	0.939	0.33	0.4175	0.074
Mof_C 	C 	0.86815	0.36466	0.38799	0.037
Mof_H 	H 	0.8694	0.368	0.3194	0.006
Mof_C 	C 	0.83076	0.36375	0.72374	0.052
Mof_C 	C 	0.84607	0.38926	0.79938	-0.06
Mof_H 	H 	0.8431	0.4157	0.7886	0.052
Mof_C 	C 	0.86563	0.37606	0.89021	-0.089
Mof_H 	H 	0.876	0.3934	0.9398	0.065
Mof_C 	C 	0.86945	0.33646	0.90581	0.094
Mof_C 	C 	0.85449	0.31032	0.83199	-0.089
Mof_H 	H 	0.8571	0.2839	0.8433	0.068
Mof_C 	C 	0.83562	0.3243	0.74098	-0.062
Mof_H 	H 	0.8261	0.307	0.6909	0.055
Mof_C 	C 	0.88436	0.33867	0.09222	-0.011
Mof_H 	H 	0.8659	0.3614	0.1084	0.037
Mof_C 	C 	0.91133	0.3147	0.1543	0.013
Mof_H 	H 	0.9141	0.3183	0.2226	0.042
Mof_C 	C 	0.92039	0.28934	0.01031	0.077
Mof_H 	H 	0.9302	0.2727	0.9589	0.03
Mof_C 	C 	0.82254	0.14255	0.92087	0.044
Mof_H 	H 	0.8232	0.139	0.9894	0.01
Mof_C 	C 	0.85611	0.17003	0.8713	-0.056
Mof_H 	H 	0.8815	0.1872	0.8996	0.07
Mof_C 	C 	0.84319	0.16592	0.7725	-0.086
Mof_H 	H 	0.8583	0.1799	0.72	0.069
Mof_C 	C 	0.80216	0.13619	0.76575	0.096
Mof_C 	C 	0.77782	0.12172	0.6788	-0.113
Mof_C 	C 	0.73364	0.09484	0.67296	0.094
Mof_C 	C 	0.71206	0.07792	0.58439	-0.096
Mof_H 	H 	0.7252	0.0818	0.5201	0.066
Mof_C 	C 	0.66817	0.05474	0.61195	-0.049
Mof_H 	H 	0.6456	0.04	0.5705	0.043
Mof_C 	C 	0.66445	0.05792	0.71565	0.032
Mof_H 	H 	0.6377	0.0452	0.7537	0.01
Mof_C 	C 	0.80045	0.13565	0.58249	0.051
Mof_C 	C 	0.85561	0.12826	0.5566	-0.056
Mof_H 	H 	0.8789	0.1155	0.6013	0.053
Mof_C 	C 	0.87659	0.13969	0.4643	-0.095
Mof_H 	H 	0.913	0.1336	0.4459	0.067
Mof_C 	C 	0.84248	0.16	0.40145	0.102
Mof_C 	C 	0.78787	0.16787	0.4253	-0.094
Mof_H 	H 	0.765	0.1812	0.381	0.071
Mof_C 	C 	0.76727	0.15575	0.51599	-0.057
Mof_H 	H 	0.7304	0.1612	0.5327	0.057
Mof_C 	C 	0.83814	0.17813	0.21897	0.001
Mof_H 	H 	0.8014	0.1716	0.2039	0.033
Mof_C 	C 	0.87634	0.19393	0.1578	0.011
Mof_H 	H 	0.8699	0.2002	0.0916	0.036
Mof_C 	C 	0.91748	0.18768	0.29799	0.103
Mof_H 	H 	0.9438	0.1888	0.3488	0.012
Mof_C 	C 	0.87516	0.46583	0.46879	0.092
Mof_H 	H 	0.8933	0.4424	0.4795	-0.009
Mof_C 	C 	0.66783	0.4663	0.3165	0.1
Mof_H 	H 	0.6507	0.4429	0.301	-0.011
Mof_N 	N 	0.74022	0.42073	0.54551	-0.236
Mof_N 	N 	0.82857	0.37951	0.4462	-0.246
Mof_N 	N 	0.88997	0.32214	0.9985	-0.128
Mof_N 	N 	0.93416	0.28421	0.10382	-0.131
Mof_N 	N 	0.79029	0.12244	0.86118	-0.244
Mof_N 	N 	0.70314	0.08106	0.75368	-0.234
Mof_N 	N 	0.86521	0.1737	0.309	-0.137
Mof_N 	N 	0.9266	0.19955	0.20702	-0.137
Mof_N 	N 	0.71837	0.46578	0.35992	-0.231
Mof_N 	N 	0.82237	0.46591	0.43608	-0.228
Mof_Ni	Ni	0.76904	0.41706	0.40097	1.066
Mof_C 	C 	0.19492	0.93955	0.07735	0.025
Mof_H 	H 	0.1718	0.9543	0.0369	0.012
Mof_C 	C 	0.18659	0.93417	0.18109	-0.038
Mof_H 	H 	0.1579	0.9445	0.2197	0.044
Mof_C 	C 	0.22888	0.91096	0.21251	-0.101
Mof_H 	H 	0.2346	0.9023	0.2771	0.07
Mof_C 	C 	0.26275	0.90237	0.12866	0.098
Mof_C 	C 	0.31063	0.87874	0.126	-0.118
Mof_C 	C 	0.34148	0.86849	0.04353	0.096
Mof_C 	C 	0.39179	0.84586	0.04009	-0.093
Mof_H 	H 	0.41	0.835	0.0943	0.072
Mof_C 	C 	0.40813	0.84319	0.94249	-0.047
Mof_H 	H 	0.439	0.83	0.9175	0.074
Mof_C 	C 	0.36815	0.86466	0.88799	0.035
Mof_H 	H 	0.3694	0.868	0.8194	0.008
Mof_C 	C 	0.33076	0.86375	0.22374	0.052
Mof_C 	C 	0.34607	0.88926	0.29938	-0.06
Mof_H 	H 	0.3431	0.9157	0.2886	0.052
Mof_C 	C 	0.36563	0.87606	0.39021	-0.09
Mof_H 	H 	0.376	0.8934	0.4398	0.065
Mof_C 	C 	0.36945	0.83646	0.40581	0.095
Mof_C 	C 	0.35449	0.81032	0.33199	-0.09
Mof_H 	H 	0.3571	0.7839	0.3433	0.068
Mof_C 	C 	0.33562	0.8243	0.24098	-0.061
Mof_H 	H 	0.3261	0.807	0.1909	0.055
Mof_C 	C 	0.38436	0.83867	0.59222	-0.005
Mof_H 	H 	0.3659	0.8614	0.6084	0.036
Mof_C 	C 	0.41133	0.8147	0.6543	0.012
Mof_H 	H 	0.4141	0.8183	0.7226	0.044
Mof_C 	C 	0.42039	0.78934	0.51031	0.091
Mof_H 	H 	0.4302	0.7727	0.4589	0.024
Mof_C 	C 	0.32254	0.64255	0.42087	0.044
Mof_H 	H 	0.3232	0.639	0.4894	0.008
Mof_C 	C 	0.35611	0.67003	0.3713	-0.056
Mof_H 	H 	0.3815	0.6872	0.3996	0.07
Mof_C 	C 	0.34319	0.66592	0.2725	-0.087
Mof_H 	H 	0.3583	0.6799	0.22	0.07
Mof_C 	C 	0.30216	0.63619	0.26575	0.098
Mof_C 	C 	0.27782	0.62172	0.1788	-0.118
Mof_C 	C 	0.23364	0.59484	0.17296	0.096
Mof_C 	C 	0.21206	0.57792	0.08439	-0.098
Mof_H 	H 	0.2252	0.5818	0.0201	0.065
Mof_C 	C 	0.16817	0.55474	0.11195	-0.049
Mof_H 	H 	0.1456	0.54	0.0705	0.042
Mof_C 	C 	0.16445	0.55792	0.21565	0.031
Mof_H 	H 	0.1377	0.5452	0.2537	0.01
Mof_C 	C 	0.30045	0.63565	0.08249	0.064
Mof_C 	C 	0.35561	0.62826	0.0566	-0.077
Mof_H 	H 	0.3789	0.6155	0.1013	0.059
Mof_C 	C 	0.37659	0.63969	0.9643	-0.074
Mof_H 	H 	0.413	0.6336	0.9459	0.062
Mof_C 	C 	0.34248	0.66	0.90145	0.09
Mof_C 	C 	0.28787	0.66787	0.9253	-0.073
Mof_H 	H 	0.265	0.6812	0.881	0.065
Mof_C 	C 	0.26727	0.65575	0.01599	-0.079
Mof_H 	H 	0.2304	0.6612	0.0327	0.063
Mof_C 	C 	0.33814	0.67813	0.71897	0.001
Mof_H 	H 	0.3014	0.6716	0.7039	0.034
Mof_C 	C 	0.37634	0.69393	0.6578	0.011
Mof_H 	H 	0.3699	0.7002	0.5916	0.038
Mof_C 	C 	0.41748	0.68768	0.79799	0.103
Mof_H 	H 	0.4438	0.6888	0.8488	0.015
Mof_C 	C 	0.37516	0.96583	0.96879	0.085
Mof_H 	H 	0.3933	0.9424	0.9795	-0.005
Mof_C 	C 	0.16783	0.9663	0.8165	0.1
Mof_H 	H 	0.1507	0.9429	0.801	-0.01
Mof_N 	N 	0.24022	0.92073	0.04551	-0.238
Mof_N 	N 	0.32857	0.87951	0.9462	-0.243
Mof_N 	N 	0.38997	0.82214	0.4985	-0.135
Mof_N 	N 	0.43416	0.78421	0.60382	-0.13
Mof_N 	N 	0.29029	0.62244	0.36118	-0.245
Mof_N 	N 	0.20314	0.58106	0.25368	-0.234
Mof_N 	N 	0.36521	0.6737	0.809	-0.135
Mof_N 	N 	0.4266	0.69955	0.70702	-0.134
Mof_N 	N 	0.21837	0.96578	0.85992	-0.231
Mof_N 	N 	0.32237	0.96591	0.93608	-0.227
Mof_Ni	Ni	0.26904	0.91706	0.90097	1.067
Mof_C 	C 	0.09664	0.5	0.4869	-0.162
Mof_H 	H 	0.0601	0.5	0.5105	0.085
Mof_C 	C 	0.20108	0.5	0.4199	0.065
Mof_C 	C 	0.25833	0.5	0.378	0.063
Mof_C 	C 	0.35958	0.5	0.2942	-0.172
Mof_H 	H 	0.3949	0.5	0.2654	0.089
Mof_C 	C 	0.59664	0	0.9869	-0.147
Mof_H 	H 	0.5601	0	0.0105	0.075
Mof_C 	C 	0.70108	0	0.9199	0.066
Mof_C 	C 	0.75833	0	0.878	0.064
Mof_C 	C 	0.85958	0	0.7942	-0.171
Mof_H 	H 	0.8949	0	0.7654	0.088
Mof_C 	C 	0.90336	0.5	0.4869	-0.162
Mof_H 	H 	0.9399	0.5	0.5105	0.081
Mof_C 	C 	0.79892	0.5	0.4199	0.065
Mof_C 	C 	0.74167	0.5	0.378	0.063
Mof_C 	C 	0.64042	0.5	0.2942	-0.172
Mof_H 	H 	0.6051	0.5	0.2654	0.089
Mof_C 	C 	0.40336	0	0.9869	-0.147
Mof_H 	H 	0.4399	0	0.0105	0.074
Mof_C 	C 	0.29892	0	0.9199	0.066
Mof_C 	C 	0.24167	0	0.878	0.064
Mof_C 	C 	0.14042	0	0.7942	-0.171
Mof_H 	H 	0.1051	0	0.7654	0.091
Mof_Cl	Cl	2.06366e-33	0.20937	0.97769	-0.349
Mof_Cl	Cl	-1.56037e-33	0.26967	0.33432	-0.356
Mof_Cd	Cd	-4.20018e-33	0.23833	0.15724	0.455
Mof_Cl	Cl	0.5	0.70937	0.47769	-0.358
Mof_Cl	Cl	0.5	0.76967	0.83432	-0.36
Mof_Cd	Cd	0.5	0.73833	0.65724	0.453
Mof_Cl	Cl	-2.46842e-33	0.79063	0.97769	-0.349
Mof_Cl	Cl	2.97171e-33	0.73033	0.33432	-0.356
Mof_Cd	Cd	4.86397e-33	0.76167	0.15724	0.455
Mof_Cl	Cl	0.5	0.29063	0.47769	-0.358
Mof_Cl	Cl	0.5	0.23033	0.83432	-0.36
Mof_Cd	Cd	0.5	0.26167	0.65724	0.453
_end
