data_functionalizedCrystal
_audit_creation_method	'EQeq! by Chris Wilmer'
_symmetry_space_group_name_H-M	'P1'
_symmetry_Int_Tables_number	1
_symmetry_cell_setting	triclinic
loop_
_symmetry_equiv_pos_as_xyz
  x,y,z
_cell_length_a	19.6812
_cell_length_b	7.7005
_cell_length_c	6.778
_cell_angle_alpha	90
_cell_angle_beta	75.4997
_cell_angle_gamma	90
loop_
_atom_site_label
_atom_site_type_symbol
_atom_site_fract_x
_atom_site_fract_y
_atom_site_fract_z
_atom_site_charge
Mof_H 	H 	0.1687	0.7296	0.7994	-0.037
Mof_H 	H 	0.2125	0.8366	0.3426	-0.011
Mof_C 	C 	0.1808	0.7886	0.0827	-0.45
Mof_C 	C 	0.2026	0.7381	0.8831	0.416
Mof_C 	C 	0.2282	0.8005	0.1996	0.298
Mof_C 	C 	0.1066	0.8299	0.1714	0.561
Mof_O 	O 	0.0628	0.8207	0.0624	-0.492
Mof_O 	O 	0.0862	0.8749	0.3571	-0.451
Mof_H 	H 	0.6687	0.2296	0.7994	-0.115
Mof_H 	H 	0.7125	0.3366	0.3426	-0.091
Mof_C 	C 	0.6808	0.2886	0.0827	-0.619
Mof_C 	C 	0.7026	0.2381	0.8831	0.495
Mof_C 	C 	0.7282	0.3005	0.1996	0.378
Mof_C 	C 	0.6066	0.3299	0.1714	0.694
Mof_O 	O 	0.5628	0.3207	0.0624	-0.759
Mof_O 	O 	0.5862	0.3749	0.3571	-0.734
Mof_H 	H 	0.8313	0.7296	0.7006	0.098
Mof_H 	H 	0.7875	0.8366	0.1574	0.059
Mof_C 	C 	0.8192	0.7886	0.4173	-0.054
Mof_C 	C 	0.7974	0.7381	0.6169	-0.019
Mof_C 	C 	0.7718	0.8005	0.3004	-0.03
Mof_C 	C 	0.8934	0.8299	0.3286	0.426
Mof_O 	O 	0.9372	0.8207	0.4376	-0.366
Mof_O 	O 	0.9138	0.8749	0.1429	-0.348
Mof_H 	H 	0.3313	0.2296	0.7006	0.011
Mof_H 	H 	0.2875	0.3366	0.1574	-0.023
Mof_C 	C 	0.3192	0.2886	0.4173	-0.231
Mof_C 	C 	0.2974	0.2381	0.6169	0.051
Mof_C 	C 	0.2718	0.3005	0.3004	0.042
Mof_C 	C 	0.3934	0.3299	0.3286	0.573
Mof_O 	O 	0.4372	0.3207	0.4376	-0.725
Mof_O 	O 	0.4138	0.3749	0.1429	-0.697
Mof_H 	H 	0.8313	0.2704	0.2006	0.167
Mof_H 	H 	0.7875	0.1634	0.6574	0.134
Mof_C 	C 	0.8192	0.2114	0.9173	0.31
Mof_C 	C 	0.7974	0.2619	0.1169	-0.515
Mof_C 	C 	0.7718	0.1995	0.8004	-0.399
Mof_C 	C 	0.8934	0.1701	0.8286	0.271
Mof_O 	O 	0.9372	0.1793	0.9376	-0.296
Mof_O 	O 	0.9138	0.1251	0.6429	-0.452
Mof_H 	H 	0.3313	0.7704	0.2006	0.152
Mof_H 	H 	0.2875	0.6634	0.6574	0.138
Mof_C 	C 	0.3192	0.7114	0.9173	0.221
Mof_C 	C 	0.2974	0.7619	0.1169	-0.371
Mof_C 	C 	0.2718	0.6995	0.8004	-0.263
Mof_C 	C 	0.3934	0.6701	0.8286	0.454
Mof_O 	O 	0.4372	0.6793	0.9376	-0.516
Mof_O 	O 	0.4138	0.6251	0.6429	-0.635
Mof_H 	H 	0.1687	0.2704	0.2994	0.024
Mof_H 	H 	0.2125	0.1634	0.8426	0.059
Mof_C 	C 	0.1808	0.2114	0.5827	-0.099
Mof_C 	C 	0.2026	0.2619	0.3831	-0.065
Mof_C 	C 	0.2282	0.1995	0.6996	-0.066
Mof_C 	C 	0.1066	0.1701	0.6714	0.409
Mof_O 	O 	0.0628	0.1793	0.5624	-0.547
Mof_O 	O 	0.0862	0.1251	0.8571	-0.44
Mof_H 	H 	0.6687	0.7704	0.2994	0.026
Mof_H 	H 	0.7125	0.6634	0.8426	0.071
Mof_C 	C 	0.6808	0.7114	0.5827	-0.158
Mof_C 	C 	0.7026	0.7619	0.3831	0.065
Mof_C 	C 	0.7282	0.6995	0.6996	0.061
Mof_C 	C 	0.6066	0.6701	0.6714	0.572
Mof_O 	O 	0.5628	0.6793	0.5624	-0.668
Mof_O 	O 	0.5862	0.6251	0.8571	-0.551
Mof_H 	H 	0.5	0.74906	0.25	0.31
Mof_H 	H 	-3.57229e-18	0.24906	0.25	0.205
Mof_H 	H 	0.5	0.25094	0.75	0.287
Mof_H 	H 	1.42892e-17	0.75094	0.75	0.222
Mof_Cr	Cr	-0	0	-0	1.153
Mof_Cr	Cr	0.5	0.5	-0	2.169
Mof_Cr	Cr	-7.14459e-18	-3.17283e-33	0.5	1.545
Mof_Cr	Cr	0.5	0.5	0.5	2.566
Mof_O 	O 	1.42892e-17	0.8808	0.75	-0.558
Mof_O 	O 	0.5	0.3808	0.75	-0.985
Mof_O 	O 	-3.57229e-18	0.1192	0.25	-0.816
Mof_O 	O 	0.5	0.6192	0.25	-1.041
_end
