# CIF file generated by openbabel 3.1.0, see https://openbabel.org
data_I
_chemical_name_common 'image0'
_cell_length_a 7.8927
_cell_length_b 10.326
_cell_length_c 12.799
_cell_angle_alpha 111.008
_cell_angle_beta 95.351
_cell_angle_gamma 106.177
_space_group_name_H-M_alt 'P 1'
_space_group_name_Hall 'P 1'
loop_
    _symmetry_equiv_pos_as_xyz
    x,y,z
loop_
    _atom_site_label
    _atom_site_type_symbol
    _atom_site_fract_x
    _atom_site_fract_y
    _atom_site_fract_z
    _atom_site_occupancy
    Cd1      Cd       0.31759    0.57797    0.44917    1.000
    Cd2      Cd       0.61205    0.71078    0.02624    1.000
    O1       O        0.50270    0.55529    0.11940    1.000
    O2       O        0.17320    0.34055    0.38065    1.000
    O3       O        0.05330    0.62237    0.36684    1.000
    O4       O        0.29580    0.80800    0.47757    1.000
    O5       O        0.69570    0.96711    0.06776    1.000
    N1       N        0.63940    0.86634    0.23734    1.000
    O6       O        0.38560    0.53160    0.26570    1.000
    C1       C        0.82590    0.91510    0.29495    1.000
    C2       C        0.12200    0.10330    0.37836    1.000
    C3       C        0.94260    0.05860    0.32332    1.000
    H1       H        0.89940    0.12460    0.30500    1.000
    C4       C        0.23990    0.26060    0.41225    1.000
    C5       C        0.89410    0.81790    0.32306    1.000
    H2       H        0.81900    0.72190    0.30390    1.000
    C6       C        0.14460    0.75910    0.41130    1.000
    O7       O        0.39310    0.30210    0.47220    1.000
    O8       O        0.65420    0.17707    0.16879    1.000
    C7       C        0.07360    0.86330    0.37953    1.000
    C8       C        0.18890    0.00620    0.40706    1.000
    H3       H        0.30890    0.03620    0.44410    1.000
    C9       C        0.51560    0.77240    0.28118    1.000
    C10      C        0.57550    0.98630    0.23448    1.000
    H4       H        0.61180    0.06500    0.31050    1.000
    H5       H        0.44460    0.94990    0.21350    1.000
    C11      C        0.46760    0.60780    0.21666    1.000
    C12      C        0.64910    0.04770    0.15041    1.000
    H6       H        0.55700    0.79500    0.35600    1.000
    H7       H        0.39800    0.78000    0.27100    1.000
    Cd3      Cd       0.68241    0.42203    0.55083    1.000
    Cd4      Cd       0.38795    0.28922    0.97376    1.000
    O9       O        0.49730    0.44471    0.88060    1.000
    O10      O        0.82680    0.65945    0.61935    1.000
    O11      O        0.94670    0.37763    0.63316    1.000
    O12      O        0.70420    0.19200    0.52243    1.000
    O13      O        0.30430    0.03289    0.93224    1.000
    N2       N        0.36060    0.13366    0.76266    1.000
    O14      O        0.61440    0.46840    0.73430    1.000
    C13      C        0.17410    0.08490    0.70505    1.000
    C14      C        0.87800    0.89670    0.62164    1.000
    C15      C        0.05740    0.94140    0.67668    1.000
    H8       H        0.10060    0.87540    0.69500    1.000
    C16      C        0.76010    0.73940    0.58775    1.000
    C17      C        0.10590    0.18210    0.67694    1.000
    H9       H        0.18100    0.27810    0.69610    1.000
    C18      C        0.85540    0.24090    0.58870    1.000
    O15      O        0.60690    0.69790    0.52780    1.000
    O16      O        0.34580    0.82293    0.83121    1.000
    C19      C        0.92640    0.13670    0.62047    1.000
    C20      C        0.81110    0.99380    0.59294    1.000
    H10      H        0.69110    0.96380    0.55590    1.000
    C21      C        0.48440    0.22760    0.71882    1.000
    C22      C        0.42450    0.01370    0.76552    1.000
    H11      H        0.38820    0.93500    0.68950    1.000
    H12      H        0.55540    0.05010    0.78650    1.000
    C23      C        0.53240    0.39220    0.78334    1.000
    C24      C        0.35090    0.95230    0.84959    1.000
    H13      H        0.44300    0.20500    0.64400    1.000
    H14      H        0.60200    0.22000    0.72900    1.000
