data_functionalizedCrystal
_audit_creation_method	'EQeq! by Chris Wilmer'
_symmetry_space_group_name_H-M	'P1'
_symmetry_Int_Tables_number	1
_symmetry_cell_setting	triclinic
loop_
_symmetry_equiv_pos_as_xyz
  x,y,z
_cell_length_a	12.024
_cell_length_b	13.773
_cell_length_c	15.85
_cell_angle_alpha	90
_cell_angle_beta	99.093
_cell_angle_gamma	90
loop_
_atom_site_label
_atom_site_type_symbol
_atom_site_fract_x
_atom_site_fract_y
_atom_site_fract_z
_atom_site_charge
Mof_Zn	Zn	0.37139	0.21356	0.43228	1.233
Mof_Zn	Zn	0.25255	0.10472	0.2401	1.191
Mof_O 	O 	0.76037	0.64198	0.0437	-0.489
Mof_O 	O 	0.83898	0.56893	0.16606	-0.498
Mof_O 	O 	0.60148	0.5582	0.18146	-0.49
Mof_O 	O 	0.49961	0.62851	0.06943	-0.465
Mof_C 	C 	0.0195	0.516	0.08625	-0.034
Mof_H 	H 	0.0325	0.527	0.1462	0.046
Mof_C 	C 	0.4144	0.5083	0.14346	-0.124
Mof_C 	C 	0.2184	0.4634	0.10284	-0.025
Mof_C 	C 	0.1066	0.4785	0.0478	0.042
Mof_C 	C 	0.9143	0.538	0.04048	-0.111
Mof_C 	C 	0.3115	0.517	0.08819	0.008
Mof_H 	H 	0.3055	0.5596	0.0405	0.045
Mof_C 	C 	0.3301	0.3894	0.22512	-0.122
Mof_C 	C 	0.8301	0.5853	0.08792	0.41
Mof_C 	C 	0.2282	0.4001	0.1717	0
Mof_H 	H 	0.1646	0.3639	0.1822	0.02
Mof_O 	O 	0.2711	0.2521	0.29752	-0.52
Mof_C 	C 	0.4228	0.4448	0.21283	0.06
Mof_H 	H 	0.4915	0.4395	0.2514	0.033
Mof_C 	C 	0.5126	0.5693	0.13116	0.41
Mof_O 	O 	0.4017	0.20897	0.03841	-0.409
Mof_O 	O 	0.3554	0.1399	0.15299	-0.425
Mof_O 	O 	0.4196	0.3296	0.35939	-0.403
Mof_C 	C 	0.3398	0.3197	0.2973	0.351
Mof_C 	C 	0.3333	0.1953	0.08974	0.274
Mof_Zn	Zn	0.62861	0.71356	0.06772	1.232
Mof_Zn	Zn	0.74745	0.60472	0.2599	1.19
Mof_O 	O 	0.23963	0.14198	0.4563	-0.49
Mof_O 	O 	0.16102	0.06893	0.33394	-0.499
Mof_O 	O 	0.39852	0.0582	0.31854	-0.491
Mof_O 	O 	0.50039	0.12851	0.43057	-0.466
Mof_C 	C 	0.9805	0.016	0.41375	-0.034
Mof_H 	H 	0.9675	0.027	0.3538	0.044
Mof_C 	C 	0.5856	0.0083	0.35654	-0.124
Mof_C 	C 	0.7816	0.9634	0.39716	-0.025
Mof_C 	C 	0.8934	0.9785	0.4522	0.042
Mof_C 	C 	0.0857	0.038	0.45952	-0.112
Mof_C 	C 	0.6885	0.017	0.41181	0.008
Mof_H 	H 	0.6945	0.0596	0.4595	0.045
Mof_C 	C 	0.6699	0.8894	0.27488	-0.122
Mof_C 	C 	0.1699	0.0853	0.41208	0.41
Mof_C 	C 	0.7718	0.9001	0.3283	0
Mof_H 	H 	0.8354	0.8639	0.3178	0.02
Mof_O 	O 	0.7289	0.7521	0.20248	-0.52
Mof_C 	C 	0.5772	0.9448	0.28717	0.059
Mof_H 	H 	0.5085	0.9395	0.2486	0.033
Mof_C 	C 	0.4874	0.0693	0.36884	0.409
Mof_O 	O 	0.5983	0.70897	0.46159	-0.409
Mof_O 	O 	0.6446	0.6399	0.34701	-0.425
Mof_O 	O 	0.5804	0.8296	0.14061	-0.404
Mof_C 	C 	0.6602	0.8197	0.2027	0.351
Mof_C 	C 	0.6667	0.6953	0.41026	0.274
Mof_Zn	Zn	0.62861	0.78644	0.56772	1.232
Mof_Zn	Zn	0.74745	0.89528	0.7599	1.19
Mof_O 	O 	0.23963	0.35802	0.9563	-0.49
Mof_O 	O 	0.16102	0.43107	0.83394	-0.499
Mof_O 	O 	0.39852	0.4418	0.81854	-0.491
Mof_O 	O 	0.50039	0.37149	0.93057	-0.466
Mof_C 	C 	0.9805	0.484	0.91375	-0.035
Mof_H 	H 	0.9675	0.473	0.8538	0.045
Mof_C 	C 	0.5856	0.4917	0.85654	-0.124
Mof_C 	C 	0.7816	0.5366	0.89716	-0.025
Mof_C 	C 	0.8934	0.5215	0.9522	0.042
Mof_C 	C 	0.0857	0.462	0.95952	-0.111
Mof_C 	C 	0.6885	0.483	0.91181	0.008
Mof_H 	H 	0.6945	0.4404	0.9595	0.045
Mof_C 	C 	0.6699	0.6106	0.77488	-0.122
Mof_C 	C 	0.1699	0.4147	0.91208	0.41
Mof_C 	C 	0.7718	0.5999	0.8283	0
Mof_H 	H 	0.8354	0.6361	0.8178	0.02
Mof_O 	O 	0.7289	0.7479	0.70248	-0.52
Mof_C 	C 	0.5772	0.5552	0.78717	0.06
Mof_H 	H 	0.5085	0.5605	0.7486	0.033
Mof_C 	C 	0.4874	0.4307	0.86884	0.41
Mof_O 	O 	0.5983	0.79103	0.96159	-0.409
Mof_O 	O 	0.6446	0.8601	0.84701	-0.425
Mof_O 	O 	0.5804	0.6704	0.64061	-0.403
Mof_C 	C 	0.6602	0.6803	0.7027	0.351
Mof_C 	C 	0.6667	0.8047	0.91026	0.274
Mof_Zn	Zn	0.37139	0.28644	0.93228	1.232
Mof_Zn	Zn	0.25255	0.39528	0.7401	1.19
Mof_O 	O 	0.76037	0.85802	0.5437	-0.49
Mof_O 	O 	0.83898	0.93107	0.66606	-0.499
Mof_O 	O 	0.60148	0.9418	0.68146	-0.491
Mof_O 	O 	0.49961	0.87149	0.56943	-0.466
Mof_C 	C 	0.0195	0.984	0.58625	-0.034
Mof_H 	H 	0.0325	0.973	0.6462	0.044
Mof_C 	C 	0.4144	0.9917	0.64346	-0.124
Mof_C 	C 	0.2184	0.0366	0.60284	-0.025
Mof_C 	C 	0.1066	0.0215	0.5478	0.042
Mof_C 	C 	0.9143	0.962	0.54048	-0.112
Mof_C 	C 	0.3115	0.983	0.58819	0.008
Mof_H 	H 	0.3055	0.9404	0.5405	0.045
Mof_C 	C 	0.3301	0.1106	0.72512	-0.122
Mof_C 	C 	0.8301	0.9147	0.58792	0.41
Mof_C 	C 	0.2282	0.0999	0.6717	0
Mof_H 	H 	0.1646	0.1361	0.6822	0.02
Mof_O 	O 	0.2711	0.2479	0.79752	-0.52
Mof_C 	C 	0.4228	0.0552	0.71283	0.059
Mof_H 	H 	0.4915	0.0605	0.7514	0.033
Mof_C 	C 	0.5126	0.9307	0.63116	0.409
Mof_O 	O 	0.4017	0.29103	0.53841	-0.409
Mof_O 	O 	0.3554	0.3601	0.65299	-0.425
Mof_O 	O 	0.4196	0.1704	0.85939	-0.404
Mof_C 	C 	0.3398	0.1803	0.7973	0.351
Mof_C 	C 	0.3333	0.3047	0.58974	0.274
_end
