# CIF file generated by openbabel 3.1.0, see https://openbabel.org
data_I
_chemical_name_common 'image0'
_cell_length_a 13.2041
_cell_length_b 13.7867
_cell_length_c 15.3818
_cell_angle_alpha 93.625
_cell_angle_beta 101.696
_cell_angle_gamma 95.857
_space_group_name_H-M_alt 'P 1'
_space_group_name_Hall 'P 1'
loop_
    _symmetry_equiv_pos_as_xyz
    x,y,z
loop_
    _atom_site_label
    _atom_site_type_symbol
    _atom_site_fract_x
    _atom_site_fract_y
    _atom_site_fract_z
    _atom_site_occupancy
    Cd1      Cd       0.63238    0.32349    0.33622    1.000
    Cd2      Cd       0.12475    0.32025    0.29456    1.000
    P1       P        0.38015    0.25389    0.37623    1.000
    P2       P        0.15097    0.21757    0.09026    1.000
    P3       P        0.59110    0.08703    0.22426    1.000
    P4       P        0.86328    0.35453    0.26057    1.000
    C1       C        0.35590    0.14890    0.43440    1.000
    H1       H        0.30010    0.14760    0.46290    1.000
    C2       C        0.40760    0.07570    0.44070    1.000
    H2       H        0.46410    0.07370    0.41340    1.000
    H3       H        0.38880    0.02420    0.47270    1.000
    C3       C        0.14680    0.31820    0.02270    1.000
    C4       C        0.06860    0.37110    0.01390    1.000
    H4       H        0.04970    0.40240    0.96230    1.000
    H5       H        0.03210    0.37730    0.05940    1.000
    C5       C        0.62320    0.00220    0.30410    1.000
    H6       H        0.57430    0.94810    0.30190    1.000
    C6       C        0.70310    0.00680    0.36240    1.000
    H7       H        0.75460    0.05940    0.36770    1.000
    H8       H        0.71180    0.95770    0.40110    1.000
    C7       C        0.83300    0.43410    0.17420    1.000
    H9       H        0.83560    0.50090    0.18880    1.000
    C8       C        0.80600    0.39800    0.08770    1.000
    H10      H        0.80350    0.33150    0.07260    1.000
    H11      H        0.79060    0.44040    0.04320    1.000
    C9       C        0.60440    0.48700    0.19530    1.000
    H12      H        0.64810    0.52350    0.24400    1.000
    C10      C        0.57940    0.53140    0.11720    1.000
    C11      C        0.51370    0.47770    0.04280    1.000
    C12      C        0.47840    0.38300    0.05490    1.000
    H13      H        0.43420    0.34450    0.00770    1.000
    C13      C        0.50660    0.34440    0.13430    1.000
    H14      H        0.48090    0.28010    0.13930    1.000
    C14      C        0.09360    0.20180    0.46220    1.000
    H15      H        0.12660    0.26130    0.49130    1.000
    C15      C        0.06850    0.12850    0.51280    1.000
    H16      H        0.08710    0.13850    0.57460    1.000
    C16      C        0.01590    0.04000    0.47320    1.000
    C17      C        0.99610    0.02990    0.38200    1.000
    H17      H        0.96280    0.97120    0.35150    1.000
    C18      C        0.02520    0.10620    0.33490    1.000
    H18      H        0.01060    0.09690    0.27310    1.000
    C19      C        0.31950    0.83990    0.03470    1.000
    H19      H        0.27880    0.87280    0.99230    1.000
    C20      C        0.27140    0.76400    0.07100    1.000
    H20      H        0.19980    0.74740    0.05340    1.000
    C21      C        0.32860    0.71290    0.13290    1.000
    C22      C        0.43490    0.74380    0.15820    1.000
    H21      H        0.47700    0.71300    0.20140    1.000
    C23      C        0.47710    0.82020    0.11880    1.000
    H22      H        0.54830    0.83940    0.13600    1.000
    C24      C        0.28110    0.62680    0.17170    1.000
    C25      C        0.17600    0.60820    0.16560    1.000
    H23      H        0.13160    0.65040    0.13790    1.000
    C26      C        0.13610    0.52670    0.20080    1.000
    H24      H        0.06470    0.51670    0.19770    1.000
    C27      C        0.29490    0.47980    0.24430    1.000
    H25      H        0.33730    0.43500    0.27030    1.000
    C28      C        0.34180    0.56170    0.21370    1.000
    H26      H        0.41390    0.57230    0.22150    1.000
    C29      C        0.02840    0.86680    0.16590    1.000
    H27      H        0.95950    0.84650    0.13810    1.000
    C30      C        0.07020    0.82480    0.24140    1.000
    H28      H        0.03000    0.77700    0.26360    1.000
    C31      C        0.17350    0.85400    0.28480    1.000
    C32      C        0.22930    0.92390    0.24780    1.000
    H29      H        0.29870    0.94470    0.27350    1.000
    C33      C        0.18040    0.96280    0.17160    1.000
    H30      H        0.21890    0.01080    0.14800    1.000
    C34      C        0.21880    0.81150    0.36810    1.000
    C35      C        0.16120    0.79220    0.43030    1.000
    H31      H        0.09150    0.80290    0.41890    1.000
    C36      C        0.20340    0.75750    0.50900    1.000
    H32      H        0.16310    0.75110    0.55180    1.000
    C37      C        0.35480    0.74890    0.46600    1.000
    H33      H        0.42290    0.73330    0.47710    1.000
    C38      C        0.31850    0.78760    0.38720    1.000
    H34      H        0.36160    0.79760    0.34690    1.000
    N1       N        0.56970    0.39480    0.20540    1.000
    N2       N        0.07320    0.19230    0.37370    1.000
    N3       N        0.42140    0.86850    0.05730    1.000
    N4       N        0.19460    0.46190    0.23880    1.000
    N5       N        0.08250    0.93590    0.13050    1.000
    N6       N        0.29950    0.73250    0.52720    1.000
    O1       O        0.28300    0.25890    0.30530    1.000
    O2       O        0.40480    0.34200    0.44380    1.000
    O3       O        0.47170    0.23700    0.33290    1.000
    O4       O        0.08320    0.22970    0.15690    1.000
    O5       O        0.26780    0.22160    0.13910    1.000
    H35      H        0.27290    0.23360    0.19280    1.000
    O6       O        0.12490    0.12700    0.02790    1.000
    O7       O        0.47350    0.09970    0.21830    1.000
    H36      H        0.46850    0.14410    0.25480    1.000
    O8       O        0.65770    0.18260    0.25600    1.000
    O9       O        0.60300    0.04100    0.13660    1.000
    O10      O        0.79660    0.38240    0.32420    1.000
    O11      O        0.97680    0.38480    0.29150    1.000
    O12      O        0.84680    0.24160    0.23700    1.000
    H37      H        0.78820    0.21990    0.24180    1.000
    C39      C        0.17350    0.32570    0.95730    1.000
    H38      H        0.13950    0.36320    0.91490    1.000
    H39      H        0.22930    0.29440    0.94630    1.000
    C40      C        0.80580    0.36850    0.14860    1.000
    H40      H        0.76380    0.31700    0.11270    1.000
    C41      C        0.82400    0.45660    0.11600    1.000
    H41      H        0.86670    0.50750    0.15310    1.000
    H42      H        0.79520    0.46590    0.05780    1.000
    Cd3      Cd       0.36762    0.67651    0.66378    1.000
    Cd4      Cd       0.87525    0.67975    0.70544    1.000
    P5       P        0.61985    0.74611    0.62377    1.000
    P6       P        0.84903    0.78243    0.90974    1.000
    P7       P        0.40890    0.91297    0.77574    1.000
    P8       P        0.13672    0.64547    0.73943    1.000
    C42      C        0.64410    0.85110    0.56560    1.000
    H43      H        0.69990    0.85240    0.53710    1.000
    C43      C        0.59240    0.92430    0.55930    1.000
    H44      H        0.53590    0.92630    0.58660    1.000
    H45      H        0.61120    0.97580    0.52730    1.000
    C44      C        0.85320    0.68180    0.97730    1.000
    C45      C        0.93140    0.62890    0.98610    1.000
    H46      H        0.95030    0.59760    0.03770    1.000
    H47      H        0.96790    0.62270    0.94060    1.000
    C46      C        0.37680    0.99780    0.69590    1.000
    H48      H        0.42570    0.05190    0.69810    1.000
    C47      C        0.29690    0.99320    0.63760    1.000
    H49      H        0.24540    0.94060    0.63230    1.000
    H50      H        0.28820    0.04230    0.59890    1.000
    C48      C        0.16700    0.56590    0.82580    1.000
    H51      H        0.16440    0.49910    0.81120    1.000
    C49      C        0.19400    0.60200    0.91230    1.000
    H52      H        0.19650    0.66850    0.92740    1.000
    H53      H        0.20940    0.55960    0.95680    1.000
    C50      C        0.39560    0.51300    0.80470    1.000
    H54      H        0.35190    0.47650    0.75600    1.000
    C51      C        0.42060    0.46860    0.88280    1.000
    C52      C        0.48630    0.52230    0.95720    1.000
    C53      C        0.52160    0.61700    0.94510    1.000
    H55      H        0.56580    0.65550    0.99230    1.000
    C54      C        0.49340    0.65560    0.86570    1.000
    H56      H        0.51910    0.71990    0.86070    1.000
    C55      C        0.90640    0.79820    0.53780    1.000
    H57      H        0.87340    0.73870    0.50870    1.000
    C56      C        0.93150    0.87150    0.48720    1.000
    H58      H        0.91290    0.86150    0.42540    1.000
    C57      C        0.98410    0.96000    0.52680    1.000
    C58      C        0.00390    0.97010    0.61800    1.000
    H59      H        0.03720    0.02880    0.64850    1.000
    C59      C        0.97480    0.89380    0.66510    1.000
    H60      H        0.98940    0.90310    0.72690    1.000
    C60      C        0.68050    0.16010    0.96530    1.000
    H61      H        0.72120    0.12720    0.00770    1.000
    C61      C        0.72860    0.23600    0.92900    1.000
    H62      H        0.80020    0.25260    0.94660    1.000
    C62      C        0.67140    0.28710    0.86710    1.000
    C63      C        0.56510    0.25620    0.84180    1.000
    H63      H        0.52300    0.28700    0.79860    1.000
    C64      C        0.52290    0.17980    0.88120    1.000
    H64      H        0.45170    0.16060    0.86400    1.000
    C65      C        0.71890    0.37320    0.82830    1.000
    C66      C        0.82400    0.39180    0.83440    1.000
    H65      H        0.86840    0.34960    0.86210    1.000
    C67      C        0.86390    0.47330    0.79920    1.000
    H66      H        0.93530    0.48330    0.80230    1.000
    C68      C        0.70510    0.52020    0.75570    1.000
    H67      H        0.66270    0.56500    0.72970    1.000
    C69      C        0.65820    0.43830    0.78630    1.000
    H68      H        0.58610    0.42770    0.77850    1.000
    C70      C        0.97160    0.13320    0.83410    1.000
    H69      H        0.04050    0.15350    0.86190    1.000
    C71      C        0.92980    0.17520    0.75860    1.000
    H70      H        0.97000    0.22300    0.73640    1.000
    C72      C        0.82650    0.14600    0.71520    1.000
    C73      C        0.77070    0.07610    0.75220    1.000
    H71      H        0.70130    0.05530    0.72650    1.000
    C74      C        0.81960    0.03720    0.82840    1.000
    H72      H        0.78110    0.98920    0.85200    1.000
    C75      C        0.78120    0.18850    0.63190    1.000
    C76      C        0.83880    0.20780    0.56970    1.000
    H73      H        0.90850    0.19710    0.58110    1.000
    C77      C        0.79660    0.24250    0.49100    1.000
    H74      H        0.83690    0.24890    0.44820    1.000
    C78      C        0.64520    0.25110    0.53400    1.000
    H75      H        0.57710    0.26670    0.52290    1.000
    C79      C        0.68150    0.21240    0.61280    1.000
    H76      H        0.63840    0.20240    0.65310    1.000
    N7       N        0.43030    0.60520    0.79460    1.000
    N8       N        0.92680    0.80770    0.62630    1.000
    N9       N        0.57860    0.13150    0.94270    1.000
    N10      N        0.80540    0.53810    0.76120    1.000
    N11      N        0.91750    0.06410    0.86950    1.000
    N12      N        0.70050    0.26750    0.47280    1.000
    O13      O        0.71700    0.74110    0.69470    1.000
    O14      O        0.59520    0.65800    0.55620    1.000
    O15      O        0.52830    0.76300    0.66710    1.000
    O16      O        0.91680    0.77030    0.84310    1.000
    O17      O        0.73220    0.77840    0.86090    1.000
    H77      H        0.72710    0.76640    0.80720    1.000
    O18      O        0.87510    0.87300    0.97210    1.000
    O19      O        0.52650    0.90030    0.78170    1.000
    H78      H        0.53150    0.85590    0.74520    1.000
    O20      O        0.34230    0.81740    0.74400    1.000
    O21      O        0.39700    0.95900    0.86340    1.000
    O22      O        0.20340    0.61760    0.67580    1.000
    O23      O        0.02320    0.61520    0.70850    1.000
    O24      O        0.15320    0.75840    0.76300    1.000
    H79      H        0.21180    0.78010    0.75820    1.000
    C80      C        0.82650    0.67430    0.04270    1.000
    H80      H        0.86050    0.63680    0.08510    1.000
    H81      H        0.77070    0.70560    0.05370    1.000
    C81      C        0.19420    0.63150    0.85140    1.000
    H82      H        0.23620    0.68300    0.88730    1.000
    C82      C        0.17600    0.54340    0.88400    1.000
    H83      H        0.13330    0.49250    0.84690    1.000
    H84      H        0.20480    0.53410    0.94220    1.000
    Cd5      Cd       0.50000    0.00000    0.00000    1.000
    Cd6      Cd       0.00000    0.00000    0.00000    1.000
