# CIF file generated by openbabel 3.1.0, see https://openbabel.org
data_I
_chemical_name_common 'VORBUA_clean'
_cell_length_a 9.038
_cell_length_b 9.038
_cell_length_c 14.9034
_cell_angle_alpha 105.972
_cell_angle_beta 105.973
_cell_angle_gamma 95.3063
_space_group_name_H-M_alt 'P 1'
_space_group_name_Hall 'P 1'
loop_
    _symmetry_equiv_pos_as_xyz
    x,y,z
loop_
    _atom_site_label
    _atom_site_type_symbol
    _atom_site_fract_x
    _atom_site_fract_y
    _atom_site_fract_z
    _atom_site_occupancy
    La1      La       0.25386    0.50386    0.00772    1.000
    La2      La       0.49614    0.74614    0.49228    1.000
    La3      La       0.74614    0.49614    0.99228    1.000
    La4      La       0.50386    0.25386    0.50772    1.000
    H1       H        0.61930    0.01690    0.15020    1.000
    H2       H        0.74170    0.90790    0.12500    1.000
    H3       H        0.63950    0.97290    0.04320    1.000
    H4       H        0.03090    0.13330    0.15020    1.000
    H5       H        0.88330    0.21710    0.12500    1.000
    H6       H        0.90370    0.07030    0.04320    1.000
    H7       H        0.98310    0.38070    0.34980    1.000
    H8       H        0.09210    0.25830    0.37500    1.000
    H9       H        0.02710    0.36050    0.45680    1.000
    H10      H        0.86670    0.96910    0.34980    1.000
    H11      H        0.78290    0.11670    0.37500    1.000
    H12      H        0.92970    0.09630    0.45680    1.000
    H13      H        0.38070    0.98310    0.84980    1.000
    H14      H        0.25830    0.09210    0.87500    1.000
    H15      H        0.36050    0.02710    0.95680    1.000
    H16      H        0.96910    0.86670    0.84980    1.000
    H17      H        0.11670    0.78290    0.87500    1.000
    H18      H        0.09630    0.92970    0.95680    1.000
    H19      H        0.01690    0.61930    0.65020    1.000
    H20      H        0.90790    0.74170    0.62500    1.000
    H21      H        0.97290    0.63950    0.54320    1.000
    H22      H        0.13330    0.03090    0.65020    1.000
    H23      H        0.21710    0.88330    0.62500    1.000
    H24      H        0.07030    0.90370    0.54320    1.000
    C1       C        0.51449    0.79269    0.06478    1.000
    C2       C        0.63954    0.93494    0.09868    1.000
    C3       C        0.05029    0.27209    0.06478    1.000
    C4       C        0.95914    0.16374    0.09868    1.000
    C5       C        0.20731    0.48551    0.43522    1.000
    C6       C        0.06506    0.36046    0.40132    1.000
    C7       C        0.72791    0.94971    0.43522    1.000
    C8       C        0.83626    0.04086    0.40132    1.000
    C9       C        0.48551    0.20731    0.93522    1.000
    C10      C        0.36046    0.06506    0.90132    1.000
    C11      C        0.94971    0.72791    0.93522    1.000
    C12      C        0.04086    0.83626    0.90132    1.000
    C13      C        0.79269    0.51449    0.56478    1.000
    C14      C        0.93494    0.63954    0.59868    1.000
    C15      C        0.27209    0.05029    0.56478    1.000
    C16      C        0.16374    0.95914    0.59868    1.000
    C17      C        0.31740    0.68260    0.25000    1.000
    C18      C        0.43260    0.56740    0.25000    1.000
    C19      C        0.68260    0.31740    0.75000    1.000
    C20      C        0.56740    0.43260    0.75000    1.000
    O1       O        0.37675    0.80599    0.06514    1.000
    O2       O        0.54729    0.65775    0.03484    1.000
    O3       O        0.21962    0.66802    0.16864    1.000
    O4       O        0.18839    0.25915    0.06514    1.000
    O5       O        0.98755    0.37709    0.03484    1.000
    O6       O        0.44902    0.50062    0.16864    1.000
    O7       O        0.19401    0.62325    0.43486    1.000
    O8       O        0.34225    0.45271    0.46516    1.000
    O9       O        0.33198    0.78038    0.33136    1.000
    O10      O        0.74085    0.81161    0.43486    1.000
    O11      O        0.62291    0.01245    0.46516    1.000
    O12      O        0.49938    0.55098    0.33136    1.000
    O13      O        0.62325    0.19401    0.93486    1.000
    O14      O        0.45271    0.34225    0.96516    1.000
    O15      O        0.78038    0.33198    0.83136    1.000
    O16      O        0.81161    0.74085    0.93486    1.000
    O17      O        0.01245    0.62291    0.96516    1.000
    O18      O        0.55098    0.49938    0.83136    1.000
    O19      O        0.80599    0.37675    0.56514    1.000
    O20      O        0.65775    0.54729    0.53484    1.000
    O21      O        0.66802    0.21962    0.66864    1.000
    O22      O        0.25915    0.18839    0.56514    1.000
    O23      O        0.37709    0.98755    0.53484    1.000
    O24      O        0.50062    0.44902    0.66864    1.000
