# CIF file generated by openbabel 3.1.0, see https://openbabel.org
data_I
_chemical_name_common 'image0'
_cell_length_a 32.6919
_cell_length_b 32.6919
_cell_length_c 32.6919
_cell_angle_alpha 90
_cell_angle_beta 90
_cell_angle_gamma 90
_space_group_name_H-M_alt 'P 1'
_space_group_name_Hall 'P 1'
loop_
    _symmetry_equiv_pos_as_xyz
    x,y,z
loop_
    _atom_site_label
    _atom_site_type_symbol
    _atom_site_fract_x
    _atom_site_fract_y
    _atom_site_fract_z
    _atom_site_occupancy
    H1       H        0.30350    0.57530    0.79400    1.000
    H2       H        0.25790    0.58900    0.79680    1.000
    N1       N        0.28696    0.61301    0.74533    1.000
    N2       N        0.31697    0.61037    0.72260    1.000
    N3       N        0.34712    0.60726    0.70014    1.000
    H3       H        0.30350    0.07530    0.29400    1.000
    H4       H        0.25790    0.08900    0.29680    1.000
    N4       N        0.28696    0.11301    0.24533    1.000
    N5       N        0.31697    0.11037    0.22260    1.000
    N6       N        0.34712    0.10726    0.20014    1.000
    H5       H        0.80350    0.57530    0.29400    1.000
    H6       H        0.75790    0.58900    0.29680    1.000
    N7       N        0.78696    0.61301    0.24533    1.000
    N8       N        0.81697    0.61037    0.22260    1.000
    N9       N        0.84712    0.60726    0.20014    1.000
    H7       H        0.80350    0.07530    0.79400    1.000
    H8       H        0.75790    0.08900    0.79680    1.000
    N10      N        0.78696    0.11301    0.74533    1.000
    N11      N        0.81697    0.11037    0.72260    1.000
    N12      N        0.84712    0.10726    0.70014    1.000
    H9       H        0.69650    0.42470    0.79400    1.000
    H10      H        0.74210    0.41100    0.79680    1.000
    N13      N        0.71304    0.38699    0.74533    1.000
    N14      N        0.68303    0.38963    0.72260    1.000
    N15      N        0.65288    0.39274    0.70014    1.000
    H11      H        0.69650    0.92470    0.29400    1.000
    H12      H        0.74210    0.91100    0.29680    1.000
    N16      N        0.71304    0.88699    0.24533    1.000
    N17      N        0.68303    0.88963    0.22260    1.000
    N18      N        0.65288    0.89274    0.20014    1.000
    H13      H        0.19650    0.42470    0.29400    1.000
    H14      H        0.24210    0.41100    0.29680    1.000
    N19      N        0.21304    0.38699    0.24533    1.000
    N20      N        0.18303    0.38963    0.22260    1.000
    N21      N        0.15288    0.39274    0.20014    1.000
    H15      H        0.19650    0.92470    0.79400    1.000
    H16      H        0.24210    0.91100    0.79680    1.000
    N22      N        0.21304    0.88699    0.74533    1.000
    N23      N        0.18303    0.88963    0.72260    1.000
    N24      N        0.15288    0.89274    0.70014    1.000
    H17      H        0.69650    0.57530    0.20600    1.000
    H18      H        0.74210    0.58900    0.20320    1.000
    N25      N        0.71304    0.61301    0.25467    1.000
    N26      N        0.68303    0.61037    0.27740    1.000
    N27      N        0.65288    0.60726    0.29986    1.000
    H19      H        0.69650    0.07530    0.70600    1.000
    H20      H        0.74210    0.08900    0.70320    1.000
    N28      N        0.71304    0.11301    0.75467    1.000
    N29      N        0.68303    0.11037    0.77740    1.000
    N30      N        0.65288    0.10726    0.79986    1.000
    H21      H        0.19650    0.57530    0.70600    1.000
    H22      H        0.24210    0.58900    0.70320    1.000
    N31      N        0.21304    0.61301    0.75467    1.000
    N32      N        0.18303    0.61037    0.77740    1.000
    N33      N        0.15288    0.60726    0.79986    1.000
    H23      H        0.19650    0.07530    0.20600    1.000
    H24      H        0.24210    0.08900    0.20320    1.000
    N34      N        0.21304    0.11301    0.25467    1.000
    N35      N        0.18303    0.11037    0.27740    1.000
    N36      N        0.15288    0.10726    0.29986    1.000
    H25      H        0.30350    0.42470    0.20600    1.000
    H26      H        0.25790    0.41100    0.20320    1.000
    N37      N        0.28696    0.38699    0.25467    1.000
    N38      N        0.31697    0.38963    0.27740    1.000
    N39      N        0.34712    0.39274    0.29986    1.000
    H27      H        0.30350    0.92470    0.70600    1.000
    H28      H        0.25790    0.91100    0.70320    1.000
    N40      N        0.28696    0.88699    0.75467    1.000
    N41      N        0.31697    0.88963    0.77740    1.000
    N42      N        0.34712    0.89274    0.79986    1.000
    H29      H        0.80350    0.42470    0.70600    1.000
    H30      H        0.75790    0.41100    0.70320    1.000
    N43      N        0.78696    0.38699    0.75467    1.000
    N44      N        0.81697    0.38963    0.77740    1.000
    N45      N        0.84712    0.39274    0.79986    1.000
    H31      H        0.80350    0.92470    0.20600    1.000
    H32      H        0.75790    0.91100    0.20320    1.000
    N46      N        0.78696    0.88699    0.25467    1.000
    N47      N        0.81697    0.88963    0.27740    1.000
    N48      N        0.84712    0.89274    0.29986    1.000
    H33      H        0.79400    0.30350    0.57530    1.000
    H34      H        0.79680    0.25790    0.58900    1.000
    N49      N        0.74533    0.28696    0.61301    1.000
    N50      N        0.72260    0.31697    0.61037    1.000
    N51      N        0.70014    0.34712    0.60726    1.000
    H35      H        0.79400    0.80350    0.07530    1.000
    H36      H        0.79680    0.75790    0.08900    1.000
    N52      N        0.74533    0.78696    0.11301    1.000
    N53      N        0.72260    0.81697    0.11037    1.000
    N54      N        0.70014    0.84712    0.10726    1.000
    H37      H        0.29400    0.30350    0.07530    1.000
    H38      H        0.29680    0.25790    0.08900    1.000
    N55      N        0.24533    0.28696    0.11301    1.000
    N56      N        0.22260    0.31697    0.11037    1.000
    N57      N        0.20014    0.34712    0.10726    1.000
    H39      H        0.29400    0.80350    0.57530    1.000
    H40      H        0.29680    0.75790    0.58900    1.000
    N58      N        0.24533    0.78696    0.61301    1.000
    N59      N        0.22260    0.81697    0.61037    1.000
    N60      N        0.20014    0.84712    0.60726    1.000
    H41      H        0.79400    0.69650    0.42470    1.000
    H42      H        0.79680    0.74210    0.41100    1.000
    N61      N        0.74533    0.71304    0.38699    1.000
    N62      N        0.72260    0.68303    0.38963    1.000
    N63      N        0.70014    0.65288    0.39274    1.000
    H43      H        0.79400    0.19650    0.92470    1.000
    H44      H        0.79680    0.24210    0.91100    1.000
    N64      N        0.74533    0.21304    0.88699    1.000
    N65      N        0.72260    0.18303    0.88963    1.000
    N66      N        0.70014    0.15288    0.89274    1.000
    H45      H        0.29400    0.69650    0.92470    1.000
    H46      H        0.29680    0.74210    0.91100    1.000
    N67      N        0.24533    0.71304    0.88699    1.000
    N68      N        0.22260    0.68303    0.88963    1.000
    N69      N        0.20014    0.65288    0.89274    1.000
    H47      H        0.29400    0.19650    0.42470    1.000
    H48      H        0.29680    0.24210    0.41100    1.000
    N70      N        0.24533    0.21304    0.38699    1.000
    N71      N        0.22260    0.18303    0.38963    1.000
    N72      N        0.20014    0.15288    0.39274    1.000
    H49      H        0.20600    0.69650    0.57530    1.000
    H50      H        0.20320    0.74210    0.58900    1.000
    N73      N        0.25467    0.71304    0.61301    1.000
    N74      N        0.27740    0.68303    0.61037    1.000
    N75      N        0.29986    0.65288    0.60726    1.000
    H51      H        0.20600    0.19650    0.07530    1.000
    H52      H        0.20320    0.24210    0.08900    1.000
    N76      N        0.25467    0.21304    0.11301    1.000
    N77      N        0.27740    0.18303    0.11037    1.000
    N78      N        0.29986    0.15288    0.10726    1.000
    H53      H        0.70600    0.69650    0.07530    1.000
    H54      H        0.70320    0.74210    0.08900    1.000
    N79      N        0.75467    0.71304    0.11301    1.000
    N80      N        0.77740    0.68303    0.11037    1.000
    N81      N        0.79986    0.65288    0.10726    1.000
    H55      H        0.70600    0.19650    0.57530    1.000
    H56      H        0.70320    0.24210    0.58900    1.000
    N82      N        0.75467    0.21304    0.61301    1.000
    N83      N        0.77740    0.18303    0.61037    1.000
    N84      N        0.79986    0.15288    0.60726    1.000
    H57      H        0.20600    0.30350    0.42470    1.000
    H58      H        0.20320    0.25790    0.41100    1.000
    N85      N        0.25467    0.28696    0.38699    1.000
    N86      N        0.27740    0.31697    0.38963    1.000
    N87      N        0.29986    0.34712    0.39274    1.000
    H59      H        0.20600    0.80350    0.92470    1.000
    H60      H        0.20320    0.75790    0.91100    1.000
    N88      N        0.25467    0.78696    0.88699    1.000
    N89      N        0.27740    0.81697    0.88963    1.000
    N90      N        0.29986    0.84712    0.89274    1.000
    H61      H        0.70600    0.30350    0.92470    1.000
    H62      H        0.70320    0.25790    0.91100    1.000
    N91      N        0.75467    0.28696    0.88699    1.000
    N92      N        0.77740    0.31697    0.88963    1.000
    N93      N        0.79986    0.34712    0.89274    1.000
    H63      H        0.70600    0.80350    0.42470    1.000
    H64      H        0.70320    0.75790    0.41100    1.000
    N94      N        0.75467    0.78696    0.38699    1.000
    N95      N        0.77740    0.81697    0.38963    1.000
    N96      N        0.79986    0.84712    0.39274    1.000
    H65      H        0.57530    0.79400    0.30350    1.000
    H66      H        0.58900    0.79680    0.25790    1.000
    N97      N        0.61301    0.74533    0.28696    1.000
    N98      N        0.61037    0.72260    0.31697    1.000
    N99      N        0.60726    0.70014    0.34712    1.000
    H67      H        0.57530    0.29400    0.80350    1.000
    H68      H        0.58900    0.29680    0.75790    1.000
    N100     N        0.61301    0.24533    0.78696    1.000
    N101     N        0.61037    0.22260    0.81697    1.000
    N102     N        0.60726    0.20014    0.84712    1.000
    H69      H        0.07530    0.79400    0.80350    1.000
    H70      H        0.08900    0.79680    0.75790    1.000
    N103     N        0.11301    0.74533    0.78696    1.000
    N104     N        0.11037    0.72260    0.81697    1.000
    N105     N        0.10726    0.70014    0.84712    1.000
    H71      H        0.07530    0.29400    0.30350    1.000
    H72      H        0.08900    0.29680    0.25790    1.000
    N106     N        0.11301    0.24533    0.28696    1.000
    N107     N        0.11037    0.22260    0.31697    1.000
    N108     N        0.10726    0.20014    0.34712    1.000
    H73      H        0.42470    0.79400    0.69650    1.000
    H74      H        0.41100    0.79680    0.74210    1.000
    N109     N        0.38699    0.74533    0.71304    1.000
    N110     N        0.38963    0.72260    0.68303    1.000
    N111     N        0.39274    0.70014    0.65288    1.000
    H75      H        0.42470    0.29400    0.19650    1.000
    H76      H        0.41100    0.29680    0.24210    1.000
    N112     N        0.38699    0.24533    0.21304    1.000
    N113     N        0.38963    0.22260    0.18303    1.000
    N114     N        0.39274    0.20014    0.15288    1.000
    H77      H        0.92470    0.79400    0.19650    1.000
    H78      H        0.91100    0.79680    0.24210    1.000
    N115     N        0.88699    0.74533    0.21304    1.000
    N116     N        0.88963    0.72260    0.18303    1.000
    N117     N        0.89274    0.70014    0.15288    1.000
    H79      H        0.92470    0.29400    0.69650    1.000
    H80      H        0.91100    0.29680    0.74210    1.000
    N118     N        0.88699    0.24533    0.71304    1.000
    N119     N        0.88963    0.22260    0.68303    1.000
    N120     N        0.89274    0.20014    0.65288    1.000
    H81      H        0.57530    0.20600    0.69650    1.000
    H82      H        0.58900    0.20320    0.74210    1.000
    N121     N        0.61301    0.25467    0.71304    1.000
    N122     N        0.61037    0.27740    0.68303    1.000
    N123     N        0.60726    0.29986    0.65288    1.000
    H83      H        0.57530    0.70600    0.19650    1.000
    H84      H        0.58900    0.70320    0.24210    1.000
    N124     N        0.61301    0.75467    0.21304    1.000
    N125     N        0.61037    0.77740    0.18303    1.000
    N126     N        0.60726    0.79986    0.15288    1.000
    H85      H        0.07530    0.20600    0.19650    1.000
    H86      H        0.08900    0.20320    0.24210    1.000
    N127     N        0.11301    0.25467    0.21304    1.000
    N128     N        0.11037    0.27740    0.18303    1.000
    N129     N        0.10726    0.29986    0.15288    1.000
    H87      H        0.07530    0.70600    0.69650    1.000
    H88      H        0.08900    0.70320    0.74210    1.000
    N130     N        0.11301    0.75467    0.71304    1.000
    N131     N        0.11037    0.77740    0.68303    1.000
    N132     N        0.10726    0.79986    0.65288    1.000
    H89      H        0.42470    0.20600    0.30350    1.000
    H90      H        0.41100    0.20320    0.25790    1.000
    N133     N        0.38699    0.25467    0.28696    1.000
    N134     N        0.38963    0.27740    0.31697    1.000
    N135     N        0.39274    0.29986    0.34712    1.000
    H91      H        0.42470    0.70600    0.80350    1.000
    H92      H        0.41100    0.70320    0.75790    1.000
    N136     N        0.38699    0.75467    0.78696    1.000
    N137     N        0.38963    0.77740    0.81697    1.000
    N138     N        0.39274    0.79986    0.84712    1.000
    H93      H        0.92470    0.20600    0.80350    1.000
    H94      H        0.91100    0.20320    0.75790    1.000
    N139     N        0.88699    0.25467    0.78696    1.000
    N140     N        0.88963    0.27740    0.81697    1.000
    N141     N        0.89274    0.29986    0.84712    1.000
    H95      H        0.92470    0.70600    0.30350    1.000
    H96      H        0.91100    0.70320    0.25790    1.000
    N142     N        0.88699    0.75467    0.28696    1.000
    N143     N        0.88963    0.77740    0.31697    1.000
    N144     N        0.89274    0.79986    0.34712    1.000
    H97      H        0.57530    0.30350    0.20600    1.000
    H98      H        0.58900    0.25790    0.20320    1.000
    N145     N        0.61301    0.28696    0.25467    1.000
    N146     N        0.61037    0.31697    0.27740    1.000
    N147     N        0.60726    0.34712    0.29986    1.000
    H99      H        0.57530    0.80350    0.70600    1.000
    H100     H        0.58900    0.75790    0.70320    1.000
    N148     N        0.61301    0.78696    0.75467    1.000
    N149     N        0.61037    0.81697    0.77740    1.000
    N150     N        0.60726    0.84712    0.79986    1.000
    H101     H        0.07530    0.30350    0.70600    1.000
    H102     H        0.08900    0.25790    0.70320    1.000
    N151     N        0.11301    0.28696    0.75467    1.000
    N152     N        0.11037    0.31697    0.77740    1.000
    N153     N        0.10726    0.34712    0.79986    1.000
    H103     H        0.07530    0.80350    0.20600    1.000
    H104     H        0.08900    0.75790    0.20320    1.000
    N154     N        0.11301    0.78696    0.25467    1.000
    N155     N        0.11037    0.81697    0.27740    1.000
    N156     N        0.10726    0.84712    0.29986    1.000
    H105     H        0.42470    0.69650    0.20600    1.000
    H106     H        0.41100    0.74210    0.20320    1.000
    N157     N        0.38699    0.71304    0.25467    1.000
    N158     N        0.38963    0.68303    0.27740    1.000
    N159     N        0.39274    0.65288    0.29986    1.000
    H107     H        0.42470    0.19650    0.70600    1.000
    H108     H        0.41100    0.24210    0.70320    1.000
    N160     N        0.38699    0.21304    0.75467    1.000
    N161     N        0.38963    0.18303    0.77740    1.000
    N162     N        0.39274    0.15288    0.79986    1.000
    H109     H        0.92470    0.69650    0.70600    1.000
    H110     H        0.91100    0.74210    0.70320    1.000
    N163     N        0.88699    0.71304    0.75467    1.000
    N164     N        0.88963    0.68303    0.77740    1.000
    N165     N        0.89274    0.65288    0.79986    1.000
    H111     H        0.92470    0.19650    0.20600    1.000
    H112     H        0.91100    0.24210    0.20320    1.000
    N166     N        0.88699    0.21304    0.25467    1.000
    N167     N        0.88963    0.18303    0.27740    1.000
    N168     N        0.89274    0.15288    0.29986    1.000
    H113     H        0.57530    0.69650    0.79400    1.000
    H114     H        0.58900    0.74210    0.79680    1.000
    N169     N        0.61301    0.71304    0.74533    1.000
    N170     N        0.61037    0.68303    0.72260    1.000
    N171     N        0.60726    0.65288    0.70014    1.000
    H115     H        0.57530    0.19650    0.29400    1.000
    H116     H        0.58900    0.24210    0.29680    1.000
    N172     N        0.61301    0.21304    0.24533    1.000
    N173     N        0.61037    0.18303    0.22260    1.000
    N174     N        0.60726    0.15288    0.20014    1.000
    H117     H        0.07530    0.69650    0.29400    1.000
    H118     H        0.08900    0.74210    0.29680    1.000
    N175     N        0.11301    0.71304    0.24533    1.000
    N176     N        0.11037    0.68303    0.22260    1.000
    N177     N        0.10726    0.65288    0.20014    1.000
    H119     H        0.07530    0.19650    0.79400    1.000
    H120     H        0.08900    0.24210    0.79680    1.000
    N178     N        0.11301    0.21304    0.74533    1.000
    N179     N        0.11037    0.18303    0.72260    1.000
    N180     N        0.10726    0.15288    0.70014    1.000
    H121     H        0.42470    0.30350    0.79400    1.000
    H122     H        0.41100    0.25790    0.79680    1.000
    N181     N        0.38699    0.28696    0.74533    1.000
    N182     N        0.38963    0.31697    0.72260    1.000
    N183     N        0.39274    0.34712    0.70014    1.000
    H123     H        0.42470    0.80350    0.29400    1.000
    H124     H        0.41100    0.75790    0.29680    1.000
    N184     N        0.38699    0.78696    0.24533    1.000
    N185     N        0.38963    0.81697    0.22260    1.000
    N186     N        0.39274    0.84712    0.20014    1.000
    H125     H        0.92470    0.30350    0.29400    1.000
    H126     H        0.91100    0.25790    0.29680    1.000
    N187     N        0.88699    0.28696    0.24533    1.000
    N188     N        0.88963    0.31697    0.22260    1.000
    N189     N        0.89274    0.34712    0.20014    1.000
    H127     H        0.92470    0.80350    0.79400    1.000
    H128     H        0.91100    0.75790    0.79680    1.000
    N190     N        0.88699    0.78696    0.74533    1.000
    N191     N        0.88963    0.81697    0.72260    1.000
    N192     N        0.89274    0.84712    0.70014    1.000
    H129     H        0.30350    0.79400    0.42470    1.000
    H130     H        0.25790    0.79680    0.41100    1.000
    N193     N        0.28696    0.74533    0.38699    1.000
    N194     N        0.31697    0.72260    0.38963    1.000
    N195     N        0.34712    0.70014    0.39274    1.000
    H131     H        0.30350    0.29400    0.92470    1.000
    H132     H        0.25790    0.29680    0.91100    1.000
    N196     N        0.28696    0.24533    0.88699    1.000
    N197     N        0.31697    0.22260    0.88963    1.000
    N198     N        0.34712    0.20014    0.89274    1.000
    H133     H        0.80350    0.79400    0.92470    1.000
    H134     H        0.75790    0.79680    0.91100    1.000
    N199     N        0.78696    0.74533    0.88699    1.000
    N200     N        0.81697    0.72260    0.88963    1.000
    N201     N        0.84712    0.70014    0.89274    1.000
    H135     H        0.80350    0.29400    0.42470    1.000
    H136     H        0.75790    0.29680    0.41100    1.000
    N202     N        0.78696    0.24533    0.38699    1.000
    N203     N        0.81697    0.22260    0.38963    1.000
    N204     N        0.84712    0.20014    0.39274    1.000
    H137     H        0.69650    0.79400    0.57530    1.000
    H138     H        0.74210    0.79680    0.58900    1.000
    N205     N        0.71304    0.74533    0.61301    1.000
    N206     N        0.68303    0.72260    0.61037    1.000
    N207     N        0.65288    0.70014    0.60726    1.000
    H139     H        0.69650    0.29400    0.07530    1.000
    H140     H        0.74210    0.29680    0.08900    1.000
    N208     N        0.71304    0.24533    0.11301    1.000
    N209     N        0.68303    0.22260    0.11037    1.000
    N210     N        0.65288    0.20014    0.10726    1.000
    H141     H        0.19650    0.79400    0.07530    1.000
    H142     H        0.24210    0.79680    0.08900    1.000
    N211     N        0.21304    0.74533    0.11301    1.000
    N212     N        0.18303    0.72260    0.11037    1.000
    N213     N        0.15288    0.70014    0.10726    1.000
    H143     H        0.19650    0.29400    0.57530    1.000
    H144     H        0.24210    0.29680    0.58900    1.000
    N214     N        0.21304    0.24533    0.61301    1.000
    N215     N        0.18303    0.22260    0.61037    1.000
    N216     N        0.15288    0.20014    0.60726    1.000
    H145     H        0.69650    0.20600    0.42470    1.000
    H146     H        0.74210    0.20320    0.41100    1.000
    N217     N        0.71304    0.25467    0.38699    1.000
    N218     N        0.68303    0.27740    0.38963    1.000
    N219     N        0.65288    0.29986    0.39274    1.000
    H147     H        0.69650    0.70600    0.92470    1.000
    H148     H        0.74210    0.70320    0.91100    1.000
    N220     N        0.71304    0.75467    0.88699    1.000
    N221     N        0.68303    0.77740    0.88963    1.000
    N222     N        0.65288    0.79986    0.89274    1.000
    H149     H        0.19650    0.20600    0.92470    1.000
    H150     H        0.24210    0.20320    0.91100    1.000
    N223     N        0.21304    0.25467    0.88699    1.000
    N224     N        0.18303    0.27740    0.88963    1.000
    N225     N        0.15288    0.29986    0.89274    1.000
    H151     H        0.19650    0.70600    0.42470    1.000
    H152     H        0.24210    0.70320    0.41100    1.000
    N226     N        0.21304    0.75467    0.38699    1.000
    N227     N        0.18303    0.77740    0.38963    1.000
    N228     N        0.15288    0.79986    0.39274    1.000
    H153     H        0.30350    0.20600    0.57530    1.000
    H154     H        0.25790    0.20320    0.58900    1.000
    N229     N        0.28696    0.25467    0.61301    1.000
    N230     N        0.31697    0.27740    0.61037    1.000
    N231     N        0.34712    0.29986    0.60726    1.000
    H155     H        0.30350    0.70600    0.07530    1.000
    H156     H        0.25790    0.70320    0.08900    1.000
    N232     N        0.28696    0.75467    0.11301    1.000
    N233     N        0.31697    0.77740    0.11037    1.000
    N234     N        0.34712    0.79986    0.10726    1.000
    H157     H        0.80350    0.20600    0.07530    1.000
    H158     H        0.75790    0.20320    0.08900    1.000
    N235     N        0.78696    0.25467    0.11301    1.000
    N236     N        0.81697    0.27740    0.11037    1.000
    N237     N        0.84712    0.29986    0.10726    1.000
    H159     H        0.80350    0.70600    0.57530    1.000
    H160     H        0.75790    0.70320    0.58900    1.000
    N238     N        0.78696    0.75467    0.61301    1.000
    N239     N        0.81697    0.77740    0.61037    1.000
    N240     N        0.84712    0.79986    0.60726    1.000
    H161     H        0.79400    0.57530    0.69650    1.000
    H162     H        0.79680    0.58900    0.74210    1.000
    N241     N        0.74533    0.61301    0.71304    1.000
    N242     N        0.72260    0.61037    0.68303    1.000
    N243     N        0.70014    0.60726    0.65288    1.000
    H163     H        0.79400    0.07530    0.19650    1.000
    H164     H        0.79680    0.08900    0.24210    1.000
    N244     N        0.74533    0.11301    0.21304    1.000
    N245     N        0.72260    0.11037    0.18303    1.000
    N246     N        0.70014    0.10726    0.15288    1.000
    H165     H        0.29400    0.57530    0.19650    1.000
    H166     H        0.29680    0.58900    0.24210    1.000
    N247     N        0.24533    0.61301    0.21304    1.000
    N248     N        0.22260    0.61037    0.18303    1.000
    N249     N        0.20014    0.60726    0.15288    1.000
    H167     H        0.29400    0.07530    0.69650    1.000
    H168     H        0.29680    0.08900    0.74210    1.000
    N250     N        0.24533    0.11301    0.71304    1.000
    N251     N        0.22260    0.11037    0.68303    1.000
    N252     N        0.20014    0.10726    0.65288    1.000
    H169     H        0.79400    0.42470    0.30350    1.000
    H170     H        0.79680    0.41100    0.25790    1.000
    N253     N        0.74533    0.38699    0.28696    1.000
    N254     N        0.72260    0.38963    0.31697    1.000
    N255     N        0.70014    0.39274    0.34712    1.000
    H171     H        0.79400    0.92470    0.80350    1.000
    H172     H        0.79680    0.91100    0.75790    1.000
    N256     N        0.74533    0.88699    0.78696    1.000
    N257     N        0.72260    0.88963    0.81697    1.000
    N258     N        0.70014    0.89274    0.84712    1.000
    H173     H        0.29400    0.42470    0.80350    1.000
    H174     H        0.29680    0.41100    0.75790    1.000
    N259     N        0.24533    0.38699    0.78696    1.000
    N260     N        0.22260    0.38963    0.81697    1.000
    N261     N        0.20014    0.39274    0.84712    1.000
    H175     H        0.29400    0.92470    0.30350    1.000
    H176     H        0.29680    0.91100    0.25790    1.000
    N262     N        0.24533    0.88699    0.28696    1.000
    N263     N        0.22260    0.88963    0.31697    1.000
    N264     N        0.20014    0.89274    0.34712    1.000
    H177     H        0.20600    0.57530    0.30350    1.000
    H178     H        0.20320    0.58900    0.25790    1.000
    N265     N        0.25467    0.61301    0.28696    1.000
    N266     N        0.27740    0.61037    0.31697    1.000
    N267     N        0.29986    0.60726    0.34712    1.000
    H179     H        0.20600    0.07530    0.80350    1.000
    H180     H        0.20320    0.08900    0.75790    1.000
    N268     N        0.25467    0.11301    0.78696    1.000
    N269     N        0.27740    0.11037    0.81697    1.000
    N270     N        0.29986    0.10726    0.84712    1.000
    H181     H        0.70600    0.57530    0.80350    1.000
    H182     H        0.70320    0.58900    0.75790    1.000
    N271     N        0.75467    0.61301    0.78696    1.000
    N272     N        0.77740    0.61037    0.81697    1.000
    N273     N        0.79986    0.60726    0.84712    1.000
    H183     H        0.70600    0.07530    0.30350    1.000
    H184     H        0.70320    0.08900    0.25790    1.000
    N274     N        0.75467    0.11301    0.28696    1.000
    N275     N        0.77740    0.11037    0.31697    1.000
    N276     N        0.79986    0.10726    0.34712    1.000
    H185     H        0.20600    0.42470    0.69650    1.000
    H186     H        0.20320    0.41100    0.74210    1.000
    N277     N        0.25467    0.38699    0.71304    1.000
    N278     N        0.27740    0.38963    0.68303    1.000
    N279     N        0.29986    0.39274    0.65288    1.000
    H187     H        0.20600    0.92470    0.19650    1.000
    H188     H        0.20320    0.91100    0.24210    1.000
    N280     N        0.25467    0.88699    0.21304    1.000
    N281     N        0.27740    0.88963    0.18303    1.000
    N282     N        0.29986    0.89274    0.15288    1.000
    H189     H        0.70600    0.42470    0.19650    1.000
    H190     H        0.70320    0.41100    0.24210    1.000
    N283     N        0.75467    0.38699    0.21304    1.000
    N284     N        0.77740    0.38963    0.18303    1.000
    N285     N        0.79986    0.39274    0.15288    1.000
    H191     H        0.70600    0.92470    0.69650    1.000
    H192     H        0.70320    0.91100    0.74210    1.000
    N286     N        0.75467    0.88699    0.71304    1.000
    N287     N        0.77740    0.88963    0.68303    1.000
    N288     N        0.79986    0.89274    0.65288    1.000
    H193     H        0.69650    0.42470    0.20600    1.000
    H194     H        0.74210    0.41100    0.20320    1.000
    N289     N        0.71304    0.38699    0.25467    1.000
    N290     N        0.68303    0.38963    0.27740    1.000
    N291     N        0.65288    0.39274    0.29986    1.000
    H195     H        0.69650    0.92470    0.70600    1.000
    H196     H        0.74210    0.91100    0.70320    1.000
    N292     N        0.71304    0.88699    0.75467    1.000
    N293     N        0.68303    0.88963    0.77740    1.000
    N294     N        0.65288    0.89274    0.79986    1.000
    H197     H        0.19650    0.42470    0.70600    1.000
    H198     H        0.24210    0.41100    0.70320    1.000
    N295     N        0.21304    0.38699    0.75467    1.000
    N296     N        0.18303    0.38963    0.77740    1.000
    N297     N        0.15288    0.39274    0.79986    1.000
    H199     H        0.19650    0.92470    0.20600    1.000
    H200     H        0.24210    0.91100    0.20320    1.000
    N298     N        0.21304    0.88699    0.25467    1.000
    N299     N        0.18303    0.88963    0.27740    1.000
    N300     N        0.15288    0.89274    0.29986    1.000
    H201     H        0.30350    0.57530    0.20600    1.000
    H202     H        0.25790    0.58900    0.20320    1.000
    N301     N        0.28696    0.61301    0.25467    1.000
    N302     N        0.31697    0.61037    0.27740    1.000
    N303     N        0.34712    0.60726    0.29986    1.000
    H203     H        0.30350    0.07530    0.70600    1.000
    H204     H        0.25790    0.08900    0.70320    1.000
    N304     N        0.28696    0.11301    0.75467    1.000
    N305     N        0.31697    0.11037    0.77740    1.000
    N306     N        0.34712    0.10726    0.79986    1.000
    H205     H        0.80350    0.57530    0.70600    1.000
    H206     H        0.75790    0.58900    0.70320    1.000
    N307     N        0.78696    0.61301    0.75467    1.000
    N308     N        0.81697    0.61037    0.77740    1.000
    N309     N        0.84712    0.60726    0.79986    1.000
    H207     H        0.80350    0.07530    0.20600    1.000
    H208     H        0.75790    0.08900    0.20320    1.000
    N310     N        0.78696    0.11301    0.25467    1.000
    N311     N        0.81697    0.11037    0.27740    1.000
    N312     N        0.84712    0.10726    0.29986    1.000
    H209     H        0.30350    0.42470    0.79400    1.000
    H210     H        0.25790    0.41100    0.79680    1.000
    N313     N        0.28696    0.38699    0.74533    1.000
    N314     N        0.31697    0.38963    0.72260    1.000
    N315     N        0.34712    0.39274    0.70014    1.000
    H211     H        0.30350    0.92470    0.29400    1.000
    H212     H        0.25790    0.91100    0.29680    1.000
    N316     N        0.28696    0.88699    0.24533    1.000
    N317     N        0.31697    0.88963    0.22260    1.000
    N318     N        0.34712    0.89274    0.20014    1.000
    H213     H        0.80350    0.42470    0.29400    1.000
    H214     H        0.75790    0.41100    0.29680    1.000
    N319     N        0.78696    0.38699    0.24533    1.000
    N320     N        0.81697    0.38963    0.22260    1.000
    N321     N        0.84712    0.39274    0.20014    1.000
    H215     H        0.80350    0.92470    0.79400    1.000
    H216     H        0.75790    0.91100    0.79680    1.000
    N322     N        0.78696    0.88699    0.74533    1.000
    N323     N        0.81697    0.88963    0.72260    1.000
    N324     N        0.84712    0.89274    0.70014    1.000
    H217     H        0.69650    0.57530    0.79400    1.000
    H218     H        0.74210    0.58900    0.79680    1.000
    N325     N        0.71304    0.61301    0.74533    1.000
    N326     N        0.68303    0.61037    0.72260    1.000
    N327     N        0.65288    0.60726    0.70014    1.000
    H219     H        0.69650    0.07530    0.29400    1.000
    H220     H        0.74210    0.08900    0.29680    1.000
    N328     N        0.71304    0.11301    0.24533    1.000
    N329     N        0.68303    0.11037    0.22260    1.000
    N330     N        0.65288    0.10726    0.20014    1.000
    H221     H        0.19650    0.57530    0.29400    1.000
    H222     H        0.24210    0.58900    0.29680    1.000
    N331     N        0.21304    0.61301    0.24533    1.000
    N332     N        0.18303    0.61037    0.22260    1.000
    N333     N        0.15288    0.60726    0.20014    1.000
    H223     H        0.19650    0.07530    0.79400    1.000
    H224     H        0.24210    0.08900    0.79680    1.000
    N334     N        0.21304    0.11301    0.74533    1.000
    N335     N        0.18303    0.11037    0.72260    1.000
    N336     N        0.15288    0.10726    0.70014    1.000
    H225     H        0.20600    0.69650    0.42470    1.000
    H226     H        0.20320    0.74210    0.41100    1.000
    N337     N        0.25467    0.71304    0.38699    1.000
    N338     N        0.27740    0.68303    0.38963    1.000
    N339     N        0.29986    0.65288    0.39274    1.000
    H227     H        0.20600    0.19650    0.92470    1.000
    H228     H        0.20320    0.24210    0.91100    1.000
    N340     N        0.25467    0.21304    0.88699    1.000
    N341     N        0.27740    0.18303    0.88963    1.000
    N342     N        0.29986    0.15288    0.89274    1.000
    H229     H        0.70600    0.69650    0.92470    1.000
    H230     H        0.70320    0.74210    0.91100    1.000
    N343     N        0.75467    0.71304    0.88699    1.000
    N344     N        0.77740    0.68303    0.88963    1.000
    N345     N        0.79986    0.65288    0.89274    1.000
    H231     H        0.70600    0.19650    0.42470    1.000
    H232     H        0.70320    0.24210    0.41100    1.000
    N346     N        0.75467    0.21304    0.38699    1.000
    N347     N        0.77740    0.18303    0.38963    1.000
    N348     N        0.79986    0.15288    0.39274    1.000
    H233     H        0.20600    0.30350    0.57530    1.000
    H234     H        0.20320    0.25790    0.58900    1.000
    N349     N        0.25467    0.28696    0.61301    1.000
    N350     N        0.27740    0.31697    0.61037    1.000
    N351     N        0.29986    0.34712    0.60726    1.000
    H235     H        0.20600    0.80350    0.07530    1.000
    H236     H        0.20320    0.75790    0.08900    1.000
    N352     N        0.25467    0.78696    0.11301    1.000
    N353     N        0.27740    0.81697    0.11037    1.000
    N354     N        0.29986    0.84712    0.10726    1.000
    H237     H        0.70600    0.30350    0.07530    1.000
    H238     H        0.70320    0.25790    0.08900    1.000
    N355     N        0.75467    0.28696    0.11301    1.000
    N356     N        0.77740    0.31697    0.11037    1.000
    N357     N        0.79986    0.34712    0.10726    1.000
    H239     H        0.70600    0.80350    0.57530    1.000
    H240     H        0.70320    0.75790    0.58900    1.000
    N358     N        0.75467    0.78696    0.61301    1.000
    N359     N        0.77740    0.81697    0.61037    1.000
    N360     N        0.79986    0.84712    0.60726    1.000
    H241     H        0.79400    0.30350    0.42470    1.000
    H242     H        0.79680    0.25790    0.41100    1.000
    N361     N        0.74533    0.28696    0.38699    1.000
    N362     N        0.72260    0.31697    0.38963    1.000
    N363     N        0.70014    0.34712    0.39274    1.000
    H243     H        0.79400    0.80350    0.92470    1.000
    H244     H        0.79680    0.75790    0.91100    1.000
    N364     N        0.74533    0.78696    0.88699    1.000
    N365     N        0.72260    0.81697    0.88963    1.000
    N366     N        0.70014    0.84712    0.89274    1.000
    H245     H        0.29400    0.30350    0.92470    1.000
    H246     H        0.29680    0.25790    0.91100    1.000
    N367     N        0.24533    0.28696    0.88699    1.000
    N368     N        0.22260    0.31697    0.88963    1.000
    N369     N        0.20014    0.34712    0.89274    1.000
    H247     H        0.29400    0.80350    0.42470    1.000
    H248     H        0.29680    0.75790    0.41100    1.000
    N370     N        0.24533    0.78696    0.38699    1.000
    N371     N        0.22260    0.81697    0.38963    1.000
    N372     N        0.20014    0.84712    0.39274    1.000
    H249     H        0.79400    0.69650    0.57530    1.000
    H250     H        0.79680    0.74210    0.58900    1.000
    N373     N        0.74533    0.71304    0.61301    1.000
    N374     N        0.72260    0.68303    0.61037    1.000
    N375     N        0.70014    0.65288    0.60726    1.000
    H251     H        0.79400    0.19650    0.07530    1.000
    H252     H        0.79680    0.24210    0.08900    1.000
    N376     N        0.74533    0.21304    0.11301    1.000
    N377     N        0.72260    0.18303    0.11037    1.000
    N378     N        0.70014    0.15288    0.10726    1.000
    H253     H        0.29400    0.69650    0.07530    1.000
    H254     H        0.29680    0.74210    0.08900    1.000
    N379     N        0.24533    0.71304    0.11301    1.000
    N380     N        0.22260    0.68303    0.11037    1.000
    N381     N        0.20014    0.65288    0.10726    1.000
    H255     H        0.29400    0.19650    0.57530    1.000
    H256     H        0.29680    0.24210    0.58900    1.000
    N382     N        0.24533    0.21304    0.61301    1.000
    N383     N        0.22260    0.18303    0.61037    1.000
    N384     N        0.20014    0.15288    0.60726    1.000
    H257     H        0.42470    0.20600    0.69650    1.000
    H258     H        0.41100    0.20320    0.74210    1.000
    N385     N        0.38699    0.25467    0.71304    1.000
    N386     N        0.38963    0.27740    0.68303    1.000
    N387     N        0.39274    0.29986    0.65288    1.000
    H259     H        0.42470    0.70600    0.19650    1.000
    H260     H        0.41100    0.70320    0.24210    1.000
    N388     N        0.38699    0.75467    0.21304    1.000
    N389     N        0.38963    0.77740    0.18303    1.000
    N390     N        0.39274    0.79986    0.15288    1.000
    H261     H        0.92470    0.20600    0.19650    1.000
    H262     H        0.91100    0.20320    0.24210    1.000
    N391     N        0.88699    0.25467    0.21304    1.000
    N392     N        0.88963    0.27740    0.18303    1.000
    N393     N        0.89274    0.29986    0.15288    1.000
    H263     H        0.92470    0.70600    0.69650    1.000
    H264     H        0.91100    0.70320    0.74210    1.000
    N394     N        0.88699    0.75467    0.71304    1.000
    N395     N        0.88963    0.77740    0.68303    1.000
    N396     N        0.89274    0.79986    0.65288    1.000
    H265     H        0.57530    0.20600    0.30350    1.000
    H266     H        0.58900    0.20320    0.25790    1.000
    N397     N        0.61301    0.25467    0.28696    1.000
    N398     N        0.61037    0.27740    0.31697    1.000
    N399     N        0.60726    0.29986    0.34712    1.000
    H267     H        0.57530    0.70600    0.80350    1.000
    H268     H        0.58900    0.70320    0.75790    1.000
    N400     N        0.61301    0.75467    0.78696    1.000
    N401     N        0.61037    0.77740    0.81697    1.000
    N402     N        0.60726    0.79986    0.84712    1.000
    H269     H        0.07530    0.20600    0.80350    1.000
    H270     H        0.08900    0.20320    0.75790    1.000
    N403     N        0.11301    0.25467    0.78696    1.000
    N404     N        0.11037    0.27740    0.81697    1.000
    N405     N        0.10726    0.29986    0.84712    1.000
    H271     H        0.07530    0.70600    0.30350    1.000
    H272     H        0.08900    0.70320    0.25790    1.000
    N406     N        0.11301    0.75467    0.28696    1.000
    N407     N        0.11037    0.77740    0.31697    1.000
    N408     N        0.10726    0.79986    0.34712    1.000
    H273     H        0.42470    0.79400    0.30350    1.000
    H274     H        0.41100    0.79680    0.25790    1.000
    N409     N        0.38699    0.74533    0.28696    1.000
    N410     N        0.38963    0.72260    0.31697    1.000
    N411     N        0.39274    0.70014    0.34712    1.000
    H275     H        0.42470    0.29400    0.80350    1.000
    H276     H        0.41100    0.29680    0.75790    1.000
    N412     N        0.38699    0.24533    0.78696    1.000
    N413     N        0.38963    0.22260    0.81697    1.000
    N414     N        0.39274    0.20014    0.84712    1.000
    H277     H        0.92470    0.79400    0.80350    1.000
    H278     H        0.91100    0.79680    0.75790    1.000
    N415     N        0.88699    0.74533    0.78696    1.000
    N416     N        0.88963    0.72260    0.81697    1.000
    N417     N        0.89274    0.70014    0.84712    1.000
    H279     H        0.92470    0.29400    0.30350    1.000
    H280     H        0.91100    0.29680    0.25790    1.000
    N418     N        0.88699    0.24533    0.28696    1.000
    N419     N        0.88963    0.22260    0.31697    1.000
    N420     N        0.89274    0.20014    0.34712    1.000
    H281     H        0.57530    0.79400    0.69650    1.000
    H282     H        0.58900    0.79680    0.74210    1.000
    N421     N        0.61301    0.74533    0.71304    1.000
    N422     N        0.61037    0.72260    0.68303    1.000
    N423     N        0.60726    0.70014    0.65288    1.000
    H283     H        0.57530    0.29400    0.19650    1.000
    H284     H        0.58900    0.29680    0.24210    1.000
    N424     N        0.61301    0.24533    0.21304    1.000
    N425     N        0.61037    0.22260    0.18303    1.000
    N426     N        0.60726    0.20014    0.15288    1.000
    H285     H        0.07530    0.79400    0.19650    1.000
    H286     H        0.08900    0.79680    0.24210    1.000
    N427     N        0.11301    0.74533    0.21304    1.000
    N428     N        0.11037    0.72260    0.18303    1.000
    N429     N        0.10726    0.70014    0.15288    1.000
    H287     H        0.07530    0.29400    0.69650    1.000
    H288     H        0.08900    0.29680    0.74210    1.000
    N430     N        0.11301    0.24533    0.71304    1.000
    N431     N        0.11037    0.22260    0.68303    1.000
    N432     N        0.10726    0.20014    0.65288    1.000
    H289     H        0.42470    0.69650    0.79400    1.000
    H290     H        0.41100    0.74210    0.79680    1.000
    N433     N        0.38699    0.71304    0.74533    1.000
    N434     N        0.38963    0.68303    0.72260    1.000
    N435     N        0.39274    0.65288    0.70014    1.000
    H291     H        0.42470    0.19650    0.29400    1.000
    H292     H        0.41100    0.24210    0.29680    1.000
    N436     N        0.38699    0.21304    0.24533    1.000
    N437     N        0.38963    0.18303    0.22260    1.000
    N438     N        0.39274    0.15288    0.20014    1.000
    H293     H        0.92470    0.69650    0.29400    1.000
    H294     H        0.91100    0.74210    0.29680    1.000
    N439     N        0.88699    0.71304    0.24533    1.000
    N440     N        0.88963    0.68303    0.22260    1.000
    N441     N        0.89274    0.65288    0.20014    1.000
    H295     H        0.92470    0.19650    0.79400    1.000
    H296     H        0.91100    0.24210    0.79680    1.000
    N442     N        0.88699    0.21304    0.74533    1.000
    N443     N        0.88963    0.18303    0.72260    1.000
    N444     N        0.89274    0.15288    0.70014    1.000
    H297     H        0.57530    0.30350    0.79400    1.000
    H298     H        0.58900    0.25790    0.79680    1.000
    N445     N        0.61301    0.28696    0.74533    1.000
    N446     N        0.61037    0.31697    0.72260    1.000
    N447     N        0.60726    0.34712    0.70014    1.000
    H299     H        0.57530    0.80350    0.29400    1.000
    H300     H        0.58900    0.75790    0.29680    1.000
    N448     N        0.61301    0.78696    0.24533    1.000
    N449     N        0.61037    0.81697    0.22260    1.000
    N450     N        0.60726    0.84712    0.20014    1.000
    H301     H        0.07530    0.30350    0.29400    1.000
    H302     H        0.08900    0.25790    0.29680    1.000
    N451     N        0.11301    0.28696    0.24533    1.000
    N452     N        0.11037    0.31697    0.22260    1.000
    N453     N        0.10726    0.34712    0.20014    1.000
    H303     H        0.07530    0.80350    0.79400    1.000
    H304     H        0.08900    0.75790    0.79680    1.000
    N454     N        0.11301    0.78696    0.74533    1.000
    N455     N        0.11037    0.81697    0.72260    1.000
    N456     N        0.10726    0.84712    0.70014    1.000
    H305     H        0.42470    0.30350    0.20600    1.000
    H306     H        0.41100    0.25790    0.20320    1.000
    N457     N        0.38699    0.28696    0.25467    1.000
    N458     N        0.38963    0.31697    0.27740    1.000
    N459     N        0.39274    0.34712    0.29986    1.000
    H307     H        0.42470    0.80350    0.70600    1.000
    H308     H        0.41100    0.75790    0.70320    1.000
    N460     N        0.38699    0.78696    0.75467    1.000
    N461     N        0.38963    0.81697    0.77740    1.000
    N462     N        0.39274    0.84712    0.79986    1.000
    H309     H        0.92470    0.30350    0.70600    1.000
    H310     H        0.91100    0.25790    0.70320    1.000
    N463     N        0.88699    0.28696    0.75467    1.000
    N464     N        0.88963    0.31697    0.77740    1.000
    N465     N        0.89274    0.34712    0.79986    1.000
    H311     H        0.92470    0.80350    0.20600    1.000
    H312     H        0.91100    0.75790    0.20320    1.000
    N466     N        0.88699    0.78696    0.25467    1.000
    N467     N        0.88963    0.81697    0.27740    1.000
    N468     N        0.89274    0.84712    0.29986    1.000
    H313     H        0.57530    0.69650    0.20600    1.000
    H314     H        0.58900    0.74210    0.20320    1.000
    N469     N        0.61301    0.71304    0.25467    1.000
    N470     N        0.61037    0.68303    0.27740    1.000
    N471     N        0.60726    0.65288    0.29986    1.000
    H315     H        0.57530    0.19650    0.70600    1.000
    H316     H        0.58900    0.24210    0.70320    1.000
    N472     N        0.61301    0.21304    0.75467    1.000
    N473     N        0.61037    0.18303    0.77740    1.000
    N474     N        0.60726    0.15288    0.79986    1.000
    H317     H        0.07530    0.69650    0.70600    1.000
    H318     H        0.08900    0.74210    0.70320    1.000
    N475     N        0.11301    0.71304    0.75467    1.000
    N476     N        0.11037    0.68303    0.77740    1.000
    N477     N        0.10726    0.65288    0.79986    1.000
    H319     H        0.07530    0.19650    0.20600    1.000
    H320     H        0.08900    0.24210    0.20320    1.000
    N478     N        0.11301    0.21304    0.25467    1.000
    N479     N        0.11037    0.18303    0.27740    1.000
    N480     N        0.10726    0.15288    0.29986    1.000
    H321     H        0.69650    0.20600    0.57530    1.000
    H322     H        0.74210    0.20320    0.58900    1.000
    N481     N        0.71304    0.25467    0.61301    1.000
    N482     N        0.68303    0.27740    0.61037    1.000
    N483     N        0.65288    0.29986    0.60726    1.000
    H323     H        0.69650    0.70600    0.07530    1.000
    H324     H        0.74210    0.70320    0.08900    1.000
    N484     N        0.71304    0.75467    0.11301    1.000
    N485     N        0.68303    0.77740    0.11037    1.000
    N486     N        0.65288    0.79986    0.10726    1.000
    H325     H        0.19650    0.20600    0.07530    1.000
    H326     H        0.24210    0.20320    0.08900    1.000
    N487     N        0.21304    0.25467    0.11301    1.000
    N488     N        0.18303    0.27740    0.11037    1.000
    N489     N        0.15288    0.29986    0.10726    1.000
    H327     H        0.19650    0.70600    0.57530    1.000
    H328     H        0.24210    0.70320    0.58900    1.000
    N490     N        0.21304    0.75467    0.61301    1.000
    N491     N        0.18303    0.77740    0.61037    1.000
    N492     N        0.15288    0.79986    0.60726    1.000
    H329     H        0.30350    0.20600    0.42470    1.000
    H330     H        0.25790    0.20320    0.41100    1.000
    N493     N        0.28696    0.25467    0.38699    1.000
    N494     N        0.31697    0.27740    0.38963    1.000
    N495     N        0.34712    0.29986    0.39274    1.000
    H331     H        0.30350    0.70600    0.92470    1.000
    H332     H        0.25790    0.70320    0.91100    1.000
    N496     N        0.28696    0.75467    0.88699    1.000
    N497     N        0.31697    0.77740    0.88963    1.000
    N498     N        0.34712    0.79986    0.89274    1.000
    H333     H        0.80350    0.20600    0.92470    1.000
    H334     H        0.75790    0.20320    0.91100    1.000
    N499     N        0.78696    0.25467    0.88699    1.000
    N500     N        0.81697    0.27740    0.88963    1.000
    N501     N        0.84712    0.29986    0.89274    1.000
    H335     H        0.80350    0.70600    0.42470    1.000
    H336     H        0.75790    0.70320    0.41100    1.000
    N502     N        0.78696    0.75467    0.38699    1.000
    N503     N        0.81697    0.77740    0.38963    1.000
    N504     N        0.84712    0.79986    0.39274    1.000
    H337     H        0.30350    0.79400    0.57530    1.000
    H338     H        0.25790    0.79680    0.58900    1.000
    N505     N        0.28696    0.74533    0.61301    1.000
    N506     N        0.31697    0.72260    0.61037    1.000
    N507     N        0.34712    0.70014    0.60726    1.000
    H339     H        0.30350    0.29400    0.07530    1.000
    H340     H        0.25790    0.29680    0.08900    1.000
    N508     N        0.28696    0.24533    0.11301    1.000
    N509     N        0.31697    0.22260    0.11037    1.000
    N510     N        0.34712    0.20014    0.10726    1.000
    H341     H        0.80350    0.79400    0.07530    1.000
    H342     H        0.75790    0.79680    0.08900    1.000
    N511     N        0.78696    0.74533    0.11301    1.000
    N512     N        0.81697    0.72260    0.11037    1.000
    N513     N        0.84712    0.70014    0.10726    1.000
    H343     H        0.80350    0.29400    0.57530    1.000
    H344     H        0.75790    0.29680    0.58900    1.000
    N514     N        0.78696    0.24533    0.61301    1.000
    N515     N        0.81697    0.22260    0.61037    1.000
    N516     N        0.84712    0.20014    0.60726    1.000
    H345     H        0.69650    0.79400    0.42470    1.000
    H346     H        0.74210    0.79680    0.41100    1.000
    N517     N        0.71304    0.74533    0.38699    1.000
    N518     N        0.68303    0.72260    0.38963    1.000
    N519     N        0.65288    0.70014    0.39274    1.000
    H347     H        0.69650    0.29400    0.92470    1.000
    H348     H        0.74210    0.29680    0.91100    1.000
    N520     N        0.71304    0.24533    0.88699    1.000
    N521     N        0.68303    0.22260    0.88963    1.000
    N522     N        0.65288    0.20014    0.89274    1.000
    H349     H        0.19650    0.79400    0.92470    1.000
    H350     H        0.24210    0.79680    0.91100    1.000
    N523     N        0.21304    0.74533    0.88699    1.000
    N524     N        0.18303    0.72260    0.88963    1.000
    N525     N        0.15288    0.70014    0.89274    1.000
    H351     H        0.19650    0.29400    0.42470    1.000
    H352     H        0.24210    0.29680    0.41100    1.000
    N526     N        0.21304    0.24533    0.38699    1.000
    N527     N        0.18303    0.22260    0.38963    1.000
    N528     N        0.15288    0.20014    0.39274    1.000
    H353     H        0.20600    0.42470    0.30350    1.000
    H354     H        0.20320    0.41100    0.25790    1.000
    N529     N        0.25467    0.38699    0.28696    1.000
    N530     N        0.27740    0.38963    0.31697    1.000
    N531     N        0.29986    0.39274    0.34712    1.000
    H355     H        0.20600    0.92470    0.80350    1.000
    H356     H        0.20320    0.91100    0.75790    1.000
    N532     N        0.25467    0.88699    0.78696    1.000
    N533     N        0.27740    0.88963    0.81697    1.000
    N534     N        0.29986    0.89274    0.84712    1.000
    H357     H        0.70600    0.42470    0.80350    1.000
    H358     H        0.70320    0.41100    0.75790    1.000
    N535     N        0.75467    0.38699    0.78696    1.000
    N536     N        0.77740    0.38963    0.81697    1.000
    N537     N        0.79986    0.39274    0.84712    1.000
    H359     H        0.70600    0.92470    0.30350    1.000
    H360     H        0.70320    0.91100    0.25790    1.000
    N538     N        0.75467    0.88699    0.28696    1.000
    N539     N        0.77740    0.88963    0.31697    1.000
    N540     N        0.79986    0.89274    0.34712    1.000
    H361     H        0.20600    0.57530    0.69650    1.000
    H362     H        0.20320    0.58900    0.74210    1.000
    N541     N        0.25467    0.61301    0.71304    1.000
    N542     N        0.27740    0.61037    0.68303    1.000
    N543     N        0.29986    0.60726    0.65288    1.000
    H363     H        0.20600    0.07530    0.19650    1.000
    H364     H        0.20320    0.08900    0.24210    1.000
    N544     N        0.25467    0.11301    0.21304    1.000
    N545     N        0.27740    0.11037    0.18303    1.000
    N546     N        0.29986    0.10726    0.15288    1.000
    H365     H        0.70600    0.57530    0.19650    1.000
    H366     H        0.70320    0.58900    0.24210    1.000
    N547     N        0.75467    0.61301    0.21304    1.000
    N548     N        0.77740    0.61037    0.18303    1.000
    N549     N        0.79986    0.60726    0.15288    1.000
    H367     H        0.70600    0.07530    0.69650    1.000
    H368     H        0.70320    0.08900    0.74210    1.000
    N550     N        0.75467    0.11301    0.71304    1.000
    N551     N        0.77740    0.11037    0.68303    1.000
    N552     N        0.79986    0.10726    0.65288    1.000
    H369     H        0.79400    0.42470    0.69650    1.000
    H370     H        0.79680    0.41100    0.74210    1.000
    N553     N        0.74533    0.38699    0.71304    1.000
    N554     N        0.72260    0.38963    0.68303    1.000
    N555     N        0.70014    0.39274    0.65288    1.000
    H371     H        0.79400    0.92470    0.19650    1.000
    H372     H        0.79680    0.91100    0.24210    1.000
    N556     N        0.74533    0.88699    0.21304    1.000
    N557     N        0.72260    0.88963    0.18303    1.000
    N558     N        0.70014    0.89274    0.15288    1.000
    H373     H        0.29400    0.42470    0.19650    1.000
    H374     H        0.29680    0.41100    0.24210    1.000
    N559     N        0.24533    0.38699    0.21304    1.000
    N560     N        0.22260    0.38963    0.18303    1.000
    N561     N        0.20014    0.39274    0.15288    1.000
    H375     H        0.29400    0.92470    0.69650    1.000
    H376     H        0.29680    0.91100    0.74210    1.000
    N562     N        0.24533    0.88699    0.71304    1.000
    N563     N        0.22260    0.88963    0.68303    1.000
    N564     N        0.20014    0.89274    0.65288    1.000
    H377     H        0.79400    0.57530    0.30350    1.000
    H378     H        0.79680    0.58900    0.25790    1.000
    N565     N        0.74533    0.61301    0.28696    1.000
    N566     N        0.72260    0.61037    0.31697    1.000
    N567     N        0.70014    0.60726    0.34712    1.000
    H379     H        0.79400    0.07530    0.80350    1.000
    H380     H        0.79680    0.08900    0.75790    1.000
    N568     N        0.74533    0.11301    0.78696    1.000
    N569     N        0.72260    0.11037    0.81697    1.000
    N570     N        0.70014    0.10726    0.84712    1.000
    H381     H        0.29400    0.57530    0.80350    1.000
    H382     H        0.29680    0.58900    0.75790    1.000
    N571     N        0.24533    0.61301    0.78696    1.000
    N572     N        0.22260    0.61037    0.81697    1.000
    N573     N        0.20014    0.60726    0.84712    1.000
    H383     H        0.29400    0.07530    0.30350    1.000
    H384     H        0.29680    0.08900    0.25790    1.000
    N574     N        0.24533    0.11301    0.28696    1.000
    N575     N        0.22260    0.11037    0.31697    1.000
    N576     N        0.20014    0.10726    0.34712    1.000
    Zr1      Zr       0.42475    0.50000    0.00000    1.000
    Zr2      Zr       0.92475    0.50000    0.50000    1.000
    Zr3      Zr       0.57525    0.50000    0.00000    1.000
    Zr4      Zr       0.07525    0.50000    0.50000    1.000
    Zr5      Zr       0.00000    0.42475    0.50000    1.000
    Zr6      Zr       0.00000    0.92475    0.00000    1.000
    Zr7      Zr       0.00000    0.57525    0.50000    1.000
    Zr8      Zr       0.00000    0.07525    0.00000    1.000
    Zr9      Zr       0.50000    0.00000    0.42475    1.000
    Zr10     Zr       0.50000    0.50000    0.92475    1.000
    Zr11     Zr       0.50000    0.00000    0.57525    1.000
    Zr12     Zr       0.50000    0.50000    0.07525    1.000
    Zr13     Zr       0.50000    0.42475    0.00000    1.000
    Zr14     Zr       0.50000    0.92475    0.50000    1.000
    Zr15     Zr       0.50000    0.57525    0.00000    1.000
    Zr16     Zr       0.50000    0.07525    0.50000    1.000
    Zr17     Zr       0.42475    0.00000    0.50000    1.000
    Zr18     Zr       0.92475    0.00000    0.00000    1.000
    Zr19     Zr       0.57525    0.00000    0.50000    1.000
    Zr20     Zr       0.07525    0.00000    0.00000    1.000
    Zr21     Zr       0.00000    0.50000    0.57525    1.000
    Zr22     Zr       0.00000    0.00000    0.07525    1.000
    Zr23     Zr       0.00000    0.50000    0.42475    1.000
    Zr24     Zr       0.00000    0.00000    0.92475    1.000
    O1       O        0.39153    0.50000    0.94103    1.000
    C1       C        0.38293    0.50000    0.83181    1.000
    H385     H        0.41040    0.50000    0.82440    1.000
    C2       C        0.35289    0.50000    0.80213    1.000
    H386     H        0.36030    0.50000    0.77470    1.000
    O2       O        0.39153    0.00000    0.44103    1.000
    C3       C        0.38293    0.00000    0.33181    1.000
    H387     H        0.41040    0.00000    0.32440    1.000
    C4       C        0.35289    0.00000    0.30213    1.000
    H388     H        0.36030    0.00000    0.27470    1.000
    O3       O        0.89153    0.50000    0.44103    1.000
    C5       C        0.88293    0.50000    0.33181    1.000
    H389     H        0.91040    0.50000    0.32440    1.000
    C6       C        0.85289    0.50000    0.30213    1.000
    H390     H        0.86030    0.50000    0.27470    1.000
    O4       O        0.89153    0.00000    0.94103    1.000
    C7       C        0.88293    0.00000    0.83181    1.000
    H391     H        0.91040    0.00000    0.82440    1.000
    C8       C        0.85289    0.00000    0.80213    1.000
    H392     H        0.86030    0.00000    0.77470    1.000
    O5       O        0.60847    0.50000    0.94103    1.000
    C9       C        0.61707    0.50000    0.83181    1.000
    H393     H        0.58960    0.50000    0.82440    1.000
    C10      C        0.64711    0.50000    0.80213    1.000
    H394     H        0.63970    0.50000    0.77470    1.000
    O6       O        0.60847    0.00000    0.44103    1.000
    C11      C        0.61707    0.00000    0.33181    1.000
    H395     H        0.58960    0.00000    0.32440    1.000
    C12      C        0.64711    0.00000    0.30213    1.000
    H396     H        0.63970    0.00000    0.27470    1.000
    O7       O        0.10847    0.50000    0.44103    1.000
    C13      C        0.11707    0.50000    0.33181    1.000
    H397     H        0.08960    0.50000    0.32440    1.000
    C14      C        0.14711    0.50000    0.30213    1.000
    H398     H        0.13970    0.50000    0.27470    1.000
    O8       O        0.10847    0.00000    0.94103    1.000
    C15      C        0.11707    0.00000    0.83181    1.000
    H399     H        0.08960    0.00000    0.82440    1.000
    C16      C        0.14711    0.00000    0.80213    1.000
    H400     H        0.13970    0.00000    0.77470    1.000
    O9       O        0.60847    0.50000    0.05897    1.000
    C17      C        0.61707    0.50000    0.16819    1.000
    H401     H        0.58960    0.50000    0.17560    1.000
    C18      C        0.64711    0.50000    0.19787    1.000
    H402     H        0.63970    0.50000    0.22530    1.000
    O10      O        0.60847    0.00000    0.55897    1.000
    C19      C        0.61707    0.00000    0.66819    1.000
    H403     H        0.58960    0.00000    0.67560    1.000
    C20      C        0.64711    0.00000    0.69787    1.000
    H404     H        0.63970    0.00000    0.72530    1.000
    O11      O        0.10847    0.50000    0.55897    1.000
    C21      C        0.11707    0.50000    0.66819    1.000
    H405     H        0.08960    0.50000    0.67560    1.000
    C22      C        0.14711    0.50000    0.69787    1.000
    H406     H        0.13970    0.50000    0.72530    1.000
    O12      O        0.10847    0.00000    0.05897    1.000
    C23      C        0.11707    0.00000    0.16819    1.000
    H407     H        0.08960    0.00000    0.17560    1.000
    C24      C        0.14711    0.00000    0.19787    1.000
    H408     H        0.13970    0.00000    0.22530    1.000
    O13      O        0.39153    0.50000    0.05897    1.000
    C25      C        0.38293    0.50000    0.16819    1.000
    H409     H        0.41040    0.50000    0.17560    1.000
    C26      C        0.35289    0.50000    0.19787    1.000
    H410     H        0.36030    0.50000    0.22530    1.000
    O14      O        0.39153    0.00000    0.55897    1.000
    C27      C        0.38293    0.00000    0.66819    1.000
    H411     H        0.41040    0.00000    0.67560    1.000
    C28      C        0.35289    0.00000    0.69787    1.000
    H412     H        0.36030    0.00000    0.72530    1.000
    O15      O        0.89153    0.50000    0.55897    1.000
    C29      C        0.88293    0.50000    0.66819    1.000
    H413     H        0.91040    0.50000    0.67560    1.000
    C30      C        0.85289    0.50000    0.69787    1.000
    H414     H        0.86030    0.50000    0.72530    1.000
    O16      O        0.89153    0.00000    0.05897    1.000
    C31      C        0.88293    0.00000    0.16819    1.000
    H415     H        0.91040    0.00000    0.17560    1.000
    C32      C        0.85289    0.00000    0.19787    1.000
    H416     H        0.86030    0.00000    0.22530    1.000
    O17      O        0.94103    0.39153    0.50000    1.000
    C33      C        0.83181    0.38293    0.50000    1.000
    H417     H        0.82440    0.41040    0.50000    1.000
    C34      C        0.80213    0.35289    0.50000    1.000
    H418     H        0.77470    0.36030    0.50000    1.000
    O18      O        0.94103    0.89153    0.00000    1.000
    C35      C        0.83181    0.88293    0.00000    1.000
    H419     H        0.82440    0.91040    0.00000    1.000
    C36      C        0.80213    0.85289    0.00000    1.000
    H420     H        0.77470    0.86030    0.00000    1.000
    O19      O        0.44103    0.39153    0.00000    1.000
    C37      C        0.33181    0.38293    0.00000    1.000
    H421     H        0.32440    0.41040    0.00000    1.000
    C38      C        0.30213    0.35289    0.00000    1.000
    H422     H        0.27470    0.36030    0.00000    1.000
    O20      O        0.44103    0.89153    0.50000    1.000
    C39      C        0.33181    0.88293    0.50000    1.000
    H423     H        0.32440    0.91040    0.50000    1.000
    C40      C        0.30213    0.85289    0.50000    1.000
    H424     H        0.27470    0.86030    0.50000    1.000
    O21      O        0.94103    0.60847    0.50000    1.000
    C41      C        0.83181    0.61707    0.50000    1.000
    H425     H        0.82440    0.58960    0.50000    1.000
    C42      C        0.80213    0.64711    0.50000    1.000
    H426     H        0.77470    0.63970    0.50000    1.000
    O22      O        0.94103    0.10847    0.00000    1.000
    C43      C        0.83181    0.11707    0.00000    1.000
    H427     H        0.82440    0.08960    0.00000    1.000
    C44      C        0.80213    0.14711    0.00000    1.000
    H428     H        0.77470    0.13970    0.00000    1.000
    O23      O        0.44103    0.60847    0.00000    1.000
    C45      C        0.33181    0.61707    0.00000    1.000
    H429     H        0.32440    0.58960    0.00000    1.000
    C46      C        0.30213    0.64711    0.00000    1.000
    H430     H        0.27470    0.63970    0.00000    1.000
    O24      O        0.44103    0.10847    0.50000    1.000
    C47      C        0.33181    0.11707    0.50000    1.000
    H431     H        0.32440    0.08960    0.50000    1.000
    C48      C        0.30213    0.14711    0.50000    1.000
    H432     H        0.27470    0.13970    0.50000    1.000
    O25      O        0.05897    0.60847    0.50000    1.000
    C49      C        0.16819    0.61707    0.50000    1.000
    H433     H        0.17560    0.58960    0.50000    1.000
    C50      C        0.19787    0.64711    0.50000    1.000
    H434     H        0.22530    0.63970    0.50000    1.000
    O26      O        0.05897    0.10847    0.00000    1.000
    C51      C        0.16819    0.11707    0.00000    1.000
    H435     H        0.17560    0.08960    0.00000    1.000
    C52      C        0.19787    0.14711    0.00000    1.000
    H436     H        0.22530    0.13970    0.00000    1.000
    O27      O        0.55897    0.60847    0.00000    1.000
    C53      C        0.66819    0.61707    0.00000    1.000
    H437     H        0.67560    0.58960    0.00000    1.000
    C54      C        0.69787    0.64711    0.00000    1.000
    H438     H        0.72530    0.63970    0.00000    1.000
    O28      O        0.55897    0.10847    0.50000    1.000
    C55      C        0.66819    0.11707    0.50000    1.000
    H439     H        0.67560    0.08960    0.50000    1.000
    C56      C        0.69787    0.14711    0.50000    1.000
    H440     H        0.72530    0.13970    0.50000    1.000
    O29      O        0.05897    0.39153    0.50000    1.000
    C57      C        0.16819    0.38293    0.50000    1.000
    H441     H        0.17560    0.41040    0.50000    1.000
    C58      C        0.19787    0.35289    0.50000    1.000
    H442     H        0.22530    0.36030    0.50000    1.000
    O30      O        0.05897    0.89153    0.00000    1.000
    C59      C        0.16819    0.88293    0.00000    1.000
    H443     H        0.17560    0.91040    0.00000    1.000
    C60      C        0.19787    0.85289    0.00000    1.000
    H444     H        0.22530    0.86030    0.00000    1.000
    O31      O        0.55897    0.39153    0.00000    1.000
    C61      C        0.66819    0.38293    0.00000    1.000
    H445     H        0.67560    0.41040    0.00000    1.000
    C62      C        0.69787    0.35289    0.00000    1.000
    H446     H        0.72530    0.36030    0.00000    1.000
    O32      O        0.55897    0.89153    0.50000    1.000
    C63      C        0.66819    0.88293    0.50000    1.000
    H447     H        0.67560    0.91040    0.50000    1.000
    C64      C        0.69787    0.85289    0.50000    1.000
    H448     H        0.72530    0.86030    0.50000    1.000
    O33      O        0.50000    0.94103    0.39153    1.000
    C65      C        0.50000    0.83181    0.38293    1.000
    H449     H        0.50000    0.82440    0.41040    1.000
    C66      C        0.50000    0.80213    0.35289    1.000
    H450     H        0.50000    0.77470    0.36030    1.000
    O34      O        0.50000    0.44103    0.89153    1.000
    C67      C        0.50000    0.33181    0.88293    1.000
    H451     H        0.50000    0.32440    0.91040    1.000
    C68      C        0.50000    0.30213    0.85289    1.000
    H452     H        0.50000    0.27470    0.86030    1.000
    O35      O        0.00000    0.94103    0.89153    1.000
    C69      C        0.00000    0.83181    0.88293    1.000
    H453     H        0.00000    0.82440    0.91040    1.000
    C70      C        0.00000    0.80213    0.85289    1.000
    H454     H        0.00000    0.77470    0.86030    1.000
    O36      O        0.00000    0.44103    0.39153    1.000
    C71      C        0.00000    0.33181    0.38293    1.000
    H455     H        0.00000    0.32440    0.41040    1.000
    C72      C        0.00000    0.30213    0.35289    1.000
    H456     H        0.00000    0.27470    0.36030    1.000
    O37      O        0.50000    0.94103    0.60847    1.000
    C73      C        0.50000    0.83181    0.61707    1.000
    H457     H        0.50000    0.82440    0.58960    1.000
    C74      C        0.50000    0.80213    0.64711    1.000
    H458     H        0.50000    0.77470    0.63970    1.000
    O38      O        0.50000    0.44103    0.10847    1.000
    C75      C        0.50000    0.33181    0.11707    1.000
    H459     H        0.50000    0.32440    0.08960    1.000
    C76      C        0.50000    0.30213    0.14711    1.000
    H460     H        0.50000    0.27470    0.13970    1.000
    O39      O        0.00000    0.94103    0.10847    1.000
    C77      C        0.00000    0.83181    0.11707    1.000
    H461     H        0.00000    0.82440    0.08960    1.000
    C78      C        0.00000    0.80213    0.14711    1.000
    H462     H        0.00000    0.77470    0.13970    1.000
    O40      O        0.00000    0.44103    0.60847    1.000
    C79      C        0.00000    0.33181    0.61707    1.000
    H463     H        0.00000    0.32440    0.58960    1.000
    C80      C        0.00000    0.30213    0.64711    1.000
    H464     H        0.00000    0.27470    0.63970    1.000
    O41      O        0.50000    0.05897    0.60847    1.000
    C81      C        0.50000    0.16819    0.61707    1.000
    H465     H        0.50000    0.17560    0.58960    1.000
    C82      C        0.50000    0.19787    0.64711    1.000
    H466     H        0.50000    0.22530    0.63970    1.000
    O42      O        0.50000    0.55897    0.10847    1.000
    C83      C        0.50000    0.66819    0.11707    1.000
    H467     H        0.50000    0.67560    0.08960    1.000
    C84      C        0.50000    0.69787    0.14711    1.000
    H468     H        0.50000    0.72530    0.13970    1.000
    O43      O        0.00000    0.05897    0.10847    1.000
    C85      C        0.00000    0.16819    0.11707    1.000
    H469     H        0.00000    0.17560    0.08960    1.000
    C86      C        0.00000    0.19787    0.14711    1.000
    H470     H        0.00000    0.22530    0.13970    1.000
    O44      O        0.00000    0.55897    0.60847    1.000
    C87      C        0.00000    0.66819    0.61707    1.000
    H471     H        0.00000    0.67560    0.58960    1.000
    C88      C        0.00000    0.69787    0.64711    1.000
    H472     H        0.00000    0.72530    0.63970    1.000
    O45      O        0.50000    0.05897    0.39153    1.000
    C89      C        0.50000    0.16819    0.38293    1.000
    H473     H        0.50000    0.17560    0.41040    1.000
    C90      C        0.50000    0.19787    0.35289    1.000
    H474     H        0.50000    0.22530    0.36030    1.000
    O46      O        0.50000    0.55897    0.89153    1.000
    C91      C        0.50000    0.66819    0.88293    1.000
    H475     H        0.50000    0.67560    0.91040    1.000
    C92      C        0.50000    0.69787    0.85289    1.000
    H476     H        0.50000    0.72530    0.86030    1.000
    O47      O        0.00000    0.05897    0.89153    1.000
    C93      C        0.00000    0.16819    0.88293    1.000
    H477     H        0.00000    0.17560    0.91040    1.000
    C94      C        0.00000    0.19787    0.85289    1.000
    H478     H        0.00000    0.22530    0.86030    1.000
    O48      O        0.00000    0.55897    0.39153    1.000
    C95      C        0.00000    0.66819    0.38293    1.000
    H479     H        0.00000    0.67560    0.41040    1.000
    C96      C        0.00000    0.69787    0.35289    1.000
    H480     H        0.00000    0.72530    0.36030    1.000
    O49      O        0.50000    0.39153    0.05897    1.000
    C97      C        0.50000    0.38293    0.16819    1.000
    H481     H        0.50000    0.41040    0.17560    1.000
    C98      C        0.50000    0.35289    0.19787    1.000
    H482     H        0.50000    0.36030    0.22530    1.000
    O50      O        0.50000    0.89153    0.55897    1.000
    C99      C        0.50000    0.88293    0.66819    1.000
    H483     H        0.50000    0.91040    0.67560    1.000
    C100     C        0.50000    0.85289    0.69787    1.000
    H484     H        0.50000    0.86030    0.72530    1.000
    O51      O        0.00000    0.39153    0.55897    1.000
    C101     C        0.00000    0.38293    0.66819    1.000
    H485     H        0.00000    0.41040    0.67560    1.000
    C102     C        0.00000    0.35289    0.69787    1.000
    H486     H        0.00000    0.36030    0.72530    1.000
    O52      O        0.00000    0.89153    0.05897    1.000
    C103     C        0.00000    0.88293    0.16819    1.000
    H487     H        0.00000    0.91040    0.17560    1.000
    C104     C        0.00000    0.85289    0.19787    1.000
    H488     H        0.00000    0.86030    0.22530    1.000
    O53      O        0.50000    0.60847    0.05897    1.000
    C105     C        0.50000    0.61707    0.16819    1.000
    H489     H        0.50000    0.58960    0.17560    1.000
    C106     C        0.50000    0.64711    0.19787    1.000
    H490     H        0.50000    0.63970    0.22530    1.000
    O54      O        0.50000    0.10847    0.55897    1.000
    C107     C        0.50000    0.11707    0.66819    1.000
    H491     H        0.50000    0.08960    0.67560    1.000
    C108     C        0.50000    0.14711    0.69787    1.000
    H492     H        0.50000    0.13970    0.72530    1.000
    O55      O        0.00000    0.60847    0.55897    1.000
    C109     C        0.00000    0.61707    0.66819    1.000
    H493     H        0.00000    0.58960    0.67560    1.000
    C110     C        0.00000    0.64711    0.69787    1.000
    H494     H        0.00000    0.63970    0.72530    1.000
    O56      O        0.00000    0.10847    0.05897    1.000
    C111     C        0.00000    0.11707    0.16819    1.000
    H495     H        0.00000    0.08960    0.17560    1.000
    C112     C        0.00000    0.14711    0.19787    1.000
    H496     H        0.00000    0.13970    0.22530    1.000
    O57      O        0.50000    0.60847    0.94103    1.000
    C113     C        0.50000    0.61707    0.83181    1.000
    H497     H        0.50000    0.58960    0.82440    1.000
    C114     C        0.50000    0.64711    0.80213    1.000
    H498     H        0.50000    0.63970    0.77470    1.000
    O58      O        0.50000    0.10847    0.44103    1.000
    C115     C        0.50000    0.11707    0.33181    1.000
    H499     H        0.50000    0.08960    0.32440    1.000
    C116     C        0.50000    0.14711    0.30213    1.000
    H500     H        0.50000    0.13970    0.27470    1.000
    O59      O        0.00000    0.60847    0.44103    1.000
    C117     C        0.00000    0.61707    0.33181    1.000
    H501     H        0.00000    0.58960    0.32440    1.000
    C118     C        0.00000    0.64711    0.30213    1.000
    H502     H        0.00000    0.63970    0.27470    1.000
    O60      O        0.00000    0.10847    0.94103    1.000
    C119     C        0.00000    0.11707    0.83181    1.000
    H503     H        0.00000    0.08960    0.82440    1.000
    C120     C        0.00000    0.14711    0.80213    1.000
    H504     H        0.00000    0.13970    0.77470    1.000
    O61      O        0.50000    0.39153    0.94103    1.000
    C121     C        0.50000    0.38293    0.83181    1.000
    H505     H        0.50000    0.41040    0.82440    1.000
    C122     C        0.50000    0.35289    0.80213    1.000
    H506     H        0.50000    0.36030    0.77470    1.000
    O62      O        0.50000    0.89153    0.44103    1.000
    C123     C        0.50000    0.88293    0.33181    1.000
    H507     H        0.50000    0.91040    0.32440    1.000
    C124     C        0.50000    0.85289    0.30213    1.000
    H508     H        0.50000    0.86030    0.27470    1.000
    O63      O        0.00000    0.39153    0.44103    1.000
    C125     C        0.00000    0.38293    0.33181    1.000
    H509     H        0.00000    0.41040    0.32440    1.000
    C126     C        0.00000    0.35289    0.30213    1.000
    H510     H        0.00000    0.36030    0.27470    1.000
    O64      O        0.00000    0.89153    0.94103    1.000
    C127     C        0.00000    0.88293    0.83181    1.000
    H511     H        0.00000    0.91040    0.82440    1.000
    C128     C        0.00000    0.85289    0.80213    1.000
    H512     H        0.00000    0.86030    0.77470    1.000
    O65      O        0.39153    0.94103    0.50000    1.000
    C129     C        0.38293    0.83181    0.50000    1.000
    H513     H        0.41040    0.82440    0.50000    1.000
    C130     C        0.35289    0.80213    0.50000    1.000
    H514     H        0.36030    0.77470    0.50000    1.000
    O66      O        0.39153    0.44103    0.00000    1.000
    C131     C        0.38293    0.33181    0.00000    1.000
    H515     H        0.41040    0.32440    0.00000    1.000
    C132     C        0.35289    0.30213    0.00000    1.000
    H516     H        0.36030    0.27470    0.00000    1.000
    O67      O        0.89153    0.94103    0.00000    1.000
    C133     C        0.88293    0.83181    0.00000    1.000
    H517     H        0.91040    0.82440    0.00000    1.000
    C134     C        0.85289    0.80213    0.00000    1.000
    H518     H        0.86030    0.77470    0.00000    1.000
    O68      O        0.89153    0.44103    0.50000    1.000
    C135     C        0.88293    0.33181    0.50000    1.000
    H519     H        0.91040    0.32440    0.50000    1.000
    C136     C        0.85289    0.30213    0.50000    1.000
    H520     H        0.86030    0.27470    0.50000    1.000
    O69      O        0.60847    0.94103    0.50000    1.000
    C137     C        0.61707    0.83181    0.50000    1.000
    H521     H        0.58960    0.82440    0.50000    1.000
    C138     C        0.64711    0.80213    0.50000    1.000
    H522     H        0.63970    0.77470    0.50000    1.000
    O70      O        0.60847    0.44103    0.00000    1.000
    C139     C        0.61707    0.33181    0.00000    1.000
    H523     H        0.58960    0.32440    0.00000    1.000
    C140     C        0.64711    0.30213    0.00000    1.000
    H524     H        0.63970    0.27470    0.00000    1.000
    O71      O        0.10847    0.94103    0.00000    1.000
    C141     C        0.11707    0.83181    0.00000    1.000
    H525     H        0.08960    0.82440    0.00000    1.000
    C142     C        0.14711    0.80213    0.00000    1.000
    H526     H        0.13970    0.77470    0.00000    1.000
    O72      O        0.10847    0.44103    0.50000    1.000
    C143     C        0.11707    0.33181    0.50000    1.000
    H527     H        0.08960    0.32440    0.50000    1.000
    C144     C        0.14711    0.30213    0.50000    1.000
    H528     H        0.13970    0.27470    0.50000    1.000
    O73      O        0.60847    0.05897    0.50000    1.000
    C145     C        0.61707    0.16819    0.50000    1.000
    H529     H        0.58960    0.17560    0.50000    1.000
    C146     C        0.64711    0.19787    0.50000    1.000
    H530     H        0.63970    0.22530    0.50000    1.000
    O74      O        0.60847    0.55897    0.00000    1.000
    C147     C        0.61707    0.66819    0.00000    1.000
    H531     H        0.58960    0.67560    0.00000    1.000
    C148     C        0.64711    0.69787    0.00000    1.000
    H532     H        0.63970    0.72530    0.00000    1.000
    O75      O        0.10847    0.05897    0.00000    1.000
    C149     C        0.11707    0.16819    0.00000    1.000
    H533     H        0.08960    0.17560    0.00000    1.000
    C150     C        0.14711    0.19787    0.00000    1.000
    H534     H        0.13970    0.22530    0.00000    1.000
    O76      O        0.10847    0.55897    0.50000    1.000
    C151     C        0.11707    0.66819    0.50000    1.000
    H535     H        0.08960    0.67560    0.50000    1.000
    C152     C        0.14711    0.69787    0.50000    1.000
    H536     H        0.13970    0.72530    0.50000    1.000
    O77      O        0.39153    0.05897    0.50000    1.000
    C153     C        0.38293    0.16819    0.50000    1.000
    H537     H        0.41040    0.17560    0.50000    1.000
    C154     C        0.35289    0.19787    0.50000    1.000
    H538     H        0.36030    0.22530    0.50000    1.000
    O78      O        0.39153    0.55897    0.00000    1.000
    C155     C        0.38293    0.66819    0.00000    1.000
    H539     H        0.41040    0.67560    0.00000    1.000
    C156     C        0.35289    0.69787    0.00000    1.000
    H540     H        0.36030    0.72530    0.00000    1.000
    O79      O        0.89153    0.05897    0.00000    1.000
    C157     C        0.88293    0.16819    0.00000    1.000
    H541     H        0.91040    0.17560    0.00000    1.000
    C158     C        0.85289    0.19787    0.00000    1.000
    H542     H        0.86030    0.22530    0.00000    1.000
    O80      O        0.89153    0.55897    0.50000    1.000
    C159     C        0.88293    0.66819    0.50000    1.000
    H543     H        0.91040    0.67560    0.50000    1.000
    C160     C        0.85289    0.69787    0.50000    1.000
    H544     H        0.86030    0.72530    0.50000    1.000
    O81      O        0.94103    0.50000    0.60847    1.000
    C161     C        0.83181    0.50000    0.61707    1.000
    H545     H        0.82440    0.50000    0.58960    1.000
    C162     C        0.80213    0.50000    0.64711    1.000
    H546     H        0.77470    0.50000    0.63970    1.000
    O82      O        0.94103    0.00000    0.10847    1.000
    C163     C        0.83181    0.00000    0.11707    1.000
    H547     H        0.82440    0.00000    0.08960    1.000
    C164     C        0.80213    0.00000    0.14711    1.000
    H548     H        0.77470    0.00000    0.13970    1.000
    O83      O        0.44103    0.50000    0.10847    1.000
    C165     C        0.33181    0.50000    0.11707    1.000
    H549     H        0.32440    0.50000    0.08960    1.000
    C166     C        0.30213    0.50000    0.14711    1.000
    H550     H        0.27470    0.50000    0.13970    1.000
    O84      O        0.44103    0.00000    0.60847    1.000
    C167     C        0.33181    0.00000    0.61707    1.000
    H551     H        0.32440    0.00000    0.58960    1.000
    C168     C        0.30213    0.00000    0.64711    1.000
    H552     H        0.27470    0.00000    0.63970    1.000
    O85      O        0.94103    0.50000    0.39153    1.000
    C169     C        0.83181    0.50000    0.38293    1.000
    H553     H        0.82440    0.50000    0.41040    1.000
    C170     C        0.80213    0.50000    0.35289    1.000
    H554     H        0.77470    0.50000    0.36030    1.000
    O86      O        0.94103    0.00000    0.89153    1.000
    C171     C        0.83181    0.00000    0.88293    1.000
    H555     H        0.82440    0.00000    0.91040    1.000
    C172     C        0.80213    0.00000    0.85289    1.000
    H556     H        0.77470    0.00000    0.86030    1.000
    O87      O        0.44103    0.50000    0.89153    1.000
    C173     C        0.33181    0.50000    0.88293    1.000
    H557     H        0.32440    0.50000    0.91040    1.000
    C174     C        0.30213    0.50000    0.85289    1.000
    H558     H        0.27470    0.50000    0.86030    1.000
    O88      O        0.44103    0.00000    0.39153    1.000
    C175     C        0.33181    0.00000    0.38293    1.000
    H559     H        0.32440    0.00000    0.41040    1.000
    C176     C        0.30213    0.00000    0.35289    1.000
    H560     H        0.27470    0.00000    0.36030    1.000
    O89      O        0.05897    0.50000    0.39153    1.000
    C177     C        0.16819    0.50000    0.38293    1.000
    H561     H        0.17560    0.50000    0.41040    1.000
    C178     C        0.19787    0.50000    0.35289    1.000
    H562     H        0.22530    0.50000    0.36030    1.000
    O90      O        0.05897    0.00000    0.89153    1.000
    C179     C        0.16819    0.00000    0.88293    1.000
    H563     H        0.17560    0.00000    0.91040    1.000
    C180     C        0.19787    0.00000    0.85289    1.000
    H564     H        0.22530    0.00000    0.86030    1.000
    O91      O        0.55897    0.50000    0.89153    1.000
    C181     C        0.66819    0.50000    0.88293    1.000
    H565     H        0.67560    0.50000    0.91040    1.000
    C182     C        0.69787    0.50000    0.85289    1.000
    H566     H        0.72530    0.50000    0.86030    1.000
    O92      O        0.55897    0.00000    0.39153    1.000
    C183     C        0.66819    0.00000    0.38293    1.000
    H567     H        0.67560    0.00000    0.41040    1.000
    C184     C        0.69787    0.00000    0.35289    1.000
    H568     H        0.72530    0.00000    0.36030    1.000
    O93      O        0.05897    0.50000    0.60847    1.000
    C185     C        0.16819    0.50000    0.61707    1.000
    H569     H        0.17560    0.50000    0.58960    1.000
    C186     C        0.19787    0.50000    0.64711    1.000
    H570     H        0.22530    0.50000    0.63970    1.000
    O94      O        0.05897    0.00000    0.10847    1.000
    C187     C        0.16819    0.00000    0.11707    1.000
    H571     H        0.17560    0.00000    0.08960    1.000
    C188     C        0.19787    0.00000    0.14711    1.000
    H572     H        0.22530    0.00000    0.13970    1.000
    O95      O        0.55897    0.50000    0.10847    1.000
    C189     C        0.66819    0.50000    0.11707    1.000
    H573     H        0.67560    0.50000    0.08960    1.000
    C190     C        0.69787    0.50000    0.14711    1.000
    H574     H        0.72530    0.50000    0.13970    1.000
    O96      O        0.55897    0.00000    0.60847    1.000
    C191     C        0.66819    0.00000    0.61707    1.000
    H575     H        0.67560    0.00000    0.58960    1.000
    C192     C        0.69787    0.00000    0.64711    1.000
    H576     H        0.72530    0.00000    0.63970    1.000
    O97      O        0.46333    0.53667    0.96333    1.000
    O98      O        0.53667    0.46333    0.96333    1.000
    O99      O        0.53667    0.53667    0.03667    1.000
    O100     O        0.46333    0.46333    0.03667    1.000
    O101     O        0.96333    0.46333    0.53667    1.000
    O102     O        0.96333    0.96333    0.03667    1.000
    O103     O        0.96333    0.53667    0.46333    1.000
    O104     O        0.96333    0.03667    0.96333    1.000
    O105     O        0.03667    0.53667    0.53667    1.000
    O106     O        0.03667    0.03667    0.03667    1.000
    O107     O        0.03667    0.46333    0.46333    1.000
    O108     O        0.03667    0.96333    0.96333    1.000
    O109     O        0.53667    0.96333    0.46333    1.000
    O110     O        0.46333    0.96333    0.53667    1.000
    O111     O        0.53667    0.03667    0.53667    1.000
    O112     O        0.46333    0.03667    0.46333    1.000
    O113     O        0.53667    0.46333    0.03667    1.000
    O114     O        0.46333    0.53667    0.03667    1.000
    O115     O        0.53667    0.53667    0.96333    1.000
    O116     O        0.46333    0.46333    0.96333    1.000
    O117     O        0.46333    0.96333    0.46333    1.000
    O118     O        0.53667    0.96333    0.53667    1.000
    O119     O        0.53667    0.03667    0.46333    1.000
    O120     O        0.46333    0.03667    0.53667    1.000
    O121     O        0.96333    0.53667    0.53667    1.000
    O122     O        0.96333    0.03667    0.03667    1.000
    O123     O        0.96333    0.46333    0.46333    1.000
    O124     O        0.96333    0.96333    0.96333    1.000
    O125     O        0.03667    0.53667    0.46333    1.000
    O126     O        0.03667    0.03667    0.96333    1.000
    O127     O        0.03667    0.46333    0.53667    1.000
    O128     O        0.03667    0.96333    0.03667    1.000
    C193     C        0.40461    0.50000    0.90461    1.000
    C194     C        0.37212    0.50000    0.87212    1.000
    C195     C        0.31260    0.50000    0.81260    1.000
    C196     C        0.27960    0.50000    0.77960    1.000
    C197     C        0.40461    0.00000    0.40461    1.000
    C198     C        0.37212    0.00000    0.37212    1.000
    C199     C        0.31260    0.00000    0.31260    1.000
    C200     C        0.27960    0.00000    0.27960    1.000
    C201     C        0.59539    0.50000    0.90461    1.000
    C202     C        0.62788    0.50000    0.87212    1.000
    C203     C        0.68740    0.50000    0.81260    1.000
    C204     C        0.72040    0.50000    0.77960    1.000
    C205     C        0.59539    0.00000    0.40461    1.000
    C206     C        0.62788    0.00000    0.37212    1.000
    C207     C        0.68740    0.00000    0.31260    1.000
    C208     C        0.72040    0.00000    0.27960    1.000
    C209     C        0.59539    0.50000    0.09539    1.000
    C210     C        0.62788    0.50000    0.12788    1.000
    C211     C        0.68740    0.50000    0.18740    1.000
    C212     C        0.72040    0.50000    0.22040    1.000
    C213     C        0.59539    0.00000    0.59539    1.000
    C214     C        0.62788    0.00000    0.62788    1.000
    C215     C        0.68740    0.00000    0.68740    1.000
    C216     C        0.72040    0.00000    0.72040    1.000
    C217     C        0.40461    0.50000    0.09539    1.000
    C218     C        0.37212    0.50000    0.12788    1.000
    C219     C        0.31260    0.50000    0.18740    1.000
    C220     C        0.27960    0.50000    0.22040    1.000
    C221     C        0.40461    0.00000    0.59539    1.000
    C222     C        0.37212    0.00000    0.62788    1.000
    C223     C        0.31260    0.00000    0.68740    1.000
    C224     C        0.27960    0.00000    0.72040    1.000
    C225     C        0.90461    0.40461    0.50000    1.000
    C226     C        0.87212    0.37212    0.50000    1.000
    C227     C        0.81260    0.31260    0.50000    1.000
    C228     C        0.77960    0.27960    0.50000    1.000
    C229     C        0.90461    0.90461    0.00000    1.000
    C230     C        0.87212    0.87212    0.00000    1.000
    C231     C        0.81260    0.81260    0.00000    1.000
    C232     C        0.77960    0.77960    0.00000    1.000
    C233     C        0.90461    0.59539    0.50000    1.000
    C234     C        0.87212    0.62788    0.50000    1.000
    C235     C        0.81260    0.68740    0.50000    1.000
    C236     C        0.77960    0.72040    0.50000    1.000
    C237     C        0.90461    0.09539    0.00000    1.000
    C238     C        0.87212    0.12788    0.00000    1.000
    C239     C        0.81260    0.18740    0.00000    1.000
    C240     C        0.77960    0.22040    0.00000    1.000
    C241     C        0.09539    0.59539    0.50000    1.000
    C242     C        0.12788    0.62788    0.50000    1.000
    C243     C        0.18740    0.68740    0.50000    1.000
    C244     C        0.22040    0.72040    0.50000    1.000
    C245     C        0.09539    0.09539    0.00000    1.000
    C246     C        0.12788    0.12788    0.00000    1.000
    C247     C        0.18740    0.18740    0.00000    1.000
    C248     C        0.22040    0.22040    0.00000    1.000
    C249     C        0.09539    0.40461    0.50000    1.000
    C250     C        0.12788    0.37212    0.50000    1.000
    C251     C        0.18740    0.31260    0.50000    1.000
    C252     C        0.22040    0.27960    0.50000    1.000
    C253     C        0.09539    0.90461    0.00000    1.000
    C254     C        0.12788    0.87212    0.00000    1.000
    C255     C        0.18740    0.81260    0.00000    1.000
    C256     C        0.22040    0.77960    0.00000    1.000
    C257     C        0.50000    0.90461    0.40461    1.000
    C258     C        0.50000    0.87212    0.37212    1.000
    C259     C        0.50000    0.81260    0.31260    1.000
    C260     C        0.50000    0.77960    0.27960    1.000
    C261     C        0.00000    0.90461    0.90461    1.000
    C262     C        0.00000    0.87212    0.87212    1.000
    C263     C        0.00000    0.81260    0.81260    1.000
    C264     C        0.00000    0.77960    0.77960    1.000
    C265     C        0.50000    0.90461    0.59539    1.000
    C266     C        0.50000    0.87212    0.62788    1.000
    C267     C        0.50000    0.81260    0.68740    1.000
    C268     C        0.50000    0.77960    0.72040    1.000
    C269     C        0.00000    0.90461    0.09539    1.000
    C270     C        0.00000    0.87212    0.12788    1.000
    C271     C        0.00000    0.81260    0.18740    1.000
    C272     C        0.00000    0.77960    0.22040    1.000
    C273     C        0.50000    0.09539    0.59539    1.000
    C274     C        0.50000    0.12788    0.62788    1.000
    C275     C        0.50000    0.18740    0.68740    1.000
    C276     C        0.50000    0.22040    0.72040    1.000
    C277     C        0.00000    0.09539    0.09539    1.000
    C278     C        0.00000    0.12788    0.12788    1.000
    C279     C        0.00000    0.18740    0.18740    1.000
    C280     C        0.00000    0.22040    0.22040    1.000
    C281     C        0.50000    0.09539    0.40461    1.000
    C282     C        0.50000    0.12788    0.37212    1.000
    C283     C        0.50000    0.18740    0.31260    1.000
    C284     C        0.50000    0.22040    0.27960    1.000
    C285     C        0.00000    0.09539    0.90461    1.000
    C286     C        0.00000    0.12788    0.87212    1.000
    C287     C        0.00000    0.18740    0.81260    1.000
    C288     C        0.00000    0.22040    0.77960    1.000
    C289     C        0.50000    0.40461    0.09539    1.000
    C290     C        0.50000    0.37212    0.12788    1.000
    C291     C        0.50000    0.31260    0.18740    1.000
    C292     C        0.50000    0.27960    0.22040    1.000
    C293     C        0.00000    0.40461    0.59539    1.000
    C294     C        0.00000    0.37212    0.62788    1.000
    C295     C        0.00000    0.31260    0.68740    1.000
    C296     C        0.00000    0.27960    0.72040    1.000
    C297     C        0.50000    0.59539    0.09539    1.000
    C298     C        0.50000    0.62788    0.12788    1.000
    C299     C        0.50000    0.68740    0.18740    1.000
    C300     C        0.50000    0.72040    0.22040    1.000
    C301     C        0.00000    0.59539    0.59539    1.000
    C302     C        0.00000    0.62788    0.62788    1.000
    C303     C        0.00000    0.68740    0.68740    1.000
    C304     C        0.00000    0.72040    0.72040    1.000
    C305     C        0.50000    0.59539    0.90461    1.000
    C306     C        0.50000    0.62788    0.87212    1.000
    C307     C        0.50000    0.68740    0.81260    1.000
    C308     C        0.50000    0.72040    0.77960    1.000
    C309     C        0.00000    0.59539    0.40461    1.000
    C310     C        0.00000    0.62788    0.37212    1.000
    C311     C        0.00000    0.68740    0.31260    1.000
    C312     C        0.00000    0.72040    0.27960    1.000
    C313     C        0.50000    0.40461    0.90461    1.000
    C314     C        0.50000    0.37212    0.87212    1.000
    C315     C        0.50000    0.31260    0.81260    1.000
    C316     C        0.50000    0.27960    0.77960    1.000
    C317     C        0.00000    0.40461    0.40461    1.000
    C318     C        0.00000    0.37212    0.37212    1.000
    C319     C        0.00000    0.31260    0.31260    1.000
    C320     C        0.00000    0.27960    0.27960    1.000
    C321     C        0.40461    0.90461    0.50000    1.000
    C322     C        0.37212    0.87212    0.50000    1.000
    C323     C        0.31260    0.81260    0.50000    1.000
    C324     C        0.27960    0.77960    0.50000    1.000
    C325     C        0.40461    0.40461    0.00000    1.000
    C326     C        0.37212    0.37212    0.00000    1.000
    C327     C        0.31260    0.31260    0.00000    1.000
    C328     C        0.27960    0.27960    0.00000    1.000
    C329     C        0.59539    0.90461    0.50000    1.000
    C330     C        0.62788    0.87212    0.50000    1.000
    C331     C        0.68740    0.81260    0.50000    1.000
    C332     C        0.72040    0.77960    0.50000    1.000
    C333     C        0.59539    0.40461    0.00000    1.000
    C334     C        0.62788    0.37212    0.00000    1.000
    C335     C        0.68740    0.31260    0.00000    1.000
    C336     C        0.72040    0.27960    0.00000    1.000
    C337     C        0.59539    0.09539    0.50000    1.000
    C338     C        0.62788    0.12788    0.50000    1.000
    C339     C        0.68740    0.18740    0.50000    1.000
    C340     C        0.72040    0.22040    0.50000    1.000
    C341     C        0.59539    0.59539    0.00000    1.000
    C342     C        0.62788    0.62788    0.00000    1.000
    C343     C        0.68740    0.68740    0.00000    1.000
    C344     C        0.72040    0.72040    0.00000    1.000
    C345     C        0.40461    0.09539    0.50000    1.000
    C346     C        0.37212    0.12788    0.50000    1.000
    C347     C        0.31260    0.18740    0.50000    1.000
    C348     C        0.27960    0.22040    0.50000    1.000
    C349     C        0.40461    0.59539    0.00000    1.000
    C350     C        0.37212    0.62788    0.00000    1.000
    C351     C        0.31260    0.68740    0.00000    1.000
    C352     C        0.27960    0.72040    0.00000    1.000
    C353     C        0.90461    0.50000    0.59539    1.000
    C354     C        0.87212    0.50000    0.62788    1.000
    C355     C        0.81260    0.50000    0.68740    1.000
    C356     C        0.77960    0.50000    0.72040    1.000
    C357     C        0.90461    0.00000    0.09539    1.000
    C358     C        0.87212    0.00000    0.12788    1.000
    C359     C        0.81260    0.00000    0.18740    1.000
    C360     C        0.77960    0.00000    0.22040    1.000
    C361     C        0.90461    0.50000    0.40461    1.000
    C362     C        0.87212    0.50000    0.37212    1.000
    C363     C        0.81260    0.50000    0.31260    1.000
    C364     C        0.77960    0.50000    0.27960    1.000
    C365     C        0.90461    0.00000    0.90461    1.000
    C366     C        0.87212    0.00000    0.87212    1.000
    C367     C        0.81260    0.00000    0.81260    1.000
    C368     C        0.77960    0.00000    0.77960    1.000
    C369     C        0.09539    0.50000    0.40461    1.000
    C370     C        0.12788    0.50000    0.37212    1.000
    C371     C        0.18740    0.50000    0.31260    1.000
    C372     C        0.22040    0.50000    0.27960    1.000
    C373     C        0.09539    0.00000    0.90461    1.000
    C374     C        0.12788    0.00000    0.87212    1.000
    C375     C        0.18740    0.00000    0.81260    1.000
    C376     C        0.22040    0.00000    0.77960    1.000
    C377     C        0.09539    0.50000    0.59539    1.000
    C378     C        0.12788    0.50000    0.62788    1.000
    C379     C        0.18740    0.50000    0.68740    1.000
    C380     C        0.22040    0.50000    0.72040    1.000
    C381     C        0.09539    0.00000    0.09539    1.000
    C382     C        0.12788    0.00000    0.12788    1.000
    C383     C        0.18740    0.00000    0.18740    1.000
    C384     C        0.22040    0.00000    0.22040    1.000
    C385     C        0.26480    0.53535    0.76480    1.000
    C386     C        0.27840    0.57857    0.77840    1.000
    C387     C        0.26480    0.03535    0.26480    1.000
    C388     C        0.27840    0.07857    0.27840    1.000
    C389     C        0.76480    0.03535    0.76480    1.000
    C390     C        0.77840    0.07857    0.77840    1.000
    C391     C        0.73520    0.46465    0.76480    1.000
    C392     C        0.72160    0.42143    0.77840    1.000
    C393     C        0.73520    0.96465    0.26480    1.000
    C394     C        0.72160    0.92143    0.27840    1.000
    C395     C        0.73520    0.53535    0.23520    1.000
    C396     C        0.72160    0.57857    0.22160    1.000
    C397     C        0.73520    0.03535    0.73520    1.000
    C398     C        0.72160    0.07857    0.72160    1.000
    C399     C        0.26480    0.46465    0.23520    1.000
    C400     C        0.27840    0.42143    0.22160    1.000
    C401     C        0.26480    0.96465    0.73520    1.000
    C402     C        0.27840    0.92143    0.72160    1.000
    C403     C        0.76480    0.46465    0.73520    1.000
    C404     C        0.77840    0.42143    0.72160    1.000
    C405     C        0.76480    0.26480    0.53535    1.000
    C406     C        0.77840    0.27840    0.57857    1.000
    C407     C        0.76480    0.76480    0.03535    1.000
    C408     C        0.77840    0.77840    0.07857    1.000
    C409     C        0.76480    0.73520    0.46465    1.000
    C410     C        0.77840    0.72160    0.42143    1.000
    C411     C        0.76480    0.23520    0.96465    1.000
    C412     C        0.77840    0.22160    0.92143    1.000
    C413     C        0.23520    0.73520    0.53535    1.000
    C414     C        0.22160    0.72160    0.57857    1.000
    C415     C        0.23520    0.23520    0.03535    1.000
    C416     C        0.22160    0.22160    0.07857    1.000
    C417     C        0.73520    0.73520    0.03535    1.000
    C418     C        0.72160    0.72160    0.07857    1.000
    C419     C        0.23520    0.26480    0.46465    1.000
    C420     C        0.22160    0.27840    0.42143    1.000
    C421     C        0.23520    0.76480    0.96465    1.000
    C422     C        0.22160    0.77840    0.92143    1.000
    C423     C        0.73520    0.76480    0.46465    1.000
    C424     C        0.72160    0.77840    0.42143    1.000
    C425     C        0.53535    0.76480    0.26480    1.000
    C426     C        0.57857    0.77840    0.27840    1.000
    C427     C        0.03535    0.76480    0.76480    1.000
    C428     C        0.07857    0.77840    0.77840    1.000
    C429     C        0.46465    0.76480    0.73520    1.000
    C430     C        0.42143    0.77840    0.72160    1.000
    C431     C        0.96465    0.76480    0.23520    1.000
    C432     C        0.92143    0.77840    0.22160    1.000
    C433     C        0.53535    0.23520    0.73520    1.000
    C434     C        0.57857    0.22160    0.72160    1.000
    C435     C        0.03535    0.23520    0.23520    1.000
    C436     C        0.07857    0.22160    0.22160    1.000
    C437     C        0.03535    0.73520    0.73520    1.000
    C438     C        0.07857    0.72160    0.72160    1.000
    C439     C        0.46465    0.23520    0.26480    1.000
    C440     C        0.42143    0.22160    0.27840    1.000
    C441     C        0.46465    0.73520    0.76480    1.000
    C442     C        0.42143    0.72160    0.77840    1.000
    C443     C        0.96465    0.23520    0.76480    1.000
    C444     C        0.92143    0.22160    0.77840    1.000
    C445     C        0.53535    0.26480    0.23520    1.000
    C446     C        0.57857    0.27840    0.22160    1.000
    C447     C        0.53535    0.76480    0.73520    1.000
    C448     C        0.57857    0.77840    0.72160    1.000
    C449     C        0.03535    0.26480    0.73520    1.000
    C450     C        0.07857    0.27840    0.72160    1.000
    C451     C        0.46465    0.73520    0.23520    1.000
    C452     C        0.42143    0.72160    0.22160    1.000
    C453     C        0.96465    0.73520    0.73520    1.000
    C454     C        0.92143    0.72160    0.72160    1.000
    C455     C        0.53535    0.73520    0.76480    1.000
    C456     C        0.57857    0.72160    0.77840    1.000
    C457     C        0.03535    0.73520    0.26480    1.000
    C458     C        0.07857    0.72160    0.27840    1.000
    C459     C        0.46465    0.26480    0.76480    1.000
    C460     C        0.42143    0.27840    0.77840    1.000
    C461     C        0.96465    0.26480    0.26480    1.000
    C462     C        0.92143    0.27840    0.27840    1.000
    C463     C        0.96465    0.76480    0.76480    1.000
    C464     C        0.92143    0.77840    0.77840    1.000
    C465     C        0.26480    0.76480    0.46465    1.000
    C466     C        0.27840    0.77840    0.42143    1.000
    C467     C        0.26480    0.26480    0.96465    1.000
    C468     C        0.27840    0.27840    0.92143    1.000
    C469     C        0.76480    0.76480    0.96465    1.000
    C470     C        0.77840    0.77840    0.92143    1.000
    C471     C        0.73520    0.76480    0.53535    1.000
    C472     C        0.72160    0.77840    0.57857    1.000
    C473     C        0.73520    0.26480    0.03535    1.000
    C474     C        0.72160    0.27840    0.07857    1.000
    C475     C        0.73520    0.23520    0.46465    1.000
    C476     C        0.72160    0.22160    0.42143    1.000
    C477     C        0.73520    0.73520    0.96465    1.000
    C478     C        0.72160    0.72160    0.92143    1.000
    C479     C        0.26480    0.23520    0.53535    1.000
    C480     C        0.27840    0.22160    0.57857    1.000
    C481     C        0.26480    0.73520    0.03535    1.000
    C482     C        0.27840    0.72160    0.07857    1.000
    C483     C        0.76480    0.73520    0.53535    1.000
    C484     C        0.77840    0.72160    0.57857    1.000
    C485     C        0.76480    0.53535    0.73520    1.000
    C486     C        0.77840    0.57857    0.72160    1.000
    C487     C        0.76480    0.03535    0.23520    1.000
    C488     C        0.77840    0.07857    0.22160    1.000
    C489     C        0.76480    0.46465    0.26480    1.000
    C490     C        0.77840    0.42143    0.27840    1.000
    C491     C        0.76480    0.96465    0.76480    1.000
    C492     C        0.77840    0.92143    0.77840    1.000
    C493     C        0.23520    0.53535    0.26480    1.000
    C494     C        0.22160    0.57857    0.27840    1.000
    C495     C        0.23520    0.03535    0.76480    1.000
    C496     C        0.22160    0.07857    0.77840    1.000
    C497     C        0.73520    0.53535    0.76480    1.000
    C498     C        0.72160    0.57857    0.77840    1.000
    C499     C        0.23520    0.46465    0.73520    1.000
    C500     C        0.22160    0.42143    0.72160    1.000
    C501     C        0.23520    0.96465    0.23520    1.000
    C502     C        0.22160    0.92143    0.22160    1.000
    C503     C        0.73520    0.96465    0.73520    1.000
    C504     C        0.72160    0.92143    0.72160    1.000
    C505     C        0.73520    0.46465    0.23520    1.000
    C506     C        0.72160    0.42143    0.22160    1.000
    C507     C        0.26480    0.53535    0.23520    1.000
    C508     C        0.27840    0.57857    0.22160    1.000
    C509     C        0.26480    0.03535    0.73520    1.000
    C510     C        0.27840    0.07857    0.72160    1.000
    C511     C        0.26480    0.46465    0.76480    1.000
    C512     C        0.27840    0.42143    0.77840    1.000
    C513     C        0.26480    0.96465    0.26480    1.000
    C514     C        0.27840    0.92143    0.27840    1.000
    C515     C        0.73520    0.03535    0.26480    1.000
    C516     C        0.72160    0.07857    0.27840    1.000
    C517     C        0.23520    0.73520    0.46465    1.000
    C518     C        0.22160    0.72160    0.42143    1.000
    C519     C        0.23520    0.23520    0.96465    1.000
    C520     C        0.22160    0.22160    0.92143    1.000
    C521     C        0.23520    0.26480    0.53535    1.000
    C522     C        0.22160    0.27840    0.57857    1.000
    C523     C        0.23520    0.76480    0.03535    1.000
    C524     C        0.22160    0.77840    0.07857    1.000
    C525     C        0.76480    0.26480    0.46465    1.000
    C526     C        0.77840    0.27840    0.42143    1.000
    C527     C        0.76480    0.23520    0.03535    1.000
    C528     C        0.77840    0.22160    0.07857    1.000
    C529     C        0.46465    0.23520    0.73520    1.000
    C530     C        0.42143    0.22160    0.72160    1.000
    C531     C        0.96465    0.23520    0.23520    1.000
    C532     C        0.92143    0.22160    0.22160    1.000
    C533     C        0.53535    0.23520    0.26480    1.000
    C534     C        0.57857    0.22160    0.27840    1.000
    C535     C        0.03535    0.23520    0.76480    1.000
    C536     C        0.07857    0.22160    0.77840    1.000
    C537     C        0.46465    0.76480    0.26480    1.000
    C538     C        0.42143    0.77840    0.27840    1.000
    C539     C        0.03535    0.76480    0.23520    1.000
    C540     C        0.07857    0.77840    0.22160    1.000
    C541     C        0.96465    0.73520    0.26480    1.000
    C542     C        0.92143    0.72160    0.27840    1.000
    C543     C        0.53535    0.26480    0.76480    1.000
    C544     C        0.57857    0.27840    0.77840    1.000
    C545     C        0.03535    0.26480    0.26480    1.000
    C546     C        0.07857    0.27840    0.27840    1.000
    C547     C        0.46465    0.26480    0.23520    1.000
    C548     C        0.42143    0.27840    0.22160    1.000
    C549     C        0.96465    0.26480    0.73520    1.000
    C550     C        0.92143    0.27840    0.72160    1.000
    C551     C        0.53535    0.73520    0.23520    1.000
    C552     C        0.57857    0.72160    0.22160    1.000
    C553     C        0.73520    0.23520    0.53535    1.000
    C554     C        0.72160    0.22160    0.57857    1.000
    C555     C        0.26480    0.23520    0.46465    1.000
    C556     C        0.27840    0.22160    0.42143    1.000
    C557     C        0.26480    0.73520    0.96465    1.000
    C558     C        0.27840    0.72160    0.92143    1.000
    C559     C        0.26480    0.76480    0.53535    1.000
    C560     C        0.27840    0.77840    0.57857    1.000
    C561     C        0.26480    0.26480    0.03535    1.000
    C562     C        0.27840    0.27840    0.07857    1.000
    C563     C        0.73520    0.26480    0.96465    1.000
    C564     C        0.72160    0.27840    0.92143    1.000
    C565     C        0.23520    0.46465    0.26480    1.000
    C566     C        0.22160    0.42143    0.27840    1.000
    C567     C        0.23520    0.96465    0.76480    1.000
    C568     C        0.22160    0.92143    0.77840    1.000
    C569     C        0.23520    0.53535    0.73520    1.000
    C570     C        0.22160    0.57857    0.72160    1.000
    C571     C        0.23520    0.03535    0.23520    1.000
    C572     C        0.22160    0.07857    0.22160    1.000
    C573     C        0.76480    0.96465    0.23520    1.000
    C574     C        0.77840    0.92143    0.22160    1.000
    C575     C        0.76480    0.53535    0.26480    1.000
    C576     C        0.77840    0.57857    0.27840    1.000
