data_functionalizedCrystal
_audit_creation_method	'EQeq! by Chris Wilmer'
_symmetry_space_group_name_H-M	'P1'
_symmetry_Int_Tables_number	1
_symmetry_cell_setting	triclinic
loop_
_symmetry_equiv_pos_as_xyz
  x,y,z
_cell_length_a	23.8822
_cell_length_b	23.8822
_cell_length_c	46.8514
_cell_angle_alpha	90
_cell_angle_beta	90
_cell_angle_gamma	90
loop_
_atom_site_label
_atom_site_type_symbol
_atom_site_fract_x
_atom_site_fract_y
_atom_site_fract_z
_atom_site_charge
Mof_N 	N 	0.1845	0.8184	0.71729	-0.24
Mof_N 	N 	0.077	0.8	0.74844	-0.291
Mof_N 	N 	0.095	0.911	0.71789	-0.242
Mof_C 	C 	0.1927	0.7634	0.71865	0.063
Mof_C 	C 	0.2037	0.8447	0.69387	0.072
Mof_C 	C 	0.041	0.7792	0.7544	0.143
Mof_C 	C 	0.2197	0.7331	0.69729	-0.123
Mof_H 	H 	0.1795	0.7438	0.735	-0.008
Mof_H 	H 	0.1976	0.8839	0.6924	-0.006
Mof_C 	C 	0.2313	0.8192	0.67229	-0.126
Mof_S 	S 	0.9829	0.7487	0.7644	-0.116
Mof_C 	C 	0.2393	0.7602	0.6732	0.042
Mof_H 	H 	0.2247	0.6938	0.6993	0.067
Mof_H 	H 	0.2451	0.8404	0.6567	0.084
Mof_C 	C 	0.2643	0.7297	0.64866	0.076
Mof_N 	N 	0.2752	0.7608	0.62513	-0.135
Mof_C 	C 	0.2743	0.6726	0.65002	-0.148
Mof_C 	C 	0.296	0.7343	0.60214	0.079
Mof_C 	C 	0.296	0.6451	0.62608	0.101
Mof_H 	H 	0.2665	0.6524	0.667	0.077
Mof_C 	C 	0.3065	0.6775	0.60184	-0.147
Mof_C 	C 	0.3087	0.7697	0.57667	0.048
Mof_C 	C 	0.3064	0.5841	0.62589	-0.085
Mof_H 	H 	0.3208	0.6603	0.5851	0.074
Mof_C 	C 	0.3065	0.828	0.57765	-0.117
Mof_C 	C 	0.3251	0.7459	0.55129	-0.124
Mof_C 	C 	0.297	0.5528	0.60102	0.054
Mof_C 	C 	0.3254	0.5565	0.64978	0.056
Mof_H 	H 	0.2937	0.8465	0.5944	0.078
Mof_C 	C 	0.3229	0.8585	0.55435	0.07
Mof_C 	C 	0.3411	0.7793	0.52879	0.061
Mof_H 	H 	0.3254	0.7063	0.5493	0.058
Mof_H 	H 	0.2834	0.5712	0.5844	0.005
Mof_C 	C 	0.307	0.4961	0.60023	-0.194
Mof_C 	C 	0.3368	0.4989	0.64961	-0.192
Mof_H 	H 	0.331	0.5771	0.6669	0.011
Mof_N 	N 	0.3409	0.8355	0.52978	-0.238
Mof_H 	H 	0.3215	0.8982	0.5556	-0.006
Mof_H 	H 	0.353	0.7617	0.5117	-0.013
Mof_H 	H 	0.3004	0.4757	0.5832	0.103
Mof_C 	C 	0.3269	0.4686	0.62453	0.229
Mof_H 	H 	0.3509	0.4808	0.6662	0.097
Mof_Co	Co	0.38181	0.87986	0.49538	1.122
Mof_O 	O 	0.3368	0.41273	0.62167	-0.261
Mof_N 	N 	0.33581	0.82876	0.46492	-0.238
Mof_N 	N 	0.4443	0.8177	0.49592	-0.255
Mof_N 	N 	0.4285	0.9294	0.52607	-0.236
Mof_N 	N 	0.3209	0.9409	0.49248	-0.265
Mof_N 	N 	0.4274	0.9202	0.461	-0.238
Mof_C 	C 	0.3628	0.3849	0.64492	0.116
Mof_C 	C 	0.2811	0.8212	0.46766	0.062
Mof_C 	C 	0.3607	0.8065	0.44185	0.061
Mof_C 	C 	0.4728	0.7843	0.4852	0.088
Mof_C 	C 	0.455	0.9036	0.54788	0.061
Mof_C 	C 	0.4303	0.9849	0.52435	0.067
Mof_C 	C 	0.287	0.9725	0.48527	0.094
Mof_H 	H 	0.3373	0.3842	0.6616	-0.003
Mof_H 	H 	0.3975	0.4048	0.6505	0.002
Mof_C 	C 	0.3764	0.3259	0.6357	-0.204
Mof_C 	C 	0.249	0.7909	0.4483	-0.125
Mof_H 	H 	0.2629	0.8374	0.4837	-0.01
Mof_H 	H 	0.4	0.8108	0.4398	-0.006
Mof_C 	C 	0.3316	0.7774	0.42067	-0.12
Mof_S 	S 	0.5163	0.741	0.47013	-0.082
Mof_C 	C 	0.4827	0.9337	0.56883	-0.114
Mof_H 	H 	0.4546	0.8639	0.5489	-0.004
Mof_H 	H 	0.4125	0.0027	0.5087	-0.009
Mof_C 	C 	0.4571	0.0179	0.54439	-0.12
Mof_S 	S 	0.23797	0.01601	0.47515	-0.075
Mof_H 	H 	0.3415	0.3035	0.6357	0.092
Mof_H 	H 	0.3905	0.3268	0.6158	0.091
Mof_C 	C 	0.419	0.2972	0.6542	-0.012
Mof_C 	C 	0.2741	0.7695	0.42384	0.041
Mof_H 	H 	0.2103	0.7849	0.4518	0.066
Mof_H 	H 	0.3506	0.7633	0.4044	0.08
Mof_C 	C 	0.4841	0.9923	0.56738	0.04
Mof_H 	H 	0.5007	0.9148	0.5841	0.078
Mof_H 	H 	0.4572	0.0575	0.5425	0.064
Mof_H 	H 	0.4267	0.2599	0.6459	0.02
Mof_H 	H 	0.4542	0.3189	0.6532	0.027
Mof_C 	C 	0.4044	0.2895	0.6847	-0.119
Mof_C 	C 	0.2413	0.7427	0.40037	0.079
Mof_C 	C 	0.5116	0.0254	0.59045	0.08
Mof_H 	H 	0.3923	0.3255	0.6932	0.061
Mof_H 	H 	0.437	0.2754	0.6955	0.057
Mof_C 	C 	0.3577	0.2479	0.6854	-0.091
Mof_N 	N 	0.2697	0.7296	0.3766	-0.138
Mof_C 	C 	0.1838	0.7328	0.40345	-0.154
Mof_N 	N 	0.52085	0.9969	0.61473	-0.138
Mof_C 	C 	0.523	0.0818	0.58748	-0.15
Mof_H 	H 	0.322	0.2656	0.6795	0.055
Mof_H 	H 	0.3657	0.2162	0.6724	0.049
Mof_C 	C 	0.3542	0.2283	0.7154	-0.045
Mof_C 	C 	0.2417	0.7073	0.3549	0.084
Mof_C 	C 	0.1547	0.7092	0.38055	0.11
Mof_H 	H 	0.1651	0.7419	0.4207	0.078
Mof_C 	C 	0.5426	0.0252	0.63686	0.084
Mof_H 	H 	0.5159	0.1004	0.5699	0.076
Mof_C 	C 	0.5451	0.1113	0.61079	0.104
Mof_H 	H 	0.342	0.2598	0.7276	0.039
Mof_H 	H 	0.392	0.2166	0.7218	0.038
Mof_C 	C 	0.3136	0.1794	0.7191	-0.18
Mof_C 	C 	0.1845	0.6979	0.35588	-0.154
Mof_C 	C 	0.2763	0.692	0.32922	0.048
Mof_C 	C 	0.0936	0.6972	0.38215	-0.099
Mof_C 	C 	0.5546	0.0818	0.63564	-0.152
Mof_C 	C 	0.5527	0.9924	0.66292	0.042
Mof_C 	C 	0.5572	0.1721	0.60966	-0.085
Mof_H 	H 	0.3269	0.1462	0.7085	0.076
Mof_H 	H 	0.2758	0.1896	0.7121	0.078
Mof_C 	C 	0.3126	0.1677	0.7512	0.091
Mof_H 	H 	0.1657	0.6838	0.3395	0.077
Mof_C 	C 	0.3326	0.6976	0.32895	-0.117
Mof_C 	C 	0.2508	0.67	0.3049	-0.124
Mof_C 	C 	0.0597	0.702	0.35843	0.072
Mof_C 	C 	0.069	0.6813	0.40755	0.074
Mof_H 	H 	0.5694	0.1004	0.6519	0.078
Mof_C 	C 	0.5691	0.0165	0.68864	-0.118
Mof_C 	C 	0.5492	0.9329	0.66262	-0.116
Mof_C 	C 	0.575	0.1986	0.58443	0.046
Mof_C 	C 	0.5509	0.2054	0.63403	0.049
Mof_H 	H 	0.3242	0.2008	0.7625	-0.002
Mof_H 	H 	0.3363	0.1352	0.7564	-0.002
Mof_C 	C 	0.2484	0.155	0.7549	-0.452
Mof_H 	H 	0.3509	0.7142	0.3449	0.077
Mof_C 	C 	0.3644	0.6795	0.30569	0.064
Mof_C 	C 	0.2843	0.6529	0.28292	0.065
Mof_H 	H 	0.2112	0.667	0.3037	0.065
Mof_H 	H 	0.0755	0.7133	0.3407	0.002
Mof_C 	C 	0.0034	0.6905	0.35996	-0.213
Mof_C 	C 	0.0127	0.6694	0.40967	-0.208
Mof_H 	H 	0.0917	0.6786	0.4242	0.006
Mof_H 	H 	0.5712	0.0561	0.6903	0.063
Mof_C 	C 	0.5823	0.9833	0.71152	0.063
Mof_C 	C 	0.5619	0.9034	0.68697	0.071
Mof_H 	H 	0.5381	0.9138	0.6458	0.078
Mof_H 	H 	0.5798	0.1771	0.5675	0.01
Mof_C 	C 	0.5858	0.2567	0.5839	-0.197
Mof_C 	C 	0.5617	0.2625	0.6337	-0.196
Mof_H 	H 	0.5388	0.1884	0.6513	0.006
Mof_H 	H 	0.2405	0.1459	0.7749	0.153
Mof_H 	H 	0.2264	0.1872	0.749	0.156
Mof_H 	H 	0.2383	0.1224	0.743	0.154
Mof_N 	N 	0.3406	0.6565	0.28248	-0.238
Mof_H 	H 	0.404	0.6835	0.3063	-0.005
Mof_H 	H 	0.2665	0.6373	0.2666	-0.009
Mof_H 	H 	0.981	0.6937	0.3433	0.11
Mof_C 	C 	0.9793	0.6746	0.38526	0.244
Mof_H 	H 	0.9969	0.6579	0.4273	0.104
Mof_H 	H 	0.5939	0.001	0.7287	-0.008
Mof_H 	H 	0.5578	0.8639	0.6866	-0.013
Mof_H 	H 	0.5981	0.2743	0.5668	0.089
Mof_C 	C 	0.5783	0.2876	0.6084	0.231
Mof_H 	H 	0.5578	0.2841	0.6506	0.103
Mof_O 	O 	0.923	0.6649	0.38511	-0.264
Mof_O 	O 	0.5867	0.3439	0.61037	-0.257
Mof_N 	N 	0.4296	0.565	0.2829	-0.239
Mof_N 	N 	0.4503	0.6734	0.25257	-0.259
Mof_C 	C 	0.8971	0.6484	0.411	0.11
Mof_C 	C 	0.6029	0.3719	0.5853	0.097
Mof_C 	C 	0.4036	0.544	0.30536	0.075
Mof_C 	C 	0.486	0.5596	0.28207	0.058
Mof_C 	C 	0.483	0.7028	0.26286	0.092
Mof_H 	H 	0.9024	0.678	0.4255	-0
Mof_H 	H 	0.9148	0.6137	0.4181	0.003
Mof_C 	C 	0.8349	0.6385	0.4063	-0.194
Mof_H 	H 	0.574	0.3677	0.5703	-0.005
Mof_H 	H 	0.6388	0.3569	0.5781	0.002
Mof_C 	C 	0.6094	0.4344	0.5941	-0.165
Mof_C 	C 	0.4301	0.5191	0.32813	-0.123
Mof_H 	H 	0.3639	0.5462	0.3058	-0.011
Mof_H 	H 	0.5056	0.5743	0.2661	-0.006
Mof_C 	C 	0.5162	0.5337	0.30339	-0.116
Mof_S 	S 	0.52852	0.7429	0.27943	-0.077
Mof_H 	H 	0.8303	0.6102	0.3911	0.086
Mof_H 	H 	0.8177	0.6738	0.3995	0.092
Mof_C 	C 	0.8033	0.6187	0.4329	-0.033
Mof_H 	H 	0.5774	0.4454	0.6063	0.092
Mof_H 	H 	0.6086	0.4581	0.5767	0.071
Mof_C 	C 	0.6652	0.4444	0.6104	-0.054
Mof_C 	C 	0.4888	0.5134	0.32774	0.039
Mof_H 	H 	0.4091	0.506	0.344	0.079
Mof_H 	H 	0.5557	0.5297	0.3016	0.063
Mof_H 	H 	0.8194	0.5831	0.4399	0.035
Mof_H 	H 	0.8065	0.647	0.4482	0.036
Mof_C 	C 	0.7429	0.6105	0.425	-0.114
Mof_H 	H 	0.6941	0.4573	0.5968	0.044
Mof_H 	H 	0.6781	0.4085	0.6188	0.053
Mof_C 	C 	0.6585	0.4892	0.635	-0.092
Mof_C 	C 	0.5194	0.4893	0.35256	0.082
Mof_H 	H 	0.7384	0.5755	0.4139	0.053
Mof_H 	H 	0.7295	0.6422	0.4132	0.055
Mof_C 	C 	0.709	0.6071	0.4531	-0.092
Mof_H 	H 	0.6298	0.4759	0.6487	0.06
Mof_H 	H 	0.6944	0.4922	0.6455	0.057
Mof_C 	C 	0.6419	0.5469	0.6242	-0.12
Mof_N 	N 	0.4887	0.4778	0.37548	-0.137
Mof_C 	C 	0.5771	0.4805	0.35158	-0.152
Mof_H 	H 	0.7278	0.6311	0.4674	0.051
Mof_H 	H 	0.7111	0.5681	0.4601	0.051
Mof_C 	C 	0.6456	0.6244	0.4518	-0.078
Mof_H 	H 	0.6707	0.5602	0.6106	0.063
Mof_H 	H 	0.6061	0.5438	0.6136	0.065
Mof_C 	C 	0.6354	0.589	0.6473	-0.014
Mof_C 	C 	0.515	0.4571	0.39859	0.08
Mof_H 	H 	0.5973	0.4882	0.3346	0.078
Mof_C 	C 	0.605	0.4606	0.3755	0.103
Mof_H 	H 	0.641	0.6552	0.4657	0.047
Mof_H 	H 	0.6397	0.6411	0.4327	0.049
Mof_C 	C 	0.5953	0.5841	0.4568	-0.156
Mof_H 	H 	0.6079	0.5745	0.6613	0.033
Mof_H 	H 	0.6717	0.5928	0.6573	0.032
Mof_C 	C 	0.6171	0.6451	0.6382	-0.203
Mof_C 	C 	0.5718	0.4485	0.39933	-0.147
Mof_C 	C 	0.4782	0.4433	0.42318	0.051
Mof_C 	C 	0.6658	0.4495	0.37547	-0.088
Mof_H 	H 	0.6025	0.5806	0.4775	0.068
Mof_H 	H 	0.615	0.5513	0.4487	0.068
Mof_C 	C 	0.5366	0.5525	0.4585	0.047
Mof_H 	H 	0.5863	0.6413	0.6242	0.086
Mof_H 	H 	0.6486	0.6645	0.6287	0.085
Mof_C 	C 	0.5962	0.6814	0.6643	0.095
Mof_H 	H 	0.5887	0.4342	0.4162	0.074
Mof_C 	C 	0.5008	0.4225	0.44848	-0.134
Mof_C 	C 	0.4208	0.4485	0.42184	-0.124
Mof_C 	C 	0.6935	0.4324	0.35138	0.054
Mof_C 	C 	0.6974	0.4575	0.40043	0.052
Mof_H 	H 	0.5226	0.555	0.4387	0.013
Mof_H 	H 	0.5478	0.5129	0.461	0.001
Mof_C 	C 	0.4816	0.5566	0.4767	-0.437
Mof_H 	H 	0.6261	0.6829	0.6789	-0.002
Mof_H 	H 	0.5631	0.6633	0.6729	-0.004
Mof_C 	C 	0.5805	0.7429	0.655	-0.469
Mof_H 	H 	0.5402	0.4202	0.4509	0.064
Mof_C 	C 	0.4651	0.405	0.47009	0.074
Mof_C 	C 	0.3887	0.4291	0.44486	0.067
Mof_H 	H 	0.4034	0.4649	0.4057	0.08
Mof_H 	H 	0.6729	0.4275	0.3342	0.012
Mof_C 	C 	0.7516	0.4219	0.35111	-0.199
Mof_C 	C 	0.7549	0.4481	0.40082	-0.197
Mof_H 	H 	0.6792	0.4695	0.4174	0.004
Mof_H 	H 	0.4551	0.5278	0.4703	0.151
Mof_H 	H 	0.4904	0.5509	0.4969	0.146
Mof_H 	H 	0.4648	0.5937	0.4741	0.147
Mof_H 	H 	0.5961	0.7506	0.6361	0.159
Mof_H 	H 	0.596	0.7696	0.6688	0.164
Mof_H 	H 	0.5397	0.7468	0.6544	0.166
Mof_H 	H 	0.4813	0.3923	0.4875	-0.021
Mof_H 	H 	0.3492	0.4334	0.444	-0.013
Mof_H 	H 	0.7695	0.4092	0.3342	0.1
Mof_C 	C 	0.7823	0.4304	0.37623	0.231
Mof_H 	H 	0.7754	0.4537	0.4179	0.104
Mof_O 	O 	0.8381	0.4218	0.37917	-0.265
Mof_C 	C 	0.8665	0.4021	0.3554	0.119
Mof_H 	H 	0.8664	0.4308	0.3402	-0.004
Mof_H 	H 	0.8481	0.3679	0.348	-0
Mof_C 	C 	0.927	0.3887	0.3643	-0.192
Mof_H 	H 	0.9437	0.4219	0.3736	0.098
Mof_H 	H 	0.9269	0.3576	0.3783	0.091
Mof_C 	C 	0.9622	0.3723	0.3384	-0.044
Mof_H 	H 	0.9418	0.3428	0.3279	0.037
Mof_H 	H 	0.9648	0.4053	0.3257	0.041
Mof_C 	C 	0.0187	0.3523	0.3438	-0.08
Mof_H 	H 	0.0364	0.3466	0.3249	0.046
Mof_H 	H 	0.015	0.3148	0.3526	0.052
Mof_C 	C 	0.0599	0.3849	0.3618	-0.15
Mof_H 	H 	0.0683	0.4206	0.352	0.073
Mof_H 	H 	0.0417	0.3942	0.3802	0.075
Mof_C 	C 	0.1111	0.3569	0.3676	0.017
Mof_H 	H 	0.1234	0.3404	0.3492	0.018
Mof_H 	H 	0.1016	0.3252	0.3802	0.025
Mof_C 	C 	0.1625	0.3844	0.3805	-0.239
Mof_H 	H 	0.1954	0.3602	0.3769	0.094
Mof_H 	H 	0.1691	0.4206	0.3707	0.092
Mof_C 	C 	0.1579	0.3949	0.4121	0.152
Mof_H 	H 	0.1502	0.3597	0.4225	-0.02
Mof_H 	H 	0.1277	0.4221	0.4162	-0.019
Mof_C 	C 	0.2158	0.4191	0.4205	-0.512
Mof_H 	H 	0.2437	0.389	0.4205	0.174
Mof_H 	H 	0.2135	0.4356	0.4396	0.172
Mof_H 	H 	0.2268	0.4479	0.4067	0.174
Mof_N 	N 	0.8155	0.1816	0.21729	-0.241
Mof_N 	N 	0.923	0.2	0.24844	-0.292
Mof_N 	N 	0.905	0.089	0.21789	-0.243
Mof_C 	C 	0.8073	0.2366	0.21865	0.063
Mof_C 	C 	0.7963	0.1553	0.19387	0.071
Mof_C 	C 	0.959	0.2208	0.2544	0.142
Mof_C 	C 	0.7803	0.2669	0.19729	-0.124
Mof_H 	H 	0.8205	0.2562	0.235	-0.008
Mof_H 	H 	0.8024	0.1161	0.1924	-0.006
Mof_C 	C 	0.7687	0.1808	0.17229	-0.126
Mof_S 	S 	0.0171	0.2513	0.2644	-0.116
Mof_C 	C 	0.7607	0.2398	0.1732	0.042
Mof_H 	H 	0.7753	0.3062	0.1993	0.067
Mof_H 	H 	0.7549	0.1596	0.1567	0.084
Mof_C 	C 	0.7357	0.2703	0.14866	0.076
Mof_N 	N 	0.7248	0.2392	0.12513	-0.135
Mof_C 	C 	0.7257	0.3274	0.15002	-0.148
Mof_C 	C 	0.704	0.2657	0.10214	0.079
Mof_C 	C 	0.704	0.3549	0.12608	0.101
Mof_H 	H 	0.7335	0.3476	0.167	0.077
Mof_C 	C 	0.6935	0.3225	0.10184	-0.147
Mof_C 	C 	0.6913	0.2303	0.07667	0.048
Mof_C 	C 	0.6936	0.4159	0.12589	-0.085
Mof_H 	H 	0.6792	0.3397	0.0851	0.074
Mof_C 	C 	0.6935	0.172	0.07765	-0.117
Mof_C 	C 	0.6749	0.2541	0.05129	-0.124
Mof_C 	C 	0.703	0.4472	0.10102	0.054
Mof_C 	C 	0.6746	0.4435	0.14978	0.056
Mof_H 	H 	0.7063	0.1535	0.0944	0.078
Mof_C 	C 	0.6771	0.1415	0.05435	0.07
Mof_C 	C 	0.6589	0.2207	0.02879	0.061
Mof_H 	H 	0.6746	0.2937	0.0493	0.058
Mof_H 	H 	0.7166	0.4288	0.0844	0.005
Mof_C 	C 	0.693	0.5039	0.10023	-0.194
Mof_C 	C 	0.6632	0.5011	0.14961	-0.192
Mof_H 	H 	0.669	0.4229	0.1669	0.011
Mof_N 	N 	0.6591	0.1645	0.02978	-0.239
Mof_H 	H 	0.6785	0.1018	0.0556	-0.006
Mof_H 	H 	0.647	0.2383	0.0117	-0.014
Mof_H 	H 	0.6996	0.5243	0.0832	0.103
Mof_C 	C 	0.6731	0.5314	0.12453	0.229
Mof_H 	H 	0.6491	0.5192	0.1662	0.097
Mof_Co	Co	0.61819	0.12014	0.99538	1.122
Mof_O 	O 	0.6632	0.58727	0.12167	-0.261
Mof_N 	N 	0.66419	0.17124	0.96492	-0.238
Mof_N 	N 	0.5557	0.1823	0.99592	-0.254
Mof_N 	N 	0.5715	0.0706	0.02607	-0.236
Mof_N 	N 	0.6791	0.0591	0.99248	-0.265
Mof_N 	N 	0.5726	0.0798	0.961	-0.238
Mof_C 	C 	0.6372	0.6151	0.14492	0.116
Mof_C 	C 	0.7189	0.1788	0.96766	0.063
Mof_C 	C 	0.6393	0.1935	0.94185	0.061
Mof_C 	C 	0.5272	0.2157	0.9852	0.088
Mof_C 	C 	0.545	0.0964	0.04788	0.061
Mof_C 	C 	0.5697	0.0151	0.02435	0.067
Mof_C 	C 	0.713	0.0275	0.98527	0.095
Mof_H 	H 	0.6627	0.6158	0.1616	-0.003
Mof_H 	H 	0.6025	0.5952	0.1505	0.002
Mof_C 	C 	0.6236	0.6741	0.1357	-0.204
Mof_C 	C 	0.751	0.2091	0.9483	-0.125
Mof_H 	H 	0.7371	0.1626	0.9837	-0.01
Mof_H 	H 	0.6	0.1892	0.9398	-0.006
Mof_C 	C 	0.6684	0.2226	0.92067	-0.12
Mof_S 	S 	0.4837	0.259	0.97013	-0.081
Mof_C 	C 	0.5173	0.0663	0.06883	-0.114
Mof_H 	H 	0.5454	0.1361	0.0489	-0.004
Mof_H 	H 	0.5875	0.9973	0.0087	-0.009
Mof_C 	C 	0.5429	0.9821	0.04439	-0.12
Mof_S 	S 	0.76203	0.98399	0.97515	-0.074
Mof_H 	H 	0.6585	0.6965	0.1357	0.092
Mof_H 	H 	0.6095	0.6732	0.1158	0.091
Mof_C 	C 	0.581	0.7028	0.1542	-0.012
Mof_C 	C 	0.7259	0.2305	0.92384	0.041
Mof_H 	H 	0.7897	0.2151	0.9518	0.066
Mof_H 	H 	0.6494	0.2367	0.9044	0.08
Mof_C 	C 	0.5159	0.0077	0.06738	0.04
Mof_H 	H 	0.4993	0.0852	0.0841	0.078
Mof_H 	H 	0.5428	0.9425	0.0425	0.064
Mof_H 	H 	0.5733	0.7401	0.1459	0.02
Mof_H 	H 	0.5458	0.6811	0.1532	0.027
Mof_C 	C 	0.5956	0.7105	0.1847	-0.119
Mof_C 	C 	0.7587	0.2573	0.90037	0.079
Mof_C 	C 	0.4884	0.9746	0.09045	0.08
Mof_H 	H 	0.6077	0.6745	0.1932	0.061
Mof_H 	H 	0.563	0.7246	0.1955	0.057
Mof_C 	C 	0.6423	0.7521	0.1854	-0.091
Mof_N 	N 	0.7303	0.2704	0.8766	-0.138
Mof_C 	C 	0.8162	0.2672	0.90345	-0.154
Mof_N 	N 	0.47915	0.0031	0.11473	-0.138
Mof_C 	C 	0.477	0.9182	0.08748	-0.15
Mof_H 	H 	0.678	0.7344	0.1795	0.055
Mof_H 	H 	0.6343	0.7838	0.1724	0.049
Mof_C 	C 	0.6458	0.7717	0.2154	-0.045
Mof_C 	C 	0.7583	0.2927	0.8549	0.084
Mof_C 	C 	0.8453	0.2908	0.88055	0.11
Mof_H 	H 	0.8349	0.2581	0.9207	0.078
Mof_C 	C 	0.4574	0.9748	0.13686	0.084
Mof_H 	H 	0.4841	0.8996	0.0699	0.076
Mof_C 	C 	0.4549	0.8887	0.11079	0.104
Mof_H 	H 	0.658	0.7402	0.2276	0.039
Mof_H 	H 	0.608	0.7834	0.2218	0.038
Mof_C 	C 	0.6864	0.8206	0.2191	-0.18
Mof_C 	C 	0.8155	0.3021	0.85588	-0.154
Mof_C 	C 	0.7237	0.308	0.82922	0.048
Mof_C 	C 	0.9064	0.3028	0.88215	-0.099
Mof_C 	C 	0.4454	0.9182	0.13564	-0.152
Mof_C 	C 	0.4473	0.0076	0.16292	0.042
Mof_C 	C 	0.4428	0.8279	0.10966	-0.085
Mof_H 	H 	0.6731	0.8538	0.2085	0.076
Mof_H 	H 	0.7242	0.8104	0.2121	0.078
Mof_C 	C 	0.6874	0.8323	0.2512	0.091
Mof_H 	H 	0.8343	0.3162	0.8395	0.077
Mof_C 	C 	0.6674	0.3024	0.82895	-0.117
Mof_C 	C 	0.7492	0.33	0.8049	-0.124
Mof_C 	C 	0.9403	0.298	0.85843	0.072
Mof_C 	C 	0.931	0.3187	0.90755	0.074
Mof_H 	H 	0.4306	0.8996	0.1519	0.078
Mof_C 	C 	0.4309	0.9835	0.18864	-0.118
Mof_C 	C 	0.4508	0.0671	0.16262	-0.116
Mof_C 	C 	0.425	0.8014	0.08443	0.046
Mof_C 	C 	0.4491	0.7946	0.13403	0.049
Mof_H 	H 	0.6758	0.7992	0.2625	-0.002
Mof_H 	H 	0.6637	0.8648	0.2564	-0.002
Mof_C 	C 	0.7516	0.845	0.2549	-0.452
Mof_H 	H 	0.6491	0.2858	0.8449	0.077
Mof_C 	C 	0.6356	0.3205	0.80569	0.064
Mof_C 	C 	0.7157	0.3471	0.78292	0.065
Mof_H 	H 	0.7888	0.333	0.8037	0.065
Mof_H 	H 	0.9245	0.2867	0.8407	0.002
Mof_C 	C 	0.9966	0.3095	0.85996	-0.213
Mof_C 	C 	0.9873	0.3306	0.90967	-0.208
Mof_H 	H 	0.9083	0.3214	0.9242	0.006
Mof_H 	H 	0.4288	0.9439	0.1903	0.063
Mof_C 	C 	0.4177	0.0167	0.21152	0.063
Mof_C 	C 	0.4381	0.0966	0.18697	0.071
Mof_H 	H 	0.4619	0.0862	0.1458	0.078
Mof_H 	H 	0.4202	0.8229	0.0675	0.01
Mof_C 	C 	0.4142	0.7433	0.0839	-0.197
Mof_C 	C 	0.4383	0.7375	0.1337	-0.196
Mof_H 	H 	0.4612	0.8116	0.1513	0.006
Mof_H 	H 	0.7595	0.8541	0.2749	0.153
Mof_H 	H 	0.7736	0.8128	0.249	0.156
Mof_H 	H 	0.7617	0.8776	0.243	0.154
Mof_N 	N 	0.6594	0.3435	0.78248	-0.238
Mof_H 	H 	0.596	0.3165	0.8063	-0.005
Mof_H 	H 	0.7335	0.3627	0.7666	-0.009
Mof_H 	H 	0.019	0.3063	0.8433	0.11
Mof_C 	C 	0.0207	0.3254	0.88526	0.244
Mof_H 	H 	0.0031	0.3421	0.9273	0.104
Mof_H 	H 	0.4061	0.999	0.2287	-0.008
Mof_H 	H 	0.4422	0.1361	0.1866	-0.013
Mof_H 	H 	0.4019	0.7257	0.0668	0.088
Mof_C 	C 	0.4217	0.7124	0.1084	0.23
Mof_H 	H 	0.4422	0.7159	0.1506	0.103
Mof_O 	O 	0.077	0.3351	0.88511	-0.264
Mof_O 	O 	0.4133	0.6561	0.11037	-0.257
Mof_N 	N 	0.5704	0.435	0.7829	-0.239
Mof_N 	N 	0.5497	0.3266	0.75257	-0.259
Mof_C 	C 	0.1029	0.3516	0.911	0.109
Mof_C 	C 	0.3971	0.6281	0.0853	0.098
Mof_C 	C 	0.5964	0.456	0.80536	0.075
Mof_C 	C 	0.514	0.4404	0.78207	0.058
Mof_C 	C 	0.517	0.2972	0.76286	0.092
Mof_H 	H 	0.0976	0.322	0.9255	0
Mof_H 	H 	0.0852	0.3863	0.9181	0.003
Mof_C 	C 	0.1651	0.3615	0.9063	-0.193
Mof_H 	H 	0.426	0.6323	0.0703	-0.006
Mof_H 	H 	0.3612	0.6431	0.0781	0.002
Mof_C 	C 	0.3906	0.5656	0.0941	-0.166
Mof_C 	C 	0.5699	0.4809	0.82813	-0.123
Mof_H 	H 	0.6361	0.4538	0.8058	-0.011
Mof_H 	H 	0.4944	0.4257	0.7661	-0.006
Mof_C 	C 	0.4838	0.4663	0.80339	-0.116
Mof_S 	S 	0.47148	0.2571	0.77943	-0.077
Mof_H 	H 	0.1697	0.3898	0.8911	0.086
Mof_H 	H 	0.1823	0.3262	0.8995	0.092
Mof_C 	C 	0.1967	0.3813	0.9329	-0.033
Mof_H 	H 	0.4226	0.5546	0.1063	0.092
Mof_H 	H 	0.3914	0.5419	0.0767	0.071
Mof_C 	C 	0.3348	0.5556	0.1104	-0.054
Mof_C 	C 	0.5112	0.4866	0.82774	0.039
Mof_H 	H 	0.5909	0.494	0.844	0.079
Mof_H 	H 	0.4443	0.4703	0.8016	0.063
Mof_H 	H 	0.1806	0.4169	0.9399	0.035
Mof_H 	H 	0.1935	0.353	0.9482	0.036
Mof_C 	C 	0.2571	0.3895	0.925	-0.113
Mof_H 	H 	0.3059	0.5427	0.0968	0.044
Mof_H 	H 	0.3219	0.5915	0.1188	0.053
Mof_C 	C 	0.3415	0.5108	0.135	-0.092
Mof_C 	C 	0.4806	0.5107	0.85256	0.082
Mof_H 	H 	0.2616	0.4245	0.9139	0.053
Mof_H 	H 	0.2705	0.3578	0.9132	0.055
Mof_C 	C 	0.291	0.3929	0.9531	-0.093
Mof_H 	H 	0.3702	0.5241	0.1487	0.06
Mof_H 	H 	0.3056	0.5078	0.1455	0.057
Mof_C 	C 	0.3581	0.4531	0.1242	-0.12
Mof_N 	N 	0.5113	0.5222	0.87548	-0.137
Mof_C 	C 	0.4229	0.5195	0.85158	-0.152
Mof_H 	H 	0.2722	0.3689	0.9674	0.051
Mof_H 	H 	0.2889	0.4319	0.9601	0.051
Mof_C 	C 	0.3544	0.3756	0.9518	-0.078
Mof_H 	H 	0.3293	0.4398	0.1106	0.063
Mof_H 	H 	0.3939	0.4562	0.1136	0.065
Mof_C 	C 	0.3646	0.411	0.1473	-0.014
Mof_C 	C 	0.485	0.5429	0.89859	0.08
Mof_H 	H 	0.4027	0.5118	0.8346	0.078
Mof_C 	C 	0.395	0.5394	0.8755	0.103
Mof_H 	H 	0.359	0.3448	0.9657	0.047
Mof_H 	H 	0.3603	0.3589	0.9327	0.049
Mof_C 	C 	0.4047	0.4159	0.9568	-0.156
Mof_H 	H 	0.3921	0.4255	0.1613	0.033
Mof_H 	H 	0.3283	0.4072	0.1573	0.032
Mof_C 	C 	0.3829	0.3549	0.1382	-0.203
Mof_C 	C 	0.4282	0.5515	0.89933	-0.147
Mof_C 	C 	0.5218	0.5567	0.92318	0.051
Mof_C 	C 	0.3342	0.5505	0.87547	-0.088
Mof_H 	H 	0.3975	0.4194	0.9775	0.068
Mof_H 	H 	0.385	0.4487	0.9487	0.068
Mof_C 	C 	0.4634	0.4475	0.9585	0.048
Mof_H 	H 	0.4137	0.3587	0.1242	0.086
Mof_H 	H 	0.3514	0.3355	0.1287	0.085
Mof_C 	C 	0.4038	0.3186	0.1643	0.095
Mof_H 	H 	0.4113	0.5658	0.9162	0.074
Mof_C 	C 	0.4992	0.5775	0.94848	-0.133
Mof_C 	C 	0.5792	0.5515	0.92184	-0.123
Mof_C 	C 	0.3065	0.5676	0.85138	0.054
Mof_C 	C 	0.3026	0.5425	0.90043	0.052
Mof_H 	H 	0.4774	0.445	0.9387	0.013
Mof_H 	H 	0.4522	0.4871	0.961	0.001
Mof_C 	C 	0.5184	0.4434	0.9767	-0.439
Mof_H 	H 	0.3739	0.3171	0.1789	-0.002
Mof_H 	H 	0.4369	0.3367	0.1729	-0.004
Mof_C 	C 	0.4195	0.2571	0.155	-0.469
Mof_H 	H 	0.4598	0.5798	0.9509	0.064
Mof_C 	C 	0.5349	0.595	0.97009	0.074
Mof_C 	C 	0.6113	0.5709	0.94486	0.067
Mof_H 	H 	0.5966	0.5351	0.9057	0.08
Mof_H 	H 	0.3271	0.5725	0.8342	0.012
Mof_C 	C 	0.2484	0.5781	0.85111	-0.199
Mof_C 	C 	0.2451	0.5519	0.90082	-0.197
Mof_H 	H 	0.3208	0.5305	0.9174	0.004
Mof_H 	H 	0.5449	0.4722	0.9703	0.152
Mof_H 	H 	0.5096	0.4491	0.9969	0.148
Mof_H 	H 	0.5352	0.4063	0.9741	0.148
Mof_H 	H 	0.4039	0.2494	0.1361	0.159
Mof_H 	H 	0.404	0.2304	0.1688	0.164
Mof_H 	H 	0.4603	0.2532	0.1544	0.166
Mof_H 	H 	0.5187	0.6077	0.9875	-0.02
Mof_H 	H 	0.6508	0.5666	0.944	-0.012
Mof_H 	H 	0.2305	0.5908	0.8342	0.1
Mof_C 	C 	0.2177	0.5696	0.87623	0.231
Mof_H 	H 	0.2246	0.5463	0.9179	0.104
Mof_O 	O 	0.1619	0.5782	0.87917	-0.265
Mof_C 	C 	0.1335	0.5979	0.8554	0.119
Mof_H 	H 	0.1336	0.5692	0.8402	-0.004
Mof_H 	H 	0.1519	0.6321	0.848	-0
Mof_C 	C 	0.073	0.6113	0.8643	-0.192
Mof_H 	H 	0.0563	0.5781	0.8736	0.098
Mof_H 	H 	0.0731	0.6424	0.8783	0.091
Mof_C 	C 	0.0378	0.6277	0.8384	-0.044
Mof_H 	H 	0.0582	0.6572	0.8279	0.037
Mof_H 	H 	0.0352	0.5947	0.8257	0.041
Mof_C 	C 	0.9813	0.6477	0.8438	-0.08
Mof_H 	H 	0.9636	0.6534	0.8249	0.046
Mof_H 	H 	0.985	0.6852	0.8526	0.052
Mof_C 	C 	0.9401	0.6151	0.8618	-0.15
Mof_H 	H 	0.9317	0.5794	0.852	0.073
Mof_H 	H 	0.9583	0.6058	0.8802	0.075
Mof_C 	C 	0.8889	0.6431	0.8676	0.017
Mof_H 	H 	0.8766	0.6596	0.8492	0.018
Mof_H 	H 	0.8984	0.6748	0.8802	0.025
Mof_C 	C 	0.8375	0.6156	0.8805	-0.239
Mof_H 	H 	0.8046	0.6398	0.8769	0.094
Mof_H 	H 	0.8309	0.5794	0.8707	0.092
Mof_C 	C 	0.8421	0.6051	0.9121	0.152
Mof_H 	H 	0.8498	0.6403	0.9225	-0.02
Mof_H 	H 	0.8723	0.5779	0.9162	-0.019
Mof_C 	C 	0.7842	0.5809	0.9205	-0.513
Mof_H 	H 	0.7563	0.611	0.9205	0.174
Mof_H 	H 	0.7865	0.5644	0.9396	0.172
Mof_H 	H 	0.7732	0.5521	0.9067	0.174
Mof_N 	N 	0.6816	0.6845	0.96729	-0.241
Mof_N 	N 	0.7	0.577	0.99844	-0.29
Mof_N 	N 	0.589	0.595	0.96789	-0.243
Mof_C 	C 	0.7366	0.6927	0.96865	0.063
Mof_C 	C 	0.6553	0.7037	0.94387	0.071
Mof_C 	C 	0.7208	0.541	0.0044	0.14
Mof_C 	C 	0.7669	0.7197	0.94729	-0.124
Mof_H 	H 	0.7562	0.6795	0.985	-0.007
Mof_H 	H 	0.6161	0.6976	0.9424	-0.006
Mof_C 	C 	0.6808	0.7313	0.92229	-0.126
Mof_S 	S 	0.7513	0.4829	0.0144	-0.115
Mof_C 	C 	0.7398	0.7393	0.9232	0.042
Mof_H 	H 	0.8062	0.7247	0.9493	0.067
Mof_H 	H 	0.6596	0.7451	0.9067	0.084
Mof_C 	C 	0.7703	0.7643	0.89866	0.076
Mof_N 	N 	0.7392	0.7752	0.87513	-0.135
Mof_C 	C 	0.8274	0.7743	0.90002	-0.148
Mof_C 	C 	0.7657	0.796	0.85214	0.079
Mof_C 	C 	0.8549	0.796	0.87608	0.101
Mof_H 	H 	0.8476	0.7665	0.917	0.077
Mof_C 	C 	0.8225	0.8065	0.85184	-0.147
Mof_C 	C 	0.7303	0.8087	0.82667	0.048
Mof_C 	C 	0.9159	0.8064	0.87589	-0.085
Mof_H 	H 	0.8397	0.8208	0.8351	0.074
Mof_C 	C 	0.672	0.8065	0.82765	-0.117
Mof_C 	C 	0.7541	0.8251	0.80129	-0.124
Mof_C 	C 	0.9472	0.797	0.85102	0.054
Mof_C 	C 	0.9435	0.8254	0.89978	0.055
Mof_H 	H 	0.6535	0.7937	0.8444	0.078
Mof_C 	C 	0.6415	0.8229	0.80435	0.07
Mof_C 	C 	0.7207	0.8411	0.77879	0.061
Mof_H 	H 	0.7937	0.8254	0.7993	0.058
Mof_H 	H 	0.9288	0.7834	0.8344	0.005
Mof_C 	C 	0.0039	0.807	0.85023	-0.193
Mof_C 	C 	0.0011	0.8368	0.89961	-0.191
Mof_H 	H 	0.9229	0.831	0.9169	0.011
Mof_N 	N 	0.6645	0.8409	0.77978	-0.238
Mof_H 	H 	0.6018	0.8215	0.8056	-0.006
Mof_H 	H 	0.7383	0.853	0.7617	-0.013
Mof_H 	H 	0.0243	0.8004	0.8332	0.103
Mof_C 	C 	0.0314	0.8269	0.87453	0.229
Mof_H 	H 	0.0192	0.8509	0.9162	0.097
Mof_Co	Co	0.62014	0.88181	0.74538	1.122
Mof_O 	O 	0.08727	0.8368	0.87167	-0.261
Mof_N 	N 	0.67124	0.83581	0.71492	-0.238
Mof_N 	N 	0.6823	0.9443	0.74592	-0.255
Mof_N 	N 	0.5706	0.9285	0.77607	-0.236
Mof_N 	N 	0.5591	0.8209	0.74248	-0.265
Mof_N 	N 	0.5798	0.9274	0.711	-0.238
Mof_C 	C 	0.1151	0.8628	0.89492	0.116
Mof_C 	C 	0.6788	0.7811	0.71766	0.062
Mof_C 	C 	0.6935	0.8607	0.69185	0.061
Mof_C 	C 	0.7157	0.9728	0.7352	0.087
Mof_C 	C 	0.5964	0.955	0.79788	0.061
Mof_C 	C 	0.5151	0.9303	0.77435	0.068
Mof_C 	C 	0.5275	0.787	0.73527	0.094
Mof_H 	H 	0.1158	0.8373	0.9116	-0.003
Mof_H 	H 	0.0952	0.8975	0.9005	0.002
Mof_C 	C 	0.1741	0.8764	0.8857	-0.204
Mof_C 	C 	0.7091	0.749	0.6983	-0.125
Mof_H 	H 	0.6626	0.7629	0.7337	-0.01
Mof_H 	H 	0.6892	0.9	0.6898	-0.006
Mof_C 	C 	0.7226	0.8316	0.67067	-0.12
Mof_S 	S 	0.759	0.0163	0.72013	-0.082
Mof_C 	C 	0.5663	0.9827	0.81883	-0.114
Mof_H 	H 	0.6361	0.9546	0.7989	-0.004
Mof_H 	H 	0.4973	0.9125	0.7587	-0.009
Mof_C 	C 	0.4821	0.9571	0.79439	-0.121
Mof_S 	S 	0.48399	0.73797	0.72515	-0.075
Mof_H 	H 	0.1965	0.8415	0.8857	0.092
Mof_H 	H 	0.1732	0.8905	0.8658	0.091
Mof_C 	C 	0.2028	0.919	0.9042	-0.012
Mof_C 	C 	0.7305	0.7741	0.67384	0.041
Mof_H 	H 	0.7151	0.7103	0.7018	0.066
Mof_H 	H 	0.7367	0.8506	0.6544	0.08
Mof_C 	C 	0.5077	0.9841	0.81738	0.04
Mof_H 	H 	0.5852	0.0007	0.8341	0.078
Mof_H 	H 	0.4425	0.9572	0.7925	0.064
Mof_H 	H 	0.2401	0.9267	0.8959	0.02
Mof_H 	H 	0.1811	0.9542	0.9032	0.027
Mof_C 	C 	0.2105	0.9044	0.9347	-0.12
Mof_C 	C 	0.7573	0.7413	0.65037	0.079
Mof_C 	C 	0.4746	0.0116	0.84045	0.079
Mof_H 	H 	0.1745	0.8923	0.9432	0.061
Mof_H 	H 	0.2246	0.937	0.9455	0.058
Mof_C 	C 	0.2521	0.8577	0.9354	-0.09
Mof_N 	N 	0.7704	0.7697	0.6266	-0.138
Mof_C 	C 	0.7672	0.6838	0.65345	-0.154
Mof_N 	N 	0.5031	0.02085	0.86473	-0.137
Mof_C 	C 	0.4182	0.023	0.83748	-0.15
Mof_H 	H 	0.2344	0.822	0.9295	0.055
Mof_H 	H 	0.2838	0.8657	0.9224	0.049
Mof_C 	C 	0.2717	0.8542	0.9654	-0.046
Mof_C 	C 	0.7927	0.7417	0.6049	0.084
Mof_C 	C 	0.7908	0.6547	0.63055	0.11
Mof_H 	H 	0.7581	0.6651	0.6707	0.078
Mof_C 	C 	0.4748	0.0426	0.88686	0.084
Mof_H 	H 	0.3996	0.0159	0.8199	0.076
Mof_C 	C 	0.3887	0.0451	0.86079	0.103
Mof_H 	H 	0.2402	0.842	0.9776	0.04
Mof_H 	H 	0.2834	0.892	0.9718	0.039
Mof_C 	C 	0.3206	0.8136	0.9691	-0.18
Mof_C 	C 	0.8021	0.6845	0.60588	-0.154
Mof_C 	C 	0.808	0.7763	0.57922	0.048
Mof_C 	C 	0.8028	0.5936	0.63215	-0.1
Mof_C 	C 	0.4182	0.0546	0.88564	-0.152
Mof_C 	C 	0.5076	0.0527	0.91292	0.042
Mof_C 	C 	0.3279	0.0572	0.85966	-0.085
Mof_H 	H 	0.3538	0.8269	0.9585	0.077
Mof_H 	H 	0.3104	0.7758	0.9621	0.078
Mof_C 	C 	0.3323	0.8126	0.0012	0.094
Mof_H 	H 	0.8162	0.6657	0.5895	0.078
Mof_C 	C 	0.8024	0.8326	0.57895	-0.117
Mof_C 	C 	0.83	0.7508	0.5549	-0.124
Mof_C 	C 	0.798	0.5597	0.60843	0.073
Mof_C 	C 	0.8187	0.569	0.65755	0.075
Mof_H 	H 	0.3996	0.0694	0.9019	0.078
Mof_C 	C 	0.4835	0.0691	0.93864	-0.119
Mof_C 	C 	0.5671	0.0492	0.91262	-0.116
Mof_C 	C 	0.3014	0.075	0.83443	0.046
Mof_C 	C 	0.2946	0.0509	0.88403	0.049
Mof_H 	H 	0.2992	0.8242	0.0125	-0.004
Mof_H 	H 	0.3648	0.8363	0.0064	-0.004
Mof_C 	C 	0.345	0.7484	0.0049	-0.463
Mof_H 	H 	0.7858	0.8509	0.5949	0.077
Mof_C 	C 	0.8205	0.8644	0.55569	0.064
Mof_C 	C 	0.8471	0.7843	0.53292	0.065
Mof_H 	H 	0.833	0.7112	0.5537	0.065
Mof_H 	H 	0.7867	0.5755	0.5907	0.002
Mof_C 	C 	0.8095	0.5034	0.60996	-0.215
Mof_C 	C 	0.8306	0.5127	0.65967	-0.21
Mof_H 	H 	0.8214	0.5917	0.6742	0.005
Mof_H 	H 	0.4439	0.0712	0.9403	0.063
Mof_C 	C 	0.5167	0.0823	0.96152	0.064
Mof_C 	C 	0.5966	0.0619	0.93697	0.071
Mof_H 	H 	0.5862	0.0381	0.8958	0.079
Mof_H 	H 	0.3229	0.0798	0.8175	0.01
Mof_C 	C 	0.2433	0.0858	0.8339	-0.197
Mof_C 	C 	0.2375	0.0617	0.8837	-0.196
Mof_H 	H 	0.3116	0.0388	0.9013	0.006
Mof_H 	H 	0.3541	0.7405	0.0249	0.156
Mof_H 	H 	0.3128	0.7264	0.999	0.16
Mof_H 	H 	0.3776	0.7383	0.993	0.158
Mof_N 	N 	0.8435	0.8406	0.53248	-0.238
Mof_H 	H 	0.8165	0.904	0.5563	-0.005
Mof_H 	H 	0.8627	0.7665	0.5166	-0.009
Mof_H 	H 	0.8063	0.481	0.5933	0.111
Mof_C 	C 	0.8254	0.4793	0.63526	0.245
Mof_H 	H 	0.8421	0.4969	0.6773	0.105
Mof_H 	H 	0.499	0.0939	0.9787	-0.008
Mof_H 	H 	0.6361	0.0578	0.9366	-0.013
Mof_H 	H 	0.2257	0.0981	0.8168	0.089
Mof_C 	C 	0.2124	0.0783	0.8584	0.23
Mof_H 	H 	0.2159	0.0578	0.9006	0.103
Mof_O 	O 	0.8351	0.423	0.63511	-0.264
Mof_O 	O 	0.1561	0.0867	0.86037	-0.257
Mof_N 	N 	0.935	0.9296	0.5329	-0.238
Mof_N 	N 	0.8266	0.9503	0.50257	-0.259
Mof_C 	C 	0.8516	0.3971	0.661	0.11
Mof_C 	C 	0.1281	0.1029	0.8353	0.098
Mof_C 	C 	0.956	0.9036	0.55536	0.074
Mof_C 	C 	0.9404	0.986	0.53207	0.055
Mof_C 	C 	0.7972	0.983	0.51286	0.091
Mof_H 	H 	0.822	0.4024	0.6755	-0
Mof_H 	H 	0.8863	0.4148	0.6681	0.002
Mof_C 	C 	0.8615	0.3349	0.6563	-0.194
Mof_H 	H 	0.1323	0.074	0.8203	-0.006
Mof_H 	H 	0.1431	0.1388	0.8281	0.002
Mof_C 	C 	0.0656	0.1094	0.8441	-0.166
Mof_C 	C 	0.9809	0.9301	0.57813	-0.122
Mof_H 	H 	0.9538	0.8639	0.5558	-0.011
Mof_H 	H 	0.9257	0.0056	0.5161	-0.005
Mof_C 	C 	0.9663	0.0162	0.55339	-0.113
Mof_S 	S 	0.7571	0.02852	0.52943	-0.077
Mof_H 	H 	0.8898	0.3303	0.6411	0.086
Mof_H 	H 	0.8262	0.3177	0.6495	0.092
Mof_C 	C 	0.8813	0.3033	0.6829	-0.033
Mof_H 	H 	0.0546	0.0774	0.8563	0.092
Mof_H 	H 	0.0419	0.1086	0.8267	0.071
Mof_C 	C 	0.0556	0.1652	0.8604	-0.054
Mof_C 	C 	0.9866	0.9888	0.57774	0.037
Mof_H 	H 	0.994	0.9091	0.594	0.078
Mof_H 	H 	0.9703	0.0557	0.5516	0.062
Mof_H 	H 	0.9169	0.3194	0.6899	0.035
Mof_H 	H 	0.853	0.3065	0.6982	0.036
Mof_C 	C 	0.8895	0.2429	0.675	-0.114
Mof_H 	H 	0.0427	0.1941	0.8468	0.044
Mof_H 	H 	0.0915	0.1781	0.8688	0.053
Mof_C 	C 	0.0108	0.1585	0.885	-0.093
Mof_C 	C 	0.0107	0.0194	0.60256	0.082
Mof_H 	H 	0.9245	0.2384	0.6639	0.053
Mof_H 	H 	0.8578	0.2295	0.6632	0.055
Mof_C 	C 	0.8929	0.209	0.7031	-0.092
Mof_H 	H 	0.0241	0.1298	0.8987	0.061
Mof_H 	H 	0.0078	0.1944	0.8955	0.057
Mof_C 	C 	0.9531	0.1419	0.8742	-0.12
Mof_N 	N 	0.0222	0.9887	0.62548	-0.137
Mof_C 	C 	0.0195	0.0771	0.60158	-0.152
Mof_H 	H 	0.8689	0.2278	0.7174	0.051
Mof_H 	H 	0.9319	0.2111	0.7101	0.051
Mof_C 	C 	0.8756	0.1456	0.7018	-0.078
Mof_H 	H 	0.9398	0.1707	0.8606	0.063
Mof_H 	H 	0.9562	0.1061	0.8636	0.065
Mof_C 	C 	0.911	0.1354	0.8973	-0.015
Mof_C 	C 	0.0429	0.015	0.64859	0.079
Mof_H 	H 	0.0118	0.0973	0.5846	0.078
Mof_C 	C 	0.0394	0.105	0.6255	0.103
Mof_H 	H 	0.8448	0.141	0.7157	0.047
Mof_H 	H 	0.8589	0.1397	0.6827	0.049
Mof_C 	C 	0.9159	0.0953	0.7068	-0.156
Mof_H 	H 	0.9255	0.1079	0.9113	0.033
Mof_H 	H 	0.9072	0.1717	0.9073	0.032
Mof_C 	C 	0.8549	0.1171	0.8882	-0.203
Mof_C 	C 	0.0515	0.0718	0.64933	-0.147
Mof_C 	C 	0.0567	0.9782	0.67318	0.052
Mof_C 	C 	0.0505	0.1658	0.62547	-0.088
Mof_H 	H 	0.9194	0.1025	0.7275	0.068
Mof_H 	H 	0.9487	0.115	0.6987	0.068
Mof_C 	C 	0.9475	0.0366	0.7085	0.047
Mof_H 	H 	0.8587	0.0863	0.8742	0.086
Mof_H 	H 	0.8355	0.1486	0.8787	0.085
Mof_C 	C 	0.8186	0.0962	0.9143	0.095
Mof_H 	H 	0.0658	0.0887	0.6662	0.074
Mof_C 	C 	0.0775	0.0008	0.69848	-0.135
Mof_C 	C 	0.0515	0.9208	0.67184	-0.124
Mof_C 	C 	0.0676	0.1935	0.60138	0.054
Mof_C 	C 	0.0425	0.1974	0.65043	0.051
Mof_H 	H 	0.945	0.0226	0.6887	0.013
Mof_H 	H 	0.9871	0.0478	0.711	0.001
Mof_C 	C 	0.9434	0.9816	0.7267	-0.438
Mof_H 	H 	0.8171	0.1261	0.9289	-0.001
Mof_H 	H 	0.8367	0.0631	0.9229	-0.003
Mof_C 	C 	0.7571	0.0805	0.905	-0.469
Mof_H 	H 	0.0798	0.0402	0.7009	0.064
Mof_C 	C 	0.095	0.9651	0.72009	0.075
Mof_C 	C 	0.0709	0.8887	0.69486	0.067
Mof_H 	H 	0.0351	0.9034	0.6557	0.08
Mof_H 	H 	0.0725	0.1729	0.5842	0.012
Mof_C 	C 	0.0781	0.2516	0.60111	-0.199
Mof_C 	C 	0.0519	0.2549	0.65082	-0.197
Mof_H 	H 	0.0305	0.1792	0.6674	0.004
Mof_H 	H 	0.9722	0.9551	0.7203	0.151
Mof_H 	H 	0.9491	0.9904	0.7469	0.146
Mof_H 	H 	0.9063	0.9648	0.7241	0.147
Mof_H 	H 	0.7494	0.0961	0.8861	0.159
Mof_H 	H 	0.7304	0.096	0.9188	0.164
Mof_H 	H 	0.7532	0.0397	0.9044	0.166
Mof_H 	H 	0.1077	0.9813	0.7375	-0.021
Mof_H 	H 	0.0666	0.8492	0.694	-0.013
Mof_H 	H 	0.0908	0.2695	0.5842	0.1
Mof_C 	C 	0.0696	0.2823	0.62623	0.231
Mof_H 	H 	0.0463	0.2754	0.6679	0.104
Mof_O 	O 	0.0782	0.3381	0.62917	-0.265
Mof_C 	C 	0.0979	0.3665	0.6054	0.119
Mof_H 	H 	0.0692	0.3664	0.5902	-0.004
Mof_H 	H 	0.1321	0.3481	0.598	-0
Mof_C 	C 	0.1113	0.427	0.6143	-0.192
Mof_H 	H 	0.0781	0.4437	0.6236	0.098
Mof_H 	H 	0.1424	0.4269	0.6283	0.091
Mof_C 	C 	0.1277	0.4622	0.5884	-0.044
Mof_H 	H 	0.1572	0.4418	0.5779	0.037
Mof_H 	H 	0.0947	0.4648	0.5757	0.041
Mof_C 	C 	0.1477	0.5187	0.5938	-0.08
Mof_H 	H 	0.1534	0.5364	0.5749	0.046
Mof_H 	H 	0.1852	0.515	0.6026	0.052
Mof_C 	C 	0.1151	0.5599	0.6118	-0.15
Mof_H 	H 	0.0794	0.5683	0.602	0.073
Mof_H 	H 	0.1058	0.5417	0.6302	0.075
Mof_C 	C 	0.1431	0.6111	0.6176	0.017
Mof_H 	H 	0.1596	0.6234	0.5992	0.018
Mof_H 	H 	0.1748	0.6016	0.6302	0.025
Mof_C 	C 	0.1156	0.6625	0.6305	-0.239
Mof_H 	H 	0.1398	0.6954	0.6269	0.094
Mof_H 	H 	0.0794	0.6691	0.6207	0.092
Mof_C 	C 	0.1051	0.6579	0.6621	0.152
Mof_H 	H 	0.1403	0.6502	0.6725	-0.02
Mof_H 	H 	0.0779	0.6277	0.6662	-0.019
Mof_C 	C 	0.0809	0.7158	0.6705	-0.512
Mof_H 	H 	0.111	0.7437	0.6705	0.174
Mof_H 	H 	0.0644	0.7135	0.6896	0.172
Mof_H 	H 	0.0521	0.7268	0.6567	0.174
Mof_N 	N 	0.3184	0.3155	0.46729	-0.241
Mof_N 	N 	0.3	0.423	0.49844	-0.292
Mof_N 	N 	0.411	0.405	0.46789	-0.243
Mof_C 	C 	0.2634	0.3073	0.46865	0.063
Mof_C 	C 	0.3447	0.2963	0.44387	0.071
Mof_C 	C 	0.2792	0.459	0.5044	0.142
Mof_C 	C 	0.2331	0.2803	0.44729	-0.124
Mof_H 	H 	0.2438	0.3205	0.485	-0.008
Mof_H 	H 	0.3839	0.3024	0.4424	-0.006
Mof_C 	C 	0.3192	0.2687	0.42229	-0.126
Mof_S 	S 	0.2487	0.5171	0.5144	-0.116
Mof_C 	C 	0.2602	0.2607	0.4232	0.042
Mof_H 	H 	0.1938	0.2753	0.4493	0.067
Mof_H 	H 	0.3404	0.2549	0.4067	0.084
Mof_C 	C 	0.2297	0.2357	0.39866	0.076
Mof_N 	N 	0.2608	0.2248	0.37513	-0.135
Mof_C 	C 	0.1726	0.2257	0.40002	-0.148
Mof_C 	C 	0.2343	0.204	0.35214	0.079
Mof_C 	C 	0.1451	0.204	0.37608	0.101
Mof_H 	H 	0.1524	0.2335	0.417	0.077
Mof_C 	C 	0.1775	0.1935	0.35184	-0.147
Mof_C 	C 	0.2697	0.1913	0.32667	0.048
Mof_C 	C 	0.0841	0.1936	0.37589	-0.085
Mof_H 	H 	0.1603	0.1792	0.3351	0.074
Mof_C 	C 	0.328	0.1935	0.32765	-0.117
Mof_C 	C 	0.2459	0.1749	0.30129	-0.124
Mof_C 	C 	0.0528	0.203	0.35102	0.054
Mof_C 	C 	0.0565	0.1746	0.39978	0.055
Mof_H 	H 	0.3465	0.2063	0.3444	0.078
Mof_C 	C 	0.3585	0.1771	0.30435	0.07
Mof_C 	C 	0.2793	0.1589	0.27879	0.061
Mof_H 	H 	0.2063	0.1746	0.2993	0.058
Mof_H 	H 	0.0712	0.2166	0.3344	0.005
Mof_C 	C 	0.9961	0.193	0.35023	-0.193
Mof_C 	C 	0.9989	0.1632	0.39961	-0.191
Mof_H 	H 	0.0771	0.169	0.4169	0.011
Mof_N 	N 	0.3355	0.1591	0.27978	-0.238
Mof_H 	H 	0.3982	0.1785	0.3056	-0.006
Mof_H 	H 	0.2617	0.147	0.2617	-0.013
Mof_H 	H 	0.9757	0.1996	0.3332	0.103
Mof_C 	C 	0.9686	0.1731	0.37453	0.229
Mof_H 	H 	0.9808	0.1491	0.4162	0.097
Mof_Co	Co	0.37986	0.11819	0.24538	1.122
Mof_O 	O 	0.91273	0.1632	0.37167	-0.261
Mof_N 	N 	0.32876	0.16419	0.21492	-0.238
Mof_N 	N 	0.3177	0.0557	0.24592	-0.255
Mof_N 	N 	0.4294	0.0715	0.27607	-0.236
Mof_N 	N 	0.4409	0.1791	0.24248	-0.265
Mof_N 	N 	0.4202	0.0726	0.211	-0.238
Mof_C 	C 	0.8849	0.1372	0.39492	0.116
Mof_C 	C 	0.3212	0.2189	0.21766	0.062
Mof_C 	C 	0.3065	0.1393	0.19185	0.061
Mof_C 	C 	0.2843	0.0272	0.2352	0.087
Mof_C 	C 	0.4036	0.045	0.29788	0.061
Mof_C 	C 	0.4849	0.0697	0.27435	0.068
Mof_C 	C 	0.4725	0.213	0.23527	0.094
Mof_H 	H 	0.8842	0.1627	0.4116	-0.003
Mof_H 	H 	0.9048	0.1025	0.4005	0.002
Mof_C 	C 	0.8259	0.1236	0.3857	-0.204
Mof_C 	C 	0.2909	0.251	0.1983	-0.125
Mof_H 	H 	0.3374	0.2371	0.2337	-0.01
Mof_H 	H 	0.3108	0.1	0.1898	-0.006
Mof_C 	C 	0.2774	0.1684	0.17067	-0.12
Mof_S 	S 	0.241	0.9837	0.22013	-0.081
Mof_C 	C 	0.4337	0.0173	0.31883	-0.114
Mof_H 	H 	0.3639	0.0454	0.2989	-0.004
Mof_H 	H 	0.5027	0.0875	0.2587	-0.009
Mof_C 	C 	0.5179	0.0429	0.29439	-0.121
Mof_S 	S 	0.51601	0.26203	0.22515	-0.075
Mof_H 	H 	0.8035	0.1585	0.3857	0.092
Mof_H 	H 	0.8268	0.1095	0.3658	0.091
Mof_C 	C 	0.7972	0.081	0.4042	-0.012
Mof_C 	C 	0.2695	0.2259	0.17384	0.041
Mof_H 	H 	0.2849	0.2897	0.2018	0.066
Mof_H 	H 	0.2633	0.1494	0.1544	0.08
Mof_C 	C 	0.4923	0.0159	0.31738	0.04
Mof_H 	H 	0.4148	0.9993	0.3341	0.078
Mof_H 	H 	0.5575	0.0428	0.2925	0.064
Mof_H 	H 	0.7599	0.0733	0.3959	0.02
Mof_H 	H 	0.8189	0.0458	0.4032	0.027
Mof_C 	C 	0.7895	0.0956	0.4347	-0.119
Mof_C 	C 	0.2427	0.2587	0.15037	0.079
Mof_C 	C 	0.5254	0.9884	0.34045	0.079
Mof_H 	H 	0.8255	0.1077	0.4432	0.061
Mof_H 	H 	0.7754	0.063	0.4455	0.057
Mof_C 	C 	0.7479	0.1423	0.4354	-0.091
Mof_N 	N 	0.2296	0.2303	0.1266	-0.138
Mof_C 	C 	0.2328	0.3162	0.15345	-0.154
Mof_N 	N 	0.4969	0.97915	0.36473	-0.137
Mof_C 	C 	0.5818	0.977	0.33748	-0.15
Mof_H 	H 	0.7656	0.178	0.4295	0.055
Mof_H 	H 	0.7162	0.1343	0.4224	0.049
Mof_C 	C 	0.7283	0.1458	0.4654	-0.045
Mof_C 	C 	0.2073	0.2583	0.1049	0.084
Mof_C 	C 	0.2092	0.3453	0.13055	0.11
Mof_H 	H 	0.2419	0.3349	0.1707	0.078
Mof_C 	C 	0.5252	0.9574	0.38686	0.084
Mof_H 	H 	0.6004	0.9841	0.3199	0.076
Mof_C 	C 	0.6113	0.9549	0.36079	0.103
Mof_H 	H 	0.7598	0.158	0.4776	0.039
Mof_H 	H 	0.7166	0.108	0.4718	0.038
Mof_C 	C 	0.6794	0.1864	0.4691	-0.18
Mof_C 	C 	0.1979	0.3155	0.10588	-0.154
Mof_C 	C 	0.192	0.2237	0.07922	0.048
Mof_C 	C 	0.1972	0.4064	0.13215	-0.1
Mof_C 	C 	0.5818	0.9454	0.38564	-0.152
Mof_C 	C 	0.4924	0.9473	0.41292	0.042
Mof_C 	C 	0.6721	0.9428	0.35966	-0.085
Mof_H 	H 	0.6462	0.1731	0.4585	0.076
Mof_H 	H 	0.6896	0.2242	0.4621	0.078
Mof_C 	C 	0.6677	0.1874	0.5012	0.091
Mof_H 	H 	0.1838	0.3343	0.0895	0.078
Mof_C 	C 	0.1976	0.1674	0.07895	-0.117
Mof_C 	C 	0.17	0.2492	0.0549	-0.124
Mof_C 	C 	0.202	0.4403	0.10843	0.073
Mof_C 	C 	0.1813	0.431	0.15755	0.075
Mof_H 	H 	0.6004	0.9306	0.4019	0.078
Mof_C 	C 	0.5165	0.9309	0.43864	-0.119
Mof_C 	C 	0.4329	0.9508	0.41262	-0.116
Mof_C 	C 	0.6986	0.925	0.33443	0.046
Mof_C 	C 	0.7054	0.9491	0.38403	0.049
Mof_H 	H 	0.7008	0.1758	0.5125	-0.002
Mof_H 	H 	0.6352	0.1637	0.5064	-0.002
Mof_C 	C 	0.655	0.2516	0.5049	-0.452
Mof_H 	H 	0.2142	0.1491	0.0949	0.077
Mof_C 	C 	0.1795	0.1356	0.05569	0.064
Mof_C 	C 	0.1529	0.2157	0.03292	0.065
Mof_H 	H 	0.167	0.2888	0.0537	0.065
Mof_H 	H 	0.2133	0.4245	0.0907	0.002
Mof_C 	C 	0.1905	0.4966	0.10996	-0.215
Mof_C 	C 	0.1694	0.4873	0.15967	-0.21
Mof_H 	H 	0.1786	0.4083	0.1742	0.005
Mof_H 	H 	0.5561	0.9288	0.4403	0.063
Mof_C 	C 	0.4833	0.9177	0.46152	0.064
Mof_C 	C 	0.4034	0.9381	0.43697	0.071
Mof_H 	H 	0.4138	0.9619	0.3958	0.079
Mof_H 	H 	0.6771	0.9202	0.3175	0.01
Mof_C 	C 	0.7567	0.9142	0.3339	-0.197
Mof_C 	C 	0.7625	0.9383	0.3837	-0.196
Mof_H 	H 	0.6884	0.9612	0.4013	0.006
Mof_H 	H 	0.6459	0.2595	0.5249	0.153
Mof_H 	H 	0.6872	0.2736	0.499	0.156
Mof_H 	H 	0.6224	0.2617	0.493	0.154
Mof_N 	N 	0.1565	0.1594	0.03248	-0.238
Mof_H 	H 	0.1835	0.096	0.0563	-0.005
Mof_H 	H 	0.1373	0.2335	0.0166	-0.009
Mof_H 	H 	0.1937	0.519	0.0933	0.111
Mof_C 	C 	0.1746	0.5207	0.13526	0.245
Mof_H 	H 	0.1579	0.5031	0.1773	0.105
Mof_H 	H 	0.501	0.9061	0.4787	-0.008
Mof_H 	H 	0.3639	0.9422	0.4366	-0.013
Mof_H 	H 	0.7743	0.9019	0.3168	0.089
Mof_C 	C 	0.7876	0.9217	0.3584	0.23
Mof_H 	H 	0.7841	0.9422	0.4006	0.103
Mof_O 	O 	0.1649	0.577	0.13511	-0.264
Mof_O 	O 	0.8439	0.9133	0.36037	-0.257
Mof_N 	N 	0.065	0.0704	0.0329	-0.238
Mof_N 	N 	0.1734	0.0497	0.00257	-0.259
Mof_C 	C 	0.1484	0.6029	0.161	0.11
Mof_C 	C 	0.8719	0.8971	0.3353	0.098
Mof_C 	C 	0.044	0.0964	0.05536	0.074
Mof_C 	C 	0.0596	0.014	0.03207	0.055
Mof_C 	C 	0.2028	0.017	0.01286	0.091
Mof_H 	H 	0.178	0.5976	0.1755	-0
Mof_H 	H 	0.1137	0.5852	0.1681	0.002
Mof_C 	C 	0.1385	0.6651	0.1563	-0.194
Mof_H 	H 	0.8677	0.926	0.3203	-0.006
Mof_H 	H 	0.8569	0.8612	0.3281	0.002
Mof_C 	C 	0.9344	0.8906	0.3441	-0.166
Mof_C 	C 	0.0191	0.0699	0.07813	-0.122
Mof_H 	H 	0.0462	0.1361	0.0558	-0.011
Mof_H 	H 	0.0743	0.9944	0.0161	-0.005
Mof_C 	C 	0.0337	0.9838	0.05339	-0.113
Mof_S 	S 	0.2429	0.97148	0.02943	-0.077
Mof_H 	H 	0.1102	0.6697	0.1411	0.086
Mof_H 	H 	0.1738	0.6823	0.1495	0.092
Mof_C 	C 	0.1187	0.6967	0.1829	-0.033
Mof_H 	H 	0.9454	0.9226	0.3563	0.092
Mof_H 	H 	0.9581	0.8914	0.3267	0.071
Mof_C 	C 	0.9444	0.8348	0.3604	-0.054
Mof_C 	C 	0.0134	0.0112	0.07774	0.037
Mof_H 	H 	0.006	0.0909	0.094	0.078
Mof_H 	H 	0.0297	0.9443	0.0516	0.062
Mof_H 	H 	0.0831	0.6806	0.1899	0.035
Mof_H 	H 	0.147	0.6935	0.1982	0.036
Mof_C 	C 	0.1105	0.7571	0.175	-0.114
Mof_H 	H 	0.9573	0.8059	0.3468	0.044
Mof_H 	H 	0.9085	0.8219	0.3688	0.053
Mof_C 	C 	0.9892	0.8415	0.385	-0.093
Mof_C 	C 	0.9893	0.9806	0.10256	0.082
Mof_H 	H 	0.0755	0.7616	0.1639	0.053
Mof_H 	H 	0.1422	0.7705	0.1632	0.055
Mof_C 	C 	0.1071	0.791	0.2031	-0.092
Mof_H 	H 	0.9759	0.8702	0.3987	0.061
Mof_H 	H 	0.9922	0.8056	0.3955	0.057
Mof_C 	C 	0.0469	0.8581	0.3742	-0.12
Mof_N 	N 	0.9778	0.0113	0.12548	-0.137
Mof_C 	C 	0.9805	0.9229	0.10158	-0.152
Mof_H 	H 	0.1311	0.7722	0.2174	0.051
Mof_H 	H 	0.0681	0.7889	0.2101	0.051
Mof_C 	C 	0.1244	0.8544	0.2018	-0.078
Mof_H 	H 	0.0602	0.8293	0.3606	0.063
Mof_H 	H 	0.0438	0.8939	0.3636	0.065
Mof_C 	C 	0.089	0.8646	0.3973	-0.015
Mof_C 	C 	0.9571	0.985	0.14859	0.079
Mof_H 	H 	0.9882	0.9027	0.0846	0.078
Mof_C 	C 	0.9606	0.895	0.1255	0.103
Mof_H 	H 	0.1552	0.859	0.2157	0.047
Mof_H 	H 	0.1411	0.8603	0.1827	0.049
Mof_C 	C 	0.0841	0.9047	0.2068	-0.156
Mof_H 	H 	0.0745	0.8921	0.4113	0.033
Mof_H 	H 	0.0928	0.8283	0.4073	0.032
Mof_C 	C 	0.1451	0.8829	0.3882	-0.203
Mof_C 	C 	0.9485	0.9282	0.14933	-0.147
Mof_C 	C 	0.9433	0.0218	0.17318	0.052
Mof_C 	C 	0.9495	0.8342	0.12547	-0.088
Mof_H 	H 	0.0806	0.8975	0.2275	0.068
Mof_H 	H 	0.0513	0.885	0.1987	0.068
Mof_C 	C 	0.0525	0.9634	0.2085	0.047
Mof_H 	H 	0.1413	0.9137	0.3742	0.086
Mof_H 	H 	0.1645	0.8514	0.3787	0.085
Mof_C 	C 	0.1814	0.9038	0.4143	0.095
Mof_H 	H 	0.9342	0.9113	0.1662	0.074
Mof_C 	C 	0.9225	0.9992	0.19848	-0.135
Mof_C 	C 	0.9485	0.0792	0.17184	-0.124
Mof_C 	C 	0.9324	0.8065	0.10138	0.054
Mof_C 	C 	0.9575	0.8026	0.15043	0.052
Mof_H 	H 	0.055	0.9774	0.1887	0.013
Mof_H 	H 	0.0129	0.9522	0.211	0.001
Mof_C 	C 	0.0566	0.0184	0.2267	-0.438
Mof_H 	H 	0.1829	0.8739	0.4289	-0.002
Mof_H 	H 	0.1633	0.9369	0.4229	-0.003
Mof_C 	C 	0.2429	0.9195	0.405	-0.469
Mof_H 	H 	0.9202	0.9598	0.2009	0.064
Mof_C 	C 	0.905	0.0349	0.22009	0.075
Mof_C 	C 	0.9291	0.1113	0.19486	0.067
Mof_H 	H 	0.9649	0.0966	0.1557	0.08
Mof_H 	H 	0.9275	0.8271	0.0842	0.012
Mof_C 	C 	0.9219	0.7484	0.10111	-0.2
Mof_C 	C 	0.9481	0.7451	0.15082	-0.197
Mof_H 	H 	0.9695	0.8208	0.1674	0.004
Mof_H 	H 	0.0278	0.0449	0.2203	0.151
Mof_H 	H 	0.0509	0.0096	0.2469	0.146
Mof_H 	H 	0.0937	0.0352	0.2241	0.147
Mof_H 	H 	0.2506	0.9039	0.3861	0.159
Mof_H 	H 	0.2696	0.904	0.4188	0.164
Mof_H 	H 	0.2468	0.9603	0.4044	0.166
Mof_H 	H 	0.8923	0.0187	0.2375	-0.021
Mof_H 	H 	0.9334	0.1508	0.194	-0.013
Mof_H 	H 	0.9092	0.7305	0.0842	0.1
Mof_C 	C 	0.9304	0.7177	0.12623	0.231
Mof_H 	H 	0.9537	0.7246	0.1679	0.104
Mof_O 	O 	0.9218	0.6619	0.12917	-0.265
Mof_C 	C 	0.9021	0.6335	0.1054	0.119
Mof_H 	H 	0.9308	0.6336	0.0902	-0.004
Mof_H 	H 	0.8679	0.6519	0.098	-0
Mof_C 	C 	0.8887	0.573	0.1143	-0.192
Mof_H 	H 	0.9219	0.5563	0.1236	0.099
Mof_H 	H 	0.8576	0.5731	0.1283	0.092
Mof_C 	C 	0.8723	0.5378	0.0884	-0.044
Mof_H 	H 	0.8428	0.5582	0.0779	0.037
Mof_H 	H 	0.9053	0.5352	0.0757	0.041
Mof_C 	C 	0.8523	0.4813	0.0938	-0.08
Mof_H 	H 	0.8466	0.4636	0.0749	0.046
Mof_H 	H 	0.8148	0.485	0.1026	0.052
Mof_C 	C 	0.8849	0.4401	0.1118	-0.149
Mof_H 	H 	0.9206	0.4317	0.102	0.073
Mof_H 	H 	0.8942	0.4583	0.1302	0.075
Mof_C 	C 	0.8569	0.3889	0.1176	0.017
Mof_H 	H 	0.8404	0.3766	0.0992	0.018
Mof_H 	H 	0.8252	0.3984	0.1302	0.025
Mof_C 	C 	0.8844	0.3375	0.1305	-0.239
Mof_H 	H 	0.8602	0.3046	0.1269	0.094
Mof_H 	H 	0.9206	0.3309	0.1207	0.092
Mof_C 	C 	0.8949	0.3421	0.1621	0.152
Mof_H 	H 	0.8597	0.3498	0.1725	-0.02
Mof_H 	H 	0.9221	0.3723	0.1662	-0.019
Mof_C 	C 	0.9191	0.2842	0.1705	-0.512
Mof_H 	H 	0.889	0.2563	0.1705	0.174
Mof_H 	H 	0.9356	0.2865	0.1896	0.172
Mof_H 	H 	0.9479	0.2732	0.1567	0.174
Mof_N 	N 	0.3155	0.3184	0.53271	-0.241
Mof_N 	N 	0.423	0.3	0.50156	-0.292
Mof_N 	N 	0.405	0.411	0.53211	-0.243
Mof_C 	C 	0.3073	0.2634	0.53135	0.062
Mof_C 	C 	0.2963	0.3447	0.55613	0.071
Mof_C 	C 	0.459	0.2792	0.4956	0.142
Mof_C 	C 	0.2803	0.2331	0.55271	-0.124
Mof_H 	H 	0.3205	0.2438	0.515	-0.008
Mof_H 	H 	0.3024	0.3839	0.5576	-0.006
Mof_C 	C 	0.2687	0.3192	0.57771	-0.126
Mof_S 	S 	0.5171	0.2487	0.4856	-0.116
Mof_C 	C 	0.2607	0.2602	0.5768	0.042
Mof_H 	H 	0.2753	0.1938	0.5507	0.067
Mof_H 	H 	0.2549	0.3404	0.5933	0.084
Mof_C 	C 	0.2357	0.2297	0.60134	0.076
Mof_N 	N 	0.2248	0.2608	0.62487	-0.135
Mof_C 	C 	0.2257	0.1726	0.59998	-0.148
Mof_C 	C 	0.204	0.2343	0.64786	0.079
Mof_C 	C 	0.204	0.1451	0.62392	0.101
Mof_H 	H 	0.2335	0.1524	0.583	0.077
Mof_C 	C 	0.1935	0.1775	0.64816	-0.147
Mof_C 	C 	0.1913	0.2697	0.67333	0.048
Mof_C 	C 	0.1936	0.0841	0.62411	-0.085
Mof_H 	H 	0.1792	0.1603	0.6649	0.074
Mof_C 	C 	0.1935	0.328	0.67235	-0.117
Mof_C 	C 	0.1749	0.2459	0.69871	-0.124
Mof_C 	C 	0.203	0.0528	0.64898	0.054
Mof_C 	C 	0.1746	0.0565	0.60022	0.055
Mof_H 	H 	0.2063	0.3465	0.6556	0.078
Mof_C 	C 	0.1771	0.3585	0.69565	0.07
Mof_C 	C 	0.1589	0.2793	0.72121	0.061
Mof_H 	H 	0.1746	0.2063	0.7007	0.058
Mof_H 	H 	0.2166	0.0712	0.6656	0.005
Mof_C 	C 	0.193	0.9961	0.64977	-0.193
Mof_C 	C 	0.1632	0.9989	0.60039	-0.191
Mof_H 	H 	0.169	0.0771	0.5831	0.011
Mof_N 	N 	0.1591	0.3355	0.72022	-0.238
Mof_H 	H 	0.1785	0.3982	0.6944	-0.006
Mof_H 	H 	0.147	0.2617	0.7383	-0.013
Mof_H 	H 	0.1996	0.9757	0.6668	0.103
Mof_C 	C 	0.1731	0.9686	0.62547	0.229
Mof_H 	H 	0.1491	0.9808	0.5838	0.097
Mof_Co	Co	0.11819	0.37986	0.75462	1.122
Mof_O 	O 	0.1632	0.91273	0.62833	-0.261
Mof_N 	N 	0.16419	0.32876	0.78508	-0.238
Mof_N 	N 	0.0557	0.3177	0.75408	-0.255
Mof_N 	N 	0.0715	0.4294	0.72393	-0.236
Mof_N 	N 	0.1791	0.4409	0.75752	-0.265
Mof_N 	N 	0.0726	0.4202	0.789	-0.238
Mof_C 	C 	0.1372	0.8849	0.60508	0.116
Mof_C 	C 	0.2189	0.3212	0.78234	0.062
Mof_C 	C 	0.1393	0.3065	0.80815	0.061
Mof_C 	C 	0.0272	0.2843	0.7648	0.087
Mof_C 	C 	0.045	0.4036	0.70212	0.061
Mof_C 	C 	0.0697	0.4849	0.72565	0.068
Mof_C 	C 	0.213	0.4725	0.76473	0.094
Mof_H 	H 	0.1627	0.8842	0.5884	-0.003
Mof_H 	H 	0.1025	0.9048	0.5995	0.002
Mof_C 	C 	0.1236	0.8259	0.6143	-0.204
Mof_C 	C 	0.251	0.2909	0.8017	-0.125
Mof_H 	H 	0.2371	0.3374	0.7663	-0.01
Mof_H 	H 	0.1	0.3108	0.8102	-0.006
Mof_C 	C 	0.1684	0.2774	0.82933	-0.12
Mof_S 	S 	0.9837	0.241	0.77987	-0.082
Mof_C 	C 	0.0173	0.4337	0.68117	-0.114
Mof_H 	H 	0.0454	0.3639	0.7011	-0.004
Mof_H 	H 	0.0875	0.5027	0.7413	-0.009
Mof_C 	C 	0.0429	0.5179	0.70561	-0.121
Mof_S 	S 	0.26203	0.51601	0.77485	-0.075
Mof_H 	H 	0.1585	0.8035	0.6143	0.092
Mof_H 	H 	0.1095	0.8268	0.6342	0.091
Mof_C 	C 	0.081	0.7972	0.5958	-0.012
Mof_C 	C 	0.2259	0.2695	0.82616	0.041
Mof_H 	H 	0.2897	0.2849	0.7982	0.066
Mof_H 	H 	0.1494	0.2633	0.8456	0.08
Mof_C 	C 	0.0159	0.4923	0.68262	0.04
Mof_H 	H 	0.9993	0.4148	0.6659	0.078
Mof_H 	H 	0.0428	0.5575	0.7075	0.064
Mof_H 	H 	0.0733	0.7599	0.6041	0.02
Mof_H 	H 	0.0458	0.8189	0.5968	0.027
Mof_C 	C 	0.0956	0.7895	0.5653	-0.119
Mof_C 	C 	0.2587	0.2427	0.84963	0.079
Mof_C 	C 	0.9884	0.5254	0.65955	0.079
Mof_H 	H 	0.1077	0.8255	0.5568	0.061
Mof_H 	H 	0.063	0.7754	0.5545	0.057
Mof_C 	C 	0.1423	0.7479	0.5646	-0.091
Mof_N 	N 	0.2303	0.2296	0.8734	-0.138
Mof_C 	C 	0.3162	0.2328	0.84655	-0.154
Mof_N 	N 	0.97915	0.4969	0.63527	-0.137
Mof_C 	C 	0.977	0.5818	0.66252	-0.15
Mof_H 	H 	0.178	0.7656	0.5705	0.055
Mof_H 	H 	0.1343	0.7162	0.5776	0.049
Mof_C 	C 	0.1458	0.7283	0.5346	-0.045
Mof_C 	C 	0.2583	0.2073	0.8951	0.084
Mof_C 	C 	0.3453	0.2092	0.86945	0.11
Mof_H 	H 	0.3349	0.2419	0.8293	0.078
Mof_C 	C 	0.9574	0.5252	0.61314	0.084
Mof_H 	H 	0.9841	0.6004	0.6801	0.076
Mof_C 	C 	0.9549	0.6113	0.63921	0.103
Mof_H 	H 	0.158	0.7598	0.5224	0.039
Mof_H 	H 	0.108	0.7166	0.5282	0.038
Mof_C 	C 	0.1864	0.6794	0.5309	-0.18
Mof_C 	C 	0.3155	0.1979	0.89412	-0.154
Mof_C 	C 	0.2237	0.192	0.92078	0.048
Mof_C 	C 	0.4064	0.1972	0.86785	-0.1
Mof_C 	C 	0.9454	0.5818	0.61436	-0.152
Mof_C 	C 	0.9473	0.4924	0.58708	0.042
Mof_C 	C 	0.9428	0.6721	0.64034	-0.085
Mof_H 	H 	0.1731	0.6462	0.5415	0.076
Mof_H 	H 	0.2242	0.6896	0.5379	0.078
Mof_C 	C 	0.1874	0.6677	0.4988	0.091
Mof_H 	H 	0.3343	0.1838	0.9105	0.078
Mof_C 	C 	0.1674	0.1976	0.92105	-0.117
Mof_C 	C 	0.2492	0.17	0.9451	-0.124
Mof_C 	C 	0.4403	0.202	0.89157	0.073
Mof_C 	C 	0.431	0.1813	0.84245	0.075
Mof_H 	H 	0.9306	0.6004	0.5981	0.078
Mof_C 	C 	0.9309	0.5165	0.56136	-0.119
Mof_C 	C 	0.9508	0.4329	0.58738	-0.116
Mof_C 	C 	0.925	0.6986	0.66557	0.046
Mof_C 	C 	0.9491	0.7054	0.61597	0.049
Mof_H 	H 	0.1758	0.7008	0.4875	-0.002
Mof_H 	H 	0.1637	0.6352	0.4936	-0.002
Mof_C 	C 	0.2516	0.655	0.4951	-0.452
Mof_H 	H 	0.1491	0.2142	0.9051	0.077
Mof_C 	C 	0.1356	0.1795	0.94431	0.064
Mof_C 	C 	0.2157	0.1529	0.96708	0.065
Mof_H 	H 	0.2888	0.167	0.9463	0.065
Mof_H 	H 	0.4245	0.2133	0.9093	0.002
Mof_C 	C 	0.4966	0.1905	0.89004	-0.215
Mof_C 	C 	0.4873	0.1694	0.84033	-0.21
Mof_H 	H 	0.4083	0.1786	0.8258	0.005
Mof_H 	H 	0.9288	0.5561	0.5597	0.063
Mof_C 	C 	0.9177	0.4833	0.53848	0.064
Mof_C 	C 	0.9381	0.4034	0.56303	0.071
Mof_H 	H 	0.9619	0.4138	0.6042	0.079
Mof_H 	H 	0.9202	0.6771	0.6825	0.01
Mof_C 	C 	0.9142	0.7567	0.6661	-0.197
Mof_C 	C 	0.9383	0.7625	0.6163	-0.196
Mof_H 	H 	0.9612	0.6884	0.5987	0.006
Mof_H 	H 	0.2595	0.6459	0.4751	0.153
Mof_H 	H 	0.2736	0.6872	0.501	0.156
Mof_H 	H 	0.2617	0.6224	0.507	0.154
Mof_N 	N 	0.1594	0.1565	0.96752	-0.237
Mof_H 	H 	0.096	0.1835	0.9437	-0.005
Mof_H 	H 	0.2335	0.1373	0.9834	-0.008
Mof_H 	H 	0.519	0.1937	0.9067	0.111
Mof_C 	C 	0.5207	0.1746	0.86474	0.245
Mof_H 	H 	0.5031	0.1579	0.8227	0.105
Mof_H 	H 	0.9061	0.501	0.5213	-0.008
Mof_H 	H 	0.9422	0.3639	0.5634	-0.013
Mof_H 	H 	0.9019	0.7743	0.6832	0.089
Mof_C 	C 	0.9217	0.7876	0.6416	0.23
Mof_H 	H 	0.9422	0.7841	0.5994	0.103
Mof_O 	O 	0.577	0.1649	0.86489	-0.264
Mof_O 	O 	0.9133	0.8439	0.63963	-0.257
Mof_N 	N 	0.0704	0.065	0.9671	-0.238
Mof_N 	N 	0.0497	0.1734	0.99743	-0.259
Mof_C 	C 	0.6029	0.1484	0.839	0.11
Mof_C 	C 	0.8971	0.8719	0.6647	0.098
Mof_C 	C 	0.0964	0.044	0.94464	0.074
Mof_C 	C 	0.014	0.0596	0.96793	0.056
Mof_C 	C 	0.017	0.2028	0.98714	0.092
Mof_H 	H 	0.5976	0.178	0.8245	-0
Mof_H 	H 	0.5852	0.1137	0.8319	0.002
Mof_C 	C 	0.6651	0.1385	0.8437	-0.194
Mof_H 	H 	0.926	0.8677	0.6797	-0.006
Mof_H 	H 	0.8612	0.8569	0.6719	0.002
Mof_C 	C 	0.8906	0.9344	0.6559	-0.166
Mof_C 	C 	0.0699	0.0191	0.92187	-0.122
Mof_H 	H 	0.1361	0.0462	0.9442	-0.011
Mof_H 	H 	0.9944	0.0743	0.9839	-0.004
Mof_C 	C 	0.9838	0.0337	0.94661	-0.113
Mof_S 	S 	0.97148	0.2429	0.97057	-0.076
Mof_H 	H 	0.6697	0.1102	0.8589	0.086
Mof_H 	H 	0.6823	0.1738	0.8505	0.092
Mof_C 	C 	0.6967	0.1187	0.8171	-0.033
Mof_H 	H 	0.9226	0.9454	0.6437	0.092
Mof_H 	H 	0.8914	0.9581	0.6733	0.071
Mof_C 	C 	0.8348	0.9444	0.6396	-0.054
Mof_C 	C 	0.0112	0.0134	0.92226	0.037
Mof_H 	H 	0.0909	0.006	0.906	0.078
Mof_H 	H 	0.9443	0.0297	0.9484	0.062
Mof_H 	H 	0.6806	0.0831	0.8101	0.035
Mof_H 	H 	0.6935	0.147	0.8018	0.036
Mof_C 	C 	0.7571	0.1105	0.825	-0.114
Mof_H 	H 	0.8059	0.9573	0.6532	0.044
Mof_H 	H 	0.8219	0.9085	0.6312	0.053
Mof_C 	C 	0.8415	0.9892	0.615	-0.093
Mof_C 	C 	0.9806	0.9893	0.89744	0.082
Mof_H 	H 	0.7616	0.0755	0.8361	0.053
Mof_H 	H 	0.7705	0.1422	0.8368	0.055
Mof_C 	C 	0.791	0.1071	0.7969	-0.092
Mof_H 	H 	0.8702	0.9759	0.6013	0.061
Mof_H 	H 	0.8056	0.9922	0.6045	0.057
Mof_C 	C 	0.8581	0.0469	0.6258	-0.12
Mof_N 	N 	0.0113	0.9778	0.87452	-0.137
Mof_C 	C 	0.9229	0.9805	0.89842	-0.152
Mof_H 	H 	0.7722	0.1311	0.7826	0.051
Mof_H 	H 	0.7889	0.0681	0.7899	0.051
Mof_C 	C 	0.8544	0.1244	0.7982	-0.078
Mof_H 	H 	0.8293	0.0602	0.6394	0.063
Mof_H 	H 	0.8939	0.0438	0.6364	0.065
Mof_C 	C 	0.8646	0.089	0.6027	-0.015
Mof_C 	C 	0.985	0.9571	0.85141	0.079
Mof_H 	H 	0.9027	0.9882	0.9154	0.078
Mof_C 	C 	0.895	0.9606	0.8745	0.103
Mof_H 	H 	0.859	0.1552	0.7843	0.047
Mof_H 	H 	0.8603	0.1411	0.8173	0.049
Mof_C 	C 	0.9047	0.0841	0.7932	-0.156
Mof_H 	H 	0.8921	0.0745	0.5887	0.033
Mof_H 	H 	0.8283	0.0928	0.5927	0.032
Mof_C 	C 	0.8829	0.1451	0.6118	-0.203
Mof_C 	C 	0.9282	0.9485	0.85067	-0.147
Mof_C 	C 	0.0218	0.9433	0.82682	0.052
Mof_C 	C 	0.8342	0.9495	0.87453	-0.088
Mof_H 	H 	0.8975	0.0806	0.7725	0.068
Mof_H 	H 	0.885	0.0513	0.8013	0.068
Mof_C 	C 	0.9634	0.0525	0.7915	0.047
Mof_H 	H 	0.9137	0.1413	0.6258	0.086
Mof_H 	H 	0.8514	0.1645	0.6213	0.085
Mof_C 	C 	0.9038	0.1814	0.5857	0.095
Mof_H 	H 	0.9113	0.9342	0.8338	0.073
Mof_C 	C 	0.9992	0.9225	0.80152	-0.135
Mof_C 	C 	0.0792	0.9485	0.82816	-0.124
Mof_C 	C 	0.8065	0.9324	0.89862	0.054
Mof_C 	C 	0.8026	0.9575	0.84957	0.051
Mof_H 	H 	0.9774	0.055	0.8113	0.013
Mof_H 	H 	0.9522	0.0129	0.789	0.001
Mof_C 	C 	0.0184	0.0566	0.7733	-0.438
Mof_H 	H 	0.8739	0.1829	0.5711	-0.002
Mof_H 	H 	0.9369	0.1633	0.5771	-0.003
Mof_C 	C 	0.9195	0.2429	0.595	-0.469
Mof_H 	H 	0.9598	0.9202	0.7991	0.064
Mof_C 	C 	0.0349	0.905	0.77991	0.075
Mof_C 	C 	0.1113	0.9291	0.80514	0.067
Mof_H 	H 	0.0966	0.9649	0.8443	0.08
Mof_H 	H 	0.8271	0.9275	0.9158	0.012
Mof_C 	C 	0.7484	0.9219	0.89889	-0.199
Mof_C 	C 	0.7451	0.9481	0.84918	-0.197
Mof_H 	H 	0.8208	0.9695	0.8326	0.004
Mof_H 	H 	0.0449	0.0278	0.7797	0.151
Mof_H 	H 	0.0096	0.0509	0.7531	0.146
Mof_H 	H 	0.0352	0.0937	0.7759	0.147
Mof_H 	H 	0.9039	0.2506	0.6139	0.159
Mof_H 	H 	0.904	0.2696	0.5812	0.164
Mof_H 	H 	0.9603	0.2468	0.5956	0.166
Mof_H 	H 	0.0187	0.8923	0.7625	-0.021
Mof_H 	H 	0.1508	0.9334	0.806	-0.013
Mof_H 	H 	0.7305	0.9092	0.9158	0.1
Mof_C 	C 	0.7177	0.9304	0.87377	0.231
Mof_H 	H 	0.7246	0.9537	0.8321	0.104
Mof_O 	O 	0.6619	0.9218	0.87083	-0.265
Mof_C 	C 	0.6335	0.9021	0.8946	0.118
Mof_H 	H 	0.6336	0.9308	0.9098	-0.003
Mof_H 	H 	0.6519	0.8679	0.902	-0
Mof_C 	C 	0.573	0.8887	0.8857	-0.191
Mof_H 	H 	0.5563	0.9219	0.8764	0.098
Mof_H 	H 	0.5731	0.8576	0.8717	0.091
Mof_C 	C 	0.5378	0.8723	0.9116	-0.044
Mof_H 	H 	0.5582	0.8428	0.9221	0.038
Mof_H 	H 	0.5352	0.9053	0.9243	0.041
Mof_C 	C 	0.4813	0.8523	0.9062	-0.08
Mof_H 	H 	0.4636	0.8466	0.9251	0.046
Mof_H 	H 	0.485	0.8148	0.8974	0.052
Mof_C 	C 	0.4401	0.8849	0.8882	-0.15
Mof_H 	H 	0.4317	0.9206	0.898	0.073
Mof_H 	H 	0.4583	0.8942	0.8698	0.075
Mof_C 	C 	0.3889	0.8569	0.8824	0.017
Mof_H 	H 	0.3766	0.8404	0.9008	0.018
Mof_H 	H 	0.3984	0.8252	0.8698	0.025
Mof_C 	C 	0.3375	0.8844	0.8695	-0.239
Mof_H 	H 	0.3046	0.8602	0.8731	0.094
Mof_H 	H 	0.3309	0.9206	0.8793	0.092
Mof_C 	C 	0.3421	0.8949	0.8379	0.152
Mof_H 	H 	0.3498	0.8597	0.8275	-0.02
Mof_H 	H 	0.3723	0.9221	0.8338	-0.019
Mof_C 	C 	0.2842	0.9191	0.8295	-0.512
Mof_H 	H 	0.2563	0.889	0.8295	0.174
Mof_H 	H 	0.2865	0.9356	0.8104	0.172
Mof_H 	H 	0.2732	0.9479	0.8433	0.174
Mof_N 	N 	0.6845	0.6816	0.03271	-0.241
Mof_N 	N 	0.577	0.7	0.00156	-0.294
Mof_N 	N 	0.595	0.589	0.03211	-0.243
Mof_C 	C 	0.6927	0.7366	0.03135	0.062
Mof_C 	C 	0.7037	0.6553	0.05613	0.071
Mof_C 	C 	0.541	0.7208	0.9956	0.144
Mof_C 	C 	0.7197	0.7669	0.05271	-0.124
Mof_H 	H 	0.6795	0.7562	0.015	-0.008
Mof_H 	H 	0.6976	0.6161	0.0576	-0.006
Mof_C 	C 	0.7313	0.6808	0.07771	-0.126
Mof_S 	S 	0.4829	0.7513	0.9856	-0.116
Mof_C 	C 	0.7393	0.7398	0.0768	0.042
Mof_H 	H 	0.7247	0.8062	0.0507	0.066
Mof_H 	H 	0.7451	0.6596	0.0933	0.084
Mof_C 	C 	0.7643	0.7703	0.10134	0.075
Mof_N 	N 	0.7752	0.7392	0.12487	-0.135
Mof_C 	C 	0.7743	0.8274	0.09998	-0.148
Mof_C 	C 	0.796	0.7657	0.14786	0.079
Mof_C 	C 	0.796	0.8549	0.12392	0.101
Mof_H 	H 	0.7665	0.8476	0.083	0.076
Mof_C 	C 	0.8065	0.8225	0.14816	-0.147
Mof_C 	C 	0.8087	0.7303	0.17333	0.048
Mof_C 	C 	0.8064	0.9159	0.12411	-0.085
Mof_H 	H 	0.8208	0.8397	0.1649	0.074
Mof_C 	C 	0.8065	0.672	0.17235	-0.117
Mof_C 	C 	0.8251	0.7541	0.19871	-0.124
Mof_C 	C 	0.797	0.9472	0.14898	0.054
Mof_C 	C 	0.8254	0.9435	0.10022	0.055
Mof_H 	H 	0.7937	0.6535	0.1556	0.078
Mof_C 	C 	0.8229	0.6415	0.19565	0.07
Mof_C 	C 	0.8411	0.7207	0.22121	0.061
Mof_H 	H 	0.8254	0.7937	0.2007	0.058
Mof_H 	H 	0.7834	0.9288	0.1656	0.005
Mof_C 	C 	0.807	0.0039	0.14977	-0.193
Mof_C 	C 	0.8368	0.0011	0.10039	-0.191
Mof_H 	H 	0.831	0.9229	0.0831	0.011
Mof_N 	N 	0.8409	0.6645	0.22022	-0.238
Mof_H 	H 	0.8215	0.6018	0.1944	-0.006
Mof_H 	H 	0.853	0.7383	0.2383	-0.013
Mof_H 	H 	0.8004	0.0243	0.1668	0.103
Mof_C 	C 	0.8269	0.0314	0.12547	0.229
Mof_H 	H 	0.8509	0.0192	0.0838	0.097
Mof_Co	Co	0.88181	0.62014	0.25462	1.122
Mof_O 	O 	0.8368	0.08727	0.12833	-0.261
Mof_N 	N 	0.83581	0.67124	0.28508	-0.238
Mof_N 	N 	0.9443	0.6823	0.25408	-0.255
Mof_N 	N 	0.9285	0.5706	0.22393	-0.236
Mof_N 	N 	0.8209	0.5591	0.25752	-0.265
Mof_N 	N 	0.9274	0.5798	0.289	-0.238
Mof_C 	C 	0.8628	0.1151	0.10508	0.116
Mof_C 	C 	0.7811	0.6788	0.28234	0.062
Mof_C 	C 	0.8607	0.6935	0.30815	0.061
Mof_C 	C 	0.9728	0.7157	0.2648	0.087
Mof_C 	C 	0.955	0.5964	0.20212	0.061
Mof_C 	C 	0.9303	0.5151	0.22565	0.068
Mof_C 	C 	0.787	0.5275	0.26473	0.094
Mof_H 	H 	0.8373	0.1158	0.0884	-0.003
Mof_H 	H 	0.8975	0.0952	0.0995	0.002
Mof_C 	C 	0.8764	0.1741	0.1143	-0.204
Mof_C 	C 	0.749	0.7091	0.3017	-0.125
Mof_H 	H 	0.7629	0.6626	0.2663	-0.01
Mof_H 	H 	0.9	0.6892	0.3102	-0.006
Mof_C 	C 	0.8316	0.7226	0.32933	-0.12
Mof_S 	S 	0.0163	0.759	0.27987	-0.082
Mof_C 	C 	0.9827	0.5663	0.18117	-0.114
Mof_H 	H 	0.9546	0.6361	0.2011	-0.004
Mof_H 	H 	0.9125	0.4973	0.2413	-0.009
Mof_C 	C 	0.9571	0.4821	0.20561	-0.121
Mof_S 	S 	0.73797	0.48399	0.27485	-0.075
Mof_H 	H 	0.8415	0.1965	0.1143	0.092
Mof_H 	H 	0.8905	0.1732	0.1342	0.091
Mof_C 	C 	0.919	0.2028	0.0958	-0.012
Mof_C 	C 	0.7741	0.7305	0.32616	0.041
Mof_H 	H 	0.7103	0.7151	0.2982	0.066
Mof_H 	H 	0.8506	0.7367	0.3456	0.08
Mof_C 	C 	0.9841	0.5077	0.18262	0.04
Mof_H 	H 	0.0007	0.5852	0.1659	0.078
Mof_H 	H 	0.9572	0.4425	0.2075	0.064
Mof_H 	H 	0.9267	0.2401	0.1041	0.02
Mof_H 	H 	0.9542	0.1811	0.0968	0.028
Mof_C 	C 	0.9044	0.2105	0.0653	-0.119
Mof_C 	C 	0.7413	0.7573	0.34963	0.079
Mof_C 	C 	0.0116	0.4746	0.15955	0.079
Mof_H 	H 	0.8923	0.1745	0.0568	0.06
Mof_H 	H 	0.937	0.2246	0.0545	0.057
Mof_C 	C 	0.8577	0.2521	0.0646	-0.091
Mof_N 	N 	0.7697	0.7704	0.3734	-0.138
Mof_C 	C 	0.6838	0.7672	0.34655	-0.154
Mof_N 	N 	0.02085	0.5031	0.13527	-0.137
Mof_C 	C 	0.023	0.4182	0.16252	-0.15
Mof_H 	H 	0.822	0.2344	0.0705	0.055
Mof_H 	H 	0.8657	0.2838	0.0776	0.049
Mof_C 	C 	0.8542	0.2717	0.0346	-0.045
Mof_C 	C 	0.7417	0.7927	0.3951	0.084
Mof_C 	C 	0.6547	0.7908	0.36945	0.11
Mof_H 	H 	0.6651	0.7581	0.3293	0.078
Mof_C 	C 	0.0426	0.4748	0.11314	0.084
Mof_H 	H 	0.0159	0.3996	0.1801	0.076
Mof_C 	C 	0.0451	0.3887	0.13921	0.103
Mof_H 	H 	0.842	0.2402	0.0224	0.039
Mof_H 	H 	0.892	0.2834	0.0282	0.038
Mof_C 	C 	0.8136	0.3206	0.0309	-0.18
Mof_C 	C 	0.6845	0.8021	0.39412	-0.154
Mof_C 	C 	0.7763	0.808	0.42078	0.048
Mof_C 	C 	0.5936	0.8028	0.36785	-0.1
Mof_C 	C 	0.0546	0.4182	0.11436	-0.152
Mof_C 	C 	0.0527	0.5076	0.08708	0.042
Mof_C 	C 	0.0572	0.3279	0.14034	-0.085
Mof_H 	H 	0.8269	0.3538	0.0415	0.076
Mof_H 	H 	0.7758	0.3104	0.0379	0.078
Mof_C 	C 	0.8126	0.3323	0.9988	0.088
Mof_H 	H 	0.6657	0.8162	0.4105	0.078
Mof_C 	C 	0.8326	0.8024	0.42105	-0.117
Mof_C 	C 	0.7508	0.83	0.4451	-0.124
Mof_C 	C 	0.5597	0.798	0.39157	0.073
Mof_C 	C 	0.569	0.8187	0.34245	0.075
Mof_H 	H 	0.0694	0.3996	0.0981	0.078
Mof_C 	C 	0.0691	0.4835	0.06136	-0.119
Mof_C 	C 	0.0492	0.5671	0.08738	-0.116
Mof_C 	C 	0.075	0.3014	0.16557	0.046
Mof_C 	C 	0.0509	0.2946	0.11597	0.049
Mof_H 	H 	0.8242	0.2992	0.9875	-0.001
Mof_H 	H 	0.8363	0.3648	0.9936	-0.001
Mof_C 	C 	0.7484	0.345	0.9951	-0.442
Mof_H 	H 	0.8509	0.7858	0.4051	0.077
Mof_C 	C 	0.8644	0.8205	0.44431	0.064
Mof_C 	C 	0.7843	0.8471	0.46708	0.065
Mof_H 	H 	0.7112	0.833	0.4463	0.065
Mof_H 	H 	0.5755	0.7867	0.4093	0.002
Mof_C 	C 	0.5034	0.8095	0.39004	-0.215
Mof_C 	C 	0.5127	0.8306	0.34033	-0.21
Mof_H 	H 	0.5917	0.8214	0.3258	0.005
Mof_H 	H 	0.0712	0.4439	0.0597	0.063
Mof_C 	C 	0.0823	0.5167	0.03848	0.064
Mof_C 	C 	0.0619	0.5966	0.06303	0.071
Mof_H 	H 	0.0381	0.5862	0.1042	0.079
Mof_H 	H 	0.0798	0.3229	0.1825	0.01
Mof_C 	C 	0.0858	0.2433	0.1661	-0.197
Mof_C 	C 	0.0617	0.2375	0.1163	-0.196
Mof_H 	H 	0.0388	0.3116	0.0987	0.006
Mof_H 	H 	0.7405	0.3541	0.9751	0.15
Mof_H 	H 	0.7264	0.3128	0.001	0.152
Mof_H 	H 	0.7383	0.3776	0.007	0.15
Mof_N 	N 	0.8406	0.8435	0.46752	-0.238
Mof_H 	H 	0.904	0.8165	0.4437	-0.005
Mof_H 	H 	0.7665	0.8627	0.4834	-0.009
Mof_H 	H 	0.481	0.8063	0.4067	0.111
Mof_C 	C 	0.4793	0.8254	0.36474	0.245
Mof_H 	H 	0.4969	0.8421	0.3227	0.105
Mof_H 	H 	0.0939	0.499	0.0213	-0.009
Mof_H 	H 	0.0578	0.6361	0.0634	-0.013
Mof_H 	H 	0.0981	0.2257	0.1832	0.089
Mof_C 	C 	0.0783	0.2124	0.1416	0.23
Mof_H 	H 	0.0578	0.2159	0.0994	0.103
Mof_O 	O 	0.423	0.8351	0.36489	-0.264
Mof_O 	O 	0.0867	0.1561	0.13963	-0.257
Mof_N 	N 	0.9296	0.935	0.4671	-0.238
Mof_N 	N 	0.9503	0.8266	0.49743	-0.259
Mof_C 	C 	0.3971	0.8516	0.339	0.11
Mof_C 	C 	0.1029	0.1281	0.1647	0.098
Mof_C 	C 	0.9036	0.956	0.44464	0.074
Mof_C 	C 	0.986	0.9404	0.46793	0.055
Mof_C 	C 	0.983	0.7972	0.48714	0.091
Mof_H 	H 	0.4024	0.822	0.3245	-0
Mof_H 	H 	0.4148	0.8863	0.3319	0.002
Mof_C 	C 	0.3349	0.8615	0.3437	-0.194
Mof_H 	H 	0.074	0.1323	0.1797	-0.006
Mof_H 	H 	0.1388	0.1431	0.1719	0.002
Mof_C 	C 	0.1094	0.0656	0.1559	-0.166
Mof_C 	C 	0.9301	0.9809	0.42187	-0.122
Mof_H 	H 	0.8639	0.9538	0.4442	-0.011
Mof_H 	H 	0.0056	0.9257	0.4839	-0.005
Mof_C 	C 	0.0162	0.9663	0.44661	-0.113
Mof_S 	S 	0.02852	0.7571	0.47057	-0.077
Mof_H 	H 	0.3303	0.8898	0.3589	0.086
Mof_H 	H 	0.3177	0.8262	0.3505	0.092
Mof_C 	C 	0.3033	0.8813	0.3171	-0.033
Mof_H 	H 	0.0774	0.0546	0.1437	0.092
Mof_H 	H 	0.1086	0.0419	0.1733	0.071
Mof_C 	C 	0.1652	0.0556	0.1396	-0.054
Mof_C 	C 	0.9888	0.9866	0.42226	0.037
Mof_H 	H 	0.9091	0.994	0.406	0.078
Mof_H 	H 	0.0557	0.9703	0.4484	0.062
Mof_H 	H 	0.3194	0.9169	0.3101	0.035
Mof_H 	H 	0.3065	0.853	0.3018	0.036
Mof_C 	C 	0.2429	0.8895	0.325	-0.114
Mof_H 	H 	0.1941	0.0427	0.1532	0.044
Mof_H 	H 	0.1781	0.0915	0.1312	0.053
Mof_C 	C 	0.1585	0.0108	0.115	-0.093
Mof_C 	C 	0.0194	0.0107	0.39744	0.082
Mof_H 	H 	0.2384	0.9245	0.3361	0.053
Mof_H 	H 	0.2295	0.8578	0.3368	0.055
Mof_C 	C 	0.209	0.8929	0.2969	-0.092
Mof_H 	H 	0.1298	0.0241	0.1013	0.061
Mof_H 	H 	0.1944	0.0078	0.1045	0.057
Mof_C 	C 	0.1419	0.9531	0.1258	-0.12
Mof_N 	N 	0.9887	0.0222	0.37452	-0.137
Mof_C 	C 	0.0771	0.0195	0.39842	-0.152
Mof_H 	H 	0.2278	0.8689	0.2826	0.051
Mof_H 	H 	0.2111	0.9319	0.2899	0.051
Mof_C 	C 	0.1456	0.8756	0.2982	-0.078
Mof_H 	H 	0.1707	0.9398	0.1394	0.063
Mof_H 	H 	0.1061	0.9562	0.1364	0.065
Mof_C 	C 	0.1354	0.911	0.1027	-0.015
Mof_C 	C 	0.015	0.0429	0.35141	0.079
Mof_H 	H 	0.0973	0.0118	0.4154	0.078
Mof_C 	C 	0.105	0.0394	0.3745	0.103
Mof_H 	H 	0.141	0.8448	0.2843	0.047
Mof_H 	H 	0.1397	0.8589	0.3173	0.049
Mof_C 	C 	0.0953	0.9159	0.2932	-0.156
Mof_H 	H 	0.1079	0.9255	0.0887	0.033
Mof_H 	H 	0.1717	0.9072	0.0927	0.032
Mof_C 	C 	0.1171	0.8549	0.1118	-0.203
Mof_C 	C 	0.0718	0.0515	0.35067	-0.147
Mof_C 	C 	0.9782	0.0567	0.32682	0.052
Mof_C 	C 	0.1658	0.0505	0.37453	-0.088
Mof_H 	H 	0.1025	0.9194	0.2725	0.068
Mof_H 	H 	0.115	0.9487	0.3013	0.068
Mof_C 	C 	0.0366	0.9475	0.2915	0.047
Mof_H 	H 	0.0863	0.8587	0.1258	0.086
Mof_H 	H 	0.1486	0.8355	0.1213	0.085
Mof_C 	C 	0.0962	0.8186	0.0857	0.095
Mof_H 	H 	0.0887	0.0658	0.3338	0.074
Mof_C 	C 	0.0008	0.0775	0.30152	-0.135
Mof_C 	C 	0.9208	0.0515	0.32816	-0.124
Mof_C 	C 	0.1935	0.0676	0.39862	0.054
Mof_C 	C 	0.1974	0.0425	0.34957	0.051
Mof_H 	H 	0.0226	0.945	0.3113	0.013
Mof_H 	H 	0.0478	0.9871	0.289	0.001
Mof_C 	C 	0.9816	0.9434	0.2733	-0.438
Mof_H 	H 	0.1261	0.8171	0.0711	-0.002
Mof_H 	H 	0.0631	0.8367	0.0771	-0.004
Mof_C 	C 	0.0805	0.7571	0.095	-0.469
Mof_H 	H 	0.0402	0.0798	0.2991	0.064
Mof_C 	C 	0.9651	0.095	0.27991	0.075
Mof_C 	C 	0.8887	0.0709	0.30514	0.067
Mof_H 	H 	0.9034	0.0351	0.3443	0.08
Mof_H 	H 	0.1729	0.0725	0.4158	0.012
Mof_C 	C 	0.2516	0.0781	0.39889	-0.199
Mof_C 	C 	0.2549	0.0519	0.34918	-0.197
Mof_H 	H 	0.1792	0.0305	0.3326	0.004
Mof_H 	H 	0.9551	0.9722	0.2797	0.151
Mof_H 	H 	0.9904	0.9491	0.2531	0.146
Mof_H 	H 	0.9648	0.9063	0.2759	0.147
Mof_H 	H 	0.0961	0.7494	0.1139	0.159
Mof_H 	H 	0.096	0.7304	0.0812	0.164
Mof_H 	H 	0.0397	0.7532	0.0956	0.166
Mof_H 	H 	0.9813	0.1077	0.2625	-0.021
Mof_H 	H 	0.8492	0.0666	0.306	-0.013
Mof_H 	H 	0.2695	0.0908	0.4158	0.1
Mof_C 	C 	0.2823	0.0696	0.37377	0.231
Mof_H 	H 	0.2754	0.0463	0.3321	0.104
Mof_O 	O 	0.3381	0.0782	0.37083	-0.265
Mof_C 	C 	0.3665	0.0979	0.3946	0.119
Mof_H 	H 	0.3664	0.0692	0.4098	-0.004
Mof_H 	H 	0.3481	0.1321	0.402	-0
Mof_C 	C 	0.427	0.1113	0.3857	-0.192
Mof_H 	H 	0.4437	0.0781	0.3764	0.098
Mof_H 	H 	0.4269	0.1424	0.3717	0.091
Mof_C 	C 	0.4622	0.1277	0.4116	-0.044
Mof_H 	H 	0.4418	0.1572	0.4221	0.037
Mof_H 	H 	0.4648	0.0947	0.4243	0.041
Mof_C 	C 	0.5187	0.1477	0.4062	-0.08
Mof_H 	H 	0.5364	0.1534	0.4251	0.046
Mof_H 	H 	0.515	0.1852	0.3974	0.052
Mof_C 	C 	0.5599	0.1151	0.3882	-0.15
Mof_H 	H 	0.5683	0.0794	0.398	0.073
Mof_H 	H 	0.5417	0.1058	0.3698	0.075
Mof_C 	C 	0.6111	0.1431	0.3824	0.017
Mof_H 	H 	0.6234	0.1596	0.4008	0.018
Mof_H 	H 	0.6016	0.1748	0.3698	0.025
Mof_C 	C 	0.6625	0.1156	0.3695	-0.239
Mof_H 	H 	0.6954	0.1398	0.3731	0.094
Mof_H 	H 	0.6691	0.0794	0.3793	0.092
Mof_C 	C 	0.6579	0.1051	0.3379	0.152
Mof_H 	H 	0.6502	0.1403	0.3275	-0.02
Mof_H 	H 	0.6277	0.0779	0.3338	-0.019
Mof_C 	C 	0.7158	0.0809	0.3295	-0.512
Mof_H 	H 	0.7437	0.111	0.3295	0.174
Mof_H 	H 	0.7135	0.0644	0.3104	0.172
Mof_H 	H 	0.7268	0.0521	0.3433	0.174
Mof_N 	N 	0.8184	0.1845	0.28271	-0.241
Mof_N 	N 	0.8	0.077	0.25156	-0.292
Mof_N 	N 	0.911	0.095	0.28211	-0.243
Mof_C 	C 	0.7634	0.1927	0.28135	0.063
Mof_C 	C 	0.8447	0.2037	0.30613	0.071
Mof_C 	C 	0.7792	0.041	0.2456	0.142
Mof_C 	C 	0.7331	0.2197	0.30271	-0.124
Mof_H 	H 	0.7438	0.1795	0.265	-0.008
Mof_H 	H 	0.8839	0.1976	0.3076	-0.006
Mof_C 	C 	0.8192	0.2313	0.32771	-0.126
Mof_S 	S 	0.7487	0.9829	0.2356	-0.116
Mof_C 	C 	0.7602	0.2393	0.3268	0.042
Mof_H 	H 	0.6938	0.2247	0.3007	0.067
Mof_H 	H 	0.8404	0.2451	0.3433	0.084
Mof_C 	C 	0.7297	0.2643	0.35134	0.076
Mof_N 	N 	0.7608	0.2752	0.37487	-0.135
Mof_C 	C 	0.6726	0.2743	0.34998	-0.148
Mof_C 	C 	0.7343	0.296	0.39786	0.079
Mof_C 	C 	0.6451	0.296	0.37392	0.101
Mof_H 	H 	0.6524	0.2665	0.333	0.077
Mof_C 	C 	0.6775	0.3065	0.39816	-0.147
Mof_C 	C 	0.7697	0.3087	0.42333	0.048
Mof_C 	C 	0.5841	0.3064	0.37411	-0.085
Mof_H 	H 	0.6603	0.3208	0.4149	0.074
Mof_C 	C 	0.828	0.3065	0.42235	-0.117
Mof_C 	C 	0.7459	0.3251	0.44871	-0.124
Mof_C 	C 	0.5528	0.297	0.39898	0.054
Mof_C 	C 	0.5565	0.3254	0.35022	0.056
Mof_H 	H 	0.8465	0.2937	0.4056	0.078
Mof_C 	C 	0.8585	0.3229	0.44565	0.07
Mof_C 	C 	0.7793	0.3411	0.47121	0.061
Mof_H 	H 	0.7063	0.3254	0.4507	0.058
Mof_H 	H 	0.5712	0.2834	0.4156	0.005
Mof_C 	C 	0.4961	0.307	0.39977	-0.194
Mof_C 	C 	0.4989	0.3368	0.35039	-0.192
Mof_H 	H 	0.5771	0.331	0.3331	0.011
Mof_N 	N 	0.8355	0.3409	0.47022	-0.238
Mof_H 	H 	0.8982	0.3215	0.4444	-0.006
Mof_H 	H 	0.7617	0.353	0.4883	-0.013
Mof_H 	H 	0.4757	0.3004	0.4168	0.103
Mof_C 	C 	0.4686	0.3269	0.37547	0.229
Mof_H 	H 	0.4808	0.3509	0.3338	0.097
Mof_Co	Co	0.87986	0.38181	0.50462	1.122
Mof_O 	O 	0.41273	0.3368	0.37833	-0.261
Mof_N 	N 	0.82876	0.33581	0.53508	-0.238
Mof_N 	N 	0.8177	0.4443	0.50408	-0.255
Mof_N 	N 	0.9294	0.4285	0.47393	-0.236
Mof_N 	N 	0.9409	0.3209	0.50752	-0.265
Mof_N 	N 	0.9202	0.4274	0.539	-0.238
Mof_C 	C 	0.3849	0.3628	0.35508	0.116
Mof_C 	C 	0.8212	0.2811	0.53234	0.062
Mof_C 	C 	0.8065	0.3607	0.55815	0.061
Mof_C 	C 	0.7843	0.4728	0.5148	0.088
Mof_C 	C 	0.9036	0.455	0.45212	0.061
Mof_C 	C 	0.9849	0.4303	0.47565	0.067
Mof_C 	C 	0.9725	0.287	0.51473	0.094
Mof_H 	H 	0.3842	0.3373	0.3384	-0.003
Mof_H 	H 	0.4048	0.3975	0.3495	0.002
Mof_C 	C 	0.3259	0.3764	0.3643	-0.204
Mof_C 	C 	0.7909	0.249	0.5517	-0.125
Mof_H 	H 	0.8374	0.2629	0.5163	-0.01
Mof_H 	H 	0.8108	0.4	0.5602	-0.006
Mof_C 	C 	0.7774	0.3316	0.57933	-0.12
Mof_S 	S 	0.741	0.5163	0.52987	-0.082
Mof_C 	C 	0.9337	0.4827	0.43117	-0.114
Mof_H 	H 	0.8639	0.4546	0.4511	-0.004
Mof_H 	H 	0.0027	0.4125	0.4913	-0.009
Mof_C 	C 	0.0179	0.4571	0.45561	-0.12
Mof_S 	S 	0.01601	0.23797	0.52485	-0.075
Mof_H 	H 	0.3035	0.3415	0.3643	0.092
Mof_H 	H 	0.3268	0.3905	0.3842	0.091
Mof_C 	C 	0.2972	0.419	0.3458	-0.012
Mof_C 	C 	0.7695	0.2741	0.57616	0.041
Mof_H 	H 	0.7849	0.2103	0.5482	0.066
Mof_H 	H 	0.7633	0.3506	0.5956	0.08
Mof_C 	C 	0.9923	0.4841	0.43262	0.04
Mof_H 	H 	0.9148	0.5007	0.4159	0.078
Mof_H 	H 	0.0575	0.4572	0.4575	0.064
Mof_H 	H 	0.2599	0.4267	0.3541	0.02
Mof_H 	H 	0.3189	0.4542	0.3468	0.027
Mof_C 	C 	0.2895	0.4044	0.3153	-0.119
Mof_C 	C 	0.7427	0.2413	0.59963	0.079
Mof_C 	C 	0.0254	0.5116	0.40955	0.08
Mof_H 	H 	0.3255	0.3923	0.3068	0.061
Mof_H 	H 	0.2754	0.437	0.3045	0.057
Mof_C 	C 	0.2479	0.3577	0.3146	-0.091
Mof_N 	N 	0.7296	0.2697	0.6234	-0.138
Mof_C 	C 	0.7328	0.1838	0.59655	-0.154
Mof_N 	N 	0.9969	0.52085	0.38527	-0.138
Mof_C 	C 	0.0818	0.523	0.41252	-0.15
Mof_H 	H 	0.2656	0.322	0.3205	0.055
Mof_H 	H 	0.2162	0.3657	0.3276	0.049
Mof_C 	C 	0.2283	0.3542	0.2846	-0.045
Mof_C 	C 	0.7073	0.2417	0.6451	0.084
Mof_C 	C 	0.7092	0.1547	0.61945	0.11
Mof_H 	H 	0.7419	0.1651	0.5793	0.078
Mof_C 	C 	0.0252	0.5426	0.36314	0.084
Mof_H 	H 	0.1004	0.5159	0.4301	0.076
Mof_C 	C 	0.1113	0.5451	0.38921	0.104
Mof_H 	H 	0.2598	0.342	0.2724	0.039
Mof_H 	H 	0.2166	0.392	0.2782	0.038
Mof_C 	C 	0.1794	0.3136	0.2809	-0.18
Mof_C 	C 	0.6979	0.1845	0.64412	-0.154
Mof_C 	C 	0.692	0.2763	0.67078	0.048
Mof_C 	C 	0.6972	0.0936	0.61785	-0.099
Mof_C 	C 	0.0818	0.5546	0.36436	-0.152
Mof_C 	C 	0.9924	0.5527	0.33708	0.042
Mof_C 	C 	0.1721	0.5572	0.39034	-0.085
Mof_H 	H 	0.1462	0.3269	0.2915	0.076
Mof_H 	H 	0.1896	0.2758	0.2879	0.078
Mof_C 	C 	0.1677	0.3126	0.2488	0.091
Mof_H 	H 	0.6838	0.1657	0.6605	0.077
Mof_C 	C 	0.6976	0.3326	0.67105	-0.117
Mof_C 	C 	0.67	0.2508	0.6951	-0.124
Mof_C 	C 	0.702	0.0597	0.64157	0.072
Mof_C 	C 	0.6813	0.069	0.59245	0.074
Mof_H 	H 	0.1004	0.5694	0.3481	0.078
Mof_C 	C 	0.0165	0.5691	0.31136	-0.118
Mof_C 	C 	0.9329	0.5492	0.33738	-0.116
Mof_C 	C 	0.1986	0.575	0.41557	0.046
Mof_C 	C 	0.2054	0.5509	0.36597	0.049
Mof_H 	H 	0.2008	0.3242	0.2375	-0.002
Mof_H 	H 	0.1352	0.3363	0.2436	-0.002
Mof_C 	C 	0.155	0.2484	0.2451	-0.452
Mof_H 	H 	0.7142	0.3509	0.6551	0.077
Mof_C 	C 	0.6795	0.3644	0.69431	0.064
Mof_C 	C 	0.6529	0.2843	0.71708	0.065
Mof_H 	H 	0.667	0.2112	0.6963	0.065
Mof_H 	H 	0.7133	0.0755	0.6593	0.002
Mof_C 	C 	0.6905	0.0034	0.64004	-0.213
Mof_C 	C 	0.6694	0.0127	0.59033	-0.208
Mof_H 	H 	0.6786	0.0917	0.5758	0.006
Mof_H 	H 	0.0561	0.5712	0.3097	0.063
Mof_C 	C 	0.9833	0.5823	0.28848	0.063
Mof_C 	C 	0.9034	0.5619	0.31303	0.071
Mof_H 	H 	0.9138	0.5381	0.3542	0.078
Mof_H 	H 	0.1771	0.5798	0.4325	0.01
Mof_C 	C 	0.2567	0.5858	0.4161	-0.197
Mof_C 	C 	0.2625	0.5617	0.3663	-0.196
Mof_H 	H 	0.1884	0.5388	0.3487	0.006
Mof_H 	H 	0.1459	0.2405	0.2251	0.153
Mof_H 	H 	0.1872	0.2264	0.251	0.156
Mof_H 	H 	0.1224	0.2383	0.257	0.154
Mof_N 	N 	0.6565	0.3406	0.71752	-0.238
Mof_H 	H 	0.6835	0.404	0.6937	-0.005
Mof_H 	H 	0.6373	0.2665	0.7334	-0.009
Mof_H 	H 	0.6937	0.981	0.6567	0.11
Mof_C 	C 	0.6746	0.9793	0.61474	0.244
Mof_H 	H 	0.6579	0.9969	0.5727	0.104
Mof_H 	H 	0.001	0.5939	0.2713	-0.008
Mof_H 	H 	0.8639	0.5578	0.3134	-0.013
Mof_H 	H 	0.2743	0.5981	0.4332	0.089
Mof_C 	C 	0.2876	0.5783	0.3916	0.231
Mof_H 	H 	0.2841	0.5578	0.3494	0.103
Mof_O 	O 	0.6649	0.923	0.61489	-0.264
Mof_O 	O 	0.3439	0.5867	0.38963	-0.257
Mof_N 	N 	0.565	0.4296	0.7171	-0.239
Mof_N 	N 	0.6734	0.4503	0.74743	-0.259
Mof_C 	C 	0.6484	0.8971	0.589	0.11
Mof_C 	C 	0.3719	0.6029	0.4147	0.097
Mof_C 	C 	0.544	0.4036	0.69464	0.075
Mof_C 	C 	0.5596	0.486	0.71793	0.058
Mof_C 	C 	0.7028	0.483	0.73714	0.092
Mof_H 	H 	0.678	0.9024	0.5745	-0
Mof_H 	H 	0.6137	0.9148	0.5819	0.003
Mof_C 	C 	0.6385	0.8349	0.5937	-0.194
Mof_H 	H 	0.3677	0.574	0.4297	-0.005
Mof_H 	H 	0.3569	0.6388	0.4219	0.002
Mof_C 	C 	0.4344	0.6094	0.4059	-0.165
Mof_C 	C 	0.5191	0.4301	0.67187	-0.123
Mof_H 	H 	0.5462	0.3639	0.6942	-0.011
Mof_H 	H 	0.5743	0.5056	0.7339	-0.006
Mof_C 	C 	0.5337	0.5162	0.69661	-0.116
Mof_S 	S 	0.7429	0.52852	0.72057	-0.077
Mof_H 	H 	0.6102	0.8303	0.6089	0.086
Mof_H 	H 	0.6738	0.8177	0.6005	0.092
Mof_C 	C 	0.6187	0.8033	0.5671	-0.033
Mof_H 	H 	0.4454	0.5774	0.3937	0.092
Mof_H 	H 	0.4581	0.6086	0.4233	0.071
Mof_C 	C 	0.4444	0.6652	0.3896	-0.054
Mof_C 	C 	0.5134	0.4888	0.67226	0.039
Mof_H 	H 	0.506	0.4091	0.656	0.079
Mof_H 	H 	0.5297	0.5557	0.6984	0.063
Mof_H 	H 	0.5831	0.8194	0.5601	0.035
Mof_H 	H 	0.647	0.8065	0.5518	0.036
Mof_C 	C 	0.6105	0.7429	0.575	-0.114
Mof_H 	H 	0.4573	0.6941	0.4032	0.044
Mof_H 	H 	0.4085	0.6781	0.3812	0.053
Mof_C 	C 	0.4892	0.6585	0.365	-0.092
Mof_C 	C 	0.4893	0.5194	0.64744	0.082
Mof_H 	H 	0.5755	0.7384	0.5861	0.053
Mof_H 	H 	0.6422	0.7295	0.5868	0.055
Mof_C 	C 	0.6071	0.709	0.5469	-0.092
Mof_H 	H 	0.4759	0.6298	0.3513	0.06
Mof_H 	H 	0.4922	0.6944	0.3545	0.057
Mof_C 	C 	0.5469	0.6419	0.3758	-0.12
Mof_N 	N 	0.4778	0.4887	0.62452	-0.137
Mof_C 	C 	0.4805	0.5771	0.64842	-0.152
Mof_H 	H 	0.6311	0.7278	0.5326	0.051
Mof_H 	H 	0.5681	0.7111	0.5399	0.051
Mof_C 	C 	0.6244	0.6456	0.5482	-0.078
Mof_H 	H 	0.5602	0.6707	0.3894	0.063
Mof_H 	H 	0.5438	0.6061	0.3864	0.065
Mof_C 	C 	0.589	0.6354	0.3527	-0.014
Mof_C 	C 	0.4571	0.515	0.60141	0.08
Mof_H 	H 	0.4882	0.5973	0.6654	0.078
Mof_C 	C 	0.4606	0.605	0.6245	0.103
Mof_H 	H 	0.6552	0.641	0.5343	0.047
Mof_H 	H 	0.6411	0.6397	0.5673	0.049
Mof_C 	C 	0.5841	0.5953	0.5432	-0.156
Mof_H 	H 	0.5745	0.6079	0.3387	0.033
Mof_H 	H 	0.5928	0.6717	0.3427	0.032
Mof_C 	C 	0.6451	0.6171	0.3618	-0.203
Mof_C 	C 	0.4485	0.5718	0.60067	-0.147
Mof_C 	C 	0.4433	0.4782	0.57682	0.051
Mof_C 	C 	0.4495	0.6658	0.62453	-0.088
Mof_H 	H 	0.5806	0.6025	0.5225	0.068
Mof_H 	H 	0.5513	0.615	0.5513	0.068
Mof_C 	C 	0.5525	0.5366	0.5415	0.047
Mof_H 	H 	0.6413	0.5863	0.3758	0.086
Mof_H 	H 	0.6645	0.6486	0.3713	0.085
Mof_C 	C 	0.6814	0.5962	0.3357	0.095
Mof_H 	H 	0.4342	0.5887	0.5838	0.074
Mof_C 	C 	0.4225	0.5008	0.55152	-0.134
Mof_C 	C 	0.4485	0.4208	0.57816	-0.124
Mof_C 	C 	0.4324	0.6935	0.64862	0.054
Mof_C 	C 	0.4575	0.6974	0.59957	0.052
Mof_H 	H 	0.555	0.5226	0.5613	0.013
Mof_H 	H 	0.5129	0.5478	0.539	0.001
Mof_C 	C 	0.5566	0.4816	0.5233	-0.437
Mof_H 	H 	0.6829	0.6261	0.3211	-0.002
Mof_H 	H 	0.6633	0.5631	0.3271	-0.004
Mof_C 	C 	0.7429	0.5805	0.345	-0.469
Mof_H 	H 	0.4202	0.5402	0.5491	0.064
Mof_C 	C 	0.405	0.4651	0.52991	0.074
Mof_C 	C 	0.4291	0.3887	0.55514	0.067
Mof_H 	H 	0.4649	0.4034	0.5943	0.08
Mof_H 	H 	0.4275	0.6729	0.6658	0.012
Mof_C 	C 	0.4219	0.7516	0.64889	-0.199
Mof_C 	C 	0.4481	0.7549	0.59918	-0.197
Mof_H 	H 	0.4695	0.6792	0.5826	0.004
Mof_H 	H 	0.5278	0.4551	0.5297	0.151
Mof_H 	H 	0.5509	0.4904	0.5031	0.146
Mof_H 	H 	0.5937	0.4648	0.5259	0.147
Mof_H 	H 	0.7506	0.5961	0.3639	0.159
Mof_H 	H 	0.7696	0.596	0.3312	0.164
Mof_H 	H 	0.7468	0.5397	0.3456	0.166
Mof_H 	H 	0.3923	0.4813	0.5125	-0.021
Mof_H 	H 	0.4334	0.3492	0.556	-0.013
Mof_H 	H 	0.4092	0.7695	0.6658	0.1
Mof_C 	C 	0.4304	0.7823	0.62377	0.231
Mof_H 	H 	0.4537	0.7754	0.5821	0.104
Mof_O 	O 	0.4218	0.8381	0.62083	-0.265
Mof_C 	C 	0.4021	0.8665	0.6446	0.119
Mof_H 	H 	0.4308	0.8664	0.6598	-0.004
Mof_H 	H 	0.3679	0.8481	0.652	-0
Mof_C 	C 	0.3887	0.927	0.6357	-0.192
Mof_H 	H 	0.4219	0.9437	0.6264	0.098
Mof_H 	H 	0.3576	0.9269	0.6217	0.091
Mof_C 	C 	0.3723	0.9622	0.6616	-0.044
Mof_H 	H 	0.3428	0.9418	0.6721	0.037
Mof_H 	H 	0.4053	0.9648	0.6743	0.041
Mof_C 	C 	0.3523	0.0187	0.6562	-0.08
Mof_H 	H 	0.3466	0.0364	0.6751	0.046
Mof_H 	H 	0.3148	0.015	0.6474	0.052
Mof_C 	C 	0.3849	0.0599	0.6382	-0.15
Mof_H 	H 	0.4206	0.0683	0.648	0.073
Mof_H 	H 	0.3942	0.0417	0.6198	0.075
Mof_C 	C 	0.3569	0.1111	0.6324	0.017
Mof_H 	H 	0.3404	0.1234	0.6508	0.018
Mof_H 	H 	0.3252	0.1016	0.6198	0.025
Mof_C 	C 	0.3844	0.1625	0.6195	-0.239
Mof_H 	H 	0.3602	0.1954	0.6231	0.094
Mof_H 	H 	0.4206	0.1691	0.6293	0.092
Mof_C 	C 	0.3949	0.1579	0.5879	0.152
Mof_H 	H 	0.3597	0.1502	0.5775	-0.02
Mof_H 	H 	0.4221	0.1277	0.5838	-0.019
Mof_C 	C 	0.4191	0.2158	0.5795	-0.512
Mof_H 	H 	0.389	0.2437	0.5795	0.174
Mof_H 	H 	0.4356	0.2135	0.5604	0.172
Mof_H 	H 	0.4479	0.2268	0.5933	0.174
Mof_N 	N 	0.1816	0.8155	0.78271	-0.241
Mof_N 	N 	0.2	0.923	0.75156	-0.292
Mof_N 	N 	0.089	0.905	0.78211	-0.243
Mof_C 	C 	0.2366	0.8073	0.78135	0.062
Mof_C 	C 	0.1553	0.7963	0.80613	0.071
Mof_C 	C 	0.2208	0.959	0.7456	0.142
Mof_C 	C 	0.2669	0.7803	0.80271	-0.124
Mof_H 	H 	0.2562	0.8205	0.765	-0.008
Mof_H 	H 	0.1161	0.8024	0.8076	-0.006
Mof_C 	C 	0.1808	0.7687	0.82771	-0.126
Mof_S 	S 	0.2513	0.0171	0.7356	-0.116
Mof_C 	C 	0.2398	0.7607	0.8268	0.042
Mof_H 	H 	0.3062	0.7753	0.8007	0.067
Mof_H 	H 	0.1596	0.7549	0.8433	0.084
Mof_C 	C 	0.2703	0.7357	0.85134	0.076
Mof_N 	N 	0.2392	0.7248	0.87487	-0.135
Mof_C 	C 	0.3274	0.7257	0.84998	-0.148
Mof_C 	C 	0.2657	0.704	0.89786	0.079
Mof_C 	C 	0.3549	0.704	0.87392	0.101
Mof_H 	H 	0.3476	0.7335	0.833	0.077
Mof_C 	C 	0.3225	0.6935	0.89816	-0.147
Mof_C 	C 	0.2303	0.6913	0.92333	0.048
Mof_C 	C 	0.4159	0.6936	0.87411	-0.085
Mof_H 	H 	0.3397	0.6792	0.9149	0.074
Mof_C 	C 	0.172	0.6935	0.92235	-0.117
Mof_C 	C 	0.2541	0.6749	0.94871	-0.124
Mof_C 	C 	0.4472	0.703	0.89898	0.054
Mof_C 	C 	0.4435	0.6746	0.85022	0.056
Mof_H 	H 	0.1535	0.7063	0.9056	0.078
Mof_C 	C 	0.1415	0.6771	0.94565	0.07
Mof_C 	C 	0.2207	0.6589	0.97121	0.061
Mof_H 	H 	0.2937	0.6746	0.9507	0.058
Mof_H 	H 	0.4288	0.7166	0.9156	0.005
Mof_C 	C 	0.5039	0.693	0.89977	-0.194
Mof_C 	C 	0.5011	0.6632	0.85039	-0.192
Mof_H 	H 	0.4229	0.669	0.8331	0.011
Mof_N 	N 	0.1645	0.6591	0.97022	-0.238
Mof_H 	H 	0.1018	0.6785	0.9444	-0.006
Mof_H 	H 	0.2383	0.647	0.9883	-0.013
Mof_H 	H 	0.5243	0.6996	0.9168	0.103
Mof_C 	C 	0.5314	0.6731	0.87547	0.229
Mof_H 	H 	0.5192	0.6491	0.8338	0.097
Mof_Co	Co	0.12014	0.61819	0.00462	1.121
Mof_O 	O 	0.58727	0.6632	0.87833	-0.261
Mof_N 	N 	0.17124	0.66419	0.03508	-0.238
Mof_N 	N 	0.1823	0.5557	0.00408	-0.255
Mof_N 	N 	0.0706	0.5715	0.97393	-0.236
Mof_N 	N 	0.0591	0.6791	0.00752	-0.266
Mof_N 	N 	0.0798	0.5726	0.039	-0.238
Mof_C 	C 	0.6151	0.6372	0.85508	0.116
Mof_C 	C 	0.1788	0.7189	0.03234	0.062
Mof_C 	C 	0.1935	0.6393	0.05815	0.061
Mof_C 	C 	0.2157	0.5272	0.0148	0.087
Mof_C 	C 	0.0964	0.545	0.95212	0.061
Mof_C 	C 	0.0151	0.5697	0.97565	0.067
Mof_C 	C 	0.0275	0.713	0.01473	0.094
Mof_H 	H 	0.6158	0.6627	0.8384	-0.003
Mof_H 	H 	0.5952	0.6025	0.8495	0.002
Mof_C 	C 	0.6741	0.6236	0.8643	-0.204
Mof_C 	C 	0.2091	0.751	0.0517	-0.125
Mof_H 	H 	0.1626	0.7371	0.0163	-0.01
Mof_H 	H 	0.1892	0.6	0.0602	-0.006
Mof_C 	C 	0.2226	0.6684	0.07933	-0.12
Mof_S 	S 	0.259	0.4837	0.02987	-0.082
Mof_C 	C 	0.0663	0.5173	0.93117	-0.114
Mof_H 	H 	0.1361	0.5454	0.9511	-0.004
Mof_H 	H 	0.9973	0.5875	0.9913	-0.008
Mof_C 	C 	0.9821	0.5429	0.95561	-0.12
Mof_S 	S 	0.98399	0.76203	0.02485	-0.076
Mof_H 	H 	0.6965	0.6585	0.8643	0.092
Mof_H 	H 	0.6732	0.6095	0.8842	0.091
Mof_C 	C 	0.7028	0.581	0.8458	-0.012
Mof_C 	C 	0.2305	0.7259	0.07616	0.041
Mof_H 	H 	0.2151	0.7897	0.0482	0.066
Mof_H 	H 	0.2367	0.6494	0.0956	0.08
Mof_C 	C 	0.0077	0.5159	0.93262	0.04
Mof_H 	H 	0.0852	0.4993	0.9159	0.078
Mof_H 	H 	0.9425	0.5428	0.9575	0.064
Mof_H 	H 	0.7401	0.5733	0.8541	0.02
Mof_H 	H 	0.6811	0.5458	0.8468	0.027
Mof_C 	C 	0.7105	0.5956	0.8153	-0.119
Mof_C 	C 	0.2573	0.7587	0.09963	0.079
Mof_C 	C 	0.9746	0.4884	0.90955	0.08
Mof_H 	H 	0.6745	0.6077	0.8068	0.061
Mof_H 	H 	0.7246	0.563	0.8045	0.057
Mof_C 	C 	0.7521	0.6423	0.8146	-0.091
Mof_N 	N 	0.2704	0.7303	0.1234	-0.138
Mof_C 	C 	0.2672	0.8162	0.09655	-0.154
Mof_N 	N 	0.0031	0.47915	0.88527	-0.138
Mof_C 	C 	0.9182	0.477	0.91252	-0.15
Mof_H 	H 	0.7344	0.678	0.8205	0.055
Mof_H 	H 	0.7838	0.6343	0.8276	0.049
Mof_C 	C 	0.7717	0.6458	0.7846	-0.045
Mof_C 	C 	0.2927	0.7583	0.1451	0.084
Mof_C 	C 	0.2908	0.8453	0.11945	0.11
Mof_H 	H 	0.2581	0.8349	0.0793	0.078
Mof_C 	C 	0.9748	0.4574	0.86314	0.084
Mof_H 	H 	0.8996	0.4841	0.9301	0.076
Mof_C 	C 	0.8887	0.4549	0.88921	0.104
Mof_H 	H 	0.7402	0.658	0.7724	0.039
Mof_H 	H 	0.7834	0.608	0.7782	0.038
Mof_C 	C 	0.8206	0.6864	0.7809	-0.18
Mof_C 	C 	0.3021	0.8155	0.14412	-0.154
Mof_C 	C 	0.308	0.7237	0.17078	0.048
Mof_C 	C 	0.3028	0.9064	0.11785	-0.099
Mof_C 	C 	0.9182	0.4454	0.86436	-0.152
Mof_C 	C 	0.0076	0.4473	0.83708	0.042
Mof_C 	C 	0.8279	0.4428	0.89034	-0.085
Mof_H 	H 	0.8538	0.6731	0.7915	0.076
Mof_H 	H 	0.8104	0.7242	0.7879	0.078
Mof_C 	C 	0.8323	0.6874	0.7488	0.091
Mof_H 	H 	0.3162	0.8343	0.1605	0.077
Mof_C 	C 	0.3024	0.6674	0.17105	-0.117
Mof_C 	C 	0.33	0.7492	0.1951	-0.124
Mof_C 	C 	0.298	0.9403	0.14157	0.072
Mof_C 	C 	0.3187	0.931	0.09245	0.074
Mof_H 	H 	0.8996	0.4306	0.8481	0.078
Mof_C 	C 	0.9835	0.4309	0.81136	-0.118
Mof_C 	C 	0.0671	0.4508	0.83738	-0.116
Mof_C 	C 	0.8014	0.425	0.91557	0.046
Mof_C 	C 	0.7946	0.4491	0.86597	0.049
Mof_H 	H 	0.7992	0.6758	0.7375	-0.002
Mof_H 	H 	0.8648	0.6637	0.7436	-0.002
Mof_C 	C 	0.845	0.7516	0.7451	-0.452
Mof_H 	H 	0.2858	0.6491	0.1551	0.077
Mof_C 	C 	0.3205	0.6356	0.19431	0.064
Mof_C 	C 	0.3471	0.7157	0.21708	0.065
Mof_H 	H 	0.333	0.7888	0.1963	0.065
Mof_H 	H 	0.2867	0.9245	0.1593	0.002
Mof_C 	C 	0.3095	0.9966	0.14004	-0.212
Mof_C 	C 	0.3306	0.9873	0.09033	-0.208
Mof_H 	H 	0.3214	0.9083	0.0758	0.006
Mof_H 	H 	0.9439	0.4288	0.8097	0.063
Mof_C 	C 	0.0167	0.4177	0.78848	0.063
Mof_C 	C 	0.0966	0.4381	0.81303	0.071
Mof_H 	H 	0.0862	0.4619	0.8542	0.078
Mof_H 	H 	0.8229	0.4202	0.9325	0.01
Mof_C 	C 	0.7433	0.4142	0.9161	-0.197
Mof_C 	C 	0.7375	0.4383	0.8663	-0.196
Mof_H 	H 	0.8116	0.4612	0.8487	0.006
Mof_H 	H 	0.8541	0.7595	0.7251	0.153
Mof_H 	H 	0.8128	0.7736	0.751	0.156
Mof_H 	H 	0.8776	0.7617	0.757	0.154
Mof_N 	N 	0.3435	0.6594	0.21752	-0.238
Mof_H 	H 	0.3165	0.596	0.1937	-0.005
Mof_H 	H 	0.3627	0.7335	0.2334	-0.009
Mof_H 	H 	0.3063	0.019	0.1567	0.11
Mof_C 	C 	0.3254	0.0207	0.11474	0.244
Mof_H 	H 	0.3421	0.0031	0.0727	0.104
Mof_H 	H 	0.999	0.4061	0.7713	-0.008
Mof_H 	H 	0.1361	0.4422	0.8134	-0.013
Mof_H 	H 	0.7257	0.4019	0.9332	0.089
Mof_C 	C 	0.7124	0.4217	0.8916	0.231
Mof_H 	H 	0.7159	0.4422	0.8494	0.103
Mof_O 	O 	0.3351	0.077	0.11489	-0.264
Mof_O 	O 	0.6561	0.4133	0.88963	-0.257
Mof_N 	N 	0.435	0.5704	0.2171	-0.239
Mof_N 	N 	0.3266	0.5497	0.24743	-0.259
Mof_C 	C 	0.3516	0.1029	0.089	0.11
Mof_C 	C 	0.6281	0.3971	0.9147	0.097
Mof_C 	C 	0.456	0.5964	0.19464	0.075
Mof_C 	C 	0.4404	0.514	0.21793	0.058
Mof_C 	C 	0.2972	0.517	0.23714	0.092
Mof_H 	H 	0.322	0.0976	0.0745	-0
Mof_H 	H 	0.3863	0.0852	0.0819	0.002
Mof_C 	C 	0.3615	0.1651	0.0937	-0.194
Mof_H 	H 	0.6323	0.426	0.9297	-0.005
Mof_H 	H 	0.6431	0.3612	0.9219	0.002
Mof_C 	C 	0.5656	0.3906	0.9059	-0.165
Mof_C 	C 	0.4809	0.5699	0.17187	-0.123
Mof_H 	H 	0.4538	0.6361	0.1942	-0.011
Mof_H 	H 	0.4257	0.4944	0.2339	-0.006
Mof_C 	C 	0.4663	0.4838	0.19661	-0.116
Mof_S 	S 	0.2571	0.47148	0.22057	-0.077
Mof_H 	H 	0.3898	0.1697	0.1089	0.086
Mof_H 	H 	0.3262	0.1823	0.1005	0.093
Mof_C 	C 	0.3813	0.1967	0.0671	-0.032
Mof_H 	H 	0.5546	0.4226	0.8937	0.092
Mof_H 	H 	0.5419	0.3914	0.9233	0.071
Mof_C 	C 	0.5556	0.3348	0.8896	-0.054
Mof_C 	C 	0.4866	0.5112	0.17226	0.039
Mof_H 	H 	0.494	0.5909	0.156	0.079
Mof_H 	H 	0.4703	0.4443	0.1984	0.063
Mof_H 	H 	0.4169	0.1806	0.0601	0.034
Mof_H 	H 	0.353	0.1935	0.0518	0.035
Mof_C 	C 	0.3895	0.2571	0.075	-0.114
Mof_H 	H 	0.5427	0.3059	0.9032	0.044
Mof_H 	H 	0.5915	0.3219	0.8812	0.053
Mof_C 	C 	0.5108	0.3415	0.865	-0.092
Mof_C 	C 	0.5107	0.4806	0.14744	0.082
Mof_H 	H 	0.4245	0.2616	0.0861	0.053
Mof_H 	H 	0.3578	0.2705	0.0868	0.055
Mof_C 	C 	0.3929	0.291	0.0469	-0.092
Mof_H 	H 	0.5241	0.3702	0.8513	0.06
Mof_H 	H 	0.5078	0.3056	0.8545	0.057
Mof_C 	C 	0.4531	0.3581	0.8758	-0.12
Mof_N 	N 	0.5222	0.5113	0.12452	-0.137
Mof_C 	C 	0.5195	0.4229	0.14842	-0.152
Mof_H 	H 	0.3689	0.2722	0.0326	0.05
Mof_H 	H 	0.4319	0.2889	0.0399	0.05
Mof_C 	C 	0.3756	0.3544	0.0482	-0.079
Mof_H 	H 	0.4398	0.3293	0.8894	0.063
Mof_H 	H 	0.4562	0.3939	0.8864	0.065
Mof_C 	C 	0.411	0.3646	0.8527	-0.014
Mof_C 	C 	0.5429	0.485	0.10141	0.08
Mof_H 	H 	0.5118	0.4027	0.1654	0.078
Mof_C 	C 	0.5394	0.395	0.1245	0.103
Mof_H 	H 	0.3448	0.359	0.0343	0.047
Mof_H 	H 	0.3589	0.3603	0.0673	0.049
Mof_C 	C 	0.4159	0.4047	0.0432	-0.155
Mof_H 	H 	0.4255	0.3921	0.8387	0.033
Mof_H 	H 	0.4072	0.3283	0.8427	0.032
Mof_C 	C 	0.3549	0.3829	0.8618	-0.203
Mof_C 	C 	0.5515	0.4282	0.10067	-0.147
Mof_C 	C 	0.5567	0.5218	0.07682	0.051
Mof_C 	C 	0.5505	0.3342	0.12453	-0.088
Mof_H 	H 	0.4194	0.3975	0.0225	0.067
Mof_H 	H 	0.4487	0.385	0.0513	0.067
Mof_C 	C 	0.4475	0.4634	0.0415	0.046
Mof_H 	H 	0.3587	0.4137	0.8758	0.086
Mof_H 	H 	0.3355	0.3514	0.8713	0.085
Mof_C 	C 	0.3186	0.4038	0.8357	0.095
Mof_H 	H 	0.5658	0.4113	0.0838	0.074
Mof_C 	C 	0.5775	0.4992	0.05152	-0.134
Mof_C 	C 	0.5515	0.5792	0.07816	-0.124
Mof_C 	C 	0.5676	0.3065	0.14862	0.054
Mof_C 	C 	0.5425	0.3026	0.09957	0.052
Mof_H 	H 	0.445	0.4774	0.0613	0.014
Mof_H 	H 	0.4871	0.4522	0.039	0.001
Mof_C 	C 	0.4434	0.5184	0.0233	-0.436
Mof_H 	H 	0.3171	0.3739	0.8211	-0.002
Mof_H 	H 	0.3367	0.4369	0.8271	-0.004
Mof_C 	C 	0.2571	0.4195	0.845	-0.469
Mof_H 	H 	0.5798	0.4598	0.0491	0.063
Mof_C 	C 	0.595	0.5349	0.02991	0.074
Mof_C 	C 	0.5709	0.6113	0.05514	0.067
Mof_H 	H 	0.5351	0.5966	0.0943	0.08
Mof_H 	H 	0.5725	0.3271	0.1658	0.012
Mof_C 	C 	0.5781	0.2484	0.14889	-0.199
Mof_C 	C 	0.5519	0.2451	0.09918	-0.197
Mof_H 	H 	0.5305	0.3208	0.0826	0.004
Mof_H 	H 	0.4722	0.5449	0.0297	0.151
Mof_H 	H 	0.4491	0.5096	0.0031	0.145
Mof_H 	H 	0.4063	0.5352	0.0259	0.146
Mof_H 	H 	0.2494	0.4039	0.8639	0.159
Mof_H 	H 	0.2304	0.404	0.8312	0.164
Mof_H 	H 	0.2532	0.4603	0.8456	0.166
Mof_H 	H 	0.6077	0.5187	0.0125	-0.021
Mof_H 	H 	0.5666	0.6508	0.056	-0.013
Mof_H 	H 	0.5908	0.2305	0.1658	0.1
Mof_C 	C 	0.5696	0.2177	0.12377	0.231
Mof_H 	H 	0.5463	0.2246	0.0821	0.104
Mof_O 	O 	0.5782	0.1619	0.12083	-0.265
Mof_C 	C 	0.5979	0.1335	0.1446	0.119
Mof_H 	H 	0.5692	0.1336	0.1598	-0.004
Mof_H 	H 	0.6321	0.1519	0.152	-0
Mof_C 	C 	0.6113	0.073	0.1357	-0.191
Mof_H 	H 	0.5781	0.0563	0.1264	0.098
Mof_H 	H 	0.6424	0.0731	0.1217	0.091
Mof_C 	C 	0.6277	0.0378	0.1616	-0.044
Mof_H 	H 	0.6572	0.0582	0.1721	0.037
Mof_H 	H 	0.5947	0.0352	0.1743	0.041
Mof_C 	C 	0.6477	0.9813	0.1562	-0.08
Mof_H 	H 	0.6534	0.9636	0.1751	0.046
Mof_H 	H 	0.6852	0.985	0.1474	0.052
Mof_C 	C 	0.6151	0.9401	0.1382	-0.15
Mof_H 	H 	0.5794	0.9317	0.148	0.073
Mof_H 	H 	0.6058	0.9583	0.1198	0.075
Mof_C 	C 	0.6431	0.8889	0.1324	0.017
Mof_H 	H 	0.6596	0.8766	0.1508	0.018
Mof_H 	H 	0.6748	0.8984	0.1198	0.025
Mof_C 	C 	0.6156	0.8375	0.1195	-0.239
Mof_H 	H 	0.6398	0.8046	0.1231	0.094
Mof_H 	H 	0.5794	0.8309	0.1293	0.092
Mof_C 	C 	0.6051	0.8421	0.0879	0.151
Mof_H 	H 	0.6403	0.8498	0.0775	-0.02
Mof_H 	H 	0.5779	0.8723	0.0838	-0.019
Mof_C 	C 	0.5809	0.7842	0.0795	-0.512
Mof_H 	H 	0.611	0.7563	0.0795	0.174
Mof_H 	H 	0.5644	0.7865	0.0604	0.172
Mof_H 	H 	0.5521	0.7732	0.0933	0.173
Mof_Co	Co	0.13831	0.86169	0.75	1.124
Mof_Co	Co	0.86169	0.13831	0.25	1.124
Mof_Co	Co	0.63831	0.63831	-0	1.124
Mof_Co	Co	0.36169	0.36169	0.5	1.124
Mof_Co	Co	0.3874	0.6126	0.25	1.122
Mof_Co	Co	0.6126	0.3874	0.75	1.122
Mof_Co	Co	0.8874	0.8874	0.5	1.122
Mof_Co	Co	0.1126	0.1126	-0	1.122
_end
