data_functionalizedCrystal
_audit_creation_method	'EQeq! by Chris Wilmer'
_symmetry_space_group_name_H-M	'P1'
_symmetry_Int_Tables_number	1
_symmetry_cell_setting	triclinic
loop_
_symmetry_equiv_pos_as_xyz
  x,y,z
_cell_length_a	15.814
_cell_length_b	15.9037
_cell_length_c	18.4974
_cell_angle_alpha	90
_cell_angle_beta	90
_cell_angle_gamma	90
loop_
_atom_site_label
_atom_site_type_symbol
_atom_site_fract_x
_atom_site_fract_y
_atom_site_fract_z
_atom_site_charge
Mof_C 	C 	0.8706	0.9773	0.549	0.083
Mof_H 	H 	0.8381	0.9886	0.5897	0.003
Mof_C 	C 	0.9363	0.9197	0.5556	-0.131
Mof_H 	H 	0.9484	0.8951	0.6001	0.069
Mof_C 	C 	0.9844	0.899	0.494	0.059
Mof_C 	C 	0.9649	0.941	0.4311	-0.14
Mof_H 	H 	0.9962	0.931	0.3894	0.075
Mof_C 	C 	0.8986	0.9981	0.4297	0.092
Mof_H 	H 	0.8859	0.0246	0.3862	-0.005
Mof_C 	C 	0.0501	0.8317	0.4991	0.053
Mof_C 	C 	0.1123	0.8216	0.4476	-0.134
Mof_H 	H 	0.1152	0.8588	0.4088	0.075
Mof_C 	C 	0.1093	0.7113	0.5583	0.075
Mof_H 	H 	0.1075	0.6731	0.5964	-0
Mof_C 	C 	0.1703	0.757	0.4528	0.077
Mof_H 	H 	0.2116	0.7515	0.4173	0.001
Mof_C 	C 	0.0507	0.7751	0.5567	-0.135
Mof_H 	H 	0.0116	0.7805	0.5939	0.069
Mof_C 	C 	0.6359	0.9698	0.5569	0.053
Mof_H 	H 	0.6531	0.995	0.5999	0.015
Mof_C 	C 	0.5768	0.9058	0.5598	-0.119
Mof_H 	H 	0.5559	0.8881	0.6042	0.066
Mof_C 	C 	0.5485	0.8678	0.4967	0.047
Mof_C 	C 	0.5857	0.894	0.4327	-0.127
Mof_H 	H 	0.5708	0.8688	0.3892	0.069
Mof_C 	C 	0.6453	0.9579	0.434	0.078
Mof_H 	H 	0.6696	0.9738	0.3903	0.003
Mof_C 	C 	0.4805	0.8029	0.4985	0.062
Mof_C 	C 	0.4228	0.8008	0.5546	-0.137
Mof_H 	H 	0.427	0.8398	0.5919	0.07
Mof_C 	C 	0.3591	0.7417	0.5559	0.079
Mof_H 	H 	0.3204	0.7426	0.5937	-0.001
Mof_C 	C 	0.4074	0.6837	0.4506	0.077
Mof_H 	H 	0.4034	0.6428	0.4148	0
Mof_C 	C 	0.4717	0.7431	0.4457	-0.139
Mof_H 	H 	0.5086	0.7423	0.4065	0.073
Mof_Cu	Cu	0.75001	0.09919	0.4902	0.894
Mof_N 	N 	0.8518	0.0168	0.4883	-0.223
Mof_N 	N 	0.3512	0.6828	0.5043	-0.212
Mof_N 	N 	0.67	0.9976	0.4929	-0.211
Mof_N 	N 	0.1685	0.7018	0.5079	-0.212
Mof_C 	C 	0.1294	0.4773	0.451	0.069
Mof_H 	H 	0.1619	0.4886	0.4103	0.004
Mof_C 	C 	0.0637	0.4197	0.4444	-0.123
Mof_H 	H 	0.0516	0.3951	0.3999	0.064
Mof_C 	C 	0.0156	0.399	0.506	0.047
Mof_C 	C 	0.0351	0.441	0.5689	-0.126
Mof_H 	H 	0.0038	0.431	0.6106	0.068
Mof_C 	C 	0.1014	0.4981	0.5703	0.067
Mof_H 	H 	0.1141	0.5246	0.6138	0.008
Mof_C 	C 	0.9499	0.3317	0.5009	0.058
Mof_C 	C 	0.8877	0.3216	0.5524	-0.137
Mof_H 	H 	0.8848	0.3588	0.5912	0.075
Mof_C 	C 	0.8907	0.2113	0.4417	0.076
Mof_H 	H 	0.8925	0.1731	0.4036	-0.001
Mof_C 	C 	0.8297	0.257	0.5472	0.078
Mof_H 	H 	0.7884	0.2515	0.5827	0
Mof_C 	C 	0.9493	0.2751	0.4433	-0.139
Mof_H 	H 	0.9884	0.2805	0.4061	0.07
Mof_C 	C 	0.3641	0.4698	0.4431	0.052
Mof_H 	H 	0.3469	0.495	0.4001	0.013
Mof_C 	C 	0.4232	0.4058	0.4402	-0.12
Mof_H 	H 	0.4441	0.3881	0.3958	0.066
Mof_C 	C 	0.4515	0.3678	0.5033	0.047
Mof_C 	C 	0.4143	0.394	0.5673	-0.128
Mof_H 	H 	0.4292	0.3688	0.6108	0.069
Mof_C 	C 	0.3547	0.4579	0.566	0.077
Mof_H 	H 	0.3304	0.4738	0.6097	0.001
Mof_C 	C 	0.5195	0.3029	0.5015	0.062
Mof_C 	C 	0.5772	0.3008	0.4454	-0.137
Mof_H 	H 	0.573	0.3398	0.4081	0.069
Mof_C 	C 	0.6409	0.2417	0.4441	0.078
Mof_H 	H 	0.6796	0.2426	0.4063	-0.001
Mof_C 	C 	0.5926	0.1837	0.5494	0.077
Mof_H 	H 	0.5966	0.1428	0.5852	-0.001
Mof_C 	C 	0.5283	0.2431	0.5543	-0.139
Mof_H 	H 	0.4914	0.2423	0.5935	0.073
Mof_Cu	Cu	0.24999	0.59919	0.5098	0.895
Mof_N 	N 	0.1482	0.5168	0.5117	-0.211
Mof_N 	N 	0.6488	0.1828	0.4957	-0.212
Mof_N 	N 	0.33	0.4976	0.5071	-0.213
Mof_N 	N 	0.8315	0.2018	0.4921	-0.213
Mof_C 	C 	0.6294	0.9773	0.049	0.082
Mof_H 	H 	0.6619	0.9886	0.0897	0.002
Mof_C 	C 	0.5637	0.9197	0.0556	-0.133
Mof_H 	H 	0.5516	0.8951	0.1001	0.068
Mof_C 	C 	0.5156	0.899	0.994	0.057
Mof_C 	C 	0.5351	0.941	0.9311	-0.141
Mof_H 	H 	0.5038	0.931	0.8894	0.074
Mof_C 	C 	0.6014	0.9981	0.9297	0.094
Mof_H 	H 	0.6141	0.0246	0.8862	-0.006
Mof_C 	C 	0.4499	0.8317	0.9991	0.056
Mof_C 	C 	0.3877	0.8216	0.9476	-0.136
Mof_H 	H 	0.3848	0.8588	0.9088	0.076
Mof_C 	C 	0.3907	0.7113	0.0583	0.076
Mof_H 	H 	0.3925	0.6731	0.0964	-0.001
Mof_C 	C 	0.3297	0.757	0.9528	0.079
Mof_H 	H 	0.2884	0.7515	0.9173	0
Mof_C 	C 	0.4493	0.7751	0.0567	-0.138
Mof_H 	H 	0.4884	0.7805	0.0939	0.069
Mof_C 	C 	0.8641	0.9698	0.0569	0.051
Mof_H 	H 	0.8469	0.995	0.0999	0.015
Mof_C 	C 	0.9232	0.9058	0.0598	-0.116
Mof_H 	H 	0.9441	0.8881	0.1042	0.066
Mof_C 	C 	0.9515	0.8678	0.9967	0.042
Mof_C 	C 	0.9143	0.894	0.9327	-0.125
Mof_H 	H 	0.9292	0.8688	0.8892	0.068
Mof_C 	C 	0.8547	0.9579	0.934	0.077
Mof_H 	H 	0.8304	0.9738	0.8903	0.004
Mof_C 	C 	0.0195	0.8029	0.9985	0.068
Mof_C 	C 	0.0772	0.8008	0.0546	-0.143
Mof_H 	H 	0.073	0.8398	0.0919	0.071
Mof_C 	C 	0.1409	0.7417	0.0559	0.081
Mof_H 	H 	0.1796	0.7426	0.0937	-0.002
Mof_C 	C 	0.0926	0.6837	0.9506	0.08
Mof_H 	H 	0.0966	0.6428	0.9148	-0
Mof_C 	C 	0.0283	0.7431	0.9457	-0.141
Mof_H 	H 	0.9914	0.7423	0.9065	0.074
Mof_Cu	Cu	0.74999	0.09919	0.9902	0.893
Mof_N 	N 	0.6482	0.0168	0.9883	-0.223
Mof_N 	N 	0.1488	0.6828	0.0043	-0.213
Mof_N 	N 	0.83	0.9976	0.9929	-0.211
Mof_N 	N 	0.3315	0.7018	0.0079	-0.213
Mof_C 	C 	0.3706	0.4773	0.951	0.07
Mof_H 	H 	0.3381	0.4886	0.9103	0.004
Mof_C 	C 	0.4363	0.4197	0.9444	-0.123
Mof_H 	H 	0.4484	0.3951	0.8999	0.063
Mof_C 	C 	0.4844	0.399	0.006	0.046
Mof_C 	C 	0.4649	0.441	0.0689	-0.125
Mof_H 	H 	0.4962	0.431	0.1106	0.067
Mof_C 	C 	0.3986	0.4981	0.0703	0.066
Mof_H 	H 	0.3859	0.5246	0.1138	0.008
Mof_C 	C 	0.5501	0.3317	0.0009	0.061
Mof_C 	C 	0.6123	0.3216	0.0524	-0.139
Mof_H 	H 	0.6152	0.3588	0.0912	0.076
Mof_C 	C 	0.6093	0.2113	0.9417	0.078
Mof_H 	H 	0.6075	0.1731	0.9036	-0.002
Mof_C 	C 	0.6703	0.257	0.0472	0.081
Mof_H 	H 	0.7116	0.2515	0.0827	-0
Mof_C 	C 	0.5507	0.2751	0.9433	-0.141
Mof_H 	H 	0.5116	0.2805	0.9061	0.07
Mof_C 	C 	0.1359	0.4698	0.9431	0.051
Mof_H 	H 	0.1531	0.495	0.9001	0.013
Mof_C 	C 	0.0768	0.4058	0.9402	-0.116
Mof_H 	H 	0.0559	0.3881	0.8958	0.065
Mof_C 	C 	0.0485	0.3678	0.0033	0.041
Mof_C 	C 	0.0857	0.394	0.0673	-0.125
Mof_H 	H 	0.0708	0.3688	0.1108	0.068
Mof_C 	C 	0.1453	0.4579	0.066	0.076
Mof_H 	H 	0.1696	0.4738	0.1097	0.002
Mof_C 	C 	0.9805	0.3029	0.0015	0.069
Mof_C 	C 	0.9228	0.3008	0.9454	-0.144
Mof_H 	H 	0.927	0.3398	0.9081	0.071
Mof_C 	C 	0.8591	0.2417	0.9441	0.081
Mof_H 	H 	0.8204	0.2426	0.9063	-0.002
Mof_C 	C 	0.9074	0.1837	0.0494	0.081
Mof_H 	H 	0.9034	0.1428	0.0852	-0.002
Mof_C 	C 	0.9717	0.2431	0.0543	-0.142
Mof_H 	H 	0.0086	0.2423	0.0935	0.074
Mof_Cu	Cu	0.25001	0.59919	0.0098	0.895
Mof_N 	N 	0.3518	0.5168	0.0117	-0.212
Mof_N 	N 	0.8512	0.1828	0.9957	-0.214
Mof_N 	N 	0.17	0.4976	0.0071	-0.213
Mof_N 	N 	0.6685	0.2018	0.9921	-0.214
Mof_C 	C 	0.7115	0.1165	0.1718	0.366
Mof_C 	C 	0.7098	0.1182	0.3114	0.373
Mof_C 	C 	0.7461	0.1604	0.2427	-0.182
Mof_H 	H 	0.7338	0.2208	0.2423	0.122
Mof_C 	C 	0.8463	0.1439	0.2412	-0.009
Mof_H 	H 	0.869	0.1626	0.1958	0.023
Mof_H 	H 	0.8571	0.0848	0.2469	0.007
Mof_H 	H 	0.8727	0.1743	0.2799	-0.021
Mof_C 	C 	0.3994	0.0363	0.1672	0.074
Mof_H 	H 	0.3913	0.0122	0.2124	-0.014
Mof_C 	C 	0.3494	0.01	0.1106	-0.145
Mof_H 	H 	0.3094	0.9678	0.1176	0.079
Mof_C 	C 	0.3593	0.0471	0.0428	0.067
Mof_C 	C 	0.4191	0.1091	0.036	-0.137
Mof_H 	H 	0.4265	0.1367	0.9921	0.078
Mof_C 	C 	0.4685	0.1303	0.0957	0.091
Mof_H 	H 	0.5099	0.1712	0.0898	-0.002
Mof_C 	C 	0.3076	0.0172	0.9796	0.044
Mof_C 	C 	0.2363	0.9667	0.9876	-0.12
Mof_H 	H 	0.2185	0.9516	0.0338	0.067
Mof_C 	C 	0.1932	0.9396	0.9305	0.075
Mof_H 	H 	0.1455	0.9068	0.9389	0.011
Mof_C 	C 	0.2799	0.0039	0.8543	0.069
Mof_H 	H 	0.2952	0.0181	0.8073	0.004
Mof_C 	C 	0.3286	0.0345	0.9096	-0.132
Mof_H 	H 	0.3759	0.0671	0.8995	0.07
Mof_C 	C 	0.4699	0.0939	0.3807	0.084
Mof_H 	H 	0.5135	0.0552	0.3862	-0.003
Mof_C 	C 	0.4199	0.1123	0.4412	-0.127
Mof_H 	H 	0.4298	0.0854	0.485	0.074
Mof_C 	C 	0.3552	0.171	0.4351	0.056
Mof_C 	C 	0.3428	0.2054	0.3663	-0.132
Mof_H 	H 	0.2995	0.2439	0.3585	0.072
Mof_C 	C 	0.3955	0.1819	0.3099	0.076
Mof_H 	H 	0.3856	0.2053	0.2646	-0.012
Mof_C 	C 	0.3068	0.1986	0.4983	0.057
Mof_C 	C 	0.3212	0.1665	0.5655	-0.131
Mof_H 	H 	0.3609	0.1241	0.572	0.07
Mof_C 	C 	0.2761	0.1975	0.6244	0.071
Mof_H 	H 	0.2862	0.1735	0.6694	0.006
Mof_C 	C 	0.2061	0.2892	0.5537	0.071
Mof_H 	H 	0.1672	0.3327	0.5486	0.016
Mof_C 	C 	0.245	0.2608	0.4932	-0.128
Mof_H 	H 	0.2305	0.2827	0.4483	0.072
Mof_Cu	Cu	0.54696	0.11334	0.23956	0.891
Mof_N 	N 	0.4599	0.0959	0.1596	-0.23
Mof_N 	N 	0.2134	0.9561	0.8627	-0.135
Mof_N 	N 	0.4588	0.1281	0.3165	-0.234
Mof_N 	N 	0.2196	0.2592	0.6205	-0.134
Mof_O 	O 	0.7582	0.1052	0.11935	-0.365
Mof_O 	O 	0.6319	0.1129	0.1663	-0.434
Mof_O 	O 	0.7562	0.1055	0.36448	-0.369
Mof_O 	O 	0.6307	0.1173	0.31602	-0.432
Mof_C 	C 	0.7568	0.1279	0.2419	-0.039
Mof_C 	C 	0.7998	0.2125	0.2414	-0.244
Mof_H 	H 	0.8021	0.0858	0.2427	0.05
Mof_H 	H 	0.8223	0.2234	0.1941	0.098
Mof_H 	H 	0.845	0.2126	0.2761	0.117
Mof_H 	H 	0.7596	0.2554	0.2537	0.028
Mof_C 	C 	0.2885	0.6165	0.8282	0.366
Mof_C 	C 	0.2902	0.6182	0.6886	0.373
Mof_C 	C 	0.2539	0.6604	0.7573	-0.182
Mof_H 	H 	0.2662	0.7208	0.7577	0.122
Mof_C 	C 	0.1537	0.6439	0.7588	-0.009
Mof_H 	H 	0.131	0.6626	0.8042	0.023
Mof_H 	H 	0.1429	0.5848	0.7531	0.008
Mof_H 	H 	0.1273	0.6743	0.7201	-0.021
Mof_C 	C 	0.6006	0.5363	0.8328	0.065
Mof_H 	H 	0.6087	0.5122	0.7876	-0.01
Mof_C 	C 	0.6506	0.51	0.8894	-0.126
Mof_H 	H 	0.6906	0.4678	0.8824	0.07
Mof_C 	C 	0.6407	0.5471	0.9572	0.053
Mof_C 	C 	0.5809	0.6091	0.964	-0.129
Mof_H 	H 	0.5735	0.6367	0.0079	0.076
Mof_C 	C 	0.5315	0.6303	0.9043	0.087
Mof_H 	H 	0.4901	0.6712	0.9102	-0
Mof_C 	C 	0.6924	0.5172	0.0204	0.067
Mof_C 	C 	0.7637	0.4667	0.0124	-0.143
Mof_H 	H 	0.7815	0.4516	0.9662	0.075
Mof_C 	C 	0.8068	0.4396	0.0695	0.087
Mof_H 	H 	0.8545	0.4068	0.0611	0.006
Mof_C 	C 	0.7201	0.5039	0.1457	0.085
Mof_H 	H 	0.7048	0.5181	0.1927	-0
Mof_C 	C 	0.6714	0.5345	0.0904	-0.148
Mof_H 	H 	0.6241	0.5671	0.1005	0.076
Mof_C 	C 	0.5301	0.5939	0.6193	0.084
Mof_H 	H 	0.4865	0.5552	0.6138	-0.002
Mof_C 	C 	0.5801	0.6123	0.5588	-0.127
Mof_H 	H 	0.5702	0.5854	0.515	0.075
Mof_C 	C 	0.6448	0.671	0.5649	0.056
Mof_C 	C 	0.6572	0.7054	0.6337	-0.132
Mof_H 	H 	0.7005	0.7439	0.6415	0.072
Mof_C 	C 	0.6045	0.6819	0.6901	0.077
Mof_H 	H 	0.6144	0.7053	0.7354	-0.012
Mof_C 	C 	0.6932	0.6986	0.5017	0.057
Mof_C 	C 	0.6788	0.6665	0.4345	-0.131
Mof_H 	H 	0.6391	0.6241	0.428	0.071
Mof_C 	C 	0.7239	0.6975	0.3756	0.071
Mof_H 	H 	0.7138	0.6735	0.3306	0.007
Mof_C 	C 	0.7939	0.7892	0.4463	0.072
Mof_H 	H 	0.8328	0.8327	0.4514	0.016
Mof_C 	C 	0.755	0.7608	0.5068	-0.129
Mof_H 	H 	0.7695	0.7827	0.5517	0.072
Mof_Cu	Cu	0.45304	0.61334	0.76044	0.891
Mof_N 	N 	0.5401	0.5959	0.8404	-0.227
Mof_N 	N 	0.7866	0.4561	0.1373	-0.144
Mof_N 	N 	0.5412	0.6281	0.6835	-0.234
Mof_N 	N 	0.7804	0.7592	0.3795	-0.134
Mof_O 	O 	0.2418	0.6052	0.88065	-0.364
Mof_O 	O 	0.3681	0.6129	0.8337	-0.433
Mof_O 	O 	0.2438	0.6055	0.63552	-0.368
Mof_O 	O 	0.3693	0.6173	0.68398	-0.431
Mof_C 	C 	0.2432	0.6279	0.7581	-0.039
Mof_C 	C 	0.2002	0.7125	0.7586	-0.246
Mof_H 	H 	0.1979	0.5858	0.7573	0.05
Mof_H 	H 	0.1777	0.7234	0.8059	0.099
Mof_H 	H 	0.155	0.7126	0.7239	0.118
Mof_H 	H 	0.2404	0.7554	0.7463	0.029
Mof_C 	C 	0.7885	0.1165	0.6718	0.366
Mof_C 	C 	0.7902	0.1182	0.8114	0.373
Mof_C 	C 	0.7539	0.1604	0.7427	-0.182
Mof_H 	H 	0.7662	0.2208	0.7423	0.122
Mof_C 	C 	0.6537	0.1439	0.7412	-0.009
Mof_H 	H 	0.631	0.1626	0.6958	0.023
Mof_H 	H 	0.6429	0.0848	0.7469	0.007
Mof_H 	H 	0.6273	0.1743	0.7799	-0.021
Mof_C 	C 	0.1006	0.0363	0.6672	0.074
Mof_H 	H 	0.1087	0.0122	0.7124	-0.014
Mof_C 	C 	0.1506	0.01	0.6106	-0.146
Mof_H 	H 	0.1906	0.9678	0.6176	0.08
Mof_C 	C 	0.1407	0.0471	0.5428	0.066
Mof_C 	C 	0.0809	0.1091	0.536	-0.139
Mof_H 	H 	0.0735	0.1367	0.4921	0.079
Mof_C 	C 	0.0315	0.1303	0.5957	0.094
Mof_H 	H 	0.9901	0.1712	0.5898	-0.003
Mof_C 	C 	0.1924	0.0172	0.4796	0.05
Mof_C 	C 	0.2637	0.9667	0.4876	-0.129
Mof_H 	H 	0.2815	0.9516	0.5338	0.072
Mof_C 	C 	0.3068	0.9396	0.4305	0.08
Mof_H 	H 	0.3545	0.9068	0.4389	0.009
Mof_C 	C 	0.2201	0.0039	0.3543	0.073
Mof_H 	H 	0.2048	0.0181	0.3073	0.003
Mof_C 	C 	0.1714	0.0345	0.4096	-0.136
Mof_H 	H 	0.1241	0.0671	0.3995	0.071
Mof_C 	C 	0.0301	0.0939	0.8807	0.089
Mof_H 	H 	0.9865	0.0552	0.8862	-0.007
Mof_C 	C 	0.0801	0.1123	0.9412	-0.13
Mof_H 	H 	0.0702	0.0854	0.985	0.075
Mof_C 	C 	0.1448	0.171	0.9351	0.057
Mof_C 	C 	0.1572	0.2054	0.8663	-0.134
Mof_H 	H 	0.2005	0.2439	0.8585	0.072
Mof_C 	C 	0.1045	0.1819	0.8099	0.077
Mof_H 	H 	0.1144	0.2053	0.7646	-0.012
Mof_C 	C 	0.1932	0.1986	0.9983	0.056
Mof_C 	C 	0.1788	0.1665	0.0655	-0.131
Mof_H 	H 	0.1391	0.1241	0.072	0.07
Mof_C 	C 	0.2239	0.1975	0.1244	0.071
Mof_H 	H 	0.2138	0.1735	0.1694	0.006
Mof_C 	C 	0.2939	0.2892	0.0537	0.071
Mof_H 	H 	0.3328	0.3327	0.0486	0.016
Mof_C 	C 	0.255	0.2608	0.9932	-0.128
Mof_H 	H 	0.2695	0.2827	0.9483	0.071
Mof_Cu	Cu	0.95304	0.11334	0.73956	0.89
Mof_N 	N 	0.0401	0.0959	0.6596	-0.23
Mof_N 	N 	0.2866	0.9561	0.3627	-0.138
Mof_N 	N 	0.0412	0.1281	0.8165	-0.235
Mof_N 	N 	0.2804	0.2592	0.1205	-0.134
Mof_O 	O 	0.7418	0.1052	0.61935	-0.366
Mof_O 	O 	0.8681	0.1129	0.6663	-0.434
Mof_O 	O 	0.7438	0.1055	0.86448	-0.369
Mof_O 	O 	0.8693	0.1173	0.81602	-0.433
Mof_C 	C 	0.7432	0.1279	0.7419	-0.039
Mof_C 	C 	0.7002	0.2125	0.7414	-0.243
Mof_H 	H 	0.6979	0.0858	0.7427	0.05
Mof_H 	H 	0.6777	0.2234	0.6941	0.098
Mof_H 	H 	0.655	0.2126	0.7761	0.117
Mof_H 	H 	0.7404	0.2554	0.7537	0.027
Mof_C 	C 	0.2115	0.6165	0.3282	0.366
Mof_C 	C 	0.2098	0.6182	0.1886	0.374
Mof_C 	C 	0.2461	0.6604	0.2573	-0.182
Mof_H 	H 	0.2338	0.7208	0.2577	0.122
Mof_C 	C 	0.3463	0.6439	0.2588	-0.008
Mof_H 	H 	0.369	0.6626	0.3042	0.023
Mof_H 	H 	0.3571	0.5848	0.2531	0.008
Mof_H 	H 	0.3727	0.6743	0.2201	-0.021
Mof_C 	C 	0.8994	0.5363	0.3328	0.065
Mof_H 	H 	0.8913	0.5122	0.2876	-0.009
Mof_C 	C 	0.8494	0.51	0.3894	-0.126
Mof_H 	H 	0.8094	0.4678	0.3824	0.07
Mof_C 	C 	0.8593	0.5471	0.4572	0.054
Mof_C 	C 	0.9191	0.6091	0.464	-0.13
Mof_H 	H 	0.9265	0.6367	0.5079	0.076
Mof_C 	C 	0.9685	0.6303	0.4043	0.089
Mof_H 	H 	0.0099	0.6712	0.4102	-0.001
Mof_C 	C 	0.8076	0.5172	0.5204	0.067
Mof_C 	C 	0.7363	0.4667	0.5124	-0.147
Mof_H 	H 	0.7185	0.4516	0.4662	0.077
Mof_C 	C 	0.6932	0.4396	0.5695	0.088
Mof_H 	H 	0.6455	0.4068	0.5611	0.005
Mof_C 	C 	0.7799	0.5039	0.6457	0.086
Mof_H 	H 	0.7952	0.5181	0.6927	-0
Mof_C 	C 	0.8286	0.5345	0.5904	-0.149
Mof_H 	H 	0.8759	0.5671	0.6005	0.077
Mof_C 	C 	0.9699	0.5939	0.1193	0.087
Mof_H 	H 	0.0135	0.5552	0.1138	-0.004
Mof_C 	C 	0.9199	0.6123	0.0588	-0.128
Mof_H 	H 	0.9298	0.5854	0.015	0.076
Mof_C 	C 	0.8552	0.671	0.0649	0.057
Mof_C 	C 	0.8428	0.7054	0.1337	-0.133
Mof_H 	H 	0.7995	0.7439	0.1415	0.072
Mof_C 	C 	0.8955	0.6819	0.1901	0.077
Mof_H 	H 	0.8856	0.7053	0.2354	-0.012
Mof_C 	C 	0.8068	0.6986	0.0017	0.058
Mof_C 	C 	0.8212	0.6665	0.9345	-0.132
Mof_H 	H 	0.8609	0.6241	0.928	0.07
Mof_C 	C 	0.7761	0.6975	0.8756	0.072
Mof_H 	H 	0.7862	0.6735	0.8306	0.007
Mof_C 	C 	0.7061	0.7892	0.9463	0.071
Mof_H 	H 	0.6672	0.8327	0.9514	0.016
Mof_C 	C 	0.745	0.7608	0.0068	-0.129
Mof_H 	H 	0.7305	0.7827	0.0517	0.072
Mof_Cu	Cu	0.04696	0.61334	0.26044	0.891
Mof_N 	N 	0.9599	0.5959	0.3404	-0.227
Mof_N 	N 	0.7134	0.4561	0.6373	-0.144
Mof_N 	N 	0.9588	0.6281	0.1835	-0.234
Mof_N 	N 	0.7196	0.7592	0.8795	-0.134
Mof_O 	O 	0.2582	0.6052	0.38065	-0.364
Mof_O 	O 	0.1319	0.6129	0.3337	-0.433
Mof_O 	O 	0.2562	0.6055	0.13552	-0.368
Mof_O 	O 	0.1307	0.6173	0.18398	-0.431
Mof_C 	C 	0.2568	0.6279	0.2581	-0.039
Mof_C 	C 	0.2998	0.7125	0.2586	-0.246
Mof_H 	H 	0.3021	0.5858	0.2573	0.05
Mof_H 	H 	0.3223	0.7234	0.3059	0.099
Mof_H 	H 	0.345	0.7126	0.2239	0.118
Mof_H 	H 	0.2596	0.7554	0.2463	0.028
_end
