data_functionalizedCrystal
_audit_creation_method	'EQeq! by Chris Wilmer'
_symmetry_space_group_name_H-M	'P1'
_symmetry_Int_Tables_number	1
_symmetry_cell_setting	triclinic
loop_
_symmetry_equiv_pos_as_xyz
  x,y,z
_cell_length_a	23.6899
_cell_length_b	23.6899
_cell_length_c	13.5483
_cell_angle_alpha	90
_cell_angle_beta	90
_cell_angle_gamma	120
loop_
_atom_site_label
_atom_site_type_symbol
_atom_site_fract_x
_atom_site_fract_y
_atom_site_fract_z
_atom_site_charge
Mof_Zn	Zn	0.36175	0.09274	0.11931	1.243
Mof_Ga	Ga	0.35015	0.24382	0.91702	2.852
Mof_P 	P 	0.41939	0.23676	0.12217	0.681
Mof_P 	P 	0.32662	0.98613	0.27617	0.752
Mof_O 	O 	0.37022	0.21217	0.0376	-0.852
Mof_O 	O 	0.42363	0.17677	0.1581	-0.481
Mof_O 	O 	0.39135	0.25975	0.2075	-0.962
Mof_O 	O 	0.48577	0.29114	0.0943	-0.297
Mof_O 	O 	0.37621	0.04409	0.2132	-0.549
Mof_O 	O 	0.36457	0.9554	0.3234	-0.502
Mof_O 	O 	0.27095	0.93589	0.2155	-0.764
Mof_O 	O 	0.29983	0.00955	0.3594	-0.86
Mof_N 	N 	0.4447	0.2774	0.8679	-0.56
Mof_N 	N 	0.3334	0.1575	0.8527	-0.414
Mof_N 	N 	0.2516	0.1888	0.9441	-0.587
Mof_C 	C 	0.4482	0.2213	0.8286	-0.11
Mof_C 	C 	0.3856	0.1745	0.7793	-0.066
Mof_C 	C 	0.2656	0.123	0.8185	-0.08
Mof_C 	C 	0.2251	0.1214	0.9061	-0.024
Mof_H 	H 	0.4669	0.2913	0.922	0.138
Mof_H 	H 	0.4497	0.3028	0.8225	0.171
Mof_H 	H 	0.3382	0.1307	0.9001	0.105
Mof_H 	H 	0.2367	0.2083	0.9134	0.153
Mof_H 	H 	0.245	0.1919	0.0111	0.129
Mof_H 	H 	0.4559	0.1952	0.8839	0.023
Mof_H 	H 	0.4744	0.2266	0.7883	0.064
Mof_H 	H 	0.3849	0.1321	0.7444	0.046
Mof_H 	H 	0.374	0.1946	0.7258	0.028
Mof_H 	H 	0.2343	0.0716	0.8011	0.036
Mof_H 	H 	0.2695	0.1532	0.7573	0.027
Mof_H 	H 	0.1803	0.1019	0.8663	0.037
Mof_H 	H 	0.2273	0.094	0.9682	0.015
Mof_Ga	Ga	0.30492	0.24059	0.21402	3.376
Mof_Zn	Zn	0.02842	0.42607	0.45264	1.241
Mof_Ga	Ga	0.01682	0.57715	0.25035	2.937
Mof_P 	P 	0.08606	0.57009	0.4555	0.683
Mof_P 	P 	0.99329	0.31946	0.6095	0.706
Mof_O 	O 	0.03689	0.5455	0.37093	-0.882
Mof_O 	O 	0.0903	0.5101	0.49143	-0.484
Mof_O 	O 	0.05802	0.59308	0.54083	-0.947
Mof_O 	O 	0.15244	0.62447	0.42763	-0.312
Mof_O 	O 	0.04288	0.37742	0.54653	-0.526
Mof_O 	O 	0.03124	0.28873	0.65673	-0.489
Mof_O 	O 	0.93762	0.26922	0.54883	-0.756
Mof_O 	O 	0.9665	0.34288	0.69273	-0.841
Mof_N 	N 	0.11137	0.61073	0.20123	-0.57
Mof_N 	N 	7e-05	0.49083	0.18603	-0.413
Mof_N 	N 	0.91827	0.52213	0.27743	-0.569
Mof_C 	C 	0.11487	0.55463	0.16193	-0.108
Mof_C 	C 	0.05227	0.50783	0.11263	-0.072
Mof_C 	C 	0.93227	0.45633	0.15183	-0.091
Mof_C 	C 	0.89177	0.45473	0.23943	-0.026
Mof_H 	H 	0.13357	0.62463	0.25533	0.149
Mof_H 	H 	0.11637	0.63613	0.15583	0.176
Mof_H 	H 	0.00487	0.46403	0.23343	0.116
Mof_H 	H 	0.90337	0.54163	0.24673	0.151
Mof_H 	H 	0.91167	0.52523	0.34443	0.098
Mof_H 	H 	0.12257	0.52853	0.21723	0.029
Mof_H 	H 	0.14107	0.55993	0.12163	0.069
Mof_H 	H 	0.05157	0.46543	0.07773	0.058
Mof_H 	H 	0.04067	0.52793	0.05913	0.042
Mof_H 	H 	0.90097	0.40493	0.13443	0.05
Mof_H 	H 	0.93617	0.48653	0.09063	0.036
Mof_H 	H 	0.84697	0.43523	0.19963	0.047
Mof_H 	H 	0.89397	0.42733	0.30153	0.03
Mof_Ga	Ga	0.97158	0.57393	0.54736	3.328
Mof_Zn	Zn	0.69508	0.75941	0.78598	1.238
Mof_Ga	Ga	0.68348	0.91049	0.58369	2.912
Mof_P 	P 	0.75272	0.90343	0.78884	0.682
Mof_P 	P 	0.65995	0.6528	0.94284	0.707
Mof_O 	O 	0.70355	0.87884	0.70427	-0.882
Mof_O 	O 	0.75696	0.84344	0.82477	-0.49
Mof_O 	O 	0.72468	0.92642	0.87417	-0.956
Mof_O 	O 	0.8191	0.95781	0.76097	-0.309
Mof_O 	O 	0.70954	0.71076	0.87987	-0.541
Mof_O 	O 	0.6979	0.62207	0.99007	-0.52
Mof_O 	O 	0.60428	0.60256	0.88217	-0.759
Mof_O 	O 	0.63316	0.67622	0.02607	-0.827
Mof_N 	N 	0.77803	0.94407	0.53457	-0.569
Mof_N 	N 	0.66673	0.82417	0.51937	-0.419
Mof_N 	N 	0.58493	0.85547	0.61077	-0.564
Mof_C 	C 	0.78153	0.88797	0.49527	-0.108
Mof_C 	C 	0.71893	0.84117	0.44597	-0.066
Mof_C 	C 	0.59893	0.78967	0.48517	-0.077
Mof_C 	C 	0.55843	0.78807	0.57277	-0.028
Mof_H 	H 	0.80023	0.95797	0.58867	0.152
Mof_H 	H 	0.78303	0.96947	0.48917	0.179
Mof_H 	H 	0.67153	0.79737	0.56677	0.113
Mof_H 	H 	0.57003	0.87497	0.58007	0.152
Mof_H 	H 	0.57833	0.85857	0.67777	0.099
Mof_H 	H 	0.78923	0.86187	0.55057	0.028
Mof_H 	H 	0.80773	0.89327	0.45497	0.065
Mof_H 	H 	0.71823	0.79877	0.41107	0.047
Mof_H 	H 	0.70733	0.86127	0.39247	0.028
Mof_H 	H 	0.56763	0.73827	0.46777	0.041
Mof_H 	H 	0.60283	0.81987	0.42397	0.026
Mof_H 	H 	0.51363	0.76857	0.53297	0.044
Mof_H 	H 	0.56063	0.76067	0.63487	0.032
Mof_Ga	Ga	0.63825	0.90726	0.88069	3.315
Mof_Zn	Zn	0.90726	0.26901	0.11931	1.243
Mof_Ga	Ga	0.75618	0.10633	0.91702	2.844
Mof_P 	P 	0.76324	0.18263	0.12217	0.681
Mof_P 	P 	0.01387	0.34049	0.27617	0.752
Mof_O 	O 	0.78783	0.15805	0.0376	-0.849
Mof_O 	O 	0.82323	0.24686	0.1581	-0.48
Mof_O 	O 	0.74025	0.1316	0.2075	-0.962
Mof_O 	O 	0.70886	0.19463	0.0943	-0.296
Mof_O 	O 	0.95591	0.33212	0.2132	-0.548
Mof_O 	O 	0.0446	0.40917	0.3234	-0.502
Mof_O 	O 	0.06411	0.33506	0.2155	-0.765
Mof_O 	O 	0.99045	0.29028	0.3594	-0.859
Mof_N 	N 	0.7226	0.1673	0.8679	-0.559
Mof_N 	N 	0.8425	0.1759	0.8527	-0.414
Mof_N 	N 	0.8112	0.0628	0.9441	-0.588
Mof_C 	C 	0.7787	0.2269	0.8286	-0.111
Mof_C 	C 	0.8255	0.2111	0.7793	-0.066
Mof_C 	C 	0.877	0.1426	0.8185	-0.079
Mof_C 	C 	0.8786	0.1037	0.9061	-0.024
Mof_H 	H 	0.7087	0.1756	0.922	0.137
Mof_H 	H 	0.6972	0.1469	0.8225	0.171
Mof_H 	H 	0.8693	0.2075	0.9001	0.105
Mof_H 	H 	0.7917	0.0284	0.9134	0.146
Mof_H 	H 	0.8081	0.0531	0.0111	0.13
Mof_H 	H 	0.8048	0.2607	0.8839	0.023
Mof_H 	H 	0.7734	0.2478	0.7883	0.064
Mof_H 	H 	0.8679	0.2528	0.7444	0.046
Mof_H 	H 	0.8054	0.1794	0.7258	0.028
Mof_H 	H 	0.9284	0.1627	0.8011	0.035
Mof_H 	H 	0.8468	0.1163	0.7573	0.025
Mof_H 	H 	0.8981	0.0784	0.8663	0.032
Mof_H 	H 	0.906	0.1333	0.9682	0.013
Mof_Ga	Ga	0.75941	0.06432	0.21402	3.372
Mof_Zn	Zn	0.57393	0.60234	0.45264	1.238
Mof_Ga	Ga	0.42285	0.43966	0.25035	2.912
Mof_P 	P 	0.42991	0.51596	0.4555	0.683
Mof_P 	P 	0.68054	0.67382	0.6095	0.73
Mof_O 	O 	0.4545	0.49138	0.37093	-0.884
Mof_O 	O 	0.4899	0.58019	0.49143	-0.487
Mof_O 	O 	0.40692	0.46493	0.54083	-0.963
Mof_O 	O 	0.37553	0.52796	0.42763	-0.312
Mof_O 	O 	0.62258	0.66545	0.54653	-0.54
Mof_O 	O 	0.71127	0.7425	0.65673	-0.503
Mof_O 	O 	0.73078	0.66839	0.54883	-0.757
Mof_O 	O 	0.65712	0.62361	0.69273	-0.845
Mof_N 	N 	0.38927	0.50063	0.20123	-0.568
Mof_N 	N 	0.50917	0.50923	0.18603	-0.418
Mof_N 	N 	0.47787	0.39613	0.27743	-0.564
Mof_C 	C 	0.44537	0.56023	0.16193	-0.109
Mof_C 	C 	0.49217	0.54443	0.11263	-0.07
Mof_C 	C 	0.54367	0.47593	0.15183	-0.08
Mof_C 	C 	0.54527	0.43703	0.23943	-0.028
Mof_H 	H 	0.37537	0.50893	0.25533	0.15
Mof_H 	H 	0.36387	0.48023	0.15583	0.176
Mof_H 	H 	0.53597	0.54083	0.23343	0.113
Mof_H 	H 	0.45837	0.36173	0.24673	0.152
Mof_H 	H 	0.47477	0.38643	0.34443	0.099
Mof_H 	H 	0.47147	0.59403	0.21723	0.029
Mof_H 	H 	0.44007	0.58113	0.12163	0.07
Mof_H 	H 	0.53457	0.58613	0.07773	0.055
Mof_H 	H 	0.47207	0.51273	0.05913	0.039
Mof_H 	H 	0.59507	0.49603	0.13443	0.048
Mof_H 	H 	0.51347	0.44963	0.09063	0.036
Mof_H 	H 	0.56477	0.41173	0.19963	0.047
Mof_H 	H 	0.57267	0.46663	0.30153	0.032
Mof_Ga	Ga	0.42607	0.39766	0.54736	3.371
Mof_Zn	Zn	0.24059	0.93568	0.78598	1.239
Mof_Ga	Ga	0.08951	0.773	0.58369	2.912
Mof_P 	P 	0.09657	0.8493	0.78884	0.682
Mof_P 	P 	0.3472	0.00716	0.94284	0.681
Mof_O 	O 	0.12116	0.82472	0.70427	-0.882
Mof_O 	O 	0.15656	0.91353	0.82477	-0.486
Mof_O 	O 	0.07358	0.79827	0.87417	-0.955
Mof_O 	O 	0.04219	0.8613	0.76097	-0.305
Mof_O 	O 	0.28924	0.99879	0.87987	-0.521
Mof_O 	O 	0.37793	0.07584	0.99007	-0.52
Mof_O 	O 	0.39744	0.00173	0.88217	-0.759
Mof_O 	O 	0.32378	0.95695	0.02607	-0.815
Mof_N 	N 	0.05593	0.83397	0.53457	-0.568
Mof_N 	N 	0.17583	0.84257	0.51937	-0.42
Mof_N 	N 	0.14453	0.72947	0.61077	-0.564
Mof_C 	C 	0.11203	0.89357	0.49527	-0.116
Mof_C 	C 	0.15883	0.87777	0.44597	-0.063
Mof_C 	C 	0.21033	0.80927	0.48517	-0.077
Mof_C 	C 	0.21193	0.77037	0.57277	-0.029
Mof_H 	H 	0.04203	0.84227	0.58867	0.154
Mof_H 	H 	0.03053	0.81357	0.48917	0.179
Mof_H 	H 	0.20263	0.87417	0.56677	0.114
Mof_H 	H 	0.12503	0.69507	0.58007	0.152
Mof_H 	H 	0.14143	0.71977	0.67777	0.099
Mof_H 	H 	0.13813	0.92737	0.55057	0.035
Mof_H 	H 	0.10673	0.91447	0.45497	0.073
Mof_H 	H 	0.20123	0.91947	0.41107	0.05
Mof_H 	H 	0.13873	0.84607	0.39247	0.027
Mof_H 	H 	0.26173	0.82937	0.46777	0.041
Mof_H 	H 	0.18013	0.78297	0.42397	0.026
Mof_H 	H 	0.23143	0.74507	0.53297	0.044
Mof_H 	H 	0.23933	0.79997	0.63487	0.032
Mof_Ga	Ga	0.09274	0.73099	0.88069	3.319
Mof_Zn	Zn	0.73099	0.63825	0.11931	1.243
Mof_Ga	Ga	0.89367	0.64985	0.91702	2.848
Mof_P 	P 	0.81737	0.58061	0.12217	0.681
Mof_P 	P 	0.65951	0.67338	0.27617	0.732
Mof_O 	O 	0.84195	0.62978	0.0376	-0.851
Mof_O 	O 	0.75314	0.57637	0.1581	-0.481
Mof_O 	O 	0.8684	0.60865	0.2075	-0.962
Mof_O 	O 	0.80537	0.51423	0.0943	-0.297
Mof_O 	O 	0.66788	0.62379	0.2132	-0.537
Mof_O 	O 	0.59083	0.63543	0.3234	-0.503
Mof_O 	O 	0.66494	0.72905	0.2155	-0.765
Mof_O 	O 	0.70972	0.70017	0.3594	-0.846
Mof_N 	N 	0.8327	0.5553	0.8679	-0.559
Mof_N 	N 	0.8241	0.6666	0.8527	-0.414
Mof_N 	N 	0.9372	0.7484	0.9441	-0.585
Mof_C 	C 	0.7731	0.5518	0.8286	-0.111
Mof_C 	C 	0.7889	0.6144	0.7793	-0.065
Mof_C 	C 	0.8574	0.7344	0.8185	-0.079
Mof_C 	C 	0.8963	0.7749	0.9061	-0.025
Mof_H 	H 	0.8244	0.5331	0.922	0.137
Mof_H 	H 	0.8531	0.5503	0.8225	0.171
Mof_H 	H 	0.7925	0.6618	0.9001	0.107
Mof_H 	H 	0.9716	0.7633	0.9134	0.147
Mof_H 	H 	0.9469	0.755	0.0111	0.127
Mof_H 	H 	0.7393	0.5441	0.8839	0.023
Mof_H 	H 	0.7522	0.5256	0.7883	0.064
Mof_H 	H 	0.7472	0.6151	0.7444	0.047
Mof_H 	H 	0.8206	0.626	0.7258	0.027
Mof_H 	H 	0.8373	0.7657	0.8011	0.04
Mof_H 	H 	0.8837	0.7305	0.7573	0.025
Mof_H 	H 	0.9216	0.8197	0.8663	0.036
Mof_H 	H 	0.8667	0.7727	0.9682	0.018
Mof_Ga	Ga	0.93568	0.69508	0.21402	3.373
Mof_Zn	Zn	0.39766	0.97158	0.45264	1.241
Mof_Ga	Ga	0.56034	0.98318	0.25035	2.938
Mof_P 	P 	0.48404	0.91394	0.4555	0.683
Mof_P 	P 	0.32618	0.00671	0.6095	0.705
Mof_O 	O 	0.50862	0.96311	0.37093	-0.882
Mof_O 	O 	0.41981	0.9097	0.49143	-0.484
Mof_O 	O 	0.53507	0.94198	0.54083	-0.948
Mof_O 	O 	0.47204	0.84756	0.42763	-0.312
Mof_O 	O 	0.33455	0.95712	0.54653	-0.525
Mof_O 	O 	0.2575	0.96876	0.65673	-0.488
Mof_O 	O 	0.33161	0.06238	0.54883	-0.756
Mof_O 	O 	0.37639	0.0335	0.69273	-0.842
Mof_N 	N 	0.49937	0.88863	0.20123	-0.57
Mof_N 	N 	0.49077	0.99993	0.18603	-0.414
Mof_N 	N 	0.60387	0.08173	0.27743	-0.569
Mof_C 	C 	0.43977	0.88513	0.16193	-0.108
Mof_C 	C 	0.45557	0.94773	0.11263	-0.072
Mof_C 	C 	0.52407	0.06773	0.15183	-0.092
Mof_C 	C 	0.56297	0.10823	0.23943	-0.026
Mof_H 	H 	0.49107	0.86643	0.25533	0.149
Mof_H 	H 	0.51977	0.88363	0.15583	0.176
Mof_H 	H 	0.45917	0.99513	0.23343	0.116
Mof_H 	H 	0.63827	0.09663	0.24673	0.151
Mof_H 	H 	0.61357	0.08833	0.34443	0.098
Mof_H 	H 	0.40597	0.87743	0.21723	0.028
Mof_H 	H 	0.41887	0.85893	0.12163	0.069
Mof_H 	H 	0.41387	0.94843	0.07773	0.058
Mof_H 	H 	0.48727	0.95933	0.05913	0.042
Mof_H 	H 	0.50397	0.09903	0.13443	0.05
Mof_H 	H 	0.55037	0.06383	0.09063	0.036
Mof_H 	H 	0.58827	0.15303	0.19963	0.047
Mof_H 	H 	0.53337	0.10603	0.30153	0.03
Mof_Ga	Ga	0.60234	0.02842	0.54736	3.328
Mof_Zn	Zn	0.06432	0.30492	0.78598	1.239
Mof_Ga	Ga	0.227	0.31652	0.58369	2.909
Mof_P 	P 	0.1507	0.24728	0.78884	0.681
Mof_P 	P 	0.99284	0.34005	0.94284	0.68
Mof_O 	O 	0.17528	0.29645	0.70427	-0.882
Mof_O 	O 	0.08647	0.24304	0.82477	-0.488
Mof_O 	O 	0.20173	0.27532	0.87417	-0.959
Mof_O 	O 	0.1387	0.1809	0.76097	-0.314
Mof_O 	O 	0.00121	0.29046	0.87987	-0.522
Mof_O 	O 	0.92416	0.3021	0.99007	-0.521
Mof_O 	O 	0.99827	0.39572	0.88217	-0.759
Mof_O 	O 	0.04305	0.36684	0.02607	-0.814
Mof_N 	N 	0.16603	0.22197	0.53457	-0.565
Mof_N 	N 	0.15743	0.33327	0.51937	-0.419
Mof_N 	N 	0.27053	0.41507	0.61077	-0.563
Mof_C 	C 	0.10643	0.21847	0.49527	-0.117
Mof_C 	C 	0.12223	0.28107	0.44597	-0.062
Mof_C 	C 	0.19073	0.40107	0.48517	-0.077
Mof_C 	C 	0.22963	0.44157	0.57277	-0.029
Mof_H 	H 	0.15773	0.19977	0.58867	0.149
Mof_H 	H 	0.18643	0.21697	0.48917	0.173
Mof_H 	H 	0.12583	0.32847	0.56677	0.114
Mof_H 	H 	0.30493	0.42997	0.58007	0.151
Mof_H 	H 	0.28023	0.42167	0.67777	0.099
Mof_H 	H 	0.07263	0.21077	0.55057	0.033
Mof_H 	H 	0.08553	0.19227	0.45497	0.07
Mof_H 	H 	0.08053	0.28177	0.41107	0.05
Mof_H 	H 	0.15393	0.29267	0.39247	0.026
Mof_H 	H 	0.17063	0.43237	0.46777	0.041
Mof_H 	H 	0.21703	0.39717	0.42397	0.026
Mof_H 	H 	0.25493	0.48637	0.53297	0.044
Mof_H 	H 	0.20003	0.43937	0.63487	0.032
Mof_Ga	Ga	0.26901	0.36175	0.88069	3.303
Mof_Ga	Ga	0.64985	0.75618	0.08298	2.935
Mof_P 	P 	0.58061	0.76324	0.87783	0.678
Mof_P 	P 	0.67338	0.01387	0.72383	0.867
Mof_O 	O 	0.62978	0.78783	0.9624	-0.918
Mof_O 	O 	0.57637	0.82323	0.8419	-0.917
Mof_O 	O 	0.60865	0.74025	0.7925	-0.521
Mof_O 	O 	0.51423	0.70886	0.9057	-0.327
Mof_O 	O 	0.62379	0.95591	0.7868	-0.998
Mof_O 	O 	0.63543	0.0446	0.6766	-0.956
Mof_O 	O 	0.72905	0.06411	0.7845	-0.807
Mof_O 	O 	0.70017	0.99045	0.6406	-0.923
Mof_N 	N 	0.5553	0.7226	0.1321	-0.574
Mof_N 	N 	0.6666	0.8425	0.1473	-0.428
Mof_N 	N 	0.7484	0.8112	0.0559	-0.54
Mof_C 	C 	0.5518	0.7787	0.1714	-0.094
Mof_C 	C 	0.6144	0.8255	0.2207	-0.062
Mof_C 	C 	0.7344	0.877	0.1815	-0.052
Mof_C 	C 	0.7749	0.8786	0.0939	-0.036
Mof_H 	H 	0.5331	0.7087	0.078	0.159
Mof_H 	H 	0.5503	0.6972	0.1775	0.179
Mof_H 	H 	0.6618	0.8693	0.0999	0.1
Mof_H 	H 	0.7633	0.7917	0.0866	0.168
Mof_H 	H 	0.755	0.8081	0.9889	0.096
Mof_H 	H 	0.5441	0.8048	0.1161	0.018
Mof_H 	H 	0.5256	0.7734	0.2117	0.06
Mof_H 	H 	0.6151	0.8679	0.2556	0.033
Mof_H 	H 	0.626	0.8054	0.2742	0.028
Mof_H 	H 	0.7657	0.9284	0.1989	0.003
Mof_H 	H 	0.7305	0.8468	0.2427	0.017
Mof_H 	H 	0.8197	0.8981	0.1337	0.046
Mof_H 	H 	0.7727	0.906	0.0318	0.039
Mof_Ga	Ga	0.31652	0.08951	0.41631	2.88
Mof_P 	P 	0.24728	0.09657	0.21116	0.677
Mof_P 	P 	0.34005	0.3472	0.05716	0.919
Mof_O 	O 	0.29645	0.12116	0.29573	-0.891
Mof_O 	O 	0.24304	0.15656	0.17523	-0.919
Mof_O 	O 	0.27532	0.07358	0.12583	-0.514
Mof_O 	O 	0.1809	0.04219	0.23903	-0.314
Mof_O 	O 	0.29046	0.28924	0.12013	-1.021
Mof_O 	O 	0.3021	0.37793	0.00993	-0.935
Mof_O 	O 	0.39572	0.39744	0.11783	-0.817
Mof_O 	O 	0.36684	0.32378	0.97393	-0.959
Mof_N 	N 	0.22197	0.05593	0.46543	-0.565
Mof_N 	N 	0.33327	0.17583	0.48063	-0.423
Mof_N 	N 	0.41507	0.14453	0.38923	-0.563
Mof_C 	C 	0.21847	0.11203	0.50473	-0.097
Mof_C 	C 	0.28107	0.15883	0.55403	-0.062
Mof_C 	C 	0.40107	0.21033	0.51483	-0.055
Mof_C 	C 	0.44157	0.21193	0.42723	-0.031
Mof_H 	H 	0.19977	0.04203	0.41133	0.145
Mof_H 	H 	0.21697	0.03053	0.51083	0.172
Mof_H 	H 	0.32847	0.20263	0.43323	0.093
Mof_H 	H 	0.42997	0.12503	0.41993	0.169
Mof_H 	H 	0.42167	0.14143	0.32223	0.126
Mof_H 	H 	0.21077	0.13813	0.44943	0.014
Mof_H 	H 	0.19227	0.10673	0.54503	0.059
Mof_H 	H 	0.28177	0.20123	0.58893	0.033
Mof_H 	H 	0.29267	0.13873	0.60753	0.028
Mof_H 	H 	0.43237	0.26173	0.53223	-0.001
Mof_H 	H 	0.39717	0.18013	0.57603	0.018
Mof_H 	H 	0.48637	0.23143	0.46703	0.04
Mof_H 	H 	0.43937	0.23933	0.36513	0.023
Mof_Ga	Ga	0.98318	0.42285	0.74965	2.849
Mof_P 	P 	0.91394	0.42991	0.5445	0.675
Mof_P 	P 	0.00671	0.68054	0.3905	0.918
Mof_O 	O 	0.96311	0.4545	0.62907	-0.888
Mof_O 	O 	0.9097	0.4899	0.50857	-0.916
Mof_O 	O 	0.94198	0.40692	0.45917	-0.526
Mof_O 	O 	0.84756	0.37553	0.57237	-0.312
Mof_O 	O 	0.95712	0.62258	0.45347	-1.027
Mof_O 	O 	0.96876	0.71127	0.34327	-0.977
Mof_O 	O 	0.06238	0.73078	0.45117	-0.819
Mof_O 	O 	0.0335	0.65712	0.30727	-0.945
Mof_N 	N 	0.88863	0.38927	0.79877	-0.563
Mof_N 	N 	0.99993	0.50917	0.81397	-0.43
Mof_N 	N 	0.08173	0.47787	0.72257	-0.556
Mof_C 	C 	0.88513	0.44537	0.83807	-0.097
Mof_C 	C 	0.94773	0.49217	0.88737	-0.056
Mof_C 	C 	0.06773	0.54367	0.84817	-0.037
Mof_C 	C 	0.10823	0.54527	0.76057	-0.033
Mof_H 	H 	0.86643	0.37537	0.74467	0.148
Mof_H 	H 	0.88363	0.36387	0.84417	0.174
Mof_H 	H 	0.99513	0.53597	0.76657	0.09
Mof_H 	H 	0.09663	0.45837	0.75327	0.17
Mof_H 	H 	0.08833	0.47477	0.65557	0.127
Mof_H 	H 	0.87743	0.47147	0.78277	0.014
Mof_H 	H 	0.85893	0.44007	0.87837	0.054
Mof_H 	H 	0.94843	0.53457	0.92227	0.021
Mof_H 	H 	0.95933	0.47207	0.94087	0.011
Mof_H 	H 	0.09903	0.59507	0.86557	-0.009
Mof_H 	H 	0.06383	0.51347	0.90937	0.01
Mof_H 	H 	0.15303	0.56477	0.80037	0.037
Mof_H 	H 	0.10603	0.57267	0.69847	0.026
Mof_Ga	Ga	0.24382	0.89367	0.08298	2.93
Mof_P 	P 	0.23676	0.81737	0.87783	0.678
Mof_P 	P 	0.98613	0.65951	0.72383	0.867
Mof_O 	O 	0.21217	0.84195	0.9624	-0.915
Mof_O 	O 	0.17677	0.75314	0.8419	-0.918
Mof_O 	O 	0.25975	0.8684	0.7925	-0.519
Mof_O 	O 	0.29114	0.80537	0.9057	-0.325
Mof_O 	O 	0.04409	0.66788	0.7868	-0.999
Mof_O 	O 	0.9554	0.59083	0.6766	-0.956
Mof_O 	O 	0.93589	0.66494	0.7845	-0.808
Mof_O 	O 	0.00955	0.70972	0.6406	-0.923
Mof_N 	N 	0.2774	0.8327	0.1321	-0.574
Mof_N 	N 	0.1575	0.8241	0.1473	-0.427
Mof_N 	N 	0.1888	0.9372	0.0559	-0.546
Mof_C 	C 	0.2213	0.7731	0.1714	-0.094
Mof_C 	C 	0.1745	0.7889	0.2207	-0.062
Mof_C 	C 	0.123	0.8574	0.1815	-0.053
Mof_C 	C 	0.1214	0.8963	0.0939	-0.034
Mof_H 	H 	0.2913	0.8244	0.078	0.158
Mof_H 	H 	0.3028	0.8531	0.1775	0.179
Mof_H 	H 	0.1307	0.7925	0.0999	0.1
Mof_H 	H 	0.2083	0.9716	0.0866	0.174
Mof_H 	H 	0.1919	0.9469	0.9889	0.104
Mof_H 	H 	0.1952	0.7393	0.1161	0.018
Mof_H 	H 	0.2266	0.7522	0.2117	0.06
Mof_H 	H 	0.1321	0.7472	0.2556	0.033
Mof_H 	H 	0.1946	0.8206	0.2742	0.028
Mof_H 	H 	0.0716	0.8373	0.1989	0.004
Mof_H 	H 	0.1532	0.8837	0.2427	0.019
Mof_H 	H 	0.1019	0.9216	0.1337	0.05
Mof_H 	H 	0.094	0.8667	0.0318	0.038
Mof_Ga	Ga	0.91049	0.227	0.41631	2.88
Mof_P 	P 	0.90343	0.1507	0.21116	0.677
Mof_P 	P 	0.6528	0.99284	0.05716	0.94
Mof_O 	O 	0.87884	0.17528	0.29573	-0.89
Mof_O 	O 	0.84344	0.08647	0.17523	-0.921
Mof_O 	O 	0.92642	0.20173	0.12583	-0.513
Mof_O 	O 	0.95781	0.1387	0.23903	-0.317
Mof_O 	O 	0.71076	0.00121	0.12013	-1.033
Mof_O 	O 	0.62207	0.92416	0.00993	-0.938
Mof_O 	O 	0.60256	0.99827	0.11783	-0.817
Mof_O 	O 	0.67622	0.04305	0.97393	-0.971
Mof_N 	N 	0.94407	0.16603	0.46543	-0.566
Mof_N 	N 	0.82417	0.15743	0.48063	-0.423
Mof_N 	N 	0.85547	0.27053	0.38923	-0.563
Mof_C 	C 	0.88797	0.10643	0.50473	-0.088
Mof_C 	C 	0.84117	0.12223	0.55403	-0.066
Mof_C 	C 	0.78967	0.19073	0.51483	-0.055
Mof_C 	C 	0.78807	0.22963	0.42723	-0.031
Mof_H 	H 	0.95797	0.15773	0.41133	0.144
Mof_H 	H 	0.96947	0.18643	0.51083	0.171
Mof_H 	H 	0.79737	0.12583	0.43323	0.093
Mof_H 	H 	0.87497	0.30493	0.41993	0.169
Mof_H 	H 	0.85857	0.28023	0.32223	0.126
Mof_H 	H 	0.86187	0.07263	0.44943	0.008
Mof_H 	H 	0.89327	0.08553	0.54503	0.051
Mof_H 	H 	0.79877	0.08053	0.58893	0.03
Mof_H 	H 	0.86127	0.15393	0.60753	0.028
Mof_H 	H 	0.73827	0.17063	0.53223	0
Mof_H 	H 	0.81987	0.21703	0.57603	0.018
Mof_H 	H 	0.76857	0.25493	0.46703	0.04
Mof_H 	H 	0.76067	0.20003	0.36513	0.023
Mof_Ga	Ga	0.57715	0.56034	0.74965	2.88
Mof_P 	P 	0.57009	0.48404	0.5445	0.677
Mof_P 	P 	0.31946	0.32618	0.3905	0.897
Mof_O 	O 	0.5455	0.50862	0.62907	-0.89
Mof_O 	O 	0.5101	0.41981	0.50857	-0.922
Mof_O 	O 	0.59308	0.53507	0.45917	-0.52
Mof_O 	O 	0.62447	0.47204	0.57237	-0.313
Mof_O 	O 	0.37742	0.33455	0.45347	-1.022
Mof_O 	O 	0.28873	0.2575	0.34327	-0.965
Mof_O 	O 	0.26922	0.33161	0.45117	-0.819
Mof_O 	O 	0.34288	0.37639	0.30727	-0.942
Mof_N 	N 	0.61073	0.49937	0.79877	-0.567
Mof_N 	N 	0.49083	0.49077	0.81397	-0.425
Mof_N 	N 	0.52213	0.60387	0.72257	-0.563
Mof_C 	C 	0.55463	0.43977	0.83807	-0.095
Mof_C 	C 	0.50783	0.45557	0.88737	-0.059
Mof_C 	C 	0.45633	0.52407	0.84817	-0.053
Mof_C 	C 	0.45473	0.56297	0.76057	-0.032
Mof_H 	H 	0.62463	0.49107	0.74467	0.148
Mof_H 	H 	0.63613	0.51977	0.84417	0.175
Mof_H 	H 	0.46403	0.45917	0.76657	0.093
Mof_H 	H 	0.54163	0.63827	0.75327	0.168
Mof_H 	H 	0.52523	0.61357	0.65557	0.126
Mof_H 	H 	0.52853	0.40597	0.78277	0.013
Mof_H 	H 	0.55993	0.41887	0.87837	0.053
Mof_H 	H 	0.46543	0.41387	0.92227	0.025
Mof_H 	H 	0.52793	0.48727	0.94087	0.016
Mof_H 	H 	0.40493	0.50397	0.86557	-0.007
Mof_H 	H 	0.48653	0.55037	0.90937	0.008
Mof_H 	H 	0.43523	0.58827	0.80037	0.037
Mof_H 	H 	0.42733	0.53337	0.69847	0.023
Mof_Ga	Ga	0.10633	0.35015	0.08298	2.934
Mof_P 	P 	0.18263	0.41939	0.87783	0.677
Mof_P 	P 	0.34049	0.32662	0.72383	0.893
Mof_O 	O 	0.15805	0.37022	0.9624	-0.917
Mof_O 	O 	0.24686	0.42363	0.8419	-0.915
Mof_O 	O 	0.1316	0.39135	0.7925	-0.519
Mof_O 	O 	0.19463	0.48577	0.9057	-0.326
Mof_O 	O 	0.33212	0.37621	0.7868	-1.011
Mof_O 	O 	0.40917	0.36457	0.6766	-0.964
Mof_O 	O 	0.33506	0.27095	0.7845	-0.809
Mof_O 	O 	0.29028	0.29983	0.6406	-0.94
Mof_N 	N 	0.1673	0.4447	0.1321	-0.574
Mof_N 	N 	0.1759	0.3334	0.1473	-0.428
Mof_N 	N 	0.0628	0.2516	0.0559	-0.543
Mof_C 	C 	0.2269	0.4482	0.1714	-0.095
Mof_C 	C 	0.2111	0.3856	0.2207	-0.063
Mof_C 	C 	0.1426	0.2656	0.1815	-0.053
Mof_C 	C 	0.1037	0.2251	0.0939	-0.034
Mof_H 	H 	0.1756	0.4669	0.078	0.159
Mof_H 	H 	0.1469	0.4497	0.1775	0.179
Mof_H 	H 	0.2075	0.3382	0.0999	0.099
Mof_H 	H 	0.0284	0.2367	0.0866	0.174
Mof_H 	H 	0.0531	0.245	0.9889	0.1
Mof_H 	H 	0.2607	0.4559	0.1161	0.018
Mof_H 	H 	0.2478	0.4744	0.2117	0.06
Mof_H 	H 	0.2528	0.3849	0.2556	0.033
Mof_H 	H 	0.1794	0.374	0.2742	0.028
Mof_H 	H 	0.1627	0.2343	0.1989	0
Mof_H 	H 	0.1163	0.2695	0.2427	0.018
Mof_H 	H 	0.0784	0.1803	0.1337	0.047
Mof_H 	H 	0.1333	0.2273	0.0318	0.037
Mof_Ga	Ga	0.773	0.68348	0.41631	2.883
Mof_P 	P 	0.8493	0.75272	0.21116	0.677
Mof_P 	P 	0.00716	0.65995	0.05716	0.939
Mof_O 	O 	0.82472	0.70355	0.29573	-0.891
Mof_O 	O 	0.91353	0.75696	0.17523	-0.92
Mof_O 	O 	0.79827	0.72468	0.12583	-0.51
Mof_O 	O 	0.8613	0.8191	0.23903	-0.31
Mof_O 	O 	0.99879	0.70954	0.12013	-1.033
Mof_O 	O 	0.07584	0.6979	0.00993	-0.94
Mof_O 	O 	0.00173	0.60428	0.11783	-0.817
Mof_O 	O 	0.95695	0.63316	0.97393	-0.97
Mof_N 	N 	0.83397	0.77803	0.46543	-0.569
Mof_N 	N 	0.84257	0.66673	0.48063	-0.423
Mof_N 	N 	0.72947	0.58493	0.38923	-0.564
Mof_C 	C 	0.89357	0.78153	0.50473	-0.088
Mof_C 	C 	0.87777	0.71893	0.55403	-0.066
Mof_C 	C 	0.80927	0.59893	0.51483	-0.055
Mof_C 	C 	0.77037	0.55843	0.42723	-0.03
Mof_H 	H 	0.84227	0.80023	0.41133	0.149
Mof_H 	H 	0.81357	0.78303	0.51083	0.178
Mof_H 	H 	0.87417	0.67153	0.43323	0.093
Mof_H 	H 	0.69507	0.57003	0.41993	0.169
Mof_H 	H 	0.71977	0.57833	0.32223	0.126
Mof_H 	H 	0.92737	0.78923	0.44943	0.009
Mof_H 	H 	0.91447	0.80773	0.54503	0.053
Mof_H 	H 	0.91947	0.71823	0.58893	0.03
Mof_H 	H 	0.84607	0.70733	0.60753	0.029
Mof_H 	H 	0.82937	0.56763	0.53223	0
Mof_H 	H 	0.78297	0.60283	0.57603	0.018
Mof_H 	H 	0.74507	0.51363	0.46703	0.04
Mof_H 	H 	0.79997	0.56063	0.36513	0.023
Mof_Ga	Ga	0.43966	0.01682	0.74965	2.849
Mof_P 	P 	0.51596	0.08606	0.5445	0.675
Mof_P 	P 	0.67382	0.99329	0.3905	0.918
Mof_O 	O 	0.49138	0.03689	0.62907	-0.888
Mof_O 	O 	0.58019	0.0903	0.50857	-0.916
Mof_O 	O 	0.46493	0.05802	0.45917	-0.526
Mof_O 	O 	0.52796	0.15244	0.57237	-0.312
Mof_O 	O 	0.66545	0.04288	0.45347	-1.027
Mof_O 	O 	0.7425	0.03124	0.34327	-0.977
Mof_O 	O 	0.66839	0.93762	0.45117	-0.819
Mof_O 	O 	0.62361	0.9665	0.30727	-0.945
Mof_N 	N 	0.50063	0.11137	0.79877	-0.563
Mof_N 	N 	0.50923	7e-05	0.81397	-0.431
Mof_N 	N 	0.39613	0.91827	0.72257	-0.556
Mof_C 	C 	0.56023	0.11487	0.83807	-0.097
Mof_C 	C 	0.54443	0.05227	0.88737	-0.056
Mof_C 	C 	0.47593	0.93227	0.84817	-0.037
Mof_C 	C 	0.43703	0.89177	0.76057	-0.033
Mof_H 	H 	0.50893	0.13357	0.74467	0.148
Mof_H 	H 	0.48023	0.11637	0.84417	0.174
Mof_H 	H 	0.54083	0.00487	0.76657	0.09
Mof_H 	H 	0.36173	0.90337	0.75327	0.17
Mof_H 	H 	0.38643	0.91167	0.65557	0.127
Mof_H 	H 	0.59403	0.12257	0.78277	0.014
Mof_H 	H 	0.58113	0.14107	0.87837	0.054
Mof_H 	H 	0.58613	0.05157	0.92227	0.02
Mof_H 	H 	0.51273	0.04067	0.94087	0.011
Mof_H 	H 	0.49603	0.90097	0.86557	-0.009
Mof_H 	H 	0.44963	0.93617	0.90937	0.01
Mof_H 	H 	0.41173	0.84697	0.80037	0.037
Mof_H 	H 	0.46663	0.89397	0.69847	0.026
_end
