data_functionalizedCrystal
_audit_creation_method	'EQeq! by Chris Wilmer'
_symmetry_space_group_name_H-M	'P1'
_symmetry_Int_Tables_number	1
_symmetry_cell_setting	triclinic
loop_
_symmetry_equiv_pos_as_xyz
  x,y,z
_cell_length_a	19.0382
_cell_length_b	21.7556
_cell_length_c	23.8341
_cell_angle_alpha	90
_cell_angle_beta	90
_cell_angle_gamma	97.58
loop_
_atom_site_label
_atom_site_type_symbol
_atom_site_fract_x
_atom_site_fract_y
_atom_site_fract_z
_atom_site_charge
Mof_Cd	Cd	0.7873	0.24425	0.75723	0.471
Mof_Cd	Cd	0.23042	0.33411	0.61691	0.473
Mof_Cd	Cd	0.32921	0.15993	0.6176	0.473
Mof_Cd	Cd	0.73028	0.3344	0.63622	0.473
Mof_Cd	Cd	0.28762	0.25337	0.48996	0.495
Mof_Cd	Cd	0.82912	0.16072	0.62351	0.473
Mof_Cd	Cd	0.7127	0.25575	0.25723	0.471
Mof_Cd	Cd	0.26958	0.16589	0.11691	0.473
Mof_Cd	Cd	0.17079	0.34007	0.1176	0.473
Mof_Cd	Cd	0.76972	0.1656	0.13622	0.473
Mof_Cd	Cd	0.21238	0.24663	0.98996	0.495
Mof_Cd	Cd	0.67088	0.33928	0.12351	0.473
Mof_Cd	Cd	0.2127	0.75575	0.24277	0.471
Mof_Cd	Cd	0.76958	0.66589	0.38309	0.473
Mof_Cd	Cd	0.67079	0.84007	0.3824	0.473
Mof_Cd	Cd	0.26972	0.6656	0.36378	0.473
Mof_Cd	Cd	0.71238	0.74663	0.51004	0.495
Mof_Cd	Cd	0.17088	0.83928	0.37649	0.473
Mof_Cd	Cd	0.2873	0.74425	0.74277	0.471
Mof_Cd	Cd	0.73042	0.83411	0.88309	0.472
Mof_Cd	Cd	0.82921	0.65993	0.8824	0.472
Mof_Cd	Cd	0.23028	0.8344	0.86378	0.472
Mof_Cd	Cd	0.78762	0.75337	0.01004	0.494
Mof_Cd	Cd	0.32912	0.66072	0.87649	0.472
Mof_H 	H 	0.0922	0.1206	0.6522	0.081
Mof_H 	H 	0.9484	0.2138	0.5359	0.032
Mof_H 	H 	0.9883	0.2601	0.7133	0.073
Mof_H 	H 	0.467	0.3717	0.6687	0.076
Mof_H 	H 	0.9739	0.1075	0.6632	0.033
Mof_H 	H 	0.9681	0.377	0.5844	0.07
Mof_H 	H 	0.0882	0.3853	0.5728	0.029
Mof_H 	H 	0.4892	0.2657	0.5337	0.081
Mof_H 	H 	0.5866	0.3778	0.6832	0.035
Mof_H 	H 	0.6087	0.2812	0.5491	0.031
Mof_H 	H 	0.3201	0.1725	0.8007	0.075
Mof_H 	H 	0.1076	0.2769	0.7004	0.031
Mof_H 	H 	0.0699	0.2346	0.5229	0.07
Mof_H 	H 	0.8548	0.9908	0.7327	0.076
Mof_H 	H 	0.7276	0.3354	0.4607	0.073
Mof_H 	H 	0.2103	0.3233	0.8797	0.031
Mof_H 	H 	0.7012	0.0587	0.8186	0.074
Mof_H 	H 	0.3057	0.1765	0.8955	0.022
Mof_H 	H 	0.2191	0.3198	0.7851	0.074
Mof_H 	H 	0.1821	0.4928	0.5121	0.072
Mof_H 	H 	0.1845	0.0736	0.4271	0.075
Mof_H 	H 	0.3274	0.9916	0.5136	0.07
Mof_H 	H 	0.1847	0.5839	0.4626	0.025
Mof_H 	H 	0.3245	0.4395	0.4062	0.096
Mof_H 	H 	0.3235	0.5306	0.3584	0.029
Mof_H 	H 	0.143	0.9804	0.3888	0.025
Mof_H 	H 	0.2795	0.8981	0.4712	0.024
Mof_H 	H 	0.8306	0.9015	0.7838	0.028
Mof_H 	H 	0.6788	0.9664	0.8636	0.02
Mof_H 	H 	0.8221	0.1838	0.445	0.073
Mof_H 	H 	0.7194	0.3376	0.3648	0.027
Mof_H 	H 	0.8087	0.1889	0.351	0.023
Mof_H 	H 	0.8537	0.4284	0.8391	0.072
Mof_H 	H 	0.8723	0.5243	0.8818	0.022
Mof_H 	H 	0.7247	0.583	0.7906	0.031
Mof_H 	H 	0.7041	0.4902	0.7443	0.082
Mof_H 	H 	0.593	0.1228	0.5879	0.068
Mof_H 	H 	0.4477	0.2094	0.709	0.033
Mof_H 	H 	0.4744	0.1132	0.5734	0.029
Mof_H 	H 	0.5667	0.2275	0.7234	0.069
Mof_H 	H 	0.4872	0.3552	0.3271	0.095
Mof_H 	H 	0.5826	0.3358	0.2689	0.035
Mof_H 	H 	0.6035	0.1892	0.3547	0.022
Mof_H 	H 	0.5	0.2023	0.4103	0.079
Mof_H 	H 	0.4078	0.3794	0.1522	0.08
Mof_H 	H 	0.5516	0.2862	0.0359	0.032
Mof_H 	H 	0.5117	0.2399	0.2133	0.072
Mof_H 	H 	0.033	0.1283	0.1687	0.076
Mof_H 	H 	0.5261	0.3925	0.1632	0.033
Mof_H 	H 	0.5319	0.123	0.0844	0.07
Mof_H 	H 	0.4118	0.1147	0.0728	0.028
Mof_H 	H 	0.0108	0.2343	0.0337	0.079
Mof_H 	H 	0.9134	0.1222	0.1832	0.035
Mof_H 	H 	0.8913	0.2188	0.0491	0.031
Mof_H 	H 	0.1799	0.3275	0.3007	0.075
Mof_H 	H 	0.3924	0.2231	0.2004	0.032
Mof_H 	H 	0.4301	0.2654	0.0229	0.07
Mof_H 	H 	0.6452	0.5092	0.2327	0.076
Mof_H 	H 	0.7724	0.1646	0.9607	0.073
Mof_H 	H 	0.2897	0.1767	0.3797	0.031
Mof_H 	H 	0.7988	0.4413	0.3186	0.074
Mof_H 	H 	0.1943	0.3235	0.3955	0.022
Mof_H 	H 	0.2809	0.1802	0.2851	0.074
Mof_H 	H 	0.3179	0.0072	0.0121	0.071
Mof_H 	H 	0.3155	0.4264	0.9271	0.075
Mof_H 	H 	0.1726	0.5084	0.0136	0.07
Mof_H 	H 	0.3153	0.9161	0.9626	0.026
Mof_H 	H 	0.1755	0.0605	0.9062	0.095
Mof_H 	H 	0.1765	0.9694	0.8584	0.03
Mof_H 	H 	0.357	0.5196	0.8888	0.024
Mof_H 	H 	0.2205	0.6019	0.9712	0.024
Mof_H 	H 	0.6694	0.5985	0.2838	0.028
Mof_H 	H 	0.8212	0.5336	0.3636	0.021
Mof_H 	H 	0.6779	0.3162	0.945	0.073
Mof_H 	H 	0.7806	0.1624	0.8648	0.027
Mof_H 	H 	0.6913	0.3111	0.851	0.023
Mof_H 	H 	0.6463	0.0716	0.3391	0.072
Mof_H 	H 	0.6277	0.9757	0.3818	0.022
Mof_H 	H 	0.7753	0.917	0.2906	0.03
Mof_H 	H 	0.7959	0.0098	0.2443	0.083
Mof_H 	H 	0.907	0.3772	0.0879	0.067
Mof_H 	H 	0.0523	0.2906	0.209	0.034
Mof_H 	H 	0.0256	0.3868	0.0734	0.03
Mof_H 	H 	0.9333	0.2725	0.2234	0.069
Mof_H 	H 	0.0128	0.1448	0.8271	0.094
Mof_H 	H 	0.9174	0.1642	0.7689	0.035
Mof_H 	H 	0.8965	0.3108	0.8547	0.023
Mof_H 	H 	9.40269e-19	0.2977	0.9103	0.078
Mof_H 	H 	0.9078	0.8794	0.3478	0.078
Mof_H 	H 	0.0516	0.7862	0.4641	0.033
Mof_H 	H 	0.0117	0.7399	0.2867	0.068
Mof_H 	H 	0.533	0.6283	0.3313	0.076
Mof_H 	H 	0.0261	0.8925	0.3368	0.035
Mof_H 	H 	0.0319	0.623	0.4156	0.07
Mof_H 	H 	0.9118	0.6147	0.4272	0.028
Mof_H 	H 	0.5108	0.7343	0.4663	0.081
Mof_H 	H 	0.4134	0.6222	0.3168	0.035
Mof_H 	H 	0.3913	0.7188	0.4509	0.031
Mof_H 	H 	0.6799	0.8275	0.1993	0.075
Mof_H 	H 	0.8924	0.7231	0.2996	0.033
Mof_H 	H 	0.9301	0.7654	0.4771	0.068
Mof_H 	H 	0.1452	0.0092	0.2673	0.076
Mof_H 	H 	0.2724	0.6646	0.5393	0.073
Mof_H 	H 	0.7897	0.6767	0.1203	0.031
Mof_H 	H 	0.2988	0.9413	0.1814	0.074
Mof_H 	H 	0.6943	0.8235	0.1045	0.022
Mof_H 	H 	0.7809	0.6802	0.2149	0.074
Mof_H 	H 	0.8179	0.5072	0.4879	0.072
Mof_H 	H 	0.8155	0.9264	0.5729	0.075
Mof_H 	H 	0.6726	0.0084	0.4864	0.07
Mof_H 	H 	0.8153	0.4161	0.5374	0.025
Mof_H 	H 	0.6755	0.5605	0.5938	0.096
Mof_H 	H 	0.6765	0.4694	0.6416	0.029
Mof_H 	H 	0.857	0.0196	0.6112	0.025
Mof_H 	H 	0.7205	0.1019	0.5288	0.024
Mof_H 	H 	0.1694	0.0985	0.2162	0.028
Mof_H 	H 	0.3212	0.0336	0.1364	0.02
Mof_H 	H 	0.1779	0.8162	0.555	0.073
Mof_H 	H 	0.2806	0.6624	0.6352	0.027
Mof_H 	H 	0.1913	0.8111	0.649	0.023
Mof_H 	H 	0.1463	0.5716	0.1609	0.072
Mof_H 	H 	0.1277	0.4757	0.1182	0.022
Mof_H 	H 	0.2753	0.417	0.2094	0.031
Mof_H 	H 	0.2959	0.5098	0.2557	0.082
Mof_H 	H 	0.407	0.8772	0.4121	0.068
Mof_H 	H 	0.5523	0.7906	0.291	0.033
Mof_H 	H 	0.5256	0.8868	0.4266	0.029
Mof_H 	H 	0.4333	0.7725	0.2766	0.069
Mof_H 	H 	0.5128	0.6448	0.6729	0.095
Mof_H 	H 	0.4174	0.6642	0.7311	0.035
Mof_H 	H 	0.3965	0.8108	0.6453	0.022
Mof_H 	H 	0.5	0.7977	0.5897	0.079
Mof_H 	H 	0.5922	0.6206	0.8478	0.08
Mof_H 	H 	0.4484	0.7138	0.9641	0.032
Mof_H 	H 	0.4883	0.7601	0.7867	0.072
Mof_H 	H 	0.967	0.8717	0.8313	0.076
Mof_H 	H 	0.4739	0.6075	0.8368	0.033
Mof_H 	H 	0.4681	0.877	0.9156	0.07
Mof_H 	H 	0.5882	0.8853	0.9272	0.028
Mof_H 	H 	0.9892	0.7657	0.9663	0.084
Mof_H 	H 	0.0866	0.8778	0.8168	0.035
Mof_H 	H 	0.1087	0.7812	0.9509	0.03
Mof_H 	H 	0.8201	0.6725	0.6993	0.075
Mof_H 	H 	0.6076	0.7769	0.7996	0.032
Mof_H 	H 	0.5699	0.7346	0.9771	0.07
Mof_H 	H 	0.3548	0.4908	0.7673	0.076
Mof_H 	H 	0.2276	0.8354	0.0393	0.073
Mof_H 	H 	0.7103	0.8233	0.6203	0.031
Mof_H 	H 	0.2012	0.5587	0.6814	0.073
Mof_H 	H 	0.8057	0.6765	0.6045	0.022
Mof_H 	H 	0.7191	0.8198	0.7149	0.074
Mof_H 	H 	0.6821	0.9928	0.9879	0.071
Mof_H 	H 	0.6845	0.5736	0.0729	0.076
Mof_H 	H 	0.8274	0.4916	0.9864	0.07
Mof_H 	H 	0.6847	0.0839	0.0374	0.026
Mof_H 	H 	0.8245	0.9395	0.0938	0.095
Mof_H 	H 	0.8235	0.0306	0.1416	0.03
Mof_H 	H 	0.643	0.4804	0.1112	0.024
Mof_H 	H 	0.7795	0.3981	0.0288	0.025
Mof_H 	H 	0.3306	0.4015	0.7162	0.028
Mof_H 	H 	0.1788	0.4664	0.6364	0.02
Mof_H 	H 	0.3221	0.6838	0.055	0.073
Mof_H 	H 	0.2194	0.8376	0.1352	0.027
Mof_H 	H 	0.3087	0.6889	0.149	0.023
Mof_H 	H 	0.3537	0.9284	0.6609	0.072
Mof_H 	H 	0.3723	0.0243	0.6182	0.022
Mof_H 	H 	0.2247	0.083	0.7094	0.03
Mof_H 	H 	0.2041	0.9902	0.7557	0.083
Mof_H 	H 	0.093	0.6228	0.9121	0.069
Mof_H 	H 	0.9477	0.7094	0.791	0.032
Mof_H 	H 	0.9744	0.6132	0.9266	0.028
Mof_H 	H 	0.0667	0.7275	0.7766	0.071
Mof_H 	H 	0.9872	0.8552	0.1729	0.101
Mof_H 	H 	0.0826	0.8358	0.2311	0.032
Mof_H 	H 	0.1035	0.6892	0.1453	0.021
Mof_H 	H 	-7.92103e-18	0.7023	0.0897	0.082
Mof_C 	C 	0.9638	0.3154	0.65	-0.02
Mof_C 	C 	0.4634	0.3151	0.6014	-0.018
Mof_C 	C 	0.064	0.1414	0.6288	-0.077
Mof_C 	C 	0.7985	0.0966	0.7399	0.312
Mof_C 	C 	0.9781	0.1962	0.5605	0.05
Mof_C 	C 	0.0074	0.2861	0.6846	-0.074
Mof_C 	C 	0.4946	0.3509	0.6448	-0.069
Mof_C 	C 	0.0948	0.1811	0.587	-0.018
Mof_C 	C 	0.9933	0.1335	0.6346	0.051
Mof_C 	C 	0.9954	0.3552	0.6075	-0.073
Mof_C 	C 	0.386	0.304	0.5935	0.303
Mof_C 	C 	0.0672	0.3605	0.6016	0.049
Mof_C 	C 	0.8843	0.3039	0.6566	0.312
Mof_C 	C 	0.2757	0.2415	0.7185	0.301
Mof_C 	C 	0.5077	0.2889	0.5643	-0.073
Mof_C 	C 	0.1736	0.1947	0.5817	0.303
Mof_C 	C 	0.7745	0.2577	0.4643	-0.018
Mof_C 	C 	0.2536	0.397	0.4988	0.296
Mof_C 	C 	0.782	0.0365	0.7703	-0.02
Mof_C 	C 	0.779	0.2539	0.5269	0.303
Mof_C 	C 	0.2902	0.1046	0.5001	0.302
Mof_C 	C 	0.6739	0.1921	0.6634	0.307
Mof_C 	C 	0.5669	0.3556	0.6524	0.05
Mof_C 	C 	0.5795	0.2982	0.5744	0.056
Mof_C 	C 	0.2966	0.2032	0.8163	-0.086
Mof_C 	C 	0.0787	0.296	0.6763	0.052
Mof_C 	C 	0.0514	0.2085	0.5518	-0.071
Mof_C 	C 	0.2605	0.0429	0.4754	-0.013
Mof_C 	C 	0.2706	0.2456	0.7823	-0.007
Mof_C 	C 	0.8195	0.9875	0.7599	-0.074
Mof_C 	C 	0.2533	0.456	0.4652	-0.005
Mof_C 	C 	0.7772	0.4486	0.7857	-0.015
Mof_C 	C 	0.7443	0.3047	0.4392	-0.081
Mof_C 	C 	0.2316	0.2915	0.8635	0.059
Mof_C 	C 	0.7282	0.0272	0.8104	-0.078
Mof_C 	C 	0.7638	0.3873	0.7563	0.3
Mof_C 	C 	0.2879	0.2059	0.8731	0.063
Mof_C 	C 	0.2375	0.2903	0.8069	-0.086
Mof_C 	C 	0.2117	0.4999	0.4811	-0.081
Mof_C 	C 	0.2048	0.0385	0.437	-0.079
Mof_C 	C 	0.2898	0.9904	0.4885	-0.078
Mof_C 	C 	0.2135	0.5549	0.4513	0.055
Mof_C 	C 	0.2958	0.4683	0.4184	-0.087
Mof_C 	C 	0.2953	0.5233	0.3902	0.061
Mof_C 	C 	0.1804	0.9826	0.414	0.056
Mof_C 	C 	0.2606	0.9342	0.4623	0.058
Mof_C 	C 	0.804	0.9337	0.7904	0.058
Mof_C 	C 	0.7155	0.9718	0.8376	0.061
Mof_C 	C 	0.7996	0.2152	0.4297	-0.083
Mof_C 	C 	0.7393	0.3053	0.3814	0.057
Mof_C 	C 	0.7917	0.2188	0.3733	0.058
Mof_C 	C 	0.8277	0.4595	0.828	-0.078
Mof_C 	C 	0.8387	0.5175	0.8534	0.055
Mof_C 	C 	0.7521	0.5519	0.7995	0.057
Mof_C 	C 	0.7388	0.496	0.772	-0.079
Mof_C 	C 	0.5646	0.1421	0.6122	-0.069
Mof_C 	C 	0.4777	0.1932	0.6837	0.048
Mof_C 	C 	0.4935	0.1357	0.6043	0.044
Mof_C 	C 	0.5953	0.1776	0.6568	-0.025
Mof_C 	C 	0.5489	0.2034	0.6931	-0.068
Mof_C 	C 	0.4269	0.2962	0.4101	0.258
Mof_C 	C 	0.4871	0.2818	0.3731	0.013
Mof_C 	C 	0.5093	0.3201	0.3332	-0.094
Mof_C 	C 	0.5683	0.3086	0.298	0.044
Mof_C 	C 	0.5799	0.223	0.3469	0.064
Mof_C 	C 	0.5169	0.231	0.383	-0.095
Mof_C 	C 	0.5362	0.1846	0.15	-0.021
Mof_C 	C 	0.0366	0.1849	0.1014	-0.02
Mof_C 	C 	0.436	0.3586	0.1288	-0.076
Mof_C 	C 	0.7015	0.4034	0.2399	0.312
Mof_C 	C 	0.5219	0.3038	0.0605	0.049
Mof_C 	C 	0.4926	0.2139	0.1846	-0.072
Mof_C 	C 	0.0054	0.1491	0.1448	-0.069
Mof_C 	C 	0.4052	0.3189	0.087	-0.019
Mof_C 	C 	0.5067	0.3665	0.1346	0.051
Mof_C 	C 	0.5046	0.1448	0.1075	-0.074
Mof_C 	C 	0.114	0.196	0.0935	0.304
Mof_C 	C 	0.4328	0.1395	0.1016	0.05
Mof_C 	C 	0.6157	0.1961	0.1566	0.312
Mof_C 	C 	0.2243	0.2585	0.2185	0.301
Mof_C 	C 	0.9923	0.2111	0.0643	-0.069
Mof_C 	C 	0.3264	0.3053	0.0817	0.303
Mof_C 	C 	0.7255	0.2423	0.9643	-0.018
Mof_C 	C 	0.2464	0.103	0.9988	0.297
Mof_C 	C 	0.718	0.4635	0.2703	-0.02
Mof_C 	C 	0.721	0.2461	0.0269	0.303
Mof_C 	C 	0.2098	0.3954	0.0001	0.301
Mof_C 	C 	0.8261	0.3079	0.1634	0.308
Mof_C 	C 	0.9331	0.1444	0.1524	0.051
Mof_C 	C 	0.9205	0.2018	0.0744	0.054
Mof_C 	C 	0.2034	0.2968	0.3163	-0.086
Mof_C 	C 	0.4213	0.204	0.1763	0.051
Mof_C 	C 	0.4486	0.2915	0.0518	-0.069
Mof_C 	C 	0.2395	0.4571	0.9754	-0.013
Mof_C 	C 	0.2294	0.2544	0.2823	-0.008
Mof_C 	C 	0.6805	0.5125	0.2599	-0.074
Mof_C 	C 	0.2467	0.044	0.9652	-0.007
Mof_C 	C 	0.7228	0.0514	0.2857	-0.014
Mof_C 	C 	0.7557	0.1953	0.9392	-0.081
Mof_C 	C 	0.2684	0.2085	0.3635	0.059
Mof_C 	C 	0.7718	0.4728	0.3104	-0.078
Mof_C 	C 	0.7362	0.1127	0.2563	0.3
Mof_C 	C 	0.2121	0.2941	0.3731	0.063
Mof_C 	C 	0.2625	0.2097	0.3069	-0.086
Mof_C 	C 	0.2883	0.0001	0.9811	-0.078
Mof_C 	C 	0.2952	0.4615	0.937	-0.08
Mof_C 	C 	0.2102	0.5096	0.9885	-0.077
Mof_C 	C 	0.2865	0.9451	0.9513	0.053
Mof_C 	C 	0.2042	0.0317	0.9184	-0.084
Mof_C 	C 	0.2047	0.9767	0.8902	0.059
Mof_C 	C 	0.3196	0.5174	0.914	0.057
Mof_C 	C 	0.2394	0.5658	0.9623	0.058
Mof_C 	C 	0.696	0.5663	0.2904	0.059
Mof_C 	C 	0.7845	0.5282	0.3376	0.06
Mof_C 	C 	0.7004	0.2848	0.9297	-0.083
Mof_C 	C 	0.7607	0.1947	0.8814	0.057
Mof_C 	C 	0.7083	0.2812	0.8733	0.058
Mof_C 	C 	0.6723	0.0405	0.328	-0.079
Mof_C 	C 	0.6613	0.9825	0.3534	0.056
Mof_C 	C 	0.7479	0.9481	0.2995	0.059
Mof_C 	C 	0.7612	0.004	0.272	-0.08
Mof_C 	C 	0.9354	0.3579	0.1122	-0.065
Mof_C 	C 	0.0223	0.3068	0.1837	0.045
Mof_C 	C 	0.0065	0.3643	0.1043	0.041
Mof_C 	C 	0.9047	0.3224	0.1568	-0.027
Mof_C 	C 	0.9511	0.2966	0.1931	-0.065
Mof_C 	C 	0.0731	0.2038	0.9101	0.258
Mof_C 	C 	0.0129	0.2182	0.8731	0.011
Mof_C 	C 	0.9907	0.1799	0.8332	-0.092
Mof_C 	C 	0.9317	0.1914	0.798	0.044
Mof_C 	C 	0.9201	0.277	0.8469	0.064
Mof_C 	C 	0.9831	0.269	0.883	-0.093
Mof_C 	C 	0.0362	0.6846	0.35	-0.025
Mof_C 	C 	0.5366	0.6849	0.3986	-0.018
Mof_C 	C 	0.936	0.8586	0.3712	-0.069
Mof_C 	C 	0.2015	0.9034	0.2601	0.312
Mof_C 	C 	0.0219	0.8038	0.4395	0.044
Mof_C 	C 	0.9926	0.7139	0.3154	-0.063
Mof_C 	C 	0.5054	0.6491	0.3552	-0.069
Mof_C 	C 	0.9052	0.8189	0.413	-0.023
Mof_C 	C 	0.0067	0.8665	0.3654	0.045
Mof_C 	C 	0.0046	0.6448	0.3925	-0.074
Mof_C 	C 	0.614	0.696	0.4065	0.303
Mof_C 	C 	0.9328	0.6395	0.3984	0.051
Mof_C 	C 	0.1157	0.6961	0.3434	0.314
Mof_C 	C 	0.7243	0.7585	0.2815	0.301
Mof_C 	C 	0.4923	0.7111	0.4357	-0.073
Mof_C 	C 	0.8264	0.8053	0.4183	0.305
Mof_C 	C 	0.2255	0.7423	0.5357	-0.018
Mof_C 	C 	0.7464	0.603	0.5012	0.296
Mof_C 	C 	0.218	0.9635	0.2297	-0.021
Mof_C 	C 	0.221	0.7461	0.4731	0.303
Mof_C 	C 	0.7098	0.8954	0.4999	0.302
Mof_C 	C 	0.3261	0.8079	0.3366	0.307
Mof_C 	C 	0.4331	0.6444	0.3476	0.05
Mof_C 	C 	0.4205	0.7018	0.4256	0.056
Mof_C 	C 	0.7034	0.7968	0.1837	-0.086
Mof_C 	C 	0.9213	0.704	0.3237	0.048
Mof_C 	C 	0.9486	0.7915	0.4482	-0.064
Mof_C 	C 	0.7395	0.9571	0.5246	-0.013
Mof_C 	C 	0.7294	0.7544	0.2177	-0.007
Mof_C 	C 	0.1805	0.0125	0.2401	-0.073
Mof_C 	C 	0.7467	0.544	0.5348	-0.005
Mof_C 	C 	0.2228	0.5514	0.2143	-0.015
Mof_C 	C 	0.2557	0.6953	0.5608	-0.081
Mof_C 	C 	0.7684	0.7085	0.1365	0.059
Mof_C 	C 	0.2718	0.9728	0.1896	-0.078
Mof_C 	C 	0.2362	0.6127	0.2437	0.3
Mof_C 	C 	0.7121	0.7941	0.1269	0.063
Mof_C 	C 	0.7625	0.7097	0.1931	-0.086
Mof_C 	C 	0.7883	0.5001	0.5189	-0.081
Mof_C 	C 	0.7952	0.9615	0.563	-0.079
Mof_C 	C 	0.7102	0.0096	0.5115	-0.078
Mof_C 	C 	0.7865	0.4451	0.5487	0.055
Mof_C 	C 	0.7042	0.5317	0.5816	-0.087
Mof_C 	C 	0.7047	0.4767	0.6098	0.061
Mof_C 	C 	0.8196	0.0174	0.586	0.056
Mof_C 	C 	0.7394	0.0658	0.5377	0.058
Mof_C 	C 	0.196	0.0663	0.2096	0.058
Mof_C 	C 	0.2845	0.0282	0.1624	0.061
Mof_C 	C 	0.2004	0.7848	0.5703	-0.083
Mof_C 	C 	0.2607	0.6947	0.6186	0.057
Mof_C 	C 	0.2083	0.7812	0.6267	0.058
Mof_C 	C 	0.1723	0.5405	0.172	-0.078
Mof_C 	C 	0.1613	0.4825	0.1466	0.055
Mof_C 	C 	0.2479	0.4481	0.2005	0.057
Mof_C 	C 	0.2612	0.504	0.228	-0.079
Mof_C 	C 	0.4354	0.8579	0.3878	-0.069
Mof_C 	C 	0.5223	0.8068	0.3163	0.048
Mof_C 	C 	0.5065	0.8643	0.3957	0.044
Mof_C 	C 	0.4047	0.8224	0.3432	-0.025
Mof_C 	C 	0.4511	0.7966	0.3069	-0.068
Mof_C 	C 	0.5731	0.7038	0.5899	0.258
Mof_C 	C 	0.5129	0.7182	0.6269	0.013
Mof_C 	C 	0.4907	0.6799	0.6668	-0.094
Mof_C 	C 	0.4317	0.6914	0.702	0.044
Mof_C 	C 	0.4201	0.777	0.6531	0.064
Mof_C 	C 	0.4831	0.769	0.617	-0.095
Mof_C 	C 	0.4638	0.8154	0.85	-0.021
Mof_C 	C 	0.9634	0.8151	0.8986	-0.016
Mof_C 	C 	0.564	0.6414	0.8712	-0.076
Mof_C 	C 	0.2985	0.5966	0.7601	0.312
Mof_C 	C 	0.4781	0.6962	0.9395	0.049
Mof_C 	C 	0.5074	0.7861	0.8154	-0.072
Mof_C 	C 	0.9946	0.8509	0.8552	-0.068
Mof_C 	C 	0.5948	0.6811	0.913	-0.019
Mof_C 	C 	0.4933	0.6335	0.8654	0.051
Mof_C 	C 	0.4954	0.8552	0.8925	-0.074
Mof_C 	C 	0.886	0.804	0.9065	0.302
Mof_C 	C 	0.5672	0.8605	0.8984	0.05
Mof_C 	C 	0.3843	0.8039	0.8434	0.312
Mof_C 	C 	0.7757	0.7415	0.7815	0.301
Mof_C 	C 	0.0077	0.7889	0.9357	-0.079
Mof_C 	C 	0.6736	0.6947	0.9183	0.303
Mof_C 	C 	0.2745	0.7577	0.0357	-0.018
Mof_C 	C 	0.7536	0.897	0.0012	0.297
Mof_C 	C 	0.282	0.5365	0.7297	-0.02
Mof_C 	C 	0.279	0.7539	0.9731	0.303
Mof_C 	C 	0.7902	0.6046	0.9999	0.301
Mof_C 	C 	0.1739	0.6921	0.8366	0.306
Mof_C 	C 	0.0669	0.8556	0.8476	0.048
Mof_C 	C 	0.0795	0.7982	0.9256	0.058
Mof_C 	C 	0.7966	0.7032	0.6837	-0.086
Mof_C 	C 	0.5787	0.796	0.8237	0.051
Mof_C 	C 	0.5514	0.7085	0.9482	-0.069
Mof_C 	C 	0.7605	0.5429	0.0246	-0.013
Mof_C 	C 	0.7706	0.7456	0.7177	-0.007
Mof_C 	C 	0.3195	0.4875	0.7401	-0.074
Mof_C 	C 	0.7533	0.956	0.0348	-0.006
Mof_C 	C 	0.2772	0.9486	0.7143	-0.014
Mof_C 	C 	0.2443	0.8047	0.0608	-0.081
Mof_C 	C 	0.7316	0.7915	0.6365	0.06
Mof_C 	C 	0.2282	0.5272	0.6896	-0.078
Mof_C 	C 	0.2638	0.8873	0.7437	0.299
Mof_C 	C 	0.7879	0.7059	0.6269	0.063
Mof_C 	C 	0.7375	0.7903	0.6931	-0.086
Mof_C 	C 	0.7117	0.9999	0.0189	-0.078
Mof_C 	C 	0.7048	0.5385	0.063	-0.08
Mof_C 	C 	0.7898	0.4904	0.0115	-0.077
Mof_C 	C 	0.7135	0.0549	0.0487	0.053
Mof_C 	C 	0.7958	0.9683	0.0816	-0.084
Mof_C 	C 	0.7953	0.0233	0.1098	0.059
Mof_C 	C 	0.6804	0.4826	0.086	0.058
Mof_C 	C 	0.7606	0.4342	0.0377	0.058
Mof_C 	C 	0.304	0.4337	0.7096	0.058
Mof_C 	C 	0.2155	0.4718	0.6624	0.06
Mof_C 	C 	0.2996	0.7152	0.0703	-0.083
Mof_C 	C 	0.2393	0.8053	0.1186	0.057
Mof_C 	C 	0.2917	0.7188	0.1267	0.058
Mof_C 	C 	0.3277	0.9595	0.672	-0.079
Mof_C 	C 	0.3387	0.0175	0.6466	0.057
Mof_C 	C 	0.2521	0.0519	0.7005	0.059
Mof_C 	C 	0.2388	0.996	0.728	-0.081
Mof_C 	C 	0.0646	0.6421	0.8878	-0.072
Mof_C 	C 	0.9777	0.6932	0.8163	0.051
Mof_C 	C 	0.9935	0.6357	0.8957	0.047
Mof_C 	C 	0.0953	0.6776	0.8432	-0.023
Mof_C 	C 	0.0489	0.7034	0.8069	-0.072
Mof_C 	C 	0.9269	0.7962	0.0899	0.254
Mof_C 	C 	0.9871	0.7818	0.1269	0.026
Mof_C 	C 	0.0093	0.8201	0.1668	-0.108
Mof_C 	C 	0.0683	0.8086	0.202	0.051
Mof_C 	C 	0.0799	0.723	0.1531	0.068
Mof_C 	C 	0.0169	0.731	0.117	-0.104
Mof_N 	N 	0.9483	0.1608	0.6017	-0.137
Mof_N 	N 	0.109	0.3317	0.635	-0.136
Mof_N 	N 	0.2452	0.2507	0.3978	-0.135
Mof_N 	N 	0.7442	0.4329	0.5936	-0.135
Mof_N 	N 	0.792	0.0695	0.5738	-0.136
Mof_N 	N 	0.6102	0.33	0.6177	-0.137
Mof_N 	N 	0.7526	0.9252	0.8289	-0.136
Mof_N 	N 	0.7392	0.2369	0.8484	-0.14
Mof_N 	N 	0.8031	0.5637	0.8388	-0.135
Mof_N 	N 	0.449	0.1608	0.6395	-0.134
Mof_N 	N 	0.8963	0.2419	0.8068	-0.138
Mof_N 	N 	0.5517	0.3392	0.1017	-0.137
Mof_N 	N 	0.391	0.1683	0.135	-0.136
Mof_N 	N 	0.2548	0.2493	0.8978	-0.135
Mof_N 	N 	0.7558	0.0671	0.0936	-0.134
Mof_N 	N 	0.708	0.4305	0.0738	-0.136
Mof_N 	N 	0.8898	0.17	0.1177	-0.136
Mof_N 	N 	0.7474	0.5748	0.3289	-0.136
Mof_N 	N 	0.7608	0.2631	0.3484	-0.14
Mof_N 	N 	0.6969	0.9363	0.3388	-0.136
Mof_N 	N 	0.051	0.3392	0.1395	-0.133
Mof_N 	N 	0.6037	0.2581	0.3068	-0.138
Mof_N 	N 	0.0517	0.8392	0.3983	-0.135
Mof_N 	N 	0.891	0.6683	0.365	-0.136
Mof_N 	N 	0.7548	0.7493	0.6022	-0.134
Mof_N 	N 	0.2558	0.5671	0.4064	-0.135
Mof_N 	N 	0.208	0.9305	0.4262	-0.136
Mof_N 	N 	0.3898	0.67	0.3823	-0.137
Mof_N 	N 	0.2474	0.0748	0.1711	-0.136
Mof_N 	N 	0.2608	0.7631	0.1516	-0.14
Mof_N 	N 	0.1969	0.4363	0.1612	-0.135
Mof_N 	N 	0.551	0.8392	0.3605	-0.134
Mof_N 	N 	0.1037	0.7581	0.1932	-0.14
Mof_N 	N 	0.4483	0.6608	0.8983	-0.137
Mof_N 	N 	0.609	0.8317	0.865	-0.136
Mof_N 	N 	0.7452	0.7507	0.1022	-0.135
Mof_N 	N 	0.2442	0.9329	0.9064	-0.134
Mof_N 	N 	0.292	0.5695	0.9262	-0.136
Mof_N 	N 	0.1102	0.83	0.8823	-0.137
Mof_N 	N 	0.2526	0.4252	0.6711	-0.136
Mof_N 	N 	0.2392	0.7369	0.6516	-0.14
Mof_N 	N 	0.3031	0.0637	0.6612	-0.136
Mof_N 	N 	0.949	0.6608	0.8605	-0.135
Mof_N 	N 	0.3963	0.7419	0.6932	-0.138
Mof_O 	O 	0.3601	0.2555	0.5683	-0.292
Mof_O 	O 	0.6971	0.2398	0.6914	-0.294
Mof_O 	O 	0.8211	0.2194	0.5462	-0.283
Mof_O 	O 	0.8391	0.0995	0.6995	-0.291
Mof_O 	O 	0.1975	0.2445	0.5562	-0.293
Mof_O 	O 	0.8597	0.2524	0.6779	-0.3
Mof_O 	O 	0.7109	0.1574	0.639	-0.276
Mof_O 	O 	0.2356	0.2724	0.6914	-0.284
Mof_O 	O 	0.7396	0.2846	0.5544	-0.284
Mof_O 	O 	0.3358	0.105	0.538	-0.281
Mof_O 	O 	0.7182	0.382	0.7186	-0.284
Mof_O 	O 	0.7684	0.1404	0.759	-0.284
Mof_O 	O 	0.3504	0.3448	0.6115	-0.268
Mof_O 	O 	0.2161	0.3918	0.5416	-0.286
Mof_O 	O 	0.8498	0.3447	0.6407	-0.281
Mof_O 	O 	0.2099	0.1568	0.6018	-0.274
Mof_O 	O 	0.3201	0.2096	0.6996	-0.286
Mof_O 	O 	0.2915	0.3578	0.4806	-0.26
Mof_O 	O 	0.8017	0.3466	0.7714	-0.282
Mof_O 	O 	0.2654	0.1511	0.4804	-0.278
Mof_O 	O 	0.3993	0.256	0.4427	-0.251
Mof_O 	O 	0.4123	0.3528	0.4142	-0.203
Mof_O 	O 	0.1399	0.2445	0.0683	-0.293
Mof_O 	O 	0.8029	0.2602	0.1914	-0.294
Mof_O 	O 	0.6789	0.2806	0.0462	-0.283
Mof_O 	O 	0.6609	0.4005	0.1995	-0.29
Mof_O 	O 	0.3025	0.2555	0.0562	-0.293
Mof_O 	O 	0.6403	0.2476	0.1779	-0.301
Mof_O 	O 	0.7891	0.3426	0.139	-0.276
Mof_O 	O 	0.2644	0.2276	0.1914	-0.284
Mof_O 	O 	0.7604	0.2154	0.0544	-0.284
Mof_O 	O 	0.1642	0.395	0.038	-0.281
Mof_O 	O 	0.7818	0.118	0.2186	-0.284
Mof_O 	O 	0.7316	0.3596	0.259	-0.284
Mof_O 	O 	0.1496	0.1552	0.1115	-0.268
Mof_O 	O 	0.2839	0.1082	0.0416	-0.286
Mof_O 	O 	0.6502	0.1553	0.1407	-0.281
Mof_O 	O 	0.2901	0.3432	0.1018	-0.274
Mof_O 	O 	0.1799	0.2904	0.1996	-0.286
Mof_O 	O 	0.2085	0.1422	0.9806	-0.26
Mof_O 	O 	0.6983	0.1534	0.2714	-0.281
Mof_O 	O 	0.2346	0.3489	0.9804	-0.277
Mof_O 	O 	0.1007	0.244	0.9427	-0.251
Mof_O 	O 	0.0877	0.1472	0.9142	-0.203
Mof_O 	O 	0.6399	0.7445	0.4317	-0.292
Mof_O 	O 	0.3029	0.7602	0.3086	-0.294
Mof_O 	O 	0.1789	0.7806	0.4538	-0.284
Mof_O 	O 	0.1609	0.9005	0.3005	-0.291
Mof_O 	O 	0.8025	0.7555	0.4438	-0.294
Mof_O 	O 	0.1403	0.7476	0.3221	-0.301
Mof_O 	O 	0.2891	0.8426	0.361	-0.276
Mof_O 	O 	0.7644	0.7276	0.3086	-0.284
Mof_O 	O 	0.2604	0.7154	0.4456	-0.284
Mof_O 	O 	0.6642	0.895	0.462	-0.281
Mof_O 	O 	0.2818	0.618	0.2814	-0.284
Mof_O 	O 	0.2316	0.8596	0.241	-0.284
Mof_O 	O 	0.6496	0.6552	0.3885	-0.268
Mof_O 	O 	0.7839	0.6082	0.4584	-0.286
Mof_O 	O 	0.1502	0.6553	0.3593	-0.282
Mof_O 	O 	0.7901	0.8432	0.3982	-0.274
Mof_O 	O 	0.6799	0.7904	0.3004	-0.286
Mof_O 	O 	0.7085	0.6422	0.5194	-0.26
Mof_O 	O 	0.1983	0.6534	0.2286	-0.282
Mof_O 	O 	0.7346	0.8489	0.5196	-0.278
Mof_O 	O 	0.6007	0.744	0.5573	-0.251
Mof_O 	O 	0.5877	0.6472	0.5858	-0.203
Mof_O 	O 	0.8601	0.7555	0.9317	-0.292
Mof_O 	O 	0.1971	0.7398	0.8086	-0.294
Mof_O 	O 	0.3211	0.7194	0.9538	-0.283
Mof_O 	O 	0.3391	0.5995	0.8005	-0.29
Mof_O 	O 	0.6975	0.7445	0.9438	-0.293
Mof_O 	O 	0.3597	0.7524	0.8221	-0.301
Mof_O 	O 	0.2109	0.6574	0.861	-0.276
Mof_O 	O 	0.7356	0.7724	0.8086	-0.284
Mof_O 	O 	0.2396	0.7846	0.9456	-0.284
Mof_O 	O 	0.8358	0.605	0.962	-0.281
Mof_O 	O 	0.2182	0.882	0.7814	-0.284
Mof_O 	O 	0.2684	0.6404	0.741	-0.284
Mof_O 	O 	0.8504	0.8448	0.8885	-0.268
Mof_O 	O 	0.7161	0.8918	0.9584	-0.286
Mof_O 	O 	0.3498	0.8447	0.8593	-0.281
Mof_O 	O 	0.7099	0.6568	0.8982	-0.274
Mof_O 	O 	0.8201	0.7096	0.8004	-0.286
Mof_O 	O 	0.7915	0.8578	0.0194	-0.26
Mof_O 	O 	0.3017	0.8466	0.7286	-0.281
Mof_O 	O 	0.7654	0.6511	0.0196	-0.277
Mof_O 	O 	0.8993	0.756	0.0573	-0.249
Mof_O 	O 	0.9123	0.8528	0.0858	-0.201
Mof_Cl	Cl	0.0471	0.0307	0.7765	-0.688
Mof_O 	O 	0.9995	0.053	0.7604	0.13
Mof_O 	O 	0.0967	0.0692	0.7679	0.104
Mof_O 	O 	0.0464	0.0243	0.824	0.144
Mof_O 	O 	0.0551	0.9876	0.7538	0.149
Mof_Cl	Cl	0.4529	0.4693	0.2765	-0.694
Mof_O 	O 	0.5005	0.447	0.2604	0.132
Mof_O 	O 	0.4033	0.4308	0.2679	0.105
Mof_O 	O 	0.4536	0.4757	0.324	0.146
Mof_O 	O 	0.4449	0.5124	0.2538	0.152
Mof_Cl	Cl	0.9529	0.9693	0.2235	-0.679
Mof_O 	O 	0.0005	0.947	0.2396	0.125
Mof_O 	O 	0.9033	0.9308	0.2321	0.102
Mof_O 	O 	0.9536	0.9757	0.176	0.142
Mof_O 	O 	0.9449	0.0124	0.2462	0.147
Mof_Cl	Cl	0.5471	0.5307	0.7235	-0.694
Mof_O 	O 	0.4995	0.553	0.7396	0.132
Mof_O 	O 	0.5967	0.5692	0.7321	0.105
Mof_O 	O 	0.5464	0.5243	0.676	0.146
Mof_O 	O 	0.5551	0.4876	0.7462	0.152
_end
