data_functionalizedCrystal
_audit_creation_method	'EQeq! by Chris Wilmer'
_symmetry_space_group_name_H-M	'P1'
_symmetry_Int_Tables_number	1
_symmetry_cell_setting	triclinic
loop_
_symmetry_equiv_pos_as_xyz
  x,y,z
_cell_length_a	8.9024
_cell_length_b	14.2796
_cell_length_c	15.0637
_cell_angle_alpha	90
_cell_angle_beta	95.068
_cell_angle_gamma	90
loop_
_atom_site_label
_atom_site_type_symbol
_atom_site_fract_x
_atom_site_fract_y
_atom_site_fract_z
_atom_site_charge
Mof_Al	Al	0.82257	0.05886	0.24323	3.946
Mof_Al	Al	0.61917	0.9398	0.90932	4.671
Mof_Co	Co	0.63958	0.07044	0.61468	1.254
Mof_Co	Co	0.42598	0.21385	0.33584	1.245
Mof_P 	P 	0.60091	0.21834	0.16217	0.986
Mof_P 	P 	0.64094	0.05539	0.41293	0.734
Mof_P 	P 	0.64951	0.91949	0.11125	1.137
Mof_P 	P 	0.18794	0.06628	0.25415	1.044
Mof_O 	O 	0.7006	0.9453	0.02001	-1.423
Mof_O 	O 	0.6997	0.0387	0.50959	-0.496
Mof_O 	O 	0.4969	0.9628	0.1216	-1.476
Mof_O 	O 	0.2306	0.0638	0.15948	-1.407
Mof_O 	O 	0.7657	0.9523	0.1836	-1.194
Mof_O 	O 	0.2352	0.9754	0.30116	-0.625
Mof_O 	O 	0.7753	0.0648	0.3593	-1.102
Mof_O 	O 	0.5464	0.1449	0.4088	-0.564
Mof_O 	O 	0.6358	0.81352	0.1149	-0.597
Mof_O 	O 	0.5449	0.9735	0.3773	-0.58
Mof_O 	O 	0.6451	0.30774	0.1175	-0.545
Mof_O 	O 	0.5304	0.2443	0.2466	-0.644
Mof_O 	O 	0.742	0.1617	0.1822	-1.179
Mof_O 	O 	0.4893	0.1652	0.1004	-1.39
Mof_O 	O 	0.0216	0.0798	0.252	-1.177
Mof_O 	O 	0.2664	0.1477	0.3029	-0.626
Mof_Al	Al	0.17743	0.55886	0.25677	4.043
Mof_Al	Al	0.38083	0.4398	0.59068	4.846
Mof_Co	Co	0.36042	0.57044	0.88532	1.253
Mof_Co	Co	0.57402	0.71385	0.16416	1.244
Mof_P 	P 	0.39909	0.71834	0.33783	0.999
Mof_P 	P 	0.35906	0.55539	0.08707	0.745
Mof_P 	P 	0.35049	0.41949	0.38875	1.158
Mof_P 	P 	0.81206	0.56628	0.24585	1.063
Mof_O 	O 	0.2994	0.4453	0.47999	-1.488
Mof_O 	O 	0.3003	0.5387	0.99041	-0.498
Mof_O 	O 	0.5031	0.4628	0.3784	-1.533
Mof_O 	O 	0.7694	0.5638	0.34052	-1.439
Mof_O 	O 	0.2343	0.4523	0.3164	-1.234
Mof_O 	O 	0.7648	0.4754	0.19884	-0.635
Mof_O 	O 	0.2247	0.5648	0.1407	-1.119
Mof_O 	O 	0.4536	0.6449	0.0912	-0.563
Mof_O 	O 	0.3642	0.31352	0.3851	-0.606
Mof_O 	O 	0.4551	0.4735	0.1227	-0.593
Mof_O 	O 	0.3549	0.80774	0.3825	-0.544
Mof_O 	O 	0.4696	0.7443	0.2534	-0.646
Mof_O 	O 	0.258	0.6617	0.3178	-1.196
Mof_O 	O 	0.5107	0.6652	0.3996	-1.42
Mof_O 	O 	0.9784	0.5798	0.248	-1.199
Mof_O 	O 	0.7336	0.6477	0.1971	-0.628
Mof_Al	Al	0.17743	0.94114	0.75677	3.945
Mof_Al	Al	0.38083	0.0602	0.09068	4.67
Mof_Co	Co	0.36042	0.92956	0.38532	1.253
Mof_Co	Co	0.57402	0.78615	0.66416	1.244
Mof_P 	P 	0.39909	0.78166	0.83783	0.986
Mof_P 	P 	0.35906	0.94461	0.58707	0.734
Mof_P 	P 	0.35049	0.08051	0.88875	1.137
Mof_P 	P 	0.81206	0.93372	0.74585	1.044
Mof_O 	O 	0.2994	0.0547	0.97999	-1.423
Mof_O 	O 	0.3003	0.9613	0.49041	-0.496
Mof_O 	O 	0.5031	0.0372	0.8784	-1.476
Mof_O 	O 	0.7694	0.9362	0.84052	-1.407
Mof_O 	O 	0.2343	0.0477	0.8164	-1.194
Mof_O 	O 	0.7648	0.0246	0.69884	-0.625
Mof_O 	O 	0.2247	0.9352	0.6407	-1.102
Mof_O 	O 	0.4536	0.8551	0.5912	-0.564
Mof_O 	O 	0.3642	0.18648	0.8851	-0.597
Mof_O 	O 	0.4551	0.0265	0.6227	-0.58
Mof_O 	O 	0.3549	0.69226	0.8825	-0.545
Mof_O 	O 	0.4696	0.7557	0.7534	-0.644
Mof_O 	O 	0.258	0.8383	0.8178	-1.179
Mof_O 	O 	0.5107	0.8348	0.8996	-1.39
Mof_O 	O 	0.9784	0.9202	0.748	-1.177
Mof_O 	O 	0.7336	0.8523	0.6971	-0.626
Mof_Al	Al	0.82257	0.44114	0.74323	4.043
Mof_Al	Al	0.61917	0.5602	0.40932	4.846
Mof_Co	Co	0.63958	0.42956	0.11468	1.253
Mof_Co	Co	0.42598	0.28615	0.83584	1.244
Mof_P 	P 	0.60091	0.28166	0.66217	0.999
Mof_P 	P 	0.64094	0.44461	0.91293	0.745
Mof_P 	P 	0.64951	0.58051	0.61125	1.158
Mof_P 	P 	0.18794	0.43372	0.75415	1.063
Mof_O 	O 	0.7006	0.5547	0.52001	-1.488
Mof_O 	O 	0.6997	0.4613	0.00959	-0.498
Mof_O 	O 	0.4969	0.5372	0.6216	-1.533
Mof_O 	O 	0.2306	0.4362	0.65948	-1.439
Mof_O 	O 	0.7657	0.5477	0.6836	-1.234
Mof_O 	O 	0.2352	0.5246	0.80116	-0.635
Mof_O 	O 	0.7753	0.4352	0.8593	-1.119
Mof_O 	O 	0.5464	0.3551	0.9088	-0.563
Mof_O 	O 	0.6358	0.68648	0.6149	-0.606
Mof_O 	O 	0.5449	0.5265	0.8773	-0.593
Mof_O 	O 	0.6451	0.19226	0.6175	-0.544
Mof_O 	O 	0.5304	0.2557	0.7466	-0.646
Mof_O 	O 	0.742	0.3383	0.6822	-1.196
Mof_O 	O 	0.4893	0.3348	0.6004	-1.42
Mof_O 	O 	0.0216	0.4202	0.752	-1.199
Mof_O 	O 	0.2664	0.3523	0.8029	-0.628
_end
