# CIF file generated by openbabel 3.1.0, see https://openbabel.org
data_I
_chemical_name_common 'image0'
_cell_length_a 7.1834
_cell_length_b 22.367
_cell_length_c 8.4852
_cell_angle_alpha 90
_cell_angle_beta 90
_cell_angle_gamma 90
_space_group_name_H-M_alt 'P 1'
_space_group_name_Hall 'P 1'
loop_
    _symmetry_equiv_pos_as_xyz
    x,y,z
loop_
    _atom_site_label
    _atom_site_type_symbol
    _atom_site_fract_x
    _atom_site_fract_y
    _atom_site_fract_z
    _atom_site_occupancy
    O1       O        0.08330    0.68540    0.02470    1.000
    O2       O        0.08330    0.18540    0.52470    1.000
    O3       O        0.91670    0.31460    0.02470    1.000
    O4       O        0.91670    0.81460    0.52470    1.000
    O5       O        0.58330    0.31460    0.02470    1.000
    O6       O        0.58330    0.81460    0.52470    1.000
    O7       O        0.41670    0.68540    0.02470    1.000
    O8       O        0.41670    0.18540    0.52470    1.000
    Sr1      Sr       0.25000    0.81749    0.42428    1.000
    S1       S        0.25000    0.68077    0.12030    1.000
    O9       O        0.25000    0.72070    0.25350    1.000
    O10      O        0.25000    0.39460    0.14610    1.000
    O11      O        0.25000    0.44380    0.92490    1.000
    O12      O        0.25000    0.47810    0.64590    1.000
    H1       H        0.25000    0.47610    0.74240    1.000
    O13      O        0.25000    0.57510    0.69880    1.000
    C1       C        0.25000    0.44280    0.07080    1.000
    C2       C        0.25000    0.53380    0.60270    1.000
    C3       C        0.25000    0.60680    0.20320    1.000
    C4       C        0.25000    0.55680    0.09990    1.000
    H2       H        0.25000    0.56180    0.99110    1.000
    C5       C        0.25000    0.49970    0.16780    1.000
    C6       C        0.25000    0.49330    0.32960    1.000
    H3       H        0.25000    0.45500    0.37270    1.000
    C7       C        0.25000    0.54320    0.43100    1.000
    C8       C        0.25000    0.59990    0.36330    1.000
    H4       H        0.25000    0.63350    0.42780    1.000
    Sr2      Sr       0.25000    0.31749    0.92428    1.000
    S2       S        0.25000    0.18077    0.62030    1.000
    O14      O        0.25000    0.22070    0.75350    1.000
    O15      O        0.25000    0.89460    0.64610    1.000
    O16      O        0.25000    0.94380    0.42490    1.000
    O17      O        0.25000    0.97810    0.14590    1.000
    H5       H        0.25000    0.97610    0.24240    1.000
    O18      O        0.25000    0.07510    0.19880    1.000
    C9       C        0.25000    0.94280    0.57080    1.000
    C10      C        0.25000    0.03380    0.10270    1.000
    C11      C        0.25000    0.10680    0.70320    1.000
    C12      C        0.25000    0.05680    0.59990    1.000
    H6       H        0.25000    0.06180    0.49110    1.000
    C13      C        0.25000    0.99970    0.66780    1.000
    C14      C        0.25000    0.99330    0.82960    1.000
    H7       H        0.25000    0.95500    0.87270    1.000
    C15      C        0.25000    0.04320    0.93100    1.000
    C16      C        0.25000    0.09990    0.86330    1.000
    H8       H        0.25000    0.13350    0.92780    1.000
    Sr3      Sr       0.75000    0.18251    0.42428    1.000
    S3       S        0.75000    0.31923    0.12030    1.000
    O19      O        0.75000    0.27930    0.25350    1.000
    O20      O        0.75000    0.60540    0.14610    1.000
    O21      O        0.75000    0.55620    0.92490    1.000
    O22      O        0.75000    0.52190    0.64590    1.000
    H9       H        0.75000    0.52390    0.74240    1.000
    O23      O        0.75000    0.42490    0.69880    1.000
    C17      C        0.75000    0.55720    0.07080    1.000
    C18      C        0.75000    0.46620    0.60270    1.000
    C19      C        0.75000    0.39320    0.20320    1.000
    C20      C        0.75000    0.44320    0.09990    1.000
    H10      H        0.75000    0.43820    0.99110    1.000
    C21      C        0.75000    0.50030    0.16780    1.000
    C22      C        0.75000    0.50670    0.32960    1.000
    H11      H        0.75000    0.54500    0.37270    1.000
    C23      C        0.75000    0.45680    0.43100    1.000
    C24      C        0.75000    0.40010    0.36330    1.000
    H12      H        0.75000    0.36650    0.42780    1.000
    Sr4      Sr       0.75000    0.68251    0.92428    1.000
    S4       S        0.75000    0.81923    0.62030    1.000
    O24      O        0.75000    0.77930    0.75350    1.000
    O25      O        0.75000    0.10540    0.64610    1.000
    O26      O        0.75000    0.05620    0.42490    1.000
    O27      O        0.75000    0.02190    0.14590    1.000
    H13      H        0.75000    0.02390    0.24240    1.000
    O28      O        0.75000    0.92490    0.19880    1.000
    C25      C        0.75000    0.05720    0.57080    1.000
    C26      C        0.75000    0.96620    0.10270    1.000
    C27      C        0.75000    0.89320    0.70320    1.000
    C28      C        0.75000    0.94320    0.59990    1.000
    H14      H        0.75000    0.93820    0.49110    1.000
    C29      C        0.75000    0.00030    0.66780    1.000
    C30      C        0.75000    0.00670    0.82960    1.000
    H15      H        0.75000    0.04500    0.87270    1.000
    C31      C        0.75000    0.95680    0.93100    1.000
    C32      C        0.75000    0.90010    0.86330    1.000
    H16      H        0.75000    0.86650    0.92780    1.000
