data_functionalizedCrystal
_audit_creation_method	'EQeq! by Chris Wilmer'
_symmetry_space_group_name_H-M	'P1'
_symmetry_Int_Tables_number	1
_symmetry_cell_setting	triclinic
loop_
_symmetry_equiv_pos_as_xyz
  x,y,z
_cell_length_a	13.052
_cell_length_b	17.251
_cell_length_c	25.21
_cell_angle_alpha	90
_cell_angle_beta	90
_cell_angle_gamma	90
loop_
_atom_site_label
_atom_site_type_symbol
_atom_site_fract_x
_atom_site_fract_y
_atom_site_fract_z
_atom_site_charge
Mof_N 	N 	0.51628	0.12758	0.06845	-0.24
Mof_N 	N 	0.41876	0.16428	0.00352	-0.092
Mof_C 	C 	0.44073	0.07559	0.05873	0.091
Mof_H 	H 	0.4328	0.029	0.0784	-0.012
Mof_N 	N 	0.37958	0.09534	0.01967	-0.103
Mof_C 	C 	0.49994	0.18247	0.03263	0.083
Mof_H 	H 	0.5402	0.2279	0.0285	-0.004
Mof_C 	C 	0.36933	0.21033	0.96184	-0.055
Mof_H 	H 	0.3328	0.1752	0.9372	0.046
Mof_H 	H 	0.4224	0.2383	0.9413	0.044
Mof_C 	C 	0.2937	0.26859	0.98491	-0.039
Mof_H 	H 	0.331	0.304	0.0091	0.028
Mof_H 	H 	0.2651	0.3002	0.9557	0.034
Mof_C 	C 	0.2568	0.2291	0.9758	-0.039
Mof_H 	H 	0.2268	0.2598	0.9465	0.029
Mof_H 	H 	0.2181	0.1799	0.9781	0.028
Mof_N 	N 	0.51628	0.62758	0.56845	-0.241
Mof_N 	N 	0.41876	0.66428	0.50352	-0.093
Mof_C 	C 	0.44073	0.57559	0.55873	0.09
Mof_H 	H 	0.4328	0.529	0.5784	-0.013
Mof_N 	N 	0.37958	0.59534	0.51967	-0.104
Mof_C 	C 	0.49994	0.68247	0.53263	0.082
Mof_H 	H 	0.5402	0.7279	0.5285	-0.005
Mof_C 	C 	0.36933	0.71033	0.46184	-0.056
Mof_H 	H 	0.3328	0.6752	0.4372	0.045
Mof_H 	H 	0.4224	0.7383	0.4413	0.043
Mof_C 	C 	0.2937	0.76859	0.48491	-0.041
Mof_H 	H 	0.331	0.804	0.5091	0.027
Mof_H 	H 	0.2651	0.8002	0.4557	0.034
Mof_C 	C 	0.2568	0.7291	0.4758	-0.038
Mof_H 	H 	0.2268	0.7598	0.4465	0.029
Mof_H 	H 	0.2181	0.6799	0.4781	0.028
Mof_N 	N 	0.01628	0.12758	0.56845	-0.242
Mof_N 	N 	0.91876	0.16428	0.50352	-0.093
Mof_C 	C 	0.94073	0.07559	0.55873	0.09
Mof_H 	H 	0.9328	0.029	0.5784	-0.013
Mof_N 	N 	0.87958	0.09534	0.51967	-0.104
Mof_C 	C 	0.99994	0.18247	0.53263	0.082
Mof_H 	H 	0.0402	0.2279	0.5285	-0.005
Mof_C 	C 	0.86933	0.21033	0.46184	-0.056
Mof_H 	H 	0.8328	0.1752	0.4372	0.045
Mof_H 	H 	0.9224	0.2383	0.4413	0.043
Mof_C 	C 	0.7937	0.26859	0.48491	-0.041
Mof_H 	H 	0.831	0.304	0.5091	0.027
Mof_H 	H 	0.7651	0.3002	0.4557	0.034
Mof_C 	C 	0.7568	0.2291	0.4758	-0.038
Mof_H 	H 	0.7268	0.2598	0.4465	0.029
Mof_H 	H 	0.7181	0.1799	0.4781	0.028
Mof_N 	N 	0.01628	0.62758	0.06845	-0.241
Mof_N 	N 	0.91876	0.66428	0.00352	-0.093
Mof_C 	C 	0.94073	0.57559	0.05873	0.09
Mof_H 	H 	0.9328	0.529	0.0784	-0.013
Mof_N 	N 	0.87958	0.59534	0.01967	-0.104
Mof_C 	C 	0.99994	0.68247	0.03263	0.081
Mof_H 	H 	0.0402	0.7279	0.0285	-0.005
Mof_C 	C 	0.86933	0.71033	0.96184	-0.056
Mof_H 	H 	0.8328	0.6752	0.9372	0.045
Mof_H 	H 	0.9224	0.7383	0.9413	0.043
Mof_C 	C 	0.7937	0.76859	0.98491	-0.042
Mof_H 	H 	0.831	0.804	0.0091	0.027
Mof_H 	H 	0.7651	0.8002	0.9557	0.034
Mof_C 	C 	0.7568	0.7291	0.9758	-0.036
Mof_H 	H 	0.7268	0.7598	0.9465	0.028
Mof_H 	H 	0.7181	0.6799	0.9781	0.027
Mof_N 	N 	0.23372	0.62242	0.06845	-0.241
Mof_N 	N 	0.33124	0.58572	0.00352	-0.093
Mof_C 	C 	0.30927	0.67441	0.05873	0.09
Mof_H 	H 	0.3172	0.721	0.0784	-0.013
Mof_N 	N 	0.37042	0.65466	0.01967	-0.104
Mof_C 	C 	0.25006	0.56753	0.03263	0.082
Mof_H 	H 	0.2098	0.5221	0.0285	-0.005
Mof_C 	C 	0.38067	0.53967	0.96184	-0.056
Mof_H 	H 	0.4172	0.5748	0.9372	0.045
Mof_H 	H 	0.3276	0.5117	0.9413	0.043
Mof_C 	C 	0.4563	0.48141	0.98491	-0.041
Mof_H 	H 	0.419	0.446	0.0091	0.027
Mof_H 	H 	0.4849	0.4498	0.9557	0.034
Mof_C 	C 	0.4932	0.5209	0.9758	-0.038
Mof_H 	H 	0.5232	0.4902	0.9465	0.029
Mof_H 	H 	0.5319	0.5701	0.9781	0.028
Mof_N 	N 	0.23372	0.12242	0.56845	-0.241
Mof_N 	N 	0.33124	0.08572	0.50352	-0.093
Mof_C 	C 	0.30927	0.17441	0.55873	0.09
Mof_H 	H 	0.3172	0.221	0.5784	-0.013
Mof_N 	N 	0.37042	0.15466	0.51967	-0.104
Mof_C 	C 	0.25006	0.06753	0.53263	0.082
Mof_H 	H 	0.2098	0.0221	0.5285	-0.005
Mof_C 	C 	0.38067	0.03967	0.46184	-0.056
Mof_H 	H 	0.4172	0.0748	0.4372	0.045
Mof_H 	H 	0.3276	0.0117	0.4413	0.043
Mof_C 	C 	0.4563	0.98141	0.48491	-0.041
Mof_H 	H 	0.419	0.946	0.5091	0.027
Mof_H 	H 	0.4849	0.9498	0.4557	0.034
Mof_C 	C 	0.4932	0.0209	0.4758	-0.038
Mof_H 	H 	0.5232	0.9902	0.4465	0.029
Mof_H 	H 	0.5319	0.0701	0.4781	0.028
Mof_N 	N 	0.73372	0.62242	0.56845	-0.241
Mof_N 	N 	0.83124	0.58572	0.50352	-0.093
Mof_C 	C 	0.80927	0.67441	0.55873	0.09
Mof_H 	H 	0.8172	0.721	0.5784	-0.013
Mof_N 	N 	0.87042	0.65466	0.51967	-0.104
Mof_C 	C 	0.75006	0.56753	0.53263	0.082
Mof_H 	H 	0.7098	0.5221	0.5285	-0.005
Mof_C 	C 	0.88067	0.53967	0.46184	-0.056
Mof_H 	H 	0.9172	0.5748	0.4372	0.045
Mof_H 	H 	0.8276	0.5117	0.4413	0.043
Mof_C 	C 	0.9563	0.48141	0.48491	-0.041
Mof_H 	H 	0.919	0.446	0.5091	0.027
Mof_H 	H 	0.9849	0.4498	0.4557	0.034
Mof_C 	C 	0.9932	0.5209	0.4758	-0.038
Mof_H 	H 	0.0232	0.4902	0.4465	0.029
Mof_H 	H 	0.0319	0.5701	0.4781	0.028
Mof_N 	N 	0.73372	0.12242	0.06845	-0.241
Mof_N 	N 	0.83124	0.08572	0.00352	-0.093
Mof_C 	C 	0.80927	0.17441	0.05873	0.09
Mof_H 	H 	0.8172	0.221	0.0784	-0.013
Mof_N 	N 	0.87042	0.15466	0.01967	-0.104
Mof_C 	C 	0.75006	0.06753	0.03263	0.082
Mof_H 	H 	0.7098	0.0221	0.0285	-0.005
Mof_C 	C 	0.88067	0.03967	0.96184	-0.056
Mof_H 	H 	0.9172	0.0748	0.9372	0.045
Mof_H 	H 	0.8276	0.0117	0.9413	0.043
Mof_C 	C 	0.9563	0.98141	0.98491	-0.042
Mof_H 	H 	0.919	0.946	0.0091	0.027
Mof_H 	H 	0.9849	0.9498	0.9557	0.034
Mof_C 	C 	0.9932	0.0209	0.9758	-0.037
Mof_H 	H 	0.0232	0.9902	0.9465	0.029
Mof_H 	H 	0.0319	0.0701	0.9781	0.028
Mof_N 	N 	0.23372	0.12758	0.68155	-0.241
Mof_N 	N 	0.33124	0.16428	0.74648	-0.093
Mof_C 	C 	0.30927	0.07559	0.69127	0.09
Mof_H 	H 	0.3172	0.029	0.6716	-0.013
Mof_N 	N 	0.37042	0.09534	0.73033	-0.104
Mof_C 	C 	0.25006	0.18247	0.71737	0.082
Mof_H 	H 	0.2098	0.2279	0.7215	-0.005
Mof_C 	C 	0.38067	0.21033	0.78816	-0.056
Mof_H 	H 	0.4172	0.1752	0.8128	0.045
Mof_H 	H 	0.3276	0.2383	0.8087	0.043
Mof_C 	C 	0.4563	0.26859	0.76509	-0.041
Mof_H 	H 	0.419	0.304	0.7409	0.027
Mof_H 	H 	0.4849	0.3002	0.7943	0.034
Mof_C 	C 	0.4932	0.2291	0.7742	-0.038
Mof_H 	H 	0.5232	0.2598	0.8035	0.029
Mof_H 	H 	0.5319	0.1799	0.7719	0.028
Mof_N 	N 	0.23372	0.62758	0.18155	-0.241
Mof_N 	N 	0.33124	0.66428	0.24648	-0.093
Mof_C 	C 	0.30927	0.57559	0.19127	0.09
Mof_H 	H 	0.3172	0.529	0.1716	-0.013
Mof_N 	N 	0.37042	0.59534	0.23033	-0.104
Mof_C 	C 	0.25006	0.68247	0.21737	0.082
Mof_H 	H 	0.2098	0.7279	0.2215	-0.005
Mof_C 	C 	0.38067	0.71033	0.28816	-0.056
Mof_H 	H 	0.4172	0.6752	0.3128	0.045
Mof_H 	H 	0.3276	0.7383	0.3087	0.043
Mof_C 	C 	0.4563	0.76859	0.26509	-0.041
Mof_H 	H 	0.419	0.804	0.2409	0.027
Mof_H 	H 	0.4849	0.8002	0.2943	0.034
Mof_C 	C 	0.4932	0.7291	0.2742	-0.038
Mof_H 	H 	0.5232	0.7598	0.3035	0.029
Mof_H 	H 	0.5319	0.6799	0.2719	0.028
Mof_N 	N 	0.73372	0.12758	0.18155	-0.241
Mof_N 	N 	0.83124	0.16428	0.24648	-0.093
Mof_C 	C 	0.80927	0.07559	0.19127	0.09
Mof_H 	H 	0.8172	0.029	0.1716	-0.013
Mof_N 	N 	0.87042	0.09534	0.23033	-0.104
Mof_C 	C 	0.75006	0.18247	0.21737	0.082
Mof_H 	H 	0.7098	0.2279	0.2215	-0.005
Mof_C 	C 	0.88067	0.21033	0.28816	-0.056
Mof_H 	H 	0.9172	0.1752	0.3128	0.045
Mof_H 	H 	0.8276	0.2383	0.3087	0.043
Mof_C 	C 	0.9563	0.26859	0.26509	-0.042
Mof_H 	H 	0.919	0.304	0.2409	0.028
Mof_H 	H 	0.9849	0.3002	0.2943	0.034
Mof_C 	C 	0.9932	0.2291	0.2742	-0.037
Mof_H 	H 	0.0232	0.2598	0.3035	0.029
Mof_H 	H 	0.0319	0.1799	0.2719	0.028
Mof_N 	N 	0.73372	0.62758	0.68155	-0.241
Mof_N 	N 	0.83124	0.66428	0.74648	-0.093
Mof_C 	C 	0.80927	0.57559	0.69127	0.09
Mof_H 	H 	0.8172	0.529	0.6716	-0.013
Mof_N 	N 	0.87042	0.59534	0.73033	-0.104
Mof_C 	C 	0.75006	0.68247	0.71737	0.082
Mof_H 	H 	0.7098	0.7279	0.7215	-0.005
Mof_C 	C 	0.88067	0.71033	0.78816	-0.056
Mof_H 	H 	0.9172	0.6752	0.8128	0.045
Mof_H 	H 	0.8276	0.7383	0.8087	0.043
Mof_C 	C 	0.9563	0.76859	0.76509	-0.04
Mof_H 	H 	0.919	0.804	0.7409	0.027
Mof_H 	H 	0.9849	0.8002	0.7943	0.033
Mof_C 	C 	0.9932	0.7291	0.7742	-0.039
Mof_H 	H 	0.0232	0.7598	0.8035	0.029
Mof_H 	H 	0.0319	0.6799	0.7719	0.028
Mof_N 	N 	0.51628	0.62242	0.68155	-0.241
Mof_N 	N 	0.41876	0.58572	0.74648	-0.093
Mof_C 	C 	0.44073	0.67441	0.69127	0.09
Mof_H 	H 	0.4328	0.721	0.6716	-0.013
Mof_N 	N 	0.37958	0.65466	0.73033	-0.104
Mof_C 	C 	0.49994	0.56753	0.71737	0.082
Mof_H 	H 	0.5402	0.5221	0.7215	-0.005
Mof_C 	C 	0.36933	0.53967	0.78816	-0.056
Mof_H 	H 	0.3328	0.5748	0.8128	0.045
Mof_H 	H 	0.4224	0.5117	0.8087	0.043
Mof_C 	C 	0.2937	0.48141	0.76509	-0.041
Mof_H 	H 	0.331	0.446	0.7409	0.027
Mof_H 	H 	0.2651	0.4498	0.7943	0.034
Mof_C 	C 	0.2568	0.5209	0.7742	-0.038
Mof_H 	H 	0.2268	0.4902	0.8035	0.029
Mof_H 	H 	0.2181	0.5701	0.7719	0.028
Mof_N 	N 	0.51628	0.12242	0.18155	-0.241
Mof_N 	N 	0.41876	0.08572	0.24648	-0.093
Mof_C 	C 	0.44073	0.17441	0.19127	0.09
Mof_H 	H 	0.4328	0.221	0.1716	-0.013
Mof_N 	N 	0.37958	0.15466	0.23033	-0.104
Mof_C 	C 	0.49994	0.06753	0.21737	0.082
Mof_H 	H 	0.5402	0.0221	0.2215	-0.005
Mof_C 	C 	0.36933	0.03967	0.28816	-0.056
Mof_H 	H 	0.3328	0.0748	0.3128	0.045
Mof_H 	H 	0.4224	0.0117	0.3087	0.043
Mof_C 	C 	0.2937	0.98141	0.26509	-0.04
Mof_H 	H 	0.331	0.946	0.2409	0.027
Mof_H 	H 	0.2651	0.9498	0.2943	0.033
Mof_C 	C 	0.2568	0.0209	0.2742	-0.04
Mof_H 	H 	0.2268	0.9902	0.3035	0.029
Mof_H 	H 	0.2181	0.0701	0.2719	0.028
Mof_N 	N 	0.01628	0.62242	0.18155	-0.241
Mof_N 	N 	0.91876	0.58572	0.24648	-0.093
Mof_C 	C 	0.94073	0.67441	0.19127	0.09
Mof_H 	H 	0.9328	0.721	0.1716	-0.013
Mof_N 	N 	0.87958	0.65466	0.23033	-0.104
Mof_C 	C 	0.99994	0.56753	0.21737	0.082
Mof_H 	H 	0.0402	0.5221	0.2215	-0.005
Mof_C 	C 	0.86933	0.53967	0.28816	-0.056
Mof_H 	H 	0.8328	0.5748	0.3128	0.045
Mof_H 	H 	0.9224	0.5117	0.3087	0.043
Mof_C 	C 	0.7937	0.48141	0.26509	-0.041
Mof_H 	H 	0.831	0.446	0.2409	0.027
Mof_H 	H 	0.7651	0.4498	0.2943	0.034
Mof_C 	C 	0.7568	0.5209	0.2742	-0.038
Mof_H 	H 	0.7268	0.4902	0.3035	0.029
Mof_H 	H 	0.7181	0.5701	0.2719	0.028
Mof_N 	N 	0.01628	0.12242	0.68155	-0.242
Mof_N 	N 	0.91876	0.08572	0.74648	-0.093
Mof_C 	C 	0.94073	0.17441	0.69127	0.09
Mof_H 	H 	0.9328	0.221	0.6716	-0.013
Mof_N 	N 	0.87958	0.15466	0.73033	-0.104
Mof_C 	C 	0.99994	0.06753	0.71737	0.082
Mof_H 	H 	0.0402	0.0221	0.7215	-0.006
Mof_C 	C 	0.86933	0.03967	0.78816	-0.056
Mof_H 	H 	0.8328	0.0748	0.8128	0.045
Mof_H 	H 	0.9224	0.0117	0.8087	0.043
Mof_C 	C 	0.7937	0.98141	0.76509	-0.043
Mof_H 	H 	0.831	0.946	0.7409	0.028
Mof_H 	H 	0.7651	0.9498	0.7943	0.034
Mof_C 	C 	0.7568	0.0209	0.7742	-0.037
Mof_H 	H 	0.7268	0.9902	0.8035	0.028
Mof_H 	H 	0.7181	0.0701	0.7719	0.027
Mof_N 	N 	0.48372	0.87242	0.93155	-0.241
Mof_N 	N 	0.58124	0.83572	0.99648	-0.093
Mof_C 	C 	0.55927	0.92441	0.94127	0.09
Mof_H 	H 	0.5672	0.971	0.9216	-0.013
Mof_N 	N 	0.62042	0.90466	0.98033	-0.104
Mof_C 	C 	0.50006	0.81753	0.96737	0.082
Mof_H 	H 	0.4598	0.7721	0.9715	-0.005
Mof_C 	C 	0.63067	0.78967	0.03816	-0.056
Mof_H 	H 	0.6672	0.8248	0.0628	0.045
Mof_H 	H 	0.5776	0.7617	0.0587	0.043
Mof_C 	C 	0.7063	0.73141	0.01509	-0.04
Mof_H 	H 	0.669	0.696	0.9909	0.027
Mof_H 	H 	0.7349	0.6998	0.0443	0.033
Mof_C 	C 	0.7432	0.7709	0.0242	-0.04
Mof_H 	H 	0.7732	0.7402	0.0535	0.029
Mof_H 	H 	0.7819	0.8201	0.0219	0.028
Mof_N 	N 	0.48372	0.37242	0.43155	-0.241
Mof_N 	N 	0.58124	0.33572	0.49648	-0.093
Mof_C 	C 	0.55927	0.42441	0.44127	0.09
Mof_H 	H 	0.5672	0.471	0.4216	-0.013
Mof_N 	N 	0.62042	0.40466	0.48033	-0.104
Mof_C 	C 	0.50006	0.31753	0.46737	0.082
Mof_H 	H 	0.4598	0.2721	0.4715	-0.005
Mof_C 	C 	0.63067	0.28967	0.53816	-0.056
Mof_H 	H 	0.6672	0.3248	0.5628	0.045
Mof_H 	H 	0.5776	0.2617	0.5587	0.043
Mof_C 	C 	0.7063	0.23141	0.51509	-0.041
Mof_H 	H 	0.669	0.196	0.4909	0.027
Mof_H 	H 	0.7349	0.1998	0.5443	0.034
Mof_C 	C 	0.7432	0.2709	0.5242	-0.038
Mof_H 	H 	0.7732	0.2402	0.5535	0.029
Mof_H 	H 	0.7819	0.3201	0.5219	0.028
Mof_N 	N 	0.98372	0.87242	0.43155	-0.242
Mof_N 	N 	0.08124	0.83572	0.49648	-0.093
Mof_C 	C 	0.05927	0.92441	0.44127	0.09
Mof_H 	H 	0.0672	0.971	0.4216	-0.013
Mof_N 	N 	0.12042	0.90466	0.48033	-0.104
Mof_C 	C 	6e-05	0.81753	0.46737	0.082
Mof_H 	H 	0.9598	0.7721	0.4715	-0.005
Mof_C 	C 	0.13067	0.78967	0.53816	-0.056
Mof_H 	H 	0.1672	0.8248	0.5628	0.045
Mof_H 	H 	0.0776	0.7617	0.5587	0.043
Mof_C 	C 	0.2063	0.73141	0.51509	-0.041
Mof_H 	H 	0.169	0.696	0.4909	0.027
Mof_H 	H 	0.2349	0.6998	0.5443	0.034
Mof_C 	C 	0.2432	0.7709	0.5242	-0.038
Mof_H 	H 	0.2732	0.7402	0.5535	0.029
Mof_H 	H 	0.2819	0.8201	0.5219	0.028
Mof_N 	N 	0.98372	0.37242	0.93155	-0.241
Mof_N 	N 	0.08124	0.33572	0.99648	-0.093
Mof_C 	C 	0.05927	0.42441	0.94127	0.09
Mof_H 	H 	0.0672	0.471	0.9216	-0.013
Mof_N 	N 	0.12042	0.40466	0.98033	-0.104
Mof_C 	C 	6e-05	0.31753	0.96737	0.081
Mof_H 	H 	0.9598	0.2721	0.9715	-0.005
Mof_C 	C 	0.13067	0.28967	0.03816	-0.056
Mof_H 	H 	0.1672	0.3248	0.0628	0.045
Mof_H 	H 	0.0776	0.2617	0.0587	0.043
Mof_C 	C 	0.2063	0.23141	0.01509	-0.042
Mof_H 	H 	0.169	0.196	0.9909	0.027
Mof_H 	H 	0.2349	0.1998	0.0443	0.034
Mof_C 	C 	0.2432	0.2709	0.0242	-0.036
Mof_H 	H 	0.2732	0.2402	0.0535	0.028
Mof_H 	H 	0.2819	0.3201	0.0219	0.027
Mof_N 	N 	0.76628	0.37758	0.93155	-0.241
Mof_N 	N 	0.66876	0.41428	0.99648	-0.093
Mof_C 	C 	0.69073	0.32559	0.94127	0.09
Mof_H 	H 	0.6828	0.279	0.9216	-0.013
Mof_N 	N 	0.62958	0.34534	0.98033	-0.104
Mof_C 	C 	0.74994	0.43247	0.96737	0.082
Mof_H 	H 	0.7902	0.4779	0.9715	-0.005
Mof_C 	C 	0.61933	0.46033	0.03816	-0.056
Mof_H 	H 	0.5828	0.4252	0.0628	0.045
Mof_H 	H 	0.6724	0.4883	0.0587	0.043
Mof_C 	C 	0.5437	0.51859	0.01509	-0.041
Mof_H 	H 	0.581	0.554	0.9909	0.027
Mof_H 	H 	0.5151	0.5502	0.0443	0.034
Mof_C 	C 	0.5068	0.4791	0.0242	-0.038
Mof_H 	H 	0.4768	0.5098	0.0535	0.029
Mof_H 	H 	0.4681	0.4299	0.0219	0.028
Mof_N 	N 	0.76628	0.87758	0.43155	-0.241
Mof_N 	N 	0.66876	0.91428	0.49648	-0.093
Mof_C 	C 	0.69073	0.82559	0.44127	0.09
Mof_H 	H 	0.6828	0.779	0.4216	-0.013
Mof_N 	N 	0.62958	0.84534	0.48033	-0.104
Mof_C 	C 	0.74994	0.93247	0.46737	0.082
Mof_H 	H 	0.7902	0.9779	0.4715	-0.005
Mof_C 	C 	0.61933	0.96033	0.53816	-0.056
Mof_H 	H 	0.5828	0.9252	0.5628	0.045
Mof_H 	H 	0.6724	0.9883	0.5587	0.043
Mof_C 	C 	0.5437	0.01859	0.51509	-0.041
Mof_H 	H 	0.581	0.054	0.4909	0.027
Mof_H 	H 	0.5151	0.0502	0.5443	0.034
Mof_C 	C 	0.5068	0.9791	0.5242	-0.038
Mof_H 	H 	0.4768	0.0098	0.5535	0.029
Mof_H 	H 	0.4681	0.9299	0.5219	0.028
Mof_N 	N 	0.26628	0.37758	0.43155	-0.241
Mof_N 	N 	0.16876	0.41428	0.49648	-0.093
Mof_C 	C 	0.19073	0.32559	0.44127	0.09
Mof_H 	H 	0.1828	0.279	0.4216	-0.013
Mof_N 	N 	0.12958	0.34534	0.48033	-0.104
Mof_C 	C 	0.24994	0.43247	0.46737	0.082
Mof_H 	H 	0.2902	0.4779	0.4715	-0.005
Mof_C 	C 	0.11933	0.46033	0.53816	-0.056
Mof_H 	H 	0.0828	0.4252	0.5628	0.045
Mof_H 	H 	0.1724	0.4883	0.5587	0.043
Mof_C 	C 	0.0437	0.51859	0.51509	-0.041
Mof_H 	H 	0.081	0.554	0.4909	0.027
Mof_H 	H 	0.0151	0.5502	0.5443	0.034
Mof_C 	C 	0.0068	0.4791	0.5242	-0.038
Mof_H 	H 	0.9768	0.5098	0.5535	0.029
Mof_H 	H 	0.9681	0.4299	0.5219	0.028
Mof_N 	N 	0.26628	0.87758	0.93155	-0.241
Mof_N 	N 	0.16876	0.91428	0.99648	-0.093
Mof_C 	C 	0.19073	0.82559	0.94127	0.09
Mof_H 	H 	0.1828	0.779	0.9216	-0.013
Mof_N 	N 	0.12958	0.84534	0.98033	-0.104
Mof_C 	C 	0.24994	0.93247	0.96737	0.082
Mof_H 	H 	0.2902	0.9779	0.9715	-0.005
Mof_C 	C 	0.11933	0.96033	0.03816	-0.056
Mof_H 	H 	0.0828	0.9252	0.0628	0.045
Mof_H 	H 	0.1724	0.9883	0.0587	0.043
Mof_C 	C 	0.0437	0.01859	0.01509	-0.042
Mof_H 	H 	0.081	0.054	0.9909	0.027
Mof_H 	H 	0.0151	0.0502	0.0443	0.034
Mof_C 	C 	0.0068	0.9791	0.0242	-0.037
Mof_H 	H 	0.9768	0.0098	0.0535	0.029
Mof_H 	H 	0.9681	0.9299	0.0219	0.028
Mof_N 	N 	0.76628	0.87242	0.31845	-0.241
Mof_N 	N 	0.66876	0.83572	0.25352	-0.093
Mof_C 	C 	0.69073	0.92441	0.30873	0.09
Mof_H 	H 	0.6828	0.971	0.3284	-0.013
Mof_N 	N 	0.62958	0.90466	0.26967	-0.104
Mof_C 	C 	0.74994	0.81753	0.28263	0.082
Mof_H 	H 	0.7902	0.7721	0.2785	-0.005
Mof_C 	C 	0.61933	0.78967	0.21184	-0.056
Mof_H 	H 	0.5828	0.8248	0.1872	0.045
Mof_H 	H 	0.6724	0.7617	0.1913	0.043
Mof_C 	C 	0.5437	0.73141	0.23491	-0.041
Mof_H 	H 	0.581	0.696	0.2591	0.027
Mof_H 	H 	0.5151	0.6998	0.2057	0.034
Mof_C 	C 	0.5068	0.7709	0.2258	-0.038
Mof_H 	H 	0.4768	0.7402	0.1965	0.029
Mof_H 	H 	0.4681	0.8201	0.2281	0.028
Mof_N 	N 	0.76628	0.37242	0.81845	-0.241
Mof_N 	N 	0.66876	0.33572	0.75352	-0.093
Mof_C 	C 	0.69073	0.42441	0.80873	0.09
Mof_H 	H 	0.6828	0.471	0.8284	-0.013
Mof_N 	N 	0.62958	0.40466	0.76967	-0.104
Mof_C 	C 	0.74994	0.31753	0.78263	0.082
Mof_H 	H 	0.7902	0.2721	0.7785	-0.005
Mof_C 	C 	0.61933	0.28967	0.71184	-0.056
Mof_H 	H 	0.5828	0.3248	0.6872	0.045
Mof_H 	H 	0.6724	0.2617	0.6913	0.043
Mof_C 	C 	0.5437	0.23141	0.73491	-0.041
Mof_H 	H 	0.581	0.196	0.7591	0.027
Mof_H 	H 	0.5151	0.1998	0.7057	0.034
Mof_C 	C 	0.5068	0.2709	0.7258	-0.038
Mof_H 	H 	0.4768	0.2402	0.6965	0.029
Mof_H 	H 	0.4681	0.3201	0.7281	0.028
Mof_N 	N 	0.26628	0.87242	0.81845	-0.241
Mof_N 	N 	0.16876	0.83572	0.75352	-0.093
Mof_C 	C 	0.19073	0.92441	0.80873	0.09
Mof_H 	H 	0.1828	0.971	0.8284	-0.013
Mof_N 	N 	0.12958	0.90466	0.76967	-0.104
Mof_C 	C 	0.24994	0.81753	0.78263	0.082
Mof_H 	H 	0.2902	0.7721	0.7785	-0.005
Mof_C 	C 	0.11933	0.78967	0.71184	-0.056
Mof_H 	H 	0.0828	0.8248	0.6872	0.045
Mof_H 	H 	0.1724	0.7617	0.6913	0.043
Mof_C 	C 	0.0437	0.73141	0.73491	-0.042
Mof_H 	H 	0.081	0.696	0.7591	0.028
Mof_H 	H 	0.0151	0.6998	0.7057	0.034
Mof_C 	C 	0.0068	0.7709	0.7258	-0.037
Mof_H 	H 	0.9768	0.7402	0.6965	0.029
Mof_H 	H 	0.9681	0.8201	0.7281	0.028
Mof_N 	N 	0.26628	0.37242	0.31845	-0.241
Mof_N 	N 	0.16876	0.33572	0.25352	-0.093
Mof_C 	C 	0.19073	0.42441	0.30873	0.09
Mof_H 	H 	0.1828	0.471	0.3284	-0.013
Mof_N 	N 	0.12958	0.40466	0.26967	-0.104
Mof_C 	C 	0.24994	0.31753	0.28263	0.082
Mof_H 	H 	0.2902	0.2721	0.2785	-0.005
Mof_C 	C 	0.11933	0.28967	0.21184	-0.056
Mof_H 	H 	0.0828	0.3248	0.1872	0.045
Mof_H 	H 	0.1724	0.2617	0.1913	0.043
Mof_C 	C 	0.0437	0.23141	0.23491	-0.04
Mof_H 	H 	0.081	0.196	0.2591	0.027
Mof_H 	H 	0.0151	0.1998	0.2057	0.033
Mof_C 	C 	0.0068	0.2709	0.2258	-0.039
Mof_H 	H 	0.9768	0.2402	0.1965	0.029
Mof_H 	H 	0.9681	0.3201	0.2281	0.028
Mof_N 	N 	0.48372	0.37758	0.31845	-0.241
Mof_N 	N 	0.58124	0.41428	0.25352	-0.093
Mof_C 	C 	0.55927	0.32559	0.30873	0.09
Mof_H 	H 	0.5672	0.279	0.3284	-0.013
Mof_N 	N 	0.62042	0.34534	0.26967	-0.104
Mof_C 	C 	0.50006	0.43247	0.28263	0.082
Mof_H 	H 	0.4598	0.4779	0.2785	-0.005
Mof_C 	C 	0.63067	0.46033	0.21184	-0.056
Mof_H 	H 	0.6672	0.4252	0.1872	0.045
Mof_H 	H 	0.5776	0.4883	0.1913	0.043
Mof_C 	C 	0.7063	0.51859	0.23491	-0.041
Mof_H 	H 	0.669	0.554	0.2591	0.027
Mof_H 	H 	0.7349	0.5502	0.2057	0.034
Mof_C 	C 	0.7432	0.4791	0.2258	-0.038
Mof_H 	H 	0.7732	0.5098	0.1965	0.029
Mof_H 	H 	0.7819	0.4299	0.2281	0.028
Mof_N 	N 	0.48372	0.87758	0.81845	-0.241
Mof_N 	N 	0.58124	0.91428	0.75352	-0.093
Mof_C 	C 	0.55927	0.82559	0.80873	0.09
Mof_H 	H 	0.5672	0.779	0.8284	-0.013
Mof_N 	N 	0.62042	0.84534	0.76967	-0.104
Mof_C 	C 	0.50006	0.93247	0.78263	0.082
Mof_H 	H 	0.4598	0.9779	0.7785	-0.005
Mof_C 	C 	0.63067	0.96033	0.71184	-0.056
Mof_H 	H 	0.6672	0.9252	0.6872	0.045
Mof_H 	H 	0.5776	0.9883	0.6913	0.043
Mof_C 	C 	0.7063	0.01859	0.73491	-0.04
Mof_H 	H 	0.669	0.054	0.7591	0.027
Mof_H 	H 	0.7349	0.0502	0.7057	0.033
Mof_C 	C 	0.7432	0.9791	0.7258	-0.04
Mof_H 	H 	0.7732	0.0098	0.6965	0.029
Mof_H 	H 	0.7819	0.9299	0.7281	0.028
Mof_N 	N 	0.98372	0.37758	0.81845	-0.241
Mof_N 	N 	0.08124	0.41428	0.75352	-0.093
Mof_C 	C 	0.05927	0.32559	0.80873	0.09
Mof_H 	H 	0.0672	0.279	0.8284	-0.013
Mof_N 	N 	0.12042	0.34534	0.76967	-0.104
Mof_C 	C 	6e-05	0.43247	0.78263	0.082
Mof_H 	H 	0.9598	0.4779	0.7785	-0.005
Mof_C 	C 	0.13067	0.46033	0.71184	-0.056
Mof_H 	H 	0.1672	0.4252	0.6872	0.045
Mof_H 	H 	0.0776	0.4883	0.6913	0.043
Mof_C 	C 	0.2063	0.51859	0.73491	-0.041
Mof_H 	H 	0.169	0.554	0.7591	0.027
Mof_H 	H 	0.2349	0.5502	0.7057	0.034
Mof_C 	C 	0.2432	0.4791	0.7258	-0.038
Mof_H 	H 	0.2732	0.5098	0.6965	0.029
Mof_H 	H 	0.2819	0.4299	0.7281	0.028
Mof_N 	N 	0.98372	0.87758	0.31845	-0.242
Mof_N 	N 	0.08124	0.91428	0.25352	-0.093
Mof_C 	C 	0.05927	0.82559	0.30873	0.09
Mof_H 	H 	0.0672	0.779	0.3284	-0.013
Mof_N 	N 	0.12042	0.84534	0.26967	-0.104
Mof_C 	C 	6e-05	0.93247	0.28263	0.082
Mof_H 	H 	0.9598	0.9779	0.2785	-0.006
Mof_C 	C 	0.13067	0.96033	0.21184	-0.056
Mof_H 	H 	0.1672	0.9252	0.1872	0.045
Mof_H 	H 	0.0776	0.9883	0.1913	0.043
Mof_C 	C 	0.2063	0.01859	0.23491	-0.043
Mof_H 	H 	0.169	0.054	0.2591	0.028
Mof_H 	H 	0.2349	0.0502	0.2057	0.034
Mof_C 	C 	0.2432	0.9791	0.2258	-0.037
Mof_H 	H 	0.2732	0.0098	0.1965	0.028
Mof_H 	H 	0.2819	0.9299	0.2281	0.027
Mof_Cu	Cu	0.625	0.125	0.125	0.853
Mof_Cu	Cu	0.625	0.625	0.625	0.853
Mof_Cu	Cu	0.125	0.625	0.125	0.853
Mof_Cu	Cu	0.125	0.125	0.625	0.853
Mof_Cu	Cu	0.375	0.875	0.875	0.853
Mof_Cu	Cu	0.375	0.375	0.375	0.853
Mof_Cu	Cu	0.875	0.375	0.875	0.853
Mof_Cu	Cu	0.875	0.875	0.375	0.853
_end
