# CIF file generated by openbabel 3.1.0, see https://openbabel.org
data_I
_chemical_name_common 'image0'
_cell_length_a 26.404
_cell_length_b 26.404
_cell_length_c 26.404
_cell_angle_alpha 90
_cell_angle_beta 90
_cell_angle_gamma 90
_space_group_name_H-M_alt 'P 1'
_space_group_name_Hall 'P 1'
loop_
    _symmetry_equiv_pos_as_xyz
    x,y,z
loop_
    _atom_site_label
    _atom_site_type_symbol
    _atom_site_fract_x
    _atom_site_fract_y
    _atom_site_fract_z
    _atom_site_occupancy
    U1       U        0.23820    0.57193    0.15518    1.000
    P1       P        0.12415    0.64320    0.13216    1.000
    C1       C        0.16980    0.68910    0.11140    1.000
    H1       H        0.15270    0.72070    0.10380    1.000
    H2       H        0.18600    0.67720    0.08070    1.000
    C2       C        0.20940    0.69810    0.15170    1.000
    O1       O        0.15295    0.59769    0.14997    1.000
    O2       O        0.08991    0.66639    0.17312    1.000
    O3       O        0.08767    0.63290    0.08849    1.000
    O4       O        0.23846    0.66229    0.16369    1.000
    O5       O        0.21135    0.74112    0.17312    1.000
    U2       U        0.73820    0.07193    0.65518    1.000
    P2       P        0.62415    0.14320    0.63216    1.000
    C3       C        0.66980    0.18910    0.61140    1.000
    H3       H        0.65270    0.22070    0.60380    1.000
    H4       H        0.68600    0.17720    0.58070    1.000
    C4       C        0.70940    0.19810    0.65170    1.000
    O6       O        0.65295    0.09769    0.64997    1.000
    O7       O        0.58991    0.16639    0.67312    1.000
    O8       O        0.58767    0.13290    0.58849    1.000
    O9       O        0.73846    0.16229    0.66369    1.000
    O10      O        0.71135    0.24112    0.67312    1.000
    U3       U        0.76180    0.42807    0.15518    1.000
    P3       P        0.87585    0.35680    0.13216    1.000
    C5       C        0.83020    0.31090    0.11140    1.000
    H5       H        0.84730    0.27930    0.10380    1.000
    H6       H        0.81400    0.32280    0.08070    1.000
    C6       C        0.79060    0.30190    0.15170    1.000
    O11      O        0.84705    0.40231    0.14997    1.000
    O12      O        0.91009    0.33361    0.17312    1.000
    O13      O        0.91233    0.36710    0.08849    1.000
    O14      O        0.76154    0.33771    0.16369    1.000
    O15      O        0.78865    0.25888    0.17312    1.000
    U4       U        0.26180    0.92807    0.65518    1.000
    P4       P        0.37585    0.85680    0.63216    1.000
    C7       C        0.33020    0.81090    0.61140    1.000
    H7       H        0.34730    0.77930    0.60380    1.000
    H8       H        0.31400    0.82280    0.58070    1.000
    C8       C        0.29060    0.80190    0.65170    1.000
    O16      O        0.34705    0.90231    0.64997    1.000
    O17      O        0.41009    0.83361    0.67312    1.000
    O18      O        0.41233    0.86710    0.58849    1.000
    O19      O        0.26154    0.83771    0.66369    1.000
    O20      O        0.28865    0.75888    0.67312    1.000
    U5       U        0.76180    0.57193    0.84482    1.000
    P5       P        0.87585    0.64320    0.86784    1.000
    C9       C        0.83020    0.68910    0.88860    1.000
    H9       H        0.84730    0.72070    0.89620    1.000
    H10      H        0.81400    0.67720    0.91930    1.000
    C10      C        0.79060    0.69810    0.84830    1.000
    O21      O        0.84705    0.59769    0.85003    1.000
    O22      O        0.91009    0.66639    0.82688    1.000
    O23      O        0.91233    0.63290    0.91151    1.000
    O24      O        0.76154    0.66229    0.83631    1.000
    O25      O        0.78865    0.74112    0.82688    1.000
    U6       U        0.26180    0.07193    0.34482    1.000
    P6       P        0.37585    0.14320    0.36784    1.000
    C11      C        0.33020    0.18910    0.38860    1.000
    H11      H        0.34730    0.22070    0.39620    1.000
    H12      H        0.31400    0.17720    0.41930    1.000
    C12      C        0.29060    0.19810    0.34830    1.000
    O26      O        0.34705    0.09769    0.35003    1.000
    O27      O        0.41009    0.16639    0.32688    1.000
    O28      O        0.41233    0.13290    0.41151    1.000
    O29      O        0.26154    0.16229    0.33631    1.000
    O30      O        0.28865    0.24112    0.32688    1.000
    U7       U        0.23820    0.42807    0.84482    1.000
    P7       P        0.12415    0.35680    0.86784    1.000
    C13      C        0.16980    0.31090    0.88860    1.000
    H13      H        0.15270    0.27930    0.89620    1.000
    H14      H        0.18600    0.32280    0.91930    1.000
    C14      C        0.20940    0.30190    0.84830    1.000
    O31      O        0.15295    0.40231    0.85003    1.000
    O32      O        0.08991    0.33361    0.82688    1.000
    O33      O        0.08767    0.36710    0.91151    1.000
    O34      O        0.23846    0.33771    0.83631    1.000
    O35      O        0.21135    0.25888    0.82688    1.000
    U8       U        0.73820    0.92807    0.34482    1.000
    P8       P        0.62415    0.85680    0.36784    1.000
    C15      C        0.66980    0.81090    0.38860    1.000
    H15      H        0.65270    0.77930    0.39620    1.000
    H16      H        0.68600    0.82280    0.41930    1.000
    C16      C        0.70940    0.80190    0.34830    1.000
    O36      O        0.65295    0.90231    0.35003    1.000
    O37      O        0.58991    0.83361    0.32688    1.000
    O38      O        0.58767    0.86710    0.41151    1.000
    O39      O        0.73846    0.83771    0.33631    1.000
    O40      O        0.71135    0.75888    0.32688    1.000
    U9       U        0.15518    0.23820    0.57193    1.000
    P9       P        0.13216    0.12415    0.64320    1.000
    C17      C        0.11140    0.16980    0.68910    1.000
    H17      H        0.10380    0.15270    0.72070    1.000
    H18      H        0.08070    0.18600    0.67720    1.000
    C18      C        0.15170    0.20940    0.69810    1.000
    O41      O        0.14997    0.15295    0.59769    1.000
    O42      O        0.17312    0.08991    0.66639    1.000
    O43      O        0.08849    0.08767    0.63290    1.000
    O44      O        0.16369    0.23846    0.66229    1.000
    O45      O        0.17312    0.21135    0.74112    1.000
    U10      U        0.65518    0.73820    0.07193    1.000
    P10      P        0.63216    0.62415    0.14320    1.000
    C19      C        0.61140    0.66980    0.18910    1.000
    H19      H        0.60380    0.65270    0.22070    1.000
    H20      H        0.58070    0.68600    0.17720    1.000
    C20      C        0.65170    0.70940    0.19810    1.000
    O46      O        0.64997    0.65295    0.09769    1.000
    O47      O        0.67312    0.58991    0.16639    1.000
    O48      O        0.58849    0.58767    0.13290    1.000
    O49      O        0.66369    0.73846    0.16229    1.000
    O50      O        0.67312    0.71135    0.24112    1.000
    U11      U        0.15518    0.76180    0.42807    1.000
    P11      P        0.13216    0.87585    0.35680    1.000
    C21      C        0.11140    0.83020    0.31090    1.000
    H21      H        0.10380    0.84730    0.27930    1.000
    H22      H        0.08070    0.81400    0.32280    1.000
    C22      C        0.15170    0.79060    0.30190    1.000
    O51      O        0.14997    0.84705    0.40231    1.000
    O52      O        0.17312    0.91009    0.33361    1.000
    O53      O        0.08849    0.91233    0.36710    1.000
    O54      O        0.16369    0.76154    0.33771    1.000
    O55      O        0.17312    0.78865    0.25888    1.000
    U12      U        0.65518    0.26180    0.92807    1.000
    P12      P        0.63216    0.37585    0.85680    1.000
    C23      C        0.61140    0.33020    0.81090    1.000
    H23      H        0.60380    0.34730    0.77930    1.000
    H24      H        0.58070    0.31400    0.82280    1.000
    C24      C        0.65170    0.29060    0.80190    1.000
    O56      O        0.64997    0.34705    0.90231    1.000
    O57      O        0.67312    0.41009    0.83361    1.000
    O58      O        0.58849    0.41233    0.86710    1.000
    O59      O        0.66369    0.26154    0.83771    1.000
    O60      O        0.67312    0.28865    0.75888    1.000
    U13      U        0.84482    0.76180    0.57193    1.000
    P13      P        0.86784    0.87585    0.64320    1.000
    C25      C        0.88860    0.83020    0.68910    1.000
    H25      H        0.89620    0.84730    0.72070    1.000
    H26      H        0.91930    0.81400    0.67720    1.000
    C26      C        0.84830    0.79060    0.69810    1.000
    O61      O        0.85003    0.84705    0.59769    1.000
    O62      O        0.82688    0.91009    0.66639    1.000
    O63      O        0.91151    0.91233    0.63290    1.000
    O64      O        0.83631    0.76154    0.66229    1.000
    O65      O        0.82688    0.78865    0.74112    1.000
    U14      U        0.34482    0.26180    0.07193    1.000
    P14      P        0.36784    0.37585    0.14320    1.000
    C27      C        0.38860    0.33020    0.18910    1.000
    H27      H        0.39620    0.34730    0.22070    1.000
    H28      H        0.41930    0.31400    0.17720    1.000
    C28      C        0.34830    0.29060    0.19810    1.000
    O66      O        0.35003    0.34705    0.09769    1.000
    O67      O        0.32688    0.41009    0.16639    1.000
    O68      O        0.41151    0.41233    0.13290    1.000
    O69      O        0.33631    0.26154    0.16229    1.000
    O70      O        0.32688    0.28865    0.24112    1.000
    U15      U        0.84482    0.23820    0.42807    1.000
    P15      P        0.86784    0.12415    0.35680    1.000
    C29      C        0.88860    0.16980    0.31090    1.000
    H29      H        0.89620    0.15270    0.27930    1.000
    H30      H        0.91930    0.18600    0.32280    1.000
    C30      C        0.84830    0.20940    0.30190    1.000
    O71      O        0.85003    0.15295    0.40231    1.000
    O72      O        0.82688    0.08991    0.33361    1.000
    O73      O        0.91151    0.08767    0.36710    1.000
    O74      O        0.83631    0.23846    0.33771    1.000
    O75      O        0.82688    0.21135    0.25888    1.000
    U16      U        0.34482    0.73820    0.92807    1.000
    P16      P        0.36784    0.62415    0.85680    1.000
    C31      C        0.38860    0.66980    0.81090    1.000
    H31      H        0.39620    0.65270    0.77930    1.000
    H32      H        0.41930    0.68600    0.82280    1.000
    C32      C        0.34830    0.70940    0.80190    1.000
    O76      O        0.35003    0.65295    0.90231    1.000
    O77      O        0.32688    0.58991    0.83361    1.000
    O78      O        0.41151    0.58767    0.86710    1.000
    O79      O        0.33631    0.73846    0.83771    1.000
    O80      O        0.32688    0.71135    0.75888    1.000
    U17      U        0.57193    0.15518    0.23820    1.000
    P17      P        0.64320    0.13216    0.12415    1.000
    C33      C        0.68910    0.11140    0.16980    1.000
    H33      H        0.72070    0.10380    0.15270    1.000
    H34      H        0.67720    0.08070    0.18600    1.000
    C34      C        0.69810    0.15170    0.20940    1.000
    O81      O        0.59769    0.14997    0.15295    1.000
    O82      O        0.66639    0.17312    0.08991    1.000
    O83      O        0.63290    0.08849    0.08767    1.000
    O84      O        0.66229    0.16369    0.23846    1.000
    O85      O        0.74112    0.17312    0.21135    1.000
    U18      U        0.07193    0.65518    0.73820    1.000
    P18      P        0.14320    0.63216    0.62415    1.000
    C35      C        0.18910    0.61140    0.66980    1.000
    H35      H        0.22070    0.60380    0.65270    1.000
    H36      H        0.17720    0.58070    0.68600    1.000
    C36      C        0.19810    0.65170    0.70940    1.000
    O86      O        0.09769    0.64997    0.65295    1.000
    O87      O        0.16639    0.67312    0.58991    1.000
    O88      O        0.13290    0.58849    0.58767    1.000
    O89      O        0.16229    0.66369    0.73846    1.000
    O90      O        0.24112    0.67312    0.71135    1.000
    U19      U        0.42807    0.15518    0.76180    1.000
    P19      P        0.35680    0.13216    0.87585    1.000
    C37      C        0.31090    0.11140    0.83020    1.000
    H37      H        0.27930    0.10380    0.84730    1.000
    H38      H        0.32280    0.08070    0.81400    1.000
    C38      C        0.30190    0.15170    0.79060    1.000
    O91      O        0.40231    0.14997    0.84705    1.000
    O92      O        0.33361    0.17312    0.91009    1.000
    O93      O        0.36710    0.08849    0.91233    1.000
    O94      O        0.33771    0.16369    0.76154    1.000
    O95      O        0.25888    0.17312    0.78865    1.000
    U20      U        0.92807    0.65518    0.26180    1.000
    P20      P        0.85680    0.63216    0.37585    1.000
    C39      C        0.81090    0.61140    0.33020    1.000
    H39      H        0.77930    0.60380    0.34730    1.000
    H40      H        0.82280    0.58070    0.31400    1.000
    C40      C        0.80190    0.65170    0.29060    1.000
    O96      O        0.90231    0.64997    0.34705    1.000
    O97      O        0.83361    0.67312    0.41009    1.000
    O98      O        0.86710    0.58849    0.41233    1.000
    O99      O        0.83771    0.66369    0.26154    1.000
    O100     O        0.75888    0.67312    0.28865    1.000
    U21      U        0.57193    0.84482    0.76180    1.000
    P21      P        0.64320    0.86784    0.87585    1.000
    C41      C        0.68910    0.88860    0.83020    1.000
    H41      H        0.72070    0.89620    0.84730    1.000
    H42      H        0.67720    0.91930    0.81400    1.000
    C42      C        0.69810    0.84830    0.79060    1.000
    O101     O        0.59769    0.85003    0.84705    1.000
    O102     O        0.66639    0.82688    0.91009    1.000
    O103     O        0.63290    0.91151    0.91233    1.000
    O104     O        0.66229    0.83631    0.76154    1.000
    O105     O        0.74112    0.82688    0.78865    1.000
    U22      U        0.07193    0.34482    0.26180    1.000
    P22      P        0.14320    0.36784    0.37585    1.000
    C43      C        0.18910    0.38860    0.33020    1.000
    H43      H        0.22070    0.39620    0.34730    1.000
    H44      H        0.17720    0.41930    0.31400    1.000
    C44      C        0.19810    0.34830    0.29060    1.000
    O106     O        0.09769    0.35003    0.34705    1.000
    O107     O        0.16639    0.32688    0.41009    1.000
    O108     O        0.13290    0.41151    0.41233    1.000
    O109     O        0.16229    0.33631    0.26154    1.000
    O110     O        0.24112    0.32688    0.28865    1.000
    U23      U        0.42807    0.84482    0.23820    1.000
    P23      P        0.35680    0.86784    0.12415    1.000
    C45      C        0.31090    0.88860    0.16980    1.000
    H45      H        0.27930    0.89620    0.15270    1.000
    H46      H        0.32280    0.91930    0.18600    1.000
    C46      C        0.30190    0.84830    0.20940    1.000
    O111     O        0.40231    0.85003    0.15295    1.000
    O112     O        0.33361    0.82688    0.08991    1.000
    O113     O        0.36710    0.91151    0.08767    1.000
    O114     O        0.33771    0.83631    0.23846    1.000
    O115     O        0.25888    0.82688    0.21135    1.000
    U24      U        0.92807    0.34482    0.73820    1.000
    P24      P        0.85680    0.36784    0.62415    1.000
    C47      C        0.81090    0.38860    0.66980    1.000
    H47      H        0.77930    0.39620    0.65270    1.000
    H48      H        0.82280    0.41930    0.68600    1.000
    C48      C        0.80190    0.34830    0.70940    1.000
    O116     O        0.90231    0.35003    0.65295    1.000
    O117     O        0.83361    0.32688    0.58991    1.000
    O118     O        0.86710    0.41151    0.58767    1.000
    O119     O        0.83771    0.33631    0.73846    1.000
    O120     O        0.75888    0.32688    0.71135    1.000
    U25      U        0.76180    0.42807    0.84482    1.000
    P25      P        0.87585    0.35680    0.86784    1.000
    C49      C        0.83020    0.31090    0.88860    1.000
    H49      H        0.84730    0.27930    0.89620    1.000
    H50      H        0.81400    0.32280    0.91930    1.000
    C50      C        0.79060    0.30190    0.84830    1.000
    O121     O        0.84705    0.40231    0.85003    1.000
    O122     O        0.91009    0.33361    0.82688    1.000
    O123     O        0.91233    0.36710    0.91151    1.000
    O124     O        0.76154    0.33771    0.83631    1.000
    O125     O        0.78865    0.25888    0.82688    1.000
    U26      U        0.26180    0.92807    0.34482    1.000
    P26      P        0.37585    0.85680    0.36784    1.000
    C51      C        0.33020    0.81090    0.38860    1.000
    H51      H        0.34730    0.77930    0.39620    1.000
    H52      H        0.31400    0.82280    0.41930    1.000
    C52      C        0.29060    0.80190    0.34830    1.000
    O126     O        0.34705    0.90231    0.35003    1.000
    O127     O        0.41009    0.83361    0.32688    1.000
    O128     O        0.41233    0.86710    0.41151    1.000
    O129     O        0.26154    0.83771    0.33631    1.000
    O130     O        0.28865    0.75888    0.32688    1.000
    U27      U        0.23820    0.57193    0.84482    1.000
    P27      P        0.12415    0.64320    0.86784    1.000
    C53      C        0.16980    0.68910    0.88860    1.000
    H53      H        0.15270    0.72070    0.89620    1.000
    H54      H        0.18600    0.67720    0.91930    1.000
    C54      C        0.20940    0.69810    0.84830    1.000
    O131     O        0.15295    0.59769    0.85003    1.000
    O132     O        0.08991    0.66639    0.82688    1.000
    O133     O        0.08767    0.63290    0.91151    1.000
    O134     O        0.23846    0.66229    0.83631    1.000
    O135     O        0.21135    0.74112    0.82688    1.000
    U28      U        0.73820    0.07193    0.34482    1.000
    P28      P        0.62415    0.14320    0.36784    1.000
    C55      C        0.66980    0.18910    0.38860    1.000
    H55      H        0.65270    0.22070    0.39620    1.000
    H56      H        0.68600    0.17720    0.41930    1.000
    C56      C        0.70940    0.19810    0.34830    1.000
    O136     O        0.65295    0.09769    0.35003    1.000
    O137     O        0.58991    0.16639    0.32688    1.000
    O138     O        0.58767    0.13290    0.41151    1.000
    O139     O        0.73846    0.16229    0.33631    1.000
    O140     O        0.71135    0.24112    0.32688    1.000
    U29      U        0.23820    0.42807    0.15518    1.000
    P29      P        0.12415    0.35680    0.13216    1.000
    C57      C        0.16980    0.31090    0.11140    1.000
    H57      H        0.15270    0.27930    0.10380    1.000
    H58      H        0.18600    0.32280    0.08070    1.000
    C58      C        0.20940    0.30190    0.15170    1.000
    O141     O        0.15295    0.40231    0.14997    1.000
    O142     O        0.08991    0.33361    0.17312    1.000
    O143     O        0.08767    0.36710    0.08849    1.000
    O144     O        0.23846    0.33771    0.16369    1.000
    O145     O        0.21135    0.25888    0.17312    1.000
    U30      U        0.73820    0.92807    0.65518    1.000
    P30      P        0.62415    0.85680    0.63216    1.000
    C59      C        0.66980    0.81090    0.61140    1.000
    H59      H        0.65270    0.77930    0.60380    1.000
    H60      H        0.68600    0.82280    0.58070    1.000
    C60      C        0.70940    0.80190    0.65170    1.000
    O146     O        0.65295    0.90231    0.64997    1.000
    O147     O        0.58991    0.83361    0.67312    1.000
    O148     O        0.58767    0.86710    0.58849    1.000
    O149     O        0.73846    0.83771    0.66369    1.000
    O150     O        0.71135    0.75888    0.67312    1.000
    U31      U        0.76180    0.57193    0.15518    1.000
    P31      P        0.87585    0.64320    0.13216    1.000
    C61      C        0.83020    0.68910    0.11140    1.000
    H61      H        0.84730    0.72070    0.10380    1.000
    H62      H        0.81400    0.67720    0.08070    1.000
    C62      C        0.79060    0.69810    0.15170    1.000
    O151     O        0.84705    0.59769    0.14997    1.000
    O152     O        0.91009    0.66639    0.17312    1.000
    O153     O        0.91233    0.63290    0.08849    1.000
    O154     O        0.76154    0.66229    0.16369    1.000
    O155     O        0.78865    0.74112    0.17312    1.000
    U32      U        0.26180    0.07193    0.65518    1.000
    P32      P        0.37585    0.14320    0.63216    1.000
    C63      C        0.33020    0.18910    0.61140    1.000
    H63      H        0.34730    0.22070    0.60380    1.000
    H64      H        0.31400    0.17720    0.58070    1.000
    C64      C        0.29060    0.19810    0.65170    1.000
    O156     O        0.34705    0.09769    0.64997    1.000
    O157     O        0.41009    0.16639    0.67312    1.000
    O158     O        0.41233    0.13290    0.58849    1.000
    O159     O        0.26154    0.16229    0.66369    1.000
    O160     O        0.28865    0.24112    0.67312    1.000
    U33      U        0.84482    0.76180    0.42807    1.000
    P33      P        0.86784    0.87585    0.35680    1.000
    C65      C        0.88860    0.83020    0.31090    1.000
    H65      H        0.89620    0.84730    0.27930    1.000
    H66      H        0.91930    0.81400    0.32280    1.000
    C66      C        0.84830    0.79060    0.30190    1.000
    O161     O        0.85003    0.84705    0.40231    1.000
    O162     O        0.82688    0.91009    0.33361    1.000
    O163     O        0.91151    0.91233    0.36710    1.000
    O164     O        0.83631    0.76154    0.33771    1.000
    O165     O        0.82688    0.78865    0.25888    1.000
    U34      U        0.34482    0.26180    0.92807    1.000
    P34      P        0.36784    0.37585    0.85680    1.000
    C67      C        0.38860    0.33020    0.81090    1.000
    H67      H        0.39620    0.34730    0.77930    1.000
    H68      H        0.41930    0.31400    0.82280    1.000
    C68      C        0.34830    0.29060    0.80190    1.000
    O166     O        0.35003    0.34705    0.90231    1.000
    O167     O        0.32688    0.41009    0.83361    1.000
    O168     O        0.41151    0.41233    0.86710    1.000
    O169     O        0.33631    0.26154    0.83771    1.000
    O170     O        0.32688    0.28865    0.75888    1.000
    U35      U        0.84482    0.23820    0.57193    1.000
    P35      P        0.86784    0.12415    0.64320    1.000
    C69      C        0.88860    0.16980    0.68910    1.000
    H69      H        0.89620    0.15270    0.72070    1.000
    H70      H        0.91930    0.18600    0.67720    1.000
    C70      C        0.84830    0.20940    0.69810    1.000
    O171     O        0.85003    0.15295    0.59769    1.000
    O172     O        0.82688    0.08991    0.66639    1.000
    O173     O        0.91151    0.08767    0.63290    1.000
    O174     O        0.83631    0.23846    0.66229    1.000
    O175     O        0.82688    0.21135    0.74112    1.000
    U36      U        0.34482    0.73820    0.07193    1.000
    P36      P        0.36784    0.62415    0.14320    1.000
    C71      C        0.38860    0.66980    0.18910    1.000
    H71      H        0.39620    0.65270    0.22070    1.000
    H72      H        0.41930    0.68600    0.17720    1.000
    C72      C        0.34830    0.70940    0.19810    1.000
    O176     O        0.35003    0.65295    0.09769    1.000
    O177     O        0.32688    0.58991    0.16639    1.000
    O178     O        0.41151    0.58767    0.13290    1.000
    O179     O        0.33631    0.73846    0.16229    1.000
    O180     O        0.32688    0.71135    0.24112    1.000
    U37      U        0.15518    0.23820    0.42807    1.000
    P37      P        0.13216    0.12415    0.35680    1.000
    C73      C        0.11140    0.16980    0.31090    1.000
    H73      H        0.10380    0.15270    0.27930    1.000
    H74      H        0.08070    0.18600    0.32280    1.000
    C74      C        0.15170    0.20940    0.30190    1.000
    O181     O        0.14997    0.15295    0.40231    1.000
    O182     O        0.17312    0.08991    0.33361    1.000
    O183     O        0.08849    0.08767    0.36710    1.000
    O184     O        0.16369    0.23846    0.33771    1.000
    O185     O        0.17312    0.21135    0.25888    1.000
    U38      U        0.65518    0.73820    0.92807    1.000
    P38      P        0.63216    0.62415    0.85680    1.000
    C75      C        0.61140    0.66980    0.81090    1.000
    H75      H        0.60380    0.65270    0.77930    1.000
    H76      H        0.58070    0.68600    0.82280    1.000
    C76      C        0.65170    0.70940    0.80190    1.000
    O186     O        0.64997    0.65295    0.90231    1.000
    O187     O        0.67312    0.58991    0.83361    1.000
    O188     O        0.58849    0.58767    0.86710    1.000
    O189     O        0.66369    0.73846    0.83771    1.000
    O190     O        0.67312    0.71135    0.75888    1.000
    U39      U        0.15518    0.76180    0.57193    1.000
    P39      P        0.13216    0.87585    0.64320    1.000
    C77      C        0.11140    0.83020    0.68910    1.000
    H77      H        0.10380    0.84730    0.72070    1.000
    H78      H        0.08070    0.81400    0.67720    1.000
    C78      C        0.15170    0.79060    0.69810    1.000
    O191     O        0.14997    0.84705    0.59769    1.000
    O192     O        0.17312    0.91009    0.66639    1.000
    O193     O        0.08849    0.91233    0.63290    1.000
    O194     O        0.16369    0.76154    0.66229    1.000
    O195     O        0.17312    0.78865    0.74112    1.000
    U40      U        0.65518    0.26180    0.07193    1.000
    P40      P        0.63216    0.37585    0.14320    1.000
    C79      C        0.61140    0.33020    0.18910    1.000
    H79      H        0.60380    0.34730    0.22070    1.000
    H80      H        0.58070    0.31400    0.17720    1.000
    C80      C        0.65170    0.29060    0.19810    1.000
    O196     O        0.64997    0.34705    0.09769    1.000
    O197     O        0.67312    0.41009    0.16639    1.000
    O198     O        0.58849    0.41233    0.13290    1.000
    O199     O        0.66369    0.26154    0.16229    1.000
    O200     O        0.67312    0.28865    0.24112    1.000
    U41      U        0.42807    0.84482    0.76180    1.000
    P41      P        0.35680    0.86784    0.87585    1.000
    C81      C        0.31090    0.88860    0.83020    1.000
    H81      H        0.27930    0.89620    0.84730    1.000
    H82      H        0.32280    0.91930    0.81400    1.000
    C82      C        0.30190    0.84830    0.79060    1.000
    O201     O        0.40231    0.85003    0.84705    1.000
    O202     O        0.33361    0.82688    0.91009    1.000
    O203     O        0.36710    0.91151    0.91233    1.000
    O204     O        0.33771    0.83631    0.76154    1.000
    O205     O        0.25888    0.82688    0.78865    1.000
    U42      U        0.92807    0.34482    0.26180    1.000
    P42      P        0.85680    0.36784    0.37585    1.000
    C83      C        0.81090    0.38860    0.33020    1.000
    H83      H        0.77930    0.39620    0.34730    1.000
    H84      H        0.82280    0.41930    0.31400    1.000
    C84      C        0.80190    0.34830    0.29060    1.000
    O206     O        0.90231    0.35003    0.34705    1.000
    O207     O        0.83361    0.32688    0.41009    1.000
    O208     O        0.86710    0.41151    0.41233    1.000
    O209     O        0.83771    0.33631    0.26154    1.000
    O210     O        0.75888    0.32688    0.28865    1.000
    U43      U        0.57193    0.84482    0.23820    1.000
    P43      P        0.64320    0.86784    0.12415    1.000
    C85      C        0.68910    0.88860    0.16980    1.000
    H85      H        0.72070    0.89620    0.15270    1.000
    H86      H        0.67720    0.91930    0.18600    1.000
    C86      C        0.69810    0.84830    0.20940    1.000
    O211     O        0.59769    0.85003    0.15295    1.000
    O212     O        0.66639    0.82688    0.08991    1.000
    O213     O        0.63290    0.91151    0.08767    1.000
    O214     O        0.66229    0.83631    0.23846    1.000
    O215     O        0.74112    0.82688    0.21135    1.000
    U44      U        0.07193    0.34482    0.73820    1.000
    P44      P        0.14320    0.36784    0.62415    1.000
    C87      C        0.18910    0.38860    0.66980    1.000
    H87      H        0.22070    0.39620    0.65270    1.000
    H88      H        0.17720    0.41930    0.68600    1.000
    C88      C        0.19810    0.34830    0.70940    1.000
    O216     O        0.09769    0.35003    0.65295    1.000
    O217     O        0.16639    0.32688    0.58991    1.000
    O218     O        0.13290    0.41151    0.58767    1.000
    O219     O        0.16229    0.33631    0.73846    1.000
    O220     O        0.24112    0.32688    0.71135    1.000
    U45      U        0.42807    0.15518    0.23820    1.000
    P45      P        0.35680    0.13216    0.12415    1.000
    C89      C        0.31090    0.11140    0.16980    1.000
    H89      H        0.27930    0.10380    0.15270    1.000
    H90      H        0.32280    0.08070    0.18600    1.000
    C90      C        0.30190    0.15170    0.20940    1.000
    O221     O        0.40231    0.14997    0.15295    1.000
    O222     O        0.33361    0.17312    0.08991    1.000
    O223     O        0.36710    0.08849    0.08767    1.000
    O224     O        0.33771    0.16369    0.23846    1.000
    O225     O        0.25888    0.17312    0.21135    1.000
    U46      U        0.92807    0.65518    0.73820    1.000
    P46      P        0.85680    0.63216    0.62415    1.000
    C91      C        0.81090    0.61140    0.66980    1.000
    H91      H        0.77930    0.60380    0.65270    1.000
    H92      H        0.82280    0.58070    0.68600    1.000
    C92      C        0.80190    0.65170    0.70940    1.000
    O226     O        0.90231    0.64997    0.65295    1.000
    O227     O        0.83361    0.67312    0.58991    1.000
    O228     O        0.86710    0.58849    0.58767    1.000
    O229     O        0.83771    0.66369    0.73846    1.000
    O230     O        0.75888    0.67312    0.71135    1.000
    U47      U        0.57193    0.15518    0.76180    1.000
    P47      P        0.64320    0.13216    0.87585    1.000
    C93      C        0.68910    0.11140    0.83020    1.000
    H93      H        0.72070    0.10380    0.84730    1.000
    H94      H        0.67720    0.08070    0.81400    1.000
    C94      C        0.69810    0.15170    0.79060    1.000
    O231     O        0.59769    0.14997    0.84705    1.000
    O232     O        0.66639    0.17312    0.91009    1.000
    O233     O        0.63290    0.08849    0.91233    1.000
    O234     O        0.66229    0.16369    0.76154    1.000
    O235     O        0.74112    0.17312    0.78865    1.000
    U48      U        0.07193    0.65518    0.26180    1.000
    P48      P        0.14320    0.63216    0.37585    1.000
    C95      C        0.18910    0.61140    0.33020    1.000
    H95      H        0.22070    0.60380    0.34730    1.000
    H96      H        0.17720    0.58070    0.31400    1.000
    C96      C        0.19810    0.65170    0.29060    1.000
    O236     O        0.09769    0.64997    0.34705    1.000
    O237     O        0.16639    0.67312    0.41009    1.000
    O238     O        0.13290    0.58849    0.41233    1.000
    O239     O        0.16229    0.66369    0.26154    1.000
    O240     O        0.24112    0.67312    0.28865    1.000
    U49      U        0.06922    0.63677    0.00000    1.000
    U50      U        0.56922    0.13677    0.50000    1.000
    U51      U        0.93078    0.36323    0.00000    1.000
    U52      U        0.43078    0.86323    0.50000    1.000
    U53      U        0.93078    0.63677    0.00000    1.000
    U54      U        0.43078    0.13677    0.50000    1.000
    U55      U        0.06922    0.36323    0.00000    1.000
    U56      U        0.56922    0.86323    0.50000    1.000
    U57      U        0.00000    0.06922    0.63677    1.000
    U58      U        0.50000    0.56922    0.13677    1.000
    U59      U        0.00000    0.93078    0.36323    1.000
    U60      U        0.50000    0.43078    0.86323    1.000
    U61      U        0.00000    0.93078    0.63677    1.000
    U62      U        0.50000    0.43078    0.13677    1.000
    U63      U        0.00000    0.06922    0.36323    1.000
    U64      U        0.50000    0.56922    0.86323    1.000
    U65      U        0.63677    0.00000    0.06922    1.000
    U66      U        0.13677    0.50000    0.56922    1.000
    U67      U        0.36323    0.00000    0.93078    1.000
    U68      U        0.86323    0.50000    0.43078    1.000
    U69      U        0.63677    0.00000    0.93078    1.000
    U70      U        0.13677    0.50000    0.43078    1.000
    U71      U        0.36323    0.00000    0.06922    1.000
    U72      U        0.86323    0.50000    0.56922    1.000
    U73      U        0.00000    0.65332    0.13184    1.000
    O241     O        0.00000    0.58430    0.13760    1.000
    O242     O        0.00000    0.65190    0.95160    1.000
    O243     O        0.00000    0.65520    0.21460    1.000
    U74      U        0.50000    0.15332    0.63184    1.000
    O244     O        0.50000    0.08430    0.63760    1.000
    O245     O        0.50000    0.15190    0.45160    1.000
    O246     O        0.50000    0.15520    0.71460    1.000
    U75      U        0.00000    0.34668    0.13184    1.000
    O247     O        0.00000    0.41570    0.13760    1.000
    O248     O        0.00000    0.34810    0.95160    1.000
    O249     O        0.00000    0.34480    0.21460    1.000
    U76      U        0.50000    0.84668    0.63184    1.000
    O250     O        0.50000    0.91570    0.63760    1.000
    O251     O        0.50000    0.84810    0.45160    1.000
    O252     O        0.50000    0.84480    0.71460    1.000
    U77      U        0.00000    0.65332    0.86816    1.000
    O253     O        0.00000    0.58430    0.86240    1.000
    O254     O        0.00000    0.65190    0.04840    1.000
    O255     O        0.00000    0.65520    0.78540    1.000
    U78      U        0.50000    0.15332    0.36816    1.000
    O256     O        0.50000    0.08430    0.36240    1.000
    O257     O        0.50000    0.15190    0.54840    1.000
    O258     O        0.50000    0.15520    0.28540    1.000
    U79      U        0.00000    0.34668    0.86816    1.000
    O259     O        0.00000    0.41570    0.86240    1.000
    O260     O        0.00000    0.34810    0.04840    1.000
    O261     O        0.00000    0.34480    0.78540    1.000
    U80      U        0.50000    0.84668    0.36816    1.000
    O262     O        0.50000    0.91570    0.36240    1.000
    O263     O        0.50000    0.84810    0.54840    1.000
    O264     O        0.50000    0.84480    0.28540    1.000
    U81      U        0.13184    0.00000    0.65332    1.000
    O265     O        0.13760    0.00000    0.58430    1.000
    O266     O        0.95160    0.00000    0.65190    1.000
    O267     O        0.21460    0.00000    0.65520    1.000
    U82      U        0.63184    0.50000    0.15332    1.000
    O268     O        0.63760    0.50000    0.08430    1.000
    O269     O        0.45160    0.50000    0.15190    1.000
    O270     O        0.71460    0.50000    0.15520    1.000
    U83      U        0.13184    0.00000    0.34668    1.000
    O271     O        0.13760    0.00000    0.41570    1.000
    O272     O        0.95160    0.00000    0.34810    1.000
    O273     O        0.21460    0.00000    0.34480    1.000
    U84      U        0.63184    0.50000    0.84668    1.000
    O274     O        0.63760    0.50000    0.91570    1.000
    O275     O        0.45160    0.50000    0.84810    1.000
    O276     O        0.71460    0.50000    0.84480    1.000
    U85      U        0.86816    0.00000    0.65332    1.000
    O277     O        0.86240    0.00000    0.58430    1.000
    O278     O        0.04840    0.00000    0.65190    1.000
    O279     O        0.78540    0.00000    0.65520    1.000
    U86      U        0.36816    0.50000    0.15332    1.000
    O280     O        0.36240    0.50000    0.08430    1.000
    O281     O        0.54840    0.50000    0.15190    1.000
    O282     O        0.28540    0.50000    0.15520    1.000
    U87      U        0.86816    0.00000    0.34668    1.000
    O283     O        0.86240    0.00000    0.41570    1.000
    O284     O        0.04840    0.00000    0.34810    1.000
    O285     O        0.78540    0.00000    0.34480    1.000
    U88      U        0.36816    0.50000    0.84668    1.000
    O286     O        0.36240    0.50000    0.91570    1.000
    O287     O        0.54840    0.50000    0.84810    1.000
    O288     O        0.28540    0.50000    0.84480    1.000
    U89      U        0.65332    0.13184    0.00000    1.000
    O289     O        0.58430    0.13760    0.00000    1.000
    O290     O        0.65190    0.95160    0.00000    1.000
    O291     O        0.65520    0.21460    0.00000    1.000
    U90      U        0.15332    0.63184    0.50000    1.000
    O292     O        0.08430    0.63760    0.50000    1.000
    O293     O        0.15190    0.45160    0.50000    1.000
    O294     O        0.15520    0.71460    0.50000    1.000
    U91      U        0.34668    0.13184    0.00000    1.000
    O295     O        0.41570    0.13760    0.00000    1.000
    O296     O        0.34810    0.95160    0.00000    1.000
    O297     O        0.34480    0.21460    0.00000    1.000
    U92      U        0.84668    0.63184    0.50000    1.000
    O298     O        0.91570    0.63760    0.50000    1.000
    O299     O        0.84810    0.45160    0.50000    1.000
    O300     O        0.84480    0.71460    0.50000    1.000
    U93      U        0.65332    0.86816    0.00000    1.000
    O301     O        0.58430    0.86240    0.00000    1.000
    O302     O        0.65190    0.04840    0.00000    1.000
    O303     O        0.65520    0.78540    0.00000    1.000
    U94      U        0.15332    0.36816    0.50000    1.000
    O304     O        0.08430    0.36240    0.50000    1.000
    O305     O        0.15190    0.54840    0.50000    1.000
    O306     O        0.15520    0.28540    0.50000    1.000
    U95      U        0.34668    0.86816    0.00000    1.000
    O307     O        0.41570    0.86240    0.00000    1.000
    O308     O        0.34810    0.04840    0.00000    1.000
    O309     O        0.34480    0.78540    0.00000    1.000
    U96      U        0.84668    0.36816    0.50000    1.000
    O310     O        0.91570    0.36240    0.50000    1.000
    O311     O        0.84810    0.54840    0.50000    1.000
    O312     O        0.84480    0.28540    0.50000    1.000
    Cd1      Cd       0.00000    0.50000    0.14387    1.000
    Cd2      Cd       0.50000    0.00000    0.64387    1.000
    Cd3      Cd       0.00000    0.50000    0.85613    1.000
    Cd4      Cd       0.50000    0.00000    0.35613    1.000
    Cd5      Cd       0.14387    0.00000    0.50000    1.000
    Cd6      Cd       0.64387    0.50000    0.00000    1.000
    Cd7      Cd       0.85613    0.00000    0.50000    1.000
    Cd8      Cd       0.35613    0.50000    0.00000    1.000
    Cd9      Cd       0.50000    0.14387    0.00000    1.000
    Cd10     Cd       0.00000    0.64387    0.50000    1.000
    Cd11     Cd       0.50000    0.85613    0.00000    1.000
    Cd12     Cd       0.00000    0.35613    0.50000    1.000
    Cd13     Cd       0.17908    0.82092    0.17908    1.000
    Cd14     Cd       0.67908    0.32092    0.67908    1.000
    Cd15     Cd       0.82092    0.17908    0.17908    1.000
    Cd16     Cd       0.32092    0.67908    0.67908    1.000
    Cd17     Cd       0.82092    0.82092    0.82092    1.000
    Cd18     Cd       0.32092    0.32092    0.32092    1.000
    Cd19     Cd       0.17908    0.17908    0.82092    1.000
    Cd20     Cd       0.67908    0.67908    0.32092    1.000
    Cd21     Cd       0.82092    0.17908    0.82092    1.000
    Cd22     Cd       0.32092    0.67908    0.32092    1.000
    Cd23     Cd       0.17908    0.82092    0.82092    1.000
    Cd24     Cd       0.67908    0.32092    0.32092    1.000
    Cd25     Cd       0.17908    0.17908    0.17908    1.000
    Cd26     Cd       0.67908    0.67908    0.67908    1.000
    Cd27     Cd       0.82092    0.82092    0.17908    1.000
    Cd28     Cd       0.32092    0.32092    0.67908    1.000
    Cd29     Cd       0.25000    0.75000    0.25000    1.000
    Cd30     Cd       0.75000    0.25000    0.25000    1.000
    Cd31     Cd       0.75000    0.75000    0.75000    1.000
    Cd32     Cd       0.25000    0.25000    0.75000    1.000
    Cd33     Cd       0.25000    0.75000    0.75000    1.000
    Cd34     Cd       0.75000    0.75000    0.25000    1.000
    Cd35     Cd       0.75000    0.25000    0.75000    1.000
    Cd36     Cd       0.25000    0.25000    0.25000    1.000
    O313     O        0.18780    0.50000    0.14350    1.000
    O314     O        0.94830    0.50000    0.07410    1.000
    O315     O        0.07260    0.50000    0.90500    1.000
    O316     O        0.68780    0.00000    0.64350    1.000
    O317     O        0.44830    0.00000    0.57410    1.000
    O318     O        0.57260    0.00000    0.40500    1.000
    O319     O        0.81220    0.50000    0.14350    1.000
    O320     O        0.05170    0.50000    0.07410    1.000
    O321     O        0.92740    0.50000    0.90500    1.000
    O322     O        0.31220    0.00000    0.64350    1.000
    O323     O        0.55170    0.00000    0.57410    1.000
    O324     O        0.42740    0.00000    0.40500    1.000
    O325     O        0.81220    0.50000    0.85650    1.000
    O326     O        0.05170    0.50000    0.92590    1.000
    O327     O        0.92740    0.50000    0.09500    1.000
    O328     O        0.31220    0.00000    0.35650    1.000
    O329     O        0.55170    0.00000    0.42590    1.000
    O330     O        0.42740    0.00000    0.59500    1.000
    O331     O        0.18780    0.50000    0.85650    1.000
    O332     O        0.94830    0.50000    0.92590    1.000
    O333     O        0.07260    0.50000    0.09500    1.000
    O334     O        0.68780    0.00000    0.35650    1.000
    O335     O        0.44830    0.00000    0.42590    1.000
    O336     O        0.57260    0.00000    0.59500    1.000
    O337     O        0.14350    0.18780    0.50000    1.000
    O338     O        0.07410    0.94830    0.50000    1.000
    O339     O        0.90500    0.07260    0.50000    1.000
    O340     O        0.64350    0.68780    0.00000    1.000
    O341     O        0.57410    0.44830    0.00000    1.000
    O342     O        0.40500    0.57260    0.00000    1.000
    O343     O        0.14350    0.81220    0.50000    1.000
    O344     O        0.07410    0.05170    0.50000    1.000
    O345     O        0.90500    0.92740    0.50000    1.000
    O346     O        0.64350    0.31220    0.00000    1.000
    O347     O        0.57410    0.55170    0.00000    1.000
    O348     O        0.40500    0.42740    0.00000    1.000
    O349     O        0.85650    0.81220    0.50000    1.000
    O350     O        0.92590    0.05170    0.50000    1.000
    O351     O        0.09500    0.92740    0.50000    1.000
    O352     O        0.35650    0.31220    0.00000    1.000
    O353     O        0.42590    0.55170    0.00000    1.000
    O354     O        0.59500    0.42740    0.00000    1.000
    O355     O        0.85650    0.18780    0.50000    1.000
    O356     O        0.92590    0.94830    0.50000    1.000
    O357     O        0.09500    0.07260    0.50000    1.000
    O358     O        0.35650    0.68780    0.00000    1.000
    O359     O        0.42590    0.44830    0.00000    1.000
    O360     O        0.59500    0.57260    0.00000    1.000
    O361     O        0.50000    0.14350    0.18780    1.000
    O362     O        0.50000    0.07410    0.94830    1.000
    O363     O        0.50000    0.90500    0.07260    1.000
    O364     O        0.00000    0.64350    0.68780    1.000
    O365     O        0.00000    0.57410    0.44830    1.000
    O366     O        0.00000    0.40500    0.57260    1.000
    O367     O        0.50000    0.14350    0.81220    1.000
    O368     O        0.50000    0.07410    0.05170    1.000
    O369     O        0.50000    0.90500    0.92740    1.000
    O370     O        0.00000    0.64350    0.31220    1.000
    O371     O        0.00000    0.57410    0.55170    1.000
    O372     O        0.00000    0.40500    0.42740    1.000
    O373     O        0.50000    0.85650    0.81220    1.000
    O374     O        0.50000    0.92590    0.05170    1.000
    O375     O        0.50000    0.09500    0.92740    1.000
    O376     O        0.00000    0.35650    0.31220    1.000
    O377     O        0.00000    0.42590    0.55170    1.000
    O378     O        0.00000    0.59500    0.42740    1.000
    O379     O        0.50000    0.85650    0.18780    1.000
    O380     O        0.50000    0.92590    0.94830    1.000
    O381     O        0.50000    0.09500    0.07260    1.000
    O382     O        0.00000    0.35650    0.68780    1.000
    O383     O        0.00000    0.42590    0.44830    1.000
    O384     O        0.00000    0.59500    0.57260    1.000
