data_functionalizedCrystal
_audit_creation_method	'EQeq! by Chris Wilmer'
_symmetry_space_group_name_H-M	'P1'
_symmetry_Int_Tables_number	1
_symmetry_cell_setting	triclinic
loop_
_symmetry_equiv_pos_as_xyz
  x,y,z
_cell_length_a	11.616
_cell_length_b	12.503
_cell_length_c	14.891
_cell_angle_alpha	90
_cell_angle_beta	90
_cell_angle_gamma	90
loop_
_atom_site_label
_atom_site_type_symbol
_atom_site_fract_x
_atom_site_fract_y
_atom_site_fract_z
_atom_site_charge
Mof_Mn	Mn	0.5	0.5	0.25	0.754
Mof_Mn	Mn	0.5	0.5	0.75	0.752
Mof_H 	H 	0.3006	0.7826	0.3641	0.061
Mof_H 	H 	0.1635	0.918	0.3648	0.061
Mof_H 	H 	0.286	0.6519	0.2187	0.001
Mof_H 	H 	0.0867	0.6571	0.2192	0.087
Mof_H 	H 	0.6994	0.2174	0.3641	0.061
Mof_H 	H 	0.8365	0.082	0.3648	0.061
Mof_H 	H 	0.714	0.3481	0.2187	0.001
Mof_H 	H 	0.9133	0.3429	0.2192	0.087
Mof_H 	H 	0.6994	0.7826	0.1359	0.061
Mof_H 	H 	0.8365	0.918	0.1352	0.062
Mof_H 	H 	0.714	0.6519	0.2813	0.001
Mof_H 	H 	0.9133	0.6571	0.2808	0.086
Mof_H 	H 	0.3006	0.2174	0.1359	0.061
Mof_H 	H 	0.1635	0.082	0.1352	0.062
Mof_H 	H 	0.286	0.3481	0.2813	0.001
Mof_H 	H 	0.0867	0.3429	0.2808	0.086
Mof_H 	H 	0.6994	0.2174	0.6359	0.061
Mof_H 	H 	0.8365	0.082	0.6352	0.061
Mof_H 	H 	0.714	0.3481	0.7813	0.001
Mof_H 	H 	0.9133	0.3429	0.7808	0.086
Mof_H 	H 	0.3006	0.7826	0.6359	0.061
Mof_H 	H 	0.1635	0.918	0.6352	0.061
Mof_H 	H 	0.286	0.6519	0.7813	0.001
Mof_H 	H 	0.0867	0.6571	0.7808	0.086
Mof_H 	H 	0.3006	0.2174	0.8641	0.062
Mof_H 	H 	0.1635	0.082	0.8648	0.063
Mof_H 	H 	0.286	0.3481	0.7187	0.001
Mof_H 	H 	0.0867	0.3429	0.7192	0.086
Mof_H 	H 	0.6994	0.7826	0.8641	0.062
Mof_H 	H 	0.8365	0.918	0.8648	0.063
Mof_H 	H 	0.714	0.6519	0.7187	0.001
Mof_H 	H 	0.9133	0.6571	0.7192	0.086
Mof_C 	C 	0.4632	0.6583	0.4202	0.126
Mof_C 	C 	0.2757	0.812	0.4196	-0.075
Mof_C 	C 	0.1942	0.8926	0.42	-0.051
Mof_C 	C 	0.0771	0.092	0.4203	0.1
Mof_C 	C 	0.2449	0.5882	0.2322	0.087
Mof_C 	C 	0.1257	0.592	0.2319	-0.135
Mof_C 	C 	0.5368	0.3417	0.4202	0.126
Mof_C 	C 	0.7243	0.188	0.4196	-0.075
Mof_C 	C 	0.8058	0.1074	0.42	-0.051
Mof_C 	C 	0.9229	0.908	0.4203	0.1
Mof_C 	C 	0.7551	0.4118	0.2322	0.087
Mof_C 	C 	0.8743	0.408	0.2319	-0.135
Mof_C 	C 	0.5368	0.6583	0.0798	0.125
Mof_C 	C 	0.7243	0.812	0.0804	-0.074
Mof_C 	C 	0.8058	0.8926	0.08	-0.053
Mof_C 	C 	0.9229	0.092	0.0797	0.1
Mof_C 	C 	0.7551	0.5882	0.2678	0.087
Mof_C 	C 	0.8743	0.592	0.2681	-0.136
Mof_C 	C 	0.4632	0.3417	0.0798	0.125
Mof_C 	C 	0.2757	0.188	0.0804	-0.074
Mof_C 	C 	0.1942	0.1074	0.08	-0.053
Mof_C 	C 	0.0771	0.908	0.0797	0.1
Mof_C 	C 	0.2449	0.4118	0.2678	0.087
Mof_C 	C 	0.1257	0.408	0.2681	-0.136
Mof_C 	C 	0.5368	0.3417	0.5798	0.125
Mof_C 	C 	0.7243	0.188	0.5804	-0.075
Mof_C 	C 	0.8058	0.1074	0.58	-0.051
Mof_C 	C 	0.9229	0.908	0.5797	0.1
Mof_C 	C 	0.7551	0.4118	0.7678	0.086
Mof_C 	C 	0.8743	0.408	0.7681	-0.136
Mof_C 	C 	0.4632	0.6583	0.5798	0.125
Mof_C 	C 	0.2757	0.812	0.5804	-0.075
Mof_C 	C 	0.1942	0.8926	0.58	-0.051
Mof_C 	C 	0.0771	0.092	0.5797	0.1
Mof_C 	C 	0.2449	0.5882	0.7678	0.086
Mof_C 	C 	0.1257	0.592	0.7681	-0.136
Mof_C 	C 	0.4632	0.3417	0.9202	0.117
Mof_C 	C 	0.2757	0.188	0.9196	-0.08
Mof_C 	C 	0.1942	0.1074	0.92	-0.059
Mof_C 	C 	0.0771	0.908	0.9203	0.092
Mof_C 	C 	0.2449	0.4118	0.7322	0.086
Mof_C 	C 	0.1257	0.408	0.7319	-0.136
Mof_C 	C 	0.5368	0.6583	0.9202	0.117
Mof_C 	C 	0.7243	0.812	0.9196	-0.08
Mof_C 	C 	0.8058	0.8926	0.92	-0.059
Mof_C 	C 	0.9229	0.092	0.9203	0.092
Mof_C 	C 	0.7551	0.5882	0.7322	0.086
Mof_C 	C 	0.8743	0.592	0.7319	-0.136
Mof_C 	C 	0.0642	0.5	0.25	0.062
Mof_C 	C 	0.9358	0.5	0.25	0.062
Mof_C 	C 	0.9358	0.5	0.75	0.061
Mof_C 	C 	0.0642	0.5	0.75	0.061
Mof_C 	C 	0.4173	0.6979	0.5	-0.135
Mof_C 	C 	0.3232	0.7736	0.5	0.076
Mof_C 	C 	0.1565	0.9362	0.5	0.042
Mof_C 	C 	0.0638	0.0272	0.5	-0.071
Mof_C 	C 	0.5827	0.3021	0.5	-0.135
Mof_C 	C 	0.6768	0.2264	0.5	0.076
Mof_C 	C 	0.8435	0.0638	0.5	0.042
Mof_C 	C 	0.9362	0.9728	0.5	-0.071
Mof_C 	C 	0.5827	0.6979	-0	-0.127
Mof_C 	C 	0.6768	0.7736	-0	0.081
Mof_C 	C 	0.8435	0.9362	-0	0.05
Mof_C 	C 	0.9362	0.0272	-0	-0.067
Mof_C 	C 	0.4173	0.3021	-0	-0.127
Mof_C 	C 	0.3232	0.2264	-0	0.081
Mof_C 	C 	0.1565	0.0638	-0	0.05
Mof_C 	C 	0.0638	0.9728	-0	-0.067
Mof_N 	N 	0.5014	0.6253	0.3542	-0.207
Mof_N 	N 	0.0941	0.1396	0.3573	-0.131
Mof_N 	N 	0.4986	0.3747	0.3542	-0.207
Mof_N 	N 	0.9059	0.8604	0.3573	-0.131
Mof_N 	N 	0.4986	0.6253	0.1458	-0.206
Mof_N 	N 	0.9059	0.1396	0.1427	-0.131
Mof_N 	N 	0.5014	0.3747	0.1458	-0.206
Mof_N 	N 	0.0941	0.8604	0.1427	-0.131
Mof_N 	N 	0.4986	0.3747	0.6458	-0.207
Mof_N 	N 	0.9059	0.8604	0.6427	-0.131
Mof_N 	N 	0.5014	0.6253	0.6458	-0.207
Mof_N 	N 	0.0941	0.1396	0.6427	-0.131
Mof_N 	N 	0.5014	0.3747	0.8542	-0.205
Mof_N 	N 	0.0941	0.8604	0.8573	-0.13
Mof_N 	N 	0.4986	0.6253	0.8542	-0.205
Mof_N 	N 	0.9059	0.1396	0.8573	-0.13
Mof_N 	N 	0.3045	0.5	0.25	-0.194
Mof_N 	N 	0.6955	0.5	0.25	-0.194
Mof_N 	N 	0.6955	0.5	0.75	-0.194
Mof_N 	N 	0.3045	0.5	0.75	-0.194
_end
