# CIF file generated by openbabel 3.1.0, see https://openbabel.org
data_I
_chemical_name_common 'image0'
_cell_length_a 17.4393
_cell_length_b 10.1483
_cell_length_c 17.5771
_cell_angle_alpha 90
_cell_angle_beta 90
_cell_angle_gamma 90
_space_group_name_H-M_alt 'P 1'
_space_group_name_Hall 'P 1'
loop_
    _symmetry_equiv_pos_as_xyz
    x,y,z
loop_
    _atom_site_label
    _atom_site_type_symbol
    _atom_site_fract_x
    _atom_site_fract_y
    _atom_site_fract_z
    _atom_site_occupancy
    Y1       Y        0.82157    0.88070    0.27247    1.000
    Y2       Y        0.52110    0.84112    0.25859    1.000
    O1       O        0.92170    0.89520    0.19530    1.000
    O2       O        0.08550    0.07130    0.86330    1.000
    O3       O        0.74760    0.95030    0.16840    1.000
    O4       O        0.69790    0.22040    0.86810    1.000
    O5       O        0.71560    0.93680    0.33270    1.000
    C1       C        0.67910    0.93290    0.15100    1.000
    O6       O        0.63010    0.88040    0.19450    1.000
    O7       O        0.59340    0.91070    0.36480    1.000
    C2       C        0.66160    0.94100    0.37820    1.000
    C3       C        0.67990    0.99570    0.45460    1.000
    C4       C        0.74790    0.04010    0.48100    1.000
    H1       H        0.79290    0.03440    0.45280    1.000
    C5       C        0.65150    0.97450    0.07580    1.000
    S1       S        0.70226    0.07861    0.01865    1.000
    O8       O        0.57420    0.11630    0.67030    1.000
    C6       C        0.63930    0.15240    0.87880    1.000
    O9       O        0.69120    0.19050    0.70140    1.000
    O10      O        0.58320    0.14740    0.83370    1.000
    C7       C        0.64440    0.13610    0.65680    1.000
    S2       S        0.61029    0.01597    0.52150    1.000
    S3       S        0.04062    0.96204    0.01107    1.000
    O11      O        0.03610    0.82390    0.16270    1.000
    C8       C        0.58380    0.93640    0.04160    1.000
    H2       H        0.54860    0.87920    0.06370    1.000
    C9       C        0.96760    0.95520    0.07560    1.000
    C10      C        0.57430    0.99380    0.96990    1.000
    H3       H        0.53200    0.97820    0.93890    1.000
    C11      C        0.63290    0.07420    0.95010    1.000
    C12      C        0.97710    0.88700    0.14920    1.000
    C13      C        0.90340    0.01780    0.05020    1.000
    H4       H        0.85820    0.02450    0.07790    1.000
    C14      C        0.67310    0.08840    0.58270    1.000
    C15      C        0.74570    0.09490    0.55370    1.000
    H5       H        0.78770    0.13080    0.57890    1.000
    O12      O        0.97000    0.15190    0.82970    1.000
    C16      C        0.98390    0.05000    0.94870    1.000
    C17      C        0.91370    0.07050    0.97790    1.000
    H6       H        0.87540    0.11580    0.95200    1.000
    C18      C        0.01590    0.09380    0.87430    1.000
    Y3       Y        0.17843    0.11930    0.77247    1.000
    Y4       Y        0.47890    0.15888    0.75859    1.000
    O13      O        0.07830    0.10480    0.69530    1.000
    O14      O        0.91450    0.92870    0.36330    1.000
    O15      O        0.25240    0.04970    0.66840    1.000
    O16      O        0.30210    0.77960    0.36810    1.000
    O17      O        0.28440    0.06320    0.83270    1.000
    C19      C        0.32090    0.06710    0.65100    1.000
    O18      O        0.36990    0.11960    0.69450    1.000
    O19      O        0.40660    0.08930    0.86480    1.000
    C20      C        0.33840    0.05900    0.87820    1.000
    C21      C        0.32010    0.00430    0.95460    1.000
    C22      C        0.25210    0.95990    0.98100    1.000
    H7       H        0.20710    0.96560    0.95280    1.000
    C23      C        0.34850    0.02550    0.57580    1.000
    S4       S        0.29774    0.92139    0.51865    1.000
    O20      O        0.42580    0.88370    0.17030    1.000
    C24      C        0.36070    0.84760    0.37880    1.000
    O21      O        0.30880    0.80950    0.20140    1.000
    O22      O        0.41680    0.85260    0.33370    1.000
    C25      C        0.35560    0.86390    0.15680    1.000
    S5       S        0.38971    0.98403    0.02150    1.000
    S6       S        0.95938    0.03796    0.51107    1.000
    O23      O        0.96390    0.17610    0.66270    1.000
    C26      C        0.41620    0.06360    0.54160    1.000
    H8       H        0.45140    0.12080    0.56370    1.000
    C27      C        0.03240    0.04480    0.57560    1.000
    C28      C        0.42570    0.00620    0.46990    1.000
    H9       H        0.46800    0.02180    0.43890    1.000
    C29      C        0.36710    0.92580    0.45010    1.000
    C30      C        0.02290    0.11300    0.64920    1.000
    C31      C        0.09660    0.98220    0.55020    1.000
    H10      H        0.14180    0.97550    0.57790    1.000
    C32      C        0.32690    0.91160    0.08270    1.000
    C33      C        0.25430    0.90510    0.05370    1.000
    H11      H        0.21230    0.86920    0.07890    1.000
    O24      O        0.03000    0.84810    0.32970    1.000
    C34      C        0.01610    0.95000    0.44870    1.000
    C35      C        0.08630    0.92950    0.47790    1.000
    H12      H        0.12460    0.88420    0.45200    1.000
    C36      C        0.98410    0.90620    0.37430    1.000
    Y5       Y        0.32157    0.61930    0.27247    1.000
    Y6       Y        0.02110    0.65888    0.25859    1.000
    O25      O        0.42170    0.60480    0.19530    1.000
    O26      O        0.58550    0.42870    0.86330    1.000
    O27      O        0.24760    0.54970    0.16840    1.000
    O28      O        0.19790    0.27960    0.86810    1.000
    O29      O        0.21560    0.56320    0.33270    1.000
    C37      C        0.17910    0.56710    0.15100    1.000
    O30      O        0.13010    0.61960    0.19450    1.000
    O31      O        0.09340    0.58930    0.36480    1.000
    C38      C        0.16160    0.55900    0.37820    1.000
    C39      C        0.17990    0.50430    0.45460    1.000
    C40      C        0.24790    0.45990    0.48100    1.000
    H13      H        0.29290    0.46560    0.45280    1.000
    C41      C        0.15150    0.52550    0.07580    1.000
    S7       S        0.20226    0.42139    0.01865    1.000
    O32      O        0.07420    0.38370    0.67030    1.000
    C42      C        0.13930    0.34760    0.87880    1.000
    O33      O        0.19120    0.30950    0.70140    1.000
    O34      O        0.08320    0.35260    0.83370    1.000
    C43      C        0.14440    0.36390    0.65680    1.000
    S8       S        0.11029    0.48403    0.52150    1.000
    S9       S        0.54062    0.53796    0.01107    1.000
    O35      O        0.53610    0.67610    0.16270    1.000
    C44      C        0.08380    0.56360    0.04160    1.000
    H14      H        0.04860    0.62080    0.06370    1.000
    C45      C        0.46760    0.54480    0.07560    1.000
    C46      C        0.07430    0.50620    0.96990    1.000
    H15      H        0.03200    0.52180    0.93890    1.000
    C47      C        0.13290    0.42580    0.95010    1.000
    C48      C        0.47710    0.61300    0.14920    1.000
    C49      C        0.40340    0.48220    0.05020    1.000
    H16      H        0.35820    0.47550    0.07790    1.000
    C50      C        0.17310    0.41160    0.58270    1.000
    C51      C        0.24570    0.40510    0.55370    1.000
    H17      H        0.28770    0.36920    0.57890    1.000
    O36      O        0.47000    0.34810    0.82970    1.000
    C52      C        0.48390    0.45000    0.94870    1.000
    C53      C        0.41370    0.42950    0.97790    1.000
    H18      H        0.37540    0.38420    0.95200    1.000
    C54      C        0.51590    0.40620    0.87430    1.000
    Y7       Y        0.67843    0.38070    0.77247    1.000
    Y8       Y        0.97890    0.34112    0.75859    1.000
    O37      O        0.57830    0.39520    0.69530    1.000
    O38      O        0.41450    0.57130    0.36330    1.000
    O39      O        0.75240    0.45030    0.66840    1.000
    O40      O        0.80210    0.72040    0.36810    1.000
    O41      O        0.78440    0.43680    0.83270    1.000
    C55      C        0.82090    0.43290    0.65100    1.000
    O42      O        0.86990    0.38040    0.69450    1.000
    O43      O        0.90660    0.41070    0.86480    1.000
    C56      C        0.83840    0.44100    0.87820    1.000
    C57      C        0.82010    0.49570    0.95460    1.000
    C58      C        0.75210    0.54010    0.98100    1.000
    H19      H        0.70710    0.53440    0.95280    1.000
    C59      C        0.84850    0.47450    0.57580    1.000
    S10      S        0.79774    0.57861    0.51865    1.000
    O44      O        0.92580    0.61630    0.17030    1.000
    C60      C        0.86070    0.65240    0.37880    1.000
    O45      O        0.80880    0.69050    0.20140    1.000
    O46      O        0.91680    0.64740    0.33370    1.000
    C61      C        0.85560    0.63610    0.15680    1.000
    S11      S        0.88971    0.51597    0.02150    1.000
    S12      S        0.45938    0.46204    0.51107    1.000
    O47      O        0.46390    0.32390    0.66270    1.000
    C62      C        0.91620    0.43640    0.54160    1.000
    H20      H        0.95140    0.37920    0.56370    1.000
    C63      C        0.53240    0.45520    0.57560    1.000
    C64      C        0.92570    0.49380    0.46990    1.000
    H21      H        0.96800    0.47820    0.43890    1.000
    C65      C        0.86710    0.57420    0.45010    1.000
    C66      C        0.52290    0.38700    0.64920    1.000
    C67      C        0.59660    0.51780    0.55020    1.000
    H22      H        0.64180    0.52450    0.57790    1.000
    C68      C        0.82690    0.58840    0.08270    1.000
    C69      C        0.75430    0.59490    0.05370    1.000
    H23      H        0.71230    0.63080    0.07890    1.000
    O48      O        0.53000    0.65190    0.32970    1.000
    C70      C        0.51610    0.55000    0.44870    1.000
    C71      C        0.58630    0.57050    0.47790    1.000
    H24      H        0.62460    0.61580    0.45200    1.000
    C72      C        0.48410    0.59380    0.37430    1.000
