# CIF file generated by openbabel 3.1.0, see https://openbabel.org
data_I
_chemical_name_common 'NAPZUB_clean'
_cell_length_a 7.691
_cell_length_b 10.2147
_cell_length_c 15.8154
_cell_angle_alpha 90
_cell_angle_beta 90
_cell_angle_gamma 90
_space_group_name_H-M_alt 'P 1'
_space_group_name_Hall 'P 1'
loop_
    _symmetry_equiv_pos_as_xyz
    x,y,z
loop_
    _atom_site_label
    _atom_site_type_symbol
    _atom_site_fract_x
    _atom_site_fract_y
    _atom_site_fract_z
    _atom_site_occupancy
    Cd1      Cd       0.96722    0.29083    0.78848    1.000
    Cd2      Cd       0.03278    0.79083    0.21152    1.000
    Cd3      Cd       0.46722    0.29083    0.71152    1.000
    Cd4      Cd       0.53278    0.79083    0.28848    1.000
    H1       H        0.20330    0.03110    0.00350    1.000
    H2       H        0.51780    0.01950    0.80130    1.000
    H3       H        0.65740    0.83680    0.01480    1.000
    H4       H        0.84410    0.81960    0.90020    1.000
    H5       H        0.84830    0.94600    0.84410    1.000
    H6       H        0.75210    0.82030    0.81170    1.000
    H7       H        0.79670    0.53110    0.99650    1.000
    H8       H        0.48220    0.51950    0.19870    1.000
    H9       H        0.34260    0.33680    0.98520    1.000
    H10      H        0.15590    0.31960    0.09980    1.000
    H11      H        0.15170    0.44600    0.15590    1.000
    H12      H        0.24790    0.32030    0.18830    1.000
    H13      H        0.70330    0.03110    0.49650    1.000
    H14      H        0.01780    0.01950    0.69870    1.000
    H15      H        0.15740    0.83680    0.48520    1.000
    H16      H        0.34410    0.81960    0.59980    1.000
    H17      H        0.34830    0.94600    0.65590    1.000
    H18      H        0.25210    0.82030    0.68830    1.000
    H19      H        0.29670    0.53110    0.50350    1.000
    H20      H        0.98220    0.51950    0.30130    1.000
    H21      H        0.84260    0.33680    0.51480    1.000
    H22      H        0.65590    0.31960    0.40020    1.000
    H23      H        0.65170    0.44600    0.34410    1.000
    H24      H        0.74790    0.32030    0.31170    1.000
    C1       C        0.38930    0.89590    0.11470    1.000
    C2       C        0.42630    0.93070    0.02430    1.000
    C3       C        0.30710    0.00480    0.97850    1.000
    C4       C        0.34330    0.03930    0.89530    1.000
    C5       C        0.49500    0.99630    0.85700    1.000
    C6       C        0.61510    0.91810    0.90130    1.000
    C7       C        0.57880    0.88750    0.98440    1.000
    C8       C        0.77960    0.87190    0.86070    1.000
    C9       C        0.21940    0.12370    0.84790    1.000
    C10      C        0.61070    0.39590    0.88530    1.000
    C11      C        0.57370    0.43070    0.97570    1.000
    C12      C        0.69290    0.50480    0.02150    1.000
    C13      C        0.65670    0.53930    0.10470    1.000
    C14      C        0.50500    0.49630    0.14300    1.000
    C15      C        0.38490    0.41810    0.09870    1.000
    C16      C        0.42120    0.38750    0.01560    1.000
    C17      C        0.22040    0.37190    0.13930    1.000
    C18      C        0.78060    0.62370    0.15210    1.000
    C19      C        0.88930    0.89590    0.38530    1.000
    C20      C        0.92630    0.93070    0.47570    1.000
    C21      C        0.80710    0.00480    0.52150    1.000
    C22      C        0.84330    0.03930    0.60470    1.000
    C23      C        0.99500    0.99630    0.64300    1.000
    C24      C        0.11510    0.91810    0.59870    1.000
    C25      C        0.07880    0.88750    0.51560    1.000
    C26      C        0.27960    0.87190    0.63930    1.000
    C27      C        0.71940    0.12370    0.65210    1.000
    C28      C        0.11070    0.39590    0.61470    1.000
    C29      C        0.07370    0.43070    0.52430    1.000
    C30      C        0.19290    0.50480    0.47850    1.000
    C31      C        0.15670    0.53930    0.39530    1.000
    C32      C        0.00500    0.49630    0.35700    1.000
    C33      C        0.88490    0.41810    0.40130    1.000
    C34      C        0.92120    0.38750    0.48440    1.000
    C35      C        0.72040    0.37190    0.36070    1.000
    C36      C        0.28060    0.62370    0.34790    1.000
    O1       O        0.23840    0.89560    0.13950    1.000
    O2       O        0.52380    0.87150    0.16040    1.000
    O3       O        0.07520    0.15140    0.88320    1.000
    O4       O        0.25090    0.16560    0.77450    1.000
    O5       O        0.76160    0.39560    0.86050    1.000
    O6       O        0.47620    0.37150    0.83960    1.000
    O7       O        0.92480    0.65140    0.11680    1.000
    O8       O        0.74910    0.66560    0.22550    1.000
    O9       O        0.73840    0.89560    0.36050    1.000
    O10      O        0.02380    0.87150    0.33960    1.000
    O11      O        0.57520    0.15140    0.61680    1.000
    O12      O        0.75090    0.16560    0.72550    1.000
    O13      O        0.26160    0.39560    0.63950    1.000
    O14      O        0.97620    0.37150    0.66040    1.000
    O15      O        0.42480    0.65140    0.38320    1.000
    O16      O        0.24910    0.66560    0.27450    1.000
