data_functionalizedCrystal
_audit_creation_method	'EQeq! by Chris Wilmer'
_symmetry_space_group_name_H-M	'P1'
_symmetry_Int_Tables_number	1
_symmetry_cell_setting	triclinic
loop_
_symmetry_equiv_pos_as_xyz
  x,y,z
_cell_length_a	22.515
_cell_length_b	22.515
_cell_length_c	22.515
_cell_angle_alpha	90
_cell_angle_beta	90
_cell_angle_gamma	90
loop_
_atom_site_label
_atom_site_type_symbol
_atom_site_fract_x
_atom_site_fract_y
_atom_site_fract_z
_atom_site_charge
Mof_C 	C 	0.67495	0.31792	0.04867	-0.255
Mof_C 	C 	0.66724	0.37896	0.03356	0.163
Mof_H 	H 	0.6708	0.408	0.0628	-0.022
Mof_C 	C 	0.65461	0.3952	0.97593	-0.256
Mof_H 	H 	0.6506	0.4351	0.9662	0.12
Mof_C 	C 	0.64794	0.35266	0.93302	0.193
Mof_C 	C 	0.65417	0.29338	0.94687	-0.264
Mof_H 	H 	0.6491	0.2646	0.9177	0.115
Mof_C 	C 	0.66802	0.27697	0.00457	0.177
Mof_H 	H 	0.6727	0.2369	0.0135	-0.025
Mof_C 	C 	0.6957	0.2986	0.10903	0.531
Mof_O 	O 	0.7052	0.2476	0.115	-0.688
Mof_O 	O 	0.69876	0.33515	0.15002	-0.63
Mof_Zn	Zn	0.67741	0.23739	0.20381	1.103
Mof_C 	C 	0.82505	0.68208	0.54867	-0.255
Mof_C 	C 	0.83276	0.62104	0.53356	0.163
Mof_H 	H 	0.8292	0.592	0.5628	-0.022
Mof_C 	C 	0.84539	0.6048	0.47593	-0.256
Mof_H 	H 	0.8494	0.5649	0.4662	0.12
Mof_C 	C 	0.85206	0.64734	0.43302	0.193
Mof_C 	C 	0.84583	0.70662	0.44687	-0.264
Mof_H 	H 	0.8509	0.7354	0.4177	0.115
Mof_C 	C 	0.83198	0.72303	0.50457	0.177
Mof_H 	H 	0.8273	0.7631	0.5135	-0.025
Mof_C 	C 	0.8043	0.7014	0.60903	0.531
Mof_O 	O 	0.7948	0.7524	0.615	-0.688
Mof_O 	O 	0.80124	0.66485	0.65002	-0.63
Mof_Zn	Zn	0.82259	0.76261	0.70381	1.103
Mof_C 	C 	0.32505	0.81792	0.45133	-0.255
Mof_C 	C 	0.33276	0.87896	0.46644	0.163
Mof_H 	H 	0.3292	0.908	0.4372	-0.022
Mof_C 	C 	0.34539	0.8952	0.52407	-0.256
Mof_H 	H 	0.3494	0.9351	0.5338	0.12
Mof_C 	C 	0.35206	0.85266	0.56698	0.193
Mof_C 	C 	0.34583	0.79338	0.55313	-0.264
Mof_H 	H 	0.3509	0.7646	0.5823	0.115
Mof_C 	C 	0.33198	0.77697	0.49543	0.177
Mof_H 	H 	0.3273	0.7369	0.4865	-0.025
Mof_C 	C 	0.3043	0.7986	0.39097	0.531
Mof_O 	O 	0.2948	0.7476	0.385	-0.688
Mof_O 	O 	0.30124	0.83515	0.34998	-0.63
Mof_Zn	Zn	0.32259	0.73739	0.29619	1.103
Mof_C 	C 	0.17495	0.18208	0.95133	-0.255
Mof_C 	C 	0.16724	0.12104	0.96644	0.163
Mof_H 	H 	0.1708	0.092	0.9372	-0.022
Mof_C 	C 	0.15461	0.1048	0.02407	-0.256
Mof_H 	H 	0.1506	0.0649	0.0338	0.12
Mof_C 	C 	0.14794	0.14734	0.06698	0.193
Mof_C 	C 	0.15417	0.20662	0.05313	-0.263
Mof_H 	H 	0.1491	0.2354	0.0823	0.116
Mof_C 	C 	0.16802	0.22303	0.99543	0.178
Mof_H 	H 	0.1727	0.2631	0.9865	-0.024
Mof_C 	C 	0.1957	0.2014	0.89097	0.532
Mof_O 	O 	0.2052	0.2524	0.885	-0.687
Mof_O 	O 	0.19876	0.16485	0.84998	-0.629
Mof_Zn	Zn	0.17741	0.26261	0.79619	1.104
Mof_C 	C 	0.04867	0.67495	0.31792	-0.254
Mof_C 	C 	0.03356	0.66724	0.37896	0.164
Mof_H 	H 	0.0628	0.6708	0.408	-0.021
Mof_C 	C 	0.97593	0.65461	0.3952	-0.255
Mof_H 	H 	0.9662	0.6506	0.4351	0.121
Mof_C 	C 	0.93302	0.64794	0.35266	0.194
Mof_C 	C 	0.94687	0.65417	0.29338	-0.263
Mof_H 	H 	0.9177	0.6491	0.2646	0.116
Mof_C 	C 	0.00457	0.66802	0.27697	0.178
Mof_H 	H 	0.0135	0.6727	0.2369	-0.024
Mof_C 	C 	0.10903	0.6957	0.2986	0.532
Mof_O 	O 	0.115	0.7052	0.2476	-0.687
Mof_O 	O 	0.15002	0.69876	0.33515	-0.629
Mof_Zn	Zn	0.20381	0.67741	0.23739	1.104
Mof_C 	C 	0.54867	0.82505	0.68208	-0.254
Mof_C 	C 	0.53356	0.83276	0.62104	0.164
Mof_H 	H 	0.5628	0.8292	0.592	-0.021
Mof_C 	C 	0.47593	0.84539	0.6048	-0.255
Mof_H 	H 	0.4662	0.8494	0.5649	0.121
Mof_C 	C 	0.43302	0.85206	0.64734	0.194
Mof_C 	C 	0.44687	0.84583	0.70662	-0.263
Mof_H 	H 	0.4177	0.8509	0.7354	0.116
Mof_C 	C 	0.50457	0.83198	0.72303	0.178
Mof_H 	H 	0.5135	0.8273	0.7631	-0.024
Mof_C 	C 	0.60903	0.8043	0.7014	0.532
Mof_O 	O 	0.615	0.7948	0.7524	-0.687
Mof_O 	O 	0.65002	0.80124	0.66485	-0.629
Mof_Zn	Zn	0.70381	0.82259	0.76261	1.104
Mof_C 	C 	0.45133	0.32505	0.81792	-0.254
Mof_C 	C 	0.46644	0.33276	0.87896	0.164
Mof_H 	H 	0.4372	0.3292	0.908	-0.021
Mof_C 	C 	0.52407	0.34539	0.8952	-0.255
Mof_H 	H 	0.5338	0.3494	0.9351	0.121
Mof_C 	C 	0.56698	0.35206	0.85266	0.194
Mof_C 	C 	0.55313	0.34583	0.79338	-0.263
Mof_H 	H 	0.5823	0.3509	0.7646	0.116
Mof_C 	C 	0.49543	0.33198	0.77697	0.178
Mof_H 	H 	0.4865	0.3273	0.7369	-0.024
Mof_C 	C 	0.39097	0.3043	0.7986	0.532
Mof_O 	O 	0.385	0.2948	0.7476	-0.687
Mof_O 	O 	0.34998	0.30124	0.83515	-0.629
Mof_Zn	Zn	0.29619	0.32259	0.73739	1.104
Mof_C 	C 	0.95133	0.17495	0.18208	-0.254
Mof_C 	C 	0.96644	0.16724	0.12104	0.164
Mof_H 	H 	0.9372	0.1708	0.092	-0.021
Mof_C 	C 	0.02407	0.15461	0.1048	-0.255
Mof_H 	H 	0.0338	0.1506	0.0649	0.121
Mof_C 	C 	0.06698	0.14794	0.14734	0.194
Mof_C 	C 	0.05313	0.15417	0.20662	-0.263
Mof_H 	H 	0.0823	0.1491	0.2354	0.116
Mof_C 	C 	0.99543	0.16802	0.22303	0.178
Mof_H 	H 	0.9865	0.1727	0.2631	-0.024
Mof_C 	C 	0.89097	0.1957	0.2014	0.532
Mof_O 	O 	0.885	0.2052	0.2524	-0.687
Mof_O 	O 	0.84998	0.19876	0.16485	-0.629
Mof_Zn	Zn	0.79619	0.17741	0.26261	1.104
Mof_C 	C 	0.31792	0.04867	0.67495	-0.254
Mof_C 	C 	0.37896	0.03356	0.66724	0.164
Mof_H 	H 	0.408	0.0628	0.6708	-0.021
Mof_C 	C 	0.3952	0.97593	0.65461	-0.255
Mof_H 	H 	0.4351	0.9662	0.6506	0.121
Mof_C 	C 	0.35266	0.93302	0.64794	0.194
Mof_C 	C 	0.29338	0.94687	0.65417	-0.263
Mof_H 	H 	0.2646	0.9177	0.6491	0.116
Mof_C 	C 	0.27697	0.00457	0.66802	0.178
Mof_H 	H 	0.2369	0.0135	0.6727	-0.024
Mof_C 	C 	0.2986	0.10903	0.6957	0.532
Mof_O 	O 	0.2476	0.115	0.7052	-0.687
Mof_O 	O 	0.33515	0.15002	0.69876	-0.629
Mof_Zn	Zn	0.23739	0.20381	0.67741	1.104
Mof_C 	C 	0.68208	0.54867	0.82505	-0.254
Mof_C 	C 	0.62104	0.53356	0.83276	0.164
Mof_H 	H 	0.592	0.5628	0.8292	-0.021
Mof_C 	C 	0.6048	0.47593	0.84539	-0.255
Mof_H 	H 	0.5649	0.4662	0.8494	0.121
Mof_C 	C 	0.64734	0.43302	0.85206	0.194
Mof_C 	C 	0.70662	0.44687	0.84583	-0.263
Mof_H 	H 	0.7354	0.4177	0.8509	0.116
Mof_C 	C 	0.72303	0.50457	0.83198	0.178
Mof_H 	H 	0.7631	0.5135	0.8273	-0.024
Mof_C 	C 	0.7014	0.60903	0.8043	0.532
Mof_O 	O 	0.7524	0.615	0.7948	-0.687
Mof_O 	O 	0.66485	0.65002	0.80124	-0.629
Mof_Zn	Zn	0.76261	0.70381	0.82259	1.104
Mof_C 	C 	0.81792	0.45133	0.32505	-0.254
Mof_C 	C 	0.87896	0.46644	0.33276	0.164
Mof_H 	H 	0.908	0.4372	0.3292	-0.021
Mof_C 	C 	0.8952	0.52407	0.34539	-0.255
Mof_H 	H 	0.9351	0.5338	0.3494	0.121
Mof_C 	C 	0.85266	0.56698	0.35206	0.194
Mof_C 	C 	0.79338	0.55313	0.34583	-0.263
Mof_H 	H 	0.7646	0.5823	0.3509	0.116
Mof_C 	C 	0.77697	0.49543	0.33198	0.178
Mof_H 	H 	0.7369	0.4865	0.3273	-0.024
Mof_C 	C 	0.7986	0.39097	0.3043	0.532
Mof_O 	O 	0.7476	0.385	0.2948	-0.687
Mof_O 	O 	0.83515	0.34998	0.30124	-0.629
Mof_Zn	Zn	0.73739	0.29619	0.32259	1.104
Mof_C 	C 	0.18208	0.95133	0.17495	-0.254
Mof_C 	C 	0.12104	0.96644	0.16724	0.164
Mof_H 	H 	0.092	0.9372	0.1708	-0.021
Mof_C 	C 	0.1048	0.02407	0.15461	-0.255
Mof_H 	H 	0.0649	0.0338	0.1506	0.121
Mof_C 	C 	0.14734	0.06698	0.14794	0.194
Mof_C 	C 	0.20662	0.05313	0.15417	-0.263
Mof_H 	H 	0.2354	0.0823	0.1491	0.116
Mof_C 	C 	0.22303	0.99543	0.16802	0.178
Mof_H 	H 	0.2631	0.9865	0.1727	-0.024
Mof_C 	C 	0.2014	0.89097	0.1957	0.532
Mof_O 	O 	0.2524	0.885	0.2052	-0.687
Mof_O 	O 	0.16485	0.84998	0.19876	-0.629
Mof_Zn	Zn	0.26261	0.79619	0.17741	1.104
Mof_C 	C 	0.82505	0.18208	0.45133	-0.254
Mof_C 	C 	0.83276	0.12104	0.46644	0.164
Mof_H 	H 	0.8292	0.092	0.4372	-0.021
Mof_C 	C 	0.84539	0.1048	0.52407	-0.255
Mof_H 	H 	0.8494	0.0649	0.5338	0.121
Mof_C 	C 	0.85206	0.14734	0.56698	0.194
Mof_C 	C 	0.84583	0.20662	0.55313	-0.263
Mof_H 	H 	0.8509	0.2354	0.5823	0.116
Mof_C 	C 	0.83198	0.22303	0.49543	0.178
Mof_H 	H 	0.8273	0.2631	0.4865	-0.024
Mof_C 	C 	0.8043	0.2014	0.39097	0.532
Mof_O 	O 	0.7948	0.2524	0.385	-0.687
Mof_O 	O 	0.80124	0.16485	0.34998	-0.629
Mof_Zn	Zn	0.82259	0.26261	0.29619	1.104
Mof_C 	C 	0.67495	0.81792	0.95133	-0.254
Mof_C 	C 	0.66724	0.87896	0.96644	0.164
Mof_H 	H 	0.6708	0.908	0.9372	-0.021
Mof_C 	C 	0.65461	0.8952	0.02407	-0.255
Mof_H 	H 	0.6506	0.9351	0.0338	0.121
Mof_C 	C 	0.64794	0.85266	0.06698	0.194
Mof_C 	C 	0.65417	0.79338	0.05313	-0.263
Mof_H 	H 	0.6491	0.7646	0.0823	0.116
Mof_C 	C 	0.66802	0.77697	0.99543	0.178
Mof_H 	H 	0.6727	0.7369	0.9865	-0.024
Mof_C 	C 	0.6957	0.7986	0.89097	0.532
Mof_O 	O 	0.7052	0.7476	0.885	-0.687
Mof_O 	O 	0.69876	0.83515	0.84998	-0.629
Mof_Zn	Zn	0.67741	0.73739	0.79619	1.104
Mof_C 	C 	0.17495	0.68208	0.04867	-0.254
Mof_C 	C 	0.16724	0.62104	0.03356	0.164
Mof_H 	H 	0.1708	0.592	0.0628	-0.021
Mof_C 	C 	0.15461	0.6048	0.97593	-0.255
Mof_H 	H 	0.1506	0.5649	0.9662	0.121
Mof_C 	C 	0.14794	0.64734	0.93302	0.194
Mof_C 	C 	0.15417	0.70662	0.94687	-0.263
Mof_H 	H 	0.1491	0.7354	0.9177	0.116
Mof_C 	C 	0.16802	0.72303	0.00457	0.178
Mof_H 	H 	0.1727	0.7631	0.0135	-0.024
Mof_C 	C 	0.1957	0.7014	0.10903	0.532
Mof_O 	O 	0.2052	0.7524	0.115	-0.687
Mof_O 	O 	0.19876	0.66485	0.15002	-0.629
Mof_Zn	Zn	0.17741	0.76261	0.20381	1.104
Mof_C 	C 	0.32505	0.31792	0.54867	-0.254
Mof_C 	C 	0.33276	0.37896	0.53356	0.164
Mof_H 	H 	0.3292	0.408	0.5628	-0.021
Mof_C 	C 	0.34539	0.3952	0.47593	-0.255
Mof_H 	H 	0.3494	0.4351	0.4662	0.121
Mof_C 	C 	0.35206	0.35266	0.43302	0.194
Mof_C 	C 	0.34583	0.29338	0.44687	-0.263
Mof_H 	H 	0.3509	0.2646	0.4177	0.116
Mof_C 	C 	0.33198	0.27697	0.50457	0.178
Mof_H 	H 	0.3273	0.2369	0.5135	-0.024
Mof_C 	C 	0.3043	0.2986	0.60903	0.532
Mof_O 	O 	0.2948	0.2476	0.615	-0.687
Mof_O 	O 	0.30124	0.33515	0.65002	-0.629
Mof_Zn	Zn	0.32259	0.23739	0.70381	1.104
Mof_C 	C 	0.45133	0.82505	0.18208	-0.254
Mof_C 	C 	0.46644	0.83276	0.12104	0.164
Mof_H 	H 	0.4372	0.8292	0.092	-0.021
Mof_C 	C 	0.52407	0.84539	0.1048	-0.255
Mof_H 	H 	0.5338	0.8494	0.0649	0.121
Mof_C 	C 	0.56698	0.85206	0.14734	0.194
Mof_C 	C 	0.55313	0.84583	0.20662	-0.263
Mof_H 	H 	0.5823	0.8509	0.2354	0.116
Mof_C 	C 	0.49543	0.83198	0.22303	0.178
Mof_H 	H 	0.4865	0.8273	0.2631	-0.024
Mof_C 	C 	0.39097	0.8043	0.2014	0.532
Mof_O 	O 	0.385	0.7948	0.2524	-0.687
Mof_O 	O 	0.34998	0.80124	0.16485	-0.629
Mof_Zn	Zn	0.29619	0.82259	0.26261	1.104
Mof_C 	C 	0.95133	0.67495	0.81792	-0.254
Mof_C 	C 	0.96644	0.66724	0.87896	0.164
Mof_H 	H 	0.9372	0.6708	0.908	-0.021
Mof_C 	C 	0.02407	0.65461	0.8952	-0.255
Mof_H 	H 	0.0338	0.6506	0.9351	0.121
Mof_C 	C 	0.06698	0.64794	0.85266	0.194
Mof_C 	C 	0.05313	0.65417	0.79338	-0.263
Mof_H 	H 	0.0823	0.6491	0.7646	0.116
Mof_C 	C 	0.99543	0.66802	0.77697	0.178
Mof_H 	H 	0.9865	0.6727	0.7369	-0.024
Mof_C 	C 	0.89097	0.6957	0.7986	0.532
Mof_O 	O 	0.885	0.7052	0.7476	-0.687
Mof_O 	O 	0.84998	0.69876	0.83515	-0.629
Mof_Zn	Zn	0.79619	0.67741	0.73739	1.104
Mof_C 	C 	0.04867	0.17495	0.68208	-0.254
Mof_C 	C 	0.03356	0.16724	0.62104	0.164
Mof_H 	H 	0.0628	0.1708	0.592	-0.021
Mof_C 	C 	0.97593	0.15461	0.6048	-0.255
Mof_H 	H 	0.9662	0.1506	0.5649	0.121
Mof_C 	C 	0.93302	0.14794	0.64734	0.194
Mof_C 	C 	0.94687	0.15417	0.70662	-0.263
Mof_H 	H 	0.9177	0.1491	0.7354	0.116
Mof_C 	C 	0.00457	0.16802	0.72303	0.178
Mof_H 	H 	0.0135	0.1727	0.7631	-0.024
Mof_C 	C 	0.10903	0.1957	0.7014	0.532
Mof_O 	O 	0.115	0.2052	0.7524	-0.687
Mof_O 	O 	0.15002	0.19876	0.66485	-0.629
Mof_Zn	Zn	0.20381	0.17741	0.76261	1.104
Mof_C 	C 	0.54867	0.32505	0.31792	-0.254
Mof_C 	C 	0.53356	0.33276	0.37896	0.164
Mof_H 	H 	0.5628	0.3292	0.408	-0.021
Mof_C 	C 	0.47593	0.34539	0.3952	-0.255
Mof_H 	H 	0.4662	0.3494	0.4351	0.121
Mof_C 	C 	0.43302	0.35206	0.35266	0.194
Mof_C 	C 	0.44687	0.34583	0.29338	-0.263
Mof_H 	H 	0.4177	0.3509	0.2646	0.116
Mof_C 	C 	0.50457	0.33198	0.27697	0.178
Mof_H 	H 	0.5135	0.3273	0.2369	-0.024
Mof_C 	C 	0.60903	0.3043	0.2986	0.532
Mof_O 	O 	0.615	0.2948	0.2476	-0.687
Mof_O 	O 	0.65002	0.30124	0.33515	-0.629
Mof_Zn	Zn	0.70381	0.32259	0.23739	1.104
Mof_C 	C 	0.18208	0.45133	0.82505	-0.254
Mof_C 	C 	0.12104	0.46644	0.83276	0.164
Mof_H 	H 	0.092	0.4372	0.8292	-0.021
Mof_C 	C 	0.1048	0.52407	0.84539	-0.255
Mof_H 	H 	0.0649	0.5338	0.8494	0.121
Mof_C 	C 	0.14734	0.56698	0.85206	0.194
Mof_C 	C 	0.20662	0.55313	0.84583	-0.263
Mof_H 	H 	0.2354	0.5823	0.8509	0.116
Mof_C 	C 	0.22303	0.49543	0.83198	0.178
Mof_H 	H 	0.2631	0.4865	0.8273	-0.024
Mof_C 	C 	0.2014	0.39097	0.8043	0.532
Mof_O 	O 	0.2524	0.385	0.7948	-0.687
Mof_O 	O 	0.16485	0.34998	0.80124	-0.629
Mof_Zn	Zn	0.26261	0.29619	0.82259	1.104
Mof_C 	C 	0.81792	0.95133	0.67495	-0.254
Mof_C 	C 	0.87896	0.96644	0.66724	0.164
Mof_H 	H 	0.908	0.9372	0.6708	-0.021
Mof_C 	C 	0.8952	0.02407	0.65461	-0.255
Mof_H 	H 	0.9351	0.0338	0.6506	0.121
Mof_C 	C 	0.85266	0.06698	0.64794	0.194
Mof_C 	C 	0.79338	0.05313	0.65417	-0.263
Mof_H 	H 	0.7646	0.0823	0.6491	0.116
Mof_C 	C 	0.77697	0.99543	0.66802	0.178
Mof_H 	H 	0.7369	0.9865	0.6727	-0.024
Mof_C 	C 	0.7986	0.89097	0.6957	0.532
Mof_O 	O 	0.7476	0.885	0.7052	-0.687
Mof_O 	O 	0.83515	0.84998	0.69876	-0.629
Mof_Zn	Zn	0.73739	0.79619	0.67741	1.104
Mof_C 	C 	0.68208	0.04867	0.17495	-0.254
Mof_C 	C 	0.62104	0.03356	0.16724	0.164
Mof_H 	H 	0.592	0.0628	0.1708	-0.021
Mof_C 	C 	0.6048	0.97593	0.15461	-0.255
Mof_H 	H 	0.5649	0.9662	0.1506	0.121
Mof_C 	C 	0.64734	0.93302	0.14794	0.194
Mof_C 	C 	0.70662	0.94687	0.15417	-0.263
Mof_H 	H 	0.7354	0.9177	0.1491	0.116
Mof_C 	C 	0.72303	0.00457	0.16802	0.178
Mof_H 	H 	0.7631	0.0135	0.1727	-0.024
Mof_C 	C 	0.7014	0.10903	0.1957	0.532
Mof_O 	O 	0.7524	0.115	0.2052	-0.687
Mof_O 	O 	0.66485	0.15002	0.19876	-0.629
Mof_Zn	Zn	0.76261	0.20381	0.17741	1.104
Mof_C 	C 	0.31792	0.54867	0.32505	-0.254
Mof_C 	C 	0.37896	0.53356	0.33276	0.164
Mof_H 	H 	0.408	0.5628	0.3292	-0.021
Mof_C 	C 	0.3952	0.47593	0.34539	-0.255
Mof_H 	H 	0.4351	0.4662	0.3494	0.121
Mof_C 	C 	0.35266	0.43302	0.35206	0.194
Mof_C 	C 	0.29338	0.44687	0.34583	-0.263
Mof_H 	H 	0.2646	0.4177	0.3509	0.116
Mof_C 	C 	0.27697	0.50457	0.33198	0.178
Mof_H 	H 	0.2369	0.5135	0.3273	-0.024
Mof_C 	C 	0.2986	0.60903	0.3043	0.532
Mof_O 	O 	0.2476	0.615	0.2948	-0.687
Mof_O 	O 	0.33515	0.65002	0.30124	-0.629
Mof_Zn	Zn	0.23739	0.70381	0.32259	1.104
Mof_C 	C 	0.63546	0.36454	0.86454	-0.237
Mof_H 	H 	0.6606	0.3394	0.8394	0.053
Mof_C 	C 	0.86454	0.63546	0.36454	-0.237
Mof_H 	H 	0.8394	0.6606	0.3394	0.053
Mof_C 	C 	0.36454	0.86454	0.63546	-0.237
Mof_H 	H 	0.3394	0.8394	0.6606	0.053
Mof_C 	C 	0.13546	0.13546	0.13546	-0.237
Mof_H 	H 	0.1606	0.1606	0.1606	0.053
Mof_C 	C 	0.86454	0.13546	0.63546	-0.237
Mof_H 	H 	0.8394	0.1606	0.6606	0.053
Mof_C 	C 	0.63546	0.86454	0.13546	-0.237
Mof_H 	H 	0.6606	0.8394	0.1606	0.053
Mof_C 	C 	0.13546	0.63546	0.86454	-0.237
Mof_H 	H 	0.1606	0.6606	0.8394	0.053
Mof_C 	C 	0.36454	0.36454	0.36454	-0.237
Mof_H 	H 	0.3394	0.3394	0.3394	0.053
Mof_O 	O 	0.75	0.25	0.25	-1.282
Mof_O 	O 	0.75	0.75	0.75	-1.282
Mof_O 	O 	0.25	0.75	0.25	-1.282
Mof_O 	O 	0.25	0.25	0.75	-1.282
Mof_C 	C 	0.17495	0.81792	0.54867	-0.254
Mof_C 	C 	0.16724	0.87896	0.53356	0.164
Mof_H 	H 	0.1708	0.908	0.5628	-0.021
Mof_C 	C 	0.15461	0.8952	0.47593	-0.255
Mof_H 	H 	0.1506	0.9351	0.4662	0.121
Mof_C 	C 	0.14794	0.85266	0.43302	0.194
Mof_C 	C 	0.15417	0.79338	0.44687	-0.263
Mof_H 	H 	0.1491	0.7646	0.4177	0.116
Mof_C 	C 	0.16802	0.77697	0.50457	0.178
Mof_H 	H 	0.1727	0.7369	0.5135	-0.024
Mof_C 	C 	0.1957	0.7986	0.60903	0.532
Mof_O 	O 	0.2052	0.7476	0.615	-0.687
Mof_O 	O 	0.19876	0.83515	0.65002	-0.629
Mof_Zn	Zn	0.17741	0.73739	0.70381	1.104
Mof_C 	C 	0.32505	0.18208	0.04867	-0.254
Mof_C 	C 	0.33276	0.12104	0.03356	0.164
Mof_H 	H 	0.3292	0.092	0.0628	-0.021
Mof_C 	C 	0.34539	0.1048	0.97593	-0.255
Mof_H 	H 	0.3494	0.0649	0.9662	0.121
Mof_C 	C 	0.35206	0.14734	0.93302	0.194
Mof_C 	C 	0.34583	0.20662	0.94687	-0.263
Mof_H 	H 	0.3509	0.2354	0.9177	0.116
Mof_C 	C 	0.33198	0.22303	0.00457	0.178
Mof_H 	H 	0.3273	0.2631	0.0135	-0.024
Mof_C 	C 	0.3043	0.2014	0.10903	0.532
Mof_O 	O 	0.2948	0.2524	0.115	-0.687
Mof_O 	O 	0.30124	0.16485	0.15002	-0.629
Mof_Zn	Zn	0.32259	0.26261	0.20381	1.104
Mof_C 	C 	0.82505	0.31792	0.95133	-0.254
Mof_C 	C 	0.83276	0.37896	0.96644	0.164
Mof_H 	H 	0.8292	0.408	0.9372	-0.021
Mof_C 	C 	0.84539	0.3952	0.02407	-0.255
Mof_H 	H 	0.8494	0.4351	0.0338	0.121
Mof_C 	C 	0.85206	0.35266	0.06698	0.194
Mof_C 	C 	0.84583	0.29338	0.05313	-0.263
Mof_H 	H 	0.8509	0.2646	0.0823	0.116
Mof_C 	C 	0.83198	0.27697	0.99543	0.178
Mof_H 	H 	0.8273	0.2369	0.9865	-0.024
Mof_C 	C 	0.8043	0.2986	0.89097	0.532
Mof_O 	O 	0.7948	0.2476	0.885	-0.687
Mof_O 	O 	0.80124	0.33515	0.84998	-0.629
Mof_Zn	Zn	0.82259	0.23739	0.79619	1.104
Mof_C 	C 	0.67495	0.68208	0.45133	-0.254
Mof_C 	C 	0.66724	0.62104	0.46644	0.164
Mof_H 	H 	0.6708	0.592	0.4372	-0.021
Mof_C 	C 	0.65461	0.6048	0.52407	-0.255
Mof_H 	H 	0.6506	0.5649	0.5338	0.121
Mof_C 	C 	0.64794	0.64734	0.56698	0.194
Mof_C 	C 	0.65417	0.70662	0.55313	-0.263
Mof_H 	H 	0.6491	0.7354	0.5823	0.116
Mof_C 	C 	0.66802	0.72303	0.49543	0.178
Mof_H 	H 	0.6727	0.7631	0.4865	-0.024
Mof_C 	C 	0.6957	0.7014	0.39097	0.532
Mof_O 	O 	0.7052	0.7524	0.385	-0.687
Mof_O 	O 	0.69876	0.66485	0.34998	-0.629
Mof_Zn	Zn	0.67741	0.76261	0.29619	1.104
Mof_C 	C 	0.54867	0.17495	0.81792	-0.254
Mof_C 	C 	0.53356	0.16724	0.87896	0.164
Mof_H 	H 	0.5628	0.1708	0.908	-0.021
Mof_C 	C 	0.47593	0.15461	0.8952	-0.255
Mof_H 	H 	0.4662	0.1506	0.9351	0.121
Mof_C 	C 	0.43302	0.14794	0.85266	0.194
Mof_C 	C 	0.44687	0.15417	0.79338	-0.263
Mof_H 	H 	0.4177	0.1491	0.7646	0.116
Mof_C 	C 	0.50457	0.16802	0.77697	0.178
Mof_H 	H 	0.5135	0.1727	0.7369	-0.024
Mof_C 	C 	0.60903	0.1957	0.7986	0.532
Mof_O 	O 	0.615	0.2052	0.7476	-0.687
Mof_O 	O 	0.65002	0.19876	0.83515	-0.629
Mof_Zn	Zn	0.70381	0.17741	0.73739	1.104
Mof_C 	C 	0.04867	0.32505	0.18208	-0.254
Mof_C 	C 	0.03356	0.33276	0.12104	0.164
Mof_H 	H 	0.0628	0.3292	0.092	-0.021
Mof_C 	C 	0.97593	0.34539	0.1048	-0.255
Mof_H 	H 	0.9662	0.3494	0.0649	0.121
Mof_C 	C 	0.93302	0.35206	0.14734	0.194
Mof_C 	C 	0.94687	0.34583	0.20662	-0.263
Mof_H 	H 	0.9177	0.3509	0.2354	0.116
Mof_C 	C 	0.00457	0.33198	0.22303	0.178
Mof_H 	H 	0.0135	0.3273	0.2631	-0.024
Mof_C 	C 	0.10903	0.3043	0.2014	0.532
Mof_O 	O 	0.115	0.2948	0.2524	-0.687
Mof_O 	O 	0.15002	0.30124	0.16485	-0.629
Mof_Zn	Zn	0.20381	0.32259	0.26261	1.104
Mof_C 	C 	0.95133	0.82505	0.31792	-0.254
Mof_C 	C 	0.96644	0.83276	0.37896	0.164
Mof_H 	H 	0.9372	0.8292	0.408	-0.021
Mof_C 	C 	0.02407	0.84539	0.3952	-0.255
Mof_H 	H 	0.0338	0.8494	0.4351	0.121
Mof_C 	C 	0.06698	0.85206	0.35266	0.194
Mof_C 	C 	0.05313	0.84583	0.29338	-0.263
Mof_H 	H 	0.0823	0.8509	0.2646	0.116
Mof_C 	C 	0.99543	0.83198	0.27697	0.178
Mof_H 	H 	0.9865	0.8273	0.2369	-0.024
Mof_C 	C 	0.89097	0.8043	0.2986	0.532
Mof_O 	O 	0.885	0.7948	0.2476	-0.687
Mof_O 	O 	0.84998	0.80124	0.33515	-0.629
Mof_Zn	Zn	0.79619	0.82259	0.23739	1.104
Mof_C 	C 	0.45133	0.67495	0.68208	-0.254
Mof_C 	C 	0.46644	0.66724	0.62104	0.164
Mof_H 	H 	0.4372	0.6708	0.592	-0.021
Mof_C 	C 	0.52407	0.65461	0.6048	-0.255
Mof_H 	H 	0.5338	0.6506	0.5649	0.121
Mof_C 	C 	0.56698	0.64794	0.64734	0.194
Mof_C 	C 	0.55313	0.65417	0.70662	-0.263
Mof_H 	H 	0.5823	0.6491	0.7354	0.116
Mof_C 	C 	0.49543	0.66802	0.72303	0.178
Mof_H 	H 	0.4865	0.6727	0.7631	-0.024
Mof_C 	C 	0.39097	0.6957	0.7014	0.532
Mof_O 	O 	0.385	0.7052	0.7524	-0.687
Mof_O 	O 	0.34998	0.69876	0.66485	-0.629
Mof_Zn	Zn	0.29619	0.67741	0.76261	1.104
Mof_C 	C 	0.81792	0.54867	0.17495	-0.254
Mof_C 	C 	0.87896	0.53356	0.16724	0.164
Mof_H 	H 	0.908	0.5628	0.1708	-0.021
Mof_C 	C 	0.8952	0.47593	0.15461	-0.255
Mof_H 	H 	0.9351	0.4662	0.1506	0.121
Mof_C 	C 	0.85266	0.43302	0.14794	0.194
Mof_C 	C 	0.79338	0.44687	0.15417	-0.263
Mof_H 	H 	0.7646	0.4177	0.1491	0.116
Mof_C 	C 	0.77697	0.50457	0.16802	0.178
Mof_H 	H 	0.7369	0.5135	0.1727	-0.024
Mof_C 	C 	0.7986	0.60903	0.1957	0.532
Mof_O 	O 	0.7476	0.615	0.2052	-0.687
Mof_O 	O 	0.83515	0.65002	0.19876	-0.629
Mof_Zn	Zn	0.73739	0.70381	0.17741	1.104
Mof_C 	C 	0.18208	0.04867	0.32505	-0.254
Mof_C 	C 	0.12104	0.03356	0.33276	0.164
Mof_H 	H 	0.092	0.0628	0.3292	-0.021
Mof_C 	C 	0.1048	0.97593	0.34539	-0.255
Mof_H 	H 	0.0649	0.9662	0.3494	0.121
Mof_C 	C 	0.14734	0.93302	0.35206	0.194
Mof_C 	C 	0.20662	0.94687	0.34583	-0.263
Mof_H 	H 	0.2354	0.9177	0.3509	0.116
Mof_C 	C 	0.22303	0.00457	0.33198	0.178
Mof_H 	H 	0.2631	0.0135	0.3273	-0.024
Mof_C 	C 	0.2014	0.10903	0.3043	0.532
Mof_O 	O 	0.2524	0.115	0.2948	-0.687
Mof_O 	O 	0.16485	0.15002	0.30124	-0.629
Mof_Zn	Zn	0.26261	0.20381	0.32259	1.104
Mof_C 	C 	0.31792	0.95133	0.82505	-0.254
Mof_C 	C 	0.37896	0.96644	0.83276	0.164
Mof_H 	H 	0.408	0.9372	0.8292	-0.021
Mof_C 	C 	0.3952	0.02407	0.84539	-0.255
Mof_H 	H 	0.4351	0.0338	0.8494	0.121
Mof_C 	C 	0.35266	0.06698	0.85206	0.194
Mof_C 	C 	0.29338	0.05313	0.84583	-0.263
Mof_H 	H 	0.2646	0.0823	0.8509	0.116
Mof_C 	C 	0.27697	0.99543	0.83198	0.178
Mof_H 	H 	0.2369	0.9865	0.8273	-0.024
Mof_C 	C 	0.2986	0.89097	0.8043	0.532
Mof_O 	O 	0.2476	0.885	0.7948	-0.687
Mof_O 	O 	0.33515	0.84998	0.80124	-0.629
Mof_Zn	Zn	0.23739	0.79619	0.82259	1.104
Mof_C 	C 	0.68208	0.45133	0.67495	-0.254
Mof_C 	C 	0.62104	0.46644	0.66724	0.164
Mof_H 	H 	0.592	0.4372	0.6708	-0.021
Mof_C 	C 	0.6048	0.52407	0.65461	-0.255
Mof_H 	H 	0.5649	0.5338	0.6506	0.121
Mof_C 	C 	0.64734	0.56698	0.64794	0.194
Mof_C 	C 	0.70662	0.55313	0.65417	-0.263
Mof_H 	H 	0.7354	0.5823	0.6491	0.116
Mof_C 	C 	0.72303	0.49543	0.66802	0.178
Mof_H 	H 	0.7631	0.4865	0.6727	-0.024
Mof_C 	C 	0.7014	0.39097	0.6957	0.532
Mof_O 	O 	0.7524	0.385	0.7052	-0.687
Mof_O 	O 	0.66485	0.34998	0.69876	-0.629
Mof_Zn	Zn	0.76261	0.29619	0.67741	1.104
Mof_C 	C 	0.32505	0.68208	0.95133	-0.254
Mof_C 	C 	0.33276	0.62104	0.96644	0.164
Mof_H 	H 	0.3292	0.592	0.9372	-0.021
Mof_C 	C 	0.34539	0.6048	0.02407	-0.255
Mof_H 	H 	0.3494	0.5649	0.0338	0.121
Mof_C 	C 	0.35206	0.64734	0.06698	0.194
Mof_C 	C 	0.34583	0.70662	0.05313	-0.263
Mof_H 	H 	0.3509	0.7354	0.0823	0.116
Mof_C 	C 	0.33198	0.72303	0.99543	0.178
Mof_H 	H 	0.3273	0.7631	0.9865	-0.024
Mof_C 	C 	0.3043	0.7014	0.89097	0.532
Mof_O 	O 	0.2948	0.7524	0.885	-0.687
Mof_O 	O 	0.30124	0.66485	0.84998	-0.629
Mof_Zn	Zn	0.32259	0.76261	0.79619	1.104
Mof_C 	C 	0.17495	0.31792	0.45133	-0.254
Mof_C 	C 	0.16724	0.37896	0.46644	0.164
Mof_H 	H 	0.1708	0.408	0.4372	-0.021
Mof_C 	C 	0.15461	0.3952	0.52407	-0.255
Mof_H 	H 	0.1506	0.4351	0.5338	0.121
Mof_C 	C 	0.14794	0.35266	0.56698	0.194
Mof_C 	C 	0.15417	0.29338	0.55313	-0.263
Mof_H 	H 	0.1491	0.2646	0.5823	0.116
Mof_C 	C 	0.16802	0.27697	0.49543	0.178
Mof_H 	H 	0.1727	0.2369	0.4865	-0.024
Mof_C 	C 	0.1957	0.2986	0.39097	0.532
Mof_O 	O 	0.2052	0.2476	0.385	-0.687
Mof_O 	O 	0.19876	0.33515	0.34998	-0.629
Mof_Zn	Zn	0.17741	0.23739	0.29619	1.104
Mof_C 	C 	0.67495	0.18208	0.54867	-0.254
Mof_C 	C 	0.66724	0.12104	0.53356	0.164
Mof_H 	H 	0.6708	0.092	0.5628	-0.021
Mof_C 	C 	0.65461	0.1048	0.47593	-0.255
Mof_H 	H 	0.6506	0.0649	0.4662	0.121
Mof_C 	C 	0.64794	0.14734	0.43302	0.194
Mof_C 	C 	0.65417	0.20662	0.44687	-0.263
Mof_H 	H 	0.6491	0.2354	0.4177	0.116
Mof_C 	C 	0.66802	0.22303	0.50457	0.178
Mof_H 	H 	0.6727	0.2631	0.5135	-0.024
Mof_C 	C 	0.6957	0.2014	0.60903	0.532
Mof_O 	O 	0.7052	0.2524	0.615	-0.687
Mof_O 	O 	0.69876	0.16485	0.65002	-0.629
Mof_Zn	Zn	0.67741	0.26261	0.70381	1.104
Mof_C 	C 	0.82505	0.81792	0.04867	-0.254
Mof_C 	C 	0.83276	0.87896	0.03356	0.164
Mof_H 	H 	0.8292	0.908	0.0628	-0.021
Mof_C 	C 	0.84539	0.8952	0.97593	-0.255
Mof_H 	H 	0.8494	0.9351	0.9662	0.121
Mof_C 	C 	0.85206	0.85266	0.93302	0.194
Mof_C 	C 	0.84583	0.79338	0.94687	-0.263
Mof_H 	H 	0.8509	0.7646	0.9177	0.116
Mof_C 	C 	0.83198	0.77697	0.00457	0.178
Mof_H 	H 	0.8273	0.7369	0.0135	-0.024
Mof_C 	C 	0.8043	0.7986	0.10903	0.532
Mof_O 	O 	0.7948	0.7476	0.115	-0.687
Mof_O 	O 	0.80124	0.83515	0.15002	-0.629
Mof_Zn	Zn	0.82259	0.73739	0.20381	1.104
Mof_C 	C 	0.95133	0.32505	0.68208	-0.254
Mof_C 	C 	0.96644	0.33276	0.62104	0.164
Mof_H 	H 	0.9372	0.3292	0.592	-0.021
Mof_C 	C 	0.02407	0.34539	0.6048	-0.255
Mof_H 	H 	0.0338	0.3494	0.5649	0.121
Mof_C 	C 	0.06698	0.35206	0.64734	0.194
Mof_C 	C 	0.05313	0.34583	0.70662	-0.263
Mof_H 	H 	0.0823	0.3509	0.7354	0.116
Mof_C 	C 	0.99543	0.33198	0.72303	0.178
Mof_H 	H 	0.9865	0.3273	0.7631	-0.024
Mof_C 	C 	0.89097	0.3043	0.7014	0.532
Mof_O 	O 	0.885	0.2948	0.7524	-0.687
Mof_O 	O 	0.84998	0.30124	0.66485	-0.629
Mof_Zn	Zn	0.79619	0.32259	0.76261	1.104
Mof_C 	C 	0.45133	0.17495	0.31792	-0.254
Mof_C 	C 	0.46644	0.16724	0.37896	0.164
Mof_H 	H 	0.4372	0.1708	0.408	-0.021
Mof_C 	C 	0.52407	0.15461	0.3952	-0.255
Mof_H 	H 	0.5338	0.1506	0.4351	0.121
Mof_C 	C 	0.56698	0.14794	0.35266	0.194
Mof_C 	C 	0.55313	0.15417	0.29338	-0.263
Mof_H 	H 	0.5823	0.1491	0.2646	0.116
Mof_C 	C 	0.49543	0.16802	0.27697	0.178
Mof_H 	H 	0.4865	0.1727	0.2369	-0.024
Mof_C 	C 	0.39097	0.1957	0.2986	0.532
Mof_O 	O 	0.385	0.2052	0.2476	-0.687
Mof_O 	O 	0.34998	0.19876	0.33515	-0.629
Mof_Zn	Zn	0.29619	0.17741	0.23739	1.104
Mof_C 	C 	0.54867	0.67495	0.18208	-0.254
Mof_C 	C 	0.53356	0.66724	0.12104	0.164
Mof_H 	H 	0.5628	0.6708	0.092	-0.021
Mof_C 	C 	0.47593	0.65461	0.1048	-0.255
Mof_H 	H 	0.4662	0.6506	0.0649	0.121
Mof_C 	C 	0.43302	0.64794	0.14734	0.194
Mof_C 	C 	0.44687	0.65417	0.20662	-0.263
Mof_H 	H 	0.4177	0.6491	0.2354	0.116
Mof_C 	C 	0.50457	0.66802	0.22303	0.178
Mof_H 	H 	0.5135	0.6727	0.2631	-0.024
Mof_C 	C 	0.60903	0.6957	0.2014	0.532
Mof_O 	O 	0.615	0.7052	0.2524	-0.687
Mof_O 	O 	0.65002	0.69876	0.16485	-0.629
Mof_Zn	Zn	0.70381	0.67741	0.26261	1.104
Mof_C 	C 	0.04867	0.82505	0.81792	-0.254
Mof_C 	C 	0.03356	0.83276	0.87896	0.164
Mof_H 	H 	0.0628	0.8292	0.908	-0.021
Mof_C 	C 	0.97593	0.84539	0.8952	-0.255
Mof_H 	H 	0.9662	0.8494	0.9351	0.121
Mof_C 	C 	0.93302	0.85206	0.85266	0.194
Mof_C 	C 	0.94687	0.84583	0.79338	-0.263
Mof_H 	H 	0.9177	0.8509	0.7646	0.116
Mof_C 	C 	0.00457	0.83198	0.77697	0.178
Mof_H 	H 	0.0135	0.8273	0.7369	-0.024
Mof_C 	C 	0.10903	0.8043	0.7986	0.532
Mof_O 	O 	0.115	0.7948	0.7476	-0.687
Mof_O 	O 	0.15002	0.80124	0.83515	-0.629
Mof_Zn	Zn	0.20381	0.82259	0.73739	1.104
Mof_C 	C 	0.68208	0.95133	0.32505	-0.254
Mof_C 	C 	0.62104	0.96644	0.33276	0.164
Mof_H 	H 	0.592	0.9372	0.3292	-0.021
Mof_C 	C 	0.6048	0.02407	0.34539	-0.255
Mof_H 	H 	0.5649	0.0338	0.3494	0.121
Mof_C 	C 	0.64734	0.06698	0.35206	0.194
Mof_C 	C 	0.70662	0.05313	0.34583	-0.263
Mof_H 	H 	0.7354	0.0823	0.3509	0.116
Mof_C 	C 	0.72303	0.99543	0.33198	0.178
Mof_H 	H 	0.7631	0.9865	0.3273	-0.024
Mof_C 	C 	0.7014	0.89097	0.3043	0.532
Mof_O 	O 	0.7524	0.885	0.2948	-0.687
Mof_O 	O 	0.66485	0.84998	0.30124	-0.629
Mof_Zn	Zn	0.76261	0.79619	0.32259	1.104
Mof_C 	C 	0.31792	0.45133	0.17495	-0.254
Mof_C 	C 	0.37896	0.46644	0.16724	0.164
Mof_H 	H 	0.408	0.4372	0.1708	-0.021
Mof_C 	C 	0.3952	0.52407	0.15461	-0.255
Mof_H 	H 	0.4351	0.5338	0.1506	0.121
Mof_C 	C 	0.35266	0.56698	0.14794	0.194
Mof_C 	C 	0.29338	0.55313	0.15417	-0.263
Mof_H 	H 	0.2646	0.5823	0.1491	0.116
Mof_C 	C 	0.27697	0.49543	0.16802	0.178
Mof_H 	H 	0.2369	0.4865	0.1727	-0.024
Mof_C 	C 	0.2986	0.39097	0.1957	0.532
Mof_O 	O 	0.2476	0.385	0.2052	-0.687
Mof_O 	O 	0.33515	0.34998	0.19876	-0.629
Mof_Zn	Zn	0.23739	0.29619	0.17741	1.104
Mof_C 	C 	0.18208	0.54867	0.67495	-0.254
Mof_C 	C 	0.12104	0.53356	0.66724	0.164
Mof_H 	H 	0.092	0.5628	0.6708	-0.021
Mof_C 	C 	0.1048	0.47593	0.65461	-0.255
Mof_H 	H 	0.0649	0.4662	0.6506	0.121
Mof_C 	C 	0.14734	0.43302	0.64794	0.194
Mof_C 	C 	0.20662	0.44687	0.65417	-0.263
Mof_H 	H 	0.2354	0.4177	0.6491	0.116
Mof_C 	C 	0.22303	0.50457	0.66802	0.178
Mof_H 	H 	0.2631	0.5135	0.6727	-0.024
Mof_C 	C 	0.2014	0.60903	0.6957	0.532
Mof_O 	O 	0.2524	0.615	0.7052	-0.687
Mof_O 	O 	0.16485	0.65002	0.69876	-0.629
Mof_Zn	Zn	0.26261	0.70381	0.67741	1.104
Mof_C 	C 	0.81792	0.04867	0.82505	-0.254
Mof_C 	C 	0.87896	0.03356	0.83276	0.164
Mof_H 	H 	0.908	0.0628	0.8292	-0.021
Mof_C 	C 	0.8952	0.97593	0.84539	-0.255
Mof_H 	H 	0.9351	0.9662	0.8494	0.121
Mof_C 	C 	0.85266	0.93302	0.85206	0.194
Mof_C 	C 	0.79338	0.94687	0.84583	-0.263
Mof_H 	H 	0.7646	0.9177	0.8509	0.116
Mof_C 	C 	0.77697	0.00457	0.83198	0.178
Mof_H 	H 	0.7369	0.0135	0.8273	-0.024
Mof_C 	C 	0.7986	0.10903	0.8043	0.532
Mof_O 	O 	0.7476	0.115	0.7948	-0.687
Mof_O 	O 	0.83515	0.15002	0.80124	-0.629
Mof_Zn	Zn	0.73739	0.20381	0.82259	1.104
Mof_C 	C 	0.13546	0.86454	0.36454	-0.237
Mof_H 	H 	0.1606	0.8394	0.3394	0.053
Mof_C 	C 	0.36454	0.13546	0.86454	-0.237
Mof_H 	H 	0.3394	0.1606	0.8394	0.053
Mof_C 	C 	0.86454	0.36454	0.13546	-0.237
Mof_H 	H 	0.8394	0.3394	0.1606	0.053
Mof_C 	C 	0.63546	0.63546	0.63546	-0.237
Mof_H 	H 	0.6606	0.6606	0.6606	0.053
Mof_C 	C 	0.36454	0.63546	0.13546	-0.237
Mof_H 	H 	0.3394	0.6606	0.1606	0.053
Mof_C 	C 	0.13546	0.36454	0.63546	-0.237
Mof_H 	H 	0.1606	0.3394	0.6606	0.053
Mof_C 	C 	0.63546	0.13546	0.36454	-0.237
Mof_H 	H 	0.6606	0.1606	0.3394	0.053
Mof_C 	C 	0.86454	0.86454	0.86454	-0.237
Mof_H 	H 	0.8394	0.8394	0.8394	0.053
Mof_O 	O 	0.25	0.25	0.25	-1.282
Mof_O 	O 	0.25	0.75	0.75	-1.282
Mof_O 	O 	0.75	0.25	0.75	-1.282
Mof_O 	O 	0.75	0.75	0.25	-1.282
_end
