data_functionalizedCrystal
_audit_creation_method	'EQeq! by Chris Wilmer'
_symmetry_space_group_name_H-M	'P1'
_symmetry_Int_Tables_number	1
_symmetry_cell_setting	triclinic
loop_
_symmetry_equiv_pos_as_xyz
  x,y,z
_cell_length_a	13.1554
_cell_length_b	13.7014
_cell_length_c	22.7273
_cell_angle_alpha	100.366
_cell_angle_beta	90
_cell_angle_gamma	90
loop_
_atom_site_label
_atom_site_type_symbol
_atom_site_fract_x
_atom_site_fract_y
_atom_site_fract_z
_atom_site_charge
Mof_Ce	Ce	0.39899	0.72393	0.82147	2.659
Mof_Ce	Ce	0.60101	0.27607	0.17853	2.588
Mof_Ce	Ce	0.10085	0.21878	0.27619	2.401
Mof_Ce	Ce	0.39915	0.21878	0.77619	2.576
Mof_Ce	Ce	0.60085	0.78122	0.22381	2.552
Mof_Ce	Ce	0.10101	0.72393	0.32147	2.465
Mof_Ce	Ce	0.89915	0.78122	0.72381	2.709
Mof_Ce	Ce	0.89899	0.27607	0.67853	2.749
Mof_Si	Si	-6.26441e-33	0.5	-0	4.279
Mof_Si	Si	0.5	0.5	0.5	6.057
Mof_H 	H 	0.3555	0.4085	0.2209	0.147
Mof_H 	H 	0.2993	0.4573	0.7686	-0.055
Mof_H 	H 	0.6445	0.5915	0.7791	0.15
Mof_H 	H 	0.6044	0.0725	0.7341	0.114
Mof_H 	H 	0.7007	0.5427	0.2314	-0.057
Mof_H 	H 	0.8956	0.0725	0.2341	0.142
Mof_H 	H 	0.7339	0.0228	0.1969	-0.048
Mof_H 	H 	0.2661	0.9772	0.8031	-0.046
Mof_H 	H 	0.7993	0.5427	0.7314	-0.061
Mof_H 	H 	0.2007	0.4573	0.2686	-0.051
Mof_H 	H 	0.1445	0.4085	0.7209	0.129
Mof_H 	H 	0.8555	0.5915	0.2791	0.17
Mof_H 	H 	0.7661	0.0228	0.6969	-0.048
Mof_H 	H 	0.2339	0.9772	0.3031	-0.048
Mof_H 	H 	0.1044	0.9275	0.7659	0.092
Mof_H 	H 	0.3956	0.9275	0.2659	0.113
Mof_W 	W 	0.94137	0.36792	0.85785	1.756
Mof_W 	W 	0.30098	0.61763	0.43764	1.785
Mof_W 	W 	0.44137	0.63208	0.64215	1.726
Mof_W 	W 	0.05863	0.63208	0.14215	1.537
Mof_W 	W 	0.74799	0.51	0.44262	1.325
Mof_W 	W 	0.31079	0.35508	0.41311	1.704
Mof_W 	W 	0.98805	0.23819	0.97605	1.508
Mof_W 	W 	0.48805	0.76181	0.52395	1.274
Mof_W 	W 	0.55863	0.36792	0.35785	1.726
Mof_W 	W 	0.04855	0.37065	0.11991	1.579
Mof_W 	W 	0.45145	0.37065	0.61991	1.742
Mof_W 	W 	0.19902	0.61763	0.93764	1.771
Mof_W 	W 	0.54855	0.62935	0.38009	1.743
Mof_W 	W 	0.18921	0.35508	0.91311	1.65
Mof_W 	W 	0.68921	0.64492	0.58689	1.717
Mof_W 	W 	0.75201	0.51	0.94262	1.332
Mof_W 	W 	0.81079	0.64492	0.08689	1.614
Mof_W 	W 	0.51195	0.23819	0.47605	1.277
Mof_W 	W 	0.24799	0.49	0.05738	1.129
Mof_W 	W 	0.25201	0.49	0.55738	1.277
Mof_W 	W 	0.69902	0.38237	0.56236	1.798
Mof_W 	W 	0.80098	0.38237	0.06236	1.645
Mof_W 	W 	0.95145	0.62935	0.88009	1.738
Mof_W 	W 	0.01195	0.76181	0.02395	0.846
Mof_C 	C 	0.7211	0.9849	0.7149	0.157
Mof_C 	C 	0.7512	0.4999	0.2399	0.222
Mof_C 	C 	0.2789	0.0151	0.2851	0.152
Mof_C 	C 	0.8953	0.4457	0.2702	0.039
Mof_C 	C 	0.0001	0.4651	0.2971	0.411
Mof_C 	C 	0.8391	0.259	0.2343	0.461
Mof_C 	C 	0.2512	0.5001	0.2601	0.212
Mof_C 	C 	0.4143	0.0564	0.2418	-0.064
Mof_C 	C 	0.3431	0.2304	0.2288	0.46
Mof_C 	C 	0.5181	0.0371	0.2123	0.494
Mof_C 	C 	0.6047	0.4457	0.7702	-0.07
Mof_C 	C 	0.6656	0.368	0.747	-0.081
Mof_C 	C 	0.0181	0.9629	0.2877	0.371
Mof_C 	C 	0.1609	0.741	0.7657	0.449
Mof_C 	C 	0.3344	0.632	0.253	-0.077
Mof_C 	C 	0.4999	0.4651	0.7971	0.529
Mof_C 	C 	0.2488	0.5001	0.7601	0.211
Mof_C 	C 	0.8461	0.8671	0.2525	-0.128
Mof_C 	C 	0.9143	0.9436	0.2582	0.055
Mof_C 	C 	0.6539	0.8671	0.7525	-0.112
Mof_C 	C 	0.1539	0.1329	0.7475	-0.102
Mof_C 	C 	0.9999	0.5349	0.7029	0.626
Mof_C 	C 	0.1656	0.632	0.753	-0.064
Mof_C 	C 	0.5857	0.9436	0.7582	-0.059
Mof_C 	C 	0.6569	0.7696	0.7712	0.475
Mof_C 	C 	0.3461	0.1329	0.2475	-0.112
Mof_C 	C 	0.0857	0.0564	0.7418	-0.146
Mof_C 	C 	0.7789	0.9849	0.2149	0.161
Mof_C 	C 	0.8344	0.368	0.247	-0.097
Mof_C 	C 	0.2211	0.0151	0.7851	0.151
Mof_C 	C 	0.6609	0.259	0.7343	0.458
Mof_C 	C 	0.5001	0.5349	0.2029	0.525
Mof_C 	C 	0.3953	0.5543	0.2298	-0.073
Mof_C 	C 	0.7488	0.4999	0.7399	0.22
Mof_C 	C 	0.1047	0.5543	0.7298	-0.167
Mof_C 	C 	0.4819	0.9629	0.7877	0.497
Mof_C 	C 	0.9819	0.0371	0.7123	0.584
Mof_C 	C 	0.1569	0.2304	0.7288	0.465
Mof_C 	C 	0.8431	0.7696	0.2712	0.474
Mof_C 	C 	0.3391	0.741	0.2657	0.449
Mof_N 	N 	0.6304	0.0153	0.7354	-0.218
Mof_N 	N 	0.7566	0.4036	0.7268	-0.281
Mof_N 	N 	0.2566	0.5964	0.7732	-0.278
Mof_N 	N 	0.8379	0.5309	0.2665	-0.242
Mof_N 	N 	0.26	0.1077	0.2766	-0.278
Mof_N 	N 	0.2434	0.5964	0.2732	-0.264
Mof_N 	N 	0.1621	0.4691	0.7335	-0.216
Mof_N 	N 	0.74	0.8923	0.7234	-0.293
Mof_N 	N 	0.3696	0.9847	0.2646	-0.22
Mof_N 	N 	0.1304	0.9847	0.7646	-0.207
Mof_N 	N 	0.6621	0.5309	0.7665	-0.23
Mof_N 	N 	0.24	0.1077	0.7766	-0.289
Mof_N 	N 	0.76	0.8923	0.2234	-0.282
Mof_N 	N 	0.3379	0.4691	0.2335	-0.226
Mof_N 	N 	0.8696	0.0153	0.2354	-0.238
Mof_N 	N 	0.7434	0.4036	0.2268	-0.268
Mof_O 	O 	0.9123	0.3008	0.7889	-0.705
Mof_O 	O 	0.7012	0.3318	0.0948	-0.768
Mof_O 	O 	0.244	0.3884	0.4876	-0.544
Mof_O 	O 	0.5415	0.4952	0.3424	-0.57
Mof_O 	O 	0.7405	0.7237	0.7638	-0.579
Mof_O 	O 	0.1144	0.4976	0.9808	-0.918
Mof_O 	O 	0.7199	0.7109	0.1306	-0.676
Mof_O 	O 	0.4493	0.3905	0.8052	-0.612
Mof_O 	O 	0.623	0.753	0.5568	-0.506
Mof_O 	O 	0.0822	0.2655	0.7061	-0.636
Mof_O 	O 	0.2801	0.2891	0.8694	-0.671
Mof_O 	O 	0.9585	0.4952	0.8424	-0.563
Mof_O 	O 	0.2814	0.484	0.4018	-0.554
Mof_O 	O 	0.465	0.596	0.472	-1.161
Mof_O 	O 	0.082	0.3565	0.8578	-0.606
Mof_O 	O 	0.2405	0.2763	0.7362	-0.571
Mof_O 	O 	0.4296	0.3113	0.6772	-0.665
Mof_O 	O 	0.4123	0.6992	0.7111	-0.718
Mof_O 	O 	0.5822	0.7345	0.7939	-0.585
Mof_O 	O 	0.436	0.7448	0.6014	-0.508
Mof_O 	O 	0.9222	0.217	0.2482	-0.536
Mof_O 	O 	0.0877	0.6992	0.2111	-0.688
Mof_O 	O 	0.0282	0.5514	0.3113	-0.592
Mof_O 	O 	0.582	0.6435	0.6422	-0.561
Mof_O 	O 	0.7814	0.516	0.0982	-0.547
Mof_O 	O 	0.7186	0.516	0.5982	-0.555
Mof_O 	O 	0.527	0.605	0.5466	-1.154
Mof_O 	O 	0.0704	0.3113	0.1772	-0.65
Mof_O 	O 	0.9062	0.3732	0.1167	-0.507
Mof_O 	O 	0.7595	0.7237	0.2638	-0.562
Mof_O 	O 	0.0415	0.5048	0.1576	-0.57
Mof_O 	O 	0.564	0.2552	0.3986	-0.502
Mof_O 	O 	0.8856	0.5024	0.0192	-1.007
Mof_O 	O 	0.5877	0.3008	0.2889	-0.707
Mof_O 	O 	0.683	0.604	0.4024	-0.523
Mof_O 	O 	0.184	0.594	0.1086	-0.512
Mof_O 	O 	0.816	0.406	0.8914	-0.557
Mof_O 	O 	0.183	0.396	0.0976	-0.515
Mof_O 	O 	0.965	0.404	0.028	-0.861
Mof_O 	O 	0.2988	0.6682	0.9052	-0.757
Mof_O 	O 	0.973	0.605	0.0466	-0.82
Mof_O 	O 	0.2012	0.6682	0.4052	-0.777
Mof_O 	O 	0.4222	0.783	0.2518	-0.595
Mof_O 	O 	0.744	0.6116	0.0124	-0.596
Mof_O 	O 	0.535	0.404	0.528	-1.162
Mof_O 	O 	0.9527	0.9483	0.7051	-0.632
Mof_O 	O 	0.0473	0.0517	0.2949	-0.609
Mof_O 	O 	0.954	0.731	0.9475	-0.414
Mof_O 	O 	0.0778	0.783	0.7518	-0.647
Mof_O 	O 	0.235	0.5853	0.5055	-0.539
Mof_O 	O 	0.877	0.753	0.0568	-0.439
Mof_O 	O 	0.473	0.395	0.4534	-1.154
Mof_O 	O 	0.858	0.2716	0.0129	-0.609
Mof_O 	O 	0.5663	0.1078	0.199	-0.615
Mof_O 	O 	0.5704	0.6887	0.3228	-0.659
Mof_O 	O 	0.817	0.604	0.9024	-0.524
Mof_O 	O 	0.5507	0.6095	0.1948	-0.618
Mof_O 	O 	0.5282	0.4486	0.1887	-0.606
Mof_O 	O 	0.454	0.269	0.5525	-0.551
Mof_O 	O 	0.756	0.6116	0.5124	-0.531
Mof_O 	O 	0.9178	0.7345	0.2939	-0.524
Mof_O 	O 	0.0938	0.6268	0.8833	-0.626
Mof_O 	O 	0.07	0.4948	0.0605	-0.951
Mof_O 	O 	0.142	0.7284	0.9871	-0.445
Mof_O 	O 	0.765	0.4147	0.4945	-0.523
Mof_O 	O 	0.2323	0.791	0.7896	-0.562
Mof_O 	O 	0.0507	0.3905	0.3052	-0.594
Mof_O 	O 	0.046	0.269	0.0525	-0.672
Mof_O 	O 	0.5473	0.9483	0.2051	-0.631
Mof_O 	O 	0.2595	0.2763	0.2362	-0.552
Mof_O 	O 	0.684	0.406	0.3914	-0.538
Mof_O 	O 	0.064	0.7448	0.1014	-0.491
Mof_O 	O 	0.2677	0.791	0.2896	-0.546
Mof_O 	O 	0.936	0.2552	0.8986	-0.506
Mof_O 	O 	0.735	0.4147	0.9945	-0.458
Mof_O 	O 	0.2186	0.484	0.9018	-0.553
Mof_O 	O 	0.3856	0.4976	0.4808	-1.289
Mof_O 	O 	0.7988	0.3318	0.5948	-0.786
Mof_O 	O 	0.256	0.3884	0.9876	-0.454
Mof_O 	O 	0.9296	0.6887	0.8228	-0.639
Mof_O 	O 	0.265	0.5853	0.0055	-0.605
Mof_O 	O 	0.4585	0.5048	0.6576	-0.571
Mof_O 	O 	0.4178	0.2655	0.2061	-0.586
Mof_O 	O 	0.035	0.596	0.972	-0.879
Mof_O 	O 	0.123	0.247	0.9432	-0.535
Mof_O 	O 	0.316	0.594	0.6086	-0.543
Mof_O 	O 	0.43	0.4948	0.5605	-1.16
Mof_O 	O 	0.9493	0.6095	0.6948	-0.634
Mof_O 	O 	0.93	0.5052	0.9395	-0.841
Mof_O 	O 	0.418	0.3565	0.3578	-0.557
Mof_O 	O 	0.4062	0.6268	0.3833	-0.578
Mof_O 	O 	0.642	0.2716	0.5129	-0.544
Mof_O 	O 	0.9337	0.1078	0.699	-0.629
Mof_O 	O 	0.5938	0.3732	0.6167	-0.582
Mof_O 	O 	0.5778	0.217	0.7482	-0.596
Mof_O 	O 	0.317	0.396	0.5976	-0.528
Mof_O 	O 	0.4337	0.8922	0.801	-0.613
Mof_O 	O 	0.377	0.247	0.4432	-0.509
Mof_O 	O 	0.7677	0.209	0.2104	-0.552
Mof_O 	O 	0.918	0.6435	0.1422	-0.484
Mof_O 	O 	0.9718	0.4486	0.6887	-0.616
Mof_O 	O 	0.358	0.7284	0.4871	-0.55
Mof_O 	O 	0.0663	0.8922	0.301	-0.593
Mof_O 	O 	0.7801	0.7109	0.6306	-0.696
Mof_O 	O 	0.546	0.731	0.4475	-0.547
Mof_O 	O 	0.4718	0.5514	0.8113	-0.603
Mof_O 	O 	0.57	0.5052	0.4395	-1.163
Mof_O 	O 	0.7323	0.209	0.7104	-0.569
Mof_O 	O 	0.2199	0.2891	0.3694	-0.685
Mof_O 	O 	0.027	0.395	0.9534	-0.925
Mof_O 	O 	0.6144	0.5024	0.5192	-1.293
Mof_O 	O 	0.4527	0.0517	0.7949	-0.621
_end
