# CIF file generated by openbabel 3.1.0, see https://openbabel.org
data_I
_chemical_name_common 'XUNHAQ_clean'
_cell_length_a 5.4733
_cell_length_b 11.7304
_cell_length_c 13.458
_cell_angle_alpha 90
_cell_angle_beta 90
_cell_angle_gamma 101.166
_space_group_name_H-M_alt 'P 1'
_space_group_name_Hall 'P 1'
loop_
    _symmetry_equiv_pos_as_xyz
    x,y,z
loop_
    _atom_site_label
    _atom_site_type_symbol
    _atom_site_fract_x
    _atom_site_fract_y
    _atom_site_fract_z
    _atom_site_occupancy
    Li1      Li       0.92250    0.73970    0.01620    1.000
    Li2      Li       0.55790    0.76040    0.15560    1.000
    Li3      Li       0.07750    0.26030    0.51620    1.000
    Li4      Li       0.44210    0.23960    0.65560    1.000
    H1       H        0.39170    0.94850    0.34220    1.000
    H2       H        0.38040    0.09790    0.45180    1.000
    H3       H        0.79440    0.17120    0.32200    1.000
    H4       H        0.78390    0.02270    0.20900    1.000
    H5       H        0.90430    0.45260    0.32790    1.000
    H6       H        0.87660    0.59650    0.21620    1.000
    H7       H        0.29710    0.52130    0.46520    1.000
    H8       H        0.29730    0.66940    0.35210    1.000
    H9       H        0.60830    0.05150    0.84220    1.000
    H10      H        0.61960    0.90210    0.95180    1.000
    H11      H        0.20560    0.82880    0.82200    1.000
    H12      H        0.21610    0.97730    0.70900    1.000
    H13      H        0.09570    0.54740    0.82790    1.000
    H14      H        0.12340    0.40350    0.71620    1.000
    H15      H        0.70290    0.47870    0.96520    1.000
    H16      H        0.70270    0.33060    0.85210    1.000
    C1       C        0.09890    0.87020    0.18920    1.000
    C2       C        0.08710    0.96720    0.26320    1.000
    C3       C        0.26720    0.99200    0.33690    1.000
    C4       C        0.25930    0.08250    0.40250    1.000
    C5       C        0.91470    0.12520    0.32630    1.000
    C6       C        0.90690    0.03610    0.25760    1.000
    C7       C        0.62370    0.37520    0.48470    1.000
    C8       C        0.60240    0.46910    0.40960    1.000
    C9       C        0.77710    0.49450    0.33380    1.000
    C10      C        0.76040    0.58210    0.26740    1.000
    C11      C        0.41810    0.53560    0.41590    1.000
    C12      C        0.41880    0.62420    0.34660    1.000
    C13      C        0.90110    0.12980    0.68920    1.000
    C14      C        0.91290    0.03280    0.76320    1.000
    C15      C        0.73280    0.00800    0.83690    1.000
    C16      C        0.74070    0.91750    0.90250    1.000
    C17      C        0.08530    0.87480    0.82630    1.000
    C18      C        0.09310    0.96390    0.75760    1.000
    C19      C        0.37630    0.62480    0.98470    1.000
    C20      C        0.39760    0.53090    0.90960    1.000
    C21      C        0.22290    0.50550    0.83380    1.000
    C22      C        0.23960    0.41790    0.76740    1.000
    C23      C        0.58190    0.46440    0.91590    1.000
    C24      C        0.58120    0.37580    0.84660    1.000
    N1       N        0.08580    0.14860    0.39835    1.000
    N2       N        0.58510    0.64780    0.27255    1.000
    N3       N        0.91420    0.85140    0.89835    1.000
    N4       N        0.41490    0.35220    0.77255    1.000
    O1       O        0.90940    0.83526    0.13615    1.000
    O2       O        0.29660    0.83392    0.18627    1.000
    O3       O        0.43220    0.33501    0.53543    1.000
    O4       O        0.82830    0.34610    0.49073    1.000
    O5       O        0.09060    0.16474    0.63615    1.000
    O6       O        0.70340    0.16608    0.68627    1.000
    O7       O        0.56780    0.66499    0.03543    1.000
    O8       O        0.17170    0.65390    0.99073    1.000
