# CIF file generated by openbabel 3.1.0, see https://openbabel.org
data_I
_chemical_name_common 'image0'
_cell_length_a 15.0882
_cell_length_b 16.1848
_cell_length_c 27.4294
_cell_angle_alpha 90
_cell_angle_beta 105.479
_cell_angle_gamma 90
_space_group_name_H-M_alt 'P 1'
_space_group_name_Hall 'P 1'
loop_
    _symmetry_equiv_pos_as_xyz
    x,y,z
loop_
    _atom_site_label
    _atom_site_type_symbol
    _atom_site_fract_x
    _atom_site_fract_y
    _atom_site_fract_z
    _atom_site_occupancy
    W1       W        0.56264    0.22443    0.45023    1.000
    W2       W        0.75176    0.28142    0.39216    1.000
    W3       W        0.58577    0.23358    0.57486    1.000
    W4       W        0.93359    0.36755    0.47611    1.000
    W5       W        0.89766    0.15965    0.47664    1.000
    W6       W        0.95847    0.37717    0.61118    1.000
    W7       W        0.80208    0.30248    0.66761    1.000
    W8       W        0.70639    0.09371    0.52814    1.000
    W9       W        0.92098    0.16891    0.61508    1.000
    W10      W        0.59480    0.43922    0.41777    1.000
    W11      W        0.37207    0.54726    0.39692    1.000
    Nd1      Nd       0.80234    0.56564    0.52554    1.000
    Nd2      Nd       0.65099    0.71733    0.26197    1.000
    As1      As       0.75749    0.32239    0.52740    1.000
    P1       P        0.51700    0.56710    0.32277    1.000
    P2       P        0.41240    0.41050    0.31616    1.000
    O1       O        0.68560    0.38120    0.39490    1.000
    O2       O        0.91260    0.36330    0.67130    1.000
    O3       O        0.81960    0.28450    0.48360    1.000
    O4       O        0.49970    0.37830    0.35540    1.000
    O5       O        0.93350    0.16050    0.54830    1.000
    O6       O        0.34960    0.45780    0.34350    1.000
    O7       O        0.48590    0.49350    0.42430    1.000
    O8       O        0.61570    0.12250    0.56710    1.000
    O9       O        0.40200    0.64490    0.43170    1.000
    O10      O        0.86190    0.34200    0.40580    1.000
    O11      O        0.83600    0.29310    0.58580    1.000
    O12      O        0.86830    0.45460    0.48220    1.000
    O13      O        0.44550    0.60380    0.34700    1.000
    O14      O        0.86600    0.20100    0.66840    1.000
    O15      O        0.97570    0.24400    0.47210    1.000
    O16      O        0.78270    0.10780    0.48710    1.000
    O17      O        0.50990    0.23740    0.50600    1.000
    O18      O        0.68500    0.23390    0.52320    1.000
    O19      O        0.97950    0.35060    0.54640    1.000
    O20      O        0.57670    0.34530    0.45240    1.000
    O21      O        0.65200    0.23160    0.41250    1.000
    O22      O        0.59460    0.52280    0.36350    1.000
    O23      O        0.81990    0.18240    0.40990    1.000
    O24      O        0.00350    0.25480    0.63020    1.000
    O25      O        0.80080    0.11490    0.58450    1.000
    O26      O        0.35960    0.34440    0.28230    1.000
    O27      O        0.26650    0.59980    0.35420    1.000
    O28      O        0.67280    0.49240    0.46490    1.000
    O29      O        0.88510    0.45960    0.58640    1.000
    O30      O        0.69290    0.24800    0.62980    1.000
    O31      O        0.03050    0.40590    0.46130    1.000
    O32      O        0.31300    0.49910    0.43390    1.000
    O33      O        0.55640    0.63020    0.29380    1.000
    O34      O        0.59760    0.11630    0.47020    1.000
    O35      O        0.52100    0.44970    0.25650    1.000
    H1       H        0.49550    0.41170    0.23830    1.000
    C1       C        0.45510    0.48880    0.28060    1.000
    C2       C        0.37580    0.52690    0.24160    1.000
    H2       H        0.33400    0.55190    0.25830    1.000
    H3       H        0.39860    0.56820    0.22300    1.000
    H4       H        0.34420    0.48480    0.21880    1.000
    O36      O        0.61800    0.78880    0.32660    1.000
    O37      O        0.55560    0.82200    0.30640    1.000
    W12      W        0.43736    0.72443    0.04977    1.000
    W13      W        0.24824    0.78142    0.10784    1.000
    W14      W        0.41423    0.73358    0.92514    1.000
    W15      W        0.06641    0.86755    0.02389    1.000
    W16      W        0.10234    0.65965    0.02336    1.000
    W17      W        0.04153    0.87717    0.88882    1.000
    W18      W        0.19792    0.80248    0.83239    1.000
    W19      W        0.29361    0.59371    0.97186    1.000
    W20      W        0.07902    0.66891    0.88492    1.000
    W21      W        0.40520    0.93922    0.08223    1.000
    W22      W        0.62793    0.04726    0.10308    1.000
    Nd3      Nd       0.19766    0.06564    0.97446    1.000
    Nd4      Nd       0.34901    0.21733    0.23803    1.000
    As2      As       0.24251    0.82239    0.97260    1.000
    P3       P        0.48300    0.06710    0.17723    1.000
    P4       P        0.58760    0.91050    0.18384    1.000
    O38      O        0.31440    0.88120    0.10510    1.000
    O39      O        0.08740    0.86330    0.82870    1.000
    O40      O        0.18040    0.78450    0.01640    1.000
    O41      O        0.50030    0.87830    0.14460    1.000
    O42      O        0.06650    0.66050    0.95170    1.000
    O43      O        0.65040    0.95780    0.15650    1.000
    O44      O        0.51410    0.99350    0.07570    1.000
    O45      O        0.38430    0.62250    0.93290    1.000
    O46      O        0.59800    0.14490    0.06830    1.000
    O47      O        0.13810    0.84200    0.09420    1.000
    O48      O        0.16400    0.79310    0.91420    1.000
    O49      O        0.13170    0.95460    0.01780    1.000
    O50      O        0.55450    0.10380    0.15300    1.000
    O51      O        0.13400    0.70100    0.83160    1.000
    O52      O        0.02430    0.74400    0.02790    1.000
    O53      O        0.21730    0.60780    0.01290    1.000
    O54      O        0.49010    0.73740    0.99400    1.000
    O55      O        0.31500    0.73390    0.97680    1.000
    O56      O        0.02050    0.85060    0.95360    1.000
    O57      O        0.42330    0.84530    0.04760    1.000
    O58      O        0.34800    0.73160    0.08750    1.000
    O59      O        0.40540    0.02280    0.13650    1.000
    O60      O        0.18010    0.68240    0.09010    1.000
    O61      O        0.99650    0.75480    0.86980    1.000
    O62      O        0.19920    0.61490    0.91550    1.000
    O63      O        0.64040    0.84440    0.21770    1.000
    O64      O        0.73350    0.09980    0.14580    1.000
    O65      O        0.32720    0.99240    0.03510    1.000
    O66      O        0.11490    0.95960    0.91360    1.000
    O67      O        0.30710    0.74800    0.87020    1.000
    O68      O        0.96950    0.90590    0.03870    1.000
    O69      O        0.68700    0.99910    0.06610    1.000
    O70      O        0.44360    0.13020    0.20620    1.000
    O71      O        0.40240    0.61630    0.02980    1.000
    O72      O        0.47900    0.94970    0.24350    1.000
    H5       H        0.50450    0.91170    0.26170    1.000
    C3       C        0.54490    0.98880    0.21940    1.000
    C4       C        0.62420    0.02690    0.25840    1.000
    H6       H        0.66600    0.05190    0.24170    1.000
    H7       H        0.60140    0.06820    0.27700    1.000
    H8       H        0.65580    0.98480    0.28120    1.000
    O73      O        0.38200    0.28880    0.17340    1.000
    O74      O        0.44440    0.32200    0.19360    1.000
    W23      W        0.43736    0.77557    0.54977    1.000
    W24      W        0.24824    0.71858    0.60784    1.000
    W25      W        0.41423    0.76642    0.42514    1.000
    W26      W        0.06641    0.63245    0.52389    1.000
    W27      W        0.10234    0.84035    0.52336    1.000
    W28      W        0.04153    0.62283    0.38882    1.000
    W29      W        0.19792    0.69752    0.33239    1.000
    W30      W        0.29361    0.90629    0.47186    1.000
    W31      W        0.07902    0.83109    0.38492    1.000
    W32      W        0.40520    0.56078    0.58223    1.000
    W33      W        0.62793    0.45274    0.60308    1.000
    Nd5      Nd       0.19766    0.43436    0.47446    1.000
    Nd6      Nd       0.34901    0.28267    0.73803    1.000
    As3      As       0.24251    0.67761    0.47260    1.000
    P5       P        0.48300    0.43290    0.67723    1.000
    P6       P        0.58760    0.58950    0.68384    1.000
    O75      O        0.31440    0.61880    0.60510    1.000
    O76      O        0.08740    0.63670    0.32870    1.000
    O77      O        0.18040    0.71550    0.51640    1.000
    O78      O        0.50030    0.62170    0.64460    1.000
    O79      O        0.06650    0.83950    0.45170    1.000
    O80      O        0.65040    0.54220    0.65650    1.000
    O81      O        0.51410    0.50650    0.57570    1.000
    O82      O        0.38430    0.87750    0.43290    1.000
    O83      O        0.59800    0.35510    0.56830    1.000
    O84      O        0.13810    0.65800    0.59420    1.000
    O85      O        0.16400    0.70690    0.41420    1.000
    O86      O        0.13170    0.54540    0.51780    1.000
    O87      O        0.55450    0.39620    0.65300    1.000
    O88      O        0.13400    0.79900    0.33160    1.000
    O89      O        0.02430    0.75600    0.52790    1.000
    O90      O        0.21730    0.89220    0.51290    1.000
    O91      O        0.49010    0.76260    0.49400    1.000
    O92      O        0.31500    0.76610    0.47680    1.000
    O93      O        0.02050    0.64940    0.45360    1.000
    O94      O        0.42330    0.65470    0.54760    1.000
    O95      O        0.34800    0.76840    0.58750    1.000
    O96      O        0.40540    0.47720    0.63650    1.000
    O97      O        0.18010    0.81760    0.59010    1.000
    O98      O        0.99650    0.74520    0.36980    1.000
    O99      O        0.19920    0.88510    0.41550    1.000
    O100     O        0.64040    0.65560    0.71770    1.000
    O101     O        0.73350    0.40020    0.64580    1.000
    O102     O        0.32720    0.50760    0.53510    1.000
    O103     O        0.11490    0.54040    0.41360    1.000
    O104     O        0.30710    0.75200    0.37020    1.000
    O105     O        0.96950    0.59410    0.53870    1.000
    O106     O        0.68700    0.50090    0.56610    1.000
    O107     O        0.44360    0.36980    0.70620    1.000
    O108     O        0.40240    0.88370    0.52980    1.000
    O109     O        0.47900    0.55030    0.74350    1.000
    H9       H        0.50450    0.58830    0.76170    1.000
    C5       C        0.54490    0.51120    0.71940    1.000
    C6       C        0.62420    0.47310    0.75840    1.000
    H10      H        0.66600    0.44810    0.74170    1.000
    H11      H        0.60140    0.43180    0.77700    1.000
    H12      H        0.65580    0.51520    0.78120    1.000
    O110     O        0.38200    0.21120    0.67340    1.000
    O111     O        0.44440    0.17800    0.69360    1.000
    W34      W        0.56264    0.27557    0.95023    1.000
    W35      W        0.75176    0.21858    0.89216    1.000
    W36      W        0.58577    0.26642    0.07486    1.000
    W37      W        0.93359    0.13245    0.97611    1.000
    W38      W        0.89766    0.34035    0.97664    1.000
    W39      W        0.95847    0.12283    0.11118    1.000
    W40      W        0.80208    0.19752    0.16761    1.000
    W41      W        0.70639    0.40629    0.02814    1.000
    W42      W        0.92098    0.33109    0.11508    1.000
    W43      W        0.59480    0.06078    0.91777    1.000
    W44      W        0.37207    0.95274    0.89692    1.000
    Nd7      Nd       0.80234    0.93436    0.02554    1.000
    Nd8      Nd       0.65099    0.78267    0.76197    1.000
    As4      As       0.75749    0.17761    0.02740    1.000
    P7       P        0.51700    0.93290    0.82277    1.000
    P8       P        0.41240    0.08950    0.81616    1.000
    O112     O        0.68560    0.11880    0.89490    1.000
    O113     O        0.91260    0.13670    0.17130    1.000
    O114     O        0.81960    0.21550    0.98360    1.000
    O115     O        0.49970    0.12170    0.85540    1.000
    O116     O        0.93350    0.33950    0.04830    1.000
    O117     O        0.34960    0.04220    0.84350    1.000
    O118     O        0.48590    0.00650    0.92430    1.000
    O119     O        0.61570    0.37750    0.06710    1.000
    O120     O        0.40200    0.85510    0.93170    1.000
    O121     O        0.86190    0.15800    0.90580    1.000
    O122     O        0.83600    0.20690    0.08580    1.000
    O123     O        0.86830    0.04540    0.98220    1.000
    O124     O        0.44550    0.89620    0.84700    1.000
    O125     O        0.86600    0.29900    0.16840    1.000
    O126     O        0.97570    0.25600    0.97210    1.000
    O127     O        0.78270    0.39220    0.98710    1.000
    O128     O        0.50990    0.26260    0.00600    1.000
    O129     O        0.68500    0.26610    0.02320    1.000
    O130     O        0.97950    0.14940    0.04640    1.000
    O131     O        0.57670    0.15470    0.95240    1.000
    O132     O        0.65200    0.26840    0.91250    1.000
    O133     O        0.59460    0.97720    0.86350    1.000
    O134     O        0.81990    0.31760    0.90990    1.000
    O135     O        0.00350    0.24520    0.13020    1.000
    O136     O        0.80080    0.38510    0.08450    1.000
    O137     O        0.35960    0.15560    0.78230    1.000
    O138     O        0.26650    0.90020    0.85420    1.000
    O139     O        0.67280    0.00760    0.96490    1.000
    O140     O        0.88510    0.04040    0.08640    1.000
    O141     O        0.69290    0.25200    0.12980    1.000
    O142     O        0.03050    0.09410    0.96130    1.000
    O143     O        0.31300    0.00090    0.93390    1.000
    O144     O        0.55640    0.86980    0.79380    1.000
    O145     O        0.59760    0.38370    0.97020    1.000
    O146     O        0.52100    0.05030    0.75650    1.000
    H13      H        0.49550    0.08830    0.73830    1.000
    C7       C        0.45510    0.01120    0.78060    1.000
    C8       C        0.37580    0.97310    0.74160    1.000
    H14      H        0.33400    0.94810    0.75830    1.000
    H15      H        0.39860    0.93180    0.72300    1.000
    H16      H        0.34420    0.01520    0.71880    1.000
    O147     O        0.61800    0.71120    0.82660    1.000
    O148     O        0.55560    0.67800    0.80640    1.000
