# CIF file generated by openbabel 3.1.0, see https://openbabel.org
data_I
_chemical_name_common 'XACYAB_clean'
_cell_length_a 13.6309
_cell_length_b 13.6309
_cell_length_c 13.6309
_cell_angle_alpha 105.85
_cell_angle_beta 109.737
_cell_angle_gamma 112.903
_space_group_name_H-M_alt 'P 1'
_space_group_name_Hall 'P 1'
loop_
    _symmetry_equiv_pos_as_xyz
    x,y,z
loop_
    _atom_site_label
    _atom_site_type_symbol
    _atom_site_fract_x
    _atom_site_fract_y
    _atom_site_fract_z
    _atom_site_occupancy
    Co1      Co       0.00000    0.50000    0.50000    1.000
    Co2      Co       0.50000    0.00000    0.50000    1.000
    H1       H        0.95860    0.63850    0.35710    1.000
    H2       H        0.95890    0.65680    0.19650    1.000
    H3       H        0.98750    0.36660    0.11010    1.000
    H4       H        0.98780    0.35720    0.26840    1.000
    H5       H        0.97920    0.58980    0.02480    1.000
    H6       H        0.28140    0.60150    0.64290    1.000
    H7       H        0.46030    0.76240    0.80350    1.000
    H8       H        0.25650    0.87740    0.88990    1.000
    H9       H        0.08880    0.71940    0.73160    1.000
    H10      H        0.56500    0.95440    0.97520    1.000
    H11      H        0.54140    0.89850    0.67990    1.000
    H12      H        0.54110    0.73760    0.69790    1.000
    H13      H        0.51250    0.62260    0.37910    1.000
    H14      H        0.51220    0.78060    0.36940    1.000
    H15      H        0.52080    0.54560    0.61060    1.000
    H16      H        0.21860    0.86150    0.32010    1.000
    H17      H        0.03970    0.84320    0.30210    1.000
    H18      H        0.24350    0.13340    0.62090    1.000
    H19      H        0.41120    0.14280    0.63060    1.000
    H20      H        0.93500    0.91020    0.38940    1.000
    H21      H        0.04140    0.36150    0.64290    1.000
    H22      H        0.04110    0.34320    0.80350    1.000
    H23      H        0.01250    0.63340    0.88990    1.000
    H24      H        0.01220    0.64280    0.73160    1.000
    H25      H        0.02080    0.41020    0.97520    1.000
    H26      H        0.71860    0.39850    0.35710    1.000
    H27      H        0.53970    0.23760    0.19650    1.000
    H28      H        0.74350    0.12260    0.11010    1.000
    H29      H        0.91120    0.28060    0.26840    1.000
    H30      H        0.43500    0.04560    0.02480    1.000
    H31      H        0.45860    0.10150    0.32010    1.000
    H32      H        0.45890    0.26240    0.30210    1.000
    H33      H        0.48750    0.37740    0.62090    1.000
    H34      H        0.48780    0.21940    0.63060    1.000
    H35      H        0.47920    0.45440    0.38940    1.000
    H36      H        0.78140    0.13850    0.67990    1.000
    H37      H        0.96030    0.15680    0.69790    1.000
    H38      H        0.75650    0.86660    0.37910    1.000
    H39      H        0.58880    0.85720    0.36940    1.000
    H40      H        0.06500    0.08980    0.61060    1.000
    C1       C        0.83690    0.21160    0.37470    1.000
    C2       C        0.96470    0.58310    0.30580    1.000
    C3       C        0.96370    0.59530    0.21060    1.000
    C4       C        0.97070    0.50160    0.12870    1.000
    C5       C        0.98050    0.42320    0.15870    1.000
    C6       C        0.98160    0.41780    0.25360    1.000
    C7       C        0.98770    0.52790    0.03400    1.000
    C8       C        0.83690    0.46220    0.62530    1.000
    C9       C        0.27730    0.65890    0.69420    1.000
    C10      C        0.38470    0.75310    0.78940    1.000
    C11      C        0.37290    0.84200    0.87130    1.000
    C12      C        0.26450    0.82180    0.84130    1.000
    C13      C        0.16420    0.72800    0.74640    1.000
    C14      C        0.49390    0.95370    0.96600    1.000
    C15      C        0.66310    0.03780    0.37470    1.000
    C16      C        0.53530    0.84110    0.61840    1.000
    C17      C        0.53630    0.74690    0.63160    1.000
    C18      C        0.52930    0.65800    0.53090    1.000
    C19      C        0.51950    0.67820    0.44270    1.000
    C20      C        0.51840    0.77200    0.43620    1.000
    C21      C        0.51230    0.54630    0.54020    1.000
    C22      C        0.66310    0.28840    0.62530    1.000
    C23      C        0.22270    0.91690    0.38160    1.000
    C24      C        0.11530    0.90470    0.36840    1.000
    C25      C        0.12710    0.99840    0.46910    1.000
    C26      C        0.23550    0.07680    0.55730    1.000
    C27      C        0.33580    0.08220    0.56380    1.000
    C28      C        0.00610    0.97210    0.45980    1.000
    C29      C        0.16310    0.78840    0.62530    1.000
    C30      C        0.03530    0.41690    0.69420    1.000
    C31      C        0.03630    0.40470    0.78940    1.000
    C32      C        0.02930    0.49840    0.87130    1.000
    C33      C        0.01950    0.57680    0.84130    1.000
    C34      C        0.01840    0.58220    0.74640    1.000
    C35      C        0.01230    0.47210    0.96600    1.000
    C36      C        0.16310    0.53780    0.37470    1.000
    C37      C        0.72270    0.34110    0.30580    1.000
    C38      C        0.61530    0.24690    0.21060    1.000
    C39      C        0.62710    0.15800    0.12870    1.000
    C40      C        0.73550    0.17820    0.15870    1.000
    C41      C        0.83580    0.27200    0.25360    1.000
    C42      C        0.50610    0.04630    0.03400    1.000
    C43      C        0.33690    0.96220    0.62530    1.000
    C44      C        0.46470    0.15890    0.38160    1.000
    C45      C        0.46370    0.25310    0.36840    1.000
    C46      C        0.47070    0.34200    0.46910    1.000
    C47      C        0.48050    0.32180    0.55730    1.000
    C48      C        0.48160    0.22800    0.56380    1.000
    C49      C        0.48770    0.45370    0.45980    1.000
    C50      C        0.33690    0.71160    0.37470    1.000
    C51      C        0.77730    0.08310    0.61840    1.000
    C52      C        0.88470    0.09530    0.63160    1.000
    C53      C        0.87290    0.00160    0.53090    1.000
    C54      C        0.76450    0.92320    0.44270    1.000
    C55      C        0.66420    0.91780    0.43620    1.000
    C56      C        0.99390    0.02790    0.54020    1.000
    S1       S        0.75340    0.06850    0.31510    1.000
    S2       S        0.75340    0.43830    0.68490    1.000
    S3       S        0.74660    0.06170    0.31510    1.000
    S4       S        0.74660    0.43150    0.68490    1.000
    S5       S        0.24660    0.93150    0.68490    1.000
    S6       S        0.24660    0.56170    0.31510    1.000
    S7       S        0.25340    0.93830    0.68490    1.000
    S8       S        0.25340    0.56850    0.31510    1.000
    N1       N        0.89850    0.31300    0.41450    1.000
    N2       N        0.97360    0.49990    0.33330    1.000
    N3       N        0.89850    0.48400    0.58550    1.000
    N4       N        0.16660    0.64030    0.66670    1.000
    N5       N        0.60150    0.01600    0.41450    1.000
    N6       N        0.52640    0.85970    0.52630    1.000
    N7       N        0.60150    0.18700    0.58550    1.000
    N8       N        0.33340    0.00010    0.47370    1.000
    N9       N        0.10150    0.68700    0.58550    1.000
    N10      N        0.02640    0.50010    0.66670    1.000
    N11      N        0.10150    0.51600    0.41450    1.000
    N12      N        0.83340    0.35970    0.33330    1.000
    N13      N        0.39850    0.98400    0.58550    1.000
    N14      N        0.47360    0.14030    0.47370    1.000
    N15      N        0.39850    0.81300    0.41450    1.000
    N16      N        0.66660    0.99990    0.52630    1.000
