# CIF file generated by openbabel 3.1.0, see https://openbabel.org
data_I
_chemical_name_common 'image0'
_cell_length_a 11.1556
_cell_length_b 13.043
_cell_length_c 14.135
_cell_angle_alpha 89.759
_cell_angle_beta 87.182
_cell_angle_gamma 85.006
_space_group_name_H-M_alt 'P 1'
_space_group_name_Hall 'P 1'
loop_
    _symmetry_equiv_pos_as_xyz
    x,y,z
loop_
    _atom_site_label
    _atom_site_type_symbol
    _atom_site_fract_x
    _atom_site_fract_y
    _atom_site_fract_z
    _atom_site_occupancy
    Cu1      Cu       0.59444    0.93211    0.99934    1.000
    Cu2      Cu       0.59847    0.54972    0.49893    1.000
    C1       C        0.65820    0.14970    0.78380    1.000
    C2       C        0.59360    0.22770    0.73480    1.000
    C3       C        0.65820    0.28560    0.66900    1.000
    C4       C        0.77990    0.26370    0.65050    1.000
    H1       H        0.82030    0.30300    0.60640    1.000
    C5       C        0.84290    0.18390    0.69650    1.000
    H2       H        0.92540    0.16970    0.68450    1.000
    C6       C        0.77910    0.12470    0.76210    1.000
    H3       H        0.81900    0.06820    0.79100    1.000
    C7       C        0.59850    0.08950    0.86280    1.000
    C8       C        0.46170    0.24770    0.75050    1.000
    C9       C        0.59500    0.36980    0.61220    1.000
    O1       O        0.65550    0.01100    0.89330    1.000
    O2       O        0.49890    0.12830    0.89640    1.000
    O3       O        0.41630    0.32620    0.79390    1.000
    O4       O        0.39700    0.18390    0.71220    1.000
    O5       O        0.65470    0.44370    0.58960    1.000
    O6       O        0.48800    0.36080    0.59240    1.000
    C10      C        0.34000    0.82420    0.81900    1.000
    C11      C        0.40410    0.75040    0.75830    1.000
    C12      C        0.33900    0.69110    0.70060    1.000
    C13      C        0.21670    0.70190    0.70480    1.000
    H4       H        0.17580    0.66010    0.66680    1.000
    C14      C        0.15090    0.77280    0.76340    1.000
    H5       H        0.06710    0.77960    0.76460    1.000
    C15      C        0.21400    0.83420    0.82100    1.000
    H6       H        0.17160    0.88230    0.86120    1.000
    C16      C        0.40110    0.88740    0.88500    1.000
    C17      C        0.54020    0.74510    0.75240    1.000
    C18      C        0.40200    0.61510    0.62990    1.000
    O7       O        0.50300    0.85540    0.91140    1.000
    O8       O        0.34500    0.97000    0.91120    1.000
    O9       O        0.58860    0.81470    0.70920    1.000
    O10      O        0.59610    0.66800    0.79040    1.000
    O11      O        0.50360    0.62910    0.60070    1.000
    O12      O        0.34100    0.54360    0.60440    1.000
    N1       N        0.32780    0.56080    0.00210    1.000
    C19      C        0.29320    0.64070    0.05720    1.000
    H7       H        0.34990    0.66590    0.09510    1.000
    C20      C        0.17760    0.68890    0.06170    1.000
    H8       H        0.15770    0.74440    0.10230    1.000
    C21      C        0.09230    0.65390    0.00540    1.000
    C22      C        0.12990    0.57010    0.94900    1.000
    H9       H        0.07660    0.54270    0.90960    1.000
    C23      C        0.24670    0.52750    0.95150    1.000
    H10      H        0.26880    0.47010    0.91360    1.000
    N2       N        0.75070    0.82520    0.00370    1.000
    C24      C        0.80590    0.80970    0.08330    1.000
    H11      H        0.76980    0.83920    0.13850    1.000
    C25      C        0.91580    0.75120    0.08870    1.000
    H12      H        0.95120    0.74170    0.14660    1.000
    C26      C        0.97180    0.70750    0.00780    1.000
    C27      C        0.90710    0.71770    0.92640    1.000
    H13      H        0.93680    0.68440    0.87090    1.000
    C28      C        0.79680    0.77840    0.92780    1.000
    H14      H        0.75530    0.78550    0.87240    1.000
    Cu3      Cu       0.40556    0.06789    0.00066    1.000
    Cu4      Cu       0.40153    0.45028    0.50107    1.000
    C29      C        0.34180    0.85030    0.21620    1.000
    C30      C        0.40640    0.77230    0.26520    1.000
    C31      C        0.34180    0.71440    0.33100    1.000
    C32      C        0.22010    0.73630    0.34950    1.000
    H15      H        0.17970    0.69700    0.39360    1.000
    C33      C        0.15710    0.81610    0.30350    1.000
    H16      H        0.07460    0.83030    0.31550    1.000
    C34      C        0.22090    0.87530    0.23790    1.000
    H17      H        0.18100    0.93180    0.20900    1.000
    C35      C        0.40150    0.91050    0.13720    1.000
    C36      C        0.53830    0.75230    0.24950    1.000
    C37      C        0.40500    0.63020    0.38780    1.000
    O13      O        0.34450    0.98900    0.10670    1.000
    O14      O        0.50110    0.87170    0.10360    1.000
    O15      O        0.58370    0.67380    0.20610    1.000
    O16      O        0.60300    0.81610    0.28780    1.000
    O17      O        0.34530    0.55630    0.41040    1.000
    O18      O        0.51200    0.63920    0.40760    1.000
    C38      C        0.66000    0.17580    0.18100    1.000
    C39      C        0.59590    0.24960    0.24170    1.000
    C40      C        0.66100    0.30890    0.29940    1.000
    C41      C        0.78330    0.29810    0.29520    1.000
    H18      H        0.82420    0.33990    0.33320    1.000
    C42      C        0.84910    0.22720    0.23660    1.000
    H19      H        0.93290    0.22040    0.23540    1.000
    C43      C        0.78600    0.16580    0.17900    1.000
    H20      H        0.82840    0.11770    0.13880    1.000
    C44      C        0.59890    0.11260    0.11500    1.000
    C45      C        0.45980    0.25490    0.24760    1.000
    C46      C        0.59800    0.38490    0.37010    1.000
    O19      O        0.49700    0.14460    0.08860    1.000
    O20      O        0.65500    0.03000    0.08880    1.000
    O21      O        0.41140    0.18530    0.29080    1.000
    O22      O        0.40390    0.33200    0.20960    1.000
    O23      O        0.49640    0.37090    0.39930    1.000
    O24      O        0.65900    0.45640    0.39560    1.000
    N3       N        0.67220    0.43920    0.99790    1.000
    C47      C        0.70680    0.35930    0.94280    1.000
    H21      H        0.65010    0.33410    0.90490    1.000
    C48      C        0.82240    0.31110    0.93830    1.000
    H22      H        0.84230    0.25560    0.89770    1.000
    C49      C        0.90770    0.34610    0.99460    1.000
    C50      C        0.87010    0.42990    0.05100    1.000
    H23      H        0.92340    0.45730    0.09040    1.000
    C51      C        0.75330    0.47250    0.04850    1.000
    H24      H        0.73120    0.52990    0.08640    1.000
    N4       N        0.24930    0.17480    0.99630    1.000
    C52      C        0.19410    0.19030    0.91670    1.000
    H25      H        0.23020    0.16080    0.86150    1.000
    C53      C        0.08420    0.24880    0.91130    1.000
    H26      H        0.04880    0.25830    0.85340    1.000
    C54      C        0.02820    0.29250    0.99220    1.000
    C55      C        0.09290    0.28230    0.07360    1.000
    H27      H        0.06320    0.31560    0.12910    1.000
    C56      C        0.20320    0.22160    0.07220    1.000
    H28      H        0.24470    0.21450    0.12760    1.000
    Cu5      Cu       0.50000    0.50000    0.00000    1.000
