data_functionalizedCrystal
_audit_creation_method	'EQeq! by Chris Wilmer'
_symmetry_space_group_name_H-M	'P1'
_symmetry_Int_Tables_number	1
_symmetry_cell_setting	triclinic
loop_
_symmetry_equiv_pos_as_xyz
  x,y,z
_cell_length_a	15.894
_cell_length_b	10.491
_cell_length_c	20.909
_cell_angle_alpha	90
_cell_angle_beta	107.841
_cell_angle_gamma	90
loop_
_atom_site_label
_atom_site_type_symbol
_atom_site_fract_x
_atom_site_fract_y
_atom_site_fract_z
_atom_site_charge
Mof_C 	C 	0.8661	0.6025	0.8361	-0.199
Mof_H 	H 	0.8815	0.5128	0.8378	0.091
Mof_H 	H 	0.8314	0.6157	0.8665	0.092
Mof_C 	C 	0.9504	0.6803	0.8606	0.178
Mof_C 	C 	0.0158	0.641	0.9175	-0.226
Mof_H 	H 	0.008	0.5673	0.9397	0.102
Mof_C 	C 	0.0932	0.7109	0.9418	0.131
Mof_H 	H 	0.1368	0.6836	0.9801	-0.012
Mof_C 	C 	0.1059	0.8206	0.9095	-0.199
Mof_C 	C 	0.0423	0.8568	0.8512	0.132
Mof_H 	H 	0.0511	0.9282	0.8277	0
Mof_C 	C 	0.9649	0.7865	0.8276	-0.226
Mof_H 	H 	0.922	0.8123	0.7885	0.121
Mof_C 	C 	0.1876	0.8948	0.9365	0.404
Mof_C 	C 	0.7482	0.7282	0.7558	0.057
Mof_C 	C 	0.7315	0.801	0.807	-0.064
Mof_H 	H 	0.7655	0.7875	0.8513	0.07
Mof_C 	C 	0.666	0.8919	0.7928	-0.052
Mof_C 	C 	0.613	0.9143	0.7278	0.02
Mof_H 	H 	0.568	0.9746	0.7188	0.043
Mof_C 	C 	0.6288	0.8443	0.676	-0.105
Mof_C 	C 	0.6956	0.7539	0.6894	-0.035
Mof_H 	H 	0.7059	0.7095	0.654	0.057
Mof_C 	C 	0.575	0.8673	0.6037	0.456
Mof_C 	C 	0.6531	0.9684	0.8509	0.311
Mof_C 	C 	0.8388	0.577	0.7149	-0.212
Mof_H 	H 	0.8992	0.5472	0.7332	0.096
Mof_H 	H 	0.8382	0.6424	0.682	0.098
Mof_C 	C 	0.7052	0.4328	0.6926	-0.248
Mof_H 	H 	0.6883	0.4762	0.7254	0.124
Mof_C 	C 	0.782	0.4673	0.6797	0.195
Mof_C 	C 	0.6528	0.3348	0.6575	0.17
Mof_H 	H 	0.6007	0.3138	0.6665	-0.028
Mof_C 	C 	0.6773	0.2686	0.6095	-0.234
Mof_C 	C 	0.6179	0.1671	0.5688	0.504
Mof_C 	C 	0.7555	0.2983	0.5978	0.161
Mof_H 	H 	0.7739	0.2508	0.567	-0
Mof_C 	C 	0.8074	0.3989	0.6318	-0.24
Mof_H 	H 	0.8591	0.4204	0.6223	0.112
Mof_N 	N 	0.8119	0.6335	0.7684	-0.071
Mof_O 	O 	0.6051	0.0665	0.8388	-0.407
Mof_O 	O 	0.5393	0.1686	0.5679	-0.517
Mof_O 	O 	0.651	0.0873	0.5386	-0.437
Mof_O 	O 	0.6072	0.8313	0.5593	-0.471
Mof_O 	O 	0.5009	0.9205	0.5925	-0.486
Mof_O 	O 	0.6884	0.9299	0.9095	-0.371
Mof_O 	O 	0.1964	0.9907	0.8996	-0.249
Mof_O 	O 	0.2433	0.8664	0.9892	-0.426
Mof_Gd	Gd	0.39937	0.07818	0.54554	1.8
Mof_C 	C 	0.1339	0.6025	0.6639	-0.201
Mof_H 	H 	0.1185	0.5128	0.6622	0.091
Mof_H 	H 	0.1686	0.6157	0.6335	0.092
Mof_C 	C 	0.0496	0.6803	0.6394	0.18
Mof_C 	C 	0.9842	0.641	0.5825	-0.23
Mof_H 	H 	0.992	0.5673	0.5603	0.102
Mof_C 	C 	0.9068	0.7109	0.5582	0.132
Mof_H 	H 	0.8632	0.6836	0.5199	-0.013
Mof_C 	C 	0.8941	0.8206	0.5905	-0.199
Mof_C 	C 	0.9577	0.8568	0.6488	0.129
Mof_H 	H 	0.9489	0.9282	0.6723	0
Mof_C 	C 	0.0351	0.7865	0.6724	-0.223
Mof_H 	H 	0.078	0.8123	0.7115	0.12
Mof_C 	C 	0.8124	0.8948	0.5635	0.404
Mof_C 	C 	0.2518	0.7282	0.7442	0.058
Mof_C 	C 	0.2685	0.801	0.693	-0.064
Mof_H 	H 	0.2345	0.7875	0.6487	0.07
Mof_C 	C 	0.334	0.8919	0.7072	-0.051
Mof_C 	C 	0.387	0.9143	0.7722	0.019
Mof_H 	H 	0.432	0.9746	0.7812	0.044
Mof_C 	C 	0.3712	0.8443	0.824	-0.104
Mof_C 	C 	0.3044	0.7539	0.8106	-0.036
Mof_H 	H 	0.2941	0.7095	0.846	0.057
Mof_C 	C 	0.425	0.8673	0.8963	0.455
Mof_C 	C 	0.3469	0.9684	0.6491	0.309
Mof_C 	C 	0.1612	0.577	0.7851	-0.213
Mof_H 	H 	0.1008	0.5472	0.7668	0.097
Mof_H 	H 	0.1618	0.6424	0.818	0.099
Mof_C 	C 	0.2948	0.4328	0.8074	-0.248
Mof_H 	H 	0.3117	0.4762	0.7746	0.124
Mof_C 	C 	0.218	0.4673	0.8203	0.195
Mof_C 	C 	0.3472	0.3348	0.8425	0.17
Mof_H 	H 	0.3993	0.3138	0.8335	-0.028
Mof_C 	C 	0.3227	0.2686	0.8905	-0.235
Mof_C 	C 	0.3821	0.1671	0.9312	0.503
Mof_C 	C 	0.2445	0.2983	0.9022	0.161
Mof_H 	H 	0.2261	0.2508	0.933	-0.001
Mof_C 	C 	0.1926	0.3989	0.8682	-0.241
Mof_H 	H 	0.1409	0.4204	0.8777	0.112
Mof_N 	N 	0.1881	0.6335	0.7316	-0.071
Mof_O 	O 	0.3949	0.0665	0.6612	-0.406
Mof_O 	O 	0.4607	0.1686	0.9321	-0.517
Mof_O 	O 	0.349	0.0873	0.9614	-0.438
Mof_O 	O 	0.3928	0.8313	0.9407	-0.468
Mof_O 	O 	0.4991	0.9205	0.9075	-0.483
Mof_O 	O 	0.3116	0.9299	0.5905	-0.372
Mof_O 	O 	0.8036	0.9907	0.6004	-0.251
Mof_O 	O 	0.7567	0.8664	0.5108	-0.429
Mof_Gd	Gd	0.60062	0.07818	0.95446	1.791
Mof_C 	C 	0.1339	0.3975	0.1639	-0.2
Mof_H 	H 	0.1185	0.4872	0.1622	0.09
Mof_H 	H 	0.1686	0.3843	0.1335	0.091
Mof_C 	C 	0.0496	0.3197	0.1394	0.178
Mof_C 	C 	0.9842	0.359	0.0825	-0.226
Mof_H 	H 	0.992	0.4327	0.0603	0.102
Mof_C 	C 	0.9068	0.2891	0.0582	0.131
Mof_H 	H 	0.8632	0.3164	0.0199	-0.012
Mof_C 	C 	0.8941	0.1794	0.0905	-0.199
Mof_C 	C 	0.9577	0.1432	0.1488	0.132
Mof_H 	H 	0.9489	0.0718	0.1723	0
Mof_C 	C 	0.0351	0.2135	0.1724	-0.226
Mof_H 	H 	0.078	0.1877	0.2115	0.121
Mof_C 	C 	0.8124	0.1052	0.0635	0.403
Mof_C 	C 	0.2518	0.2718	0.2442	0.057
Mof_C 	C 	0.2685	0.199	0.193	-0.064
Mof_H 	H 	0.2345	0.2125	0.1487	0.07
Mof_C 	C 	0.334	0.1081	0.2072	-0.052
Mof_C 	C 	0.387	0.0857	0.2722	0.02
Mof_H 	H 	0.432	0.0254	0.2812	0.043
Mof_C 	C 	0.3712	0.1557	0.324	-0.105
Mof_C 	C 	0.3044	0.2461	0.3106	-0.035
Mof_H 	H 	0.2941	0.2905	0.346	0.057
Mof_C 	C 	0.425	0.1327	0.3963	0.456
Mof_C 	C 	0.3469	0.0316	0.1491	0.311
Mof_C 	C 	0.1612	0.423	0.2851	-0.212
Mof_H 	H 	0.1008	0.4528	0.2668	0.096
Mof_H 	H 	0.1618	0.3576	0.318	0.098
Mof_C 	C 	0.2948	0.5672	0.3074	-0.248
Mof_H 	H 	0.3117	0.5238	0.2746	0.124
Mof_C 	C 	0.218	0.5327	0.3203	0.195
Mof_C 	C 	0.3472	0.6652	0.3425	0.17
Mof_H 	H 	0.3993	0.6862	0.3335	-0.028
Mof_C 	C 	0.3227	0.7314	0.3905	-0.234
Mof_C 	C 	0.3821	0.8329	0.4312	0.504
Mof_C 	C 	0.2445	0.7017	0.4022	0.161
Mof_H 	H 	0.2261	0.7492	0.433	-0
Mof_C 	C 	0.1926	0.6011	0.3682	-0.24
Mof_H 	H 	0.1409	0.5796	0.3777	0.112
Mof_N 	N 	0.1881	0.3665	0.2316	-0.071
Mof_O 	O 	0.3949	0.9335	0.1612	-0.407
Mof_O 	O 	0.4607	0.8314	0.4321	-0.517
Mof_O 	O 	0.349	0.9127	0.4614	-0.437
Mof_O 	O 	0.3928	0.1687	0.4407	-0.471
Mof_O 	O 	0.4991	0.0795	0.4075	-0.486
Mof_O 	O 	0.3116	0.0701	0.0905	-0.371
Mof_O 	O 	0.8036	0.0093	0.1004	-0.249
Mof_O 	O 	0.7567	0.1336	0.0108	-0.426
Mof_Gd	Gd	0.60062	0.92182	0.45446	1.8
Mof_C 	C 	0.8661	0.3975	0.3361	-0.201
Mof_H 	H 	0.8815	0.4872	0.3378	0.091
Mof_H 	H 	0.8314	0.3843	0.3665	0.092
Mof_C 	C 	0.9504	0.3197	0.3606	0.18
Mof_C 	C 	0.0158	0.359	0.4175	-0.23
Mof_H 	H 	0.008	0.4327	0.4397	0.102
Mof_C 	C 	0.0932	0.2891	0.4418	0.132
Mof_H 	H 	0.1368	0.3164	0.4801	-0.013
Mof_C 	C 	0.1059	0.1794	0.4095	-0.199
Mof_C 	C 	0.0423	0.1432	0.3512	0.129
Mof_H 	H 	0.0511	0.0718	0.3277	0
Mof_C 	C 	0.9649	0.2135	0.3276	-0.223
Mof_H 	H 	0.922	0.1877	0.2885	0.12
Mof_C 	C 	0.1876	0.1052	0.4365	0.404
Mof_C 	C 	0.7482	0.2718	0.2558	0.058
Mof_C 	C 	0.7315	0.199	0.307	-0.064
Mof_H 	H 	0.7655	0.2125	0.3513	0.07
Mof_C 	C 	0.666	0.1081	0.2928	-0.051
Mof_C 	C 	0.613	0.0857	0.2278	0.019
Mof_H 	H 	0.568	0.0254	0.2188	0.044
Mof_C 	C 	0.6288	0.1557	0.176	-0.104
Mof_C 	C 	0.6956	0.2461	0.1894	-0.036
Mof_H 	H 	0.7059	0.2905	0.154	0.057
Mof_C 	C 	0.575	0.1327	0.1037	0.455
Mof_C 	C 	0.6531	0.0316	0.3509	0.309
Mof_C 	C 	0.8388	0.423	0.2149	-0.213
Mof_H 	H 	0.8992	0.4528	0.2332	0.097
Mof_H 	H 	0.8382	0.3576	0.182	0.099
Mof_C 	C 	0.7052	0.5672	0.1926	-0.248
Mof_H 	H 	0.6883	0.5238	0.2254	0.124
Mof_C 	C 	0.782	0.5327	0.1797	0.195
Mof_C 	C 	0.6528	0.6652	0.1575	0.17
Mof_H 	H 	0.6007	0.6862	0.1665	-0.028
Mof_C 	C 	0.6773	0.7314	0.1095	-0.235
Mof_C 	C 	0.6179	0.8329	0.0688	0.503
Mof_C 	C 	0.7555	0.7017	0.0978	0.161
Mof_H 	H 	0.7739	0.7492	0.067	-0.001
Mof_C 	C 	0.8074	0.6011	0.1318	-0.241
Mof_H 	H 	0.8591	0.5796	0.1223	0.112
Mof_N 	N 	0.8119	0.3665	0.2684	-0.071
Mof_O 	O 	0.6051	0.9335	0.3388	-0.406
Mof_O 	O 	0.5393	0.8314	0.0679	-0.517
Mof_O 	O 	0.651	0.9127	0.0386	-0.438
Mof_O 	O 	0.6072	0.1687	0.0593	-0.468
Mof_O 	O 	0.5009	0.0795	0.0925	-0.483
Mof_O 	O 	0.6884	0.0701	0.4095	-0.372
Mof_O 	O 	0.1964	0.0093	0.3996	-0.251
Mof_O 	O 	0.2433	0.1336	0.4892	-0.429
Mof_Gd	Gd	0.39937	0.92182	0.04554	1.791
_end
