# CIF file generated by openbabel 3.1.0, see https://openbabel.org
data_I
_chemical_name_common 'image0'
_cell_length_a 9.43
_cell_length_b 14.48
_cell_length_c 13.306
_cell_angle_alpha 90
_cell_angle_beta 90
_cell_angle_gamma 90
_space_group_name_H-M_alt 'P 1'
_space_group_name_Hall 'P 1'
loop_
    _symmetry_equiv_pos_as_xyz
    x,y,z
loop_
    _atom_site_label
    _atom_site_type_symbol
    _atom_site_fract_x
    _atom_site_fract_y
    _atom_site_fract_z
    _atom_site_occupancy
    O1       O        0.20980    0.39321    0.24521    1.000
    O2       O        0.03610    0.49290    0.22546    1.000
    O3       O        0.08950    0.10897    0.45231    1.000
    O4       O        0.90400    0.11348    0.55316    1.000
    C1       C        0.09090    0.42442    0.27058    1.000
    C2       C        0.01030    0.37931    0.35419    1.000
    C3       C        0.91050    0.43060    0.40710    1.000
    C4       C        0.83480    0.38910    0.48460    1.000
    C5       C        0.85830    0.29850    0.50900    1.000
    C6       C        0.95850    0.24652    0.45876    1.000
    C7       C        0.03470    0.28859    0.38119    1.000
    C8       C        0.98630    0.14830    0.48971    1.000
    H1       H        0.09300    0.25720    0.34850    1.000
    H2       H        0.86900    0.48400    0.37700    1.000
    H3       H        0.81400    0.27200    0.56000    1.000
    H4       H        0.76800    0.41700    0.51600    1.000
    O5       O        0.29020    0.60679    0.24521    1.000
    O6       O        0.46390    0.50710    0.22546    1.000
    O7       O        0.41050    0.89103    0.45231    1.000
    O8       O        0.59600    0.88652    0.55316    1.000
    C9       C        0.40910    0.57558    0.27058    1.000
    C10      C        0.48970    0.62069    0.35419    1.000
    C11      C        0.58950    0.56940    0.40710    1.000
    C12      C        0.66520    0.61090    0.48460    1.000
    C13      C        0.64170    0.70150    0.50900    1.000
    C14      C        0.54150    0.75348    0.45876    1.000
    C15      C        0.46530    0.71141    0.38119    1.000
    C16      C        0.51370    0.85170    0.48971    1.000
    H5       H        0.40700    0.74280    0.34850    1.000
    H6       H        0.63100    0.51600    0.37700    1.000
    H7       H        0.68600    0.72800    0.56000    1.000
    H8       H        0.73200    0.58300    0.51600    1.000
    O9       O        0.29020    0.89321    0.25479    1.000
    O10      O        0.46390    0.99290    0.27454    1.000
    O11      O        0.41050    0.60897    0.04769    1.000
    O12      O        0.59600    0.61348    0.94684    1.000
    C17      C        0.40910    0.92442    0.22942    1.000
    C18      C        0.48970    0.87931    0.14581    1.000
    C19      C        0.58950    0.93060    0.09290    1.000
    C20      C        0.66520    0.88910    0.01540    1.000
    C21      C        0.64170    0.79850    0.99100    1.000
    C22      C        0.54150    0.74652    0.04124    1.000
    C23      C        0.46530    0.78859    0.11881    1.000
    C24      C        0.51370    0.64830    0.01029    1.000
    H9       H        0.40700    0.75720    0.15150    1.000
    H10      H        0.63100    0.98400    0.12300    1.000
    H11      H        0.68600    0.77200    0.94000    1.000
    H12      H        0.73200    0.91700    0.98400    1.000
    O13      O        0.20980    0.10679    0.25479    1.000
    O14      O        0.03610    0.00710    0.27454    1.000
    O15      O        0.08950    0.39103    0.04769    1.000
    O16      O        0.90400    0.38652    0.94684    1.000
    C25      C        0.09090    0.07558    0.22942    1.000
    C26      C        0.01030    0.12069    0.14581    1.000
    C27      C        0.91050    0.06940    0.09290    1.000
    C28      C        0.83480    0.11090    0.01540    1.000
    C29      C        0.85830    0.20150    0.99100    1.000
    C30      C        0.95850    0.25348    0.04124    1.000
    C31      C        0.03470    0.21141    0.11881    1.000
    C32      C        0.98630    0.35170    0.01029    1.000
    H13      H        0.09300    0.24280    0.15150    1.000
    H14      H        0.86900    0.01600    0.12300    1.000
    H15      H        0.81400    0.22800    0.94000    1.000
    H16      H        0.76800    0.08300    0.98400    1.000
    O17      O        0.79020    0.60679    0.75479    1.000
    O18      O        0.96390    0.50710    0.77454    1.000
    O19      O        0.91050    0.89103    0.54769    1.000
    O20      O        0.09600    0.88652    0.44684    1.000
    C33      C        0.90910    0.57558    0.72942    1.000
    C34      C        0.98970    0.62069    0.64581    1.000
    C35      C        0.08950    0.56940    0.59290    1.000
    C36      C        0.16520    0.61090    0.51540    1.000
    C37      C        0.14170    0.70150    0.49100    1.000
    C38      C        0.04150    0.75348    0.54124    1.000
    C39      C        0.96530    0.71141    0.61881    1.000
    C40      C        0.01370    0.85170    0.51029    1.000
    H17      H        0.90700    0.74280    0.65150    1.000
    H18      H        0.13100    0.51600    0.62300    1.000
    H19      H        0.18600    0.72800    0.44000    1.000
    H20      H        0.23200    0.58300    0.48400    1.000
    O21      O        0.70980    0.39321    0.75479    1.000
    O22      O        0.53610    0.49290    0.77454    1.000
    O23      O        0.58950    0.10897    0.54769    1.000
    O24      O        0.40400    0.11348    0.44684    1.000
    C41      C        0.59090    0.42442    0.72942    1.000
    C42      C        0.51030    0.37931    0.64581    1.000
    C43      C        0.41050    0.43060    0.59290    1.000
    C44      C        0.33480    0.38910    0.51540    1.000
    C45      C        0.35830    0.29850    0.49100    1.000
    C46      C        0.45850    0.24652    0.54124    1.000
    C47      C        0.53470    0.28859    0.61881    1.000
    C48      C        0.48630    0.14830    0.51029    1.000
    H21      H        0.59300    0.25720    0.65150    1.000
    H22      H        0.36900    0.48400    0.62300    1.000
    H23      H        0.31400    0.27200    0.44000    1.000
    H24      H        0.26800    0.41700    0.48400    1.000
    O25      O        0.70980    0.10679    0.74521    1.000
    O26      O        0.53610    0.00710    0.72546    1.000
    O27      O        0.58950    0.39103    0.95231    1.000
    O28      O        0.40400    0.38652    0.05316    1.000
    C49      C        0.59090    0.07558    0.77058    1.000
    C50      C        0.51030    0.12069    0.85419    1.000
    C51      C        0.41050    0.06940    0.90710    1.000
    C52      C        0.33480    0.11090    0.98460    1.000
    C53      C        0.35830    0.20150    0.00900    1.000
    C54      C        0.45850    0.25348    0.95876    1.000
    C55      C        0.53470    0.21141    0.88119    1.000
    C56      C        0.48630    0.35170    0.98971    1.000
    H25      H        0.59300    0.24280    0.84850    1.000
    H26      H        0.36900    0.01600    0.87700    1.000
    H27      H        0.31400    0.22800    0.06000    1.000
    H28      H        0.26800    0.08300    0.01600    1.000
    O29      O        0.79020    0.89321    0.74521    1.000
    O30      O        0.96390    0.99290    0.72546    1.000
    O31      O        0.91050    0.60897    0.95231    1.000
    O32      O        0.09600    0.61348    0.05316    1.000
    C57      C        0.90910    0.92442    0.77058    1.000
    C58      C        0.98970    0.87931    0.85419    1.000
    C59      C        0.08950    0.93060    0.90710    1.000
    C60      C        0.16520    0.88910    0.98460    1.000
    C61      C        0.14170    0.79850    0.00900    1.000
    C62      C        0.04150    0.74652    0.95876    1.000
    C63      C        0.96530    0.78859    0.88119    1.000
    C64      C        0.01370    0.64830    0.98971    1.000
    H29      H        0.90700    0.75720    0.84850    1.000
    H30      H        0.13100    0.98400    0.87700    1.000
    H31      H        0.18600    0.77200    0.06000    1.000
    H32      H        0.23200    0.91700    0.01600    1.000
    Dy1      Dy       0.25000    0.50000    0.10195    1.000
    Dy2      Dy       0.25000    0.00000    0.39805    1.000
    Dy3      Dy       0.75000    0.50000    0.89805    1.000
    Dy4      Dy       0.75000    0.00000    0.60195    1.000
