data_functionalizedCrystal
_audit_creation_method	'EQeq! by Chris Wilmer'
_symmetry_space_group_name_H-M	'P1'
_symmetry_Int_Tables_number	1
_symmetry_cell_setting	triclinic
loop_
_symmetry_equiv_pos_as_xyz
  x,y,z
_cell_length_a	15.1035
_cell_length_b	15.1035
_cell_length_c	12.0247
_cell_angle_alpha	90
_cell_angle_beta	90
_cell_angle_gamma	90
loop_
_atom_site_label
_atom_site_type_symbol
_atom_site_fract_x
_atom_site_fract_y
_atom_site_fract_z
_atom_site_charge
Mof_O 	O 	0.60162	0.2897	0.75592	-0.517
Mof_O 	O 	0.61804	0.38048	0.60872	-0.499
Mof_C 	C 	0.59118	0.35994	0.70153	0.434
Mof_C 	C 	0.54461	0.43393	0.76011	-0.087
Mof_C 	C 	0.54733	0.43311	0.87925	-0.047
Mof_H 	H 	0.57318	0.38162	0.90735	0.073
Mof_O 	O 	0.10162	0.7897	0.25592	-0.529
Mof_O 	O 	0.11804	0.88048	0.10872	-0.514
Mof_C 	C 	0.09118	0.85994	0.20153	0.437
Mof_C 	C 	0.04461	0.93393	0.26011	-0.096
Mof_C 	C 	0.04733	0.93311	0.37925	0.015
Mof_H 	H 	0.07318	0.88162	0.40735	0.037
Mof_O 	O 	0.89838	0.2103	0.25592	-0.529
Mof_O 	O 	0.88196	0.11952	0.10872	-0.518
Mof_C 	C 	0.90882	0.14006	0.20153	0.438
Mof_C 	C 	0.95539	0.06607	0.26011	-0.105
Mof_C 	C 	0.95267	0.06689	0.37925	0.004
Mof_H 	H 	0.92682	0.11838	0.40735	0.04
Mof_O 	O 	0.39838	0.7103	0.75592	-0.516
Mof_O 	O 	0.38196	0.61952	0.60872	-0.5
Mof_C 	C 	0.40882	0.64006	0.70153	0.434
Mof_C 	C 	0.45539	0.56607	0.76011	-0.087
Mof_C 	C 	0.45267	0.56689	0.87925	-0.048
Mof_H 	H 	0.42682	0.61838	0.90735	0.074
Mof_O 	O 	0.7103	0.10162	0.00592	-0.622
Mof_O 	O 	0.61952	0.11804	0.85872	-0.548
Mof_C 	C 	0.64006	0.09118	0.95153	0.649
Mof_C 	C 	0.56607	0.04461	0.01011	-0.394
Mof_C 	C 	0.56689	0.04733	0.12925	0.15
Mof_H 	H 	0.61838	0.07318	0.15735	-0.015
Mof_O 	O 	0.2103	0.60162	0.50592	-0.528
Mof_O 	O 	0.11952	0.61804	0.35872	-0.51
Mof_C 	C 	0.14006	0.59118	0.45153	0.446
Mof_C 	C 	0.06607	0.54461	0.51011	-0.126
Mof_C 	C 	0.06689	0.54733	0.62925	0.019
Mof_H 	H 	0.11838	0.57318	0.65735	0.034
Mof_O 	O 	0.7897	0.39838	0.50592	-0.526
Mof_O 	O 	0.88048	0.38196	0.35872	-0.507
Mof_C 	C 	0.85994	0.40882	0.45153	0.445
Mof_C 	C 	0.93393	0.45539	0.51011	-0.117
Mof_C 	C 	0.93311	0.45267	0.62925	0.029
Mof_H 	H 	0.88162	0.42682	0.65735	0.033
Mof_O 	O 	0.2897	0.89838	0.00592	-0.62
Mof_O 	O 	0.38048	0.88196	0.85872	-0.542
Mof_C 	C 	0.35994	0.90882	0.95153	0.651
Mof_C 	C 	0.43393	0.95539	0.01011	-0.379
Mof_C 	C 	0.43311	0.95267	0.12925	0.171
Mof_H 	H 	0.38162	0.92682	0.15735	-0.018
Mof_O 	O 	0.89838	0.2897	0.99408	-0.419
Mof_O 	O 	0.88196	0.38048	0.14128	-0.454
Mof_C 	C 	0.90882	0.35994	0.04847	0.223
Mof_C 	C 	0.95539	0.43393	0.98989	0.19
Mof_C 	C 	0.95267	0.43311	0.87075	-0.163
Mof_H 	H 	0.92682	0.38162	0.84265	0.1
Mof_O 	O 	0.39838	0.7897	0.49408	-0.522
Mof_O 	O 	0.38196	0.88048	0.64128	-0.489
Mof_C 	C 	0.40882	0.85994	0.54847	0.429
Mof_C 	C 	0.45539	0.93393	0.48989	-0.072
Mof_C 	C 	0.45267	0.93311	0.37075	-0.019
Mof_H 	H 	0.42682	0.88162	0.34265	0.049
Mof_O 	O 	0.60162	0.2103	0.49408	-0.525
Mof_O 	O 	0.61804	0.11952	0.64128	-0.497
Mof_C 	C 	0.59118	0.14006	0.54847	0.432
Mof_C 	C 	0.54461	0.06607	0.48989	-0.09
Mof_C 	C 	0.54733	0.06689	0.37075	-0.04
Mof_H 	H 	0.57318	0.11838	0.34265	0.052
Mof_O 	O 	0.10162	0.7103	0.99408	-0.42
Mof_O 	O 	0.11804	0.61952	0.14128	-0.457
Mof_C 	C 	0.09118	0.64006	0.04847	0.224
Mof_C 	C 	0.04461	0.56607	0.98989	0.181
Mof_C 	C 	0.04733	0.56689	0.87075	-0.173
Mof_H 	H 	0.07318	0.61838	0.84265	0.102
Mof_O 	O 	0.7897	0.10162	0.74408	-0.52
Mof_O 	O 	0.88048	0.11804	0.89128	-0.476
Mof_C 	C 	0.85994	0.09118	0.79847	0.429
Mof_C 	C 	0.93393	0.04461	0.73989	-0.084
Mof_C 	C 	0.93311	0.04733	0.62075	-0.007
Mof_H 	H 	0.88162	0.07318	0.59265	0.043
Mof_O 	O 	0.2897	0.60162	0.24408	-0.535
Mof_O 	O 	0.38048	0.61804	0.39128	-0.506
Mof_C 	C 	0.35994	0.59118	0.29847	0.449
Mof_C 	C 	0.43393	0.54461	0.23989	-0.138
Mof_C 	C 	0.43311	0.54733	0.12075	0.028
Mof_H 	H 	0.38162	0.57318	0.09265	0.014
Mof_O 	O 	0.7103	0.39838	0.24408	-0.534
Mof_O 	O 	0.61952	0.38196	0.39128	-0.507
Mof_C 	C 	0.64006	0.40882	0.29847	0.45
Mof_C 	C 	0.56607	0.45539	0.23989	-0.137
Mof_C 	C 	0.56689	0.45267	0.12075	0.028
Mof_H 	H 	0.61838	0.42682	0.09265	0.015
Mof_O 	O 	0.2103	0.89838	0.74408	-0.516
Mof_O 	O 	0.11952	0.88196	0.89128	-0.472
Mof_C 	C 	0.14006	0.90882	0.79847	0.429
Mof_C 	C 	0.06607	0.95539	0.73989	-0.073
Mof_C 	C 	0.06689	0.95267	0.62075	0.004
Mof_H 	H 	0.11838	0.92682	0.59265	0.042
Mof_V 	V 	0.6917	0.3083	0.5	1.807
Mof_V 	V 	0.1917	0.8083	-0	1.783
Mof_V 	V 	0.8083	0.1917	-0	1.784
Mof_V 	V 	0.3083	0.6917	0.5	1.807
Mof_V 	V 	0.6917	0.1917	0.75	1.809
Mof_V 	V 	0.1917	0.6917	0.25	1.805
Mof_V 	V 	0.8083	0.3083	0.25	1.805
Mof_V 	V 	0.3083	0.8083	0.75	1.809
Mof_O 	O 	0.74484	0.25	0.625	-0.828
Mof_H 	H 	0.806	0.25	0.625	0.239
Mof_O 	O 	0.24484	0.75	0.125	-0.836
Mof_H 	H 	0.306	0.75	0.125	0.234
Mof_O 	O 	0.75516	0.25	0.125	-0.836
Mof_H 	H 	0.694	0.25	0.125	0.234
Mof_O 	O 	0.25516	0.75	0.625	-0.828
Mof_H 	H 	0.194	0.75	0.625	0.239
Mof_O 	O 	0.75	0.24484	0.875	-0.812
Mof_H 	H 	0.75	0.306	0.875	0.244
Mof_O 	O 	0.25	0.74484	0.375	-0.828
Mof_H 	H 	0.25	0.806	0.375	0.241
Mof_O 	O 	0.75	0.25516	0.375	-0.828
Mof_H 	H 	0.75	0.194	0.375	0.239
Mof_O 	O 	0.25	0.75516	0.875	-0.812
Mof_H 	H 	0.25	0.694	0.875	0.243
Mof_C 	C 	0.5	0.5	0.70346	0.044
Mof_C 	C 	0.5	0.5	0.93621	0.096
Mof_H 	H 	0.5	0.5	0.6261	0.057
Mof_C 	C 	6.07348e-34	1.15035e-33	0.20346	0.023
Mof_C 	C 	5.90354e-33	4.60141e-33	0.43621	-0.03
Mof_H 	H 	3.76421e-34	1.15035e-33	0.1261	0.041
Mof_C 	C 	0.5	0	0.95346	0.399
Mof_C 	C 	0.5	1.15035e-33	0.18621	-0.137
Mof_H 	H 	0.5	0	0.8761	-0.062
Mof_C 	C 	-3.24779e-33	0.5	0.45346	0.065
Mof_C 	C 	-7.15442e-33	0.5	0.68621	-0.052
Mof_H 	H 	5.72411e-33	0.5	0.3761	0.04
Mof_C 	C 	-3.59972e-33	0.5	0.04654	-0.322
Mof_C 	C 	1.16321e-32	0.5	0.81379	0.117
Mof_H 	H 	3.69853e-34	0.5	0.1239	0.168
Mof_C 	C 	0.5	0	0.54654	0.014
Mof_C 	C 	0.5	2.30071e-33	0.31379	0.03
Mof_H 	H 	0.5	4.60141e-33	0.6239	0.065
Mof_C 	C 	6.97916e-33	0	0.79654	0.004
Mof_C 	C 	1.68297e-33	4.60141e-33	0.56379	-0.02
Mof_H 	H 	2.60868e-33	9.20282e-33	0.8739	0.072
Mof_C 	C 	0.5	0.5	0.29654	0.085
Mof_C 	C 	0.5	0.5	0.06379	-0.09
Mof_H 	H 	0.5	0.5	0.3739	0.042
_end
