data_functionalizedCrystal
_audit_creation_method	'EQeq! by Chris Wilmer'
_symmetry_space_group_name_H-M	'P1'
_symmetry_Int_Tables_number	1
_symmetry_cell_setting	triclinic
loop_
_symmetry_equiv_pos_as_xyz
  x,y,z
_cell_length_a	18.878
_cell_length_b	18.878
_cell_length_c	37.043
_cell_angle_alpha	90
_cell_angle_beta	90
_cell_angle_gamma	90
loop_
_atom_site_label
_atom_site_type_symbol
_atom_site_fract_x
_atom_site_fract_y
_atom_site_fract_z
_atom_site_charge
Mof_Al	Al	0.86862	0.09558	0.08073	5.963
Mof_O 	O 	0.8024	0.1697	0.0845	-1.47
Mof_O 	O 	0.0635	0.8405	0.1025	-1.325
Mof_O 	O 	0.7964	0.0346	0.06117	-1.437
Mof_O 	O 	0.9325	0.0217	0.07946	-1.899
Mof_O 	O 	0.8947	0.1277	0.03497	-2.054
Mof_O 	O 	0.6626	0.5696	0.37273	-1.456
Mof_O 	O 	0.5657	0.5204	0.34775	-1.496
Mof_O 	O 	0.7987	0.2328	0.03321	-1.377
Mof_O 	O 	0.967	0.9057	0.11604	-1.034
Mof_C 	C 	0.9617	0.7836	0.12597	-0.309
Mof_O 	O 	0.7623	0.0967	0.01165	-1.437
Mof_C 	C 	0.0004	0.8468	0.11393	0.784
Mof_C 	C 	0.7923	0.2936	0.08877	-0.42
Mof_C 	C 	0.6271	0.5447	0.34611	1.138
Mof_C 	C 	0.7907	0.3594	0.07198	0.262
Mof_H 	H 	0.788	0.3625	0.0464	-0.038
Mof_C 	C 	0.664	0.5455	0.31033	-0.428
Mof_C 	C 	0.7973	0.2275	0.06715	1.067
Mof_C 	C 	0.6319	0.5137	0.28067	0.259
Mof_H 	H 	0.5875	0.4906	0.2834	-0.041
Mof_C 	C 	0.7956	0.2894	0.1263	0.273
Mof_H 	H 	0.7968	0.2445	0.1379	-0.045
Mof_C 	C 	0.7972	0.3512	0.14675	-0.272
Mof_H 	H 	0.7986	0.3481	0.1723	0.127
Mof_C 	C 	0.7302	0.577	0.30652	0.266
Mof_H 	H 	0.7526	0.5975	0.327	-0.025
Mof_C 	C 	0.8403	0.5413	0.1417	-0.016
Mof_H 	H 	0.8645	0.5395	0.1192	0.045
Mof_C 	C 	0.793	0.4208	0.0927	-0.263
Mof_H 	H 	0.792	0.4657	0.0812	0.123
Mof_C 	C 	0.8945	0.792	0.1418	0.207
Mof_H 	H 	0.8747	0.838	0.1445	0.003
Mof_C 	C 	0.6645	0.5156	0.247	-0.254
Mof_H 	H 	0.6412	0.496	0.2266	0.114
Mof_C 	C 	0.8567	0.732	0.1536	-0.231
Mof_H 	H 	0.811	0.7376	0.1639	0.12
Mof_C 	C 	0.7326	0.5467	0.2431	0.161
Mof_C 	C 	0.8455	0.6015	0.1627	-0.048
Mof_C 	C 	0.7968	0.4169	0.13048	0.176
Mof_C 	C 	0.8	0.4828	0.1528	-0.045
Mof_C 	C 	0.9907	0.7155	0.12222	0.427
Mof_H 	H 	0.0364	0.7093	0.112	-0.172
Mof_C 	C 	0.764	0.579	0.2733	-0.257
Mof_H 	H 	0.8085	0.6021	0.271	0.131
Mof_C 	C 	0.8075	0.6039	0.1958	-0.02
Mof_H 	H 	0.8086	0.6457	0.21	0.044
Mof_C 	C 	0.7654	0.4862	0.1859	-0.02
Mof_H 	H 	0.7388	0.4464	0.1938	0.036
Mof_C 	C 	0.7554	0.0474	0.03426	1.301
Mof_H 	H 	0.7161	0.0166	0.0311	-0.398
Mof_C 	C 	0.7682	0.5452	0.2077	-0.042
Mof_C 	C 	0.8861	0.6637	0.1503	0.193
Mof_C 	C 	0.9513	0.6574	0.1337	-0.328
Mof_H 	H 	0.9701	0.6113	0.1299	0.171
Mof_Al	Al	0.13138	0.90442	0.08073	5.864
Mof_O 	O 	0.1976	0.8303	0.0845	-1.45
Mof_O 	O 	0.9365	0.1595	0.1025	-1.42
Mof_O 	O 	0.2036	0.9654	0.06117	-1.377
Mof_O 	O 	0.0675	0.9783	0.07946	-1.859
Mof_O 	O 	0.1053	0.8723	0.03497	-2.051
Mof_O 	O 	0.3374	0.4304	0.37273	-1.463
Mof_O 	O 	0.4343	0.4796	0.34775	-1.497
Mof_O 	O 	0.2013	0.7672	0.03321	-1.377
Mof_O 	O 	0.033	0.0943	0.11604	-1.389
Mof_C 	C 	0.0383	0.2164	0.12597	-0.505
Mof_O 	O 	0.2377	0.9033	0.01165	-1.409
Mof_C 	C 	0.9996	0.1532	0.11393	1.247
Mof_C 	C 	0.2077	0.7064	0.08877	-0.415
Mof_C 	C 	0.3729	0.4553	0.34611	1.136
Mof_C 	C 	0.2093	0.6406	0.07198	0.249
Mof_H 	H 	0.212	0.6375	0.0464	-0.045
Mof_C 	C 	0.336	0.4545	0.31033	-0.431
Mof_C 	C 	0.2027	0.7725	0.06715	1.058
Mof_C 	C 	0.3681	0.4863	0.28067	0.253
Mof_H 	H 	0.4125	0.5094	0.2834	-0.04
Mof_C 	C 	0.2044	0.7106	0.1263	0.263
Mof_H 	H 	0.2032	0.7555	0.1379	-0.048
Mof_C 	C 	0.2028	0.6488	0.14675	-0.272
Mof_H 	H 	0.2014	0.6519	0.1723	0.112
Mof_C 	C 	0.2698	0.423	0.30652	0.256
Mof_H 	H 	0.2474	0.4025	0.327	-0.04
Mof_C 	C 	0.1597	0.4587	0.1417	-0.039
Mof_H 	H 	0.1355	0.4605	0.1192	0.026
Mof_C 	C 	0.207	0.5792	0.0927	-0.263
Mof_H 	H 	0.208	0.5343	0.0812	0.106
Mof_C 	C 	0.1055	0.208	0.1418	0.25
Mof_H 	H 	0.1253	0.162	0.1445	-0.07
Mof_C 	C 	0.3355	0.4844	0.247	-0.254
Mof_H 	H 	0.3588	0.504	0.2266	0.113
Mof_C 	C 	0.1433	0.268	0.1536	-0.242
Mof_H 	H 	0.189	0.2624	0.1639	0.097
Mof_C 	C 	0.2674	0.4533	0.2431	0.148
Mof_C 	C 	0.1545	0.3985	0.1627	-0.038
Mof_C 	C 	0.2032	0.5831	0.13048	0.158
Mof_C 	C 	0.2	0.5172	0.1528	-0.051
Mof_C 	C 	0.0093	0.2845	0.12222	0.039
Mof_H 	H 	0.9636	0.2907	0.112	0.088
Mof_C 	C 	0.236	0.421	0.2733	-0.26
Mof_H 	H 	0.1915	0.3979	0.271	0.103
Mof_C 	C 	0.1925	0.3961	0.1958	-0.042
Mof_H 	H 	0.1914	0.3543	0.21	0.032
Mof_C 	C 	0.2346	0.5138	0.1859	-0.032
Mof_H 	H 	0.2612	0.5536	0.1938	0.036
Mof_C 	C 	0.2446	0.9526	0.03426	1.282
Mof_H 	H 	0.2839	0.9834	0.0311	-0.344
Mof_C 	C 	0.2318	0.4548	0.2077	-0.045
Mof_C 	C 	0.1139	0.3363	0.1503	0.107
Mof_C 	C 	0.0487	0.3426	0.1337	-0.162
Mof_H 	H 	0.0299	0.3887	0.1299	0.048
Mof_Al	Al	0.40442	0.36862	0.58073	6.04
Mof_O 	O 	0.3303	0.3024	0.5845	-1.495
Mof_O 	O 	0.6595	0.5635	0.6025	-1.433
Mof_O 	O 	0.4654	0.2964	0.56117	-1.435
Mof_O 	O 	0.4783	0.4325	0.57946	-2.151
Mof_O 	O 	0.3723	0.3947	0.53497	-2.113
Mof_O 	O 	0.9304	0.1626	0.87273	-1.382
Mof_O 	O 	0.9796	0.0657	0.84775	-1.205
Mof_O 	O 	0.2672	0.2987	0.53321	-1.431
Mof_O 	O 	0.5943	0.467	0.61604	-1.482
Mof_C 	C 	0.7164	0.4617	0.62597	-0.45
Mof_O 	O 	0.4033	0.2623	0.51165	-1.473
Mof_C 	C 	0.6532	0.5004	0.61393	1.116
Mof_C 	C 	0.2064	0.2923	0.58877	-0.436
Mof_C 	C 	0.9553	0.1271	0.84611	1.037
Mof_C 	C 	0.1406	0.2907	0.57198	0.261
Mof_H 	H 	0.1375	0.288	0.5464	-0.052
Mof_C 	C 	0.9545	0.164	0.81033	-0.405
Mof_C 	C 	0.2725	0.2973	0.56715	1.088
Mof_C 	C 	0.9863	0.1319	0.78067	0.342
Mof_H 	H 	0.0094	0.0875	0.7834	-0.177
Mof_C 	C 	0.2106	0.2956	0.6263	0.274
Mof_H 	H 	0.2555	0.2968	0.6379	-0.056
Mof_C 	C 	0.1488	0.2972	0.64675	-0.291
Mof_H 	H 	0.1519	0.2986	0.6723	0.114
Mof_C 	C 	0.923	0.2302	0.80652	0.223
Mof_H 	H 	0.9025	0.2526	0.827	-0.01
Mof_C 	C 	0.9587	0.3403	0.6417	0.109
Mof_H 	H 	0.9605	0.3645	0.6192	0.028
Mof_C 	C 	0.0792	0.293	0.5927	-0.287
Mof_H 	H 	0.0343	0.292	0.5812	0.09
Mof_C 	C 	0.708	0.3945	0.6418	0.269
Mof_H 	H 	0.662	0.3747	0.6445	-0.046
Mof_C 	C 	0.9844	0.1645	0.747	-0.057
Mof_H 	H 	0.004	0.1412	0.7266	-0.046
Mof_C 	C 	0.768	0.3567	0.6536	-0.263
Mof_H 	H 	0.7624	0.311	0.6639	0.118
Mof_C 	C 	0.9533	0.2326	0.7431	0.05
Mof_C 	C 	0.8985	0.3455	0.6627	-0.056
Mof_C 	C 	0.0831	0.2968	0.63048	0.174
Mof_C 	C 	0.0172	0.3	0.6528	-0.134
Mof_C 	C 	0.7845	0.4907	0.62222	0.279
Mof_H 	H 	0.7907	0.5364	0.612	-0.053
Mof_C 	C 	0.921	0.264	0.7733	-0.188
Mof_H 	H 	0.8979	0.3085	0.771	0.103
Mof_C 	C 	0.8961	0.3075	0.6958	-0.071
Mof_H 	H 	0.8543	0.3086	0.71	0.054
Mof_C 	C 	0.0138	0.2654	0.6859	-0.188
Mof_H 	H 	0.0536	0.2388	0.6938	0.062
Mof_C 	C 	0.4526	0.2554	0.53426	1.328
Mof_H 	H 	0.4834	0.2161	0.5311	-0.386
Mof_C 	C 	0.9548	0.2682	0.7077	0.132
Mof_C 	C 	0.8363	0.3861	0.6503	0.183
Mof_C 	C 	0.8426	0.4513	0.6337	-0.273
Mof_H 	H 	0.8887	0.4701	0.6299	0.138
Mof_Al	Al	0.59558	0.63138	0.58073	6.043
Mof_O 	O 	0.6697	0.6976	0.5845	-1.485
Mof_O 	O 	0.3405	0.4365	0.6025	-1.433
Mof_O 	O 	0.5346	0.7036	0.56117	-1.424
Mof_O 	O 	0.5217	0.5675	0.57946	-2.151
Mof_O 	O 	0.6277	0.6053	0.53497	-2.114
Mof_O 	O 	0.0696	0.8374	0.87273	-1.405
Mof_O 	O 	0.0204	0.9343	0.84775	-1.227
Mof_O 	O 	0.7328	0.7013	0.53321	-1.414
Mof_O 	O 	0.4057	0.533	0.61604	-1.481
Mof_C 	C 	0.2836	0.5383	0.62597	-0.442
Mof_O 	O 	0.5967	0.7377	0.51165	-1.458
Mof_C 	C 	0.3468	0.4996	0.61393	1.11
Mof_C 	C 	0.7936	0.7077	0.58877	-0.411
Mof_C 	C 	0.0447	0.8729	0.84611	1.002
Mof_C 	C 	0.8594	0.7093	0.57198	0.265
Mof_H 	H 	0.8625	0.712	0.5464	-0.016
Mof_C 	C 	0.0455	0.836	0.81033	-0.351
Mof_C 	C 	0.7275	0.7027	0.56715	1.091
Mof_C 	C 	0.0137	0.8681	0.78067	0.11
Mof_H 	H 	0.9906	0.9125	0.7834	0.107
Mof_C 	C 	0.7894	0.7044	0.6263	0.274
Mof_H 	H 	0.7445	0.7032	0.6379	-0.043
Mof_C 	C 	0.8512	0.7028	0.64675	-0.26
Mof_H 	H 	0.8481	0.7014	0.6723	0.127
Mof_C 	C 	0.077	0.7698	0.80652	0.233
Mof_H 	H 	0.0975	0.7474	0.827	-0.028
Mof_C 	C 	0.0413	0.6597	0.6417	-0.154
Mof_H 	H 	0.0395	0.6355	0.6192	0.046
Mof_C 	C 	0.9208	0.707	0.5927	-0.243
Mof_H 	H 	0.9657	0.708	0.5812	0.151
Mof_C 	C 	0.292	0.6055	0.6418	0.255
Mof_H 	H 	0.338	0.6253	0.6445	-0.038
Mof_C 	C 	0.0156	0.8355	0.747	-0.386
Mof_H 	H 	0.996	0.8588	0.7266	0.247
Mof_C 	C 	0.232	0.6433	0.6536	-0.25
Mof_H 	H 	0.2376	0.689	0.6639	0.116
Mof_C 	C 	0.0467	0.7674	0.7431	0.22
Mof_C 	C 	0.1015	0.6545	0.6627	-0.036
Mof_C 	C 	0.9169	0.7032	0.63048	0.167
Mof_C 	C 	0.9828	0.7	0.6528	0.038
Mof_C 	C 	0.2155	0.5093	0.62222	0.254
Mof_H 	H 	0.2093	0.4636	0.612	-0.055
Mof_C 	C 	0.079	0.736	0.7733	-0.278
Mof_H 	H 	0.1021	0.6915	0.771	0.116
Mof_C 	C 	0.1039	0.6925	0.6958	0.004
Mof_H 	H 	0.1457	0.6914	0.71	0.025
Mof_C 	C 	0.9862	0.7346	0.6859	0.12
Mof_H 	H 	0.9464	0.7612	0.6938	0.016
Mof_C 	C 	0.5474	0.7446	0.53426	1.325
Mof_H 	H 	0.5166	0.7839	0.5311	-0.361
Mof_C 	C 	0.0452	0.7318	0.7077	-0.194
Mof_C 	C 	0.1637	0.6139	0.6503	0.149
Mof_C 	C 	0.1574	0.5487	0.6337	-0.257
Mof_H 	H 	0.1113	0.5299	0.6299	0.098
Mof_Al	Al	0.63138	0.59558	0.41927	6.044
Mof_O 	O 	0.6976	0.6697	0.4155	-1.485
Mof_O 	O 	0.4365	0.3405	0.3975	-1.433
Mof_O 	O 	0.7036	0.5346	0.43883	-1.424
Mof_O 	O 	0.5675	0.5217	0.42054	-2.151
Mof_O 	O 	0.6053	0.6277	0.46503	-2.114
Mof_O 	O 	0.8374	0.0696	0.12727	-1.407
Mof_O 	O 	0.9343	0.0204	0.15225	-1.227
Mof_O 	O 	0.7013	0.7328	0.46679	-1.414
Mof_O 	O 	0.533	0.4057	0.38396	-1.481
Mof_C 	C 	0.5383	0.2836	0.37403	-0.442
Mof_O 	O 	0.7377	0.5967	0.48835	-1.458
Mof_C 	C 	0.4996	0.3468	0.38607	1.11
Mof_C 	C 	0.7077	0.7936	0.41123	-0.411
Mof_C 	C 	0.8729	0.0447	0.15389	1.002
Mof_C 	C 	0.7093	0.8594	0.42802	0.265
Mof_H 	H 	0.712	0.8625	0.4536	-0.016
Mof_C 	C 	0.836	0.0455	0.18967	-0.351
Mof_C 	C 	0.7027	0.7275	0.43285	1.091
Mof_C 	C 	0.8681	0.0137	0.21933	0.11
Mof_H 	H 	0.9125	0.9906	0.2166	0.107
Mof_C 	C 	0.7044	0.7894	0.3737	0.274
Mof_H 	H 	0.7032	0.7445	0.3621	-0.043
Mof_C 	C 	0.7028	0.8512	0.35325	-0.26
Mof_H 	H 	0.7014	0.8481	0.3277	0.126
Mof_C 	C 	0.7698	0.077	0.19348	0.233
Mof_H 	H 	0.7474	0.0975	0.173	-0.031
Mof_C 	C 	0.6597	0.0413	0.3583	-0.154
Mof_H 	H 	0.6355	0.0395	0.3808	0.046
Mof_C 	C 	0.707	0.9208	0.4073	-0.243
Mof_H 	H 	0.708	0.9657	0.4188	0.151
Mof_C 	C 	0.6055	0.292	0.3582	0.255
Mof_H 	H 	0.6253	0.338	0.3555	-0.038
Mof_C 	C 	0.8355	0.0156	0.253	-0.386
Mof_H 	H 	0.8588	0.996	0.2734	0.247
Mof_C 	C 	0.6433	0.232	0.3464	-0.25
Mof_H 	H 	0.689	0.2376	0.3361	0.116
Mof_C 	C 	0.7674	0.0467	0.2569	0.221
Mof_C 	C 	0.6545	0.1015	0.3373	-0.036
Mof_C 	C 	0.7032	0.9169	0.36952	0.167
Mof_C 	C 	0.7	0.9828	0.3472	0.038
Mof_C 	C 	0.5093	0.2155	0.37778	0.254
Mof_H 	H 	0.4636	0.2093	0.388	-0.055
Mof_C 	C 	0.736	0.079	0.2267	-0.279
Mof_H 	H 	0.6915	0.1021	0.229	0.115
Mof_C 	C 	0.6925	0.1039	0.3042	0.005
Mof_H 	H 	0.6914	0.1457	0.29	0.025
Mof_C 	C 	0.7346	0.9862	0.3141	0.12
Mof_H 	H 	0.7612	0.9464	0.3062	0.016
Mof_C 	C 	0.7446	0.5474	0.46574	1.325
Mof_H 	H 	0.7839	0.5166	0.4689	-0.361
Mof_C 	C 	0.7318	0.0452	0.2923	-0.194
Mof_C 	C 	0.6139	0.1637	0.3497	0.149
Mof_C 	C 	0.5487	0.1574	0.3663	-0.257
Mof_H 	H 	0.5299	0.1113	0.3701	0.098
Mof_Al	Al	0.36862	0.40442	0.41927	6.04
Mof_O 	O 	0.3024	0.3303	0.4155	-1.495
Mof_O 	O 	0.5635	0.6595	0.3975	-1.433
Mof_O 	O 	0.2964	0.4654	0.43883	-1.435
Mof_O 	O 	0.4325	0.4783	0.42054	-2.151
Mof_O 	O 	0.3947	0.3723	0.46503	-2.113
Mof_O 	O 	0.1626	0.9304	0.12727	-1.384
Mof_O 	O 	0.0657	0.9796	0.15225	-1.205
Mof_O 	O 	0.2987	0.2672	0.46679	-1.431
Mof_O 	O 	0.467	0.5943	0.38396	-1.482
Mof_C 	C 	0.4617	0.7164	0.37403	-0.45
Mof_O 	O 	0.2623	0.4033	0.48835	-1.473
Mof_C 	C 	0.5004	0.6532	0.38607	1.116
Mof_C 	C 	0.2923	0.2064	0.41123	-0.436
Mof_C 	C 	0.1271	0.9553	0.15389	1.037
Mof_C 	C 	0.2907	0.1406	0.42802	0.261
Mof_H 	H 	0.288	0.1375	0.4536	-0.052
Mof_C 	C 	0.164	0.9545	0.18967	-0.406
Mof_C 	C 	0.2973	0.2725	0.43285	1.088
Mof_C 	C 	0.1319	0.9863	0.21933	0.342
Mof_H 	H 	0.0875	0.0094	0.2166	-0.176
Mof_C 	C 	0.2956	0.2106	0.3737	0.274
Mof_H 	H 	0.2968	0.2555	0.3621	-0.056
Mof_C 	C 	0.2972	0.1488	0.35325	-0.291
Mof_H 	H 	0.2986	0.1519	0.3277	0.114
Mof_C 	C 	0.2302	0.923	0.19348	0.224
Mof_H 	H 	0.2526	0.9025	0.173	-0.013
Mof_C 	C 	0.3403	0.9587	0.3583	0.109
Mof_H 	H 	0.3645	0.9605	0.3808	0.028
Mof_C 	C 	0.293	0.0792	0.4073	-0.287
Mof_H 	H 	0.292	0.0343	0.4188	0.09
Mof_C 	C 	0.3945	0.708	0.3582	0.269
Mof_H 	H 	0.3747	0.662	0.3555	-0.046
Mof_C 	C 	0.1645	0.9844	0.253	-0.058
Mof_H 	H 	0.1412	0.004	0.2734	-0.045
Mof_C 	C 	0.3567	0.768	0.3464	-0.263
Mof_H 	H 	0.311	0.7624	0.3361	0.118
Mof_C 	C 	0.2326	0.9533	0.2569	0.051
Mof_C 	C 	0.3455	0.8985	0.3373	-0.056
Mof_C 	C 	0.2968	0.0831	0.36952	0.174
Mof_C 	C 	0.3	0.0172	0.3472	-0.134
Mof_C 	C 	0.4907	0.7845	0.37778	0.279
Mof_H 	H 	0.5364	0.7907	0.388	-0.053
Mof_C 	C 	0.264	0.921	0.2267	-0.189
Mof_H 	H 	0.3085	0.8979	0.229	0.102
Mof_C 	C 	0.3075	0.8961	0.3042	-0.071
Mof_H 	H 	0.3086	0.8543	0.29	0.054
Mof_C 	C 	0.2654	0.0138	0.3141	-0.188
Mof_H 	H 	0.2388	0.0536	0.3062	0.062
Mof_C 	C 	0.2554	0.4526	0.46574	1.328
Mof_H 	H 	0.2161	0.4834	0.4689	-0.385
Mof_C 	C 	0.2682	0.9548	0.2923	0.132
Mof_C 	C 	0.3861	0.8363	0.3497	0.183
Mof_C 	C 	0.4513	0.8426	0.3663	-0.273
Mof_H 	H 	0.4701	0.8887	0.3701	0.138
Mof_Al	Al	0.09558	0.86862	0.91927	5.959
Mof_O 	O 	0.1697	0.8024	0.9155	-1.463
Mof_O 	O 	0.8405	0.0635	0.8975	-1.321
Mof_O 	O 	0.0346	0.7964	0.93883	-1.421
Mof_O 	O 	0.0217	0.9325	0.92054	-1.887
Mof_O 	O 	0.1277	0.8947	0.96503	-2.017
Mof_O 	O 	0.5696	0.6626	0.62727	-1.456
Mof_O 	O 	0.5204	0.5657	0.65225	-1.496
Mof_O 	O 	0.2328	0.7987	0.96679	-1.335
Mof_O 	O 	0.9057	0.967	0.88396	-1.03
Mof_C 	C 	0.7836	0.9617	0.87403	-0.304
Mof_O 	O 	0.0967	0.7623	0.98835	-1.387
Mof_C 	C 	0.8468	0.0004	0.88607	0.786
Mof_C 	C 	0.2936	0.7923	0.91123	-0.404
Mof_C 	C 	0.5447	0.6271	0.65389	1.138
Mof_C 	C 	0.3594	0.7907	0.92802	0.257
Mof_H 	H 	0.3625	0.788	0.9536	-0.016
Mof_C 	C 	0.5455	0.664	0.68967	-0.428
Mof_C 	C 	0.2275	0.7973	0.93285	1.059
Mof_C 	C 	0.5137	0.6319	0.71933	0.259
Mof_H 	H 	0.4906	0.5875	0.7166	-0.041
Mof_C 	C 	0.2894	0.7956	0.8737	0.267
Mof_H 	H 	0.2445	0.7968	0.8621	-0.042
Mof_C 	C 	0.3512	0.7972	0.85325	-0.264
Mof_H 	H 	0.3481	0.7986	0.8277	0.125
Mof_C 	C 	0.577	0.7302	0.69348	0.266
Mof_H 	H 	0.5975	0.7526	0.673	-0.025
Mof_C 	C 	0.5413	0.8403	0.8583	-0.019
Mof_H 	H 	0.5395	0.8645	0.8808	0.052
Mof_C 	C 	0.4208	0.793	0.9073	-0.252
Mof_H 	H 	0.4657	0.792	0.9188	0.132
Mof_C 	C 	0.792	0.8945	0.8582	0.209
Mof_H 	H 	0.838	0.8747	0.8555	0.005
Mof_C 	C 	0.5156	0.6645	0.753	-0.254
Mof_H 	H 	0.496	0.6412	0.7734	0.116
Mof_C 	C 	0.732	0.8567	0.8464	-0.228
Mof_H 	H 	0.7376	0.811	0.8361	0.122
Mof_C 	C 	0.5467	0.7326	0.7569	0.161
Mof_C 	C 	0.6015	0.8455	0.8373	-0.044
Mof_C 	C 	0.4169	0.7968	0.86952	0.173
Mof_C 	C 	0.4828	0.8	0.8472	-0.04
Mof_C 	C 	0.7155	0.9907	0.87778	0.429
Mof_H 	H 	0.7093	0.0364	0.888	-0.167
Mof_C 	C 	0.579	0.764	0.7267	-0.256
Mof_H 	H 	0.6021	0.8085	0.729	0.13
Mof_C 	C 	0.6039	0.8075	0.8042	-0.021
Mof_H 	H 	0.6457	0.8086	0.79	0.045
Mof_C 	C 	0.4862	0.7654	0.8141	-0.022
Mof_H 	H 	0.4464	0.7388	0.8062	0.038
Mof_C 	C 	0.0474	0.7554	0.96574	1.289
Mof_H 	H 	0.0166	0.7161	0.9689	-0.373
Mof_C 	C 	0.5452	0.7682	0.7923	-0.04
Mof_C 	C 	0.6637	0.8861	0.8497	0.193
Mof_C 	C 	0.6574	0.9513	0.8663	-0.325
Mof_H 	H 	0.6113	0.9701	0.8701	0.174
Mof_Al	Al	0.90442	0.13138	0.91927	5.858
Mof_O 	O 	0.8303	0.1976	0.9155	-1.443
Mof_O 	O 	0.1595	0.9365	0.8975	-1.415
Mof_O 	O 	0.9654	0.2036	0.93883	-1.362
Mof_O 	O 	0.9783	0.0675	0.92054	-1.848
Mof_O 	O 	0.8723	0.1053	0.96503	-2.014
Mof_O 	O 	0.4304	0.3374	0.62727	-1.463
Mof_O 	O 	0.4796	0.4343	0.65225	-1.496
Mof_O 	O 	0.7672	0.2013	0.96679	-1.335
Mof_O 	O 	0.0943	0.033	0.88396	-1.385
Mof_C 	C 	0.2164	0.0383	0.87403	-0.501
Mof_O 	O 	0.9033	0.2377	0.98835	-1.358
Mof_C 	C 	0.1532	0.9996	0.88607	1.249
Mof_C 	C 	0.7064	0.2077	0.91123	-0.399
Mof_C 	C 	0.4553	0.3729	0.65389	1.136
Mof_C 	C 	0.6406	0.2093	0.92802	0.244
Mof_H 	H 	0.6375	0.212	0.9536	-0.023
Mof_C 	C 	0.4545	0.336	0.68967	-0.431
Mof_C 	C 	0.7725	0.2027	0.93285	1.05
Mof_C 	C 	0.4863	0.3681	0.71933	0.254
Mof_H 	H 	0.5094	0.4125	0.7166	-0.039
Mof_C 	C 	0.7106	0.2044	0.8737	0.256
Mof_H 	H 	0.7555	0.2032	0.8621	-0.045
Mof_C 	C 	0.6488	0.2028	0.85325	-0.265
Mof_H 	H 	0.6519	0.2014	0.8277	0.11
Mof_C 	C 	0.423	0.2698	0.69348	0.256
Mof_H 	H 	0.4025	0.2474	0.673	-0.04
Mof_C 	C 	0.4587	0.1597	0.8583	-0.041
Mof_H 	H 	0.4605	0.1355	0.8808	0.033
Mof_C 	C 	0.5792	0.207	0.9073	-0.252
Mof_H 	H 	0.5343	0.208	0.9188	0.115
Mof_C 	C 	0.208	0.1055	0.8582	0.252
Mof_H 	H 	0.162	0.1253	0.8555	-0.067
Mof_C 	C 	0.4844	0.3355	0.753	-0.254
Mof_H 	H 	0.504	0.3588	0.7734	0.115
Mof_C 	C 	0.268	0.1433	0.8464	-0.238
Mof_H 	H 	0.2624	0.189	0.8361	0.1
Mof_C 	C 	0.4533	0.2674	0.7569	0.148
Mof_C 	C 	0.3985	0.1545	0.8373	-0.033
Mof_C 	C 	0.5831	0.2032	0.86952	0.156
Mof_C 	C 	0.5172	0.2	0.8472	-0.045
Mof_C 	C 	0.2845	0.0093	0.87778	0.041
Mof_H 	H 	0.2907	0.9636	0.888	0.093
Mof_C 	C 	0.421	0.236	0.7267	-0.259
Mof_H 	H 	0.3979	0.1915	0.729	0.103
Mof_C 	C 	0.3961	0.1925	0.8042	-0.043
Mof_H 	H 	0.3543	0.1914	0.79	0.033
Mof_C 	C 	0.5138	0.2346	0.8141	-0.034
Mof_H 	H 	0.5536	0.2612	0.8062	0.038
Mof_C 	C 	0.9526	0.2446	0.96574	1.27
Mof_H 	H 	0.9834	0.2839	0.9689	-0.319
Mof_C 	C 	0.4548	0.2318	0.7923	-0.043
Mof_C 	C 	0.3363	0.1139	0.8497	0.107
Mof_C 	C 	0.3426	0.0487	0.8663	-0.158
Mof_H 	H 	0.3887	0.0299	0.8701	0.051
Mof_Al	Al	0.83462	0.16538	-0	5.622
Mof_Al	Al	0.16538	0.83462	-0	5.622
Mof_Al	Al	0.33462	0.33462	0.5	5.953
Mof_Al	Al	0.66538	0.66538	0.5	5.958
Mof_Al	Al	-1.07002e-33	0	0.11447	4.716
Mof_Al	Al	0.5	0.5	0.61447	6.16
Mof_Al	Al	0.5	0.5	0.38553	6.16
Mof_Al	Al	6.51501e-33	0	0.88553	4.715
_end
