# CIF file generated by openbabel 3.1.0, see https://openbabel.org
data_I
_chemical_name_common 'image0'
_cell_length_a 8.2508
_cell_length_b 8.2508
_cell_length_c 18.745
_cell_angle_alpha 90
_cell_angle_beta 90
_cell_angle_gamma 120
_space_group_name_H-M_alt 'P 1'
_space_group_name_Hall 'P 1'
loop_
    _symmetry_equiv_pos_as_xyz
    x,y,z
loop_
    _atom_site_label
    _atom_site_type_symbol
    _atom_site_fract_x
    _atom_site_fract_y
    _atom_site_fract_z
    _atom_site_occupancy
    S1       S        0.34540    0.16300    0.42850    1.000
    C1       C        0.33020    0.32360    0.38050    1.000
    N1       N        0.32570    0.43310    0.34520    1.000
    S2       S        0.83700    0.18240    0.42850    1.000
    C2       C        0.67640    0.00660    0.38050    1.000
    N2       N        0.56690    0.89260    0.34520    1.000
    S3       S        0.81760    0.65460    0.42850    1.000
    C3       C        0.99340    0.66980    0.38050    1.000
    N3       N        0.10740    0.67430    0.34520    1.000
    S4       S        0.65460    0.83700    0.92850    1.000
    C4       C        0.66980    0.67640    0.88050    1.000
    N4       N        0.67430    0.56690    0.84520    1.000
    S5       S        0.16300    0.81760    0.92850    1.000
    C5       C        0.32360    0.99340    0.88050    1.000
    N5       N        0.43310    0.10740    0.84520    1.000
    S6       S        0.18240    0.34540    0.92850    1.000
    C6       C        0.00660    0.33020    0.88050    1.000
    N6       N        0.89260    0.32570    0.84520    1.000
    S7       S        0.65460    0.83700    0.57150    1.000
    C7       C        0.66980    0.67640    0.61950    1.000
    N7       N        0.67430    0.56690    0.65480    1.000
    S8       S        0.16300    0.81760    0.57150    1.000
    C8       C        0.32360    0.99340    0.61950    1.000
    N8       N        0.43310    0.10740    0.65480    1.000
    S9       S        0.18240    0.34540    0.57150    1.000
    C9       C        0.00660    0.33020    0.61950    1.000
    N9       N        0.89260    0.32570    0.65480    1.000
    S10      S        0.34540    0.16300    0.07150    1.000
    C10      C        0.33020    0.32360    0.11950    1.000
    N10      N        0.32570    0.43310    0.15480    1.000
    S11      S        0.83700    0.18240    0.07150    1.000
    C11      C        0.67640    0.00660    0.11950    1.000
    N11      N        0.56690    0.89260    0.15480    1.000
    S12      S        0.81760    0.65460    0.07150    1.000
    C12      C        0.99340    0.66980    0.11950    1.000
    N12      N        0.10740    0.67430    0.15480    1.000
    Bi1      Bi       0.00000    0.00000    0.50000    1.000
    Bi2      Bi       0.00000    0.00000    0.00000    1.000
    La1      La       0.33333    0.66667    0.25000    1.000
    La2      La       0.66667    0.33333    0.75000    1.000
