# CIF file generated by openbabel 3.1.0, see https://openbabel.org
data_I
_chemical_name_common 'image0'
_cell_length_a 13.873
_cell_length_b 13.873
_cell_length_c 18.455
_cell_angle_alpha 90
_cell_angle_beta 90
_cell_angle_gamma 120
_space_group_name_H-M_alt 'P 1'
_space_group_name_Hall 'P 1'
loop_
    _symmetry_equiv_pos_as_xyz
    x,y,z
loop_
    _atom_site_label
    _atom_site_type_symbol
    _atom_site_fract_x
    _atom_site_fract_y
    _atom_site_fract_z
    _atom_site_occupancy
    O1       O        0.34890    0.48790    0.33630    1.000
    C1       C        0.39660    0.42540    0.46610    1.000
    H1       H        0.32870    0.37770    0.44420    1.000
    O2       O        0.51210    0.86100    0.33630    1.000
    C2       C        0.57460    0.97120    0.46610    1.000
    H2       H        0.62230    0.95100    0.44420    1.000
    O3       O        0.13900    0.65110    0.33630    1.000
    C3       C        0.02880    0.60340    0.46610    1.000
    H3       H        0.04900    0.67130    0.44420    1.000
    O4       O        0.65110    0.51210    0.83630    1.000
    C4       C        0.60340    0.57460    0.96610    1.000
    H4       H        0.67130    0.62230    0.94420    1.000
    O5       O        0.48790    0.13900    0.83630    1.000
    C5       C        0.42540    0.02880    0.96610    1.000
    H5       H        0.37770    0.04900    0.94420    1.000
    O6       O        0.86100    0.34890    0.83630    1.000
    C6       C        0.97120    0.39660    0.96610    1.000
    H6       H        0.95100    0.32870    0.94420    1.000
    O7       O        0.48790    0.34890    0.66370    1.000
    C7       C        0.42540    0.39660    0.53390    1.000
    H7       H        0.37770    0.32870    0.55580    1.000
    O8       O        0.86100    0.51210    0.66370    1.000
    C8       C        0.97120    0.57460    0.53390    1.000
    H8       H        0.95100    0.62230    0.55580    1.000
    O9       O        0.65110    0.13900    0.66370    1.000
    C9       C        0.60340    0.02880    0.53390    1.000
    H9       H        0.67130    0.04900    0.55580    1.000
    O10      O        0.51210    0.65110    0.16370    1.000
    C10      C        0.57460    0.60340    0.03390    1.000
    H10      H        0.62230    0.67130    0.05580    1.000
    O11      O        0.13900    0.48790    0.16370    1.000
    C11      C        0.02880    0.42540    0.03390    1.000
    H11      H        0.04900    0.37770    0.05580    1.000
    O12      O        0.34890    0.86100    0.16370    1.000
    C12      C        0.39660    0.97120    0.03390    1.000
    H12      H        0.32870    0.95100    0.05580    1.000
    O13      O        0.65110    0.51210    0.66370    1.000
    C13      C        0.60340    0.57460    0.53390    1.000
    H13      H        0.67130    0.62230    0.55580    1.000
    O14      O        0.48790    0.13900    0.66370    1.000
    C14      C        0.42540    0.02880    0.53390    1.000
    H14      H        0.37770    0.04900    0.55580    1.000
    O15      O        0.86100    0.34890    0.66370    1.000
    C15      C        0.97120    0.39660    0.53390    1.000
    H15      H        0.95100    0.32870    0.55580    1.000
    O16      O        0.34890    0.48790    0.16370    1.000
    C16      C        0.39660    0.42540    0.03390    1.000
    H16      H        0.32870    0.37770    0.05580    1.000
    O17      O        0.51210    0.86100    0.16370    1.000
    C17      C        0.57460    0.97120    0.03390    1.000
    H17      H        0.62230    0.95100    0.05580    1.000
    O18      O        0.13900    0.65110    0.16370    1.000
    C18      C        0.02880    0.60340    0.03390    1.000
    H18      H        0.04900    0.67130    0.05580    1.000
    O19      O        0.51210    0.65110    0.33630    1.000
    C19      C        0.57460    0.60340    0.46610    1.000
    H19      H        0.62230    0.67130    0.44420    1.000
    O20      O        0.13900    0.48790    0.33630    1.000
    C20      C        0.02880    0.42540    0.46610    1.000
    H20      H        0.04900    0.37770    0.44420    1.000
    O21      O        0.34890    0.86100    0.33630    1.000
    C21      C        0.39660    0.97120    0.46610    1.000
    H21      H        0.32870    0.95100    0.44420    1.000
    O22      O        0.48790    0.34890    0.83630    1.000
    C22      C        0.42540    0.39660    0.96610    1.000
    H22      H        0.37770    0.32870    0.94420    1.000
    O23      O        0.86100    0.51210    0.83630    1.000
    C23      C        0.97120    0.57460    0.96610    1.000
    H23      H        0.95100    0.62230    0.94420    1.000
    O24      O        0.65110    0.13900    0.83630    1.000
    C24      C        0.60340    0.02880    0.96610    1.000
    H24      H        0.67130    0.04900    0.94420    1.000
    In1      In       0.24877    0.49754    0.25000    1.000
    N1       N        0.15830    0.31660    0.25000    1.000
    In2      In       0.50246    0.75123    0.25000    1.000
    N2       N        0.68340    0.84170    0.25000    1.000
    In3      In       0.24877    0.75123    0.25000    1.000
    N3       N        0.15830    0.84170    0.25000    1.000
    In4      In       0.75123    0.50246    0.75000    1.000
    N4       N        0.84170    0.68340    0.75000    1.000
    In5      In       0.49754    0.24877    0.75000    1.000
    N5       N        0.31660    0.15830    0.75000    1.000
    In6      In       0.75123    0.24877    0.75000    1.000
    N6       N        0.84170    0.15830    0.75000    1.000
    O25      O        0.33333    0.66667    0.25000    1.000
    O26      O        0.66667    0.33333    0.75000    1.000
    C25      C        0.12450    0.24900    0.19800    1.000
    N7       N        0.07400    0.14800    0.21330    1.000
    H25      H        0.13645    0.27290    0.15040    1.000
    C26      C        0.75100    0.87550    0.19800    1.000
    N8       N        0.85200    0.92600    0.21330    1.000
    H26      H        0.72710    0.86355    0.15040    1.000
    C27      C        0.12450    0.87550    0.19800    1.000
    N9       N        0.07400    0.92600    0.21330    1.000
    H27      H        0.13645    0.86355    0.15040    1.000
    C28      C        0.87550    0.75100    0.69800    1.000
    N10      N        0.92600    0.85200    0.71330    1.000
    H28      H        0.86355    0.72710    0.65040    1.000
    C29      C        0.24900    0.12450    0.69800    1.000
    N11      N        0.14800    0.07400    0.71330    1.000
    H29      H        0.27290    0.13645    0.65040    1.000
    C30      C        0.87550    0.12450    0.69800    1.000
    N12      N        0.92600    0.07400    0.71330    1.000
    H30      H        0.86355    0.13645    0.65040    1.000
    C31      C        0.24900    0.12450    0.80200    1.000
    N13      N        0.14800    0.07400    0.78670    1.000
    H31      H        0.27290    0.13645    0.84960    1.000
    C32      C        0.87550    0.75100    0.80200    1.000
    N14      N        0.92600    0.85200    0.78670    1.000
    H32      H        0.86355    0.72710    0.84960    1.000
    C33      C        0.87550    0.12450    0.80200    1.000
    N15      N        0.92600    0.07400    0.78670    1.000
    H33      H        0.86355    0.13645    0.84960    1.000
    C34      C        0.75100    0.87550    0.30200    1.000
    N16      N        0.85200    0.92600    0.28670    1.000
    H34      H        0.72710    0.86355    0.34960    1.000
    C35      C        0.12450    0.24900    0.30200    1.000
    N17      N        0.07400    0.14800    0.28670    1.000
    H35      H        0.13645    0.27290    0.34960    1.000
    C36      C        0.12450    0.87550    0.30200    1.000
    N18      N        0.07400    0.92600    0.28670    1.000
    H36      H        0.13645    0.86355    0.34960    1.000
    C37      C        0.44140    0.55860    0.36240    1.000
    C38      C        0.47270    0.52730    0.43280    1.000
    C39      C        0.44140    0.88280    0.36240    1.000
    C40      C        0.47270    0.94540    0.43280    1.000
    C41      C        0.11720    0.55860    0.36240    1.000
    C42      C        0.05460    0.52730    0.43280    1.000
    C43      C        0.55860    0.44140    0.86240    1.000
    C44      C        0.52730    0.47270    0.93280    1.000
    C45      C        0.55860    0.11720    0.86240    1.000
    C46      C        0.52730    0.05460    0.93280    1.000
    C47      C        0.88280    0.44140    0.86240    1.000
    C48      C        0.94540    0.47270    0.93280    1.000
    C49      C        0.55860    0.44140    0.63760    1.000
    C50      C        0.52730    0.47270    0.56720    1.000
    C51      C        0.88280    0.44140    0.63760    1.000
    C52      C        0.94540    0.47270    0.56720    1.000
    C53      C        0.55860    0.11720    0.63760    1.000
    C54      C        0.52730    0.05460    0.56720    1.000
    C55      C        0.44140    0.55860    0.13760    1.000
    C56      C        0.47270    0.52730    0.06720    1.000
    C57      C        0.11720    0.55860    0.13760    1.000
    C58      C        0.05460    0.52730    0.06720    1.000
    C59      C        0.44140    0.88280    0.13760    1.000
    C60      C        0.47270    0.94540    0.06720    1.000
    In7      In       0.00000    0.00000    0.13390    1.000
    In8      In       0.00000    0.00000    0.63390    1.000
    In9      In       0.00000    0.00000    0.86610    1.000
    In10     In       0.00000    0.00000    0.36610    1.000
