data_functionalizedCrystal
_audit_creation_method	'EQeq! by Chris Wilmer'
_symmetry_space_group_name_H-M	'P1'
_symmetry_Int_Tables_number	1
_symmetry_cell_setting	triclinic
loop_
_symmetry_equiv_pos_as_xyz
  x,y,z
_cell_length_a	14.081
_cell_length_b	14.413
_cell_length_c	16.42
_cell_angle_alpha	90
_cell_angle_beta	97.814
_cell_angle_gamma	90
loop_
_atom_site_label
_atom_site_type_symbol
_atom_site_fract_x
_atom_site_fract_y
_atom_site_fract_z
_atom_site_charge
Mof_I 	I 	0.10363	0.23849	0.54864	-0.441
Mof_Cu	Cu	0.24771	0.16115	0.48069	0.801
Mof_N 	N 	0.1885	0.1209	0.3651	-0.216
Mof_C 	C 	0.2447	0.0974	0.3096	-0
Mof_H 	H 	0.3119	0.0958	0.3266	0.014
Mof_C 	C 	0.2117	0.0751	0.2285	0.011
Mof_C 	C 	0.1122	0.0783	0.2041	-0.073
Mof_H 	H 	0.0858	0.0649	0.149	0.058
Mof_C 	C 	0.0536	0.1014	0.2616	0.009
Mof_C 	C 	0.0943	0.1238	0.3403	-0.005
Mof_H 	H 	0.0532	0.1421	0.3788	0.018
Mof_N 	N 	0.3034	0.9401	0.0595	-0.227
Mof_C 	C 	0.2476	0.9762	0.113	0.002
Mof_H 	H 	0.184	0.9537	0.111	0.016
Mof_C 	C 	0.2789	0.0444	0.1704	-0.011
Mof_C 	C 	0.3705	0.0779	0.1726	-0.023
Mof_H 	H 	0.3942	0.1247	0.2107	0.044
Mof_C 	C 	0.4274	0.0419	0.1183	-0.083
Mof_H 	H 	0.4909	0.0641	0.1182	0.06
Mof_C 	C 	0.3914	0.9736	0.0642	0.049
Mof_H 	H 	0.4323	0.9489	0.028	-0
Mof_I 	I 	0.60363	0.73849	0.54864	-0.442
Mof_Cu	Cu	0.74771	0.66115	0.48069	0.8
Mof_N 	N 	0.6885	0.6209	0.3651	-0.216
Mof_C 	C 	0.7447	0.5974	0.3096	0
Mof_H 	H 	0.8119	0.5958	0.3266	0.014
Mof_C 	C 	0.7117	0.5751	0.2285	0.011
Mof_C 	C 	0.6122	0.5783	0.2041	-0.072
Mof_H 	H 	0.5858	0.5649	0.149	0.058
Mof_C 	C 	0.5536	0.6014	0.2616	0.008
Mof_C 	C 	0.5943	0.6238	0.3403	-0.005
Mof_H 	H 	0.5532	0.6421	0.3788	0.018
Mof_N 	N 	0.8034	0.4401	0.0595	-0.227
Mof_C 	C 	0.7476	0.4762	0.113	0
Mof_H 	H 	0.684	0.4537	0.111	0.017
Mof_C 	C 	0.7789	0.5444	0.1704	-0.009
Mof_C 	C 	0.8705	0.5779	0.1726	-0.026
Mof_H 	H 	0.8942	0.6247	0.2107	0.044
Mof_C 	C 	0.9274	0.5419	0.1183	-0.079
Mof_H 	H 	0.9909	0.5641	0.1182	0.059
Mof_C 	C 	0.8914	0.4736	0.0642	0.046
Mof_H 	H 	0.9323	0.4489	0.028	-0
Mof_I 	I 	0.89637	0.23849	0.95136	-0.44
Mof_Cu	Cu	0.75229	0.16115	0.01931	0.799
Mof_N 	N 	0.8115	0.1209	0.1349	-0.216
Mof_C 	C 	0.7553	0.0974	0.1904	0
Mof_H 	H 	0.6881	0.0958	0.1734	0.014
Mof_C 	C 	0.7883	0.0751	0.2715	0.01
Mof_C 	C 	0.8878	0.0783	0.2959	-0.072
Mof_H 	H 	0.9142	0.0649	0.351	0.058
Mof_C 	C 	0.9464	0.1014	0.2384	0.007
Mof_C 	C 	0.9057	0.1238	0.1597	-0.004
Mof_H 	H 	0.9468	0.1421	0.1212	0.017
Mof_N 	N 	0.6966	0.9401	0.4405	-0.227
Mof_C 	C 	0.7524	0.9762	0.387	0.001
Mof_H 	H 	0.816	0.9537	0.389	0.016
Mof_C 	C 	0.7211	0.0444	0.3296	-0.009
Mof_C 	C 	0.6295	0.0779	0.3274	-0.025
Mof_H 	H 	0.6058	0.1247	0.2893	0.044
Mof_C 	C 	0.5726	0.0419	0.3817	-0.08
Mof_H 	H 	0.5091	0.0641	0.3818	0.06
Mof_C 	C 	0.6086	0.9736	0.4358	0.047
Mof_H 	H 	0.5677	0.9489	0.472	-0
Mof_I 	I 	0.39637	0.73849	0.95136	-0.442
Mof_Cu	Cu	0.25229	0.66115	0.01931	0.8
Mof_N 	N 	0.3115	0.6209	0.1349	-0.216
Mof_C 	C 	0.2553	0.5974	0.1904	0
Mof_H 	H 	0.1881	0.5958	0.1734	0.014
Mof_C 	C 	0.2883	0.5751	0.2715	0.011
Mof_C 	C 	0.3878	0.5783	0.2959	-0.072
Mof_H 	H 	0.4142	0.5649	0.351	0.058
Mof_C 	C 	0.4464	0.6014	0.2384	0.008
Mof_C 	C 	0.4057	0.6238	0.1597	-0.005
Mof_H 	H 	0.4468	0.6421	0.1212	0.018
Mof_N 	N 	0.1966	0.4401	0.4405	-0.227
Mof_C 	C 	0.2524	0.4762	0.387	0
Mof_H 	H 	0.316	0.4537	0.389	0.017
Mof_C 	C 	0.2211	0.5444	0.3296	-0.009
Mof_C 	C 	0.1295	0.5779	0.3274	-0.026
Mof_H 	H 	0.1058	0.6247	0.2893	0.044
Mof_C 	C 	0.0726	0.5419	0.3817	-0.079
Mof_H 	H 	0.0091	0.5641	0.3818	0.059
Mof_C 	C 	0.1086	0.4736	0.4358	0.046
Mof_H 	H 	0.0677	0.4489	0.472	-0
Mof_I 	I 	0.89637	0.76151	0.45136	-0.442
Mof_Cu	Cu	0.75229	0.83885	0.51931	0.8
Mof_N 	N 	0.8115	0.8791	0.6349	-0.216
Mof_C 	C 	0.7553	0.9026	0.6904	-0
Mof_H 	H 	0.6881	0.9042	0.6734	0.014
Mof_C 	C 	0.7883	0.9249	0.7715	0.011
Mof_C 	C 	0.8878	0.9217	0.7959	-0.073
Mof_H 	H 	0.9142	0.9351	0.851	0.058
Mof_C 	C 	0.9464	0.8986	0.7384	0.009
Mof_C 	C 	0.9057	0.8762	0.6597	-0.005
Mof_H 	H 	0.9468	0.8579	0.6212	0.018
Mof_N 	N 	0.6966	0.0599	0.9405	-0.227
Mof_C 	C 	0.7524	0.0238	0.887	0.002
Mof_H 	H 	0.816	0.0463	0.889	0.016
Mof_C 	C 	0.7211	0.9556	0.8296	-0.011
Mof_C 	C 	0.6295	0.9221	0.8274	-0.023
Mof_H 	H 	0.6058	0.8753	0.7893	0.044
Mof_C 	C 	0.5726	0.9581	0.8817	-0.083
Mof_H 	H 	0.5091	0.9359	0.8818	0.06
Mof_C 	C 	0.6086	0.0264	0.9358	0.049
Mof_H 	H 	0.5677	0.0511	0.972	-0
Mof_I 	I 	0.39637	0.26151	0.45136	-0.442
Mof_Cu	Cu	0.25229	0.33885	0.51931	0.8
Mof_N 	N 	0.3115	0.3791	0.6349	-0.216
Mof_C 	C 	0.2553	0.4026	0.6904	0
Mof_H 	H 	0.1881	0.4042	0.6734	0.014
Mof_C 	C 	0.2883	0.4249	0.7715	0.011
Mof_C 	C 	0.3878	0.4217	0.7959	-0.072
Mof_H 	H 	0.4142	0.4351	0.851	0.058
Mof_C 	C 	0.4464	0.3986	0.7384	0.008
Mof_C 	C 	0.4057	0.3762	0.6597	-0.005
Mof_H 	H 	0.4468	0.3579	0.6212	0.018
Mof_N 	N 	0.1966	0.5599	0.9405	-0.227
Mof_C 	C 	0.2524	0.5238	0.887	0
Mof_H 	H 	0.316	0.5463	0.889	0.017
Mof_C 	C 	0.2211	0.4556	0.8296	-0.009
Mof_C 	C 	0.1295	0.4221	0.8274	-0.026
Mof_H 	H 	0.1058	0.3753	0.7893	0.044
Mof_C 	C 	0.0726	0.4581	0.8817	-0.079
Mof_H 	H 	0.0091	0.4359	0.8818	0.059
Mof_C 	C 	0.1086	0.5264	0.9358	0.046
Mof_H 	H 	0.0677	0.5511	0.972	-0
Mof_I 	I 	0.10363	0.76151	0.04864	-0.44
Mof_Cu	Cu	0.24771	0.83885	0.98069	0.799
Mof_N 	N 	0.1885	0.8791	0.8651	-0.216
Mof_C 	C 	0.2447	0.9026	0.8096	0
Mof_H 	H 	0.3119	0.9042	0.8266	0.014
Mof_C 	C 	0.2117	0.9249	0.7285	0.01
Mof_C 	C 	0.1122	0.9217	0.7041	-0.072
Mof_H 	H 	0.0858	0.9351	0.649	0.058
Mof_C 	C 	0.0536	0.8986	0.7616	0.007
Mof_C 	C 	0.0943	0.8762	0.8403	-0.004
Mof_H 	H 	0.0532	0.8579	0.8788	0.017
Mof_N 	N 	0.3034	0.0599	0.5595	-0.227
Mof_C 	C 	0.2476	0.0238	0.613	0.001
Mof_H 	H 	0.184	0.0463	0.611	0.016
Mof_C 	C 	0.2789	0.9556	0.6704	-0.009
Mof_C 	C 	0.3705	0.9221	0.6726	-0.025
Mof_H 	H 	0.3942	0.8753	0.7107	0.044
Mof_C 	C 	0.4274	0.9581	0.6183	-0.08
Mof_H 	H 	0.4909	0.9359	0.6182	0.06
Mof_C 	C 	0.3914	0.0264	0.5642	0.047
Mof_H 	H 	0.4323	0.0511	0.528	-0
Mof_I 	I 	0.60363	0.26151	0.04864	-0.442
Mof_Cu	Cu	0.74771	0.33885	0.98069	0.8
Mof_N 	N 	0.6885	0.3791	0.8651	-0.216
Mof_C 	C 	0.7447	0.4026	0.8096	0
Mof_H 	H 	0.8119	0.4042	0.8266	0.014
Mof_C 	C 	0.7117	0.4249	0.7285	0.011
Mof_C 	C 	0.6122	0.4217	0.7041	-0.072
Mof_H 	H 	0.5858	0.4351	0.649	0.058
Mof_C 	C 	0.5536	0.3986	0.7616	0.008
Mof_C 	C 	0.5943	0.3762	0.8403	-0.005
Mof_H 	H 	0.5532	0.3579	0.8788	0.018
Mof_N 	N 	0.8034	0.5599	0.5595	-0.227
Mof_C 	C 	0.7476	0.5238	0.613	0
Mof_H 	H 	0.684	0.5463	0.611	0.017
Mof_C 	C 	0.7789	0.4556	0.6704	-0.009
Mof_C 	C 	0.8705	0.4221	0.6726	-0.026
Mof_H 	H 	0.8942	0.3753	0.7107	0.044
Mof_C 	C 	0.9274	0.4581	0.6183	-0.079
Mof_H 	H 	0.9909	0.4359	0.6182	0.059
Mof_C 	C 	0.8914	0.5264	0.5642	0.046
Mof_H 	H 	0.9323	0.5511	0.528	-0
_end
