data_functionalizedCrystal
_audit_creation_method	'EQeq! by Chris Wilmer'
_symmetry_space_group_name_H-M	'P1'
_symmetry_Int_Tables_number	1
_symmetry_cell_setting	triclinic
loop_
_symmetry_equiv_pos_as_xyz
  x,y,z
_cell_length_a	12.236
_cell_length_b	27.179
_cell_length_c	12.467
_cell_angle_alpha	90
_cell_angle_beta	109.754
_cell_angle_gamma	90
loop_
_atom_site_label
_atom_site_type_symbol
_atom_site_fract_x
_atom_site_fract_y
_atom_site_fract_z
_atom_site_charge
Mof_Cd	Cd	0.90407	0.10873	0.09917	0.494
Mof_C 	C 	0.9175	0.2064	0.1038	0.319
Mof_C 	C 	0.9456	0.2605	0.1139	-0.099
Mof_C 	C 	0.0164	0.2796	0.2161	0.034
Mof_H 	H 	0.042	0.2588	0.2789	0.039
Mof_C 	C 	0.0518	0.3292	0.2295	-0.11
Mof_H 	H 	0.0987	0.3413	0.2998	0.09
Mof_C 	C 	0.0149	0.3588	0.1362	0.043
Mof_H 	H 	0.0385	0.3915	0.1417	0.017
Mof_C 	C 	0.943	0.3406	0.0337	-0.135
Mof_H 	H 	0.9172	0.3617	0.9714	0.087
Mof_C 	C 	0.9074	0.2915	0.0202	0.069
Mof_C 	C 	0.6624	0.4096	0.6112	0.328
Mof_C 	C 	0.7806	0.3879	0.6417	-0.095
Mof_C 	C 	0.8217	0.3514	0.7253	0.059
Mof_C 	C 	0.9359	0.333	0.7485	-0.09
Mof_H 	H 	0.9627	0.3083	0.8025	0.076
Mof_C 	C 	0.0078	0.3507	0.6938	-0.001
Mof_H 	H 	0.0825	0.3382	0.7107	0.045
Mof_C 	C 	0.9677	0.3874	0.6131	-0.064
Mof_H 	H 	0.0152	0.4	0.5751	0.068
Mof_C 	C 	0.8563	0.4051	0.5897	0.018
Mof_H 	H 	0.8309	0.43	0.5358	0.048
Mof_C 	C 	0.7452	0.5632	0.5924	0.325
Mof_C 	C 	0.8135	0.5331	0.6943	-0.117
Mof_C 	C 	0.7564	0.5138	0.7622	0.048
Mof_H 	H 	0.6779	0.521	0.7447	0.043
Mof_C 	C 	0.8089	0.4848	0.8538	-0.113
Mof_H 	H 	0.7681	0.4728	0.8991	0.079
Mof_C 	C 	0.9247	0.4736	0.8775	0.044
Mof_H 	H 	0.9625	0.4538	0.9399	0.02
Mof_C 	C 	0.9842	0.4911	0.8113	-0.121
Mof_H 	H 	0.0622	0.483	0.8287	0.077
Mof_C 	C 	0.9291	0.5211	0.7169	0.079
Mof_C 	C 	0.2579	0.5309	0.7825	0.07
Mof_C 	C 	0.2341	0.5651	0.8553	-0.11
Mof_H 	H 	0.1572	0.5731	0.8448	0.073
Mof_C 	C 	0.3211	0.5872	0.9418	0.024
Mof_H 	H 	0.3032	0.6098	0.9894	0.034
Mof_C 	C 	0.4342	0.5757	0.9576	-0.077
Mof_H 	H 	0.4934	0.5905	0.0164	0.067
Mof_C 	C 	0.4612	0.543	0.8884	0.032
Mof_H 	H 	0.5386	0.5357	0.8999	0.035
Mof_C 	C 	0.3741	0.5202	0.8003	-0.103
Mof_C 	C 	0.4065	0.4838	0.7249	0.337
Mof_O 	O 	0.9105	0.1844	0.1895	-0.266
Mof_O 	O 	0.9111	0.1856	0.0143	-0.271
Mof_O 	O 	0.7968	0.5896	0.544	-0.268
Mof_O 	O 	0.6347	0.5609	0.5592	-0.3
Mof_O 	O 	0.4747	0.4971	0.6765	-0.284
Mof_O 	O 	0.3632	0.4416	0.7176	-0.286
Mof_O 	O 	0.5977	0.3922	0.661	-0.279
Mof_O 	O 	0.6361	0.4431	0.5362	-0.278
Mof_S 	S 	0.1514	0.50155	0.667	-0.005
Mof_S 	S 	0.0067	0.54436	0.6299	-0.015
Mof_S 	S 	0.7284	0.32799	0.797	0.013
Mof_S 	S 	0.815	0.26829	0.8865	0.01
Mof_Cd	Cd	0.59593	0.60873	0.40083	0.499
Mof_C 	C 	0.5825	0.7064	0.3962	0.323
Mof_C 	C 	0.5544	0.7605	0.3861	-0.109
Mof_C 	C 	0.4836	0.7796	0.2839	0.048
Mof_H 	H 	0.458	0.7588	0.2211	0.035
Mof_C 	C 	0.4482	0.8292	0.2705	-0.117
Mof_H 	H 	0.4013	0.8413	0.2002	0.092
Mof_C 	C 	0.4851	0.8588	0.3638	0.05
Mof_H 	H 	0.4615	0.8915	0.3583	0.018
Mof_C 	C 	0.557	0.8406	0.4663	-0.129
Mof_H 	H 	0.5828	0.8617	0.5286	0.078
Mof_C 	C 	0.5926	0.7915	0.4798	0.078
Mof_C 	C 	0.8376	0.9096	0.8888	0.332
Mof_C 	C 	0.7194	0.8879	0.8583	-0.109
Mof_C 	C 	0.6783	0.8514	0.7747	0.074
Mof_C 	C 	0.5641	0.833	0.7515	-0.122
Mof_H 	H 	0.5373	0.8083	0.6975	0.084
Mof_C 	C 	0.4922	0.8507	0.8062	0.047
Mof_H 	H 	0.4175	0.8382	0.7893	0.03
Mof_C 	C 	0.5323	0.8874	0.8869	-0.111
Mof_H 	H 	0.4848	0.9	0.9249	0.092
Mof_C 	C 	0.6437	0.9051	0.9103	0.048
Mof_H 	H 	0.6691	0.93	0.9642	0.041
Mof_C 	C 	0.7548	0.0632	0.9076	0.315
Mof_C 	C 	0.6865	0.0331	0.8057	-0.096
Mof_C 	C 	0.7436	0.0138	0.7378	0.012
Mof_H 	H 	0.8221	0.021	0.7553	0.054
Mof_C 	C 	0.6911	0.9848	0.6462	-0.076
Mof_H 	H 	0.7319	0.9728	0.6009	0.066
Mof_C 	C 	0.5753	0.9736	0.6225	0.017
Mof_H 	H 	0.5375	0.9538	0.5601	0.026
Mof_C 	C 	0.5158	0.9911	0.6887	-0.099
Mof_H 	H 	0.4378	0.983	0.6713	0.074
Mof_C 	C 	0.5709	0.0211	0.7831	0.054
Mof_C 	C 	0.2421	0.0309	0.7175	0.081
Mof_C 	C 	0.2659	0.0651	0.6447	-0.131
Mof_H 	H 	0.3428	0.0731	0.6552	0.08
Mof_C 	C 	0.1789	0.0872	0.5582	0.051
Mof_H 	H 	0.1968	0.1098	0.5106	0.02
Mof_C 	C 	0.0658	0.0757	0.5424	-0.119
Mof_H 	H 	0.0066	0.0905	0.4836	0.085
Mof_C 	C 	0.0388	0.043	0.6116	0.048
Mof_H 	H 	0.9614	0.0357	0.6001	0.029
Mof_C 	C 	0.1259	0.0202	0.6997	-0.121
Mof_C 	C 	0.0935	0.9838	0.7751	0.347
Mof_O 	O 	0.5895	0.6844	0.3105	-0.268
Mof_O 	O 	0.5889	0.6856	0.4857	-0.268
Mof_O 	O 	0.7032	0.0896	0.956	-0.262
Mof_O 	O 	0.8653	0.0609	0.9408	-0.289
Mof_O 	O 	0.0253	0.9971	0.8235	-0.28
Mof_O 	O 	0.1368	0.9416	0.7824	-0.287
Mof_O 	O 	0.9023	0.8922	0.839	-0.277
Mof_O 	O 	0.8639	0.9431	0.9638	-0.268
Mof_S 	S 	0.3486	0.00155	0.833	-0.011
Mof_S 	S 	0.4933	0.04436	0.8701	-0
Mof_S 	S 	0.7716	0.82799	0.703	0.01
Mof_S 	S 	0.685	0.76829	0.6135	-0.001
Mof_Cd	Cd	0.09593	0.89127	0.90083	0.503
Mof_C 	C 	0.0825	0.7936	0.8962	0.326
Mof_C 	C 	0.0544	0.7395	0.8861	-0.118
Mof_C 	C 	0.9836	0.7204	0.7839	0.06
Mof_H 	H 	0.958	0.7412	0.7211	0.033
Mof_C 	C 	0.9482	0.6708	0.7705	-0.122
Mof_H 	H 	0.9013	0.6587	0.7002	0.096
Mof_C 	C 	0.9851	0.6412	0.8638	0.056
Mof_H 	H 	0.9615	0.6085	0.8583	0.019
Mof_C 	C 	0.057	0.6594	0.9663	-0.123
Mof_H 	H 	0.0828	0.6383	0.0286	0.069
Mof_C 	C 	0.0926	0.7085	0.9798	0.087
Mof_C 	C 	0.3376	0.5904	0.3888	0.34
Mof_C 	C 	0.2194	0.6121	0.3583	-0.128
Mof_C 	C 	0.1783	0.6486	0.2747	0.089
Mof_C 	C 	0.0641	0.667	0.2515	-0.155
Mof_H 	H 	0.0373	0.6917	0.1975	0.093
Mof_C 	C 	0.9922	0.6493	0.3062	0.091
Mof_H 	H 	0.9175	0.6618	0.2893	0.013
Mof_C 	C 	0.0323	0.6126	0.3869	-0.159
Mof_H 	H 	0.9848	0.6	0.4249	0.108
Mof_C 	C 	0.1437	0.5949	0.4103	0.077
Mof_H 	H 	0.1691	0.57	0.4642	0.027
Mof_C 	C 	0.2548	0.4368	0.4076	0.326
Mof_C 	C 	0.1865	0.4669	0.3057	-0.122
Mof_C 	C 	0.2436	0.4862	0.2378	0.056
Mof_H 	H 	0.3221	0.479	0.2553	0.039
Mof_C 	C 	0.1911	0.5152	0.1462	-0.129
Mof_H 	H 	0.2319	0.5272	0.1009	0.079
Mof_C 	C 	0.0753	0.5264	0.1225	0.061
Mof_H 	H 	0.0375	0.5462	0.0601	0.005
Mof_C 	C 	0.0158	0.5089	0.1887	-0.15
Mof_H 	H 	0.9378	0.517	0.1713	0.09
Mof_C 	C 	0.0709	0.4789	0.2831	0.08
Mof_C 	C 	0.7421	0.4691	0.2175	0.096
Mof_C 	C 	0.7659	0.4349	0.1447	-0.16
Mof_H 	H 	0.8428	0.4269	0.1552	0.09
Mof_C 	C 	0.6789	0.4128	0.0582	0.094
Mof_H 	H 	0.6968	0.3902	0.0106	0.002
Mof_C 	C 	0.5658	0.4243	0.0424	-0.181
Mof_H 	H 	0.5066	0.4095	0.9836	0.117
Mof_C 	C 	0.5388	0.457	0.1116	0.095
Mof_H 	H 	0.4614	0.4643	0.1001	0.008
Mof_C 	C 	0.6259	0.4798	0.1997	-0.137
Mof_C 	C 	0.5935	0.5162	0.2751	0.348
Mof_O 	O 	0.0895	0.8156	0.8105	-0.27
Mof_O 	O 	0.0889	0.8144	0.9857	-0.265
Mof_O 	O 	0.2032	0.4104	0.456	-0.27
Mof_O 	O 	0.3653	0.4391	0.4408	-0.301
Mof_O 	O 	0.5253	0.5029	0.3235	-0.288
Mof_O 	O 	0.6368	0.5584	0.2824	-0.29
Mof_O 	O 	0.4023	0.6078	0.339	-0.283
Mof_O 	O 	0.3639	0.5569	0.4638	-0.281
Mof_S 	S 	0.8486	0.49845	0.333	-0.011
Mof_S 	S 	0.9933	0.45564	0.3701	-0.002
Mof_S 	S 	0.2716	0.67201	0.203	0.004
Mof_S 	S 	0.185	0.73171	0.1135	-0.013
Mof_Cd	Cd	0.40407	0.39127	0.59917	0.498
Mof_C 	C 	0.4175	0.2936	0.6038	0.323
Mof_C 	C 	0.4456	0.2395	0.6139	-0.109
Mof_C 	C 	0.5164	0.2204	0.7161	0.049
Mof_H 	H 	0.542	0.2412	0.7789	0.037
Mof_C 	C 	0.5518	0.1708	0.7295	-0.117
Mof_H 	H 	0.5987	0.1587	0.7998	0.095
Mof_C 	C 	0.5149	0.1412	0.6362	0.052
Mof_H 	H 	0.5385	0.1085	0.6417	0.017
Mof_C 	C 	0.443	0.1594	0.5337	-0.13
Mof_H 	H 	0.4172	0.1383	0.4714	0.079
Mof_C 	C 	0.4074	0.2085	0.5202	0.079
Mof_C 	C 	0.1624	0.0904	0.1112	0.334
Mof_C 	C 	0.2806	0.1121	0.1417	-0.115
Mof_C 	C 	0.3217	0.1486	0.2253	0.075
Mof_C 	C 	0.4359	0.167	0.2485	-0.125
Mof_H 	H 	0.4627	0.1917	0.3025	0.085
Mof_C 	C 	0.5078	0.1493	0.1938	0.046
Mof_H 	H 	0.5825	0.1618	0.2107	0.028
Mof_C 	C 	0.4677	0.1126	0.1131	-0.115
Mof_H 	H 	0.5152	0.1	0.0751	0.086
Mof_C 	C 	0.3563	0.0949	0.0897	0.049
Mof_H 	H 	0.3309	0.07	0.0358	0.033
Mof_C 	C 	0.2452	0.9368	0.0924	0.334
Mof_C 	C 	0.3135	0.9669	0.1943	-0.142
Mof_C 	C 	0.2564	0.9862	0.2622	0.093
Mof_H 	H 	0.1779	0.979	0.2447	0.029
Mof_C 	C 	0.3089	0.0152	0.3538	-0.167
Mof_H 	H 	0.2681	0.0272	0.3991	0.093
Mof_C 	C 	0.4247	0.0264	0.3775	0.089
Mof_H 	H 	0.4625	0.0462	0.4399	-0.001
Mof_C 	C 	0.4842	0.0089	0.3113	-0.174
Mof_H 	H 	0.5622	0.017	0.3287	0.094
Mof_C 	C 	0.4291	0.9789	0.2169	0.106
Mof_C 	C 	0.7579	0.9691	0.2825	0.084
Mof_C 	C 	0.7341	0.9349	0.3553	-0.137
Mof_H 	H 	0.6572	0.9269	0.3448	0.083
Mof_C 	C 	0.8211	0.9128	0.4418	0.065
Mof_H 	H 	0.8032	0.8902	0.4894	0.016
Mof_C 	C 	0.9342	0.9243	0.4576	-0.136
Mof_H 	H 	0.9934	0.9095	0.5164	0.097
Mof_C 	C 	0.9612	0.957	0.3884	0.077
Mof_H 	H 	0.0386	0.9643	0.3999	0.016
Mof_C 	C 	0.8741	0.9798	0.3003	-0.116
Mof_C 	C 	0.9065	0.0162	0.2249	0.335
Mof_O 	O 	0.4105	0.3156	0.6895	-0.267
Mof_O 	O 	0.4111	0.3144	0.5143	-0.268
Mof_O 	O 	0.2968	0.9104	0.044	-0.276
Mof_O 	O 	0.1347	0.9391	0.0592	-0.304
Mof_O 	O 	0.9747	0.0029	0.1765	-0.285
Mof_O 	O 	0.8632	0.0584	0.2176	-0.288
Mof_O 	O 	0.0977	0.1078	0.161	-0.285
Mof_O 	O 	0.1361	0.0569	0.0362	-0.285
Mof_S 	S 	0.6514	0.99845	0.167	-0.004
Mof_S 	S 	0.5067	0.95564	0.1299	-0.017
Mof_S 	S 	0.2284	0.17201	0.297	0.006
Mof_S 	S 	0.315	0.23171	0.3865	-0.003
Mof_Cd	Cd	0.5	0.5	0.5	0.522
Mof_Cd	Cd	-0	0	-0	0.498
_end
