data_functionalizedCrystal
_audit_creation_method	'EQeq! by Chris Wilmer'
_symmetry_space_group_name_H-M	'P1'
_symmetry_Int_Tables_number	1
_symmetry_cell_setting	triclinic
loop_
_symmetry_equiv_pos_as_xyz
  x,y,z
_cell_length_a	11.335
_cell_length_b	12.152
_cell_length_c	23.319
_cell_angle_alpha	83.543
_cell_angle_beta	81.741
_cell_angle_gamma	71.112
loop_
_atom_site_label
_atom_site_type_symbol
_atom_site_fract_x
_atom_site_fract_y
_atom_site_fract_z
_atom_site_charge
Mof_W 	W 	0.08615	0.01098	0.23558	1.264
Mof_W 	W 	0.98687	0.15729	0.36891	1.037
Mof_W 	W 	0.98008	0.51458	0.25469	1.318
Mof_W 	W 	0.76239	0.42068	0.36972	1.045
Mof_W 	W 	0.68097	0.18445	0.3556	0.993
Mof_W 	W 	0.78609	0.03283	0.21918	1
Mof_W 	W 	0.96737	0.12952	0.11126	1.027
Mof_W 	W 	0.73909	0.42428	0.1083	1.022
Mof_W 	W 	0.64621	0.56719	0.23155	1.039
Mof_W 	W 	0.06895	0.38338	0.13301	1.384
Mof_W 	W 	0.55873	0.33143	0.21797	1.357
Mof_Cu	Cu	0.1078	0.744	0.25484	0.899
Mof_Cu	Cu	0.6925	0.6298	0.97174	0.848
Mof_Y 	Y 	0.2555	0.23653	0.2589	1.437
Mof_Si	Si	0.8688	0.2868	0.2377	2.145
Mof_O 	O 	0.1939	0.8692	0.2426	-0.492
Mof_O 	O 	0.9846	0.6547	0.2678	-0.507
Mof_O 	O 	0.1374	0.431	0.0657	-0.544
Mof_O 	O 	0.4082	0.3241	0.2197	-0.561
Mof_O 	O 	0.7445	0.3663	0.2088	-0.811
Mof_O 	O 	0.6533	0.3296	0.3917	-0.44
Mof_O 	O 	0.8935	0.2978	0.4051	-0.443
Mof_O 	O 	0.8226	0.113	0.3913	-0.432
Mof_O 	O 	0.6605	0.5035	0.3115	-0.469
Mof_O 	O 	0.7429	0.0712	0.298	-0.481
Mof_O 	O 	0.0162	0.0432	0.3126	-0.493
Mof_O 	O 	0.1012	0.2178	0.3311	-0.529
Mof_O 	O 	0.8037	0.5775	0.2297	-0.476
Mof_O 	O 	0.1337	0.4256	0.2688	-0.519
Mof_O 	O 	0.1832	0.0996	0.2315	-0.565
Mof_O 	O 	0.2061	0.3146	0.166	-0.535
Mof_O 	O 	0.0318	0.5206	0.1705	-0.481
Mof_O 	O 	0.8908	0.4446	0.1111	-0.475
Mof_O 	O 	0.6556	0.5634	0.1501	-0.452
Mof_O 	O 	0.822	0.2655	0.0988	-0.464
Mof_O 	O 	0.0894	0.0125	0.1516	-0.457
Mof_O 	O 	0.9379	0.9417	0.2373	-0.452
Mof_O 	O 	0.5166	0.491	0.2355	-0.458
Mof_O 	O 	0.8522	0.0428	0.138	-0.444
Mof_O 	O 	0.6532	0.1798	0.2004	-0.507
Mof_O 	O 	0.0507	0.2411	0.1155	-0.51
Mof_O 	O 	0.5819	0.2855	0.2966	-0.51
Mof_O 	O 	0.8942	0.4738	0.3247	-0.497
Mof_O 	O 	0.5884	0.3782	0.1368	-0.455
Mof_O 	O 	0.8361	0.2681	0.3079	-0.775
Mof_O 	O 	0.9154	0.1588	0.2117	-0.799
Mof_O 	O 	0.9773	0.3475	0.2209	-0.834
Mof_C 	C 	0.9986	0.7724	0.3738	-0.029
Mof_H 	H 	0.9272	0.769	0.3599	0.04
Mof_C 	C 	0.9919	0.7913	0.43	0.091
Mof_C 	C 	0.091	0.808	0.4548	-0.146
Mof_H 	H 	0.0836	0.8309	0.4922	0.078
Mof_C 	C 	0.2038	0.786	0.4164	0.083
Mof_C 	C 	0.203	0.7653	0.3599	-0.036
Mof_H 	H 	0.2774	0.7553	0.3353	0.027
Mof_C 	C 	0.763	0.886	0.4539	0.144
Mof_H 	H 	0.7521	0.9271	0.418	-0.036
Mof_C 	C 	0.719	0.8146	0.5345	0.032
Mof_H 	H 	0.6753	0.7984	0.5696	-0.041
Mof_C 	C 	0.848	0.761	0.5181	-0.041
Mof_H 	H 	0.9052	0.6999	0.5371	0.04
Mof_C 	C 	0.431	0.721	0.4283	-0.003
Mof_H 	H 	0.4541	0.6491	0.4127	0.017
Mof_C 	C 	0.507	0.768	0.4493	-0.023
Mof_H 	H 	0.5921	0.7308	0.4525	0.015
Mof_C 	C 	0.322	0.893	0.4555	0.086
Mof_H 	H 	0.254	0.9604	0.4623	-0.015
Mof_C 	C 	0.002	0.7524	0.1474	-0.023
Mof_H 	H 	0.9297	0.7545	0.1723	0.042
Mof_C 	C 	0.9983	0.7554	0.0893	0.109
Mof_C 	C 	0.1028	0.7517	0.0501	-0.157
Mof_H 	H 	0.1015	0.7528	0.0103	0.066
Mof_C 	C 	0.2117	0.7463	0.0745	0.083
Mof_C 	C 	0.2114	0.7417	0.1344	-0.023
Mof_H 	H 	0.2852	0.735	0.1495	0.03
Mof_C 	C 	0.4397	0.6762	0.0386	0.075
Mof_H 	H 	0.4624	0.6144	0.0664	-0.03
Mof_C 	C 	0.318	0.837	0.9922	-0.001
Mof_H 	H 	0.2532	0.9035	0.9823	0.028
Mof_C 	C 	0.443	0.7976	0.9663	0.007
Mof_H 	H 	0.4722	0.8321	0.9319	0.005
Mof_C 	C 	0.8726	0.6877	0.0309	0.121
Mof_H 	H 	0.939	0.6293	0.0135	-0.011
Mof_C 	C 	0.768	0.8357	0.0854	0.011
Mof_H 	H 	0.75	0.8948	0.1104	0.022
Mof_C 	C 	0.685	0.807	0.0577	-0.023
Mof_H 	H 	0.598	0.8416	0.061	0.029
Mof_N 	N 	0.1039	0.7583	0.3371	-0.195
Mof_N 	N 	0.8677	0.8245	0.4662	-0.15
Mof_N 	N 	0.6689	0.89	0.493	-0.264
Mof_N 	N 	0.3118	0.8001	0.4343	-0.144
Mof_N 	N 	0.4377	0.8817	0.4659	-0.228
Mof_N 	N 	0.1081	0.7466	0.1705	-0.188
Mof_N 	N 	0.3183	0.752	0.0358	-0.141
Mof_N 	N 	0.5187	0.7036	0.9962	-0.257
Mof_N 	N 	0.8854	0.7571	0.0677	-0.148
Mof_N 	N 	0.7567	0.7105	0.022	-0.237
Mof_W 	W 	0.91385	0.98902	0.76442	1.342
Mof_W 	W 	0.01313	0.84271	0.63109	1.054
Mof_W 	W 	0.01992	0.48542	0.74531	1.318
Mof_W 	W 	0.23761	0.57932	0.63028	1.044
Mof_W 	W 	0.31903	0.81555	0.6444	1.006
Mof_W 	W 	0.21391	0.96717	0.78082	1.064
Mof_W 	W 	0.03263	0.87048	0.88874	1.041
Mof_W 	W 	0.26091	0.57572	0.8917	1.023
Mof_W 	W 	0.35379	0.43281	0.76845	1.033
Mof_W 	W 	0.93105	0.61662	0.86699	1.385
Mof_W 	W 	0.44127	0.66857	0.78203	1.36
Mof_Cu	Cu	0.8922	0.256	0.74516	0.897
Mof_Cu	Cu	0.3075	0.3702	0.02826	0.847
Mof_Y 	Y 	0.7445	0.76347	0.7411	1.454
Mof_Si	Si	0.1312	0.7132	0.7623	2.149
Mof_O 	O 	0.8061	0.1308	0.7574	-0.531
Mof_O 	O 	0.0154	0.3453	0.7322	-0.509
Mof_O 	O 	0.8626	0.569	0.9343	-0.544
Mof_O 	O 	0.5918	0.6759	0.7803	-0.561
Mof_O 	O 	0.2555	0.6337	0.7912	-0.812
Mof_O 	O 	0.3467	0.6704	0.6083	-0.441
Mof_O 	O 	0.1065	0.7022	0.5949	-0.445
Mof_O 	O 	0.1774	0.887	0.6087	-0.421
Mof_O 	O 	0.3395	0.4965	0.6885	-0.469
Mof_O 	O 	0.2571	0.9288	0.702	-0.474
Mof_O 	O 	0.9838	0.9568	0.6874	-0.485
Mof_O 	O 	0.8988	0.7822	0.6689	-0.529
Mof_O 	O 	0.1963	0.4225	0.7703	-0.477
Mof_O 	O 	0.8663	0.5744	0.7312	-0.52
Mof_O 	O 	0.8168	0.9004	0.7685	-0.569
Mof_O 	O 	0.7939	0.6854	0.834	-0.535
Mof_O 	O 	0.9682	0.4794	0.8295	-0.48
Mof_O 	O 	0.1092	0.5554	0.8889	-0.475
Mof_O 	O 	0.3444	0.4366	0.8499	-0.453
Mof_O 	O 	0.178	0.7345	0.9012	-0.465
Mof_O 	O 	0.9106	0.9875	0.8484	-0.444
Mof_O 	O 	0.0621	0.0583	0.7627	-0.511
Mof_O 	O 	0.4834	0.509	0.7645	-0.459
Mof_O 	O 	0.1478	0.9572	0.862	-0.434
Mof_O 	O 	0.3468	0.8202	0.7996	-0.511
Mof_O 	O 	0.9493	0.7589	0.8845	-0.51
Mof_O 	O 	0.4181	0.7145	0.7034	-0.511
Mof_O 	O 	0.1058	0.5262	0.6753	-0.498
Mof_O 	O 	0.4116	0.6218	0.8632	-0.455
Mof_O 	O 	0.1639	0.7319	0.6921	-0.779
Mof_O 	O 	0.0846	0.8412	0.7883	-0.807
Mof_O 	O 	0.0227	0.6525	0.7791	-0.837
Mof_C 	C 	0.0014	0.2276	0.6262	-0.033
Mof_H 	H 	0.0728	0.231	0.6401	0.036
Mof_C 	C 	0.0081	0.2087	0.57	0.085
Mof_C 	C 	0.909	0.192	0.5452	-0.148
Mof_H 	H 	0.9164	0.1691	0.5078	0.073
Mof_C 	C 	0.7962	0.214	0.5836	0.078
Mof_C 	C 	0.797	0.2347	0.6401	-0.04
Mof_H 	H 	0.7226	0.2447	0.6647	0.025
Mof_C 	C 	0.237	0.114	0.5461	0.138
Mof_H 	H 	0.2479	0.0729	0.582	-0.052
Mof_C 	C 	0.281	0.1854	0.4655	0.027
Mof_H 	H 	0.3247	0.2016	0.4304	-0.045
Mof_C 	C 	0.152	0.239	0.4819	-0.044
Mof_H 	H 	0.0948	0.3001	0.4629	0.04
Mof_C 	C 	0.569	0.279	0.5717	-0.005
Mof_H 	H 	0.5459	0.3509	0.5873	0.017
Mof_C 	C 	0.493	0.232	0.5507	-0.026
Mof_H 	H 	0.4079	0.2692	0.5475	0.014
Mof_C 	C 	0.678	0.107	0.5445	0.081
Mof_H 	H 	0.746	0.0396	0.5377	-0.033
Mof_C 	C 	0.998	0.2476	0.8526	-0.025
Mof_H 	H 	0.0703	0.2455	0.8277	0.038
Mof_C 	C 	0.0017	0.2446	0.9107	0.102
Mof_C 	C 	0.8972	0.2483	0.9499	-0.158
Mof_H 	H 	0.8985	0.2472	0.9897	0.064
Mof_C 	C 	0.7883	0.2537	0.9255	0.078
Mof_C 	C 	0.7886	0.2583	0.8656	-0.028
Mof_H 	H 	0.7148	0.265	0.8505	0.028
Mof_C 	C 	0.5603	0.3238	0.9614	0.073
Mof_H 	H 	0.5376	0.3856	0.9336	-0.03
Mof_C 	C 	0.682	0.163	0.0078	-0.005
Mof_H 	H 	0.7468	0.0965	0.0177	0.016
Mof_C 	C 	0.557	0.2024	0.0337	0.004
Mof_H 	H 	0.5278	0.1679	0.0681	-0.001
Mof_C 	C 	0.1274	0.3123	0.9691	0.119
Mof_H 	H 	0.061	0.3707	0.9865	-0.01
Mof_C 	C 	0.232	0.1643	0.9146	0.008
Mof_H 	H 	0.25	0.1052	0.8896	0.005
Mof_C 	C 	0.315	0.193	0.9423	-0.029
Mof_H 	H 	0.402	0.1584	0.939	0.021
Mof_N 	N 	0.8961	0.2417	0.6629	-0.198
Mof_N 	N 	0.1323	0.1755	0.5338	-0.153
Mof_N 	N 	0.3311	0.11	0.507	-0.275
Mof_N 	N 	0.6882	0.1999	0.5657	-0.145
Mof_N 	N 	0.5623	0.1183	0.5341	-0.239
Mof_N 	N 	0.8919	0.2534	0.8295	-0.191
Mof_N 	N 	0.6817	0.248	0.9642	-0.142
Mof_N 	N 	0.4813	0.2964	0.0038	-0.257
Mof_N 	N 	0.1146	0.2429	0.9323	-0.15
Mof_N 	N 	0.2433	0.2895	0.978	-0.237
Mof_Cu	Cu	0.5	0	0.5	0.824
_end
