data_functionalizedCrystal
_audit_creation_method	'EQeq! by Chris Wilmer'
_symmetry_space_group_name_H-M	'P1'
_symmetry_Int_Tables_number	1
_symmetry_cell_setting	triclinic
loop_
_symmetry_equiv_pos_as_xyz
  x,y,z
_cell_length_a	50.641
_cell_length_b	11.353
_cell_length_c	17.5277
_cell_angle_alpha	90
_cell_angle_beta	90
_cell_angle_gamma	90
loop_
_atom_site_label
_atom_site_type_symbol
_atom_site_fract_x
_atom_site_fract_y
_atom_site_fract_z
_atom_site_charge
Mof_C 	C 	0.50982	0.5736	0.4218	0.539
Mof_C 	C 	0.4984	0.5329	0.349	-0.178
Mof_C 	C 	0.47391	0.5584	0.323	0.024
Mof_H 	H 	0.4618	0.6037	0.3498	0.019
Mof_C 	C 	0.46882	0.5084	0.2504	-0.01
Mof_H 	H 	0.4528	0.5152	0.2246	0.036
Mof_C 	C 	0.48986	0.45	0.2232	-0.155
Mof_C 	C 	0.49197	0.3873	0.1492	0.479
Mof_C 	C 	0.54932	0.8217	0.4155	0.469
Mof_C 	C 	0.54541	0.9051	0.3509	-0.16
Mof_C 	C 	0.52531	0.9812	0.3384	0.013
Mof_H 	H 	0.5111	0.9909	0.3714	-0.002
Mof_C 	C 	0.52835	0.0444	0.2691	-0
Mof_H 	H 	0.5164	0.101	0.2521	0.034
Mof_C 	C 	0.55012	0.0141	0.2307	-0.161
Mof_C 	C 	0.55838	0.0592	0.1554	0.486
Mof_C 	C 	0.54672	0.8567	0.6403	0.531
Mof_C 	C 	0.55611	0.9125	0.7117	-0.176
Mof_C 	C 	0.57947	0.8987	0.7467	0.043
Mof_H 	H 	0.5935	0.8573	0.7254	0.016
Mof_C 	C 	0.58061	0.953	0.8187	-0.03
Mof_H 	H 	0.5953	0.9499	0.8505	0.05
Mof_C 	C 	0.55825	0.0098	0.8365	-0.095
Mof_C 	C 	0.55167	0.0677	0.9108	0.419
Mof_C 	C 	0.60977	0.5307	0.4055	0.539
Mof_C 	C 	0.60469	0.4688	0.3321	-0.175
Mof_C 	C 	0.58258	0.4099	0.3118	0.027
Mof_H 	H 	0.5675	0.4072	0.342	0.021
Mof_C 	C 	0.58458	0.353	0.2407	-0.021
Mof_H 	H 	0.5712	0.308	0.2189	0.04
Mof_C 	C 	0.60868	0.3724	0.2079	-0.138
Mof_C 	C 	0.61928	0.3233	0.1359	0.426
Mof_C 	C 	0.60666	0.5178	0.6484	0.574
Mof_C 	C 	0.61444	0.4711	0.7241	-0.193
Mof_C 	C 	0.63749	0.4955	0.7598	0.053
Mof_H 	H 	0.65	0.5471	0.7403	0.015
Mof_C 	C 	0.6407	0.4351	0.8297	-0.028
Mof_H 	H 	0.6555	0.4427	0.8608	0.055
Mof_C 	C 	0.61988	0.365	0.8463	-0.097
Mof_C 	C 	0.61717	0.2864	0.9125	0.391
Mof_C 	C 	0.67244	0.8663	0.4128	0.515
Mof_C 	C 	0.66225	0.9184	0.3405	-0.162
Mof_C 	C 	0.63815	0.8956	0.3076	0.002
Mof_H 	H 	0.6252	0.8478	0.3292	0.027
Mof_C 	C 	0.6354	0.9543	0.2362	-0.002
Mof_H 	H 	0.6203	0.9503	0.2061	0.015
Mof_C 	C 	0.65713	0.0164	0.2172	-0.152
Mof_C 	C 	0.66185	0.0848	0.147	0.431
Mof_C 	C 	0.71263	0.579	0.6331	0.51
Mof_C 	C 	0.72292	0.531	0.7051	-0.169
Mof_C 	C 	0.74762	0.5407	0.7345	0.026
Mof_H 	H 	0.7614	0.5796	0.7102	0.026
Mof_C 	C 	0.74993	0.4848	0.806	-0.003
Mof_H 	H 	0.7657	0.4808	0.8333	0.048
Mof_C 	C 	0.72697	0.4378	0.8308	-0.124
Mof_C 	C 	0.72168	0.3843	0.9059	0.454
Mof_C 	C 	0.71438	0.6217	0.4109	0.484
Mof_C 	C 	0.71136	0.5418	0.3451	-0.169
Mof_C 	C 	0.69006	0.4726	0.3286	0.024
Mof_H 	H 	0.6752	0.467	0.3594	-0.007
Mof_C 	C 	0.69325	0.4107	0.2598	-0.015
Mof_H 	H 	0.6805	0.3607	0.2397	0.041
Mof_C 	C 	0.71684	0.4315	0.2257	-0.151
Mof_C 	C 	0.72519	0.3846	0.1497	0.492
Mof_C 	C 	0.65892	0.0417	0.9094	0.441
Mof_C 	C 	0.66887	0.9938	0.8353	-0.119
Mof_C 	C 	0.69291	0.014	0.8034	-0.007
Mof_H 	H 	0.7059	0.0607	0.8256	0.055
Mof_C 	C 	0.69598	0.9559	0.7327	0.028
Mof_H 	H 	0.7112	0.9601	0.7031	0.004
Mof_C 	C 	0.67407	0.8929	0.713	-0.176
Mof_C 	C 	0.6699	0.8208	0.6441	0.501
Mof_O 	O 	0.53325	0.5443	0.4377	-0.599
Mof_O 	O 	0.49499	0.6327	0.4631	-0.612
Mof_O 	O 	0.51225	0.3313	0.1362	-0.506
Mof_O 	O 	0.47258	0.3972	0.1044	-0.612
Mof_O 	O 	0.53135	0.8087	0.4633	-0.656
Mof_O 	O 	0.57047	0.7667	0.419	-0.564
Mof_O 	O 	0.54191	0.1155	0.1188	-0.564
Mof_O 	O 	0.58134	0.0357	0.1335	-0.526
Mof_O 	O 	0.52302	0.8687	0.6236	-0.571
Mof_O 	O 	0.56412	0.8013	0.6034	-0.63
Mof_O 	O 	0.53168	0.1325	0.9138	-0.391
Mof_O 	O 	0.56664	0.0429	0.9651	-0.384
Mof_O 	O 	0.59183	0.5223	0.4547	-0.639
Mof_O 	O 	0.63149	0.5805	0.4141	-0.588
Mof_O 	O 	0.60283	0.2661	0.095	-0.522
Mof_O 	O 	0.64318	0.3335	0.1217	-0.492
Mof_O 	O 	0.58293	0.528	0.6308	-0.592
Mof_O 	O 	0.62556	0.5457	0.6069	-0.649
Mof_O 	O 	0.60941	0.7449	0.527	-1.086
Mof_O 	O 	0.63634	0.2705	0.9567	-0.391
Mof_O 	O 	0.65616	0.812	0.4531	-0.593
Mof_O 	O 	0.69624	0.8849	0.4277	-0.58
Mof_O 	O 	0.64435	0.0847	0.0955	-0.601
Mof_O 	O 	0.68289	0.1412	0.1396	-0.471
Mof_O 	O 	0.68851	0.5638	0.6186	-0.571
Mof_O 	O 	0.72878	0.6352	0.5921	-0.587
Mof_O 	O 	0.70062	0.3311	0.9164	-0.403
Mof_O 	O 	0.73959	0.3975	0.9549	-0.394
Mof_O 	O 	0.69528	0.6341	0.456	-0.682
Mof_O 	O 	0.73588	0.6752	0.4188	-0.528
Mof_O 	O 	0.74867	0.3744	0.1352	-0.536
Mof_O 	O 	0.70631	0.364	0.1054	-0.584
Mof_O 	O 	0.63543	0.0204	0.9264	-0.399
Mof_O 	O 	0.67542	0.0966	0.9487	-0.361
Mof_O 	O 	0.64815	0.7705	0.6357	-0.541
Mof_O 	O 	0.68805	0.8121	0.5962	-0.691
Mof_O 	O 	0.59536	0.2354	0.9226	-0.341
Mof_S 	S 	0.51568	0.45045	0.28513	0.074
Mof_S 	S 	0.5682	0.91082	0.27918	0.056
Mof_S 	S 	0.53567	0.9978	0.76596	0.066
Mof_S 	S 	0.62841	0.45927	0.26319	0.051
Mof_S 	S 	0.59585	0.37457	0.77758	0.085
Mof_S 	S 	0.68129	0.00787	0.28514	0.065
Mof_S 	S 	0.70246	0.45482	0.76513	0.082
Mof_S 	S 	0.73564	0.52752	0.27782	0.055
Mof_S 	S 	0.64963	0.90612	0.77962	0.091
Mof_Sm	Sm	0.48878	0.80639	0.53242	2.299
Mof_Sm	Sm	0.56289	0.63535	0.52552	2.669
Mof_Sm	Sm	0.65578	0.63578	0.52706	2.497
Mof_Sm	Sm	0.72684	0.8147	0.52368	2.382
Mof_Sm	Sm	0.60602	0.08937	0.02228	1.581
Mof_Sm	Sm	0.67665	0.26712	0.02754	1.568
Mof_H 	H 	0.6118	0.776	0.57	0.417
Mof_H 	H 	0.6089	0.795	0.492	0.433
Mof_C 	C 	0.49018	0.4264	0.9218	0.441
Mof_C 	C 	0.5016	0.4671	0.849	-0.112
Mof_C 	C 	0.52609	0.4416	0.823	-0.017
Mof_H 	H 	0.5382	0.3963	0.8498	0.062
Mof_C 	C 	0.53118	0.4916	0.7504	0.041
Mof_H 	H 	0.5472	0.4848	0.7246	0.025
Mof_C 	C 	0.51014	0.55	0.7232	-0.181
Mof_C 	C 	0.50803	0.6127	0.6492	0.551
Mof_C 	C 	0.45068	0.1783	0.9155	0.398
Mof_C 	C 	0.45459	0.0949	0.8509	-0.101
Mof_C 	C 	0.47469	0.0188	0.8384	-0.015
Mof_H 	H 	0.4889	0.0091	0.8714	0.053
Mof_C 	C 	0.47165	0.9556	0.7691	0.044
Mof_H 	H 	0.4836	0.899	0.7521	0.02
Mof_C 	C 	0.44988	0.9859	0.7307	-0.202
Mof_C 	C 	0.44162	0.9408	0.6554	0.574
Mof_C 	C 	0.45328	0.1433	0.1403	0.456
Mof_C 	C 	0.44389	0.0875	0.2117	-0.153
Mof_C 	C 	0.42053	0.1013	0.2467	-0.018
Mof_H 	H 	0.4065	0.1427	0.2254	0.027
Mof_C 	C 	0.41939	0.047	0.3187	0.038
Mof_H 	H 	0.4047	0.0501	0.3505	-0.007
Mof_C 	C 	0.44175	0.9902	0.3365	-0.184
Mof_C 	C 	0.44833	0.9323	0.4108	0.519
Mof_C 	C 	0.39023	0.4693	0.9055	0.451
Mof_C 	C 	0.39531	0.5312	0.8321	-0.117
Mof_C 	C 	0.41742	0.5901	0.8118	-0.008
Mof_H 	H 	0.4325	0.5928	0.842	0.057
Mof_C 	C 	0.41542	0.647	0.7407	0.024
Mof_H 	H 	0.4288	0.692	0.7189	0.029
Mof_C 	C 	0.39132	0.6276	0.7079	-0.16
Mof_C 	C 	0.38072	0.6767	0.6359	0.492
Mof_C 	C 	0.39334	0.4822	0.1484	0.493
Mof_C 	C 	0.38556	0.5289	0.2241	-0.161
Mof_C 	C 	0.36251	0.5045	0.2598	-0.005
Mof_H 	H 	0.35	0.4529	0.2403	0.034
Mof_C 	C 	0.3593	0.5649	0.3297	0.014
Mof_H 	H 	0.3445	0.5573	0.3608	-0.001
Mof_C 	C 	0.38012	0.635	0.3463	-0.163
Mof_C 	C 	0.38283	0.7136	0.4125	0.464
Mof_C 	C 	0.32756	0.1337	0.9128	0.429
Mof_C 	C 	0.33775	0.0816	0.8405	-0.099
Mof_C 	C 	0.36185	0.1044	0.8076	-0.035
Mof_H 	H 	0.3748	0.1522	0.8292	0.051
Mof_C 	C 	0.3646	0.0457	0.7362	0.056
Mof_H 	H 	0.3797	0.0497	0.7061	-0.002
Mof_C 	C 	0.34287	0.9836	0.7172	-0.187
Mof_C 	C 	0.33815	0.9152	0.647	0.496
Mof_C 	C 	0.28737	0.421	0.1331	0.444
Mof_C 	C 	0.27708	0.469	0.2051	-0.147
Mof_C 	C 	0.25238	0.4593	0.2345	-0.022
Mof_H 	H 	0.2386	0.4204	0.2102	0.034
Mof_C 	C 	0.25007	0.5152	0.306	0.036
Mof_H 	H 	0.2343	0.5192	0.3333	0.009
Mof_C 	C 	0.27303	0.5622	0.3308	-0.19
Mof_C 	C 	0.27832	0.6157	0.4059	0.554
Mof_C 	C 	0.28562	0.3783	0.9109	0.411
Mof_C 	C 	0.28864	0.4582	0.8451	-0.104
Mof_C 	C 	0.30994	0.5274	0.8286	-0.02
Mof_H 	H 	0.3248	0.533	0.8594	0.048
Mof_C 	C 	0.30675	0.5893	0.7598	0.045
Mof_H 	H 	0.3195	0.6393	0.7397	0.021
Mof_C 	C 	0.28316	0.5685	0.7257	-0.185
Mof_C 	C 	0.27481	0.6154	0.6497	0.578
Mof_C 	C 	0.34108	0.9583	0.4094	0.516
Mof_C 	C 	0.33113	0.0062	0.3353	-0.148
Mof_C 	C 	0.30709	0.986	0.3034	-0.014
Mof_H 	H 	0.2941	0.9393	0.3256	0.034
Mof_C 	C 	0.30402	0.0441	0.2327	0.01
Mof_H 	H 	0.2888	0.0399	0.2031	0.009
Mof_C 	C 	0.32593	0.1071	0.213	-0.162
Mof_C 	C 	0.3301	0.1792	0.1441	0.443
Mof_O 	O 	0.46675	0.4557	0.9377	-0.398
Mof_O 	O 	0.50501	0.3673	0.9631	-0.367
Mof_O 	O 	0.48775	0.6687	0.6362	-0.565
Mof_O 	O 	0.52742	0.6028	0.6044	-0.674
Mof_O 	O 	0.46865	0.1913	0.9633	-0.396
Mof_O 	O 	0.42953	0.2333	0.919	-0.402
Mof_O 	O 	0.45809	0.8845	0.6188	-0.639
Mof_O 	O 	0.41866	0.9643	0.6335	-0.602
Mof_O 	O 	0.47698	0.1313	0.1236	-0.516
Mof_O 	O 	0.43588	0.1987	0.1034	-0.576
Mof_O 	O 	0.46832	0.8675	0.4138	-0.575
Mof_O 	O 	0.43336	0.9571	0.4651	-0.665
Mof_O 	O 	0.40817	0.4777	0.9547	-0.382
Mof_O 	O 	0.36851	0.4195	0.9141	-0.401
Mof_O 	O 	0.39717	0.7339	0.595	-0.566
Mof_O 	O 	0.35682	0.6665	0.6217	-0.545
Mof_O 	O 	0.41707	0.472	0.1308	-0.528
Mof_O 	O 	0.37444	0.4543	0.1069	-0.573
Mof_O 	O 	0.39059	0.2551	0.027	-1.502
Mof_O 	O 	0.36366	0.7295	0.4567	-0.657
Mof_O 	O 	0.34384	0.188	0.9531	-0.381
Mof_O 	O 	0.30376	0.1151	0.9277	-0.382
Mof_O 	O 	0.35565	0.9153	0.5955	-0.681
Mof_O 	O 	0.31711	0.8588	0.6396	-0.53
Mof_O 	O 	0.31149	0.4362	0.1186	-0.522
Mof_O 	O 	0.27122	0.3648	0.0921	-0.544
Mof_O 	O 	0.29938	0.6689	0.4164	-0.598
Mof_O 	O 	0.26041	0.6025	0.4549	-0.659
Mof_O 	O 	0.30472	0.3659	0.956	-0.42
Mof_O 	O 	0.26412	0.3248	0.9188	-0.351
Mof_O 	O 	0.25133	0.6256	0.6352	-0.611
Mof_O 	O 	0.29369	0.636	0.6054	-0.65
Mof_O 	O 	0.36457	0.9796	0.4264	-0.607
Mof_O 	O 	0.32458	0.9034	0.4487	-0.588
Mof_O 	O 	0.35185	0.2295	0.1357	-0.496
Mof_O 	O 	0.31195	0.1879	0.0962	-0.618
Mof_O 	O 	0.40464	0.7646	0.4226	-0.519
Mof_S 	S 	0.48432	0.54955	0.78513	0.099
Mof_S 	S 	0.4318	0.08918	0.77918	0.087
Mof_S 	S 	0.46433	0.0022	0.26596	0.062
Mof_S 	S 	0.37159	0.54073	0.76319	0.072
Mof_S 	S 	0.40415	0.62543	0.27758	0.052
Mof_S 	S 	0.31871	0.99213	0.78514	0.084
Mof_S 	S 	0.29754	0.54518	0.26513	0.06
Mof_S 	S 	0.26436	0.47248	0.77782	0.086
Mof_S 	S 	0.35037	0.09388	0.27962	0.058
Mof_Sm	Sm	0.51122	0.19361	0.03242	1.54
Mof_Sm	Sm	0.43711	0.36465	0.02552	1.889
Mof_Sm	Sm	0.34422	0.36422	0.02706	1.784
Mof_Sm	Sm	0.27316	0.1853	0.02368	1.592
Mof_Sm	Sm	0.39398	0.91063	0.52228	2.393
Mof_Sm	Sm	0.32335	0.73288	0.52754	2.313
Mof_H 	H 	0.3882	0.224	0.07	0.543
Mof_H 	H 	0.3911	0.205	0.992	0.781
Mof_C 	C 	0.00982	0.9264	0.4218	0.539
Mof_C 	C 	0.9984	0.9671	0.349	-0.182
Mof_C 	C 	0.97391	0.9416	0.323	0.026
Mof_H 	H 	0.9618	0.8963	0.3498	0.018
Mof_C 	C 	0.96882	0.9916	0.2504	-0.014
Mof_H 	H 	0.9528	0.9848	0.2246	0.037
Mof_C 	C 	0.98986	0.05	0.2232	-0.153
Mof_C 	C 	0.99197	0.1127	0.1492	0.478
Mof_C 	C 	0.04932	0.6783	0.4155	0.469
Mof_C 	C 	0.04541	0.5949	0.3509	-0.161
Mof_C 	C 	0.02531	0.5188	0.3384	0.017
Mof_H 	H 	0.0111	0.5091	0.3714	-0.003
Mof_C 	C 	0.02835	0.4556	0.2691	-0.004
Mof_H 	H 	0.0164	0.399	0.2521	0.035
Mof_C 	C 	0.05012	0.4859	0.2307	-0.162
Mof_C 	C 	0.05838	0.4408	0.1554	0.485
Mof_C 	C 	0.04672	0.6433	0.6403	0.531
Mof_C 	C 	0.05611	0.5875	0.7117	-0.176
Mof_C 	C 	0.07947	0.6013	0.7467	0.037
Mof_H 	H 	0.0935	0.6427	0.7254	0.018
Mof_C 	C 	0.08061	0.547	0.8187	-0.015
Mof_H 	H 	0.0953	0.5501	0.8505	0.046
Mof_C 	C 	0.05825	0.4902	0.8365	-0.11
Mof_C 	C 	0.05167	0.4323	0.9108	0.423
Mof_C 	C 	0.10977	0.9693	0.4055	0.534
Mof_C 	C 	0.10469	0.0312	0.3321	-0.17
Mof_C 	C 	0.08258	0.0901	0.3118	0.024
Mof_H 	H 	0.0675	0.0928	0.342	0.023
Mof_C 	C 	0.08458	0.147	0.2407	-0.02
Mof_H 	H 	0.0712	0.192	0.2189	0.039
Mof_C 	C 	0.10868	0.1276	0.2079	-0.139
Mof_C 	C 	0.11928	0.1767	0.1359	0.426
Mof_C 	C 	0.10666	0.9822	0.6484	0.569
Mof_C 	C 	0.11444	0.0289	0.7241	-0.192
Mof_C 	C 	0.13749	0.0045	0.7598	0.069
Mof_H 	H 	0.15	0.9529	0.7403	0.004
Mof_C 	C 	0.1407	0.0649	0.8297	-0.036
Mof_H 	H 	0.1555	0.0573	0.8608	0.059
Mof_C 	C 	0.11988	0.135	0.8463	-0.094
Mof_C 	C 	0.11717	0.2136	0.9125	0.39
Mof_C 	C 	0.17244	0.6337	0.4128	0.515
Mof_C 	C 	0.16225	0.5816	0.3405	-0.161
Mof_C 	C 	0.13815	0.6044	0.3076	0.001
Mof_H 	H 	0.1252	0.6522	0.3292	0.027
Mof_C 	C 	0.1354	0.5457	0.2362	-0.001
Mof_H 	H 	0.1203	0.5497	0.2061	0.015
Mof_C 	C 	0.15713	0.4836	0.2172	-0.152
Mof_C 	C 	0.16185	0.4152	0.147	0.431
Mof_C 	C 	0.21263	0.921	0.6331	0.51
Mof_C 	C 	0.22292	0.969	0.7051	-0.172
Mof_C 	C 	0.24762	0.9593	0.7345	0.012
Mof_H 	H 	0.2614	0.9204	0.7102	0.029
Mof_C 	C 	0.24993	0.0152	0.806	0.012
Mof_H 	H 	0.2657	0.0192	0.8333	0.045
Mof_C 	C 	0.22697	0.0622	0.8308	-0.129
Mof_C 	C 	0.22168	0.1157	0.9059	0.456
Mof_C 	C 	0.21438	0.8783	0.4109	0.486
Mof_C 	C 	0.21136	0.9582	0.3451	-0.176
Mof_C 	C 	0.19006	0.0274	0.3286	0.033
Mof_H 	H 	0.1752	0.033	0.3594	-0.009
Mof_C 	C 	0.19325	0.0893	0.2598	-0.02
Mof_H 	H 	0.1805	0.1393	0.2397	0.043
Mof_C 	C 	0.21684	0.0685	0.2257	-0.145
Mof_C 	C 	0.22519	0.1154	0.1497	0.49
Mof_C 	C 	0.15892	0.4583	0.9094	0.432
Mof_C 	C 	0.16887	0.5062	0.8353	-0.102
Mof_C 	C 	0.19291	0.486	0.8034	-0.029
Mof_H 	H 	0.2059	0.4393	0.8256	0.062
Mof_C 	C 	0.19598	0.5441	0.7327	0.043
Mof_H 	H 	0.2112	0.5399	0.7031	-0
Mof_C 	C 	0.17407	0.6071	0.713	-0.181
Mof_C 	C 	0.1699	0.6792	0.6441	0.503
Mof_O 	O 	0.03325	0.9557	0.4377	-0.6
Mof_O 	O 	0.99499	0.8673	0.4631	-0.613
Mof_O 	O 	0.01225	0.1687	0.1362	-0.506
Mof_O 	O 	0.97258	0.1028	0.1044	-0.612
Mof_O 	O 	0.03135	0.6913	0.4633	-0.655
Mof_O 	O 	0.07047	0.7333	0.419	-0.564
Mof_O 	O 	0.04191	0.3845	0.1188	-0.564
Mof_O 	O 	0.08134	0.4643	0.1335	-0.526
Mof_O 	O 	0.02302	0.6313	0.6236	-0.57
Mof_O 	O 	0.06412	0.6987	0.6034	-0.629
Mof_O 	O 	0.03168	0.3675	0.9138	-0.393
Mof_O 	O 	0.06664	0.4571	0.9651	-0.386
Mof_O 	O 	0.09183	0.9777	0.4547	-0.639
Mof_O 	O 	0.13149	0.9195	0.4141	-0.587
Mof_O 	O 	0.10283	0.2339	0.095	-0.521
Mof_O 	O 	0.14318	0.1665	0.1217	-0.492
Mof_O 	O 	0.08293	0.972	0.6308	-0.593
Mof_O 	O 	0.12556	0.9543	0.6069	-0.649
Mof_O 	O 	0.10941	0.7551	0.527	-1.086
Mof_O 	O 	0.13634	0.2295	0.9567	-0.391
Mof_O 	O 	0.15616	0.688	0.4531	-0.592
Mof_O 	O 	0.19624	0.6151	0.4277	-0.58
Mof_O 	O 	0.14435	0.4153	0.0955	-0.601
Mof_O 	O 	0.18289	0.3588	0.1396	-0.471
Mof_O 	O 	0.18851	0.9362	0.6186	-0.573
Mof_O 	O 	0.22878	0.8648	0.5921	-0.587
Mof_O 	O 	0.20062	0.1689	0.9164	-0.404
Mof_O 	O 	0.23959	0.1025	0.9549	-0.394
Mof_O 	O 	0.19528	0.8659	0.456	-0.683
Mof_O 	O 	0.23588	0.8248	0.4188	-0.529
Mof_O 	O 	0.24867	0.1256	0.1352	-0.535
Mof_O 	O 	0.20631	0.136	0.1054	-0.583
Mof_O 	O 	0.13543	0.4796	0.9264	-0.398
Mof_O 	O 	0.17542	0.4034	0.9487	-0.359
Mof_O 	O 	0.14815	0.7295	0.6357	-0.541
Mof_O 	O 	0.18805	0.6879	0.5962	-0.691
Mof_O 	O 	0.09536	0.2646	0.9226	-0.341
Mof_S 	S 	0.01568	0.04955	0.28513	0.077
Mof_S 	S 	0.0682	0.58918	0.27918	0.057
Mof_S 	S 	0.03567	0.5022	0.76596	0.078
Mof_S 	S 	0.12841	0.04073	0.26319	0.052
Mof_S 	S 	0.09585	0.12543	0.77758	0.085
Mof_S 	S 	0.18129	0.49213	0.28514	0.063
Mof_S 	S 	0.20246	0.04518	0.76513	0.09
Mof_S 	S 	0.23564	0.97248	0.27782	0.051
Mof_S 	S 	0.14963	0.59388	0.77962	0.09
Mof_Sm	Sm	0.98878	0.69361	0.53242	2.301
Mof_Sm	Sm	0.06289	0.86465	0.52552	2.666
Mof_Sm	Sm	0.15578	0.86422	0.52706	2.493
Mof_Sm	Sm	0.22684	0.6853	0.52368	2.383
Mof_Sm	Sm	0.10602	0.41063	0.02228	1.579
Mof_Sm	Sm	0.17665	0.23288	0.02754	1.568
Mof_H 	H 	0.1118	0.724	0.57	0.417
Mof_H 	H 	0.1089	0.705	0.492	0.434
Mof_C 	C 	0.99018	0.0736	0.9218	0.438
Mof_C 	C 	0.0016	0.0329	0.849	-0.104
Mof_C 	C 	0.02609	0.0584	0.823	-0.024
Mof_H 	H 	0.0382	0.1037	0.8498	0.065
Mof_C 	C 	0.03118	0.0084	0.7504	0.053
Mof_H 	H 	0.0472	0.0152	0.7246	0.022
Mof_C 	C 	0.01014	0.95	0.7232	-0.19
Mof_C 	C 	0.00803	0.8873	0.6492	0.554
Mof_C 	C 	0.95068	0.3217	0.9155	0.396
Mof_C 	C 	0.95459	0.4051	0.8509	-0.097
Mof_C 	C 	0.97469	0.4812	0.8384	-0.028
Mof_H 	H 	0.9889	0.4909	0.8714	0.056
Mof_C 	C 	0.97165	0.5444	0.7691	0.056
Mof_H 	H 	0.9836	0.601	0.7521	0.017
Mof_C 	C 	0.94988	0.5141	0.7307	-0.199
Mof_C 	C 	0.94162	0.5592	0.6554	0.574
Mof_C 	C 	0.95328	0.3567	0.1403	0.457
Mof_C 	C 	0.94389	0.4125	0.2117	-0.153
Mof_C 	C 	0.92053	0.3987	0.2467	-0.015
Mof_H 	H 	0.9065	0.3573	0.2254	0.026
Mof_C 	C 	0.91939	0.453	0.3187	0.03
Mof_H 	H 	0.9047	0.4499	0.3505	-0.006
Mof_C 	C 	0.94175	0.5098	0.3365	-0.176
Mof_C 	C 	0.94833	0.5677	0.4108	0.517
Mof_C 	C 	0.89023	0.0307	0.9055	0.457
Mof_C 	C 	0.89531	0.9688	0.8321	-0.125
Mof_C 	C 	0.91742	0.9099	0.8118	-0.004
Mof_H 	H 	0.9325	0.9072	0.842	0.054
Mof_C 	C 	0.91542	0.853	0.7407	0.021
Mof_H 	H 	0.9288	0.808	0.7189	0.03
Mof_C 	C 	0.89132	0.8724	0.7079	-0.159
Mof_C 	C 	0.88072	0.8233	0.6359	0.492
Mof_C 	C 	0.89334	0.0178	0.1484	0.493
Mof_C 	C 	0.88556	0.9711	0.2241	-0.161
Mof_C 	C 	0.86251	0.9955	0.2598	-0.005
Mof_H 	H 	0.85	0.0471	0.2403	0.034
Mof_C 	C 	0.8593	0.9351	0.3297	0.015
Mof_H 	H 	0.8445	0.9427	0.3608	-0.001
Mof_C 	C 	0.88012	0.865	0.3463	-0.163
Mof_C 	C 	0.88283	0.7864	0.4125	0.464
Mof_C 	C 	0.82756	0.3663	0.9128	0.432
Mof_C 	C 	0.83775	0.4184	0.8405	-0.11
Mof_C 	C 	0.86185	0.3956	0.8076	-0.026
Mof_H 	H 	0.8748	0.3478	0.8292	0.048
Mof_C 	C 	0.8646	0.4543	0.7362	0.04
Mof_H 	H 	0.8797	0.4503	0.7061	0.002
Mof_C 	C 	0.84287	0.5164	0.7172	-0.177
Mof_C 	C 	0.83815	0.5848	0.647	0.493
Mof_C 	C 	0.78737	0.079	0.1331	0.444
Mof_C 	C 	0.77708	0.031	0.2051	-0.147
Mof_C 	C 	0.75238	0.0407	0.2345	-0.021
Mof_H 	H 	0.7386	0.0796	0.2102	0.034
Mof_C 	C 	0.75007	0.9848	0.306	0.036
Mof_H 	H 	0.7343	0.9808	0.3333	0.009
Mof_C 	C 	0.77303	0.9378	0.3308	-0.19
Mof_C 	C 	0.77832	0.8843	0.4059	0.554
Mof_C 	C 	0.78562	0.1217	0.9109	0.409
Mof_C 	C 	0.78864	0.0418	0.8451	-0.097
Mof_C 	C 	0.80994	0.9726	0.8286	-0.031
Mof_H 	H 	0.8248	0.967	0.8594	0.05
Mof_C 	C 	0.80675	0.9107	0.7598	0.051
Mof_H 	H 	0.8195	0.8607	0.7397	0.019
Mof_C 	C 	0.78316	0.9315	0.7257	-0.191
Mof_C 	C 	0.77481	0.8846	0.6497	0.579
Mof_C 	C 	0.84108	0.5417	0.4094	0.524
Mof_C 	C 	0.83113	0.4938	0.3353	-0.162
Mof_C 	C 	0.80709	0.514	0.3034	0.005
Mof_H 	H 	0.7941	0.5607	0.3256	0.028
Mof_C 	C 	0.80402	0.4559	0.2327	-0.003
Mof_H 	H 	0.7888	0.4601	0.2031	0.012
Mof_C 	C 	0.82593	0.3929	0.213	-0.158
Mof_C 	C 	0.8301	0.3208	0.1441	0.44
Mof_O 	O 	0.96675	0.0443	0.9377	-0.396
Mof_O 	O 	0.00501	0.1327	0.9631	-0.366
Mof_O 	O 	0.98775	0.8313	0.6362	-0.566
Mof_O 	O 	0.02742	0.8972	0.6044	-0.676
Mof_O 	O 	0.96865	0.3087	0.9633	-0.396
Mof_O 	O 	0.92953	0.2667	0.919	-0.402
Mof_O 	O 	0.95809	0.6155	0.6188	-0.639
Mof_O 	O 	0.91866	0.5357	0.6335	-0.6
Mof_O 	O 	0.97698	0.3687	0.1236	-0.516
Mof_O 	O 	0.93588	0.3013	0.1034	-0.577
Mof_O 	O 	0.96832	0.6325	0.4138	-0.574
Mof_O 	O 	0.93336	0.5429	0.4651	-0.664
Mof_O 	O 	0.90817	0.0223	0.9547	-0.383
Mof_O 	O 	0.86851	0.0805	0.9141	-0.402
Mof_O 	O 	0.89717	0.7661	0.595	-0.566
Mof_O 	O 	0.85682	0.8335	0.6217	-0.545
Mof_O 	O 	0.91707	0.028	0.1308	-0.527
Mof_O 	O 	0.87444	0.0457	0.1069	-0.573
Mof_O 	O 	0.89059	0.2449	0.027	-1.502
Mof_O 	O 	0.86366	0.7705	0.4567	-0.657
Mof_O 	O 	0.84384	0.312	0.9531	-0.382
Mof_O 	O 	0.80376	0.3849	0.9277	-0.385
Mof_O 	O 	0.85565	0.5847	0.5955	-0.679
Mof_O 	O 	0.81711	0.6412	0.6396	-0.528
Mof_O 	O 	0.81149	0.0638	0.1186	-0.522
Mof_O 	O 	0.77122	0.1352	0.0921	-0.543
Mof_O 	O 	0.79938	0.8311	0.4164	-0.598
Mof_O 	O 	0.76041	0.8975	0.4549	-0.659
Mof_O 	O 	0.80472	0.1341	0.956	-0.419
Mof_O 	O 	0.76412	0.1752	0.9188	-0.35
Mof_O 	O 	0.75133	0.8744	0.6352	-0.612
Mof_O 	O 	0.79369	0.864	0.6054	-0.651
Mof_O 	O 	0.86457	0.5204	0.4264	-0.607
Mof_O 	O 	0.82458	0.5966	0.4487	-0.589
Mof_O 	O 	0.85185	0.2705	0.1357	-0.496
Mof_O 	O 	0.81195	0.3121	0.0962	-0.618
Mof_O 	O 	0.90464	0.7354	0.4226	-0.519
Mof_S 	S 	0.98432	0.95045	0.78513	0.092
Mof_S 	S 	0.9318	0.41082	0.77918	0.081
Mof_S 	S 	0.96433	0.4978	0.26596	0.057
Mof_S 	S 	0.87159	0.95927	0.76319	0.07
Mof_S 	S 	0.90415	0.87457	0.27758	0.052
Mof_S 	S 	0.81871	0.50787	0.78514	0.096
Mof_S 	S 	0.79754	0.95482	0.26513	0.061
Mof_S 	S 	0.76436	0.02752	0.77782	0.089
Mof_S 	S 	0.85037	0.40612	0.27962	0.058
Mof_Sm	Sm	0.01122	0.30639	0.03242	1.539
Mof_Sm	Sm	0.93711	0.13535	0.02552	1.891
Mof_Sm	Sm	0.84422	0.13578	0.02706	1.786
Mof_Sm	Sm	0.77316	0.3147	0.02368	1.591
Mof_Sm	Sm	0.89398	0.58937	0.52228	2.397
Mof_Sm	Sm	0.82335	0.76712	0.52754	2.313
Mof_H 	H 	0.8882	0.276	0.07	0.543
Mof_H 	H 	0.8911	0.295	0.992	0.78
_end
