# CIF file generated by openbabel 3.1.0, see https://openbabel.org
data_I
_chemical_name_common 'image0'
_cell_length_a 21.917
_cell_length_b 21.917
_cell_length_c 16.5868
_cell_angle_alpha 90
_cell_angle_beta 90
_cell_angle_gamma 90
_space_group_name_H-M_alt 'P 1'
_space_group_name_Hall 'P 1'
loop_
    _symmetry_equiv_pos_as_xyz
    x,y,z
loop_
    _atom_site_label
    _atom_site_type_symbol
    _atom_site_fract_x
    _atom_site_fract_y
    _atom_site_fract_z
    _atom_site_occupancy
    Nd1      Nd       0.88894    0.42493    0.11504    1.000
    N1       N        0.83150    0.38540    0.98830    1.000
    O1       O        0.86260    0.31690    0.11190    1.000
    O2       O        0.82450    0.23260    0.05150    1.000
    O3       O        0.85930    0.50090    0.01130    1.000
    O4       O        0.81710    0.52860    0.89380    1.000
    C1       C        0.83200    0.28820    0.05330    1.000
    C2       C        0.81420    0.32670    0.98460    1.000
    C3       C        0.77950    0.30360    0.91730    1.000
    H1       H        0.76870    0.26260    0.91390    1.000
    C4       C        0.76340    0.34390    0.85910    1.000
    H2       H        0.73970    0.33070    0.81600    1.000
    C5       C        0.78200    0.40550    0.86310    1.000
    H3       H        0.77280    0.43290    0.82210    1.000
    C6       C        0.81410    0.42300    0.93010    1.000
    C7       C        0.83120    0.49060    0.94490    1.000
    Nd2      Nd       0.38894    0.92493    0.61504    1.000
    N2       N        0.33150    0.88540    0.48830    1.000
    O5       O        0.36260    0.81690    0.61190    1.000
    O6       O        0.32450    0.73260    0.55150    1.000
    O7       O        0.35930    0.00090    0.51130    1.000
    O8       O        0.31710    0.02860    0.39380    1.000
    C8       C        0.33200    0.78820    0.55330    1.000
    C9       C        0.31420    0.82670    0.48460    1.000
    C10      C        0.27950    0.80360    0.41730    1.000
    H4       H        0.26870    0.76260    0.41390    1.000
    C11      C        0.26340    0.84390    0.35910    1.000
    H5       H        0.23970    0.83070    0.31600    1.000
    C12      C        0.28200    0.90550    0.36310    1.000
    H6       H        0.27280    0.93290    0.32210    1.000
    C13      C        0.31410    0.92300    0.43010    1.000
    C14      C        0.33120    0.99060    0.44490    1.000
    Nd3      Nd       0.61106    0.57507    0.61504    1.000
    N3       N        0.66850    0.61460    0.48830    1.000
    O9       O        0.63740    0.68310    0.61190    1.000
    O10      O        0.67550    0.76740    0.55150    1.000
    O11      O        0.64070    0.49910    0.51130    1.000
    O12      O        0.68290    0.47140    0.39380    1.000
    C15      C        0.66800    0.71180    0.55330    1.000
    C16      C        0.68580    0.67330    0.48460    1.000
    C17      C        0.72050    0.69640    0.41730    1.000
    H7       H        0.73130    0.73740    0.41390    1.000
    C18      C        0.73660    0.65610    0.35910    1.000
    H8       H        0.76030    0.66930    0.31600    1.000
    C19      C        0.71800    0.59450    0.36310    1.000
    H9       H        0.72720    0.56710    0.32210    1.000
    C20      C        0.68590    0.57700    0.43010    1.000
    C21      C        0.66880    0.50940    0.44490    1.000
    Nd4      Nd       0.11106    0.07507    0.11504    1.000
    N4       N        0.16850    0.11460    0.98830    1.000
    O13      O        0.13740    0.18310    0.11190    1.000
    O14      O        0.17550    0.26740    0.05150    1.000
    O15      O        0.14070    0.99910    0.01130    1.000
    O16      O        0.18290    0.97140    0.89380    1.000
    C22      C        0.16800    0.21180    0.05330    1.000
    C23      C        0.18580    0.17330    0.98460    1.000
    C24      C        0.22050    0.19640    0.91730    1.000
    H10      H        0.23130    0.23740    0.91390    1.000
    C25      C        0.23660    0.15610    0.85910    1.000
    H11      H        0.26030    0.16930    0.81600    1.000
    C26      C        0.21800    0.09450    0.86310    1.000
    H12      H        0.22720    0.06710    0.82210    1.000
    C27      C        0.18590    0.07700    0.93010    1.000
    C28      C        0.16880    0.00940    0.94490    1.000
    Nd5      Nd       0.32507    0.13894    0.36504    1.000
    N5       N        0.36460    0.08150    0.23830    1.000
    O17      O        0.43310    0.11260    0.36190    1.000
    O18      O        0.51740    0.07450    0.30150    1.000
    O19      O        0.24910    0.10930    0.26130    1.000
    O20      O        0.22140    0.06710    0.14380    1.000
    C29      C        0.46180    0.08200    0.30330    1.000
    C30      C        0.42330    0.06420    0.23460    1.000
    C31      C        0.44640    0.02950    0.16730    1.000
    H13      H        0.48740    0.01870    0.16390    1.000
    C32      C        0.40610    0.01340    0.10910    1.000
    H14      H        0.41930    0.98970    0.06600    1.000
    C33      C        0.34450    0.03200    0.11310    1.000
    H15      H        0.31710    0.02280    0.07210    1.000
    C34      C        0.32700    0.06410    0.18010    1.000
    C35      C        0.25940    0.08120    0.19490    1.000
    Nd6      Nd       0.82507    0.63894    0.86504    1.000
    N6       N        0.86460    0.58150    0.73830    1.000
    O21      O        0.93310    0.61260    0.86190    1.000
    O22      O        0.01740    0.57450    0.80150    1.000
    O23      O        0.74910    0.60930    0.76130    1.000
    O24      O        0.72140    0.56710    0.64380    1.000
    C36      C        0.96180    0.58200    0.80330    1.000
    C37      C        0.92330    0.56420    0.73460    1.000
    C38      C        0.94640    0.52950    0.66730    1.000
    H16      H        0.98740    0.51870    0.66390    1.000
    C39      C        0.90610    0.51340    0.60910    1.000
    H17      H        0.91930    0.48970    0.56600    1.000
    C40      C        0.84450    0.53200    0.61310    1.000
    H18      H        0.81710    0.52280    0.57210    1.000
    C41      C        0.82700    0.56410    0.68010    1.000
    C42      C        0.75940    0.58120    0.69490    1.000
    Nd7      Nd       0.17493    0.86106    0.86504    1.000
    N7       N        0.13540    0.91850    0.73830    1.000
    O25      O        0.06690    0.88740    0.86190    1.000
    O26      O        0.98260    0.92550    0.80150    1.000
    O27      O        0.25090    0.89070    0.76130    1.000
    O28      O        0.27860    0.93290    0.64380    1.000
    C43      C        0.03820    0.91800    0.80330    1.000
    C44      C        0.07670    0.93580    0.73460    1.000
    C45      C        0.05360    0.97050    0.66730    1.000
    H19      H        0.01260    0.98130    0.66390    1.000
    C46      C        0.09390    0.98660    0.60910    1.000
    H20      H        0.08070    0.01030    0.56600    1.000
    C47      C        0.15550    0.96800    0.61310    1.000
    H21      H        0.18290    0.97720    0.57210    1.000
    C48      C        0.17300    0.93590    0.68010    1.000
    C49      C        0.24060    0.91880    0.69490    1.000
    Nd8      Nd       0.67493    0.36106    0.36504    1.000
    N8       N        0.63540    0.41850    0.23830    1.000
    O29      O        0.56690    0.38740    0.36190    1.000
    O30      O        0.48260    0.42550    0.30150    1.000
    O31      O        0.75090    0.39070    0.26130    1.000
    O32      O        0.77860    0.43290    0.14380    1.000
    C50      C        0.53820    0.41800    0.30330    1.000
    C51      C        0.57670    0.43580    0.23460    1.000
    C52      C        0.55360    0.47050    0.16730    1.000
    H22      H        0.51260    0.48130    0.16390    1.000
    C53      C        0.59390    0.48660    0.10910    1.000
    H23      H        0.58070    0.51030    0.06600    1.000
    C54      C        0.65550    0.46800    0.11310    1.000
    H24      H        0.68290    0.47720    0.07210    1.000
    C55      C        0.67300    0.43590    0.18010    1.000
    C56      C        0.74060    0.41880    0.19490    1.000
    Nd9      Nd       0.11106    0.57507    0.88496    1.000
    N9       N        0.16850    0.61460    0.01170    1.000
    O33      O        0.13740    0.68310    0.88810    1.000
    O34      O        0.17550    0.76740    0.94850    1.000
    O35      O        0.14070    0.49910    0.98870    1.000
    O36      O        0.18290    0.47140    0.10620    1.000
    C57      C        0.16800    0.71180    0.94670    1.000
    C58      C        0.18580    0.67330    0.01540    1.000
    C59      C        0.22050    0.69640    0.08270    1.000
    H25      H        0.23130    0.73740    0.08610    1.000
    C60      C        0.23660    0.65610    0.14090    1.000
    H26      H        0.26030    0.66930    0.18400    1.000
    C61      C        0.21800    0.59450    0.13690    1.000
    H27      H        0.22720    0.56710    0.17790    1.000
    C62      C        0.18590    0.57700    0.06990    1.000
    C63      C        0.16880    0.50940    0.05510    1.000
    Nd10     Nd       0.61106    0.07507    0.38496    1.000
    N10      N        0.66850    0.11460    0.51170    1.000
    O37      O        0.63740    0.18310    0.38810    1.000
    O38      O        0.67550    0.26740    0.44850    1.000
    O39      O        0.64070    0.99910    0.48870    1.000
    O40      O        0.68290    0.97140    0.60620    1.000
    C64      C        0.66800    0.21180    0.44670    1.000
    C65      C        0.68580    0.17330    0.51540    1.000
    C66      C        0.72050    0.19640    0.58270    1.000
    H28      H        0.73130    0.23740    0.58610    1.000
    C67      C        0.73660    0.15610    0.64090    1.000
    H29      H        0.76030    0.16930    0.68400    1.000
    C68      C        0.71800    0.09450    0.63690    1.000
    H30      H        0.72720    0.06710    0.67790    1.000
    C69      C        0.68590    0.07700    0.56990    1.000
    C70      C        0.66880    0.00940    0.55510    1.000
    Nd11     Nd       0.38894    0.42493    0.38496    1.000
    N11      N        0.33150    0.38540    0.51170    1.000
    O41      O        0.36260    0.31690    0.38810    1.000
    O42      O        0.32450    0.23260    0.44850    1.000
    O43      O        0.35930    0.50090    0.48870    1.000
    O44      O        0.31710    0.52860    0.60620    1.000
    C71      C        0.33200    0.28820    0.44670    1.000
    C72      C        0.31420    0.32670    0.51540    1.000
    C73      C        0.27950    0.30360    0.58270    1.000
    H31      H        0.26870    0.26260    0.58610    1.000
    C74      C        0.26340    0.34390    0.64090    1.000
    H32      H        0.23970    0.33070    0.68400    1.000
    C75      C        0.28200    0.40550    0.63690    1.000
    H33      H        0.27280    0.43290    0.67790    1.000
    C76      C        0.31410    0.42300    0.56990    1.000
    C77      C        0.33120    0.49060    0.55510    1.000
    Nd12     Nd       0.88894    0.92493    0.88496    1.000
    N12      N        0.83150    0.88540    0.01170    1.000
    O45      O        0.86260    0.81690    0.88810    1.000
    O46      O        0.82450    0.73260    0.94850    1.000
    O47      O        0.85930    0.00090    0.98870    1.000
    O48      O        0.81710    0.02860    0.10620    1.000
    C78      C        0.83200    0.78820    0.94670    1.000
    C79      C        0.81420    0.82670    0.01540    1.000
    C80      C        0.77950    0.80360    0.08270    1.000
    H34      H        0.76870    0.76260    0.08610    1.000
    C81      C        0.76340    0.84390    0.14090    1.000
    H35      H        0.73970    0.83070    0.18400    1.000
    C82      C        0.78200    0.90550    0.13690    1.000
    H36      H        0.77280    0.93290    0.17790    1.000
    C83      C        0.81410    0.92300    0.06990    1.000
    C84      C        0.83120    0.99060    0.05510    1.000
    Nd13     Nd       0.67493    0.86106    0.63496    1.000
    N13      N        0.63540    0.91850    0.76170    1.000
    O49      O        0.56690    0.88740    0.63810    1.000
    O50      O        0.48260    0.92550    0.69850    1.000
    O51      O        0.75090    0.89070    0.73870    1.000
    O52      O        0.77860    0.93290    0.85620    1.000
    C85      C        0.53820    0.91800    0.69670    1.000
    C86      C        0.57670    0.93580    0.76540    1.000
    C87      C        0.55360    0.97050    0.83270    1.000
    H37      H        0.51260    0.98130    0.83610    1.000
    C88      C        0.59390    0.98660    0.89090    1.000
    H38      H        0.58070    0.01030    0.93400    1.000
    C89      C        0.65550    0.96800    0.88690    1.000
    H39      H        0.68290    0.97720    0.92790    1.000
    C90      C        0.67300    0.93590    0.81990    1.000
    C91      C        0.74060    0.91880    0.80510    1.000
    Nd14     Nd       0.17493    0.36106    0.13496    1.000
    N14      N        0.13540    0.41850    0.26170    1.000
    O53      O        0.06690    0.38740    0.13810    1.000
    O54      O        0.98260    0.42550    0.19850    1.000
    O55      O        0.25090    0.39070    0.23870    1.000
    O56      O        0.27860    0.43290    0.35620    1.000
    C92      C        0.03820    0.41800    0.19670    1.000
    C93      C        0.07670    0.43580    0.26540    1.000
    C94      C        0.05360    0.47050    0.33270    1.000
    H40      H        0.01260    0.48130    0.33610    1.000
    C95      C        0.09390    0.48660    0.39090    1.000
    H41      H        0.08070    0.51030    0.43400    1.000
    C96      C        0.15550    0.46800    0.38690    1.000
    H42      H        0.18290    0.47720    0.42790    1.000
    C97      C        0.17300    0.43590    0.31990    1.000
    C98      C        0.24060    0.41880    0.30510    1.000
    Nd15     Nd       0.82507    0.13894    0.13496    1.000
    N15      N        0.86460    0.08150    0.26170    1.000
    O57      O        0.93310    0.11260    0.13810    1.000
    O58      O        0.01740    0.07450    0.19850    1.000
    O59      O        0.74910    0.10930    0.23870    1.000
    O60      O        0.72140    0.06710    0.35620    1.000
    C99      C        0.96180    0.08200    0.19670    1.000
    C100     C        0.92330    0.06420    0.26540    1.000
    C101     C        0.94640    0.02950    0.33270    1.000
    H43      H        0.98740    0.01870    0.33610    1.000
    C102     C        0.90610    0.01340    0.39090    1.000
    H44      H        0.91930    0.98970    0.43400    1.000
    C103     C        0.84450    0.03200    0.38690    1.000
    H45      H        0.81710    0.02280    0.42790    1.000
    C104     C        0.82700    0.06410    0.31990    1.000
    C105     C        0.75940    0.08120    0.30510    1.000
    Nd16     Nd       0.32507    0.63894    0.63496    1.000
    N16      N        0.36460    0.58150    0.76170    1.000
    O61      O        0.43310    0.61260    0.63810    1.000
    O62      O        0.51740    0.57450    0.69850    1.000
    O63      O        0.24910    0.60930    0.73870    1.000
    O64      O        0.22140    0.56710    0.85620    1.000
    C106     C        0.46180    0.58200    0.69670    1.000
    C107     C        0.42330    0.56420    0.76540    1.000
    C108     C        0.44640    0.52950    0.83270    1.000
    H46      H        0.48740    0.51870    0.83610    1.000
    C109     C        0.40610    0.51340    0.89090    1.000
    H47      H        0.41930    0.48970    0.93400    1.000
    C110     C        0.34450    0.53200    0.88690    1.000
    H48      H        0.31710    0.52280    0.92790    1.000
    C111     C        0.32700    0.56410    0.81990    1.000
    C112     C        0.25940    0.58120    0.80510    1.000
