# CIF file generated by openbabel 3.1.0, see https://openbabel.org
data_I
_chemical_name_common 'image0'
_cell_length_a 13.9899
_cell_length_b 13.9899
_cell_length_c 14.936
_cell_angle_alpha 90
_cell_angle_beta 90
_cell_angle_gamma 120
_space_group_name_H-M_alt 'P 1'
_space_group_name_Hall 'P 1'
loop_
    _symmetry_equiv_pos_as_xyz
    x,y,z
loop_
    _atom_site_label
    _atom_site_type_symbol
    _atom_site_fract_x
    _atom_site_fract_y
    _atom_site_fract_z
    _atom_site_occupancy
    As1      As       0.32532    0.86313    0.48033    1.000
    Fe1      Fe       0.53674    0.87024    0.59595    1.000
    O1       O        0.40950    0.82100    0.51955    1.000
    O2       O        0.37670    0.99940    0.48302    1.000
    O3       O        0.20280    0.80720    0.53243    1.000
    O4       O        0.29870    0.82320    0.37021    1.000
    H1       H        0.31240    0.77360    0.36090    1.000
    O5       O        0.46570    0.74650    0.67909    1.000
    O6       O        0.48680    0.95740    0.68377    1.000
    O7       O        0.67130    0.94550    0.68899    1.000
    As2      As       0.13687    0.46219    0.48033    1.000
    Fe2      Fe       0.12976    0.66650    0.59595    1.000
    O8       O        0.17900    0.58850    0.51955    1.000
    O9       O        0.00060    0.37730    0.48302    1.000
    O10      O        0.19280    0.39560    0.53243    1.000
    O11      O        0.17680    0.47550    0.37021    1.000
    H2       H        0.22640    0.53880    0.36090    1.000
    O12      O        0.25350    0.71920    0.67909    1.000
    O13      O        0.04260    0.52940    0.68377    1.000
    O14      O        0.05450    0.72580    0.68899    1.000
    As3      As       0.53781    0.67468    0.48033    1.000
    Fe3      Fe       0.33350    0.46326    0.59595    1.000
    O15      O        0.41150    0.59050    0.51955    1.000
    O16      O        0.62270    0.62330    0.48302    1.000
    O17      O        0.60440    0.79720    0.53243    1.000
    O18      O        0.52450    0.70130    0.37021    1.000
    H3       H        0.46120    0.68760    0.36090    1.000
    O19      O        0.28080    0.53430    0.67909    1.000
    O20      O        0.47060    0.51320    0.68377    1.000
    O21      O        0.27420    0.32870    0.68899    1.000
    As4      As       0.86313    0.32532    0.01967    1.000
    Fe4      Fe       0.87024    0.53674    0.90405    1.000
    O22      O        0.82100    0.40950    0.98045    1.000
    O23      O        0.99940    0.37670    0.01698    1.000
    O24      O        0.80720    0.20280    0.96757    1.000
    O25      O        0.82320    0.29870    0.12979    1.000
    H4       H        0.77360    0.31240    0.13910    1.000
    O26      O        0.74650    0.46570    0.82091    1.000
    O27      O        0.95740    0.48680    0.81623    1.000
    O28      O        0.94550    0.67130    0.81101    1.000
    As5      As       0.46219    0.13687    0.01967    1.000
    Fe5      Fe       0.66650    0.12976    0.90405    1.000
    O29      O        0.58850    0.17900    0.98045    1.000
    O30      O        0.37730    0.00060    0.01698    1.000
    O31      O        0.39560    0.19280    0.96757    1.000
    O32      O        0.47550    0.17680    0.12979    1.000
    H5       H        0.53880    0.22640    0.13910    1.000
    O33      O        0.71920    0.25350    0.82091    1.000
    O34      O        0.52940    0.04260    0.81623    1.000
    O35      O        0.72580    0.05450    0.81101    1.000
    As6      As       0.67468    0.53781    0.01967    1.000
    Fe6      Fe       0.46326    0.33350    0.90405    1.000
    O36      O        0.59050    0.41150    0.98045    1.000
    O37      O        0.62330    0.62270    0.01698    1.000
    O38      O        0.79720    0.60440    0.96757    1.000
    O39      O        0.70130    0.52450    0.12979    1.000
    H6       H        0.68760    0.46120    0.13910    1.000
    O40      O        0.53430    0.28080    0.82091    1.000
    O41      O        0.51320    0.47060    0.81623    1.000
    O42      O        0.32870    0.27420    0.81101    1.000
    As7      As       0.67468    0.13687    0.51967    1.000
    Fe7      Fe       0.46326    0.12976    0.40405    1.000
    O43      O        0.59050    0.17900    0.48045    1.000
    O44      O        0.62330    0.00060    0.51698    1.000
    O45      O        0.79720    0.19280    0.46757    1.000
    O46      O        0.70130    0.17680    0.62979    1.000
    H7       H        0.68760    0.22640    0.63910    1.000
    O47      O        0.53430    0.25350    0.32091    1.000
    O48      O        0.51320    0.04260    0.31623    1.000
    O49      O        0.32870    0.05450    0.31101    1.000
    As8      As       0.86313    0.53781    0.51967    1.000
    Fe8      Fe       0.87024    0.33350    0.40405    1.000
    O50      O        0.82100    0.41150    0.48045    1.000
    O51      O        0.99940    0.62270    0.51698    1.000
    O52      O        0.80720    0.60440    0.46757    1.000
    O53      O        0.82320    0.52450    0.62979    1.000
    H8       H        0.77360    0.46120    0.63910    1.000
    O54      O        0.74650    0.28080    0.32091    1.000
    O55      O        0.95740    0.47060    0.31623    1.000
    O56      O        0.94550    0.27420    0.31101    1.000
    As9      As       0.46219    0.32532    0.51967    1.000
    Fe9      Fe       0.66650    0.53674    0.40405    1.000
    O57      O        0.58850    0.40950    0.48045    1.000
    O58      O        0.37730    0.37670    0.51698    1.000
    O59      O        0.39560    0.20280    0.46757    1.000
    O60      O        0.47550    0.29870    0.62979    1.000
    H9       H        0.53880    0.31240    0.63910    1.000
    O61      O        0.71920    0.46570    0.32091    1.000
    O62      O        0.52940    0.48680    0.31623    1.000
    O63      O        0.72580    0.67130    0.31101    1.000
    As10     As       0.13687    0.67468    0.98033    1.000
    Fe10     Fe       0.12976    0.46326    0.09595    1.000
    O64      O        0.17900    0.59050    0.01955    1.000
    O65      O        0.00060    0.62330    0.98302    1.000
    O66      O        0.19280    0.79720    0.03243    1.000
    O67      O        0.17680    0.70130    0.87021    1.000
    H10      H        0.22640    0.68760    0.86090    1.000
    O68      O        0.25350    0.53430    0.17909    1.000
    O69      O        0.04260    0.51320    0.18377    1.000
    O70      O        0.05450    0.32870    0.18899    1.000
    As11     As       0.53781    0.86313    0.98033    1.000
    Fe11     Fe       0.33350    0.87024    0.09595    1.000
    O71      O        0.41150    0.82100    0.01955    1.000
    O72      O        0.62270    0.99940    0.98302    1.000
    O73      O        0.60440    0.80720    0.03243    1.000
    O74      O        0.52450    0.82320    0.87021    1.000
    H11      H        0.46120    0.77360    0.86090    1.000
    O75      O        0.28080    0.74650    0.17909    1.000
    O76      O        0.47060    0.95740    0.18377    1.000
    O77      O        0.27420    0.94550    0.18899    1.000
    As12     As       0.32532    0.46219    0.98033    1.000
    Fe12     Fe       0.53674    0.66650    0.09595    1.000
    O78      O        0.40950    0.58850    0.01955    1.000
    O79      O        0.37670    0.37730    0.98302    1.000
    O80      O        0.20280    0.39560    0.03243    1.000
    O81      O        0.29870    0.47550    0.87021    1.000
    H12      H        0.31240    0.53880    0.86090    1.000
    O82      O        0.46570    0.71920    0.17909    1.000
    O83      O        0.48680    0.52940    0.18377    1.000
    O84      O        0.67130    0.72580    0.18899    1.000
    As13     As       0.33333    0.66667    0.70826    1.000
    As14     As       0.66667    0.33333    0.79174    1.000
    As15     As       0.66667    0.33333    0.29174    1.000
    As16     As       0.33333    0.66667    0.20826    1.000
    C1       C        0.54940    0.00000    0.75000    1.000
    C2       C        0.65920    0.00000    0.75000    1.000
    C3       C        0.00000    0.54940    0.75000    1.000
    C4       C        0.00000    0.65920    0.75000    1.000
    C5       C        0.45060    0.45060    0.75000    1.000
    C6       C        0.34080    0.34080    0.75000    1.000
    C7       C        0.45060    0.00000    0.25000    1.000
    C8       C        0.34080    0.00000    0.25000    1.000
    C9       C        0.00000    0.45060    0.25000    1.000
    C10      C        0.00000    0.34080    0.25000    1.000
    C11      C        0.54940    0.54940    0.25000    1.000
    C12      C        0.65920    0.65920    0.25000    1.000
