data_functionalizedCrystal
_audit_creation_method	'EQeq! by Chris Wilmer'
_symmetry_space_group_name_H-M	'P1'
_symmetry_Int_Tables_number	1
_symmetry_cell_setting	triclinic
loop_
_symmetry_equiv_pos_as_xyz
  x,y,z
_cell_length_a	7.8758
_cell_length_b	9.1877
_cell_length_c	11.3427
_cell_angle_alpha	112.883
_cell_angle_beta	91.057
_cell_angle_gamma	105.877
loop_
_atom_site_label
_atom_site_type_symbol
_atom_site_fract_x
_atom_site_fract_y
_atom_site_fract_z
_atom_site_charge
Mof_O 	O 	0.716	0.8892	0.4771	-0.805
Mof_H 	H 	0.681	0.841	0.529	0.328
Mof_H 	H 	0.711	0.813	0.3988	0.318
Mof_O 	O 	0.9819	0.1799	0.6779	-0.408
Mof_O 	O 	0.2671	0.3238	0.7539	-0.334
Mof_O 	O 	0.5003	0.9861	0.3156	-0.311
Mof_O 	O 	0.3851	0.1869	0.3275	-0.335
Mof_C 	C 	0.1054	0.2936	0.7641	0.311
Mof_C 	C 	0.0501	0.3977	0.8864	-0.236
Mof_C 	C 	0.871	0.3769	0.9015	0.189
Mof_H 	H 	0.7835	0.2946	0.8353	-0.027
Mof_C 	C 	0.1787	0.5241	0.9873	0.126
Mof_H 	H 	0.2991	0.5412	0.9791	0.003
Mof_C 	C 	0.4524	0.0745	0.2692	0.268
Mof_C 	C 	0.4776	0.0378	0.1296	-0.358
Mof_C 	C 	0.4311	0.1273	0.0671	0.228
Mof_H 	H 	0.3846	0.213	0.1117	-0.046
Mof_C 	C 	0.547	0.9097	0.0614	0.348
Mof_H 	H 	0.5787	0.8486	0.1021	-0.052
Mof_O 	O 	0.284	0.1108	0.5229	-0.924
Mof_H 	H 	0.319	0.159	0.471	0.315
Mof_H 	H 	0.289	0.187	0.6012	0.321
Mof_O 	O 	0.0181	0.8201	0.3221	-0.426
Mof_O 	O 	0.7329	0.6762	0.2461	-0.309
Mof_O 	O 	0.4997	0.0139	0.6844	-0.55
Mof_O 	O 	0.6149	0.8131	0.6725	-0.317
Mof_C 	C 	0.8946	0.7064	0.2359	0.339
Mof_C 	C 	0.9499	0.6023	0.1136	0.093
Mof_C 	C 	0.129	0.6231	0.0985	-0.214
Mof_H 	H 	0.2165	0.7054	0.1647	0.123
Mof_C 	C 	0.8213	0.4759	0.0127	-0.181
Mof_H 	H 	0.7009	0.4588	0.0209	0.107
Mof_C 	C 	0.5476	0.9255	0.7308	0.401
Mof_C 	C 	0.5224	0.9622	0.8704	0.226
Mof_C 	C 	0.5689	0.8727	0.9329	-0.275
Mof_H 	H 	0.6154	0.787	0.8883	0.153
Mof_C 	C 	0.453	0.0903	0.9386	-0.392
Mof_H 	H 	0.4213	0.1514	0.8979	0.161
Mof_Co	Co	1.97354e-17	0	0.5	1.055
Mof_Co	Co	0.5	0	0.5	1.087
_end
