data_functionalizedCrystal
_audit_creation_method	'EQeq! by Chris Wilmer'
_symmetry_space_group_name_H-M	'P1'
_symmetry_Int_Tables_number	1
_symmetry_cell_setting	triclinic
loop_
_symmetry_equiv_pos_as_xyz
  x,y,z
_cell_length_a	27.943
_cell_length_b	27.943
_cell_length_c	17.707
_cell_angle_alpha	90
_cell_angle_beta	90
_cell_angle_gamma	120
loop_
_atom_site_label
_atom_site_type_symbol
_atom_site_fract_x
_atom_site_fract_y
_atom_site_fract_z
_atom_site_charge
Mof_Ga	Ga	0.88143	0.38769	0.85568	3.494
Mof_O 	O 	0.92293	0.44915	0.7961	-0.935
Mof_O 	O 	0.86026	0.4091	0.7058	-0.395
Mof_O 	O 	0.90388	0.49299	0.45337	-0.933
Mof_O 	O 	0.98381	0.56985	0.43021	-0.386
Mof_O 	O 	0.10677	0.6671	0.64647	-0.906
Mof_O 	O 	0.09182	0.62371	0.7567	-0.386
Mof_O 	O 	0.80512	0.35455	0.85929	-0.945
Mof_O 	O 	0.81433	0.43685	0.8657	-0.398
Mof_C 	C 	0.94128	0.49381	0.679	-0.16
Mof_C 	C 	0.92849	0.49335	0.6024	0.108
Mof_H 	H 	0.8963	0.4639	0.5828	0.036
Mof_C 	C 	0.96373	0.5367	0.5555	-0.153
Mof_C 	C 	0.01106	0.58087	0.5855	0.101
Mof_H 	H 	0.0341	0.6103	0.5544	0.034
Mof_C 	C 	0.02449	0.58194	0.6601	-0.163
Mof_C 	C 	0.99009	0.53875	0.7073	0.116
Mof_H 	H 	0.9993	0.5395	0.7579	0.042
Mof_C 	C 	0.9045	0.447	0.7289	0.486
Mof_C 	C 	0.9512	0.53465	0.4731	0.479
Mof_C 	C 	0.077	0.6263	0.6928	0.452
Mof_C 	C 	0.72369	0.358	0.8608	-0.199
Mof_C 	C 	0.6979	0.3895	0.86	0.158
Mof_H 	H 	0.7195	0.4279	0.8588	0.025
Mof_C 	C 	0.7857	0.3867	0.8625	0.535
Mof_Ga	Ga	0.5481	0.72103	0.18901	3.453
Mof_O 	O 	0.5896	0.78248	0.12943	-0.941
Mof_O 	O 	0.52693	0.74243	0.03913	-0.431
Mof_O 	O 	0.57055	0.82632	0.7867	-0.926
Mof_O 	O 	0.65048	0.90318	0.76354	-0.381
Mof_O 	O 	0.77344	0.00043	0.9798	-0.651
Mof_O 	O 	0.75849	0.95704	0.09003	-0.31
Mof_O 	O 	0.47179	0.68788	0.19262	-0.953
Mof_O 	O 	0.481	0.77018	0.19903	-0.422
Mof_C 	C 	0.60795	0.82714	0.01233	-0.198
Mof_C 	C 	0.59516	0.82668	0.93573	0.191
Mof_H 	H 	0.56297	0.79723	0.91613	0.036
Mof_C 	C 	0.6304	0.87003	0.88883	-0.106
Mof_C 	C 	0.67773	0.9142	0.91883	-0.043
Mof_H 	H 	0.70077	0.94363	0.88773	0.093
Mof_C 	C 	0.69116	0.91527	0.99343	0.188
Mof_C 	C 	0.65676	0.87208	0.04063	-0.142
Mof_H 	H 	0.66597	0.87283	0.09123	0.11
Mof_C 	C 	0.57117	0.78033	0.06223	0.481
Mof_C 	C 	0.61787	0.86798	0.80643	0.467
Mof_C 	C 	0.74367	0.95963	0.02613	0.128
Mof_C 	C 	0.39036	0.69133	0.19413	-0.224
Mof_C 	C 	0.36457	0.72283	0.19333	0.165
Mof_H 	H 	0.38617	0.76123	0.19213	0.009
Mof_C 	C 	0.45237	0.72003	0.19583	0.534
Mof_Ga	Ga	0.21477	0.05436	0.52235	3.468
Mof_O 	O 	0.25626	0.11582	0.46277	-0.939
Mof_O 	O 	0.19359	0.07577	0.37247	-0.397
Mof_O 	O 	0.23721	0.15966	0.12004	-0.862
Mof_O 	O 	0.31714	0.23652	0.09688	-0.407
Mof_O 	O 	0.4401	0.33377	0.31314	-0.91
Mof_O 	O 	0.42515	0.29038	0.42337	-0.397
Mof_O 	O 	0.13845	0.02122	0.52596	-0.944
Mof_O 	O 	0.14766	0.10352	0.53237	-0.409
Mof_C 	C 	0.27461	0.16048	0.34567	-0.166
Mof_C 	C 	0.26182	0.16002	0.26907	0.108
Mof_H 	H 	0.22963	0.13057	0.24947	0.032
Mof_C 	C 	0.29706	0.20337	0.22217	-0.168
Mof_C 	C 	0.34439	0.24754	0.25217	0.113
Mof_H 	H 	0.36743	0.27697	0.22107	0.025
Mof_C 	C 	0.35782	0.24861	0.32677	-0.164
Mof_C 	C 	0.32342	0.20542	0.37397	0.107
Mof_H 	H 	0.33263	0.20617	0.42457	0.035
Mof_C 	C 	0.23783	0.11367	0.39557	0.485
Mof_C 	C 	0.28453	0.20132	0.13977	0.463
Mof_C 	C 	0.41033	0.29297	0.35947	0.453
Mof_C 	C 	0.05702	0.02467	0.52747	-0.171
Mof_C 	C 	0.03123	0.05617	0.52667	0.118
Mof_H 	H 	0.05283	0.09457	0.52547	0.03
Mof_C 	C 	0.11903	0.05337	0.52917	0.52
Mof_Ga	Ga	0.61231	0.49374	0.85568	3.492
Mof_O 	O 	0.55085	0.47378	0.7961	-0.936
Mof_O 	O 	0.5909	0.45116	0.7058	-0.396
Mof_O 	O 	0.50701	0.41089	0.45337	-0.935
Mof_O 	O 	0.43015	0.41396	0.43021	-0.391
Mof_O 	O 	0.3329	0.43967	0.64647	-0.906
Mof_O 	O 	0.37629	0.46811	0.7567	-0.384
Mof_O 	O 	0.64545	0.45057	0.85929	-0.946
Mof_O 	O 	0.56315	0.37748	0.8657	-0.399
Mof_C 	C 	0.50619	0.44747	0.679	-0.16
Mof_C 	C 	0.50665	0.43514	0.6024	0.109
Mof_H 	H 	0.5361	0.4324	0.5828	0.035
Mof_C 	C 	0.4633	0.42703	0.5555	-0.162
Mof_C 	C 	0.41913	0.43019	0.5855	0.111
Mof_H 	H 	0.3897	0.4238	0.5544	0.033
Mof_C 	C 	0.41806	0.44255	0.6601	-0.155
Mof_C 	C 	0.46125	0.45134	0.7073	0.104
Mof_H 	H 	0.4605	0.4598	0.7579	0.043
Mof_C 	C 	0.553	0.4575	0.7289	0.485
Mof_C 	C 	0.46535	0.41655	0.4731	0.481
Mof_C 	C 	0.3737	0.4507	0.6928	0.45
Mof_C 	C 	0.642	0.36569	0.8608	-0.199
Mof_C 	C 	0.6105	0.3084	0.86	0.158
Mof_H 	H 	0.5721	0.2916	0.8588	0.025
Mof_C 	C 	0.6133	0.399	0.8625	0.535
Mof_Ga	Ga	0.27897	0.82707	0.18901	3.452
Mof_O 	O 	0.21752	0.80711	0.12943	-0.942
Mof_O 	O 	0.25757	0.78449	0.03913	-0.431
Mof_O 	O 	0.17368	0.74422	0.7867	-0.926
Mof_O 	O 	0.09682	0.74729	0.76354	-0.382
Mof_O 	O 	0.99957	0.773	0.9798	-0.655
Mof_O 	O 	0.04296	0.80144	0.09003	-0.312
Mof_O 	O 	0.31212	0.7839	0.19262	-0.953
Mof_O 	O 	0.22982	0.71081	0.19903	-0.422
Mof_C 	C 	0.17286	0.7808	0.01233	-0.198
Mof_C 	C 	0.17332	0.76847	0.93573	0.19
Mof_H 	H 	0.20277	0.76573	0.91613	0.036
Mof_C 	C 	0.12997	0.76036	0.88883	-0.108
Mof_C 	C 	0.0858	0.76352	0.91883	-0.04
Mof_H 	H 	0.05637	0.75713	0.88773	0.092
Mof_C 	C 	0.08473	0.77588	0.99343	0.18
Mof_C 	C 	0.12792	0.78467	0.04063	-0.137
Mof_H 	H 	0.12717	0.79313	0.09123	0.108
Mof_C 	C 	0.21967	0.79083	0.06223	0.481
Mof_C 	C 	0.13202	0.74988	0.80643	0.468
Mof_C 	C 	0.04037	0.78403	0.02613	0.133
Mof_C 	C 	0.30867	0.69902	0.19413	-0.224
Mof_C 	C 	0.27717	0.64173	0.19333	0.165
Mof_H 	H 	0.23877	0.62493	0.19213	0.009
Mof_C 	C 	0.27997	0.73233	0.19583	0.534
Mof_Ga	Ga	0.94564	0.16041	0.52235	3.47
Mof_O 	O 	0.88418	0.14045	0.46277	-0.938
Mof_O 	O 	0.92423	0.11783	0.37247	-0.395
Mof_O 	O 	0.84034	0.07756	0.12004	-0.86
Mof_O 	O 	0.76348	0.08063	0.09688	-0.406
Mof_O 	O 	0.66623	0.10634	0.31314	-0.91
Mof_O 	O 	0.70962	0.13478	0.42337	-0.397
Mof_O 	O 	0.97878	0.11724	0.52596	-0.943
Mof_O 	O 	0.89648	0.04415	0.53237	-0.406
Mof_C 	C 	0.83952	0.11414	0.34567	-0.165
Mof_C 	C 	0.83998	0.10181	0.26907	0.108
Mof_H 	H 	0.86943	0.09907	0.24947	0.033
Mof_C 	C 	0.79663	0.0937	0.22217	-0.167
Mof_C 	C 	0.75246	0.09686	0.25217	0.113
Mof_H 	H 	0.72303	0.09047	0.22107	0.026
Mof_C 	C 	0.75139	0.10922	0.32677	-0.163
Mof_C 	C 	0.79458	0.11801	0.37397	0.107
Mof_H 	H 	0.79383	0.12647	0.42457	0.035
Mof_C 	C 	0.88633	0.12417	0.39557	0.485
Mof_C 	C 	0.79868	0.08322	0.13977	0.463
Mof_C 	C 	0.70703	0.11737	0.35947	0.453
Mof_C 	C 	0.97533	0.03236	0.52747	-0.166
Mof_C 	C 	0.94383	0.97507	0.52667	0.118
Mof_H 	H 	0.90543	0.95827	0.52547	0.03
Mof_C 	C 	0.94663	0.06567	0.52917	0.52
Mof_Ga	Ga	0.50626	0.11857	0.85568	3.493
Mof_O 	O 	0.52622	0.07707	0.7961	-0.936
Mof_O 	O 	0.54884	0.13974	0.7058	-0.396
Mof_O 	O 	0.58911	0.09612	0.45337	-0.934
Mof_O 	O 	0.58604	0.01619	0.43021	-0.387
Mof_O 	O 	0.56033	0.89323	0.64647	-0.907
Mof_O 	O 	0.53189	0.90818	0.7567	-0.387
Mof_O 	O 	0.54943	0.19488	0.85929	-0.946
Mof_O 	O 	0.62252	0.18567	0.8657	-0.398
Mof_C 	C 	0.55253	0.05872	0.679	-0.161
Mof_C 	C 	0.56486	0.07151	0.6024	0.107
Mof_H 	H 	0.5676	0.1037	0.5828	0.036
Mof_C 	C 	0.57297	0.03627	0.5555	-0.153
Mof_C 	C 	0.56981	0.98894	0.5855	0.101
Mof_H 	H 	0.5762	0.9659	0.5544	0.034
Mof_C 	C 	0.55745	0.97551	0.6601	-0.163
Mof_C 	C 	0.54866	0.00991	0.7073	0.115
Mof_H 	H 	0.5402	0.0007	0.7579	0.042
Mof_C 	C 	0.5425	0.0955	0.7289	0.486
Mof_C 	C 	0.58345	0.0488	0.4731	0.479
Mof_C 	C 	0.5493	0.923	0.6928	0.452
Mof_C 	C 	0.63431	0.27631	0.8608	-0.199
Mof_C 	C 	0.6916	0.3021	0.86	0.158
Mof_H 	H 	0.7084	0.2805	0.8588	0.025
Mof_C 	C 	0.601	0.2143	0.8625	0.534
Mof_Ga	Ga	0.17293	0.4519	0.18901	3.452
Mof_O 	O 	0.19289	0.4104	0.12943	-0.941
Mof_O 	O 	0.21551	0.47307	0.03913	-0.431
Mof_O 	O 	0.25578	0.42945	0.7867	-0.926
Mof_O 	O 	0.25271	0.34952	0.76354	-0.38
Mof_O 	O 	0.227	0.22656	0.9798	-0.66
Mof_O 	O 	0.19856	0.24151	0.09003	-0.309
Mof_O 	O 	0.2161	0.52821	0.19262	-0.953
Mof_O 	O 	0.28919	0.519	0.19903	-0.421
Mof_C 	C 	0.2192	0.39205	0.01233	-0.198
Mof_C 	C 	0.23153	0.40484	0.93573	0.191
Mof_H 	H 	0.23427	0.43703	0.91613	0.036
Mof_C 	C 	0.23964	0.3696	0.88883	-0.105
Mof_C 	C 	0.23648	0.32227	0.91883	-0.044
Mof_H 	H 	0.24287	0.29923	0.88773	0.096
Mof_C 	C 	0.22412	0.30884	0.99343	0.189
Mof_C 	C 	0.21533	0.34324	0.04063	-0.144
Mof_H 	H 	0.20687	0.33403	0.09123	0.111
Mof_C 	C 	0.20917	0.42883	0.06223	0.481
Mof_C 	C 	0.25012	0.38213	0.80643	0.467
Mof_C 	C 	0.21597	0.25633	0.02613	0.134
Mof_C 	C 	0.30098	0.60964	0.19413	-0.224
Mof_C 	C 	0.35827	0.63543	0.19333	0.165
Mof_H 	H 	0.37507	0.61383	0.19213	0.009
Mof_C 	C 	0.26767	0.54763	0.19583	0.534
Mof_Ga	Ga	0.83959	0.78523	0.52235	3.467
Mof_O 	O 	0.85955	0.74374	0.46277	-0.938
Mof_O 	O 	0.88217	0.80641	0.37247	-0.397
Mof_O 	O 	0.92244	0.76279	0.12004	-0.861
Mof_O 	O 	0.91937	0.68286	0.09688	-0.406
Mof_O 	O 	0.89366	0.5599	0.31314	-0.909
Mof_O 	O 	0.86522	0.57485	0.42337	-0.397
Mof_O 	O 	0.88276	0.86155	0.52596	-0.946
Mof_O 	O 	0.95585	0.85234	0.53237	-0.407
Mof_C 	C 	0.88586	0.72539	0.34567	-0.165
Mof_C 	C 	0.89819	0.73818	0.26907	0.108
Mof_H 	H 	0.90093	0.77037	0.24947	0.032
Mof_C 	C 	0.9063	0.70294	0.22217	-0.168
Mof_C 	C 	0.90314	0.65561	0.25217	0.113
Mof_H 	H 	0.90953	0.63257	0.22107	0.026
Mof_C 	C 	0.89078	0.64218	0.32677	-0.163
Mof_C 	C 	0.88199	0.67658	0.37397	0.107
Mof_H 	H 	0.87353	0.66737	0.42457	0.035
Mof_C 	C 	0.87583	0.76217	0.39557	0.485
Mof_C 	C 	0.91678	0.71547	0.13977	0.464
Mof_C 	C 	0.88263	0.58967	0.35947	0.453
Mof_C 	C 	0.96764	0.94298	0.52747	-0.171
Mof_C 	C 	0.02493	0.96877	0.52667	0.109
Mof_H 	H 	0.04173	0.94717	0.52547	0.031
Mof_C 	C 	0.93433	0.88097	0.52917	0.52
Mof_Ga	Ga	0.61231	0.11857	0.35568	3.464
Mof_O 	O 	0.55085	0.07707	0.2961	-0.944
Mof_O 	O 	0.5909	0.13974	0.2058	-0.417
Mof_O 	O 	0.50701	0.09612	0.95337	-0.936
Mof_O 	O 	0.43015	0.01619	0.93021	-0.388
Mof_O 	O 	0.3329	0.89323	0.14647	-0.919
Mof_O 	O 	0.37629	0.90818	0.2567	-0.406
Mof_O 	O 	0.64545	0.19488	0.35929	-0.953
Mof_O 	O 	0.56315	0.18567	0.3657	-0.418
Mof_C 	C 	0.50619	0.05872	0.179	-0.226
Mof_C 	C 	0.50665	0.07151	0.1024	0.197
Mof_H 	H 	0.5361	0.1037	0.0828	-0.027
Mof_C 	C 	0.4633	0.03627	0.0555	-0.332
Mof_C 	C 	0.41913	0.98894	0.0855	0.199
Mof_H 	H 	0.3897	0.9659	0.0544	-0.027
Mof_C 	C 	0.41806	0.97551	0.1601	-0.23
Mof_C 	C 	0.46125	0.00991	0.2073	0.166
Mof_H 	H 	0.4605	0.0007	0.2579	0.016
Mof_C 	C 	0.553	0.0955	0.2289	0.506
Mof_C 	C 	0.46535	0.0488	0.9731	0.617
Mof_C 	C 	0.3737	0.923	0.1928	0.473
Mof_C 	C 	0.642	0.27631	0.3608	-0.219
Mof_C 	C 	0.6105	0.3021	0.36	0.163
Mof_H 	H 	0.5721	0.2805	0.3588	0.013
Mof_C 	C 	0.6133	0.2143	0.3625	0.533
Mof_Ga	Ga	0.27897	0.4519	0.68901	3.475
Mof_O 	O 	0.21752	0.4104	0.62943	-0.938
Mof_O 	O 	0.25757	0.47307	0.53913	-0.396
Mof_O 	O 	0.17368	0.42945	0.2867	-0.935
Mof_O 	O 	0.09682	0.34952	0.26354	-0.397
Mof_O 	O 	0.99957	0.22656	0.4798	-0.9
Mof_O 	O 	0.04296	0.24151	0.59003	-0.394
Mof_O 	O 	0.31212	0.52821	0.69262	-0.948
Mof_O 	O 	0.22982	0.519	0.69903	-0.408
Mof_C 	C 	0.17286	0.39205	0.51233	-0.164
Mof_C 	C 	0.17332	0.40484	0.43573	0.11
Mof_H 	H 	0.20277	0.43703	0.41613	0.034
Mof_C 	C 	0.12997	0.3696	0.38883	-0.166
Mof_C 	C 	0.0858	0.32227	0.41883	0.112
Mof_H 	H 	0.05637	0.29923	0.38773	0.029
Mof_C 	C 	0.08473	0.30884	0.49343	-0.158
Mof_C 	C 	0.12792	0.34324	0.54063	0.105
Mof_H 	H 	0.12717	0.33403	0.59123	0.038
Mof_C 	C 	0.21967	0.42883	0.56223	0.485
Mof_C 	C 	0.13202	0.38213	0.30643	0.482
Mof_C 	C 	0.04037	0.25633	0.52613	0.443
Mof_C 	C 	0.30867	0.60964	0.69413	-0.205
Mof_C 	C 	0.27717	0.63543	0.69333	0.161
Mof_H 	H 	0.23877	0.61383	0.69213	0.021
Mof_C 	C 	0.27997	0.54763	0.69583	0.534
Mof_Ga	Ga	0.94564	0.78523	0.02235	3.012
Mof_O 	O 	0.88418	0.74374	0.96277	-0.787
Mof_O 	O 	0.92423	0.80641	0.87247	-0.337
Mof_O 	O 	0.84034	0.76279	0.62004	-0.933
Mof_O 	O 	0.76348	0.68286	0.59688	-0.388
Mof_O 	O 	0.66623	0.5599	0.81314	-0.905
Mof_O 	O 	0.70962	0.57485	0.92337	-0.369
Mof_O 	O 	0.97878	0.86155	0.02596	-0.884
Mof_O 	O 	0.89648	0.85234	0.03237	-0.422
Mof_C 	C 	0.83952	0.72539	0.84567	-0.132
Mof_C 	C 	0.83998	0.73818	0.76907	0.096
Mof_H 	H 	0.86943	0.77037	0.74947	0.045
Mof_C 	C 	0.79663	0.70294	0.72217	-0.15
Mof_C 	C 	0.75246	0.65561	0.75217	0.101
Mof_H 	H 	0.72303	0.63257	0.72107	0.038
Mof_C 	C 	0.75139	0.64218	0.82677	-0.137
Mof_C 	C 	0.79458	0.67658	0.87397	0.089
Mof_H 	H 	0.79383	0.66737	0.92457	0.06
Mof_C 	C 	0.88633	0.76217	0.89557	0.452
Mof_C 	C 	0.79868	0.71547	0.63977	0.478
Mof_C 	C 	0.70703	0.58967	0.85947	0.446
Mof_C 	C 	0.97533	0.94298	0.02747	-0.197
Mof_C 	C 	0.94383	0.96877	0.02667	0.127
Mof_H 	H 	0.90543	0.94717	0.02547	0.013
Mof_C 	C 	0.94663	0.88097	0.02917	0.502
Mof_Ga	Ga	0.50626	0.38769	0.35568	3.462
Mof_O 	O 	0.52622	0.44915	0.2961	-0.944
Mof_O 	O 	0.54884	0.4091	0.2058	-0.417
Mof_O 	O 	0.58911	0.49299	0.95337	-0.936
Mof_O 	O 	0.58604	0.56985	0.93021	-0.391
Mof_O 	O 	0.56033	0.6671	0.14647	-0.918
Mof_O 	O 	0.53189	0.62371	0.2567	-0.403
Mof_O 	O 	0.54943	0.35455	0.35929	-0.953
Mof_O 	O 	0.62252	0.43685	0.3657	-0.418
Mof_C 	C 	0.55253	0.49381	0.179	-0.225
Mof_C 	C 	0.56486	0.49335	0.1024	0.198
Mof_H 	H 	0.5676	0.4639	0.0828	-0.027
Mof_C 	C 	0.57297	0.5367	0.0555	-0.339
Mof_C 	C 	0.56981	0.58087	0.0855	0.205
Mof_H 	H 	0.5762	0.6103	0.0544	-0.027
Mof_C 	C 	0.55745	0.58194	0.1601	-0.224
Mof_C 	C 	0.54866	0.53875	0.2073	0.157
Mof_H 	H 	0.5402	0.5395	0.2579	0.017
Mof_C 	C 	0.5425	0.447	0.2289	0.505
Mof_C 	C 	0.58345	0.53465	0.9731	0.619
Mof_C 	C 	0.5493	0.6263	0.1928	0.472
Mof_C 	C 	0.63431	0.358	0.3608	-0.219
Mof_C 	C 	0.6916	0.3895	0.36	0.163
Mof_H 	H 	0.7084	0.4279	0.3588	0.013
Mof_C 	C 	0.601	0.3867	0.3625	0.533
Mof_Ga	Ga	0.17293	0.72103	0.68901	3.473
Mof_O 	O 	0.19289	0.78248	0.62943	-0.938
Mof_O 	O 	0.21551	0.74243	0.53913	-0.397
Mof_O 	O 	0.25578	0.82632	0.2867	-0.935
Mof_O 	O 	0.25271	0.90318	0.26354	-0.397
Mof_O 	O 	0.227	0.00043	0.4798	-0.899
Mof_O 	O 	0.19856	0.95704	0.59003	-0.395
Mof_O 	O 	0.2161	0.68788	0.69262	-0.947
Mof_O 	O 	0.28919	0.77018	0.69903	-0.408
Mof_C 	C 	0.2192	0.82714	0.51233	-0.165
Mof_C 	C 	0.23153	0.82668	0.43573	0.11
Mof_H 	H 	0.23427	0.79723	0.41613	0.033
Mof_C 	C 	0.23964	0.87003	0.38883	-0.167
Mof_C 	C 	0.23648	0.9142	0.41883	0.112
Mof_H 	H 	0.24287	0.94363	0.38773	0.029
Mof_C 	C 	0.22412	0.91527	0.49343	-0.159
Mof_C 	C 	0.21533	0.87208	0.54063	0.105
Mof_H 	H 	0.20687	0.87283	0.59123	0.037
Mof_C 	C 	0.20917	0.78033	0.56223	0.485
Mof_C 	C 	0.25012	0.86798	0.30643	0.482
Mof_C 	C 	0.21597	0.95963	0.52613	0.443
Mof_C 	C 	0.30098	0.69133	0.69413	-0.206
Mof_C 	C 	0.35827	0.72283	0.69333	0.161
Mof_H 	H 	0.37507	0.76123	0.69213	0.021
Mof_C 	C 	0.26767	0.72003	0.69583	0.534
Mof_Ga	Ga	0.83959	0.05436	0.02235	3.008
Mof_O 	O 	0.85955	0.11582	0.96277	-0.784
Mof_O 	O 	0.88217	0.07577	0.87247	-0.334
Mof_O 	O 	0.92244	0.15966	0.62004	-0.932
Mof_O 	O 	0.91937	0.23652	0.59688	-0.387
Mof_O 	O 	0.89366	0.33377	0.81314	-0.905
Mof_O 	O 	0.86522	0.29038	0.92337	-0.368
Mof_O 	O 	0.88276	0.02122	0.02596	-0.883
Mof_O 	O 	0.95585	0.10352	0.03237	-0.419
Mof_C 	C 	0.88586	0.16048	0.84567	-0.13
Mof_C 	C 	0.89819	0.16002	0.76907	0.096
Mof_H 	H 	0.90093	0.13057	0.74947	0.046
Mof_C 	C 	0.9063	0.20337	0.72217	-0.148
Mof_C 	C 	0.90314	0.24754	0.75217	0.1
Mof_H 	H 	0.90953	0.27697	0.72107	0.039
Mof_C 	C 	0.89078	0.24861	0.82677	-0.136
Mof_C 	C 	0.88199	0.20542	0.87397	0.088
Mof_H 	H 	0.87353	0.20617	0.92457	0.061
Mof_C 	C 	0.87583	0.11367	0.89557	0.451
Mof_C 	C 	0.91678	0.20132	0.63977	0.478
Mof_C 	C 	0.88263	0.29297	0.85947	0.446
Mof_C 	C 	0.96764	0.02467	0.02747	-0.193
Mof_C 	C 	0.02493	0.05617	0.02667	0.128
Mof_H 	H 	0.04173	0.09457	0.02547	0.012
Mof_C 	C 	0.93433	0.05337	0.02917	0.502
Mof_Ga	Ga	0.88143	0.49374	0.35568	3.463
Mof_O 	O 	0.92293	0.47378	0.2961	-0.944
Mof_O 	O 	0.86026	0.45116	0.2058	-0.417
Mof_O 	O 	0.90388	0.41089	0.95337	-0.936
Mof_O 	O 	0.98381	0.41396	0.93021	-0.388
Mof_O 	O 	0.10677	0.43967	0.14647	-0.919
Mof_O 	O 	0.09182	0.46811	0.2567	-0.406
Mof_O 	O 	0.80512	0.45057	0.35929	-0.953
Mof_O 	O 	0.81433	0.37748	0.3657	-0.417
Mof_C 	C 	0.94128	0.44747	0.179	-0.226
Mof_C 	C 	0.92849	0.43514	0.1024	0.197
Mof_H 	H 	0.8963	0.4324	0.0828	-0.027
Mof_C 	C 	0.96373	0.42703	0.0555	-0.332
Mof_C 	C 	0.01106	0.43019	0.0855	0.199
Mof_H 	H 	0.0341	0.4238	0.0544	-0.027
Mof_C 	C 	0.02449	0.44255	0.1601	-0.231
Mof_C 	C 	0.99009	0.45134	0.2073	0.166
Mof_H 	H 	0.9993	0.4598	0.2579	0.016
Mof_C 	C 	0.9045	0.4575	0.2289	0.506
Mof_C 	C 	0.9512	0.41655	0.9731	0.617
Mof_C 	C 	0.077	0.4507	0.1928	0.473
Mof_C 	C 	0.72369	0.36569	0.3608	-0.219
Mof_C 	C 	0.6979	0.3084	0.36	0.163
Mof_H 	H 	0.7195	0.2916	0.3588	0.013
Mof_C 	C 	0.7857	0.399	0.3625	0.533
Mof_Ga	Ga	0.5481	0.82707	0.68901	3.474
Mof_O 	O 	0.5896	0.80711	0.62943	-0.938
Mof_O 	O 	0.52693	0.78449	0.53913	-0.396
Mof_O 	O 	0.57055	0.74422	0.2867	-0.935
Mof_O 	O 	0.65048	0.74729	0.26354	-0.396
Mof_O 	O 	0.77344	0.773	0.4798	-0.907
Mof_O 	O 	0.75849	0.80144	0.59003	-0.393
Mof_O 	O 	0.47179	0.7839	0.69262	-0.948
Mof_O 	O 	0.481	0.71081	0.69903	-0.407
Mof_C 	C 	0.60795	0.7808	0.51233	-0.164
Mof_C 	C 	0.59516	0.76847	0.43573	0.111
Mof_H 	H 	0.56297	0.76573	0.41613	0.033
Mof_C 	C 	0.6304	0.76036	0.38883	-0.166
Mof_C 	C 	0.67773	0.76352	0.41883	0.114
Mof_H 	H 	0.70077	0.75713	0.38773	0.03
Mof_C 	C 	0.69116	0.77588	0.49343	-0.16
Mof_C 	C 	0.65676	0.78467	0.54063	0.107
Mof_H 	H 	0.66597	0.79313	0.59123	0.037
Mof_C 	C 	0.57117	0.79083	0.56223	0.485
Mof_C 	C 	0.61787	0.74988	0.30643	0.482
Mof_C 	C 	0.74367	0.78403	0.52613	0.452
Mof_C 	C 	0.39036	0.69902	0.69413	-0.205
Mof_C 	C 	0.36457	0.64173	0.69333	0.161
Mof_H 	H 	0.38617	0.62493	0.69213	0.021
Mof_C 	C 	0.45237	0.73233	0.69583	0.534
Mof_Ga	Ga	0.21477	0.16041	0.02235	3.011
Mof_O 	O 	0.25626	0.14045	0.96277	-0.787
Mof_O 	O 	0.19359	0.11783	0.87247	-0.337
Mof_O 	O 	0.23721	0.07756	0.62004	-0.932
Mof_O 	O 	0.31714	0.08063	0.59688	-0.387
Mof_O 	O 	0.4401	0.10634	0.81314	-0.905
Mof_O 	O 	0.42515	0.13478	0.92337	-0.369
Mof_O 	O 	0.13845	0.11724	0.02596	-0.886
Mof_O 	O 	0.14766	0.04415	0.03237	-0.42
Mof_C 	C 	0.27461	0.11414	0.84567	-0.132
Mof_C 	C 	0.26182	0.10181	0.76907	0.096
Mof_H 	H 	0.22963	0.09907	0.74947	0.045
Mof_C 	C 	0.29706	0.0937	0.72217	-0.149
Mof_C 	C 	0.34439	0.09686	0.75217	0.101
Mof_H 	H 	0.36743	0.09047	0.72107	0.039
Mof_C 	C 	0.35782	0.10922	0.82677	-0.136
Mof_C 	C 	0.32342	0.11801	0.87397	0.089
Mof_H 	H 	0.33263	0.12647	0.92457	0.061
Mof_C 	C 	0.23783	0.12417	0.89557	0.452
Mof_C 	C 	0.28453	0.08322	0.63977	0.478
Mof_C 	C 	0.41033	0.11737	0.85947	0.446
Mof_C 	C 	0.05702	0.03236	0.02747	-0.197
Mof_C 	C 	0.03123	0.97507	0.02667	0.122
Mof_H 	H 	0.05283	0.95827	0.02547	0.013
Mof_C 	C 	0.11903	0.06567	0.02917	0.502
_end
