data_functionalizedCrystal
_audit_creation_method	'EQeq! by Chris Wilmer'
_symmetry_space_group_name_H-M	'P1'
_symmetry_Int_Tables_number	1
_symmetry_cell_setting	triclinic
loop_
_symmetry_equiv_pos_as_xyz
  x,y,z
_cell_length_a	9.6362
_cell_length_b	11.462
_cell_length_c	19.147
_cell_angle_alpha	90
_cell_angle_beta	97.98
_cell_angle_gamma	90
loop_
_atom_site_label
_atom_site_type_symbol
_atom_site_fract_x
_atom_site_fract_y
_atom_site_fract_z
_atom_site_charge
Mof_Cu	Cu	0.27973	0.61769	0.78841	0.828
Mof_Cu	Cu	0.95984	0.61678	0.88706	0.839
Mof_Cu	Cu	0.72027	0.61769	0.71159	0.828
Mof_Cu	Cu	0.04016	0.61678	0.61294	0.819
Mof_Cu	Cu	0.72027	0.38231	0.21159	0.828
Mof_Cu	Cu	0.04016	0.38322	0.11294	0.819
Mof_Cu	Cu	0.27973	0.38231	0.28841	0.827
Mof_Cu	Cu	0.95984	0.38322	0.38706	0.839
Mof_Mo	Mo	6.3632e-33	0.61647	0.75	0.526
Mof_Mo	Mo	-1.35709e-17	0.38353	0.25	0.522
Mof_H 	H 	0.2119	0.4243	0.8876	-0.061
Mof_H 	H 	0.3194	0.2973	0.9711	0.103
Mof_H 	H 	0.6915	0.4255	0.9355	0.087
Mof_H 	H 	0.5724	0.5502	0.8535	-0.041
Mof_H 	H 	0.6947	0.2973	0.0309	0.084
Mof_H 	H 	0.5542	0.2405	0.0515	0.089
Mof_H 	H 	0.5458	0.1108	0.9531	0.008
Mof_H 	H 	0.6887	0.1665	0.9342	0.015
Mof_H 	H 	0.6611	0.0413	0.0613	0.098
Mof_H 	H 	0.8026	0.1059	0.0488	0.107
Mof_H 	H 	0.6273	0.9597	0.9005	0.085
Mof_H 	H 	0.7051	0.7897	0.8504	-0.033
Mof_H 	H 	0.0007	0.747	0.0209	-0.05
Mof_H 	H 	0.9229	0.917	0.0709	0.102
Mof_H 	H 	0.7881	0.4243	0.6124	-0.048
Mof_H 	H 	0.6806	0.2973	0.5289	0.106
Mof_H 	H 	0.3085	0.4255	0.5645	0.086
Mof_H 	H 	0.4276	0.5502	0.6465	-0.041
Mof_H 	H 	0.3053	0.2973	0.4691	0.084
Mof_H 	H 	0.4458	0.2405	0.4485	0.093
Mof_H 	H 	0.4542	0.1108	0.5469	0.004
Mof_H 	H 	0.3113	0.1665	0.5658	0.006
Mof_H 	H 	0.3389	0.0413	0.4387	0.098
Mof_H 	H 	0.1974	0.1059	0.4512	0.099
Mof_H 	H 	0.3727	0.9597	0.5995	0.082
Mof_H 	H 	0.2949	0.7897	0.6496	-0.032
Mof_H 	H 	0.9993	0.747	0.4791	0.032
Mof_H 	H 	0.0771	0.917	0.4291	0.069
Mof_H 	H 	0.7881	0.5757	0.1124	-0.049
Mof_H 	H 	0.6806	0.7027	0.0289	0.111
Mof_H 	H 	0.3085	0.5745	0.0645	0.09
Mof_H 	H 	0.4276	0.4498	0.1465	-0.042
Mof_H 	H 	0.3053	0.7027	0.9691	0.091
Mof_H 	H 	0.4458	0.7595	0.9485	0.1
Mof_H 	H 	0.4542	0.8892	0.0469	-0.002
Mof_H 	H 	0.3113	0.8335	0.0658	-0.001
Mof_H 	H 	0.3389	0.9587	0.9387	0.105
Mof_H 	H 	0.1974	0.8941	0.9512	0.107
Mof_H 	H 	0.3727	0.0403	0.0995	0.086
Mof_H 	H 	0.2949	0.2103	0.1496	-0.034
Mof_H 	H 	0.9993	0.253	0.9791	0.02
Mof_H 	H 	0.0771	0.083	0.9291	0.076
Mof_H 	H 	0.2119	0.5757	0.3876	-0.063
Mof_H 	H 	0.3194	0.7027	0.4711	0.109
Mof_H 	H 	0.6915	0.5745	0.4355	0.092
Mof_H 	H 	0.5724	0.4498	0.3535	-0.042
Mof_H 	H 	0.6947	0.7027	0.5309	0.091
Mof_H 	H 	0.5542	0.7595	0.5515	0.097
Mof_H 	H 	0.5458	0.8892	0.4531	0
Mof_H 	H 	0.6887	0.8335	0.4342	0.006
Mof_H 	H 	0.6611	0.9587	0.5613	0.107
Mof_H 	H 	0.8026	0.8941	0.5488	0.116
Mof_H 	H 	0.6273	0.0403	0.4005	0.091
Mof_H 	H 	0.7051	0.2103	0.3504	-0.036
Mof_H 	H 	0.0007	0.253	0.5209	-0.064
Mof_H 	H 	0.9229	0.083	0.5709	0.112
Mof_C 	C 	0.4437	0.695	0.7591	-0.191
Mof_C 	C 	0.3112	0.4255	0.8976	0.123
Mof_C 	C 	0.375	0.3484	0.9475	-0.225
Mof_C 	C 	0.518	0.3453	0.9629	0.172
Mof_C 	C 	0.592	0.4233	0.9268	-0.204
Mof_C 	C 	0.5197	0.4979	0.8779	0.106
Mof_C 	C 	0.605	0.2599	0.0115	-0.249
Mof_C 	C 	0.635	0.148	0.9733	0.044
Mof_C 	C 	0.7193	0.0643	0.0248	-0.252
Mof_C 	C 	0.7678	0.9543	0.9904	0.152
Mof_C 	C 	0.7031	0.9165	0.9249	-0.184
Mof_C 	C 	0.7493	0.8156	0.8952	0.077
Mof_C 	C 	0.9249	0.7902	0.9964	0.115
Mof_C 	C 	0.8787	0.8911	0.0262	-0.186
Mof_C 	C 	0.5563	0.695	0.7409	-0.189
Mof_C 	C 	0.6888	0.4255	0.6024	0.123
Mof_C 	C 	0.625	0.3484	0.5525	-0.225
Mof_C 	C 	0.482	0.3453	0.5371	0.181
Mof_C 	C 	0.408	0.4233	0.5732	-0.208
Mof_C 	C 	0.4803	0.4979	0.6221	0.107
Mof_C 	C 	0.395	0.2599	0.4885	-0.268
Mof_C 	C 	0.365	0.148	0.5267	0.064
Mof_C 	C 	0.2807	0.0643	0.4752	-0.261
Mof_C 	C 	0.2322	0.9543	0.5096	0.139
Mof_C 	C 	0.2969	0.9165	0.5751	-0.175
Mof_C 	C 	0.2507	0.8156	0.6048	0.064
Mof_C 	C 	0.0751	0.7902	0.5036	-0.002
Mof_C 	C 	0.1213	0.8911	0.4738	-0.15
Mof_C 	C 	0.5563	0.305	0.2409	-0.188
Mof_C 	C 	0.6888	0.5745	0.1024	0.129
Mof_C 	C 	0.625	0.6516	0.0525	-0.235
Mof_C 	C 	0.482	0.6547	0.0371	0.197
Mof_C 	C 	0.408	0.5767	0.0732	-0.216
Mof_C 	C 	0.4803	0.5021	0.1221	0.113
Mof_C 	C 	0.395	0.7401	0.9885	-0.296
Mof_C 	C 	0.365	0.852	0.0267	0.094
Mof_C 	C 	0.2807	0.9357	0.9752	-0.288
Mof_C 	C 	0.2322	0.0457	0.0096	0.16
Mof_C 	C 	0.2969	0.0835	0.0751	-0.188
Mof_C 	C 	0.2507	0.1844	0.1048	0.072
Mof_C 	C 	0.0751	0.2098	0.0036	0.023
Mof_C 	C 	0.1213	0.1089	0.9738	-0.178
Mof_C 	C 	0.4437	0.305	0.2591	-0.19
Mof_C 	C 	0.3112	0.5745	0.3976	0.129
Mof_C 	C 	0.375	0.6516	0.4475	-0.236
Mof_C 	C 	0.518	0.6547	0.4629	0.19
Mof_C 	C 	0.592	0.5767	0.4268	-0.214
Mof_C 	C 	0.5197	0.5021	0.3779	0.112
Mof_C 	C 	0.605	0.7401	0.5115	-0.28
Mof_C 	C 	0.635	0.852	0.4733	0.08
Mof_C 	C 	0.7193	0.9357	0.5248	-0.286
Mof_C 	C 	0.7678	0.0457	0.4904	0.182
Mof_C 	C 	0.7031	0.0835	0.4249	-0.201
Mof_C 	C 	0.7493	0.1844	0.3952	0.087
Mof_C 	C 	0.9249	0.2098	0.4964	0.147
Mof_C 	C 	0.8787	0.1089	0.5262	-0.224
Mof_S 	S 	0.1181	0.7255	0.83439	-0.589
Mof_S 	S 	0.8462	0.5066	0.79772	-0.531
Mof_S 	S 	0.8819	0.7255	0.66561	-0.538
Mof_S 	S 	0.1538	0.5066	0.70228	-0.562
Mof_S 	S 	0.8819	0.2745	0.16561	-0.535
Mof_S 	S 	0.1538	0.4934	0.20228	-0.561
Mof_S 	S 	0.1181	0.2745	0.33439	-0.588
Mof_S 	S 	0.8462	0.4934	0.29772	-0.529
Mof_N 	N 	0.3796	0.5007	0.863	-0.257
Mof_N 	N 	0.9946	0.5254	0.9742	-0.171
Mof_N 	N 	0.8602	0.7524	0.9309	-0.239
Mof_N 	N 	0.6204	0.5007	0.637	-0.255
Mof_N 	N 	0.0054	0.5254	0.5258	-0.216
Mof_N 	N 	0.1398	0.7524	0.5691	-0.228
Mof_N 	N 	0.6204	0.4993	0.137	-0.257
Mof_N 	N 	0.0054	0.4746	0.0258	-0.213
Mof_N 	N 	0.1398	0.2476	0.0691	-0.233
Mof_N 	N 	0.3796	0.4993	0.363	-0.259
Mof_N 	N 	0.9946	0.4746	0.4742	-0.167
Mof_N 	N 	0.8602	0.2476	0.4309	-0.245
_end
