data_functionalizedCrystal
_audit_creation_method	'EQeq! by Chris Wilmer'
_symmetry_space_group_name_H-M	'P1'
_symmetry_Int_Tables_number	1
_symmetry_cell_setting	triclinic
loop_
_symmetry_equiv_pos_as_xyz
  x,y,z
_cell_length_a	7.4564
_cell_length_b	9.1845
_cell_length_c	11.582
_cell_angle_alpha	100.842
_cell_angle_beta	104.303
_cell_angle_gamma	94.774
loop_
_atom_site_label
_atom_site_type_symbol
_atom_site_fract_x
_atom_site_fract_y
_atom_site_fract_z
_atom_site_charge
Mof_Cu	Cu	0.16072	0.12101	0.01208	0.906
Mof_Cu	Cu	0.36183	0.9196	0.77591	0.904
Mof_Cu	Cu	0.83928	0.87899	0.98792	0.906
Mof_Cu	Cu	0.63817	0.0804	0.22409	0.904
Mof_P 	P 	0.3523	0.83722	0.02408	0.433
Mof_P 	P 	0.0337	0.08259	0.24017	0.383
Mof_P 	P 	0.6477	0.16278	0.97592	0.433
Mof_P 	P 	0.9663	0.91741	0.75983	0.383
Mof_H 	H 	0.1592	0.415	0.1741	0.022
Mof_H 	H 	0.2258	0.6643	0.1789	0.064
Mof_H 	H 	0.3165	0.5567	0.8487	0.06
Mof_H 	H 	0.2493	0.3078	0.8505	0.016
Mof_H 	H 	0.1999	0.766	0.5233	0.003
Mof_H 	H 	0.0745	0.8171	0.3362	0.069
Mof_H 	H 	0.285	0.248	0.4751	0.062
Mof_H 	H 	0.4075	0.1863	0.6603	0.019
Mof_H 	H 	0.8408	0.585	0.8259	0.022
Mof_H 	H 	0.7742	0.3357	0.8211	0.064
Mof_H 	H 	0.6835	0.4433	0.1513	0.06
Mof_H 	H 	0.7507	0.6922	0.1495	0.016
Mof_H 	H 	0.8001	0.234	0.4767	0.003
Mof_H 	H 	0.9255	0.1829	0.6638	0.069
Mof_H 	H 	0.715	0.752	0.5249	0.062
Mof_H 	H 	0.5925	0.8137	0.3397	0.019
Mof_C 	C 	0.1921	0.4437	0.1084	0.043
Mof_C 	C 	0.2325	0.5937	0.1116	-0.074
Mof_C 	C 	0.2831	0.6408	0.0156	-0.015
Mof_C 	C 	0.2865	0.5302	0.9159	-0.074
Mof_C 	C 	0.2451	0.3805	0.9172	0.051
Mof_C 	C 	0.2146	0.8644	0.514	0.05
Mof_C 	C 	0.1383	0.8947	0.4011	-0.079
Mof_C 	C 	0.1563	0.0404	0.3839	-0.011
Mof_C 	C 	0.2631	0.1498	0.4833	-0.083
Mof_C 	C 	0.3369	0.112	0.5949	0.05
Mof_C 	C 	0.8079	0.5563	0.8916	0.043
Mof_C 	C 	0.7675	0.4063	0.8884	-0.074
Mof_C 	C 	0.7169	0.3592	0.9844	-0.015
Mof_C 	C 	0.7135	0.4698	0.0841	-0.074
Mof_C 	C 	0.7549	0.6195	0.0828	0.051
Mof_C 	C 	0.7854	0.1356	0.486	0.05
Mof_C 	C 	0.8617	0.1053	0.5989	-0.079
Mof_C 	C 	0.8437	0.9596	0.6161	-0.011
Mof_C 	C 	0.7369	0.8502	0.5167	-0.083
Mof_C 	C 	0.6631	0.888	0.4051	0.05
Mof_N 	N 	0.199	0.3373	0.0124	-0.21
Mof_N 	N 	0.3093	0.9714	0.6111	-0.211
Mof_N 	N 	0.801	0.6627	0.9876	-0.21
Mof_N 	N 	0.6907	0.0286	0.3889	-0.211
Mof_O 	O 	0.1822	0.1533	0.1897	-0.377
Mof_O 	O 	0.1742	0.9074	0.0056	-0.431
Mof_O 	O 	0.9272	0.9318	0.1667	-0.397
Mof_O 	O 	0.4838	0.8904	0.1515	-0.389
Mof_O 	O 	0.4502	0.845	0.9245	-0.431
Mof_O 	O 	0.8992	0.192	0.2705	-0.353
Mof_O 	O 	0.8178	0.8467	0.8103	-0.377
Mof_O 	O 	0.8258	0.0926	0.9944	-0.431
Mof_O 	O 	0.0728	0.0682	0.8333	-0.397
Mof_O 	O 	0.5162	0.1096	0.8485	-0.389
Mof_O 	O 	0.5498	0.155	0.0755	-0.431
Mof_O 	O 	0.1008	0.808	0.7295	-0.353
_end
