data_functionalizedCrystal
_audit_creation_method	'EQeq! by Chris Wilmer'
_symmetry_space_group_name_H-M	'P1'
_symmetry_Int_Tables_number	1
_symmetry_cell_setting	triclinic
loop_
_symmetry_equiv_pos_as_xyz
  x,y,z
_cell_length_a	18.5153
_cell_length_b	18.5153
_cell_length_c	25.0576
_cell_angle_alpha	90
_cell_angle_beta	90
_cell_angle_gamma	90
loop_
_atom_site_label
_atom_site_type_symbol
_atom_site_fract_x
_atom_site_fract_y
_atom_site_fract_z
_atom_site_charge
Mof_Cu	Cu	0.40334	0.59666	0.5	0.879
Mof_Cu	Cu	0.59666	0.40334	0.5	0.879
Mof_Cu	Cu	0.90334	0.90334	-0	0.881
Mof_Cu	Cu	0.09666	0.09666	-0	0.871
Mof_Cu	Cu	0.5	0.5	0.39839	0.874
Mof_Cu	Cu	-1.89506e-32	0	0.89839	0.852
Mof_Cu	Cu	-9.53737e-34	-1.46933e-33	0.10161	0.851
Mof_Cu	Cu	0.5	0.5	0.60161	0.876
Mof_Si	Si	0.5	0	0.25	0.734
Mof_Si	Si	0.5	0	0.75	0.734
Mof_Si	Si	-1.6701e-33	0.5	0.25	0.734
Mof_Si	Si	-7.94897e-33	0.5	0.75	0.734
Mof_H 	H 	0.5652	0.7518	0.2946	0.087
Mof_H 	H 	0.5676	0.8577	0.245	-0.014
Mof_H 	H 	0.4403	0.9543	0.3533	-0.01
Mof_H 	H 	0.4375	0.848	0.4029	0.088
Mof_H 	H 	0.4348	0.2482	0.2946	0.088
Mof_H 	H 	0.4324	0.1423	0.245	-0.029
Mof_H 	H 	0.5597	0.0457	0.3533	-0.032
Mof_H 	H 	0.5625	0.152	0.4029	0.088
Mof_H 	H 	0.7482	0.0652	0.7946	0.119
Mof_H 	H 	0.6423	0.0676	0.745	-0.047
Mof_H 	H 	0.5457	0.9403	0.8533	-0.047
Mof_H 	H 	0.652	0.9375	0.9029	0.119
Mof_H 	H 	0.2518	0.9348	0.7946	0.058
Mof_H 	H 	0.3577	0.9324	0.745	0.007
Mof_H 	H 	0.4543	0.0597	0.8533	0.008
Mof_H 	H 	0.348	0.0625	0.9029	0.062
Mof_H 	H 	0.9348	0.2518	0.2054	0.058
Mof_H 	H 	0.9324	0.3577	0.255	0.006
Mof_H 	H 	0.0597	0.4543	0.1467	0.004
Mof_H 	H 	0.0625	0.348	0.0971	0.057
Mof_H 	H 	0.0652	0.7482	0.2054	0.117
Mof_H 	H 	0.0676	0.6423	0.255	-0.047
Mof_H 	H 	0.9403	0.5457	0.1467	-0.049
Mof_H 	H 	0.9375	0.652	0.0971	0.112
Mof_H 	H 	0.7518	0.5652	0.7054	0.088
Mof_H 	H 	0.8577	0.5676	0.755	-0.012
Mof_H 	H 	0.9543	0.4403	0.6467	-0.01
Mof_H 	H 	0.848	0.4375	0.5971	0.088
Mof_H 	H 	0.2482	0.4348	0.7054	0.089
Mof_H 	H 	0.1423	0.4324	0.755	-0.028
Mof_H 	H 	0.0457	0.5597	0.6467	-0.032
Mof_H 	H 	0.152	0.5625	0.5971	0.088
Mof_H 	H 	0.4348	0.2482	0.7054	0.089
Mof_H 	H 	0.4324	0.1423	0.755	-0.028
Mof_H 	H 	0.5597	0.0457	0.6467	-0.032
Mof_H 	H 	0.5625	0.152	0.5971	0.088
Mof_H 	H 	0.5652	0.7518	0.7054	0.088
Mof_H 	H 	0.5676	0.8577	0.755	-0.012
Mof_H 	H 	0.4403	0.9543	0.6467	-0.01
Mof_H 	H 	0.4375	0.848	0.5971	0.088
Mof_H 	H 	0.2518	0.9348	0.2054	0.058
Mof_H 	H 	0.3577	0.9324	0.255	0.006
Mof_H 	H 	0.4543	0.0597	0.1467	0.004
Mof_H 	H 	0.348	0.0625	0.0971	0.057
Mof_H 	H 	0.7482	0.0652	0.2054	0.117
Mof_H 	H 	0.6423	0.0676	0.255	-0.047
Mof_H 	H 	0.5457	0.9403	0.1467	-0.049
Mof_H 	H 	0.652	0.9375	0.0971	0.112
Mof_H 	H 	0.0652	0.7482	0.7946	0.119
Mof_H 	H 	0.0676	0.6423	0.745	-0.047
Mof_H 	H 	0.9403	0.5457	0.8533	-0.047
Mof_H 	H 	0.9375	0.652	0.9029	0.119
Mof_H 	H 	0.9348	0.2518	0.7946	0.058
Mof_H 	H 	0.9324	0.3577	0.745	0.007
Mof_H 	H 	0.0597	0.4543	0.8533	0.008
Mof_H 	H 	0.0625	0.348	0.9029	0.062
Mof_H 	H 	0.2482	0.4348	0.2946	0.088
Mof_H 	H 	0.1423	0.4324	0.245	-0.029
Mof_H 	H 	0.0457	0.5597	0.3533	-0.032
Mof_H 	H 	0.152	0.5625	0.4029	0.088
Mof_H 	H 	0.7518	0.5652	0.2946	0.087
Mof_H 	H 	0.8577	0.5676	0.245	-0.014
Mof_H 	H 	0.9543	0.4403	0.3533	-0.01
Mof_H 	H 	0.848	0.4375	0.4029	0.088
Mof_C 	C 	0.49354	0.72117	0.38312	0.09
Mof_C 	C 	0.49995	0.78936	0.35332	0.075
Mof_C 	C 	0.53907	0.79284	0.30663	-0.152
Mof_C 	C 	0.54039	0.85626	0.2771	0.118
Mof_C 	C 	0.50322	0.91743	0.29304	-0.267
Mof_C 	C 	0.46559	0.91304	0.3406	0.117
Mof_C 	C 	0.46394	0.84954	0.37038	-0.151
Mof_C 	C 	0.50646	0.27883	0.38312	0.083
Mof_C 	C 	0.50005	0.21064	0.35332	0.082
Mof_C 	C 	0.46093	0.20716	0.30663	-0.168
Mof_C 	C 	0.45961	0.14374	0.2771	0.132
Mof_C 	C 	0.49678	0.08257	0.29304	-0.305
Mof_C 	C 	0.53441	0.08696	0.3406	0.133
Mof_C 	C 	0.53606	0.15046	0.37038	-0.169
Mof_C 	C 	0.77883	0.99354	0.88312	0.093
Mof_C 	C 	0.71064	0.99995	0.85332	0.169
Mof_C 	C 	0.70716	0.03907	0.80663	-0.265
Mof_C 	C 	0.64374	0.04039	0.7771	0.2
Mof_C 	C 	0.58257	0.00322	0.79304	-0.377
Mof_C 	C 	0.58696	0.96559	0.8406	0.232
Mof_C 	C 	0.65046	0.96394	0.87038	-0.233
Mof_C 	C 	0.22117	0.00646	0.88312	0.082
Mof_C 	C 	0.28936	5e-05	0.85332	-0.011
Mof_C 	C 	0.29284	0.96093	0.80663	-0.051
Mof_C 	C 	0.35626	0.95961	0.7771	0.05
Mof_C 	C 	0.41743	0.99678	0.79304	-0.193
Mof_C 	C 	0.41304	0.03441	0.8406	0.018
Mof_C 	C 	0.34954	0.03606	0.87038	-0.084
Mof_C 	C 	0.00646	0.22117	0.11688	0.08
Mof_C 	C 	5e-05	0.28936	0.14668	-0.012
Mof_C 	C 	0.96093	0.29284	0.19337	-0.054
Mof_C 	C 	0.95961	0.35626	0.2229	0.05
Mof_C 	C 	0.99678	0.41743	0.20696	-0.195
Mof_C 	C 	0.03441	0.41304	0.1594	0.018
Mof_C 	C 	0.03606	0.34954	0.12962	-0.086
Mof_C 	C 	0.99354	0.77883	0.11688	0.091
Mof_C 	C 	0.99995	0.71064	0.14668	0.163
Mof_C 	C 	0.03907	0.70716	0.19337	-0.263
Mof_C 	C 	0.04039	0.64374	0.2229	0.197
Mof_C 	C 	0.00322	0.58257	0.20696	-0.376
Mof_C 	C 	0.96559	0.58696	0.1594	0.227
Mof_C 	C 	0.96394	0.65046	0.12962	-0.232
Mof_C 	C 	0.72117	0.49354	0.61688	0.09
Mof_C 	C 	0.78936	0.49995	0.64668	0.075
Mof_C 	C 	0.79284	0.53907	0.69337	-0.151
Mof_C 	C 	0.85626	0.54039	0.7229	0.118
Mof_C 	C 	0.91743	0.50322	0.70696	-0.267
Mof_C 	C 	0.91304	0.46559	0.6594	0.116
Mof_C 	C 	0.84954	0.46394	0.62962	-0.15
Mof_C 	C 	0.27883	0.50646	0.61688	0.084
Mof_C 	C 	0.21064	0.50005	0.64668	0.082
Mof_C 	C 	0.20716	0.46093	0.69337	-0.168
Mof_C 	C 	0.14374	0.45961	0.7229	0.132
Mof_C 	C 	0.08257	0.49678	0.70696	-0.305
Mof_C 	C 	0.08696	0.53441	0.6594	0.133
Mof_C 	C 	0.15046	0.53606	0.62962	-0.169
Mof_C 	C 	0.50646	0.27883	0.61688	0.084
Mof_C 	C 	0.50005	0.21064	0.64668	0.082
Mof_C 	C 	0.46093	0.20716	0.69337	-0.168
Mof_C 	C 	0.45961	0.14374	0.7229	0.132
Mof_C 	C 	0.49678	0.08257	0.70696	-0.305
Mof_C 	C 	0.53441	0.08696	0.6594	0.133
Mof_C 	C 	0.53606	0.15046	0.62962	-0.169
Mof_C 	C 	0.49354	0.72117	0.61688	0.09
Mof_C 	C 	0.49995	0.78936	0.64668	0.075
Mof_C 	C 	0.53907	0.79284	0.69337	-0.151
Mof_C 	C 	0.54039	0.85626	0.7229	0.118
Mof_C 	C 	0.50322	0.91743	0.70696	-0.267
Mof_C 	C 	0.46559	0.91304	0.6594	0.116
Mof_C 	C 	0.46394	0.84954	0.62962	-0.15
Mof_C 	C 	0.22117	0.00646	0.11688	0.08
Mof_C 	C 	0.28936	5e-05	0.14668	-0.012
Mof_C 	C 	0.29284	0.96093	0.19337	-0.054
Mof_C 	C 	0.35626	0.95961	0.2229	0.05
Mof_C 	C 	0.41743	0.99678	0.20696	-0.195
Mof_C 	C 	0.41304	0.03441	0.1594	0.018
Mof_C 	C 	0.34954	0.03606	0.12962	-0.086
Mof_C 	C 	0.77883	0.99354	0.11688	0.091
Mof_C 	C 	0.71064	0.99995	0.14668	0.163
Mof_C 	C 	0.70716	0.03907	0.19337	-0.263
Mof_C 	C 	0.64374	0.04039	0.2229	0.197
Mof_C 	C 	0.58257	0.00322	0.20696	-0.376
Mof_C 	C 	0.58696	0.96559	0.1594	0.227
Mof_C 	C 	0.65046	0.96394	0.12962	-0.232
Mof_C 	C 	0.99354	0.77883	0.88312	0.093
Mof_C 	C 	0.99995	0.71064	0.85332	0.169
Mof_C 	C 	0.03907	0.70716	0.80663	-0.265
Mof_C 	C 	0.04039	0.64374	0.7771	0.2
Mof_C 	C 	0.00322	0.58257	0.79304	-0.377
Mof_C 	C 	0.96559	0.58696	0.8406	0.232
Mof_C 	C 	0.96394	0.65046	0.87038	-0.233
Mof_C 	C 	0.00646	0.22117	0.88312	0.082
Mof_C 	C 	5e-05	0.28936	0.85332	-0.011
Mof_C 	C 	0.96093	0.29284	0.80663	-0.051
Mof_C 	C 	0.95961	0.35626	0.7771	0.05
Mof_C 	C 	0.99678	0.41743	0.79304	-0.193
Mof_C 	C 	0.03441	0.41304	0.8406	0.018
Mof_C 	C 	0.03606	0.34954	0.87038	-0.084
Mof_C 	C 	0.27883	0.50646	0.38312	0.083
Mof_C 	C 	0.21064	0.50005	0.35332	0.082
Mof_C 	C 	0.20716	0.46093	0.30663	-0.168
Mof_C 	C 	0.14374	0.45961	0.2771	0.132
Mof_C 	C 	0.08257	0.49678	0.29304	-0.305
Mof_C 	C 	0.08696	0.53441	0.3406	0.133
Mof_C 	C 	0.15046	0.53606	0.37038	-0.169
Mof_C 	C 	0.72117	0.49354	0.38312	0.09
Mof_C 	C 	0.78936	0.49995	0.35332	0.075
Mof_C 	C 	0.79284	0.53907	0.30663	-0.152
Mof_C 	C 	0.85626	0.54039	0.2771	0.118
Mof_C 	C 	0.91743	0.50322	0.29304	-0.267
Mof_C 	C 	0.91304	0.46559	0.3406	0.117
Mof_C 	C 	0.84954	0.46394	0.37038	-0.151
Mof_N 	N 	0.45992	0.64582	0.44104	-0.142
Mof_N 	N 	0.496	0.61068	0.4028	-0.14
Mof_N 	N 	0.51796	0.65695	0.36592	-0.097
Mof_N 	N 	0.45774	0.71575	0.4294	-0.097
Mof_N 	N 	0.54008	0.35418	0.44104	-0.143
Mof_N 	N 	0.504	0.38932	0.4028	-0.141
Mof_N 	N 	0.48204	0.34305	0.36592	-0.098
Mof_N 	N 	0.54226	0.28425	0.4294	-0.099
Mof_N 	N 	0.85418	0.95992	0.94104	-0.129
Mof_N 	N 	0.88932	0.996	0.9028	-0.108
Mof_N 	N 	0.84305	0.01796	0.86592	-0.12
Mof_N 	N 	0.78425	0.95774	0.9294	-0.091
Mof_N 	N 	0.14582	0.04008	0.94104	-0.14
Mof_N 	N 	0.11068	0.004	0.9028	-0.158
Mof_N 	N 	0.15695	0.98204	0.86592	-0.07
Mof_N 	N 	0.21575	0.04226	0.9294	-0.098
Mof_N 	N 	0.04008	0.14582	0.05896	-0.148
Mof_N 	N 	0.004	0.11068	0.0972	-0.16
Mof_N 	N 	0.98204	0.15695	0.13408	-0.072
Mof_N 	N 	0.04226	0.21575	0.0706	-0.104
Mof_N 	N 	0.95992	0.85418	0.05896	-0.138
Mof_N 	N 	0.996	0.88932	0.0972	-0.111
Mof_N 	N 	0.01796	0.84305	0.13408	-0.12
Mof_N 	N 	0.95774	0.78425	0.0706	-0.098
Mof_N 	N 	0.64582	0.45992	0.55896	-0.142
Mof_N 	N 	0.61068	0.496	0.5972	-0.14
Mof_N 	N 	0.65695	0.51796	0.63408	-0.096
Mof_N 	N 	0.71575	0.45774	0.5706	-0.097
Mof_N 	N 	0.35418	0.54008	0.55896	-0.143
Mof_N 	N 	0.38932	0.504	0.5972	-0.14
Mof_N 	N 	0.34305	0.48204	0.63408	-0.097
Mof_N 	N 	0.28425	0.54226	0.5706	-0.099
Mof_N 	N 	0.54008	0.35418	0.55896	-0.143
Mof_N 	N 	0.504	0.38932	0.5972	-0.14
Mof_N 	N 	0.48204	0.34305	0.63408	-0.097
Mof_N 	N 	0.54226	0.28425	0.5706	-0.099
Mof_N 	N 	0.45992	0.64582	0.55896	-0.142
Mof_N 	N 	0.496	0.61068	0.5972	-0.14
Mof_N 	N 	0.51796	0.65695	0.63408	-0.096
Mof_N 	N 	0.45774	0.71575	0.5706	-0.097
Mof_N 	N 	0.14582	0.04008	0.05896	-0.148
Mof_N 	N 	0.11068	0.004	0.0972	-0.16
Mof_N 	N 	0.15695	0.98204	0.13408	-0.072
Mof_N 	N 	0.21575	0.04226	0.0706	-0.104
Mof_N 	N 	0.85418	0.95992	0.05896	-0.138
Mof_N 	N 	0.88932	0.996	0.0972	-0.111
Mof_N 	N 	0.84305	0.01796	0.13408	-0.12
Mof_N 	N 	0.78425	0.95774	0.0706	-0.098
Mof_N 	N 	0.95992	0.85418	0.94104	-0.129
Mof_N 	N 	0.996	0.88932	0.9028	-0.108
Mof_N 	N 	0.01796	0.84305	0.86592	-0.12
Mof_N 	N 	0.95774	0.78425	0.9294	-0.091
Mof_N 	N 	0.04008	0.14582	0.94104	-0.14
Mof_N 	N 	0.004	0.11068	0.9028	-0.158
Mof_N 	N 	0.98204	0.15695	0.86592	-0.07
Mof_N 	N 	0.04226	0.21575	0.9294	-0.098
Mof_N 	N 	0.35418	0.54008	0.44104	-0.143
Mof_N 	N 	0.38932	0.504	0.4028	-0.141
Mof_N 	N 	0.34305	0.48204	0.36592	-0.098
Mof_N 	N 	0.28425	0.54226	0.4294	-0.099
Mof_N 	N 	0.64582	0.45992	0.44104	-0.142
Mof_N 	N 	0.61068	0.496	0.4028	-0.14
Mof_N 	N 	0.65695	0.51796	0.36592	-0.097
Mof_N 	N 	0.71575	0.45774	0.4294	-0.097
Mof_Cl	Cl	0.5	0.5	0.5	-0.693
Mof_Cl	Cl	-0	0	-0	-0.754
_end
