# CIF file generated by openbabel 3.1.0, see https://openbabel.org
data_I
_chemical_name_common 'image0'
_cell_length_a 12.3927
_cell_length_b 13.2752
_cell_length_c 14.3563
_cell_angle_alpha 81.027
_cell_angle_beta 77.828
_cell_angle_gamma 89.565
_space_group_name_H-M_alt 'P 1'
_space_group_name_Hall 'P 1'
loop_
    _symmetry_equiv_pos_as_xyz
    x,y,z
loop_
    _atom_site_label
    _atom_site_type_symbol
    _atom_site_fract_x
    _atom_site_fract_y
    _atom_site_fract_z
    _atom_site_occupancy
    Er1      Er       0.68069    0.86313    0.66363    1.000
    Er2      Er       0.39816    0.40914    0.77594    1.000
    Ru1      Ru       0.65763    0.25983    0.48399    1.000
    Ru2      Ru       0.26305    0.66117    0.04208    1.000
    N1       N        0.80510    0.31200    0.51420    1.000
    C1       C        0.81800    0.36430    0.58410    1.000
    H1       H        0.75420    0.38460    0.62570    1.000
    C2       C        0.91920    0.38920    0.59760    1.000
    H2       H        0.92660    0.42640    0.64740    1.000
    C3       C        0.01000    0.35910    0.53710    1.000
    H3       H        0.08150    0.37320    0.54700    1.000
    O1       O        0.70500    0.90140    0.81640    1.000
    O2       O        0.72800    0.84800    0.80990    1.000
    N2       N        0.00070    0.31000    0.46410    1.000
    O3       O        0.80080    0.73130    0.70080    1.000
    O4       O        0.78440    0.71500    0.65990    1.000
    C4       C        0.89970    0.28890    0.45410    1.000
    N3       N        0.77800    0.22380    0.36710    1.000
    C5       C        0.76030    0.18140    0.29190    1.000
    H4       H        0.68710    0.17190    0.28370    1.000
    C6       C        0.84890    0.15220    0.22710    1.000
    H5       H        0.83740    0.12260    0.17370    1.000
    C7       C        0.95200    0.16580    0.24020    1.000
    H6       H        0.01280    0.14370    0.19640    1.000
    N4       N        0.97080    0.20970    0.31310    1.000
    C8       C        0.88380    0.23840    0.37390    1.000
    N5       N        0.10800    0.66230    0.00180    1.000
    C9       C        0.08120    0.61410    0.93460    1.000
    H7       H        0.13490    0.57600    0.89810    1.000
    C10      C        0.97530    0.61970    0.91790    1.000
    H8       H        0.95390    0.58590    0.87070    1.000
    C11      C        0.90220    0.67680    0.97350    1.000
    H9       H        0.82930    0.68250    0.96250    1.000
    N6       N        0.92660    0.72330    0.04000    1.000
    C12      C        0.03000    0.71460    0.05010    1.000
    N7       N        0.16630    0.75400    0.13360    1.000
    C13      C        0.20240    0.80300    0.19830    1.000
    H10      H        0.27700    0.79800    0.20500    1.000
    C14      C        0.12960    0.85980    0.25390    1.000
    H11      H        0.15160    0.89290    0.30120    1.000
    C15      C        0.02530    0.86690    0.23860    1.000
    H12      H        0.97460    0.90720    0.27540    1.000
    N8       N        0.99080    0.82010    0.17470    1.000
    C16      C        0.06500    0.76680    0.12510    1.000
    C17      C        0.67710    0.11800    0.55480    1.000
    N9       N        0.68610    0.03530    0.59160    1.000
    C18      C        0.55640    0.29240    0.59930    1.000
    N10      N        0.49720    0.30880    0.66760    1.000
    C19      C        0.47140    0.78930    0.55710    1.000
    N11      N        0.54730    0.81520    0.58320    1.000
    C20      C        0.63470    0.39750    0.40870    1.000
    N12      N        0.61960    0.47230    0.36180    1.000
    C21      C        0.31880    0.78800    0.94460    1.000
    N13      N        0.35170    0.86140    0.89210    1.000
    C22      C        0.33340    0.57510    0.94700    1.000
    N14      N        0.36870    0.52460    0.88990    1.000
    C23      C        0.60180    0.33770    0.90770    1.000
    N15      N        0.52460    0.34530    0.87520    1.000
    C24      C        0.22440    0.53640    0.14720    1.000
    N16      N        0.21520    0.46610    0.20830    1.000
    N17      N        0.17930    0.40070    0.74150    1.000
    O5       O        0.20650    0.44820    0.80530    1.000
    O6       O        0.25250    0.34300    0.70300    1.000
    O7       O        0.08950    0.40770    0.72450    1.000
    N18      N        0.95450    0.96470    0.56520    1.000
    O8       O        0.86860    0.92890    0.63740    1.000
    O9       O        0.02680    0.02200    0.57750    1.000
    O10      O        0.97120    0.93310    0.48650    1.000
    Er3      Er       0.31931    0.13687    0.33637    1.000
    Er4      Er       0.60184    0.59086    0.22406    1.000
    Ru3      Ru       0.34237    0.74017    0.51601    1.000
    Ru4      Ru       0.73695    0.33883    0.95792    1.000
    N19      N        0.19490    0.68800    0.48580    1.000
    C25      C        0.18200    0.63570    0.41590    1.000
    H13      H        0.24580    0.61540    0.37430    1.000
    C26      C        0.08080    0.61080    0.40240    1.000
    H14      H        0.07340    0.57360    0.35260    1.000
    C27      C        0.99000    0.64090    0.46290    1.000
    H15      H        0.91850    0.62680    0.45300    1.000
    O11      O        0.29500    0.09860    0.18360    1.000
    O12      O        0.27200    0.15200    0.19010    1.000
    N20      N        0.99930    0.69000    0.53590    1.000
    O13      O        0.19920    0.26870    0.29920    1.000
    O14      O        0.21560    0.28500    0.34010    1.000
    C28      C        0.10030    0.71110    0.54590    1.000
    N21      N        0.22200    0.77620    0.63290    1.000
    C29      C        0.23970    0.81860    0.70810    1.000
    H16      H        0.31290    0.82810    0.71630    1.000
    C30      C        0.15110    0.84780    0.77290    1.000
    H17      H        0.16260    0.87740    0.82630    1.000
    C31      C        0.04800    0.83420    0.75980    1.000
    H18      H        0.98720    0.85630    0.80360    1.000
    N22      N        0.02920    0.79030    0.68690    1.000
    C32      C        0.11620    0.76160    0.62610    1.000
    N23      N        0.89200    0.33770    0.99820    1.000
    C33      C        0.91880    0.38590    0.06540    1.000
    H19      H        0.86510    0.42400    0.10190    1.000
    C34      C        0.02470    0.38030    0.08210    1.000
    H20      H        0.04610    0.41410    0.12930    1.000
    C35      C        0.09780    0.32320    0.02650    1.000
    H21      H        0.17070    0.31750    0.03750    1.000
    N24      N        0.07340    0.27670    0.96000    1.000
    C36      C        0.97000    0.28540    0.94990    1.000
    N25      N        0.83370    0.24600    0.86640    1.000
    C37      C        0.79760    0.19700    0.80170    1.000
    H22      H        0.72300    0.20200    0.79500    1.000
    C38      C        0.87040    0.14020    0.74610    1.000
    H23      H        0.84840    0.10710    0.69880    1.000
    C39      C        0.97470    0.13310    0.76140    1.000
    H24      H        0.02540    0.09280    0.72460    1.000
    N26      N        0.00920    0.17990    0.82530    1.000
    C40      C        0.93500    0.23320    0.87490    1.000
    C41      C        0.32290    0.88200    0.44520    1.000
    N27      N        0.31390    0.96470    0.40840    1.000
    C42      C        0.44360    0.70760    0.40070    1.000
    N28      N        0.50280    0.69120    0.33240    1.000
    C43      C        0.52860    0.21070    0.44290    1.000
    N29      N        0.45270    0.18480    0.41680    1.000
    C44      C        0.36530    0.60250    0.59130    1.000
    N30      N        0.38040    0.52770    0.63820    1.000
    C45      C        0.68120    0.21200    0.05540    1.000
    N31      N        0.64830    0.13860    0.10790    1.000
    C46      C        0.66660    0.42490    0.05300    1.000
    N32      N        0.63130    0.47540    0.11010    1.000
    C47      C        0.39820    0.66230    0.09230    1.000
    N33      N        0.47540    0.65470    0.12480    1.000
    C48      C        0.77560    0.46360    0.85280    1.000
    N34      N        0.78480    0.53390    0.79170    1.000
    N35      N        0.82070    0.59930    0.25850    1.000
    O15      O        0.79350    0.55180    0.19470    1.000
    O16      O        0.74750    0.65700    0.29700    1.000
    O17      O        0.91050    0.59230    0.27550    1.000
    N36      N        0.04550    0.03530    0.43480    1.000
    O18      O        0.13140    0.07110    0.36260    1.000
    O19      O        0.97320    0.97800    0.42250    1.000
    O20      O        0.02880    0.06690    0.51350    1.000
