# CIF file generated by openbabel 3.1.0, see https://openbabel.org
data_I
_chemical_name_common 'image0'
_cell_length_a 12.825
_cell_length_b 14.903
_cell_length_c 15.963
_cell_angle_alpha 90
_cell_angle_beta 92.847
_cell_angle_gamma 90
_space_group_name_H-M_alt 'P 1'
_space_group_name_Hall 'P 1'
loop_
    _symmetry_equiv_pos_as_xyz
    x,y,z
loop_
    _atom_site_label
    _atom_site_type_symbol
    _atom_site_fract_x
    _atom_site_fract_y
    _atom_site_fract_z
    _atom_site_occupancy
    Cu1      Cu       0.97122    0.19670    0.10749    1.000
    C1       C        0.59880    0.31460    0.76500    1.000
    H1       H        0.57240    0.37260    0.76650    1.000
    C2       C        0.66740    0.28650    0.82920    1.000
    H2       H        0.68490    0.32510    0.87350    1.000
    C3       C        0.70960    0.20210    0.82790    1.000
    C4       C        0.68000    0.14740    0.76080    1.000
    H3       H        0.70620    0.08950    0.75720    1.000
    C5       C        0.61120    0.18030    0.69990    1.000
    H4       H        0.59270    0.14330    0.65460    1.000
    C6       C        0.78300    0.17020    0.89420    1.000
    C7       C        0.32250    0.25260    0.73130    1.000
    H5       H        0.34550    0.30660    0.75490    1.000
    C8       C        0.25620    0.20120    0.77500    1.000
    H6       H        0.23470    0.22050    0.82680    1.000
    C9       C        0.22110    0.12060    0.74230    1.000
    C10      C        0.25400    0.09680    0.66400    1.000
    H7       H        0.23110    0.04370    0.63860    1.000
    C11      C        0.32120    0.15320    0.62420    1.000
    H8       H        0.34320    0.13650    0.57180    1.000
    C12      C        0.15550    0.06040    0.79000    1.000
    N1       N        0.56950    0.26160    0.70150    1.000
    N2       N        0.81060    0.21840    0.96290    1.000
    N3       N        0.87910    0.16610    0.00440    1.000
    N4       N        0.89270    0.09150    0.96160    1.000
    N5       N        0.83270    0.09240    0.89220    1.000
    N6       N        0.35590    0.22990    0.65710    1.000
    N7       N        0.11750    0.08450    0.86310    1.000
    N8       N        0.06970    0.01210    0.88850    1.000
    N9       N        0.07920    0.94560    0.83370    1.000
    N10      N        0.13440    0.97520    0.77050    1.000
    N11      N        0.08430    0.12610    0.05780    1.000
    N12      N        0.17010    0.13780    0.07090    1.000
    N13      N        0.25600    0.14530    0.08680    1.000
    Cu2      Cu       0.52878    0.69670    0.39251    1.000
    C13      C        0.90120    0.81460    0.73500    1.000
    H9       H        0.92760    0.87260    0.73350    1.000
    C14      C        0.83260    0.78650    0.67080    1.000
    H10      H        0.81510    0.82510    0.62650    1.000
    C15      C        0.79040    0.70210    0.67210    1.000
    C16      C        0.82000    0.64740    0.73920    1.000
    H11      H        0.79380    0.58950    0.74280    1.000
    C17      C        0.88880    0.68030    0.80010    1.000
    H12      H        0.90730    0.64330    0.84540    1.000
    C18      C        0.71700    0.67020    0.60580    1.000
    C19      C        0.17750    0.75260    0.76870    1.000
    H13      H        0.15450    0.80660    0.74510    1.000
    C20      C        0.24380    0.70120    0.72500    1.000
    H14      H        0.26530    0.72050    0.67320    1.000
    C21      C        0.27890    0.62060    0.75770    1.000
    C22      C        0.24600    0.59680    0.83600    1.000
    H15      H        0.26890    0.54370    0.86140    1.000
    C23      C        0.17880    0.65320    0.87580    1.000
    H16      H        0.15680    0.63650    0.92820    1.000
    C24      C        0.34450    0.56040    0.71000    1.000
    N14      N        0.93050    0.76160    0.79850    1.000
    N15      N        0.68940    0.71840    0.53710    1.000
    N16      N        0.62090    0.66610    0.49560    1.000
    N17      N        0.60730    0.59150    0.53840    1.000
    N18      N        0.66730    0.59240    0.60780    1.000
    N19      N        0.14410    0.72990    0.84290    1.000
    N20      N        0.38250    0.58450    0.63690    1.000
    N21      N        0.43030    0.51210    0.61150    1.000
    N22      N        0.42080    0.44560    0.66630    1.000
    N23      N        0.36560    0.47520    0.72950    1.000
    N24      N        0.41570    0.62610    0.44220    1.000
    N25      N        0.32990    0.63780    0.42910    1.000
    N26      N        0.24400    0.64530    0.41320    1.000
    Cu3      Cu       0.02878    0.80330    0.89251    1.000
    C25      C        0.40120    0.68540    0.23500    1.000
    H17      H        0.42760    0.62740    0.23350    1.000
    C26      C        0.33260    0.71350    0.17080    1.000
    H18      H        0.31510    0.67490    0.12650    1.000
    C27      C        0.29040    0.79790    0.17210    1.000
    C28      C        0.32000    0.85260    0.23920    1.000
    H19      H        0.29380    0.91050    0.24280    1.000
    C29      C        0.38880    0.81970    0.30010    1.000
    H20      H        0.40730    0.85670    0.34540    1.000
    C30      C        0.21700    0.82980    0.10580    1.000
    C31      C        0.67750    0.74740    0.26870    1.000
    H21      H        0.65450    0.69340    0.24510    1.000
    C32      C        0.74380    0.79880    0.22500    1.000
    H22      H        0.76530    0.77950    0.17320    1.000
    C33      C        0.77890    0.87940    0.25770    1.000
    C34      C        0.74600    0.90320    0.33600    1.000
    H23      H        0.76890    0.95630    0.36140    1.000
    C35      C        0.67880    0.84680    0.37580    1.000
    H24      H        0.65680    0.86350    0.42820    1.000
    C36      C        0.84450    0.93960    0.21000    1.000
    N27      N        0.43050    0.73840    0.29850    1.000
    N28      N        0.18940    0.78160    0.03710    1.000
    N29      N        0.12090    0.83390    0.99560    1.000
    N30      N        0.10730    0.90850    0.03840    1.000
    N31      N        0.16730    0.90760    0.10780    1.000
    N32      N        0.64410    0.77010    0.34290    1.000
    N33      N        0.88250    0.91550    0.13690    1.000
    N34      N        0.93030    0.98790    0.11150    1.000
    N35      N        0.92080    0.05440    0.16630    1.000
    N36      N        0.86560    0.02480    0.22950    1.000
    N37      N        0.91570    0.87390    0.94220    1.000
    N38      N        0.82990    0.86220    0.92910    1.000
    N39      N        0.74400    0.85470    0.91320    1.000
    Cu4      Cu       0.47122    0.30330    0.60749    1.000
    C37      C        0.09880    0.18540    0.26500    1.000
    H25      H        0.07240    0.12740    0.26650    1.000
    C38      C        0.16740    0.21350    0.32920    1.000
    H26      H        0.18490    0.17490    0.37350    1.000
    C39      C        0.20960    0.29790    0.32790    1.000
    C40      C        0.18000    0.35260    0.26080    1.000
    H27      H        0.20620    0.41050    0.25720    1.000
    C41      C        0.11120    0.31970    0.19990    1.000
    H28      H        0.09270    0.35670    0.15460    1.000
    C42      C        0.28300    0.32980    0.39420    1.000
    C43      C        0.82250    0.24740    0.23130    1.000
    H29      H        0.84550    0.19340    0.25490    1.000
    C44      C        0.75620    0.29880    0.27500    1.000
    H30      H        0.73470    0.27950    0.32680    1.000
    C45      C        0.72110    0.37940    0.24230    1.000
    C46      C        0.75400    0.40320    0.16400    1.000
    H31      H        0.73110    0.45630    0.13860    1.000
    C47      C        0.82120    0.34680    0.12420    1.000
    H32      H        0.84320    0.36350    0.07180    1.000
    C48      C        0.65550    0.43960    0.29000    1.000
    N40      N        0.06950    0.23840    0.20150    1.000
    N41      N        0.31060    0.28160    0.46290    1.000
    N42      N        0.37910    0.33390    0.50440    1.000
    N43      N        0.39270    0.40850    0.46160    1.000
    N44      N        0.33270    0.40760    0.39220    1.000
    N45      N        0.85590    0.27010    0.15710    1.000
    N46      N        0.61750    0.41550    0.36310    1.000
    N47      N        0.56970    0.48790    0.38850    1.000
    N48      N        0.57920    0.55440    0.33370    1.000
    N49      N        0.63440    0.52480    0.27050    1.000
    N50      N        0.58430    0.37390    0.55780    1.000
    N51      N        0.67010    0.36220    0.57090    1.000
    N52      N        0.75600    0.35470    0.58680    1.000
    Cu5      Cu       0.00000    0.00000    0.00000    1.000
    Cu6      Cu       0.50000    0.50000    0.50000    1.000
