data_functionalizedCrystal
_audit_creation_method	'EQeq! by Chris Wilmer'
_symmetry_space_group_name_H-M	'P1'
_symmetry_Int_Tables_number	1
_symmetry_cell_setting	triclinic
loop_
_symmetry_equiv_pos_as_xyz
  x,y,z
_cell_length_a	12.3634
_cell_length_b	12.3634
_cell_length_c	12.539
_cell_angle_alpha	90
_cell_angle_beta	90
_cell_angle_gamma	120
loop_
_atom_site_label
_atom_site_type_symbol
_atom_site_fract_x
_atom_site_fract_y
_atom_site_fract_z
_atom_site_charge
Mof_Cu	Cu	0.33333	0.66666	0.1	0.85
Mof_Cu	Cu	0.33333	0.66666	0.4	0.859
Mof_Cu	Cu	4.06362e-17	0.5	0.5	0.832
Mof_Cu	Cu	0.5	0	-0	0.795
Mof_Cu	Cu	0.66667	0.33334	0.9	0.871
Mof_Cu	Cu	0.5	0.5	-0	0.822
Mof_Cu	Cu	0.5	0.5	0.5	0.866
Mof_Cu	Cu	3.42461e-17	0.5	-0	0.788
Mof_Cu	Cu	0.5	7.60416e-33	0.5	0.838
Mof_Cu	Cu	0.66667	0.33334	0.6	0.86
Mof_H 	H 	0.1067	0.55335	0.75	0.039
Mof_H 	H 	0.44665	0.55335	0.75	-0.006
Mof_H 	H 	0.55335	0.1067	0.25	0.024
Mof_H 	H 	0.2902	0.2404	0.369	0.008
Mof_H 	H 	0.7098	0.7596	0.631	0.035
Mof_H 	H 	0.8933	0.44665	0.25	-0.059
Mof_H 	H 	0.2902	0.2404	0.131	-0.001
Mof_H 	H 	0.2404	0.2902	0.869	0.022
Mof_H 	H 	0.2404	0.9502	0.631	0.036
Mof_H 	H 	0.2404	0.2902	0.631	0.012
Mof_H 	H 	0.2404	0.9502	0.869	0.045
Mof_H 	H 	0.55335	0.44665	0.25	-0.015
Mof_H 	H 	0.9502	0.7098	0.369	0.048
Mof_H 	H 	0.7596	0.0498	0.131	0
Mof_H 	H 	0.0498	0.7596	0.869	0.017
Mof_H 	H 	0.2902	0.0498	0.131	-0.012
Mof_H 	H 	0.7098	0.9502	0.869	0.058
Mof_H 	H 	0.44665	0.8933	0.75	-0.042
Mof_H 	H 	0.7596	0.7098	0.369	0.031
Mof_H 	H 	0.7098	0.9502	0.631	0.049
Mof_H 	H 	0.9502	0.2404	0.131	0.029
Mof_H 	H 	0.9502	0.2404	0.369	0.037
Mof_H 	H 	0.7098	0.7596	0.869	0.045
Mof_H 	H 	0.7596	0.7098	0.131	0.023
Mof_H 	H 	0.2902	0.0498	0.369	-0.004
Mof_H 	H 	0.7596	0.0498	0.369	0.008
Mof_H 	H 	0.0498	0.2902	0.869	0.008
Mof_H 	H 	0.0498	0.2902	0.631	-0.002
Mof_H 	H 	0.9502	0.7098	0.131	0.04
Mof_H 	H 	0.0498	0.7596	0.631	0.008
Mof_C 	C 	0.1231	0.7743	0.9056	0.016
Mof_C 	C 	0.1231	0.3488	0.9056	0.012
Mof_C 	C 	0.6512	0.8769	0.9056	0.027
Mof_C 	C 	0.7743	0.1231	0.4056	0.004
Mof_C 	C 	0.2257	0.8769	0.9056	0.023
Mof_C 	C 	0.491	0.982	0.75	0.23
Mof_C 	C 	0.491	0.509	0.75	0.1
Mof_C 	C 	0.7743	0.1231	0.0944	-0.009
Mof_C 	C 	0.6512	0.7743	0.5944	0.012
Mof_C 	C 	0.018	0.509	0.75	-0.057
Mof_C 	C 	0.3488	0.2257	0.0944	-0.012
Mof_C 	C 	0.7743	0.6512	0.0944	-0.002
Mof_C 	C 	0.3488	0.1231	0.0944	-0.015
Mof_C 	C 	0.1231	0.3488	0.5944	-0.002
Mof_C 	C 	0.8769	0.2257	0.0944	-0.003
Mof_C 	C 	0.8769	0.2257	0.4056	0.01
Mof_C 	C 	0.2257	0.3488	0.5944	0.002
Mof_C 	C 	0.2257	0.8769	0.5944	0.009
Mof_C 	C 	0.8769	0.6512	0.4056	0.015
Mof_C 	C 	0.7743	0.6512	0.4056	0.012
Mof_C 	C 	0.6512	0.8769	0.5944	0.014
Mof_C 	C 	0.1231	0.7743	0.5944	0.003
Mof_C 	C 	0.509	0.018	0.25	-0.033
Mof_C 	C 	0.509	0.491	0.25	0.1
Mof_C 	C 	0.8769	0.6512	0.0944	0.001
Mof_C 	C 	0.982	0.491	0.25	0.262
Mof_C 	C 	0.3488	0.2257	0.4056	0.002
Mof_C 	C 	0.2257	0.3488	0.9056	0.016
Mof_C 	C 	0.3488	0.1231	0.4056	-0.001
Mof_C 	C 	0.6512	0.7743	0.9056	0.025
Mof_N 	N 	0.1737	0.58685	0.3039	-0.155
Mof_N 	N 	0.41315	0.8263	0.1961	-0.152
Mof_N 	N 	0.1336	0.4456	0.5339	-0.181
Mof_N 	N 	0.5273	0.0546	0.835	-0.215
Mof_N 	N 	0.58685	0.1737	0.8039	-0.147
Mof_N 	N 	0.4727	0.5273	0.165	-0.188
Mof_N 	N 	0.25175	0.5035	0.4979	-0.15
Mof_N 	N 	0.58685	0.41315	0.6961	-0.149
Mof_N 	N 	0.1336	0.4456	0.9661	-0.119
Mof_N 	N 	0.688	0.1336	0.4661	-0.178
Mof_N 	N 	0.8664	0.5544	0.4661	-0.152
Mof_N 	N 	0.8664	0.312	0.4661	-0.153
Mof_N 	N 	0.58685	0.1737	0.6961	-0.152
Mof_N 	N 	0.312	0.4456	0.9661	-0.11
Mof_N 	N 	0.688	0.5544	0.0339	-0.22
Mof_N 	N 	0.5544	0.688	0.9661	-0.107
Mof_N 	N 	0.8664	0.312	0.0339	-0.204
Mof_N 	N 	0.8664	0.5544	0.0339	-0.202
Mof_N 	N 	0.688	0.1336	0.0339	-0.229
Mof_N 	N 	0.1336	0.688	0.5339	-0.18
Mof_N 	N 	0.9454	0.4727	0.665	-0.105
Mof_N 	N 	0.25175	0.5035	0.0021	-0.229
Mof_N 	N 	0.74825	0.25175	0.9979	-0.066
Mof_N 	N 	0.5273	0.0546	0.665	-0.233
Mof_N 	N 	0.0546	0.5273	0.335	-0.248
Mof_N 	N 	0.8263	0.41315	0.6961	-0.145
Mof_N 	N 	0.41315	0.8263	0.3039	-0.148
Mof_N 	N 	0.1336	0.688	0.9661	-0.118
Mof_N 	N 	0.312	0.8664	0.5339	-0.156
Mof_N 	N 	0.25175	0.74825	0.4979	-0.147
Mof_N 	N 	0.4456	0.1336	0.0339	-0.232
Mof_N 	N 	0.312	0.8664	0.9661	-0.095
Mof_N 	N 	0.5544	0.8664	0.5339	-0.155
Mof_N 	N 	0.4456	0.312	0.4661	-0.173
Mof_N 	N 	0.312	0.4456	0.5339	-0.172
Mof_N 	N 	0.9454	0.4727	0.835	-0.088
Mof_N 	N 	0.4727	0.9454	0.165	-0.125
Mof_N 	N 	0.74825	0.4965	0.9979	-0.064
Mof_N 	N 	0.5544	0.8664	0.9661	-0.094
Mof_N 	N 	0.41315	0.58685	0.3039	-0.152
Mof_N 	N 	0.5035	0.25175	0.5021	-0.149
Mof_N 	N 	0.58685	0.41315	0.8039	-0.144
Mof_N 	N 	0.4965	0.74825	0.4979	-0.145
Mof_N 	N 	0.688	0.5544	0.4661	-0.169
Mof_N 	N 	0.41315	0.58685	0.1961	-0.156
Mof_N 	N 	0.8263	0.41315	0.8039	-0.14
Mof_N 	N 	0.0546	0.5273	0.165	-0.256
Mof_N 	N 	0.4965	0.74825	0.0021	-0.223
Mof_N 	N 	0.74825	0.4965	0.5021	-0.144
Mof_N 	N 	0.5273	0.4727	0.665	-0.179
Mof_N 	N 	0.4727	0.5273	0.335	-0.18
Mof_N 	N 	0.5544	0.688	0.5339	-0.169
Mof_N 	N 	0.4727	0.9454	0.335	-0.118
Mof_N 	N 	0.1737	0.58685	0.1961	-0.16
Mof_N 	N 	0.4456	0.312	0.0339	-0.224
Mof_N 	N 	0.5273	0.4727	0.835	-0.161
Mof_N 	N 	0.74825	0.25175	0.5021	-0.146
Mof_N 	N 	0.4456	0.1336	0.4661	-0.18
Mof_N 	N 	0.5035	0.25175	0.9979	-0.067
Mof_N 	N 	0.25175	0.74825	0.0021	-0.225
_end
