# CIF file generated by openbabel 3.1.0, see https://openbabel.org
data_I
_chemical_name_common 'GEDRUE_clean'
_cell_length_a 13.2474
_cell_length_b 14.3769
_cell_length_c 16.1088
_cell_angle_alpha 116.503
_cell_angle_beta 99.4948
_cell_angle_gamma 90
_space_group_name_H-M_alt 'P 1'
_space_group_name_Hall 'P 1'
loop_
    _symmetry_equiv_pos_as_xyz
    x,y,z
loop_
    _atom_site_label
    _atom_site_type_symbol
    _atom_site_fract_x
    _atom_site_fract_y
    _atom_site_fract_z
    _atom_site_occupancy
    Nd1      Nd       0.45332    0.46871    0.36288    1.000
    Nd2      Nd       0.04668    0.10583    0.63712    1.000
    Nd3      Nd       0.54668    0.53129    0.63712    1.000
    Nd4      Nd       0.95332    0.89417    0.36288    1.000
    H1       H        0.58590    0.38330    0.06600    1.000
    H2       H        0.63380    0.27820    0.92460    1.000
    H3       H        0.60640    0.03160    0.97540    1.000
    H4       H        0.55190    0.13520    0.11360    1.000
    H5       H        0.65900    0.11800    0.81200    1.000
    H6       H        0.57500    0.80000    0.68160    1.000
    H7       H        0.77480    0.02800    0.71360    1.000
    H8       H        0.69520    0.78080    0.46200    1.000
    H9       H        0.91410    0.31730    0.93400    1.000
    H10      H        0.86620    0.35360    0.07540    1.000
    H11      H        0.89360    0.05620    0.02460    1.000
    H12      H        0.94810    0.02160    0.88640    1.000
    H13      H        0.84100    0.30600    0.18800    1.000
    H14      H        0.92500    0.11840    0.31840    1.000
    H15      H        0.72520    0.31440    0.28640    1.000
    H16      H        0.80480    0.31880    0.53800    1.000
    H17      H        0.41410    0.61670    0.93400    1.000
    H18      H        0.36620    0.72180    0.07540    1.000
    H19      H        0.39360    0.96840    0.02460    1.000
    H20      H        0.44810    0.86480    0.88640    1.000
    H21      H        0.34100    0.88200    0.18800    1.000
    H22      H        0.42500    0.20000    0.31840    1.000
    H23      H        0.22520    0.97200    0.28640    1.000
    H24      H        0.30480    0.21920    0.53800    1.000
    H25      H        0.08590    0.68270    0.06600    1.000
    H26      H        0.13380    0.64640    0.92460    1.000
    H27      H        0.10640    0.94380    0.97540    1.000
    H28      H        0.05190    0.97840    0.11360    1.000
    H29      H        0.15900    0.69400    0.81200    1.000
    H30      H        0.07500    0.88160    0.68160    1.000
    H31      H        0.27480    0.68560    0.71360    1.000
    H32      H        0.19520    0.68120    0.46200    1.000
    C1       C        0.52070    0.33680    0.19180    1.000
    C2       C        0.56110    0.27020    0.10420    1.000
    C3       C        0.58800    0.31210    0.04700    1.000
    C4       C        0.61760    0.24940    0.96280    1.000
    C5       C        0.62360    0.14390    0.93420    1.000
    C6       C        0.60030    0.10210    0.99280    1.000
    C7       C        0.56860    0.16420    0.07580    1.000
    C8       C        0.64890    0.07910    0.84180    1.000
    C9       C        0.56650    0.67010    0.50040    1.000
    C10      C        0.62520    0.77430    0.56180    1.000
    C11      C        0.61590    0.82900    0.65600    1.000
    C12      C        0.66800    0.92740    0.71220    1.000
    C13      C        0.73580    0.96510    0.67540    1.000
    C14      C        0.74620    0.90970    0.58180    1.000
    C15      C        0.69000    0.81640    0.52540    1.000
    C16      C        0.82010    0.95340    0.54240    1.000
    C17      C        0.97930    0.14500    0.80820    1.000
    C18      C        0.93890    0.16600    0.89580    1.000
    C19      C        0.91200    0.26510    0.95300    1.000
    C20      C        0.88240    0.28660    0.03720    1.000
    C21      C        0.87640    0.20970    0.06580    1.000
    C22      C        0.89970    0.10930    0.00720    1.000
    C23      C        0.93140    0.08840    0.92420    1.000
    C24      C        0.85110    0.23730    0.15820    1.000
    C25      C        0.93350    0.16970    0.49960    1.000
    C26      C        0.87480    0.21250    0.43820    1.000
    C27      C        0.88410    0.17300    0.34400    1.000
    C28      C        0.83200    0.21520    0.28780    1.000
    C29      C        0.76420    0.28970    0.32460    1.000
    C30      C        0.75380    0.32790    0.41820    1.000
    C31      C        0.81000    0.29100    0.47460    1.000
    C32      C        0.67990    0.41100    0.45760    1.000
    C33      C        0.47930    0.66320    0.80820    1.000
    C34      C        0.43890    0.72980    0.89580    1.000
    C35      C        0.41200    0.68790    0.95300    1.000
    C36      C        0.38240    0.75060    0.03720    1.000
    C37      C        0.37640    0.85610    0.06580    1.000
    C38      C        0.39970    0.89790    0.00720    1.000
    C39      C        0.43140    0.83580    0.92420    1.000
    C40      C        0.35110    0.92090    0.15820    1.000
    C41      C        0.43350    0.32990    0.49960    1.000
    C42      C        0.37480    0.22570    0.43820    1.000
    C43      C        0.38410    0.17100    0.34400    1.000
    C44      C        0.33200    0.07260    0.28780    1.000
    C45      C        0.26420    0.03490    0.32460    1.000
    C46      C        0.25380    0.09030    0.41820    1.000
    C47      C        0.31000    0.18360    0.47460    1.000
    C48      C        0.17990    0.04660    0.45760    1.000
    C49      C        0.02070    0.85500    0.19180    1.000
    C50      C        0.06110    0.83400    0.10420    1.000
    C51      C        0.08800    0.73490    0.04700    1.000
    C52      C        0.11760    0.71340    0.96280    1.000
    C53      C        0.12360    0.79030    0.93420    1.000
    C54      C        0.10030    0.89070    0.99280    1.000
    C55      C        0.06860    0.91160    0.07580    1.000
    C56      C        0.14890    0.76270    0.84180    1.000
    C57      C        0.06650    0.83030    0.50040    1.000
    C58      C        0.12520    0.78750    0.56180    1.000
    C59      C        0.11590    0.82700    0.65600    1.000
    C60      C        0.16800    0.78480    0.71220    1.000
    C61      C        0.23580    0.71030    0.67540    1.000
    C62      C        0.24620    0.67210    0.58180    1.000
    C63      C        0.19000    0.70900    0.52540    1.000
    C64      C        0.32010    0.58900    0.54240    1.000
    N1       N        0.65000    0.98096    0.80592    1.000
    N2       N        0.85000    0.17504    0.19408    1.000
    N3       N        0.35000    0.01904    0.19408    1.000
    N4       N        0.15000    0.82496    0.80592    1.000
    O1       O        0.48860    0.29594    0.23728    1.000
    O2       O        0.52130    0.43415    0.21710    1.000
    O3       O        0.54570    0.63968    0.41176    1.000
    O4       O        0.53810    0.61586    0.53672    1.000
    O5       O        0.86860    0.03938    0.59716    1.000
    O6       O        0.82690    0.89895    0.45750    1.000
    O7       O        0.01140    0.05866    0.76272    1.000
    O8       O        0.97870    0.21705    0.78290    1.000
    O9       O        0.95430    0.22792    0.58824    1.000
    O10      O        0.96190    0.07914    0.46328    1.000
    O11      O        0.63140    0.44222    0.40284    1.000
    O12      O        0.67310    0.44145    0.54250    1.000
    O13      O        0.51140    0.70406    0.76272    1.000
    O14      O        0.47870    0.56585    0.78290    1.000
    O15      O        0.45430    0.36032    0.58824    1.000
    O16      O        0.46190    0.38414    0.46328    1.000
    O17      O        0.13140    0.96062    0.40284    1.000
    O18      O        0.17310    0.10105    0.54250    1.000
    O19      O        0.98860    0.94134    0.23728    1.000
    O20      O        0.02130    0.78295    0.21710    1.000
    O21      O        0.04570    0.77208    0.41176    1.000
    O22      O        0.03810    0.92086    0.53672    1.000
    O23      O        0.36860    0.55778    0.59716    1.000
    O24      O        0.32690    0.55855    0.45750    1.000
