data_functionalizedCrystal
_audit_creation_method	'EQeq! by Chris Wilmer'
_symmetry_space_group_name_H-M	'P1'
_symmetry_Int_Tables_number	1
_symmetry_cell_setting	triclinic
loop_
_symmetry_equiv_pos_as_xyz
  x,y,z
_cell_length_a	20.9271
_cell_length_b	20.9271
_cell_length_c	20.9271
_cell_angle_alpha	90
_cell_angle_beta	90
_cell_angle_gamma	90
loop_
_atom_site_label
_atom_site_type_symbol
_atom_site_fract_x
_atom_site_fract_y
_atom_site_fract_z
_atom_site_charge
Mof_C 	C 	0.3596	0.8069	0.9486	-0.087
Mof_C 	C 	0.3678	0.764	0.9099	0.007
Mof_O 	O 	0.407	0.7893	0.8634	-0.103
Mof_O 	O 	0.3609	0.7047	0.9065	-0.317
Mof_C 	C 	0.2521	0.7788	0.0232	-0.041
Mof_Gd	Gd	0.4767	0.2491	0.7869	0.642
Mof_C 	C 	0.374	0.227	0.963	0.278
Mof_C 	C 	0.4095	0.2717	0.9244	0.38
Mof_O 	O 	0.4553	0.245	0.8988	-0.206
Mof_O 	O 	0.4188	0.3122	0.9671	-0.211
Mof_C 	C 	0.6404	0.1931	0.9486	-0.126
Mof_C 	C 	0.6322	0.236	0.9099	0.005
Mof_O 	O 	0.593	0.2107	0.8634	-0.093
Mof_O 	O 	0.6391	0.2953	0.9065	-0.312
Mof_C 	C 	0.7479	0.2212	0.0232	-0.037
Mof_Gd	Gd	0.5233	0.7509	0.7869	0.597
Mof_C 	C 	0.626	0.773	0.963	0.245
Mof_C 	C 	0.5905	0.7283	0.9244	0.4
Mof_O 	O 	0.5447	0.755	0.8988	-0.224
Mof_O 	O 	0.5812	0.6878	0.9671	-0.214
Mof_C 	C 	0.6404	0.8069	0.0514	0.652
Mof_C 	C 	0.6322	0.764	0.0901	0.051
Mof_O 	O 	0.593	0.7893	0.1366	-0.142
Mof_O 	O 	0.6391	0.7047	0.0935	-0.4
Mof_C 	C 	0.7479	0.7788	0.9768	0.044
Mof_Gd	Gd	0.5233	0.2491	0.2131	0.773
Mof_C 	C 	0.626	0.227	0.037	-0.76
Mof_C 	C 	0.5905	0.2717	0.0756	0.773
Mof_O 	O 	0.5447	0.245	0.1012	-0.306
Mof_O 	O 	0.5812	0.3122	0.0329	-0.346
Mof_C 	C 	0.3596	0.1931	0.0514	0.611
Mof_C 	C 	0.3678	0.236	0.0901	0.047
Mof_O 	O 	0.407	0.2107	0.1366	-0.132
Mof_O 	O 	0.3609	0.2953	0.0935	-0.397
Mof_C 	C 	0.2521	0.2212	0.9768	0.043
Mof_Gd	Gd	0.4767	0.7509	0.2131	0.728
Mof_C 	C 	0.374	0.773	0.037	-0.792
Mof_C 	C 	0.4095	0.7283	0.0756	0.797
Mof_O 	O 	0.4553	0.755	0.1012	-0.323
Mof_O 	O 	0.4188	0.6878	0.0329	-0.349
Mof_C 	C 	0.9486	0.3596	0.8069	-0.088
Mof_C 	C 	0.9099	0.3678	0.764	0.006
Mof_O 	O 	0.8634	0.407	0.7893	-0.104
Mof_O 	O 	0.9065	0.3609	0.7047	-0.318
Mof_C 	C 	0.0232	0.2521	0.7788	-0.042
Mof_Gd	Gd	0.7869	0.4767	0.2491	0.641
Mof_C 	C 	0.963	0.374	0.227	0.277
Mof_C 	C 	0.9244	0.4095	0.2717	0.379
Mof_O 	O 	0.8988	0.4553	0.245	-0.207
Mof_O 	O 	0.9671	0.4188	0.3122	-0.212
Mof_C 	C 	0.9486	0.6404	0.1931	-0.127
Mof_C 	C 	0.9099	0.6322	0.236	0.004
Mof_O 	O 	0.8634	0.593	0.2107	-0.093
Mof_O 	O 	0.9065	0.6391	0.2953	-0.312
Mof_C 	C 	0.0232	0.7479	0.2212	-0.037
Mof_Gd	Gd	0.7869	0.5233	0.7509	0.597
Mof_C 	C 	0.963	0.626	0.773	0.245
Mof_C 	C 	0.9244	0.5905	0.7283	0.4
Mof_O 	O 	0.8988	0.5447	0.755	-0.224
Mof_O 	O 	0.9671	0.5812	0.6878	-0.214
Mof_C 	C 	0.0514	0.6404	0.8069	0.652
Mof_C 	C 	0.0901	0.6322	0.764	0.051
Mof_O 	O 	0.1366	0.593	0.7893	-0.142
Mof_O 	O 	0.0935	0.6391	0.7047	-0.4
Mof_C 	C 	0.9768	0.7479	0.7788	0.044
Mof_Gd	Gd	0.2131	0.5233	0.2491	0.773
Mof_C 	C 	0.037	0.626	0.227	-0.76
Mof_C 	C 	0.0756	0.5905	0.2717	0.773
Mof_O 	O 	0.1012	0.5447	0.245	-0.306
Mof_O 	O 	0.0329	0.5812	0.3122	-0.346
Mof_C 	C 	0.0514	0.3596	0.1931	0.611
Mof_C 	C 	0.0901	0.3678	0.236	0.047
Mof_O 	O 	0.1366	0.407	0.2107	-0.132
Mof_O 	O 	0.0935	0.3609	0.2953	-0.397
Mof_C 	C 	0.9768	0.2521	0.2212	0.043
Mof_Gd	Gd	0.2131	0.4767	0.7509	0.728
Mof_C 	C 	0.037	0.374	0.773	-0.792
Mof_C 	C 	0.0756	0.4095	0.7283	0.797
Mof_O 	O 	0.1012	0.4553	0.755	-0.323
Mof_O 	O 	0.0329	0.4188	0.6878	-0.349
Mof_C 	C 	0.8069	0.9486	0.3596	-0.088
Mof_C 	C 	0.764	0.9099	0.3678	0.006
Mof_O 	O 	0.7893	0.8634	0.407	-0.104
Mof_O 	O 	0.7047	0.9065	0.3609	-0.318
Mof_C 	C 	0.7788	0.0232	0.2521	-0.042
Mof_Gd	Gd	0.2491	0.7869	0.4767	0.641
Mof_C 	C 	0.227	0.963	0.374	0.277
Mof_C 	C 	0.2717	0.9244	0.4095	0.379
Mof_O 	O 	0.245	0.8988	0.4553	-0.207
Mof_O 	O 	0.3122	0.9671	0.4188	-0.212
Mof_C 	C 	0.1931	0.9486	0.6404	-0.127
Mof_C 	C 	0.236	0.9099	0.6322	0.004
Mof_O 	O 	0.2107	0.8634	0.593	-0.093
Mof_O 	O 	0.2953	0.9065	0.6391	-0.312
Mof_C 	C 	0.2212	0.0232	0.7479	-0.037
Mof_Gd	Gd	0.7509	0.7869	0.5233	0.597
Mof_C 	C 	0.773	0.963	0.626	0.245
Mof_C 	C 	0.7283	0.9244	0.5905	0.4
Mof_O 	O 	0.755	0.8988	0.5447	-0.224
Mof_O 	O 	0.6878	0.9671	0.5812	-0.214
Mof_C 	C 	0.8069	0.0514	0.6404	0.652
Mof_C 	C 	0.764	0.0901	0.6322	0.051
Mof_O 	O 	0.7893	0.1366	0.593	-0.142
Mof_O 	O 	0.7047	0.0935	0.6391	-0.4
Mof_C 	C 	0.7788	0.9768	0.7479	0.044
Mof_Gd	Gd	0.2491	0.2131	0.5233	0.773
Mof_C 	C 	0.227	0.037	0.626	-0.76
Mof_C 	C 	0.2717	0.0756	0.5905	0.773
Mof_O 	O 	0.245	0.1012	0.5447	-0.306
Mof_O 	O 	0.3122	0.0329	0.5812	-0.346
Mof_C 	C 	0.1931	0.0514	0.3596	0.611
Mof_C 	C 	0.236	0.0901	0.3678	0.047
Mof_O 	O 	0.2107	0.1366	0.407	-0.132
Mof_O 	O 	0.2953	0.0935	0.3609	-0.397
Mof_C 	C 	0.2212	0.9768	0.2521	0.043
Mof_Gd	Gd	0.7509	0.2131	0.4767	0.728
Mof_C 	C 	0.773	0.037	0.374	-0.792
Mof_C 	C 	0.7283	0.0756	0.4095	0.797
Mof_O 	O 	0.755	0.1012	0.4553	-0.323
Mof_O 	O 	0.6878	0.0329	0.4188	-0.349
Mof_C 	C 	0.8069	0.3596	0.0514	0.65
Mof_C 	C 	0.764	0.3678	0.0901	0.05
Mof_O 	O 	0.7893	0.407	0.1366	-0.143
Mof_O 	O 	0.7047	0.3609	0.0935	-0.401
Mof_C 	C 	0.7788	0.2521	0.9768	0.041
Mof_Gd	Gd	0.2491	0.4767	0.2131	0.772
Mof_C 	C 	0.227	0.374	0.037	-0.759
Mof_C 	C 	0.2717	0.4095	0.0756	0.774
Mof_O 	O 	0.245	0.4553	0.1012	-0.306
Mof_O 	O 	0.3122	0.4188	0.0329	-0.347
Mof_C 	C 	0.1931	0.6404	0.0514	0.612
Mof_C 	C 	0.236	0.6322	0.0901	0.048
Mof_O 	O 	0.2107	0.593	0.1366	-0.131
Mof_O 	O 	0.2953	0.6391	0.0935	-0.395
Mof_C 	C 	0.2212	0.7479	0.9768	0.046
Mof_Gd	Gd	0.7509	0.5233	0.2131	0.729
Mof_C 	C 	0.773	0.626	0.037	-0.794
Mof_C 	C 	0.7283	0.5905	0.0756	0.796
Mof_O 	O 	0.755	0.5447	0.1012	-0.323
Mof_O 	O 	0.6878	0.5812	0.0329	-0.349
Mof_C 	C 	0.8069	0.6404	0.9486	-0.088
Mof_C 	C 	0.764	0.6322	0.9099	0.007
Mof_O 	O 	0.7893	0.593	0.8634	-0.104
Mof_O 	O 	0.7047	0.6391	0.9065	-0.317
Mof_C 	C 	0.7788	0.7479	0.0232	-0.039
Mof_Gd	Gd	0.2491	0.5233	0.7869	0.641
Mof_C 	C 	0.227	0.626	0.963	0.277
Mof_C 	C 	0.2717	0.5905	0.9244	0.378
Mof_O 	O 	0.245	0.5447	0.8988	-0.207
Mof_O 	O 	0.3122	0.5812	0.9671	-0.211
Mof_C 	C 	0.1931	0.3596	0.9486	-0.127
Mof_C 	C 	0.236	0.3678	0.9099	0.003
Mof_O 	O 	0.2107	0.407	0.8634	-0.093
Mof_O 	O 	0.2953	0.3609	0.9065	-0.314
Mof_C 	C 	0.2212	0.2521	0.0232	-0.039
Mof_Gd	Gd	0.7509	0.4767	0.7869	0.596
Mof_C 	C 	0.773	0.374	0.963	0.245
Mof_C 	C 	0.7283	0.4095	0.9244	0.402
Mof_O 	O 	0.755	0.4553	0.8988	-0.225
Mof_O 	O 	0.6878	0.4188	0.9671	-0.214
Mof_C 	C 	0.3596	0.9486	0.1931	-0.127
Mof_C 	C 	0.3678	0.9099	0.236	0.003
Mof_O 	O 	0.407	0.8634	0.2107	-0.093
Mof_O 	O 	0.3609	0.9065	0.2953	-0.314
Mof_C 	C 	0.2521	0.0232	0.2212	-0.039
Mof_Gd	Gd	0.4767	0.7869	0.7509	0.596
Mof_C 	C 	0.374	0.963	0.773	0.245
Mof_C 	C 	0.4095	0.9244	0.7283	0.402
Mof_O 	O 	0.4553	0.8988	0.755	-0.225
Mof_O 	O 	0.4188	0.9671	0.6878	-0.214
Mof_C 	C 	0.6404	0.9486	0.8069	-0.088
Mof_C 	C 	0.6322	0.9099	0.764	0.007
Mof_O 	O 	0.593	0.8634	0.7893	-0.104
Mof_O 	O 	0.6391	0.9065	0.7047	-0.317
Mof_C 	C 	0.7479	0.0232	0.7788	-0.039
Mof_Gd	Gd	0.5233	0.7869	0.2491	0.641
Mof_C 	C 	0.626	0.963	0.227	0.277
Mof_C 	C 	0.5905	0.9244	0.2717	0.378
Mof_O 	O 	0.5447	0.8988	0.245	-0.207
Mof_O 	O 	0.5812	0.9671	0.3122	-0.211
Mof_C 	C 	0.6404	0.0514	0.1931	0.612
Mof_C 	C 	0.6322	0.0901	0.236	0.048
Mof_O 	O 	0.593	0.1366	0.2107	-0.131
Mof_O 	O 	0.6391	0.0935	0.2953	-0.395
Mof_C 	C 	0.7479	0.9768	0.2212	0.046
Mof_Gd	Gd	0.5233	0.2131	0.7509	0.729
Mof_C 	C 	0.626	0.037	0.773	-0.794
Mof_C 	C 	0.5905	0.0756	0.7283	0.796
Mof_O 	O 	0.5447	0.1012	0.755	-0.323
Mof_O 	O 	0.5812	0.0329	0.6878	-0.349
Mof_C 	C 	0.3596	0.0514	0.8069	0.65
Mof_C 	C 	0.3678	0.0901	0.764	0.05
Mof_O 	O 	0.407	0.1366	0.7893	-0.143
Mof_O 	O 	0.3609	0.0935	0.7047	-0.401
Mof_C 	C 	0.2521	0.9768	0.7788	0.041
Mof_Gd	Gd	0.4767	0.2131	0.2491	0.772
Mof_C 	C 	0.374	0.037	0.227	-0.759
Mof_C 	C 	0.4095	0.0756	0.2717	0.774
Mof_O 	O 	0.4553	0.1012	0.245	-0.306
Mof_O 	O 	0.4188	0.0329	0.3122	-0.347
Mof_C 	C 	0.9486	0.8069	0.6404	-0.088
Mof_C 	C 	0.9099	0.764	0.6322	0.007
Mof_O 	O 	0.8634	0.7893	0.593	-0.104
Mof_O 	O 	0.9065	0.7047	0.6391	-0.317
Mof_C 	C 	0.0232	0.7788	0.7479	-0.039
Mof_Gd	Gd	0.7869	0.2491	0.5233	0.641
Mof_C 	C 	0.963	0.227	0.626	0.277
Mof_C 	C 	0.9244	0.2717	0.5905	0.378
Mof_O 	O 	0.8988	0.245	0.5447	-0.207
Mof_O 	O 	0.9671	0.3122	0.5812	-0.211
Mof_C 	C 	0.9486	0.1931	0.3596	-0.127
Mof_C 	C 	0.9099	0.236	0.3678	0.003
Mof_O 	O 	0.8634	0.2107	0.407	-0.093
Mof_O 	O 	0.9065	0.2953	0.3609	-0.314
Mof_C 	C 	0.0232	0.2212	0.2521	-0.039
Mof_Gd	Gd	0.7869	0.7509	0.4767	0.596
Mof_C 	C 	0.963	0.773	0.374	0.245
Mof_C 	C 	0.9244	0.7283	0.4095	0.402
Mof_O 	O 	0.8988	0.755	0.4553	-0.225
Mof_O 	O 	0.9671	0.6878	0.4188	-0.214
Mof_C 	C 	0.0514	0.8069	0.3596	0.65
Mof_C 	C 	0.0901	0.764	0.3678	0.05
Mof_O 	O 	0.1366	0.7893	0.407	-0.143
Mof_O 	O 	0.0935	0.7047	0.3609	-0.401
Mof_C 	C 	0.9768	0.7788	0.2521	0.041
Mof_Gd	Gd	0.2131	0.2491	0.4767	0.772
Mof_C 	C 	0.037	0.227	0.374	-0.759
Mof_C 	C 	0.0756	0.2717	0.4095	0.774
Mof_O 	O 	0.1012	0.245	0.4553	-0.306
Mof_O 	O 	0.0329	0.3122	0.4188	-0.347
Mof_C 	C 	0.0514	0.1931	0.6404	0.612
Mof_C 	C 	0.0901	0.236	0.6322	0.048
Mof_O 	O 	0.1366	0.2107	0.593	-0.131
Mof_O 	O 	0.0935	0.2953	0.6391	-0.395
Mof_C 	C 	0.9768	0.2212	0.7479	0.046
Mof_Gd	Gd	0.2131	0.7509	0.5233	0.729
Mof_C 	C 	0.037	0.773	0.626	-0.794
Mof_C 	C 	0.0756	0.7283	0.5905	0.796
Mof_O 	O 	0.1012	0.755	0.5447	-0.323
Mof_O 	O 	0.0329	0.6878	0.5812	-0.349
Mof_C 	C 	0.6404	0.1931	0.0514	0.612
Mof_C 	C 	0.6322	0.236	0.0901	0.048
Mof_O 	O 	0.593	0.2107	0.1366	-0.131
Mof_O 	O 	0.6391	0.2953	0.0935	-0.395
Mof_C 	C 	0.7479	0.2212	0.9768	0.046
Mof_Gd	Gd	0.5233	0.7509	0.2131	0.729
Mof_C 	C 	0.626	0.773	0.037	-0.794
Mof_C 	C 	0.5905	0.7283	0.0756	0.796
Mof_O 	O 	0.5447	0.755	0.1012	-0.323
Mof_O 	O 	0.5812	0.6878	0.0329	-0.349
Mof_C 	C 	0.3596	0.8069	0.0514	0.65
Mof_C 	C 	0.3678	0.764	0.0901	0.05
Mof_O 	O 	0.407	0.7893	0.1366	-0.143
Mof_O 	O 	0.3609	0.7047	0.0935	-0.401
Mof_C 	C 	0.2521	0.7788	0.9768	0.041
Mof_Gd	Gd	0.4767	0.2491	0.2131	0.772
Mof_C 	C 	0.374	0.227	0.037	-0.759
Mof_C 	C 	0.4095	0.2717	0.0756	0.774
Mof_O 	O 	0.4553	0.245	0.1012	-0.306
Mof_O 	O 	0.4188	0.3122	0.0329	-0.347
Mof_C 	C 	0.3596	0.1931	0.9486	-0.127
Mof_C 	C 	0.3678	0.236	0.9099	0.003
Mof_O 	O 	0.407	0.2107	0.8634	-0.093
Mof_O 	O 	0.3609	0.2953	0.9065	-0.314
Mof_C 	C 	0.2521	0.2212	0.0232	-0.039
Mof_Gd	Gd	0.4767	0.7509	0.7869	0.596
Mof_C 	C 	0.374	0.773	0.963	0.245
Mof_C 	C 	0.4095	0.7283	0.9244	0.402
Mof_O 	O 	0.4553	0.755	0.8988	-0.225
Mof_O 	O 	0.4188	0.6878	0.9671	-0.214
Mof_C 	C 	0.6404	0.8069	0.9486	-0.088
Mof_C 	C 	0.6322	0.764	0.9099	0.007
Mof_O 	O 	0.593	0.7893	0.8634	-0.104
Mof_O 	O 	0.6391	0.7047	0.9065	-0.317
Mof_C 	C 	0.7479	0.7788	0.0232	-0.039
Mof_Gd	Gd	0.5233	0.2491	0.7869	0.641
Mof_C 	C 	0.626	0.227	0.963	0.277
Mof_C 	C 	0.5905	0.2717	0.9244	0.378
Mof_O 	O 	0.5447	0.245	0.8988	-0.207
Mof_O 	O 	0.5812	0.3122	0.9671	-0.211
Mof_C 	C 	0.0514	0.6404	0.1931	0.612
Mof_C 	C 	0.0901	0.6322	0.236	0.048
Mof_O 	O 	0.1366	0.593	0.2107	-0.131
Mof_O 	O 	0.0935	0.6391	0.2953	-0.395
Mof_C 	C 	0.9768	0.7479	0.2212	0.046
Mof_Gd	Gd	0.2131	0.5233	0.7509	0.729
Mof_C 	C 	0.037	0.626	0.773	-0.794
Mof_C 	C 	0.0756	0.5905	0.7283	0.796
Mof_O 	O 	0.1012	0.5447	0.755	-0.323
Mof_O 	O 	0.0329	0.5812	0.6878	-0.349
Mof_C 	C 	0.0514	0.3596	0.8069	0.65
Mof_C 	C 	0.0901	0.3678	0.764	0.05
Mof_O 	O 	0.1366	0.407	0.7893	-0.143
Mof_O 	O 	0.0935	0.3609	0.7047	-0.401
Mof_C 	C 	0.9768	0.2521	0.7788	0.041
Mof_Gd	Gd	0.2131	0.4767	0.2491	0.772
Mof_C 	C 	0.037	0.374	0.227	-0.759
Mof_C 	C 	0.0756	0.4095	0.2717	0.774
Mof_O 	O 	0.1012	0.4553	0.245	-0.306
Mof_O 	O 	0.0329	0.4188	0.3122	-0.347
Mof_C 	C 	0.9486	0.3596	0.1931	-0.127
Mof_C 	C 	0.9099	0.3678	0.236	0.003
Mof_O 	O 	0.8634	0.407	0.2107	-0.093
Mof_O 	O 	0.9065	0.3609	0.2953	-0.314
Mof_C 	C 	0.0232	0.2521	0.2212	-0.039
Mof_Gd	Gd	0.7869	0.4767	0.7509	0.596
Mof_C 	C 	0.963	0.374	0.773	0.245
Mof_C 	C 	0.9244	0.4095	0.7283	0.402
Mof_O 	O 	0.8988	0.4553	0.755	-0.225
Mof_O 	O 	0.9671	0.4188	0.6878	-0.214
Mof_C 	C 	0.9486	0.6404	0.8069	-0.088
Mof_C 	C 	0.9099	0.6322	0.764	0.007
Mof_O 	O 	0.8634	0.593	0.7893	-0.104
Mof_O 	O 	0.9065	0.6391	0.7047	-0.317
Mof_C 	C 	0.0232	0.7479	0.7788	-0.039
Mof_Gd	Gd	0.7869	0.5233	0.2491	0.641
Mof_C 	C 	0.963	0.626	0.227	0.277
Mof_C 	C 	0.9244	0.5905	0.2717	0.378
Mof_O 	O 	0.8988	0.5447	0.245	-0.207
Mof_O 	O 	0.9671	0.5812	0.3122	-0.211
Mof_C 	C 	0.1931	0.0514	0.6404	0.612
Mof_C 	C 	0.236	0.0901	0.6322	0.048
Mof_O 	O 	0.2107	0.1366	0.593	-0.131
Mof_O 	O 	0.2953	0.0935	0.6391	-0.395
Mof_C 	C 	0.2212	0.9768	0.7479	0.046
Mof_Gd	Gd	0.7509	0.2131	0.5233	0.729
Mof_C 	C 	0.773	0.037	0.626	-0.794
Mof_C 	C 	0.7283	0.0756	0.5905	0.796
Mof_O 	O 	0.755	0.1012	0.5447	-0.323
Mof_O 	O 	0.6878	0.0329	0.5812	-0.349
Mof_C 	C 	0.8069	0.0514	0.3596	0.65
Mof_C 	C 	0.764	0.0901	0.3678	0.05
Mof_O 	O 	0.7893	0.1366	0.407	-0.143
Mof_O 	O 	0.7047	0.0935	0.3609	-0.401
Mof_C 	C 	0.7788	0.9768	0.2521	0.041
Mof_Gd	Gd	0.2491	0.2131	0.4767	0.772
Mof_C 	C 	0.227	0.037	0.374	-0.759
Mof_C 	C 	0.2717	0.0756	0.4095	0.774
Mof_O 	O 	0.245	0.1012	0.4553	-0.306
Mof_O 	O 	0.3122	0.0329	0.4188	-0.347
Mof_C 	C 	0.1931	0.9486	0.3596	-0.127
Mof_C 	C 	0.236	0.9099	0.3678	0.003
Mof_O 	O 	0.2107	0.8634	0.407	-0.093
Mof_O 	O 	0.2953	0.9065	0.3609	-0.314
Mof_C 	C 	0.2212	0.0232	0.2521	-0.039
Mof_Gd	Gd	0.7509	0.7869	0.4767	0.596
Mof_C 	C 	0.773	0.963	0.374	0.245
Mof_C 	C 	0.7283	0.9244	0.4095	0.402
Mof_O 	O 	0.755	0.8988	0.4553	-0.225
Mof_O 	O 	0.6878	0.9671	0.4188	-0.214
Mof_C 	C 	0.8069	0.9486	0.6404	-0.088
Mof_C 	C 	0.764	0.9099	0.6322	0.007
Mof_O 	O 	0.7893	0.8634	0.593	-0.104
Mof_O 	O 	0.7047	0.9065	0.6391	-0.317
Mof_C 	C 	0.7788	0.0232	0.7479	-0.039
Mof_Gd	Gd	0.2491	0.7869	0.5233	0.641
Mof_C 	C 	0.227	0.963	0.626	0.277
Mof_C 	C 	0.2717	0.9244	0.5905	0.378
Mof_O 	O 	0.245	0.8988	0.5447	-0.207
Mof_O 	O 	0.3122	0.9671	0.5812	-0.211
Mof_C 	C 	0.1931	0.6404	0.9486	-0.127
Mof_C 	C 	0.236	0.6322	0.9099	0.004
Mof_O 	O 	0.2107	0.593	0.8634	-0.093
Mof_O 	O 	0.2953	0.6391	0.9065	-0.312
Mof_C 	C 	0.2212	0.7479	0.0232	-0.037
Mof_Gd	Gd	0.7509	0.5233	0.7869	0.597
Mof_C 	C 	0.773	0.626	0.963	0.245
Mof_C 	C 	0.7283	0.5905	0.9244	0.4
Mof_O 	O 	0.755	0.5447	0.8988	-0.224
Mof_O 	O 	0.6878	0.5812	0.9671	-0.214
Mof_C 	C 	0.8069	0.3596	0.9486	-0.088
Mof_C 	C 	0.764	0.3678	0.9099	0.006
Mof_O 	O 	0.7893	0.407	0.8634	-0.104
Mof_O 	O 	0.7047	0.3609	0.9065	-0.318
Mof_C 	C 	0.7788	0.2521	0.0232	-0.042
Mof_Gd	Gd	0.2491	0.4767	0.7869	0.641
Mof_C 	C 	0.227	0.374	0.963	0.277
Mof_C 	C 	0.2717	0.4095	0.9244	0.379
Mof_O 	O 	0.245	0.4553	0.8988	-0.207
Mof_O 	O 	0.3122	0.4188	0.9671	-0.212
Mof_C 	C 	0.1931	0.3596	0.0514	0.611
Mof_C 	C 	0.236	0.3678	0.0901	0.047
Mof_O 	O 	0.2107	0.407	0.1366	-0.132
Mof_O 	O 	0.2953	0.3609	0.0935	-0.397
Mof_C 	C 	0.2212	0.2521	0.9768	0.043
Mof_Gd	Gd	0.7509	0.4767	0.2131	0.728
Mof_C 	C 	0.773	0.374	0.037	-0.792
Mof_C 	C 	0.7283	0.4095	0.0756	0.797
Mof_O 	O 	0.755	0.4553	0.1012	-0.323
Mof_O 	O 	0.6878	0.4188	0.0329	-0.349
Mof_C 	C 	0.8069	0.6404	0.0514	0.652
Mof_C 	C 	0.764	0.6322	0.0901	0.051
Mof_O 	O 	0.7893	0.593	0.1366	-0.142
Mof_O 	O 	0.7047	0.6391	0.0935	-0.4
Mof_C 	C 	0.7788	0.7479	0.9768	0.044
Mof_Gd	Gd	0.2491	0.5233	0.2131	0.773
Mof_C 	C 	0.227	0.626	0.037	-0.76
Mof_C 	C 	0.2717	0.5905	0.0756	0.773
Mof_O 	O 	0.245	0.5447	0.1012	-0.306
Mof_O 	O 	0.3122	0.5812	0.0329	-0.346
Mof_C 	C 	0.6404	0.0514	0.8069	0.652
Mof_C 	C 	0.6322	0.0901	0.764	0.051
Mof_O 	O 	0.593	0.1366	0.7893	-0.142
Mof_O 	O 	0.6391	0.0935	0.7047	-0.4
Mof_C 	C 	0.7479	0.9768	0.7788	0.044
Mof_Gd	Gd	0.5233	0.2131	0.2491	0.773
Mof_C 	C 	0.626	0.037	0.227	-0.76
Mof_C 	C 	0.5905	0.0756	0.2717	0.773
Mof_O 	O 	0.5447	0.1012	0.245	-0.306
Mof_O 	O 	0.5812	0.0329	0.3122	-0.346
Mof_C 	C 	0.3596	0.0514	0.1931	0.611
Mof_C 	C 	0.3678	0.0901	0.236	0.047
Mof_O 	O 	0.407	0.1366	0.2107	-0.132
Mof_O 	O 	0.3609	0.0935	0.2953	-0.397
Mof_C 	C 	0.2521	0.9768	0.2212	0.043
Mof_Gd	Gd	0.4767	0.2131	0.7509	0.728
Mof_C 	C 	0.374	0.037	0.773	-0.792
Mof_C 	C 	0.4095	0.0756	0.7283	0.797
Mof_O 	O 	0.4553	0.1012	0.755	-0.323
Mof_O 	O 	0.4188	0.0329	0.6878	-0.349
Mof_C 	C 	0.3596	0.9486	0.8069	-0.088
Mof_C 	C 	0.3678	0.9099	0.764	0.006
Mof_O 	O 	0.407	0.8634	0.7893	-0.104
Mof_O 	O 	0.3609	0.9065	0.7047	-0.318
Mof_C 	C 	0.2521	0.0232	0.7788	-0.042
Mof_Gd	Gd	0.4767	0.7869	0.2491	0.641
Mof_C 	C 	0.374	0.963	0.227	0.277
Mof_C 	C 	0.4095	0.9244	0.2717	0.379
Mof_O 	O 	0.4553	0.8988	0.245	-0.207
Mof_O 	O 	0.4188	0.9671	0.3122	-0.212
Mof_C 	C 	0.6404	0.9486	0.1931	-0.127
Mof_C 	C 	0.6322	0.9099	0.236	0.004
Mof_O 	O 	0.593	0.8634	0.2107	-0.093
Mof_O 	O 	0.6391	0.9065	0.2953	-0.312
Mof_C 	C 	0.7479	0.0232	0.2212	-0.037
Mof_Gd	Gd	0.5233	0.7869	0.7509	0.597
Mof_C 	C 	0.626	0.963	0.773	0.245
Mof_C 	C 	0.5905	0.9244	0.7283	0.4
Mof_O 	O 	0.5447	0.8988	0.755	-0.224
Mof_O 	O 	0.5812	0.9671	0.6878	-0.214
Mof_C 	C 	0.0514	0.1931	0.3596	0.611
Mof_C 	C 	0.0901	0.236	0.3678	0.047
Mof_O 	O 	0.1366	0.2107	0.407	-0.132
Mof_O 	O 	0.0935	0.2953	0.3609	-0.397
Mof_C 	C 	0.9768	0.2212	0.2521	0.043
Mof_Gd	Gd	0.2131	0.7509	0.4767	0.728
Mof_C 	C 	0.037	0.773	0.374	-0.792
Mof_C 	C 	0.0756	0.7283	0.4095	0.797
Mof_O 	O 	0.1012	0.755	0.4553	-0.323
Mof_O 	O 	0.0329	0.6878	0.4188	-0.349
Mof_C 	C 	0.0514	0.8069	0.6404	0.652
Mof_C 	C 	0.0901	0.764	0.6322	0.051
Mof_O 	O 	0.1366	0.7893	0.593	-0.142
Mof_O 	O 	0.0935	0.7047	0.6391	-0.4
Mof_C 	C 	0.9768	0.7788	0.7479	0.044
Mof_Gd	Gd	0.2131	0.2491	0.5233	0.773
Mof_C 	C 	0.037	0.227	0.626	-0.76
Mof_C 	C 	0.0756	0.2717	0.5905	0.773
Mof_O 	O 	0.1012	0.245	0.5447	-0.306
Mof_O 	O 	0.0329	0.3122	0.5812	-0.346
Mof_C 	C 	0.9486	0.1931	0.6404	-0.127
Mof_C 	C 	0.9099	0.236	0.6322	0.004
Mof_O 	O 	0.8634	0.2107	0.593	-0.093
Mof_O 	O 	0.9065	0.2953	0.6391	-0.312
Mof_C 	C 	0.0232	0.2212	0.7479	-0.037
Mof_Gd	Gd	0.7869	0.7509	0.5233	0.597
Mof_C 	C 	0.963	0.773	0.626	0.245
Mof_C 	C 	0.9244	0.7283	0.5905	0.4
Mof_O 	O 	0.8988	0.755	0.5447	-0.224
Mof_O 	O 	0.9671	0.6878	0.5812	-0.214
Mof_C 	C 	0.9486	0.8069	0.3596	-0.088
Mof_C 	C 	0.9099	0.764	0.3678	0.006
Mof_O 	O 	0.8634	0.7893	0.407	-0.104
Mof_O 	O 	0.9065	0.7047	0.3609	-0.318
Mof_C 	C 	0.0232	0.7788	0.2521	-0.042
Mof_Gd	Gd	0.7869	0.2491	0.4767	0.641
Mof_C 	C 	0.963	0.227	0.374	0.277
Mof_C 	C 	0.9244	0.2717	0.4095	0.379
Mof_O 	O 	0.8988	0.245	0.4553	-0.207
Mof_O 	O 	0.9671	0.3122	0.4188	-0.212
Mof_Gd	Gd	0.5	0.80275	0.80275	-0.621
Mof_Gd	Gd	0.5	0.19725	0.80275	-0.949
Mof_Gd	Gd	0.5	0.80275	0.19725	-0.949
Mof_Gd	Gd	0.5	0.19725	0.19725	-1.277
Mof_Gd	Gd	0.80275	0.5	0.80275	-0.621
Mof_Gd	Gd	0.80275	0.5	0.19725	-0.949
Mof_Gd	Gd	0.19725	0.5	0.80275	-0.949
Mof_Gd	Gd	0.19725	0.5	0.19725	-1.277
Mof_Gd	Gd	0.80275	0.80275	0.5	-0.621
Mof_Gd	Gd	0.19725	0.80275	0.5	-0.949
Mof_Gd	Gd	0.80275	0.19725	0.5	-0.949
Mof_Gd	Gd	0.19725	0.19725	0.5	-1.277
Mof_Ni	Ni	0.32794	0.67206	-0	1.166
Mof_Ni	Ni	0.67206	0.32794	-0	1.166
Mof_Ni	Ni	0.67206	0.67206	-0	1.167
Mof_Ni	Ni	0.32794	0.32794	-0	1.165
Mof_Ni	Ni	8.02857e-33	0.32794	0.67206	1.166
Mof_Ni	Ni	9.49271e-33	0.67206	0.32794	1.166
Mof_Ni	Ni	1.35373e-32	0.67206	0.67206	1.167
Mof_Ni	Ni	1.22958e-33	0.32794	0.32794	1.165
Mof_Ni	Ni	0.67206	0	0.32794	1.166
Mof_Ni	Ni	0.32794	5.50875e-33	0.67206	1.166
Mof_Ni	Ni	0.67206	5.50875e-33	0.67206	1.167
Mof_Ni	Ni	0.32794	0	0.32794	1.165
Mof_N 	N 	0.3271	0.7715	-0	-0.135
Mof_C 	C 	0.247	0.851	-0	-0.006
Mof_N 	N 	0.6729	0.2285	-0	-0.141
Mof_C 	C 	0.753	0.149	-0	-0.021
Mof_N 	N 	0.6729	0.7715	-0	-0.135
Mof_C 	C 	0.753	0.851	-0	-0.001
Mof_N 	N 	0.3271	0.2285	-0	-0.141
Mof_C 	C 	0.247	0.149	-0	-0.025
Mof_N 	N 	8.40141e-33	0.3271	0.7715	-0.135
Mof_C 	C 	3.19074e-33	0.247	0.851	-0.006
Mof_N 	N 	3.61111e-33	0.6729	0.2285	-0.141
Mof_C 	C 	7.4446e-33	0.753	0.149	-0.021
Mof_N 	N 	-2.61609e-33	0.6729	0.7715	-0.135
Mof_C 	C 	3.19074e-33	0.753	0.851	-0.001
Mof_N 	N 	3.61111e-33	0.3271	0.2285	-0.141
Mof_C 	C 	4.69022e-33	0.247	0.149	-0.025
Mof_N 	N 	0.7715	2.75438e-33	0.3271	-0.135
Mof_C 	C 	0.851	0	0.247	-0.006
Mof_N 	N 	0.2285	0	0.6729	-0.141
Mof_C 	C 	0.149	0	0.753	-0.021
Mof_N 	N 	0.7715	0	0.6729	-0.135
Mof_C 	C 	0.851	0	0.753	-0.001
Mof_N 	N 	0.2285	2.75438e-33	0.3271	-0.141
Mof_C 	C 	0.149	0	0.247	-0.025
Mof_N 	N 	0.7715	0.3271	-0	-0.135
Mof_C 	C 	0.851	0.247	-0	-0.006
Mof_N 	N 	0.2285	0.6729	-0	-0.141
Mof_C 	C 	0.149	0.753	-0	-0.021
Mof_N 	N 	0.7715	0.6729	-0	-0.135
Mof_C 	C 	0.851	0.753	-0	-0.001
Mof_N 	N 	0.2285	0.3271	-0	-0.141
Mof_C 	C 	0.149	0.247	-0	-0.025
Mof_N 	N 	0.3271	0	0.2285	-0.141
Mof_C 	C 	0.247	-1.37719e-33	0.149	-0.025
Mof_N 	N 	0.6729	5.50875e-33	0.7715	-0.135
Mof_C 	C 	0.753	0	0.851	-0.001
Mof_N 	N 	0.6729	0	0.2285	-0.141
Mof_C 	C 	0.753	-1.37719e-33	0.149	-0.021
Mof_N 	N 	0.3271	5.50875e-33	0.7715	-0.135
Mof_C 	C 	0.247	0	0.851	-0.006
Mof_N 	N 	2.52297e-33	0.7715	0.6729	-0.135
Mof_C 	C 	8.33205e-33	0.851	0.753	-0.001
Mof_N 	N 	3.9808e-33	0.2285	0.3271	-0.141
Mof_C 	C 	3.68048e-33	0.149	0.247	-0.025
Mof_N 	N 	6.73518e-33	0.7715	0.3271	-0.135
Mof_C 	C 	3.68048e-33	0.851	0.247	-0.006
Mof_N 	N 	2.52297e-33	0.2285	0.6729	-0.141
Mof_C 	C 	8.33205e-33	0.149	0.753	-0.021
Mof_O 	O 	0.5893	0.7434	0.7434	-0.484
Mof_O 	O 	0.4107	0.2566	0.7434	-0.53
Mof_O 	O 	0.4107	0.7434	0.2566	-0.53
Mof_O 	O 	0.5893	0.2566	0.2566	-0.571
Mof_O 	O 	0.7434	0.5893	0.7434	-0.484
Mof_O 	O 	0.7434	0.4107	0.2566	-0.53
Mof_O 	O 	0.2566	0.4107	0.7434	-0.53
Mof_O 	O 	0.2566	0.5893	0.2566	-0.571
Mof_O 	O 	0.7434	0.7434	0.5893	-0.484
Mof_O 	O 	0.2566	0.7434	0.4107	-0.53
Mof_O 	O 	0.7434	0.2566	0.4107	-0.53
Mof_O 	O 	0.2566	0.2566	0.5893	-0.571
Mof_O 	O 	0.7434	0.5893	0.2566	-0.528
Mof_O 	O 	0.2566	0.4107	0.2566	-0.573
Mof_O 	O 	0.7434	0.4107	0.7434	-0.486
Mof_O 	O 	0.2566	0.5893	0.7434	-0.528
Mof_O 	O 	0.5893	0.7434	0.2566	-0.528
Mof_O 	O 	0.4107	0.7434	0.7434	-0.486
Mof_O 	O 	0.4107	0.2566	0.2566	-0.573
Mof_O 	O 	0.5893	0.2566	0.7434	-0.528
Mof_O 	O 	0.7434	0.7434	0.4107	-0.486
Mof_O 	O 	0.7434	0.2566	0.5893	-0.528
Mof_O 	O 	0.2566	0.7434	0.5893	-0.528
Mof_O 	O 	0.2566	0.2566	0.4107	-0.573
_end
