# CIF file generated by openbabel 3.1.0, see https://openbabel.org
data_I
_chemical_name_common 'image0'
_cell_length_a 22.782
_cell_length_b 9.758
_cell_length_c 26.413
_cell_angle_alpha 90
_cell_angle_beta 97.28
_cell_angle_gamma 90
_space_group_name_H-M_alt 'P 1'
_space_group_name_Hall 'P 1'
loop_
    _symmetry_equiv_pos_as_xyz
    x,y,z
loop_
    _atom_site_label
    _atom_site_type_symbol
    _atom_site_fract_x
    _atom_site_fract_y
    _atom_site_fract_z
    _atom_site_occupancy
    Zn1      Zn       0.21459    0.37839    0.48988    1.000
    N1       N        0.98600    0.50350    0.47700    1.000
    C1       C        0.98410    0.37590    0.44980    1.000
    C2       C        0.94440    0.36130    0.40570    1.000
    H1       H        0.91960    0.43360    0.39410    1.000
    C3       C        0.94170    0.23870    0.37870    1.000
    H2       H        0.91520    0.22890    0.34910    1.000
    C4       C        0.97880    0.13060    0.39590    1.000
    H3       H        0.97700    0.04860    0.37790    1.000
    C5       C        0.01840    0.14530    0.44010    1.000
    C6       C        0.02110    0.26790    0.46710    1.000
    H4       H        0.04770    0.27770    0.49660    1.000
    C7       C        0.05880    0.02300    0.46020    1.000
    H5       H        0.08480    0.03540    0.48990    1.000
    C8       C        0.09550    0.78610    0.45000    1.000
    C9       C        0.13900    0.79050    0.49190    1.000
    H6       H        0.14470    0.86990    0.51130    1.000
    C10      C        0.17410    0.67600    0.50470    1.000
    H7       H        0.20330    0.67890    0.53270    1.000
    N2       N        0.16570    0.55730    0.47560    1.000
    C11      C        0.12210    0.55300    0.43370    1.000
    H8       H        0.11650    0.47350    0.41430    1.000
    C12      C        0.08700    0.66740    0.42090    1.000
    H9       H        0.05790    0.66450    0.39290    1.000
    C13      C        0.05790    0.90390    0.43740    1.000
    H10      H        0.02920    0.89350    0.40930    1.000
    C14      C        0.31790    0.31870    0.43370    1.000
    C15      C        0.34920    0.34470    0.38780    1.000
    C16      C        0.32790    0.44580    0.35340    1.000
    H11      H        0.29600    0.49990    0.35960    1.000
    C17      C        0.35480    0.46570    0.30940    1.000
    H12      H        0.34180    0.53510    0.28650    1.000
    C18      C        0.40140    0.38000    0.30000    1.000
    C19      C        0.42280    0.28540    0.33490    1.000
    H13      H        0.45550    0.23300    0.32940    1.000
    C20      C        0.39610    0.26580    0.37880    1.000
    H14      H        0.41040    0.19870    0.40210    1.000
    C21      C        0.39920    0.46380    0.21230    1.000
    C22      C        0.35390    0.39210    0.18770    1.000
    H15      H        0.34210    0.30830    0.19980    1.000
    C23      C        0.32550    0.45090    0.14280    1.000
    H16      H        0.29450    0.40470    0.12380    1.000
    C24      C        0.34320    0.57790    0.12630    1.000
    C25      C        0.38980    0.64250    0.15300    1.000
    H17      H        0.40270    0.72550    0.14110    1.000
    C26      C        0.41940    0.58650    0.19860    1.000
    H18      H        0.45070    0.63120    0.21790    1.000
    C27      C        0.31270    0.64330    0.07790    1.000
    O1       O        0.27920    0.40520    0.44320    1.000
    O2       O        0.33310    0.21520    0.45950    1.000
    O3       O        0.43050    0.39790    0.25670    1.000
    O4       O        0.27340    0.57150    0.05160    1.000
    O5       O        0.32730    0.76040    0.06730    1.000
    N3       N        0.01350    0.45270    0.50080    1.000
    C28      C        0.99390    0.34330    0.46620    1.000
    C29      C        0.94450    0.35990    0.43010    1.000
    H19      H        0.92380    0.44220    0.42810    1.000
    C30      C        0.92610    0.25340    0.39680    1.000
    H20      H        0.89300    0.26450    0.37270    1.000
    C31      C        0.95710    0.13040    0.39970    1.000
    H21      H        0.94480    0.05920    0.37750    1.000
    C32      C        0.00650    0.11380    0.43580    1.000
    C33      C        0.02500    0.22030    0.46900    1.000
    H22      H        0.05800    0.20920    0.49320    1.000
    C34      C        0.03940    0.98700    0.43800    1.000
    H23      H        0.02650    0.92260    0.41320    1.000
    C35      C        0.11640    0.81450    0.47320    1.000
    C36      C        0.16430    0.79160    0.51030    1.000
    H24      H        0.17760    0.86110    0.53310    1.000
    C37      C        0.19250    0.66500    0.51350    1.000
    H25      H        0.22450    0.64970    0.53830    1.000
    N4       N        0.17270    0.56120    0.47950    1.000
    C38      C        0.12480    0.58400    0.44240    1.000
    H26      H        0.11160    0.51460    0.41960    1.000
    C39      C        0.09670    0.71070    0.43920    1.000
    H27      H        0.06460    0.72600    0.41440    1.000
    C40      C        0.08500    0.95130    0.47050    1.000
    H28      H        0.09960    0.01670    0.49440    1.000
    Zn2      Zn       0.71459    0.87839    0.48988    1.000
    N5       N        0.48600    0.00350    0.47700    1.000
    C41      C        0.48410    0.87590    0.44980    1.000
    C42      C        0.44440    0.86130    0.40570    1.000
    H29      H        0.41960    0.93360    0.39410    1.000
    C43      C        0.44170    0.73870    0.37870    1.000
    H30      H        0.41520    0.72890    0.34910    1.000
    C44      C        0.47880    0.63060    0.39590    1.000
    H31      H        0.47700    0.54860    0.37790    1.000
    C45      C        0.51840    0.64530    0.44010    1.000
    C46      C        0.52110    0.76790    0.46710    1.000
    H32      H        0.54770    0.77770    0.49660    1.000
    C47      C        0.55880    0.52300    0.46020    1.000
    H33      H        0.58480    0.53540    0.48990    1.000
    C48      C        0.59550    0.28610    0.45000    1.000
    C49      C        0.63900    0.29050    0.49190    1.000
    H34      H        0.64470    0.36990    0.51130    1.000
    C50      C        0.67410    0.17600    0.50470    1.000
    H35      H        0.70330    0.17890    0.53270    1.000
    N6       N        0.66570    0.05730    0.47560    1.000
    C51      C        0.62210    0.05300    0.43370    1.000
    H36      H        0.61650    0.97350    0.41430    1.000
    C52      C        0.58700    0.16740    0.42090    1.000
    H37      H        0.55790    0.16450    0.39290    1.000
    C53      C        0.55790    0.40390    0.43740    1.000
    H38      H        0.52920    0.39350    0.40930    1.000
    C54      C        0.81790    0.81870    0.43370    1.000
    C55      C        0.84920    0.84470    0.38780    1.000
    C56      C        0.82790    0.94580    0.35340    1.000
    H39      H        0.79600    0.99990    0.35960    1.000
    C57      C        0.85480    0.96570    0.30940    1.000
    H40      H        0.84180    0.03510    0.28650    1.000
    C58      C        0.90140    0.88000    0.30000    1.000
    C59      C        0.92280    0.78540    0.33490    1.000
    H41      H        0.95550    0.73300    0.32940    1.000
    C60      C        0.89610    0.76580    0.37880    1.000
    H42      H        0.91040    0.69870    0.40210    1.000
    C61      C        0.89920    0.96380    0.21230    1.000
    C62      C        0.85390    0.89210    0.18770    1.000
    H43      H        0.84210    0.80830    0.19980    1.000
    C63      C        0.82550    0.95090    0.14280    1.000
    H44      H        0.79450    0.90470    0.12380    1.000
    C64      C        0.84320    0.07790    0.12630    1.000
    C65      C        0.88980    0.14250    0.15300    1.000
    H45      H        0.90270    0.22550    0.14110    1.000
    C66      C        0.91940    0.08650    0.19860    1.000
    H46      H        0.95070    0.13120    0.21790    1.000
    C67      C        0.81270    0.14330    0.07790    1.000
    O6       O        0.77920    0.90520    0.44320    1.000
    O7       O        0.83310    0.71520    0.45950    1.000
    O8       O        0.93050    0.89790    0.25670    1.000
    O9       O        0.77340    0.07150    0.05160    1.000
    O10      O        0.82730    0.26040    0.06730    1.000
    N7       N        0.51350    0.95270    0.50080    1.000
    C68      C        0.49390    0.84330    0.46620    1.000
    C69      C        0.44450    0.85990    0.43010    1.000
    H47      H        0.42380    0.94220    0.42810    1.000
    C70      C        0.42610    0.75340    0.39680    1.000
    H48      H        0.39300    0.76450    0.37270    1.000
    C71      C        0.45710    0.63040    0.39970    1.000
    H49      H        0.44480    0.55920    0.37750    1.000
    C72      C        0.50650    0.61380    0.43580    1.000
    C73      C        0.52500    0.72030    0.46900    1.000
    H50      H        0.55800    0.70920    0.49320    1.000
    C74      C        0.53940    0.48700    0.43800    1.000
    H51      H        0.52650    0.42260    0.41320    1.000
    C75      C        0.61640    0.31450    0.47320    1.000
    C76      C        0.66430    0.29160    0.51030    1.000
    H52      H        0.67760    0.36110    0.53310    1.000
    C77      C        0.69250    0.16500    0.51350    1.000
    H53      H        0.72450    0.14970    0.53830    1.000
    N8       N        0.67270    0.06120    0.47950    1.000
    C78      C        0.62480    0.08400    0.44240    1.000
    H54      H        0.61160    0.01460    0.41960    1.000
    C79      C        0.59670    0.21070    0.43920    1.000
    H55      H        0.56460    0.22600    0.41440    1.000
    C80      C        0.58500    0.45130    0.47050    1.000
    H56      H        0.59960    0.51670    0.49440    1.000
    Zn3      Zn       0.78541    0.37839    0.01012    1.000
    N9       N        0.01400    0.50350    0.02300    1.000
    C81      C        0.01590    0.37590    0.05020    1.000
    C82      C        0.05560    0.36130    0.09430    1.000
    H57      H        0.08040    0.43360    0.10590    1.000
    C83      C        0.05830    0.23870    0.12130    1.000
    H58      H        0.08480    0.22890    0.15090    1.000
    C84      C        0.02120    0.13060    0.10410    1.000
    H59      H        0.02300    0.04860    0.12210    1.000
    C85      C        0.98160    0.14530    0.05990    1.000
    C86      C        0.97890    0.26790    0.03290    1.000
    H60      H        0.95230    0.27770    0.00340    1.000
    C87      C        0.94120    0.02300    0.03980    1.000
    H61      H        0.91520    0.03540    0.01010    1.000
    C88      C        0.90450    0.78610    0.05000    1.000
    C89      C        0.86100    0.79050    0.00810    1.000
    H62      H        0.85530    0.86990    0.98870    1.000
    C90      C        0.82590    0.67600    0.99530    1.000
    H63      H        0.79670    0.67890    0.96730    1.000
    N10      N        0.83430    0.55730    0.02440    1.000
    C91      C        0.87790    0.55300    0.06630    1.000
    H64      H        0.88350    0.47350    0.08570    1.000
    C92      C        0.91300    0.66740    0.07910    1.000
    H65      H        0.94210    0.66450    0.10710    1.000
    C93      C        0.94210    0.90390    0.06260    1.000
    H66      H        0.97080    0.89350    0.09070    1.000
    C94      C        0.68210    0.31870    0.06630    1.000
    C95      C        0.65080    0.34470    0.11220    1.000
    C96      C        0.67210    0.44580    0.14660    1.000
    H67      H        0.70400    0.49990    0.14040    1.000
    C97      C        0.64520    0.46570    0.19060    1.000
    H68      H        0.65820    0.53510    0.21350    1.000
    C98      C        0.59860    0.38000    0.20000    1.000
    C99      C        0.57720    0.28540    0.16510    1.000
    H69      H        0.54450    0.23300    0.17060    1.000
    C100     C        0.60390    0.26580    0.12120    1.000
    H70      H        0.58960    0.19870    0.09790    1.000
    C101     C        0.60080    0.46380    0.28770    1.000
    C102     C        0.64610    0.39210    0.31230    1.000
    H71      H        0.65790    0.30830    0.30020    1.000
    C103     C        0.67450    0.45090    0.35720    1.000
    H72      H        0.70550    0.40470    0.37620    1.000
    C104     C        0.65680    0.57790    0.37370    1.000
    C105     C        0.61020    0.64250    0.34700    1.000
    H73      H        0.59730    0.72550    0.35890    1.000
    C106     C        0.58060    0.58650    0.30140    1.000
    H74      H        0.54930    0.63120    0.28210    1.000
    C107     C        0.68730    0.64330    0.42210    1.000
    O11      O        0.72080    0.40520    0.05680    1.000
    O12      O        0.66690    0.21520    0.04050    1.000
    O13      O        0.56950    0.39790    0.24330    1.000
    O14      O        0.72660    0.57150    0.44840    1.000
    O15      O        0.67270    0.76040    0.43270    1.000
    N11      N        0.98650    0.45270    0.99920    1.000
    C108     C        0.00610    0.34330    0.03380    1.000
    C109     C        0.05550    0.35990    0.06990    1.000
    H75      H        0.07620    0.44220    0.07190    1.000
    C110     C        0.07390    0.25340    0.10320    1.000
    H76      H        0.10700    0.26450    0.12730    1.000
    C111     C        0.04290    0.13040    0.10030    1.000
    H77      H        0.05520    0.05920    0.12250    1.000
    C112     C        0.99350    0.11380    0.06420    1.000
    C113     C        0.97500    0.22030    0.03100    1.000
    H78      H        0.94200    0.20920    0.00680    1.000
    C114     C        0.96060    0.98700    0.06200    1.000
    H79      H        0.97350    0.92260    0.08680    1.000
    C115     C        0.88360    0.81450    0.02680    1.000
    C116     C        0.83570    0.79160    0.98970    1.000
    H80      H        0.82240    0.86110    0.96690    1.000
    C117     C        0.80750    0.66500    0.98650    1.000
    H81      H        0.77550    0.64970    0.96170    1.000
    N12      N        0.82730    0.56120    0.02050    1.000
    C118     C        0.87520    0.58400    0.05760    1.000
    H82      H        0.88840    0.51460    0.08040    1.000
    C119     C        0.90330    0.71070    0.06080    1.000
    H83      H        0.93540    0.72600    0.08560    1.000
    C120     C        0.91500    0.95130    0.02950    1.000
    H84      H        0.90040    0.01670    0.00560    1.000
    Zn4      Zn       0.28541    0.87839    0.01012    1.000
    N13      N        0.51400    0.00350    0.02300    1.000
    C121     C        0.51590    0.87590    0.05020    1.000
    C122     C        0.55560    0.86130    0.09430    1.000
    H85      H        0.58040    0.93360    0.10590    1.000
    C123     C        0.55830    0.73870    0.12130    1.000
    H86      H        0.58480    0.72890    0.15090    1.000
    C124     C        0.52120    0.63060    0.10410    1.000
    H87      H        0.52300    0.54860    0.12210    1.000
    C125     C        0.48160    0.64530    0.05990    1.000
    C126     C        0.47890    0.76790    0.03290    1.000
    H88      H        0.45230    0.77770    0.00340    1.000
    C127     C        0.44120    0.52300    0.03980    1.000
    H89      H        0.41520    0.53540    0.01010    1.000
    C128     C        0.40450    0.28610    0.05000    1.000
    C129     C        0.36100    0.29050    0.00810    1.000
    H90      H        0.35530    0.36990    0.98870    1.000
    C130     C        0.32590    0.17600    0.99530    1.000
    H91      H        0.29670    0.17890    0.96730    1.000
    N14      N        0.33430    0.05730    0.02440    1.000
    C131     C        0.37790    0.05300    0.06630    1.000
    H92      H        0.38350    0.97350    0.08570    1.000
    C132     C        0.41300    0.16740    0.07910    1.000
    H93      H        0.44210    0.16450    0.10710    1.000
    C133     C        0.44210    0.40390    0.06260    1.000
    H94      H        0.47080    0.39350    0.09070    1.000
    C134     C        0.18210    0.81870    0.06630    1.000
    C135     C        0.15080    0.84470    0.11220    1.000
    C136     C        0.17210    0.94580    0.14660    1.000
    H95      H        0.20400    0.99990    0.14040    1.000
    C137     C        0.14520    0.96570    0.19060    1.000
    H96      H        0.15820    0.03510    0.21350    1.000
    C138     C        0.09860    0.88000    0.20000    1.000
    C139     C        0.07720    0.78540    0.16510    1.000
    H97      H        0.04450    0.73300    0.17060    1.000
    C140     C        0.10390    0.76580    0.12120    1.000
    H98      H        0.08960    0.69870    0.09790    1.000
    C141     C        0.10080    0.96380    0.28770    1.000
    C142     C        0.14610    0.89210    0.31230    1.000
    H99      H        0.15790    0.80830    0.30020    1.000
    C143     C        0.17450    0.95090    0.35720    1.000
    H100     H        0.20550    0.90470    0.37620    1.000
    C144     C        0.15680    0.07790    0.37370    1.000
    C145     C        0.11020    0.14250    0.34700    1.000
    H101     H        0.09730    0.22550    0.35890    1.000
    C146     C        0.08060    0.08650    0.30140    1.000
    H102     H        0.04930    0.13120    0.28210    1.000
    C147     C        0.18730    0.14330    0.42210    1.000
    O16      O        0.22080    0.90520    0.05680    1.000
    O17      O        0.16690    0.71520    0.04050    1.000
    O18      O        0.06950    0.89790    0.24330    1.000
    O19      O        0.22660    0.07150    0.44840    1.000
    O20      O        0.17270    0.26040    0.43270    1.000
    N15      N        0.48650    0.95270    0.99920    1.000
    C148     C        0.50610    0.84330    0.03380    1.000
    C149     C        0.55550    0.85990    0.06990    1.000
    H103     H        0.57620    0.94220    0.07190    1.000
    C150     C        0.57390    0.75340    0.10320    1.000
    H104     H        0.60700    0.76450    0.12730    1.000
    C151     C        0.54290    0.63040    0.10030    1.000
    H105     H        0.55520    0.55920    0.12250    1.000
    C152     C        0.49350    0.61380    0.06420    1.000
    C153     C        0.47500    0.72030    0.03100    1.000
    H106     H        0.44200    0.70920    0.00680    1.000
    C154     C        0.46060    0.48700    0.06200    1.000
    H107     H        0.47350    0.42260    0.08680    1.000
    C155     C        0.38360    0.31450    0.02680    1.000
    C156     C        0.33570    0.29160    0.98970    1.000
    H108     H        0.32240    0.36110    0.96690    1.000
    C157     C        0.30750    0.16500    0.98650    1.000
    H109     H        0.27550    0.14970    0.96170    1.000
    N16      N        0.32730    0.06120    0.02050    1.000
    C158     C        0.37520    0.08400    0.05760    1.000
    H110     H        0.38840    0.01460    0.08040    1.000
    C159     C        0.40330    0.21070    0.06080    1.000
    H111     H        0.43540    0.22600    0.08560    1.000
    C160     C        0.41500    0.45130    0.02950    1.000
    H112     H        0.40040    0.51670    0.00560    1.000
    Zn5      Zn       0.78541    0.62161    0.51012    1.000
    N17      N        0.01400    0.49650    0.52300    1.000
    C161     C        0.01590    0.62410    0.55020    1.000
    C162     C        0.05560    0.63870    0.59430    1.000
    H113     H        0.08040    0.56640    0.60590    1.000
    C163     C        0.05830    0.76130    0.62130    1.000
    H114     H        0.08480    0.77110    0.65090    1.000
    C164     C        0.02120    0.86940    0.60410    1.000
    H115     H        0.02300    0.95140    0.62210    1.000
    C165     C        0.98160    0.85470    0.55990    1.000
    C166     C        0.97890    0.73210    0.53290    1.000
    H116     H        0.95230    0.72230    0.50340    1.000
    C167     C        0.94120    0.97700    0.53980    1.000
    H117     H        0.91520    0.96460    0.51010    1.000
    C168     C        0.90450    0.21390    0.55000    1.000
    C169     C        0.86100    0.20950    0.50810    1.000
    H118     H        0.85530    0.13010    0.48870    1.000
    C170     C        0.82590    0.32400    0.49530    1.000
    H119     H        0.79670    0.32110    0.46730    1.000
    N18      N        0.83430    0.44270    0.52440    1.000
    C171     C        0.87790    0.44700    0.56630    1.000
    H120     H        0.88350    0.52650    0.58570    1.000
    C172     C        0.91300    0.33260    0.57910    1.000
    H121     H        0.94210    0.33550    0.60710    1.000
    C173     C        0.94210    0.09610    0.56260    1.000
    H122     H        0.97080    0.10650    0.59070    1.000
    C174     C        0.68210    0.68130    0.56630    1.000
    C175     C        0.65080    0.65530    0.61220    1.000
    C176     C        0.67210    0.55420    0.64660    1.000
    H123     H        0.70400    0.50010    0.64040    1.000
    C177     C        0.64520    0.53430    0.69060    1.000
    H124     H        0.65820    0.46490    0.71350    1.000
    C178     C        0.59860    0.62000    0.70000    1.000
    C179     C        0.57720    0.71460    0.66510    1.000
    H125     H        0.54450    0.76700    0.67060    1.000
    C180     C        0.60390    0.73420    0.62120    1.000
    H126     H        0.58960    0.80130    0.59790    1.000
    C181     C        0.60080    0.53620    0.78770    1.000
    C182     C        0.64610    0.60790    0.81230    1.000
    H127     H        0.65790    0.69170    0.80020    1.000
    C183     C        0.67450    0.54910    0.85720    1.000
    H128     H        0.70550    0.59530    0.87620    1.000
    C184     C        0.65680    0.42210    0.87370    1.000
    C185     C        0.61020    0.35750    0.84700    1.000
    H129     H        0.59730    0.27450    0.85890    1.000
    C186     C        0.58060    0.41350    0.80140    1.000
    H130     H        0.54930    0.36880    0.78210    1.000
    C187     C        0.68730    0.35670    0.92210    1.000
    O21      O        0.72080    0.59480    0.55680    1.000
    O22      O        0.66690    0.78480    0.54050    1.000
    O23      O        0.56950    0.60210    0.74330    1.000
    O24      O        0.72660    0.42850    0.94840    1.000
    O25      O        0.67270    0.23960    0.93270    1.000
    N19      N        0.98650    0.54730    0.49920    1.000
    C188     C        0.00610    0.65670    0.53380    1.000
    C189     C        0.05550    0.64010    0.56990    1.000
    H131     H        0.07620    0.55780    0.57190    1.000
    C190     C        0.07390    0.74660    0.60320    1.000
    H132     H        0.10700    0.73550    0.62730    1.000
    C191     C        0.04290    0.86960    0.60030    1.000
    H133     H        0.05520    0.94080    0.62250    1.000
    C192     C        0.99350    0.88620    0.56420    1.000
    C193     C        0.97500    0.77970    0.53100    1.000
    H134     H        0.94200    0.79080    0.50680    1.000
    C194     C        0.96060    0.01300    0.56200    1.000
    H135     H        0.97350    0.07740    0.58680    1.000
    C195     C        0.88360    0.18550    0.52680    1.000
    C196     C        0.83570    0.20840    0.48970    1.000
    H136     H        0.82240    0.13890    0.46690    1.000
    C197     C        0.80750    0.33500    0.48650    1.000
    H137     H        0.77550    0.35030    0.46170    1.000
    N20      N        0.82730    0.43880    0.52050    1.000
    C198     C        0.87520    0.41600    0.55760    1.000
    H138     H        0.88840    0.48540    0.58040    1.000
    C199     C        0.90330    0.28930    0.56080    1.000
    H139     H        0.93540    0.27400    0.58560    1.000
    C200     C        0.91500    0.04870    0.52950    1.000
    H140     H        0.90040    0.98330    0.50560    1.000
    Zn6      Zn       0.28541    0.12161    0.51012    1.000
    N21      N        0.51400    0.99650    0.52300    1.000
    C201     C        0.51590    0.12410    0.55020    1.000
    C202     C        0.55560    0.13870    0.59430    1.000
    H141     H        0.58040    0.06640    0.60590    1.000
    C203     C        0.55830    0.26130    0.62130    1.000
    H142     H        0.58480    0.27110    0.65090    1.000
    C204     C        0.52120    0.36940    0.60410    1.000
    H143     H        0.52300    0.45140    0.62210    1.000
    C205     C        0.48160    0.35470    0.55990    1.000
    C206     C        0.47890    0.23210    0.53290    1.000
    H144     H        0.45230    0.22230    0.50340    1.000
    C207     C        0.44120    0.47700    0.53980    1.000
    H145     H        0.41520    0.46460    0.51010    1.000
    C208     C        0.40450    0.71390    0.55000    1.000
    C209     C        0.36100    0.70950    0.50810    1.000
    H146     H        0.35530    0.63010    0.48870    1.000
    C210     C        0.32590    0.82400    0.49530    1.000
    H147     H        0.29670    0.82110    0.46730    1.000
    N22      N        0.33430    0.94270    0.52440    1.000
    C211     C        0.37790    0.94700    0.56630    1.000
    H148     H        0.38350    0.02650    0.58570    1.000
    C212     C        0.41300    0.83260    0.57910    1.000
    H149     H        0.44210    0.83550    0.60710    1.000
    C213     C        0.44210    0.59610    0.56260    1.000
    H150     H        0.47080    0.60650    0.59070    1.000
    C214     C        0.18210    0.18130    0.56630    1.000
    C215     C        0.15080    0.15530    0.61220    1.000
    C216     C        0.17210    0.05420    0.64660    1.000
    H151     H        0.20400    0.00010    0.64040    1.000
    C217     C        0.14520    0.03430    0.69060    1.000
    H152     H        0.15820    0.96490    0.71350    1.000
    C218     C        0.09860    0.12000    0.70000    1.000
    C219     C        0.07720    0.21460    0.66510    1.000
    H153     H        0.04450    0.26700    0.67060    1.000
    C220     C        0.10390    0.23420    0.62120    1.000
    H154     H        0.08960    0.30130    0.59790    1.000
    C221     C        0.10080    0.03620    0.78770    1.000
    C222     C        0.14610    0.10790    0.81230    1.000
    H155     H        0.15790    0.19170    0.80020    1.000
    C223     C        0.17450    0.04910    0.85720    1.000
    H156     H        0.20550    0.09530    0.87620    1.000
    C224     C        0.15680    0.92210    0.87370    1.000
    C225     C        0.11020    0.85750    0.84700    1.000
    H157     H        0.09730    0.77450    0.85890    1.000
    C226     C        0.08060    0.91350    0.80140    1.000
    H158     H        0.04930    0.86880    0.78210    1.000
    C227     C        0.18730    0.85670    0.92210    1.000
    O26      O        0.22080    0.09480    0.55680    1.000
    O27      O        0.16690    0.28480    0.54050    1.000
    O28      O        0.06950    0.10210    0.74330    1.000
    O29      O        0.22660    0.92850    0.94840    1.000
    O30      O        0.17270    0.73960    0.93270    1.000
    N23      N        0.48650    0.04730    0.49920    1.000
    C228     C        0.50610    0.15670    0.53380    1.000
    C229     C        0.55550    0.14010    0.56990    1.000
    H159     H        0.57620    0.05780    0.57190    1.000
    C230     C        0.57390    0.24660    0.60320    1.000
    H160     H        0.60700    0.23550    0.62730    1.000
    C231     C        0.54290    0.36960    0.60030    1.000
    H161     H        0.55520    0.44080    0.62250    1.000
    C232     C        0.49350    0.38620    0.56420    1.000
    C233     C        0.47500    0.27970    0.53100    1.000
    H162     H        0.44200    0.29080    0.50680    1.000
    C234     C        0.46060    0.51300    0.56200    1.000
    H163     H        0.47350    0.57740    0.58680    1.000
    C235     C        0.38360    0.68550    0.52680    1.000
    C236     C        0.33570    0.70840    0.48970    1.000
    H164     H        0.32240    0.63890    0.46690    1.000
    C237     C        0.30750    0.83500    0.48650    1.000
    H165     H        0.27550    0.85030    0.46170    1.000
    N24      N        0.32730    0.93880    0.52050    1.000
    C238     C        0.37520    0.91600    0.55760    1.000
    H166     H        0.38840    0.98540    0.58040    1.000
    C239     C        0.40330    0.78930    0.56080    1.000
    H167     H        0.43540    0.77400    0.58560    1.000
    C240     C        0.41500    0.54870    0.52950    1.000
    H168     H        0.40040    0.48330    0.50560    1.000
    Zn7      Zn       0.21459    0.62161    0.98988    1.000
    N25      N        0.98600    0.49650    0.97700    1.000
    C241     C        0.98410    0.62410    0.94980    1.000
    C242     C        0.94440    0.63870    0.90570    1.000
    H169     H        0.91960    0.56640    0.89410    1.000
    C243     C        0.94170    0.76130    0.87870    1.000
    H170     H        0.91520    0.77110    0.84910    1.000
    C244     C        0.97880    0.86940    0.89590    1.000
    H171     H        0.97700    0.95140    0.87790    1.000
    C245     C        0.01840    0.85470    0.94010    1.000
    C246     C        0.02110    0.73210    0.96710    1.000
    H172     H        0.04770    0.72230    0.99660    1.000
    C247     C        0.05880    0.97700    0.96020    1.000
    H173     H        0.08480    0.96460    0.98990    1.000
    C248     C        0.09550    0.21390    0.95000    1.000
    C249     C        0.13900    0.20950    0.99190    1.000
    H174     H        0.14470    0.13010    0.01130    1.000
    C250     C        0.17410    0.32400    0.00470    1.000
    H175     H        0.20330    0.32110    0.03270    1.000
    N26      N        0.16570    0.44270    0.97560    1.000
    C251     C        0.12210    0.44700    0.93370    1.000
    H176     H        0.11650    0.52650    0.91430    1.000
    C252     C        0.08700    0.33260    0.92090    1.000
    H177     H        0.05790    0.33550    0.89290    1.000
    C253     C        0.05790    0.09610    0.93740    1.000
    H178     H        0.02920    0.10650    0.90930    1.000
    C254     C        0.31790    0.68130    0.93370    1.000
    C255     C        0.34920    0.65530    0.88780    1.000
    C256     C        0.32790    0.55420    0.85340    1.000
    H179     H        0.29600    0.50010    0.85960    1.000
    C257     C        0.35480    0.53430    0.80940    1.000
    H180     H        0.34180    0.46490    0.78650    1.000
    C258     C        0.40140    0.62000    0.80000    1.000
    C259     C        0.42280    0.71460    0.83490    1.000
    H181     H        0.45550    0.76700    0.82940    1.000
    C260     C        0.39610    0.73420    0.87880    1.000
    H182     H        0.41040    0.80130    0.90210    1.000
    C261     C        0.39920    0.53620    0.71230    1.000
    C262     C        0.35390    0.60790    0.68770    1.000
    H183     H        0.34210    0.69170    0.69980    1.000
    C263     C        0.32550    0.54910    0.64280    1.000
    H184     H        0.29450    0.59530    0.62380    1.000
    C264     C        0.34320    0.42210    0.62630    1.000
    C265     C        0.38980    0.35750    0.65300    1.000
    H185     H        0.40270    0.27450    0.64110    1.000
    C266     C        0.41940    0.41350    0.69860    1.000
    H186     H        0.45070    0.36880    0.71790    1.000
    C267     C        0.31270    0.35670    0.57790    1.000
    O31      O        0.27920    0.59480    0.94320    1.000
    O32      O        0.33310    0.78480    0.95950    1.000
    O33      O        0.43050    0.60210    0.75670    1.000
    O34      O        0.27340    0.42850    0.55160    1.000
    O35      O        0.32730    0.23960    0.56730    1.000
    N27      N        0.01350    0.54730    0.00080    1.000
    C268     C        0.99390    0.65670    0.96620    1.000
    C269     C        0.94450    0.64010    0.93010    1.000
    H187     H        0.92380    0.55780    0.92810    1.000
    C270     C        0.92610    0.74660    0.89680    1.000
    H188     H        0.89300    0.73550    0.87270    1.000
    C271     C        0.95710    0.86960    0.89970    1.000
    H189     H        0.94480    0.94080    0.87750    1.000
    C272     C        0.00650    0.88620    0.93580    1.000
    C273     C        0.02500    0.77970    0.96900    1.000
    H190     H        0.05800    0.79080    0.99320    1.000
    C274     C        0.03940    0.01300    0.93800    1.000
    H191     H        0.02650    0.07740    0.91320    1.000
    C275     C        0.11640    0.18550    0.97320    1.000
    C276     C        0.16430    0.20840    0.01030    1.000
    H192     H        0.17760    0.13890    0.03310    1.000
    C277     C        0.19250    0.33500    0.01350    1.000
    H193     H        0.22450    0.35030    0.03830    1.000
    N28      N        0.17270    0.43880    0.97950    1.000
    C278     C        0.12480    0.41600    0.94240    1.000
    H194     H        0.11160    0.48540    0.91960    1.000
    C279     C        0.09670    0.28930    0.93920    1.000
    H195     H        0.06460    0.27400    0.91440    1.000
    C280     C        0.08500    0.04870    0.97050    1.000
    H196     H        0.09960    0.98330    0.99440    1.000
    Zn8      Zn       0.71459    0.12161    0.98988    1.000
    N29      N        0.48600    0.99650    0.97700    1.000
    C281     C        0.48410    0.12410    0.94980    1.000
    C282     C        0.44440    0.13870    0.90570    1.000
    H197     H        0.41960    0.06640    0.89410    1.000
    C283     C        0.44170    0.26130    0.87870    1.000
    H198     H        0.41520    0.27110    0.84910    1.000
    C284     C        0.47880    0.36940    0.89590    1.000
    H199     H        0.47700    0.45140    0.87790    1.000
    C285     C        0.51840    0.35470    0.94010    1.000
    C286     C        0.52110    0.23210    0.96710    1.000
    H200     H        0.54770    0.22230    0.99660    1.000
    C287     C        0.55880    0.47700    0.96020    1.000
    H201     H        0.58480    0.46460    0.98990    1.000
    C288     C        0.59550    0.71390    0.95000    1.000
    C289     C        0.63900    0.70950    0.99190    1.000
    H202     H        0.64470    0.63010    0.01130    1.000
    C290     C        0.67410    0.82400    0.00470    1.000
    H203     H        0.70330    0.82110    0.03270    1.000
    N30      N        0.66570    0.94270    0.97560    1.000
    C291     C        0.62210    0.94700    0.93370    1.000
    H204     H        0.61650    0.02650    0.91430    1.000
    C292     C        0.58700    0.83260    0.92090    1.000
    H205     H        0.55790    0.83550    0.89290    1.000
    C293     C        0.55790    0.59610    0.93740    1.000
    H206     H        0.52920    0.60650    0.90930    1.000
    C294     C        0.81790    0.18130    0.93370    1.000
    C295     C        0.84920    0.15530    0.88780    1.000
    C296     C        0.82790    0.05420    0.85340    1.000
    H207     H        0.79600    0.00010    0.85960    1.000
    C297     C        0.85480    0.03430    0.80940    1.000
    H208     H        0.84180    0.96490    0.78650    1.000
    C298     C        0.90140    0.12000    0.80000    1.000
    C299     C        0.92280    0.21460    0.83490    1.000
    H209     H        0.95550    0.26700    0.82940    1.000
    C300     C        0.89610    0.23420    0.87880    1.000
    H210     H        0.91040    0.30130    0.90210    1.000
    C301     C        0.89920    0.03620    0.71230    1.000
    C302     C        0.85390    0.10790    0.68770    1.000
    H211     H        0.84210    0.19170    0.69980    1.000
    C303     C        0.82550    0.04910    0.64280    1.000
    H212     H        0.79450    0.09530    0.62380    1.000
    C304     C        0.84320    0.92210    0.62630    1.000
    C305     C        0.88980    0.85750    0.65300    1.000
    H213     H        0.90270    0.77450    0.64110    1.000
    C306     C        0.91940    0.91350    0.69860    1.000
    H214     H        0.95070    0.86880    0.71790    1.000
    C307     C        0.81270    0.85670    0.57790    1.000
    O36      O        0.77920    0.09480    0.94320    1.000
    O37      O        0.83310    0.28480    0.95950    1.000
    O38      O        0.93050    0.10210    0.75670    1.000
    O39      O        0.77340    0.92850    0.55160    1.000
    O40      O        0.82730    0.73960    0.56730    1.000
    N31      N        0.51350    0.04730    0.00080    1.000
    C308     C        0.49390    0.15670    0.96620    1.000
    C309     C        0.44450    0.14010    0.93010    1.000
    H215     H        0.42380    0.05780    0.92810    1.000
    C310     C        0.42610    0.24660    0.89680    1.000
    H216     H        0.39300    0.23550    0.87270    1.000
    C311     C        0.45710    0.36960    0.89970    1.000
    H217     H        0.44480    0.44080    0.87750    1.000
    C312     C        0.50650    0.38620    0.93580    1.000
    C313     C        0.52500    0.27970    0.96900    1.000
    H218     H        0.55800    0.29080    0.99320    1.000
    C314     C        0.53940    0.51300    0.93800    1.000
    H219     H        0.52650    0.57740    0.91320    1.000
    C315     C        0.61640    0.68550    0.97320    1.000
    C316     C        0.66430    0.70840    0.01030    1.000
    H220     H        0.67760    0.63890    0.03310    1.000
    C317     C        0.69250    0.83500    0.01350    1.000
    H221     H        0.72450    0.85030    0.03830    1.000
    N32      N        0.67270    0.93880    0.97950    1.000
    C318     C        0.62480    0.91600    0.94240    1.000
    H222     H        0.61160    0.98540    0.91960    1.000
    C319     C        0.59670    0.78930    0.93920    1.000
    H223     H        0.56460    0.77400    0.91440    1.000
    C320     C        0.58500    0.54870    0.97050    1.000
    H224     H        0.59960    0.48330    0.99440    1.000
