# CIF file generated by openbabel 3.1.0, see https://openbabel.org
data_I
_chemical_name_common 'image0'
_cell_length_a 11.6667
_cell_length_b 5.5586
_cell_length_c 22.935
_cell_angle_alpha 90
_cell_angle_beta 101.011
_cell_angle_gamma 90
_space_group_name_H-M_alt 'P 1'
_space_group_name_Hall 'P 1'
loop_
    _symmetry_equiv_pos_as_xyz
    x,y,z
loop_
    _atom_site_label
    _atom_site_type_symbol
    _atom_site_fract_x
    _atom_site_fract_y
    _atom_site_fract_z
    _atom_site_occupancy
    S1       S        0.39611    0.03460    0.10598    1.000
    O1       O        0.98690    0.47560    0.24710    1.000
    O2       O        0.25950    0.08340    0.80970    1.000
    O3       O        0.95880    0.08020    0.25560    1.000
    O4       O        0.26410    0.47680    0.82727    1.000
    O5       O        0.41270    0.77550    0.11000    1.000
    O6       O        0.49360    0.19640    0.12913    1.000
    C1       C        0.18860    0.94220    0.13920    1.000
    H1       H        0.18770    0.79700    0.11730    1.000
    C2       C        0.27920    0.10940    0.14090    1.000
    C3       C        0.29060    0.94060    0.99130    1.000
    H2       H        0.26760    0.79280    0.00640    1.000
    C4       C        0.35200    0.10970    0.02900    1.000
    C5       C        0.27810    0.32940    0.17050    1.000
    H3       H        0.33850    0.44390    0.17030    1.000
    C6       C        0.38060    0.33520    0.01060    1.000
    H4       H        0.41790    0.45210    0.03800    1.000
    C7       C        0.26350    0.98980    0.93150    1.000
    H5       H        0.22280    0.87460    0.90460    1.000
    C8       C        0.10030    0.99290    0.17010    1.000
    H6       H        0.04010    0.87830    0.17070    1.000
    C9       C        0.18820    0.37710    0.19980    1.000
    H7       H        0.18720    0.52630    0.22000    1.000
    C10      C        0.35210    0.38270    0.94960    1.000
    H8       H        0.37130    0.53480    0.93510    1.000
    C11      C        0.27380    0.26060    0.84500    1.000
    C12      C        0.00610    0.25620    0.23720    1.000
    C13      C        0.09870    0.21280    0.20080    1.000
    C14      C        0.29660    0.21310    0.91000    1.000
    Ca1      Ca       0.63659    0.24372    0.22129    1.000
    S2       S        0.10389    0.53460    0.39402    1.000
    O7       O        0.51310    0.97560    0.25290    1.000
    O8       O        0.24050    0.58340    0.69030    1.000
    O9       O        0.54120    0.58020    0.24440    1.000
    O10      O        0.23590    0.97680    0.67273    1.000
    O11      O        0.08730    0.27550    0.39000    1.000
    O12      O        0.00640    0.69640    0.37087    1.000
    C15      C        0.31140    0.44220    0.36080    1.000
    H9       H        0.31230    0.29700    0.38270    1.000
    C16      C        0.22080    0.60940    0.35910    1.000
    C17      C        0.20940    0.44060    0.50870    1.000
    H10      H        0.23240    0.29280    0.49360    1.000
    C18      C        0.14800    0.60970    0.47100    1.000
    C19      C        0.22190    0.82940    0.32950    1.000
    H11      H        0.16150    0.94390    0.32970    1.000
    C20      C        0.11940    0.83520    0.48940    1.000
    H12      H        0.08210    0.95210    0.46200    1.000
    C21      C        0.23650    0.48980    0.56850    1.000
    H13      H        0.27720    0.37460    0.59540    1.000
    C22      C        0.39970    0.49290    0.32990    1.000
    H14      H        0.45990    0.37830    0.32930    1.000
    C23      C        0.31180    0.87710    0.30020    1.000
    H15      H        0.31280    0.02630    0.28000    1.000
    C24      C        0.14790    0.88270    0.55040    1.000
    H16      H        0.12870    0.03480    0.56490    1.000
    C25      C        0.22620    0.76060    0.65500    1.000
    C26      C        0.49390    0.75620    0.26280    1.000
    C27      C        0.40130    0.71280    0.29920    1.000
    C28      C        0.20340    0.71310    0.59000    1.000
    Ca2      Ca       0.86341    0.74372    0.27871    1.000
    S3       S        0.60389    0.96540    0.89402    1.000
    O13      O        0.01310    0.52440    0.75290    1.000
    O14      O        0.74050    0.91660    0.19030    1.000
    O15      O        0.04120    0.91980    0.74440    1.000
    O16      O        0.73590    0.52320    0.17273    1.000
    O17      O        0.58730    0.22450    0.89000    1.000
    O18      O        0.50640    0.80360    0.87087    1.000
    C29      C        0.81140    0.05780    0.86080    1.000
    H17      H        0.81230    0.20300    0.88270    1.000
    C30      C        0.72080    0.89060    0.85910    1.000
    C31      C        0.70940    0.05940    0.00870    1.000
    H18      H        0.73240    0.20720    0.99360    1.000
    C32      C        0.64800    0.89030    0.97100    1.000
    C33      C        0.72190    0.67060    0.82950    1.000
    H19      H        0.66150    0.55610    0.82970    1.000
    C34      C        0.61940    0.66480    0.98940    1.000
    H20      H        0.58210    0.54790    0.96200    1.000
    C35      C        0.73650    0.01020    0.06850    1.000
    H21      H        0.77720    0.12540    0.09540    1.000
    C36      C        0.89970    0.00710    0.82990    1.000
    H22      H        0.95990    0.12170    0.82930    1.000
    C37      C        0.81180    0.62290    0.80020    1.000
    H23      H        0.81280    0.47370    0.78000    1.000
    C38      C        0.64790    0.61730    0.05040    1.000
    H24      H        0.62870    0.46520    0.06490    1.000
    C39      C        0.72620    0.73940    0.15500    1.000
    C40      C        0.99390    0.74380    0.76280    1.000
    C41      C        0.90130    0.78720    0.79920    1.000
    C42      C        0.70340    0.78690    0.09000    1.000
    Ca3      Ca       0.36341    0.75628    0.77871    1.000
    S4       S        0.89611    0.46540    0.60598    1.000
    O19      O        0.48690    0.02440    0.74710    1.000
    O20      O        0.75950    0.41660    0.30970    1.000
    O21      O        0.45880    0.41980    0.75560    1.000
    O22      O        0.76410    0.02320    0.32727    1.000
    O23      O        0.91270    0.72450    0.61000    1.000
    O24      O        0.99360    0.30360    0.62913    1.000
    C43      C        0.68860    0.55780    0.63920    1.000
    H25      H        0.68770    0.70300    0.61730    1.000
    C44      C        0.77920    0.39060    0.64090    1.000
    C45      C        0.79060    0.55940    0.49130    1.000
    H26      H        0.76760    0.70720    0.50640    1.000
    C46      C        0.85200    0.39030    0.52900    1.000
    C47      C        0.77810    0.17060    0.67050    1.000
    H27      H        0.83850    0.05610    0.67030    1.000
    C48      C        0.88060    0.16480    0.51060    1.000
    H28      H        0.91790    0.04790    0.53800    1.000
    C49      C        0.76350    0.51020    0.43150    1.000
    H29      H        0.72280    0.62540    0.40460    1.000
    C50      C        0.60030    0.50710    0.67010    1.000
    H30      H        0.54010    0.62170    0.67070    1.000
    C51      C        0.68820    0.12290    0.69980    1.000
    H31      H        0.68720    0.97370    0.72000    1.000
    C52      C        0.85210    0.11730    0.44960    1.000
    H32      H        0.87130    0.96520    0.43510    1.000
    C53      C        0.77380    0.23940    0.34500    1.000
    C54      C        0.50610    0.24380    0.73720    1.000
    C55      C        0.59870    0.28720    0.70080    1.000
    C56      C        0.79660    0.28690    0.41000    1.000
    Ca4      Ca       0.13659    0.25628    0.72129    1.000
