data_functionalizedCrystal
_audit_creation_method	'EQeq! by Chris Wilmer'
_symmetry_space_group_name_H-M	'P1'
_symmetry_Int_Tables_number	1
_symmetry_cell_setting	triclinic
loop_
_symmetry_equiv_pos_as_xyz
  x,y,z
_cell_length_a	11.4917
_cell_length_b	18.524
_cell_length_c	25.727
_cell_angle_alpha	90
_cell_angle_beta	96.28
_cell_angle_gamma	90
loop_
_atom_site_label
_atom_site_type_symbol
_atom_site_fract_x
_atom_site_fract_y
_atom_site_fract_z
_atom_site_charge
Mof_C 	C 	0.4634	0.7113	0.19187	-0.046
Mof_C 	C 	0.5755	0.7313	0.18992	-0.052
Mof_C 	C 	0.6468	0.7668	0.23472	0.089
Mof_C 	C 	0.611	0.8307	0.255	-0.131
Mof_H 	H 	0.5396	0.8522	0.2405	0.08
Mof_C 	C 	0.6773	0.8639	0.2959	0.057
Mof_H 	H 	0.6512	0.9082	0.3092	0.028
Mof_C 	C 	0.7808	0.8339	0.31772	-0.116
Mof_C 	C 	0.8182	0.7707	0.29734	0.054
Mof_H 	H 	0.8893	0.7491	0.3121	0.03
Mof_C 	C 	0.753	0.7382	0.2556	-0.131
Mof_H 	H 	0.7815	0.6955	0.2409	0.08
Mof_C 	C 	0.4051	0.7132	0.24092	0.084
Mof_C 	C 	0.4541	0.6778	0.28546	-0.127
Mof_H 	H 	0.5274	0.6541	0.2856	0.079
Mof_C 	C 	0.3954	0.6769	0.3301	0.053
Mof_H 	H 	0.4298	0.6525	0.3605	0.03
Mof_C 	C 	0.2886	0.7105	0.33126	-0.119
Mof_C 	C 	0.2409	0.7465	0.28698	0.054
Mof_H 	H 	0.1684	0.771	0.2872	0.03
Mof_C 	C 	0.2981	0.7471	0.24227	-0.129
Mof_H 	H 	0.2631	0.7712	0.2119	0.078
Mof_C 	C 	0.387	0.6845	0.14526	0.073
Mof_C 	C 	0.3282	0.6197	0.148	-0.112
Mof_H 	H 	0.3388	0.5922	0.1794	0.076
Mof_C 	C 	0.2541	0.5939	0.10597	0.035
Mof_H 	H 	0.2159	0.5488	0.1085	0.046
Mof_C 	C 	0.2358	0.634	0.0602	-0.101
Mof_C 	C 	0.2941	0.6995	0.05682	0.036
Mof_H 	H 	0.2818	0.7274	0.0257	0.038
Mof_C 	C 	0.3704	0.7242	0.09886	-0.113
Mof_H 	H 	0.4114	0.7683	0.096	0.076
Mof_C 	C 	0.6396	0.7187	0.14348	0.082
Mof_C 	C 	0.7027	0.774	0.12308	-0.125
Mof_H 	H 	0.7017	0.821	0.1379	0.077
Mof_C 	C 	0.7671	0.7614	0.08141	0.049
Mof_H 	H 	0.8083	0.8	0.0674	0.028
Mof_C 	C 	0.7715	0.6935	0.06026	-0.108
Mof_C 	C 	0.7079	0.6375	0.08016	0.046
Mof_H 	H 	0.7094	0.5905	0.0654	0.035
Mof_C 	C 	0.6427	0.6505	0.12125	-0.122
Mof_H 	H 	0.5993	0.6123	0.1345	0.079
Mof_C 	C 	0.1507	0.6078	0.01634	0.318
Mof_C 	C 	0.2253	0.7087	0.3796	0.364
Mof_C 	C 	0.8483	0.8697	0.36323	0.322
Mof_C 	C 	0.8473	0.6784	0.01758	0.335
Mof_Cd	Cd	0.0383	0.43733	0.05366	0.469
Mof_Cd	Cd	0.02417	0.75042	0.94172	0.445
Mof_O 	O 	0.1047	0.54629	0.01959	-0.291
Mof_O 	O 	0.1238	0.64754	0.97681	-0.289
Mof_O 	O 	0.8666	0.61228	0.0088	-0.278
Mof_O 	O 	0.886	0.7305	0.99471	-0.302
Mof_O 	O 	0.2758	0.6869	0.4205	-0.272
Mof_O 	O 	0.1265	0.7327	0.37582	-0.305
Mof_O 	O 	0.9389	0.83982	0.3856	-0.293
Mof_O 	O 	0.8141	0.92922	0.37857	-0.285
Mof_C 	C 	0.5366	0.2113	0.30813	-0.047
Mof_C 	C 	0.4245	0.2313	0.31008	-0.053
Mof_C 	C 	0.3532	0.2668	0.26528	0.088
Mof_C 	C 	0.389	0.3307	0.245	-0.132
Mof_H 	H 	0.4604	0.3522	0.2595	0.079
Mof_C 	C 	0.3227	0.3639	0.2041	0.056
Mof_H 	H 	0.3488	0.4082	0.1908	0.027
Mof_C 	C 	0.2192	0.3339	0.18228	-0.117
Mof_C 	C 	0.1818	0.2707	0.20266	0.053
Mof_H 	H 	0.1107	0.2491	0.1879	0.029
Mof_C 	C 	0.247	0.2382	0.2444	-0.132
Mof_H 	H 	0.2185	0.1955	0.2591	0.079
Mof_C 	C 	0.5949	0.2132	0.25908	0.084
Mof_C 	C 	0.5459	0.1778	0.21454	-0.127
Mof_H 	H 	0.4726	0.1541	0.2144	0.079
Mof_C 	C 	0.6046	0.1769	0.1699	0.053
Mof_H 	H 	0.5702	0.1525	0.1395	0.03
Mof_C 	C 	0.7114	0.2105	0.16874	-0.119
Mof_C 	C 	0.7591	0.2465	0.21302	0.054
Mof_H 	H 	0.8316	0.271	0.2128	0.03
Mof_C 	C 	0.7019	0.2471	0.25773	-0.129
Mof_H 	H 	0.7369	0.2712	0.2881	0.078
Mof_C 	C 	0.613	0.1845	0.35474	0.073
Mof_C 	C 	0.6718	0.1197	0.352	-0.112
Mof_H 	H 	0.6612	0.0922	0.3206	0.076
Mof_C 	C 	0.7459	0.0939	0.39403	0.035
Mof_H 	H 	0.7841	0.0488	0.3915	0.046
Mof_C 	C 	0.7642	0.134	0.4398	-0.101
Mof_C 	C 	0.7059	0.1995	0.44318	0.036
Mof_H 	H 	0.7182	0.2274	0.4743	0.038
Mof_C 	C 	0.6296	0.2242	0.40114	-0.112
Mof_H 	H 	0.5886	0.2683	0.404	0.076
Mof_C 	C 	0.3604	0.2187	0.35652	0.082
Mof_C 	C 	0.2973	0.274	0.37692	-0.125
Mof_H 	H 	0.2983	0.321	0.3621	0.077
Mof_C 	C 	0.2329	0.2614	0.41859	0.049
Mof_H 	H 	0.1917	0.3	0.4326	0.028
Mof_C 	C 	0.2285	0.1935	0.43974	-0.108
Mof_C 	C 	0.2921	0.1375	0.41984	0.046
Mof_H 	H 	0.2906	0.0905	0.4346	0.035
Mof_C 	C 	0.3573	0.1505	0.37875	-0.122
Mof_H 	H 	0.4007	0.1123	0.3655	0.079
Mof_C 	C 	0.8493	0.1078	0.48366	0.318
Mof_C 	C 	0.7747	0.2087	0.1204	0.364
Mof_C 	C 	0.1517	0.3697	0.13677	0.322
Mof_C 	C 	0.1527	0.1784	0.48242	0.336
Mof_Cd	Cd	0.9617	0.93733	0.44634	0.469
Mof_Cd	Cd	0.97583	0.25042	0.55828	0.445
Mof_O 	O 	0.8953	0.04629	0.48041	-0.291
Mof_O 	O 	0.8762	0.14754	0.52319	-0.289
Mof_O 	O 	0.1334	0.11228	0.4912	-0.278
Mof_O 	O 	0.114	0.2305	0.50529	-0.302
Mof_O 	O 	0.7242	0.1869	0.0795	-0.272
Mof_O 	O 	0.8735	0.2327	0.12418	-0.305
Mof_O 	O 	0.0611	0.33982	0.1144	-0.293
Mof_O 	O 	0.1859	0.42922	0.12143	-0.285
Mof_C 	C 	0.5366	0.2887	0.80813	-0.047
Mof_C 	C 	0.4245	0.2687	0.81008	-0.053
Mof_C 	C 	0.3532	0.2332	0.76528	0.088
Mof_C 	C 	0.389	0.1693	0.745	-0.132
Mof_H 	H 	0.4604	0.1478	0.7595	0.079
Mof_C 	C 	0.3227	0.1361	0.7041	0.056
Mof_H 	H 	0.3488	0.0918	0.6908	0.027
Mof_C 	C 	0.2192	0.1661	0.68228	-0.117
Mof_C 	C 	0.1818	0.2293	0.70266	0.053
Mof_H 	H 	0.1107	0.2509	0.6879	0.029
Mof_C 	C 	0.247	0.2618	0.7444	-0.132
Mof_H 	H 	0.2185	0.3045	0.7591	0.079
Mof_C 	C 	0.5949	0.2868	0.75908	0.084
Mof_C 	C 	0.5459	0.3222	0.71454	-0.127
Mof_H 	H 	0.4726	0.3459	0.7144	0.079
Mof_C 	C 	0.6046	0.3231	0.6699	0.053
Mof_H 	H 	0.5702	0.3475	0.6395	0.03
Mof_C 	C 	0.7114	0.2895	0.66874	-0.119
Mof_C 	C 	0.7591	0.2535	0.71302	0.054
Mof_H 	H 	0.8316	0.229	0.7128	0.03
Mof_C 	C 	0.7019	0.2529	0.75773	-0.129
Mof_H 	H 	0.7369	0.2288	0.7881	0.078
Mof_C 	C 	0.613	0.3155	0.85474	0.073
Mof_C 	C 	0.6718	0.3803	0.852	-0.112
Mof_H 	H 	0.6612	0.4078	0.8206	0.076
Mof_C 	C 	0.7459	0.4061	0.89403	0.035
Mof_H 	H 	0.7841	0.4512	0.8915	0.046
Mof_C 	C 	0.7642	0.366	0.9398	-0.101
Mof_C 	C 	0.7059	0.3005	0.94318	0.036
Mof_H 	H 	0.7182	0.2726	0.9743	0.038
Mof_C 	C 	0.6296	0.2758	0.90114	-0.113
Mof_H 	H 	0.5886	0.2317	0.904	0.076
Mof_C 	C 	0.3604	0.2813	0.85652	0.082
Mof_C 	C 	0.2973	0.226	0.87692	-0.125
Mof_H 	H 	0.2983	0.179	0.8621	0.077
Mof_C 	C 	0.2329	0.2386	0.91859	0.049
Mof_H 	H 	0.1917	0.2	0.9326	0.028
Mof_C 	C 	0.2285	0.3065	0.93974	-0.108
Mof_C 	C 	0.2921	0.3625	0.91984	0.046
Mof_H 	H 	0.2906	0.4095	0.9346	0.035
Mof_C 	C 	0.3573	0.3495	0.87875	-0.122
Mof_H 	H 	0.4007	0.3877	0.8655	0.079
Mof_C 	C 	0.8493	0.3922	0.98366	0.318
Mof_C 	C 	0.7747	0.2913	0.6204	0.364
Mof_C 	C 	0.1517	0.1303	0.63677	0.322
Mof_C 	C 	0.1527	0.3216	0.98242	0.335
Mof_Cd	Cd	0.9617	0.56267	0.94634	0.469
Mof_Cd	Cd	0.97583	0.24958	0.05828	0.445
Mof_O 	O 	0.8953	0.45371	0.98041	-0.291
Mof_O 	O 	0.8762	0.35246	0.02319	-0.289
Mof_O 	O 	0.1334	0.38772	0.9912	-0.278
Mof_O 	O 	0.114	0.2695	0.00529	-0.302
Mof_O 	O 	0.7242	0.3131	0.5795	-0.272
Mof_O 	O 	0.8735	0.2673	0.62418	-0.305
Mof_O 	O 	0.0611	0.16018	0.6144	-0.293
Mof_O 	O 	0.1859	0.07078	0.62143	-0.285
Mof_C 	C 	0.4634	0.7887	0.69187	-0.047
Mof_C 	C 	0.5755	0.7687	0.68992	-0.053
Mof_C 	C 	0.6468	0.7332	0.73472	0.088
Mof_C 	C 	0.611	0.6693	0.755	-0.132
Mof_H 	H 	0.5396	0.6478	0.7405	0.079
Mof_C 	C 	0.6773	0.6361	0.7959	0.056
Mof_H 	H 	0.6512	0.5918	0.8092	0.027
Mof_C 	C 	0.7808	0.6661	0.81772	-0.117
Mof_C 	C 	0.8182	0.7293	0.79734	0.053
Mof_H 	H 	0.8893	0.7509	0.8121	0.029
Mof_C 	C 	0.753	0.7618	0.7556	-0.132
Mof_H 	H 	0.7815	0.8045	0.7409	0.079
Mof_C 	C 	0.4051	0.7868	0.74092	0.084
Mof_C 	C 	0.4541	0.8222	0.78546	-0.127
Mof_H 	H 	0.5274	0.8459	0.7856	0.079
Mof_C 	C 	0.3954	0.8231	0.8301	0.053
Mof_H 	H 	0.4298	0.8475	0.8605	0.03
Mof_C 	C 	0.2886	0.7895	0.83126	-0.119
Mof_C 	C 	0.2409	0.7535	0.78698	0.054
Mof_H 	H 	0.1684	0.729	0.7872	0.03
Mof_C 	C 	0.2981	0.7529	0.74227	-0.129
Mof_H 	H 	0.2631	0.7288	0.7119	0.078
Mof_C 	C 	0.387	0.8155	0.64526	0.073
Mof_C 	C 	0.3282	0.8803	0.648	-0.112
Mof_H 	H 	0.3388	0.9078	0.6794	0.076
Mof_C 	C 	0.2541	0.9061	0.60597	0.035
Mof_H 	H 	0.2159	0.9512	0.6085	0.046
Mof_C 	C 	0.2358	0.866	0.5602	-0.101
Mof_C 	C 	0.2941	0.8005	0.55682	0.036
Mof_H 	H 	0.2818	0.7726	0.5257	0.038
Mof_C 	C 	0.3704	0.7758	0.59886	-0.112
Mof_H 	H 	0.4114	0.7317	0.596	0.076
Mof_C 	C 	0.6396	0.7813	0.64348	0.082
Mof_C 	C 	0.7027	0.726	0.62308	-0.125
Mof_H 	H 	0.7017	0.679	0.6379	0.077
Mof_C 	C 	0.7671	0.7386	0.58141	0.049
Mof_H 	H 	0.8083	0.7	0.5674	0.028
Mof_C 	C 	0.7715	0.8065	0.56026	-0.108
Mof_C 	C 	0.7079	0.8625	0.58016	0.046
Mof_H 	H 	0.7094	0.9095	0.5654	0.035
Mof_C 	C 	0.6427	0.8495	0.62125	-0.122
Mof_H 	H 	0.5993	0.8877	0.6345	0.079
Mof_C 	C 	0.1507	0.8922	0.51634	0.318
Mof_C 	C 	0.2253	0.7913	0.8796	0.364
Mof_C 	C 	0.8483	0.6303	0.86323	0.322
Mof_C 	C 	0.8473	0.8216	0.51758	0.336
Mof_Cd	Cd	0.0383	0.06267	0.55366	0.469
Mof_Cd	Cd	0.02417	0.74958	0.44172	0.445
Mof_O 	O 	0.1047	0.95371	0.51959	-0.291
Mof_O 	O 	0.1238	0.85246	0.47681	-0.289
Mof_O 	O 	0.8666	0.88772	0.5088	-0.278
Mof_O 	O 	0.886	0.7695	0.49471	-0.302
Mof_O 	O 	0.2758	0.8131	0.9205	-0.272
Mof_O 	O 	0.1265	0.7673	0.87582	-0.305
Mof_O 	O 	0.9389	0.66018	0.8856	-0.293
Mof_O 	O 	0.8141	0.57078	0.87857	-0.285
_end
