data_functionalizedCrystal
_audit_creation_method	'EQeq! by Chris Wilmer'
_symmetry_space_group_name_H-M	'P1'
_symmetry_Int_Tables_number	1
_symmetry_cell_setting	triclinic
loop_
_symmetry_equiv_pos_as_xyz
  x,y,z
_cell_length_a	14.849
_cell_length_b	14.849
_cell_length_c	21.806
_cell_angle_alpha	90
_cell_angle_beta	90
_cell_angle_gamma	120
loop_
_atom_site_label
_atom_site_type_symbol
_atom_site_fract_x
_atom_site_fract_y
_atom_site_fract_z
_atom_site_charge
Mof_I 	I 	0.71129	0.18518	0.24093	-0.773
Mof_Cu	Cu	0.86343	0.37898	0.25162	0.787
Mof_Cu	Cu	0.76036	0.23465	0.11806	0.821
Mof_N 	N 	0.9506	0.3903	0.1758	-0.188
Mof_N 	N 	0.0525	0.4569	0.1712	-0.178
Mof_N 	N 	0.0824	0.4606	0.1123	-0.118
Mof_N 	N 	0.9124	0.3482	0.1207	-0.22
Mof_N 	N 	0.0907	0.4056	0.9217	-0.224
Mof_C 	C 	0.0851	0.4243	0.9816	0.034
Mof_H 	H 	0.1456	0.4724	0.0016	0.005
Mof_C 	C 	0.9945	0.3937	0.0824	0.122
Mof_C 	C 	0.9913	0.374	0.0155	-0.074
Mof_C 	C 	0.0013	0.3415	0.8914	0.033
Mof_H 	H 	0.0046	0.3266	0.8504	0.014
Mof_C 	C 	0.9037	0.297	0.9205	-0.098
Mof_H 	H 	0.843	0.2583	0.898	0.054
Mof_C 	C 	0.899	0.3114	0.9832	0.012
Mof_H 	H 	0.8353	0.2799	0.0034	-0.011
Mof_I 	I 	0.81482	0.52611	0.24093	-0.774
Mof_Cu	Cu	0.62102	0.48445	0.25162	0.786
Mof_Cu	Cu	0.76535	0.52571	0.11806	0.82
Mof_N 	N 	0.6097	0.5603	0.1758	-0.189
Mof_N 	N 	0.5431	0.5956	0.1712	-0.179
Mof_N 	N 	0.5394	0.6218	0.1123	-0.119
Mof_N 	N 	0.6518	0.5642	0.1207	-0.221
Mof_N 	N 	0.5944	0.6851	0.9217	-0.225
Mof_C 	C 	0.5757	0.6608	0.9816	0.034
Mof_H 	H 	0.5276	0.6732	0.0016	0.005
Mof_C 	C 	0.6063	0.6008	0.0824	0.122
Mof_C 	C 	0.626	0.6173	0.0155	-0.073
Mof_C 	C 	0.6585	0.6598	0.8914	0.033
Mof_H 	H 	0.6734	0.678	0.8504	0.014
Mof_C 	C 	0.703	0.6067	0.9205	-0.098
Mof_H 	H 	0.7417	0.5847	0.898	0.054
Mof_C 	C 	0.6886	0.5876	0.9832	0.011
Mof_H 	H 	0.7201	0.5554	0.0034	-0.01
Mof_I 	I 	0.47389	0.28871	0.24093	-0.773
Mof_Cu	Cu	0.51555	0.13657	0.25162	0.786
Mof_Cu	Cu	0.47429	0.23964	0.11806	0.82
Mof_N 	N 	0.4397	0.0494	0.1758	-0.189
Mof_N 	N 	0.4044	0.9475	0.1712	-0.179
Mof_N 	N 	0.3782	0.9176	0.1123	-0.119
Mof_N 	N 	0.4358	0.0876	0.1207	-0.221
Mof_N 	N 	0.3149	0.9093	0.9217	-0.225
Mof_C 	C 	0.3392	0.9149	0.9816	0.033
Mof_H 	H 	0.3268	0.8544	0.0016	0.005
Mof_C 	C 	0.3992	0.0055	0.0824	0.122
Mof_C 	C 	0.3827	0.0087	0.0155	-0.073
Mof_C 	C 	0.3402	0.9987	0.8914	0.033
Mof_H 	H 	0.322	0.9954	0.8504	0.014
Mof_C 	C 	0.3933	0.0963	0.9205	-0.097
Mof_H 	H 	0.4153	0.157	0.898	0.054
Mof_C 	C 	0.4124	0.101	0.9832	0.011
Mof_H 	H 	0.4446	0.1647	0.0034	-0.01
Mof_I 	I 	0.18518	0.71129	0.25907	-0.773
Mof_Cu	Cu	0.37898	0.86343	0.24838	0.786
Mof_Cu	Cu	0.23465	0.76036	0.38194	0.82
Mof_N 	N 	0.3903	0.9506	0.3242	-0.189
Mof_N 	N 	0.4569	0.0525	0.3288	-0.179
Mof_N 	N 	0.4606	0.0824	0.3877	-0.119
Mof_N 	N 	0.3482	0.9124	0.3793	-0.221
Mof_N 	N 	0.4056	0.0907	0.5783	-0.225
Mof_C 	C 	0.4243	0.0851	0.5184	0.034
Mof_H 	H 	0.4724	0.1456	0.4984	0.005
Mof_C 	C 	0.3937	0.9945	0.4176	0.122
Mof_C 	C 	0.374	0.9913	0.4845	-0.074
Mof_C 	C 	0.3415	0.0013	0.6086	0.033
Mof_H 	H 	0.3266	0.0046	0.6496	0.014
Mof_C 	C 	0.297	0.9037	0.5795	-0.098
Mof_H 	H 	0.2583	0.843	0.602	0.054
Mof_C 	C 	0.3114	0.899	0.5168	0.011
Mof_H 	H 	0.2799	0.8353	0.4966	-0.01
Mof_I 	I 	0.52611	0.81482	0.25907	-0.773
Mof_Cu	Cu	0.48445	0.62102	0.24838	0.786
Mof_Cu	Cu	0.52571	0.76535	0.38194	0.82
Mof_N 	N 	0.5603	0.6097	0.3242	-0.189
Mof_N 	N 	0.5956	0.5431	0.3288	-0.179
Mof_N 	N 	0.6218	0.5394	0.3877	-0.119
Mof_N 	N 	0.5642	0.6518	0.3793	-0.221
Mof_N 	N 	0.6851	0.5944	0.5783	-0.225
Mof_C 	C 	0.6608	0.5757	0.5184	0.034
Mof_H 	H 	0.6732	0.5276	0.4984	0.005
Mof_C 	C 	0.6008	0.6063	0.4176	0.122
Mof_C 	C 	0.6173	0.626	0.4845	-0.073
Mof_C 	C 	0.6598	0.6585	0.6086	0.033
Mof_H 	H 	0.678	0.6734	0.6496	0.014
Mof_C 	C 	0.6067	0.703	0.5795	-0.098
Mof_H 	H 	0.5847	0.7417	0.602	0.054
Mof_C 	C 	0.5876	0.6886	0.5168	0.011
Mof_H 	H 	0.5554	0.7201	0.4966	-0.01
Mof_I 	I 	0.28871	0.47389	0.25907	-0.773
Mof_Cu	Cu	0.13657	0.51555	0.24838	0.786
Mof_Cu	Cu	0.23964	0.47429	0.38194	0.82
Mof_N 	N 	0.0494	0.4397	0.3242	-0.189
Mof_N 	N 	0.9475	0.4044	0.3288	-0.179
Mof_N 	N 	0.9176	0.3782	0.3877	-0.119
Mof_N 	N 	0.0876	0.4358	0.3793	-0.221
Mof_N 	N 	0.9093	0.3149	0.5783	-0.225
Mof_C 	C 	0.9149	0.3392	0.5184	0.034
Mof_H 	H 	0.8544	0.3268	0.4984	0.005
Mof_C 	C 	0.0055	0.3992	0.4176	0.122
Mof_C 	C 	0.0087	0.3827	0.4845	-0.073
Mof_C 	C 	0.9987	0.3402	0.6086	0.033
Mof_H 	H 	0.9954	0.322	0.6496	0.014
Mof_C 	C 	0.0963	0.3933	0.5795	-0.098
Mof_H 	H 	0.157	0.4153	0.602	0.054
Mof_C 	C 	0.101	0.4124	0.5168	0.011
Mof_H 	H 	0.1647	0.4446	0.4966	-0.01
Mof_I 	I 	0.28871	0.81482	0.75907	-0.774
Mof_Cu	Cu	0.13657	0.62102	0.74838	0.786
Mof_Cu	Cu	0.23964	0.76535	0.88194	0.82
Mof_N 	N 	0.0494	0.6097	0.8242	-0.189
Mof_N 	N 	0.9475	0.5431	0.8288	-0.179
Mof_N 	N 	0.9176	0.5394	0.8877	-0.119
Mof_N 	N 	0.0876	0.6518	0.8793	-0.221
Mof_N 	N 	0.9093	0.5944	0.0783	-0.225
Mof_C 	C 	0.9149	0.5757	0.0184	0.034
Mof_H 	H 	0.8544	0.5276	0.9984	0.005
Mof_C 	C 	0.0055	0.6063	0.9176	0.122
Mof_C 	C 	0.0087	0.626	0.9845	-0.074
Mof_C 	C 	0.9987	0.6585	0.1086	0.033
Mof_H 	H 	0.9954	0.6734	0.1496	0.014
Mof_C 	C 	0.0963	0.703	0.0795	-0.098
Mof_H 	H 	0.157	0.7417	0.102	0.054
Mof_C 	C 	0.101	0.6886	0.0168	0.012
Mof_H 	H 	0.1647	0.7201	0.9966	-0.011
Mof_I 	I 	0.18518	0.47389	0.75907	-0.774
Mof_Cu	Cu	0.37898	0.51555	0.74838	0.786
Mof_Cu	Cu	0.23465	0.47429	0.88194	0.82
Mof_N 	N 	0.3903	0.4397	0.8242	-0.189
Mof_N 	N 	0.4569	0.4044	0.8288	-0.179
Mof_N 	N 	0.4606	0.3782	0.8877	-0.119
Mof_N 	N 	0.3482	0.4358	0.8793	-0.221
Mof_N 	N 	0.4056	0.3149	0.0783	-0.225
Mof_C 	C 	0.4243	0.3392	0.0184	0.034
Mof_H 	H 	0.4724	0.3268	0.9984	0.005
Mof_C 	C 	0.3937	0.3992	0.9176	0.122
Mof_C 	C 	0.374	0.3827	0.9845	-0.073
Mof_C 	C 	0.3415	0.3402	0.1086	0.033
Mof_H 	H 	0.3266	0.322	0.1496	0.014
Mof_C 	C 	0.297	0.3933	0.0795	-0.098
Mof_H 	H 	0.2583	0.4153	0.102	0.054
Mof_C 	C 	0.3114	0.4124	0.0168	0.011
Mof_H 	H 	0.2799	0.4446	0.9966	-0.01
Mof_I 	I 	0.52611	0.71129	0.75907	-0.773
Mof_Cu	Cu	0.48445	0.86343	0.74838	0.786
Mof_Cu	Cu	0.52571	0.76036	0.88194	0.82
Mof_N 	N 	0.5603	0.9506	0.8242	-0.189
Mof_N 	N 	0.5956	0.0525	0.8288	-0.179
Mof_N 	N 	0.6218	0.0824	0.8877	-0.119
Mof_N 	N 	0.5642	0.9124	0.8793	-0.221
Mof_N 	N 	0.6851	0.0907	0.0783	-0.225
Mof_C 	C 	0.6608	0.0851	0.0184	0.033
Mof_H 	H 	0.6732	0.1456	0.9984	0.005
Mof_C 	C 	0.6008	0.9945	0.9176	0.122
Mof_C 	C 	0.6173	0.9913	0.9845	-0.073
Mof_C 	C 	0.6598	0.0013	0.1086	0.033
Mof_H 	H 	0.678	0.0046	0.1496	0.014
Mof_C 	C 	0.6067	0.9037	0.0795	-0.097
Mof_H 	H 	0.5847	0.843	0.102	0.054
Mof_C 	C 	0.5876	0.899	0.0168	0.011
Mof_H 	H 	0.5554	0.8353	0.9966	-0.01
Mof_I 	I 	0.81482	0.28871	0.74093	-0.773
Mof_Cu	Cu	0.62102	0.13657	0.75162	0.786
Mof_Cu	Cu	0.76535	0.23964	0.61806	0.82
Mof_N 	N 	0.6097	0.0494	0.6758	-0.189
Mof_N 	N 	0.5431	0.9475	0.6712	-0.179
Mof_N 	N 	0.5394	0.9176	0.6123	-0.119
Mof_N 	N 	0.6518	0.0876	0.6207	-0.221
Mof_N 	N 	0.5944	0.9093	0.4217	-0.225
Mof_C 	C 	0.5757	0.9149	0.4816	0.034
Mof_H 	H 	0.5276	0.8544	0.5016	0.005
Mof_C 	C 	0.6063	0.0055	0.5824	0.122
Mof_C 	C 	0.626	0.0087	0.5155	-0.074
Mof_C 	C 	0.6585	0.9987	0.3914	0.033
Mof_H 	H 	0.6734	0.9954	0.3504	0.014
Mof_C 	C 	0.703	0.0963	0.4205	-0.098
Mof_H 	H 	0.7417	0.157	0.398	0.054
Mof_C 	C 	0.6886	0.101	0.4832	0.011
Mof_H 	H 	0.7201	0.1647	0.5034	-0.01
Mof_I 	I 	0.47389	0.18518	0.74093	-0.773
Mof_Cu	Cu	0.51555	0.37898	0.75162	0.786
Mof_Cu	Cu	0.47429	0.23465	0.61806	0.82
Mof_N 	N 	0.4397	0.3903	0.6758	-0.189
Mof_N 	N 	0.4044	0.4569	0.6712	-0.179
Mof_N 	N 	0.3782	0.4606	0.6123	-0.119
Mof_N 	N 	0.4358	0.3482	0.6207	-0.221
Mof_N 	N 	0.3149	0.4056	0.4217	-0.225
Mof_C 	C 	0.3392	0.4243	0.4816	0.034
Mof_H 	H 	0.3268	0.4724	0.5016	0.005
Mof_C 	C 	0.3992	0.3937	0.5824	0.122
Mof_C 	C 	0.3827	0.374	0.5155	-0.073
Mof_C 	C 	0.3402	0.3415	0.3914	0.033
Mof_H 	H 	0.322	0.3266	0.3504	0.014
Mof_C 	C 	0.3933	0.297	0.4205	-0.098
Mof_H 	H 	0.4153	0.2583	0.398	0.054
Mof_C 	C 	0.4124	0.3114	0.4832	0.011
Mof_H 	H 	0.4446	0.2799	0.5034	-0.01
Mof_I 	I 	0.71129	0.52611	0.74093	-0.773
Mof_Cu	Cu	0.86343	0.48445	0.75162	0.786
Mof_Cu	Cu	0.76036	0.52571	0.61806	0.82
Mof_N 	N 	0.9506	0.5603	0.6758	-0.189
Mof_N 	N 	0.0525	0.5956	0.6712	-0.179
Mof_N 	N 	0.0824	0.6218	0.6123	-0.119
Mof_N 	N 	0.9124	0.5642	0.6207	-0.221
Mof_N 	N 	0.0907	0.6851	0.4217	-0.225
Mof_C 	C 	0.0851	0.6608	0.4816	0.034
Mof_H 	H 	0.1456	0.6732	0.5016	0.005
Mof_C 	C 	0.9945	0.6008	0.5824	0.122
Mof_C 	C 	0.9913	0.6173	0.5155	-0.073
Mof_C 	C 	0.0013	0.6598	0.3914	0.033
Mof_H 	H 	0.0046	0.678	0.3504	0.014
Mof_C 	C 	0.9037	0.6067	0.4205	-0.098
Mof_H 	H 	0.843	0.5847	0.398	0.054
Mof_C 	C 	0.899	0.5876	0.4832	0.011
Mof_H 	H 	0.8353	0.5554	0.5034	-0.01
Mof_I 	I 	0.66667	0.33333	0.06988	-0.66
Mof_Cu	Cu	0.66667	0.33333	0.28341	0.684
Mof_I 	I 	0.33333	0.66667	0.43012	-0.66
Mof_Cu	Cu	0.33333	0.66667	0.21659	0.684
Mof_I 	I 	0.33333	0.66667	0.93012	-0.66
Mof_Cu	Cu	0.33333	0.66667	0.71659	0.684
Mof_I 	I 	0.66667	0.33333	0.56988	-0.66
Mof_Cu	Cu	0.66667	0.33333	0.78341	0.684
_end
