data_functionalizedCrystal
_audit_creation_method	'EQeq! by Chris Wilmer'
_symmetry_space_group_name_H-M	'P1'
_symmetry_Int_Tables_number	1
_symmetry_cell_setting	triclinic
loop_
_symmetry_equiv_pos_as_xyz
  x,y,z
_cell_length_a	9.7412
_cell_length_b	13.0955
_cell_length_c	15.6922
_cell_angle_alpha	90
_cell_angle_beta	95.092
_cell_angle_gamma	90
loop_
_atom_site_label
_atom_site_type_symbol
_atom_site_fract_x
_atom_site_fract_y
_atom_site_fract_z
_atom_site_charge
Mof_Zn	Zn	0.28845	0.13752	0.25016	1.236
Mof_Zn	Zn	0.81071	0.02908	0.4341	1.237
Mof_Zn	Zn	0.597	0.86856	0.09005	1.232
Mof_P 	P 	0.35934	0.03917	0.08559	0.433
Mof_H 	H 	0.4602	0.113	0.1138	-0.068
Mof_P 	P 	0.10195	0.11297	0.40618	0.435
Mof_H 	H 	0.1707	0.1963	0.4555	-0.039
Mof_P 	P 	0.49734	0.12727	0.40727	0.51
Mof_H 	H 	0.4367	0.0605	0.4453	-0.079
Mof_P 	P 	0.69707	0.87913	0.28634	0.464
Mof_H 	H 	0.5623	0.9072	0.3115	-0.039
Mof_O 	O 	0.2535	0.0507	0.15029	-0.401
Mof_O 	O 	0.4607	0.1067	0.314	-0.479
Mof_O 	O 	0.6941	0.7672	0.3046	-0.463
Mof_O 	O 	0.1304	0.1183	0.3132	-0.432
Mof_O 	O 	0.9503	0.1324	0.4159	-0.414
Mof_O 	O 	0.6487	0.1131	0.43073	-0.442
Mof_O 	O 	0.1537	0.0142	0.44791	-0.462
Mof_O 	O 	0.809	0.9342	0.34168	-0.435
Mof_O 	O 	0.7072	0.9025	0.19354	-0.456
Mof_O 	O 	0.2998	0.0704	0.99708	-0.414
Mof_O 	O 	0.4467	0.2285	0.4357	-0.482
Mof_O 	O 	0.4178	0.9329	0.0864	-0.438
Mof_Zn	Zn	0.71155	0.63752	0.24984	1.235
Mof_Zn	Zn	0.18929	0.52908	0.0659	1.237
Mof_Zn	Zn	0.403	0.36856	0.40995	1.232
Mof_P 	P 	0.64066	0.53917	0.41441	0.437
Mof_H 	H 	0.5398	0.613	0.3862	-0.068
Mof_P 	P 	0.89805	0.61297	0.09382	0.435
Mof_H 	H 	0.8293	0.6963	0.0445	-0.039
Mof_P 	P 	0.50266	0.62727	0.09273	0.51
Mof_H 	H 	0.5633	0.5605	0.0547	-0.079
Mof_P 	P 	0.30293	0.37913	0.21366	0.464
Mof_H 	H 	0.4377	0.4072	0.1885	-0.04
Mof_O 	O 	0.7465	0.5507	0.34971	-0.401
Mof_O 	O 	0.5393	0.6067	0.186	-0.478
Mof_O 	O 	0.3059	0.2672	0.1954	-0.463
Mof_O 	O 	0.8696	0.6183	0.1868	-0.432
Mof_O 	O 	0.0497	0.6324	0.0841	-0.414
Mof_O 	O 	0.3513	0.6131	0.06927	-0.442
Mof_O 	O 	0.8463	0.5142	0.05209	-0.463
Mof_O 	O 	0.191	0.4342	0.15832	-0.437
Mof_O 	O 	0.2928	0.4025	0.30646	-0.457
Mof_O 	O 	0.7002	0.5704	0.50292	-0.418
Mof_O 	O 	0.5533	0.7285	0.0643	-0.482
Mof_O 	O 	0.5822	0.4329	0.4136	-0.44
Mof_Zn	Zn	0.71155	0.86248	0.74984	1.235
Mof_Zn	Zn	0.18929	0.97092	0.5659	1.236
Mof_Zn	Zn	0.403	0.13144	0.90995	1.232
Mof_P 	P 	0.64066	0.96083	0.91441	0.433
Mof_H 	H 	0.5398	0.887	0.8862	-0.068
Mof_P 	P 	0.89805	0.88703	0.59382	0.435
Mof_H 	H 	0.8293	0.8037	0.5445	-0.039
Mof_P 	P 	0.50266	0.87273	0.59273	0.51
Mof_H 	H 	0.5633	0.9395	0.5547	-0.079
Mof_P 	P 	0.30293	0.12087	0.71366	0.464
Mof_H 	H 	0.4377	0.0928	0.6885	-0.039
Mof_O 	O 	0.7465	0.9493	0.84971	-0.401
Mof_O 	O 	0.5393	0.8933	0.686	-0.479
Mof_O 	O 	0.3059	0.2328	0.6954	-0.463
Mof_O 	O 	0.8696	0.8817	0.6868	-0.432
Mof_O 	O 	0.0497	0.8676	0.5841	-0.414
Mof_O 	O 	0.3513	0.8869	0.56927	-0.442
Mof_O 	O 	0.8463	0.9858	0.55209	-0.462
Mof_O 	O 	0.191	0.0658	0.65832	-0.435
Mof_O 	O 	0.2928	0.0975	0.80646	-0.456
Mof_O 	O 	0.7002	0.9296	0.00292	-0.414
Mof_O 	O 	0.5533	0.7715	0.5643	-0.482
Mof_O 	O 	0.5822	0.0671	0.9136	-0.438
Mof_Zn	Zn	0.28845	0.36248	0.75016	1.235
Mof_Zn	Zn	0.81071	0.47092	0.9341	1.237
Mof_Zn	Zn	0.597	0.63144	0.59005	1.232
Mof_P 	P 	0.35934	0.46083	0.58559	0.437
Mof_H 	H 	0.4602	0.387	0.6138	-0.068
Mof_P 	P 	0.10195	0.38703	0.90618	0.435
Mof_H 	H 	0.1707	0.3037	0.9555	-0.039
Mof_P 	P 	0.49734	0.37273	0.90727	0.51
Mof_H 	H 	0.4367	0.4395	0.9453	-0.079
Mof_P 	P 	0.69707	0.62087	0.78634	0.464
Mof_H 	H 	0.5623	0.5928	0.8115	-0.04
Mof_O 	O 	0.2535	0.4493	0.65029	-0.401
Mof_O 	O 	0.4607	0.3933	0.814	-0.478
Mof_O 	O 	0.6941	0.7328	0.8046	-0.463
Mof_O 	O 	0.1304	0.3817	0.8132	-0.432
Mof_O 	O 	0.9503	0.3676	0.9159	-0.414
Mof_O 	O 	0.6487	0.3869	0.93073	-0.442
Mof_O 	O 	0.1537	0.4858	0.94791	-0.463
Mof_O 	O 	0.809	0.5658	0.84168	-0.437
Mof_O 	O 	0.7072	0.5975	0.69354	-0.457
Mof_O 	O 	0.2998	0.4296	0.49708	-0.418
Mof_O 	O 	0.4467	0.2715	0.9357	-0.482
Mof_O 	O 	0.4178	0.5671	0.5864	-0.44
_end
