data_functionalizedCrystal
_audit_creation_method	'EQeq! by Chris Wilmer'
_symmetry_space_group_name_H-M	'P1'
_symmetry_Int_Tables_number	1
_symmetry_cell_setting	triclinic
loop_
_symmetry_equiv_pos_as_xyz
  x,y,z
_cell_length_a	23.7905
_cell_length_b	8.8535
_cell_length_c	15.5522
_cell_angle_alpha	90
_cell_angle_beta	90
_cell_angle_gamma	90
loop_
_atom_site_label
_atom_site_type_symbol
_atom_site_fract_x
_atom_site_fract_y
_atom_site_fract_z
_atom_site_charge
Mof_N 	N 	0.4008	0.5543	0.1275	-0.125
Mof_C 	C 	0.4284	0.4535	0.141	0.028
Mof_N 	N 	0.2862	0.5597	0.0107	-0.125
Mof_C 	C 	0.2679	0.4588	0.9767	0.032
Mof_N 	N 	0.0992	0.4457	0.6275	-0.124
Mof_C 	C 	0.0716	0.5465	0.641	0.029
Mof_N 	N 	0.2138	0.4403	0.5107	-0.125
Mof_C 	C 	0.2321	0.5412	0.4767	0.033
Mof_N 	N 	0.5992	0.0543	0.8725	-0.124
Mof_C 	C 	0.5716	0.9535	0.859	0.029
Mof_N 	N 	0.7138	0.0597	0.9893	-0.125
Mof_C 	C 	0.7321	0.9588	0.0233	0.033
Mof_N 	N 	0.9008	0.9457	0.3725	-0.123
Mof_C 	C 	0.9284	0.0465	0.359	0.028
Mof_N 	N 	0.7862	0.9403	0.4893	-0.125
Mof_C 	C 	0.7679	0.0412	0.5233	0.032
Mof_N 	N 	0.5992	0.4457	0.8725	-0.124
Mof_C 	C 	0.5716	0.5465	0.859	0.029
Mof_N 	N 	0.7138	0.4403	0.9893	-0.125
Mof_C 	C 	0.7321	0.5412	0.0233	0.032
Mof_N 	N 	0.9008	0.5543	0.3725	-0.124
Mof_C 	C 	0.9284	0.4535	0.359	0.029
Mof_N 	N 	0.7862	0.5597	0.4893	-0.125
Mof_C 	C 	0.7679	0.4588	0.5233	0.033
Mof_N 	N 	0.4008	0.9457	0.1275	-0.124
Mof_C 	C 	0.4284	0.0465	0.141	0.029
Mof_N 	N 	0.2862	0.9403	0.0107	-0.125
Mof_C 	C 	0.2679	0.0412	0.9767	0.033
Mof_N 	N 	0.0992	0.0543	0.6275	-0.123
Mof_C 	C 	0.0716	0.9535	0.641	0.028
Mof_N 	N 	0.2138	0.0597	0.5107	-0.125
Mof_C 	C 	0.2321	0.9588	0.4767	0.032
Mof_Cd	Cd	0.34236	0.75	0.07154	0.406
Mof_Cd	Cd	0.51878	0.75	0.83701	0.352
Mof_Cd	Cd	0.26836	0.75	0.41988	0.348
Mof_Cl	Cl	0.4925	0.75	0.6821	-0.271
Mof_Cl	Cl	0.3713	0.75	0.467	-0.268
Mof_N 	N 	0.4028	0.75	0.9562	-0.129
Mof_C 	C 	0.4422	0.75	0.9156	0.019
Mof_N 	N 	0.2983	0.75	0.2078	-0.121
Mof_C 	C 	0.2846	0.75	0.2781	0.04
Mof_Cd	Cd	0.15764	0.25	0.57154	0.406
Mof_Cd	Cd	0.98122	0.25	0.33701	0.351
Mof_Cd	Cd	0.23164	0.25	0.91988	0.348
Mof_Cl	Cl	0.0075	0.25	0.1821	-0.271
Mof_Cl	Cl	0.1287	0.25	0.967	-0.268
Mof_N 	N 	0.0972	0.25	0.4562	-0.129
Mof_C 	C 	0.0578	0.25	0.4156	0.019
Mof_N 	N 	0.2017	0.25	0.7078	-0.121
Mof_C 	C 	0.2154	0.25	0.7781	0.04
Mof_Cd	Cd	0.65764	0.25	0.92846	0.406
Mof_Cd	Cd	0.48122	0.25	0.16299	0.352
Mof_Cd	Cd	0.73164	0.25	0.58012	0.348
Mof_Cl	Cl	0.5075	0.25	0.3179	-0.271
Mof_Cl	Cl	0.6287	0.25	0.533	-0.268
Mof_N 	N 	0.5972	0.25	0.0438	-0.129
Mof_C 	C 	0.5578	0.25	0.0844	0.019
Mof_N 	N 	0.7017	0.25	0.7922	-0.121
Mof_C 	C 	0.7154	0.25	0.7219	0.04
Mof_Cd	Cd	0.84236	0.75	0.42846	0.406
Mof_Cd	Cd	0.01878	0.75	0.66299	0.351
Mof_Cd	Cd	0.76836	0.75	0.08012	0.348
Mof_Cl	Cl	0.9925	0.75	0.8179	-0.271
Mof_Cl	Cl	0.8713	0.75	0.033	-0.268
Mof_N 	N 	0.9028	0.75	0.5438	-0.129
Mof_C 	C 	0.9422	0.75	0.5844	0.019
Mof_N 	N 	0.7983	0.75	0.2922	-0.121
Mof_C 	C 	0.7846	0.75	0.2219	0.04
_end
