data_functionalizedCrystal
_audit_creation_method	'EQeq! by Chris Wilmer'
_symmetry_space_group_name_H-M	'P1'
_symmetry_Int_Tables_number	1
_symmetry_cell_setting	triclinic
loop_
_symmetry_equiv_pos_as_xyz
  x,y,z
_cell_length_a	12.9292
_cell_length_b	12.9292
_cell_length_c	20.1039
_cell_angle_alpha	90
_cell_angle_beta	90
_cell_angle_gamma	120
loop_
_atom_site_label
_atom_site_type_symbol
_atom_site_fract_x
_atom_site_fract_y
_atom_site_fract_z
_atom_site_charge
Mof_Cu	Cu	0.62047	0	-0	0.835
Mof_Cu	Cu	0.37953	0.37953	0.33333	0.846
Mof_Cu	Cu	2.92992e-17	0.62047	0.66667	0.841
Mof_H 	H 	0.8714	0.1001	0.9465	0.017
Mof_H 	H 	0.9591	0.088	0.8493	0.018
Mof_H 	H 	0.8466	0.9451	0.7702	0.072
Mof_H 	H 	0.5687	0.8217	0.8944	0.016
Mof_H 	H 	0.5423	0.7375	0.7927	0.104
Mof_H 	H 	0.4725	0.6405	0.6916	-0.075
Mof_H 	H 	0.4785	0.5261	0.7805	0.276
Mof_H 	H 	0.5655	0.4981	0.7405	0.303
Mof_H 	H 	0.4063	0.3944	0.6605	-0.401
Mof_H 	H 	0.213	0.3306	0.6982	0.617
Mof_H 	H 	0.2855	0.4695	0.6887	0.647
Mof_H 	H 	0.2659	0.4144	0.7602	0.59
Mof_H 	H 	0.3759	0.2966	0.7889	0.55
Mof_H 	H 	0.447	0.2803	0.7306	0.613
Mof_H 	H 	0.3076	0.2197	0.7266	0.603
Mof_H 	H 	0.6384	0.6075	0.6234	0.137
Mof_H 	H 	0.7289	0.6497	0.5325	-0.011
Mof_H 	H 	0.7855	0.6057	0.4316	0.081
Mof_H 	H 	0.6422	0.4959	0.3542	-0.055
Mof_H 	H 	0.3936	0.4892	0.4669	-0.009
Mof_H 	H 	0.2287	0.1286	0.27983	0.007
Mof_H 	H 	0.1289	0.0409	0.18263	0.006
Mof_H 	H 	0.0985	0.1534	0.10353	0.07
Mof_H 	H 	0.253	0.4313	0.22773	0.015
Mof_H 	H 	0.1952	0.4577	0.12603	0.105
Mof_H 	H 	0.168	0.5275	0.02493	-0.062
Mof_H 	H 	0.0476	0.5215	0.11383	0.242
Mof_H 	H 	0.9326	0.4345	0.07383	0.273
Mof_H 	H 	0.9881	0.5937	0.99383	-0.31
Mof_H 	H 	0.1176	0.787	0.03153	0.538
Mof_H 	H 	0.184	0.7145	0.02203	0.564
Mof_H 	H 	0.1485	0.7341	0.09353	0.516
Mof_H 	H 	0.9207	0.6241	0.12223	0.481
Mof_H 	H 	0.8333	0.553	0.06393	0.534
Mof_H 	H 	0.9121	0.6924	0.05993	0.53
Mof_H 	H 	0.9691	0.3616	0.95673	0.148
Mof_H 	H 	0.9208	0.2711	0.86583	-0.016
Mof_H 	H 	0.8202	0.2145	0.76493	0.082
Mof_H 	H 	0.8537	0.3578	0.68753	-0.051
Mof_H 	H 	0.0956	0.6064	0.80023	-0.008
Mof_H 	H 	0.8999	0.7713	0.61317	0.012
Mof_H 	H 	0.912	0.8711	0.51597	0.008
Mof_H 	H 	0.0549	0.9015	0.43687	0.081
Mof_H 	H 	0.1783	0.747	0.56107	0.018
Mof_H 	H 	0.2625	0.8048	0.45937	0.104
Mof_H 	H 	0.3595	0.832	0.35827	-0.087
Mof_H 	H 	0.4739	0.9524	0.44717	0.303
Mof_H 	H 	0.5019	0.0674	0.40717	0.317
Mof_H 	H 	0.6056	0.0119	0.32717	-0.462
Mof_H 	H 	0.6694	0.8824	0.36487	0.68
Mof_H 	H 	0.5305	0.816	0.35537	0.706
Mof_H 	H 	0.5856	0.8515	0.42687	0.652
Mof_H 	H 	0.7034	0.0793	0.45557	0.615
Mof_H 	H 	0.7197	0.1667	0.39727	0.674
Mof_H 	H 	0.7803	0.0879	0.39327	0.665
Mof_H 	H 	0.3925	0.0309	0.29007	0.126
Mof_H 	H 	0.3503	0.0792	0.19917	-0.006
Mof_H 	H 	0.3943	0.1798	0.09827	0.073
Mof_H 	H 	0.5041	0.1463	0.02087	-0.058
Mof_H 	H 	0.5108	0.9044	0.13357	-0.01
Mof_H 	H 	0.7713	0.8999	0.0535	0.008
Mof_H 	H 	0.8711	0.912	0.1507	0.008
Mof_H 	H 	0.9015	0.0549	0.2298	0.081
Mof_H 	H 	0.747	0.1783	0.1056	0.017
Mof_H 	H 	0.8048	0.2625	0.2073	0.104
Mof_H 	H 	0.832	0.3595	0.3084	-0.088
Mof_H 	H 	0.9524	0.4739	0.2195	0.305
Mof_H 	H 	0.0674	0.5019	0.2595	0.32
Mof_H 	H 	0.0119	0.6056	0.3395	-0.46
Mof_H 	H 	0.8824	0.6694	0.3018	0.68
Mof_H 	H 	0.816	0.5305	0.3113	0.706
Mof_H 	H 	0.8515	0.5856	0.2398	0.653
Mof_H 	H 	0.0793	0.7034	0.2111	0.618
Mof_H 	H 	0.1667	0.7197	0.2694	0.674
Mof_H 	H 	0.0879	0.7803	0.2734	0.666
Mof_H 	H 	0.0309	0.3925	0.3766	0.128
Mof_H 	H 	0.0792	0.3503	0.4675	-0.006
Mof_H 	H 	0.1798	0.3943	0.5684	0.076
Mof_H 	H 	0.1463	0.5041	0.6458	-0.05
Mof_H 	H 	0.9044	0.5108	0.5331	-0.009
Mof_H 	H 	0.1001	0.8714	0.72017	0.013
Mof_H 	H 	0.088	0.9591	0.81737	0.019
Mof_H 	H 	0.9451	0.8466	0.89647	0.076
Mof_H 	H 	0.8217	0.5687	0.77227	0.015
Mof_H 	H 	0.7375	0.5423	0.87397	0.104
Mof_H 	H 	0.6405	0.4725	0.97507	-0.087
Mof_H 	H 	0.5261	0.4785	0.88617	0.309
Mof_H 	H 	0.4981	0.5655	0.92617	0.337
Mof_H 	H 	0.3944	0.4063	0.00617	-0.466
Mof_H 	H 	0.3306	0.213	0.96847	0.683
Mof_H 	H 	0.4695	0.2855	0.97797	0.714
Mof_H 	H 	0.4144	0.2659	0.90647	0.652
Mof_H 	H 	0.2966	0.3759	0.87777	0.612
Mof_H 	H 	0.2803	0.447	0.93607	0.675
Mof_H 	H 	0.2197	0.3076	0.94007	0.666
Mof_H 	H 	0.6075	0.6384	0.04327	0.136
Mof_H 	H 	0.6497	0.7289	0.13417	-0.013
Mof_H 	H 	0.6057	0.7855	0.23507	0.082
Mof_H 	H 	0.4959	0.6422	0.31247	-0.055
Mof_H 	H 	0.4892	0.3936	0.19977	-0.01
Mof_H 	H 	0.1286	0.2287	0.38683	0.008
Mof_H 	H 	0.0409	0.1289	0.48403	0.005
Mof_H 	H 	0.1534	0.0985	0.56313	0.072
Mof_H 	H 	0.4313	0.253	0.43893	0.015
Mof_H 	H 	0.4577	0.1952	0.54063	0.104
Mof_H 	H 	0.5275	0.168	0.64173	-0.07
Mof_H 	H 	0.5215	0.0476	0.55283	0.265
Mof_H 	H 	0.4345	0.9326	0.59283	0.302
Mof_H 	H 	0.5937	0.9881	0.67283	-0.358
Mof_H 	H 	0.787	0.1176	0.63513	0.585
Mof_H 	H 	0.7145	0.184	0.64463	0.614
Mof_H 	H 	0.7341	0.1485	0.57313	0.559
Mof_H 	H 	0.6241	0.9207	0.54443	0.52
Mof_H 	H 	0.553	0.8333	0.60273	0.578
Mof_H 	H 	0.6924	0.9121	0.60673	0.574
Mof_H 	H 	0.3616	0.9691	0.70993	0.149
Mof_H 	H 	0.2711	0.9208	0.80083	-0.018
Mof_H 	H 	0.2145	0.8202	0.90173	0.086
Mof_H 	H 	0.3578	0.8537	0.97913	-0.043
Mof_H 	H 	0.6064	0.0956	0.86643	-0.007
Mof_C 	C 	0.8258	0.0416	0.91544	-0.001
Mof_C 	C 	0.8787	0.0345	0.85704	-0.047
Mof_C 	C 	0.8124	0.9482	0.81029	-0.084
Mof_C 	C 	0.6949	0.8667	0.82412	0.105
Mof_C 	C 	0.6474	0.8778	0.88414	-0.032
Mof_C 	C 	0.646	0.7324	0.72703	0.103
Mof_C 	C 	0.5388	0.6244	0.69501	0.288
Mof_C 	C 	0.4988	0.5122	0.73625	-0.975
Mof_C 	C 	0.3916	0.3991	0.70788	1.433
Mof_C 	C 	0.2789	0.4038	0.7143	-2.033
Mof_C 	C 	0.3794	0.2888	0.7416	-1.968
Mof_C 	C 	0.507	0.5954	0.57425	0.249
Mof_C 	C 	0.5537	0.5727	0.51081	-0.143
Mof_C 	C 	0.6721	0.6079	0.49983	0.062
Mof_C 	C 	0.7057	0.5807	0.44013	-0.178
Mof_C 	C 	0.6197	0.5164	0.39375	0.088
Mof_C 	C 	0.4732	0.5112	0.46051	0.072
Mof_C 	C 	0.2158	0.1742	0.24877	0.003
Mof_C 	C 	0.1558	0.1213	0.19037	-0.026
Mof_C 	C 	0.1358	0.1876	0.14362	-0.112
Mof_C 	C 	0.1718	0.3051	0.15745	0.111
Mof_C 	C 	0.2304	0.3526	0.21747	-0.04
Mof_C 	C 	0.0864	0.354	0.06036	0.116
Mof_C 	C 	0.0856	0.4612	0.02834	0.232
Mof_C 	C 	0.0134	0.5012	0.06958	-0.861
Mof_C 	C 	0.0075	0.6084	0.04121	1.199
Mof_C 	C 	0.1249	0.7211	0.04763	-1.778
Mof_C 	C 	0.9094	0.6206	0.07493	-1.715
Mof_C 	C 	0.0884	0.493	0.90758	0.246
Mof_C 	C 	0.019	0.4463	0.84414	-0.156
Mof_C 	C 	0.9358	0.3279	0.83316	0.079
Mof_C 	C 	0.875	0.2943	0.77346	-0.182
Mof_C 	C 	0.8967	0.3803	0.72708	0.093
Mof_C 	C 	0.038	0.5268	0.79384	0.064
Mof_C 	C 	0.9584	0.7842	0.58211	0.01
Mof_C 	C 	0.9655	0.8442	0.52371	-0.003
Mof_C 	C 	0.0518	0.8642	0.47696	-0.131
Mof_C 	C 	0.1333	0.8282	0.49079	0.12
Mof_C 	C 	0.1222	0.7696	0.55081	-0.043
Mof_C 	C 	0.2676	0.9136	0.3937	0.096
Mof_C 	C 	0.3756	0.9144	0.36168	0.316
Mof_C 	C 	0.4878	0.9866	0.40292	-1.046
Mof_C 	C 	0.6009	0.9925	0.37455	1.604
Mof_C 	C 	0.5962	0.8751	0.38097	-2.225
Mof_C 	C 	0.7112	0.0906	0.40827	-2.172
Mof_C 	C 	0.4046	0.9116	0.24092	0.245
Mof_C 	C 	0.4273	0.981	0.17748	-0.125
Mof_C 	C 	0.3921	0.0642	0.1665	0.038
Mof_C 	C 	0.4193	0.125	0.1068	-0.167
Mof_C 	C 	0.4836	0.1033	0.06042	0.079
Mof_C 	C 	0.4888	0.962	0.12718	0.078
Mof_C 	C 	0.7842	0.9584	0.08456	0.009
Mof_C 	C 	0.8442	0.9655	0.14296	-0.002
Mof_C 	C 	0.8642	0.0518	0.18971	-0.133
Mof_C 	C 	0.8282	0.1333	0.17588	0.12
Mof_C 	C 	0.7696	0.1222	0.11586	-0.044
Mof_C 	C 	0.9136	0.2676	0.27297	0.095
Mof_C 	C 	0.9144	0.3756	0.30499	0.317
Mof_C 	C 	0.9866	0.4878	0.26375	-1.051
Mof_C 	C 	0.9925	0.6009	0.29212	1.601
Mof_C 	C 	0.8751	0.5962	0.2857	-2.225
Mof_C 	C 	0.0906	0.7112	0.2584	-2.171
Mof_C 	C 	0.9116	0.4046	0.42575	0.245
Mof_C 	C 	0.981	0.4273	0.48919	-0.127
Mof_C 	C 	0.0642	0.3921	0.50017	0.04
Mof_C 	C 	0.125	0.4193	0.55987	-0.165
Mof_C 	C 	0.1033	0.4836	0.60625	0.08
Mof_C 	C 	0.962	0.4888	0.53949	0.078
Mof_C 	C 	0.0416	0.8258	0.75123	0
Mof_C 	C 	0.0345	0.8787	0.80963	-0.042
Mof_C 	C 	0.9482	0.8124	0.85638	-0.089
Mof_C 	C 	0.8667	0.6949	0.84255	0.107
Mof_C 	C 	0.8778	0.6474	0.78253	-0.034
Mof_C 	C 	0.7324	0.646	0.93964	0.09
Mof_C 	C 	0.6244	0.5388	0.97166	0.34
Mof_C 	C 	0.5122	0.4988	0.93042	-1.082
Mof_C 	C 	0.3991	0.3916	0.95879	1.612
Mof_C 	C 	0.4038	0.2789	0.95237	-2.237
Mof_C 	C 	0.2888	0.3794	0.92507	-2.165
Mof_C 	C 	0.5954	0.507	0.09242	0.253
Mof_C 	C 	0.5727	0.5537	0.15586	-0.145
Mof_C 	C 	0.6079	0.6721	0.16684	0.064
Mof_C 	C 	0.5807	0.7057	0.22654	-0.179
Mof_C 	C 	0.5164	0.6197	0.27292	0.089
Mof_C 	C 	0.5112	0.4732	0.20616	0.073
Mof_C 	C 	0.1742	0.2158	0.41789	0.002
Mof_C 	C 	0.1213	0.1558	0.47629	-0.025
Mof_C 	C 	0.1876	0.1358	0.52304	-0.113
Mof_C 	C 	0.3051	0.1718	0.50921	0.111
Mof_C 	C 	0.3526	0.2304	0.44919	-0.04
Mof_C 	C 	0.354	0.0864	0.6063	0.106
Mof_C 	C 	0.4612	0.0856	0.63832	0.273
Mof_C 	C 	0.5012	0.0134	0.59708	-0.944
Mof_C 	C 	0.6084	0.0075	0.62545	1.325
Mof_C 	C 	0.7211	0.1249	0.61903	-1.923
Mof_C 	C 	0.6206	0.9094	0.59173	-1.847
Mof_C 	C 	0.493	0.0884	0.75908	0.25
Mof_C 	C 	0.4463	0.019	0.82252	-0.162
Mof_C 	C 	0.3279	0.9358	0.8335	0.085
Mof_C 	C 	0.2943	0.875	0.8932	-0.184
Mof_C 	C 	0.3803	0.8967	0.93958	0.095
Mof_C 	C 	0.5268	0.038	0.87282	0.063
Mof_N 	N 	0.7104	0.966	0.92799	-0.191
Mof_N 	N 	0.6168	0.7731	0.78228	-0.211
Mof_N 	N 	0.5728	0.6085	0.62824	-0.275
Mof_N 	N 	0.5042	0.4818	0.40315	-0.245
Mof_N 	N 	0.2556	0.2896	0.26132	-0.203
Mof_N 	N 	0.1563	0.3832	0.11561	-0.217
Mof_N 	N 	0.0357	0.4272	0.96157	-0.272
Mof_N 	N 	0.9776	0.4958	0.73648	-0.237
Mof_N 	N 	0.034	0.7444	0.59466	-0.207
Mof_N 	N 	0.2269	0.8437	0.44895	-0.212
Mof_N 	N 	0.3915	0.9643	0.29491	-0.268
Mof_N 	N 	0.5182	0.0224	0.06982	-0.251
Mof_N 	N 	0.7444	0.034	0.07201	-0.21
Mof_N 	N 	0.8437	0.2269	0.21772	-0.212
Mof_N 	N 	0.9643	0.3915	0.37176	-0.27
Mof_N 	N 	0.0224	0.5182	0.59685	-0.249
Mof_N 	N 	0.966	0.7104	0.73868	-0.196
Mof_N 	N 	0.7731	0.6168	0.88439	-0.208
Mof_N 	N 	0.6085	0.5728	0.03843	-0.288
Mof_N 	N 	0.4818	0.5042	0.26352	-0.245
Mof_N 	N 	0.2896	0.2556	0.40534	-0.203
Mof_N 	N 	0.3832	0.1563	0.55105	-0.214
Mof_N 	N 	0.4272	0.0357	0.70509	-0.285
Mof_N 	N 	0.4958	0.9776	0.93018	-0.232
Mof_O 	O 	0.7462	0.7741	0.70578	-0.231
Mof_O 	O 	0.4149	0.6003	0.57535	-0.298
Mof_O 	O 	0.0279	0.2538	0.03911	-0.252
Mof_O 	O 	0.1854	0.5851	0.90868	-0.296
Mof_O 	O 	0.2259	0.9721	0.37245	-0.23
Mof_O 	O 	0.3997	0.8146	0.24202	-0.3
Mof_O 	O 	0.9721	0.2259	0.29422	-0.231
Mof_O 	O 	0.8146	0.3997	0.42465	-0.3
Mof_O 	O 	0.7741	0.7462	0.96089	-0.219
Mof_O 	O 	0.6003	0.4149	0.09132	-0.302
Mof_O 	O 	0.2538	0.0279	0.62755	-0.243
Mof_O 	O 	0.5851	0.1854	0.75798	-0.3
_end
