# CIF file generated by openbabel 3.1.0, see https://openbabel.org
data_I
_chemical_name_common 'ic801404p_si_001_clean'
_cell_length_a 8.8583
_cell_length_b 11.7008
_cell_length_c 17.9522
_cell_angle_alpha 90
_cell_angle_beta 90
_cell_angle_gamma 100.045
_space_group_name_H-M_alt 'P 1'
_space_group_name_Hall 'P 1'
loop_
    _symmetry_equiv_pos_as_xyz
    x,y,z
loop_
    _atom_site_label
    _atom_site_type_symbol
    _atom_site_fract_x
    _atom_site_fract_y
    _atom_site_fract_z
    _atom_site_occupancy
    Mn1      Mn       0.45850    0.11836    0.43089    1.000
    Mn2      Mn       0.95484    0.11655    0.58934    1.000
    Mn3      Mn       0.54150    0.88164    0.93089    1.000
    Mn4      Mn       0.04516    0.88345    0.08934    1.000
    H1       H        0.71350    0.31430    0.00600    1.000
    H2       H        0.10990    0.91760    0.66620    1.000
    H3       H        0.54270    0.91860    0.18790    1.000
    H4       H        0.45610    0.88280    0.64260    1.000
    H5       H        0.14740    0.91180    0.33990    1.000
    H6       H        0.98380    0.88690    0.37630    1.000
    H7       H        0.13230    0.35440    0.64200    1.000
    H8       H        0.38670    0.07730    0.85250    1.000
    H9       H        0.86770    0.64560    0.14200    1.000
    H10      H        0.71100    0.49200    0.00660    1.000
    H11      H        0.75230    0.50330    0.52960    1.000
    H12      H        0.19920    0.11800    0.01120    1.000
    H13      H        0.29090    0.31310    0.50250    1.000
    H14      H        0.28650    0.68570    0.50600    1.000
    H15      H        0.13390    0.54880    0.65440    1.000
    H16      H        0.62550    0.89380    0.67120    1.000
    H17      H        0.63090    0.55270    0.36460    1.000
    H18      H        0.01620    0.11310    0.87630    1.000
    H19      H        0.45730    0.08140    0.68790    1.000
    H20      H        0.85260    0.08820    0.83990    1.000
    H21      H        0.63400    0.09090    0.70330    1.000
    H22      H        0.38250    0.64280    0.85800    1.000
    H23      H        0.62220    0.72790    0.35690    1.000
    H24      H        0.36910    0.44730    0.86460    1.000
    H25      H        0.61750    0.35720    0.35800    1.000
    H26      H        0.89280    0.27730    0.17230    1.000
    H27      H        0.70910    0.68690    0.00250    1.000
    H28      H        0.70470    0.11770    0.00420    1.000
    H29      H        0.19930    0.31180    0.00370    1.000
    H30      H        0.28900    0.50800    0.50660    1.000
    H31      H        0.24770    0.49670    0.02960    1.000
    H32      H        0.80070    0.68820    0.50370    1.000
    H33      H        0.37780    0.27210    0.85690    1.000
    H34      H        0.37450    0.10620    0.17120    1.000
    H35      H        0.10720    0.72270    0.67230    1.000
    H36      H        0.36600    0.90910    0.20330    1.000
    H37      H        0.29530    0.88230    0.50420    1.000
    H38      H        0.23130    0.12560    0.30090    1.000
    H39      H        0.75500    0.30910    0.52890    1.000
    H40      H        0.05650    0.93320    0.83850    1.000
    H41      H        0.24500    0.69090    0.02890    1.000
    H42      H        0.89010    0.08240    0.16620    1.000
    H43      H        0.61330    0.92270    0.35250    1.000
    H44      H        0.86610    0.45120    0.15440    1.000
    H45      H        0.94350    0.06680    0.33850    1.000
    H46      H        0.76870    0.87440    0.80090    1.000
    H47      H        0.80080    0.88200    0.51120    1.000
    H48      H        0.54390    0.11720    0.14260    1.000
    C1       C        0.45030    0.94570    0.17220    1.000
    C2       C        0.55200    0.75710    0.38680    1.000
    C3       C        0.55560    0.50500    0.39180    1.000
    C4       C        0.95450    0.24750    0.13810    1.000
    C5       C        0.64390    0.26800    0.97520    1.000
    C6       C        0.95560    0.07100    0.83680    1.000
    C7       C        0.08430    0.09000    0.42820    1.000
    C8       C        0.02480    0.11060    0.76230    1.000
    C9       C        0.35610    0.73200    0.47520    1.000
    C10      C        0.36120    0.85060    0.47310    1.000
    C11      C        0.63880    0.14940    0.97310    1.000
    C12      C        0.53130    0.12140    0.25780    1.000
    C13      C        0.94750    0.61520    0.12030    1.000
    C14      C        0.04960    0.05570    0.34720    1.000
    C15      C        0.47180    0.08120    0.18000    1.000
    C16      C        0.95040    0.94430    0.84720    1.000
    C17      C        0.16770    0.52460    0.05300    1.000
    C18      C        0.35750    0.47950    0.47530    1.000
    C19      C        0.54440    0.44620    0.93120    1.000
    C20      C        0.46870    0.87860    0.75780    1.000
    C21      C        0.58320    0.08500    0.59170    1.000
    C22      C        0.95590    0.13060    0.13460    1.000
    C23      C        0.05880    0.50320    0.62590    1.000
    C24      C        0.64250    0.52050    0.97530    1.000
    C25      C        0.83230    0.47540    0.55300    1.000
    C26      C        0.54870    0.87570    0.38510    1.000
    C27      C        0.05250    0.38480    0.62030    1.000
    C28      C        0.91570    0.91000    0.92820    1.000
    C29      C        0.04910    0.32160    0.08820    1.000
    C30      C        0.63910    0.63830    0.97300    1.000
    C31      C        0.95090    0.67840    0.58820    1.000
    C32      C        0.45550    0.68260    0.43080    1.000
    C33      C        0.44800    0.24290    0.88680    1.000
    C34      C        0.04410    0.86940    0.63460    1.000
    C35      C        0.94120    0.49680    0.12590    1.000
    C36      C        0.45130    0.12430    0.88510    1.000
    C37      C        0.54970    0.05430    0.67220    1.000
    C38      C        0.41680    0.91500    0.09170    1.000
    C39      C        0.13470    0.15020    0.04280    1.000
    C40      C        0.36090    0.36170    0.47300    1.000
    C41      C        0.44440    0.49500    0.89180    1.000
    C42      C        0.83340    0.35830    0.55310    1.000
    C43      C        0.44850    0.61260    0.88980    1.000
    C44      C        0.94770    0.55300    0.58700    1.000
    C45      C        0.97520    0.88940    0.26230    1.000
    C46      C        0.54450    0.31740    0.93080    1.000
    C47      C        0.04440    0.92900    0.33680    1.000
    C48      C        0.52820    0.91880    0.68000    1.000
    C49      C        0.55150    0.38740    0.38980    1.000
    C50      C        0.05230    0.44700    0.08700    1.000
    C51      C        0.86200    0.73230    0.53900    1.000
    C52      C        0.16660    0.64170    0.05310    1.000
    C53      C        0.13800    0.26770    0.03900    1.000
    C54      C        0.45560    0.55380    0.43120    1.000
    C55      C        0.04550    0.75250    0.63810    1.000
    C56      C        0.86530    0.84980    0.54280    1.000
    N1       N        0.94590    0.31180    0.58760    1.000
    N2       N        0.04600    0.08020    0.08840    1.000
    N3       N        0.45650    0.92320    0.42860    1.000
    N4       N        0.05410    0.68820    0.08760    1.000
    N5       N        0.95400    0.91980    0.58840    1.000
    N6       N        0.45380    0.31430    0.43300    1.000
    N7       N        0.54350    0.07680    0.92860    1.000
    N8       N        0.54620    0.68570    0.93300    1.000
    O1       O        0.16700    0.13670    0.75610    1.000
    O2       O        0.14080    0.13090    0.29560    1.000
    O3       O        0.85920    0.86910    0.79560    1.000
    O4       O        0.93090    0.11270    0.70890    1.000
    O5       O        0.71270    0.08320    0.56590    1.000
    O6       O        0.47340    0.11120    0.55190    1.000
    O7       O        0.02300    0.88900    0.96800    1.000
    O8       O        0.43780    0.11260    0.30980    1.000
    O9       O        0.97700    0.11100    0.46800    1.000
    O10      O        0.06910    0.88730    0.20890    1.000
    O11      O        0.21760    0.09150    0.45200    1.000
    O12      O        0.83300    0.86330    0.25610    1.000
    O13      O        0.56220    0.88740    0.80980    1.000
    O14      O        0.52660    0.88880    0.05190    1.000
    O15      O        0.78240    0.90850    0.95200    1.000
    O16      O        0.33050    0.84600    0.76300    1.000
    O17      O        0.28730    0.91680    0.06590    1.000
    O18      O        0.66950    0.15400    0.26300    1.000
