data_functionalizedCrystal
_audit_creation_method	'EQeq! by Chris Wilmer'
_symmetry_space_group_name_H-M	'P1'
_symmetry_Int_Tables_number	1
_symmetry_cell_setting	triclinic
loop_
_symmetry_equiv_pos_as_xyz
  x,y,z
_cell_length_a	12.8174
_cell_length_b	15.0318
_cell_length_c	15.4448
_cell_angle_alpha	90
_cell_angle_beta	90
_cell_angle_gamma	90
loop_
_atom_site_label
_atom_site_type_symbol
_atom_site_fract_x
_atom_site_fract_y
_atom_site_fract_z
_atom_site_charge
Mof_Cd	Cd	0.23775	0.21634	0.22631	0.501
Mof_Br	Br	0.09443	0.29451	0.31183	-0.219
Mof_C 	C 	0.1841	0.1109	0.0666	0.339
Mof_C 	C 	0.1269	0.0957	0.9825	-0.086
Mof_C 	C 	0.1561	0.0249	0.9285	0.038
Mof_H 	H 	0.2113	0.9882	0.9445	0.055
Mof_C 	C 	0.1042	0.0091	0.8527	-0.082
Mof_C 	C 	0.0252	0.0662	0.8252	0.032
Mof_H 	H 	0.9914	0.0569	0.7727	0.053
Mof_C 	C 	0.9977	0.1386	0.879	-0.083
Mof_C 	C 	0.0482	0.153	0.9554	0.037
Mof_H 	H 	0.03	0.2015	0.9896	0.047
Mof_C 	C 	0.9105	0.2	0.8491	0.314
Mof_C 	C 	0.133	0.9321	0.7939	0.336
Mof_O 	O 	0.1486	0.1701	0.1143	-0.282
Mof_O 	O 	0.2618	0.063	0.0812	-0.283
Mof_O 	O 	0.8843	0.2619	0.8982	-0.291
Mof_O 	O 	0.8651	0.1826	0.7784	-0.267
Mof_O 	O 	0.0739	0.914	0.7329	-0.291
Mof_O 	O 	0.2144	0.8906	0.814	-0.276
Mof_Cd	Cd	0.43557	0.09303	0.08785	0.41
Mof_Cd	Cd	0.26225	0.78366	0.72631	0.5
Mof_Br	Br	0.40557	0.70549	0.81183	-0.22
Mof_C 	C 	0.3159	0.8891	0.5666	0.338
Mof_C 	C 	0.3731	0.9043	0.4825	-0.085
Mof_C 	C 	0.3439	0.9751	0.4285	0.035
Mof_H 	H 	0.2887	0.0118	0.4445	0.056
Mof_C 	C 	0.3958	0.9909	0.3527	-0.081
Mof_C 	C 	0.4748	0.9338	0.3252	0.029
Mof_H 	H 	0.5086	0.9431	0.2727	0.054
Mof_C 	C 	0.5023	0.8614	0.379	-0.081
Mof_C 	C 	0.4518	0.847	0.4554	0.035
Mof_H 	H 	0.47	0.7985	0.4896	0.047
Mof_C 	C 	0.5895	0.8	0.3491	0.313
Mof_C 	C 	0.367	0.0679	0.2939	0.336
Mof_O 	O 	0.3514	0.8299	0.6143	-0.282
Mof_O 	O 	0.2382	0.937	0.5812	-0.283
Mof_O 	O 	0.6157	0.7381	0.3982	-0.29
Mof_O 	O 	0.6349	0.8174	0.2784	-0.267
Mof_O 	O 	0.4261	0.086	0.2329	-0.29
Mof_O 	O 	0.2856	0.1094	0.314	-0.276
Mof_Cd	Cd	0.06443	0.90697	0.58785	0.41
Mof_Cd	Cd	0.76225	0.71634	0.27369	0.5
Mof_Br	Br	0.90557	0.79451	0.18817	-0.22
Mof_C 	C 	0.8159	0.6109	0.4334	0.338
Mof_C 	C 	0.8731	0.5957	0.5175	-0.085
Mof_C 	C 	0.8439	0.5249	0.5715	0.036
Mof_H 	H 	0.7887	0.4882	0.5555	0.056
Mof_C 	C 	0.8958	0.5091	0.6473	-0.082
Mof_C 	C 	0.9748	0.5662	0.6748	0.03
Mof_H 	H 	0.0086	0.5569	0.7273	0.054
Mof_C 	C 	0.0023	0.6386	0.621	-0.081
Mof_C 	C 	0.9518	0.653	0.5446	0.036
Mof_H 	H 	0.97	0.7015	0.5104	0.047
Mof_C 	C 	0.0895	0.7	0.6509	0.314
Mof_C 	C 	0.867	0.4321	0.7061	0.336
Mof_O 	O 	0.8514	0.6701	0.3857	-0.282
Mof_O 	O 	0.7382	0.563	0.4188	-0.283
Mof_O 	O 	0.1157	0.7619	0.6018	-0.291
Mof_O 	O 	0.1349	0.6826	0.7216	-0.267
Mof_O 	O 	0.9261	0.414	0.7671	-0.29
Mof_O 	O 	0.7856	0.3906	0.686	-0.276
Mof_Cd	Cd	0.56443	0.59303	0.41215	0.41
Mof_Cd	Cd	0.73775	0.28366	0.77369	0.5
Mof_Br	Br	0.59443	0.20549	0.68817	-0.22
Mof_C 	C 	0.6841	0.3891	0.9334	0.338
Mof_C 	C 	0.6269	0.4043	0.0175	-0.085
Mof_C 	C 	0.6561	0.4751	0.0715	0.036
Mof_H 	H 	0.7113	0.5118	0.0555	0.056
Mof_C 	C 	0.6042	0.4909	0.1473	-0.081
Mof_C 	C 	0.5252	0.4338	0.1748	0.029
Mof_H 	H 	0.4914	0.4431	0.2273	0.054
Mof_C 	C 	0.4977	0.3614	0.121	-0.081
Mof_C 	C 	0.5482	0.347	0.0446	0.036
Mof_H 	H 	0.53	0.2985	0.0104	0.047
Mof_C 	C 	0.4105	0.3	0.1509	0.313
Mof_C 	C 	0.633	0.5679	0.2061	0.336
Mof_O 	O 	0.6486	0.3299	0.8857	-0.282
Mof_O 	O 	0.7618	0.437	0.9188	-0.283
Mof_O 	O 	0.3843	0.2381	0.1018	-0.29
Mof_O 	O 	0.3651	0.3174	0.2216	-0.267
Mof_O 	O 	0.5739	0.586	0.2671	-0.29
Mof_O 	O 	0.7144	0.6094	0.186	-0.276
Mof_Cd	Cd	0.93557	0.40697	0.91215	0.41
_end
