data_functionalizedCrystal
_audit_creation_method	'EQeq! by Chris Wilmer'
_symmetry_space_group_name_H-M	'P1'
_symmetry_Int_Tables_number	1
_symmetry_cell_setting	triclinic
loop_
_symmetry_equiv_pos_as_xyz
  x,y,z
_cell_length_a	16.004
_cell_length_b	16.064
_cell_length_c	19.532
_cell_angle_alpha	103.728
_cell_angle_beta	100.696
_cell_angle_gamma	117.94
loop_
_atom_site_label
_atom_site_type_symbol
_atom_site_fract_x
_atom_site_fract_y
_atom_site_fract_z
_atom_site_charge
Mof_Ag	Ag	0.50548	0.69054	0.36971	0.41
Mof_Ag	Ag	0.56832	0.56311	0.45709	0.355
Mof_Ag	Ag	0.70024	0.50284	0.38593	0.395
Mof_Ag	Ag	0.65948	0.54207	0.24061	0.147
Mof_Ag	Ag	0.62835	0.70358	0.26213	0.239
Mof_Ag	Ag	0.76779	0.77125	0.45714	0.488
Mof_Ag	Ag	0.45223	0.47102	0.27042	0.483
Mof_Ag	Ag	0.6633	0.7689	0.13344	0.4
Mof_Ag	Ag	0.77891	0.68207	0.16448	0.183
Mof_Ag	Ag	0.46226	0.40384	0.0127	0.277
Mof_Ag	Ag	0.45751	0.62741	0.12145	0.32
Mof_Ag	Ag	0.66744	0.45813	0.08741	0.298
Mof_Ag	Ag	0.97978	0.96841	0.17652	0.807
Mof_C 	C 	0.6422	0.5888	0.3585	-0.262
Mof_C 	C 	0.5993	0.635	0.3562	-0.31
Mof_C 	C 	0.6078	0.5479	0.1184	-0.224
Mof_C 	C 	0.5734	0.6001	0.1211	-0.29
Mof_C 	C 	0.0844	0.8565	0.2127	0.112
Mof_H 	H 	0.0411	0.8377	0.2397	-0.048
Mof_C 	C 	0.1433	0.8179	0.2088	-0.153
Mof_H 	H 	0.1402	0.7744	0.2338	0.074
Mof_C 	C 	0.2079	0.8418	0.1686	0.063
Mof_C 	C 	0.2668	0.7941	0.1579	0.064
Mof_C 	C 	0.2332	0.6986	0.1589	-0.147
Mof_H 	H 	0.1732	0.6634	0.1674	0.074
Mof_C 	C 	0.2878	0.6551	0.1472	0.078
Mof_H 	H 	0.2624	0.5899	0.1473	-0.017
Mof_C 	C 	0.4081	0.7929	0.1357	0.098
Mof_H 	H 	0.4697	0.8274	0.1291	-0.002
Mof_C 	C 	0.3558	0.8412	0.1449	-0.139
Mof_H 	H 	0.3811	0.9051	0.1423	0.106
Mof_C 	C 	0.2101	0.9091	0.1329	-0.122
Mof_H 	H 	0.2518	0.9281	0.1048	0.094
Mof_C 	C 	0.1485	0.9462	0.1409	0.116
Mof_H 	H 	0.1511	0.9916	0.1181	0.081
Mof_C 	C 	0.8721	0.0821	0.1983	0.167
Mof_H 	H 	0.8589	0.0531	0.234	-0.006
Mof_C 	C 	0.8286	0.1359	0.1845	-0.202
Mof_H 	H 	0.7878	0.1418	0.211	0.152
Mof_C 	C 	0.8437	0.1793	0.1341	0.122
Mof_C 	C 	0.7977	0.2386	0.1188	0.048
Mof_C 	C 	0.7294	0.2418	0.1514	-0.149
Mof_H 	H 	0.7106	0.2071	0.1832	0.107
Mof_C 	C 	0.6896	0.2977	0.1357	0.087
Mof_H 	H 	0.6432	0.2993	0.1576	-0.025
Mof_C 	C 	0.7791	0.3448	0.0589	0.071
Mof_H 	H 	0.7955	0.3793	0.0266	-0.012
Mof_C 	C 	0.8234	0.2911	0.0717	-0.132
Mof_H 	H 	0.8694	0.2904	0.0491	0.078
Mof_C 	C 	0.9049	0.1678	0.1013	-0.17
Mof_H 	H 	0.9221	0.1988	0.0672	0.12
Mof_C 	C 	0.9438	0.1109	0.1166	0.164
Mof_H 	H 	0.9831	0.102	0.0897	0.074
Mof_C 	C 	0.813	0.4303	0.4845	0.092
Mof_H 	H 	0.792	0.4546	0.5214	-0.019
Mof_C 	C 	0.8702	0.3896	0.501	-0.146
Mof_H 	H 	0.8856	0.3865	0.5483	0.077
Mof_C 	C 	0.9043	0.3541	0.4495	0.084
Mof_C 	C 	0.9712	0.3154	0.4664	0.069
Mof_C 	C 	0.9782	0.2841	0.5263	-0.142
Mof_H 	H 	0.9384	0.2833	0.5557	0.072
Mof_C 	C 	0.0447	0.2544	0.5415	0.078
Mof_H 	H 	0.047	0.2323	0.5813	-0.038
Mof_C 	C 	0.0977	0.282	0.4465	0.066
Mof_H 	H 	0.1382	0.2814	0.4181	0.033
Mof_C 	C 	0.0321	0.3118	0.4255	-0.125
Mof_H 	H 	0.0288	0.3296	0.3836	0.09
Mof_C 	C 	0.8752	0.3583	0.38	-0.138
Mof_H 	H 	0.8937	0.3326	0.3418	0.094
Mof_C 	C 	0.8185	0.4006	0.3668	0.097
Mof_H 	H 	0.8018	0.4043	0.3198	-0.028
Mof_C 	C 	0.405	0.7869	0.4544	0.123
Mof_H 	H 	0.4107	0.7518	0.4847	-0.028
Mof_C 	C 	0.3668	0.8454	0.4739	-0.18
Mof_H 	H 	0.3482	0.8495	0.5163	0.133
Mof_C 	C 	0.3557	0.8983	0.4309	0.085
Mof_C 	C 	0.3203	0.9684	0.4515	0.073
Mof_C 	C 	0.2605	0.9558	0.495	-0.146
Mof_H 	H 	0.2384	0.9008	0.5102	0.12
Mof_C 	C 	0.2337	0.0243	0.5159	0.1
Mof_H 	H 	0.1941	0.0144	0.5461	-0.008
Mof_C 	C 	0.3157	0.1138	0.4522	0.091
Mof_H 	H 	0.335	0.168	0.4361	0.011
Mof_C 	C 	0.3468	0.0488	0.4288	-0.147
Mof_H 	H 	0.3855	0.0593	0.3979	0.103
Mof_C 	C 	0.3831	0.8847	0.3676	-0.145
Mof_H 	H 	0.3748	0.9161	0.3348	0.106
Mof_C 	C 	0.4223	0.8258	0.353	0.108
Mof_H 	H 	0.4414	0.8197	0.3109	0.018
Mof_C 	C 	0.6537	0.9058	0.2701	0.141
Mof_C 	C 	0.6603	0.0068	0.3004	0.829
Mof_C 	C 	0.763	0.7615	0.0071	0.106
Mof_C 	C 	0.8368	0.8114	0.968	0.889
Mof_C 	C 	0.331	0.3264	0.3665	0.059
Mof_C 	C 	0.2519	0.2426	0.2936	1.134
Mof_N 	N 	0.9295	0.0698	0.1649	-0.218
Mof_N 	N 	0.7135	0.3492	0.0913	-0.2
Mof_N 	N 	0.7869	0.436	0.4175	-0.201
Mof_N 	N 	0.1064	0.2545	0.5041	-0.207
Mof_N 	N 	0.4345	0.7763	0.3962	-0.206
Mof_N 	N 	0.2603	0.1048	0.4958	-0.207
Mof_O 	O 	0.7063	0.9089	0.2325	-0.283
Mof_O 	O 	0.5977	0.8352	0.2849	-0.287
Mof_F 	F 	0.6298	0.0318	0.2443	-0.498
Mof_F 	F 	0.7534	0.0825	0.3394	-0.51
Mof_F 	F 	0.6064	0.0068	0.3435	-0.509
Mof_O 	O 	0.7794	0.8168	0.0696	-0.307
Mof_O 	O 	0.6944	0.6714	0.9698	-0.266
Mof_F 	F 	0.8129	0.8617	0.9358	-0.482
Mof_F 	F 	0.9304	0.8732	0.0112	-0.541
Mof_F 	F 	0.8349	0.7459	0.9121	-0.477
Mof_O 	O 	0.4029	0.3987	0.3604	-0.287
Mof_O 	O 	0.3154	0.3132	0.4226	-0.25
Mof_F 	F 	0.28	0.234	0.2344	-0.288
Mof_F 	F 	0.213	0.1526	0.299	-0.359
Mof_F 	F 	0.1764	0.256	0.2761	-0.339
Mof_N 	N 	0.0857	0.9209	0.1792	-0.195
Mof_N 	N 	0.3751	0.7007	0.1358	-0.207
Mof_F 	F 	0.1573	0.197	0.2902	-0.328
Mof_F 	F 	0.255	0.2773	0.2388	-0.332
Mof_F 	F 	0.273	0.1717	0.2766	-0.35
Mof_Ag	Ag	0.49452	0.30946	0.63029	0.411
Mof_Ag	Ag	0.43168	0.43689	0.54291	0.356
Mof_Ag	Ag	0.29976	0.49716	0.61407	0.395
Mof_Ag	Ag	0.34052	0.45793	0.75939	0.147
Mof_Ag	Ag	0.37165	0.29642	0.73787	0.239
Mof_Ag	Ag	0.23221	0.22875	0.54286	0.488
Mof_Ag	Ag	0.54777	0.52898	0.72958	0.483
Mof_Ag	Ag	0.3367	0.2311	0.86656	0.4
Mof_Ag	Ag	0.22109	0.31793	0.83552	0.183
Mof_Ag	Ag	0.53774	0.59616	0.9873	0.277
Mof_Ag	Ag	0.54249	0.37259	0.87855	0.32
Mof_Ag	Ag	0.33256	0.54187	0.91259	0.298
Mof_Ag	Ag	0.02022	0.03159	0.82348	0.807
Mof_C 	C 	0.3578	0.4112	0.6415	-0.262
Mof_C 	C 	0.4007	0.365	0.6438	-0.31
Mof_C 	C 	0.3922	0.4521	0.8816	-0.224
Mof_C 	C 	0.4266	0.3999	0.8789	-0.29
Mof_C 	C 	0.9156	0.1435	0.7873	0.112
Mof_H 	H 	0.9589	0.1623	0.7603	-0.048
Mof_C 	C 	0.8567	0.1821	0.7912	-0.153
Mof_H 	H 	0.8598	0.2256	0.7662	0.074
Mof_C 	C 	0.7921	0.1582	0.8314	0.063
Mof_C 	C 	0.7332	0.2059	0.8421	0.064
Mof_C 	C 	0.7668	0.3014	0.8411	-0.147
Mof_H 	H 	0.8268	0.3366	0.8326	0.074
Mof_C 	C 	0.7122	0.3449	0.8528	0.078
Mof_H 	H 	0.7376	0.4101	0.8527	-0.017
Mof_C 	C 	0.5919	0.2071	0.8643	0.098
Mof_H 	H 	0.5303	0.1726	0.8709	-0.002
Mof_C 	C 	0.6442	0.1588	0.8551	-0.139
Mof_H 	H 	0.6189	0.0949	0.8577	0.106
Mof_C 	C 	0.7899	0.0909	0.8671	-0.122
Mof_H 	H 	0.7482	0.0719	0.8952	0.094
Mof_C 	C 	0.8515	0.0538	0.8591	0.116
Mof_H 	H 	0.8489	0.0084	0.8819	0.081
Mof_C 	C 	0.1279	0.9179	0.8017	0.167
Mof_H 	H 	0.1411	0.9469	0.766	-0.006
Mof_C 	C 	0.1714	0.8641	0.8155	-0.202
Mof_H 	H 	0.2122	0.8582	0.789	0.152
Mof_C 	C 	0.1563	0.8207	0.8659	0.122
Mof_C 	C 	0.2023	0.7614	0.8812	0.048
Mof_C 	C 	0.2706	0.7582	0.8486	-0.149
Mof_H 	H 	0.2894	0.7929	0.8168	0.107
Mof_C 	C 	0.3104	0.7023	0.8643	0.087
Mof_H 	H 	0.3568	0.7007	0.8424	-0.025
Mof_C 	C 	0.2209	0.6552	0.9411	0.071
Mof_H 	H 	0.2045	0.6207	0.9734	-0.012
Mof_C 	C 	0.1766	0.7089	0.9283	-0.132
Mof_H 	H 	0.1306	0.7096	0.9509	0.078
Mof_C 	C 	0.0951	0.8322	0.8987	-0.17
Mof_H 	H 	0.0779	0.8012	0.9328	0.12
Mof_C 	C 	0.0562	0.8891	0.8834	0.164
Mof_H 	H 	0.0169	0.898	0.9103	0.074
Mof_C 	C 	0.187	0.5697	0.5155	0.092
Mof_H 	H 	0.208	0.5454	0.4786	-0.019
Mof_C 	C 	0.1298	0.6104	0.499	-0.146
Mof_H 	H 	0.1144	0.6135	0.4517	0.077
Mof_C 	C 	0.0957	0.6459	0.5505	0.084
Mof_C 	C 	0.0288	0.6846	0.5336	0.069
Mof_C 	C 	0.0218	0.7159	0.4737	-0.142
Mof_H 	H 	0.0616	0.7167	0.4443	0.072
Mof_C 	C 	0.9553	0.7456	0.4585	0.078
Mof_H 	H 	0.953	0.7677	0.4187	-0.038
Mof_C 	C 	0.9023	0.718	0.5535	0.066
Mof_H 	H 	0.8618	0.7186	0.5819	0.033
Mof_C 	C 	0.9679	0.6882	0.5745	-0.125
Mof_H 	H 	0.9712	0.6704	0.6164	0.09
Mof_C 	C 	0.1248	0.6417	0.62	-0.138
Mof_H 	H 	0.1063	0.6674	0.6582	0.094
Mof_C 	C 	0.1815	0.5994	0.6332	0.097
Mof_H 	H 	0.1982	0.5957	0.6802	-0.028
Mof_C 	C 	0.595	0.2131	0.5456	0.123
Mof_H 	H 	0.5893	0.2482	0.5153	-0.028
Mof_C 	C 	0.6332	0.1546	0.5261	-0.18
Mof_H 	H 	0.6518	0.1505	0.4837	0.133
Mof_C 	C 	0.6443	0.1017	0.5691	0.085
Mof_C 	C 	0.6797	0.0316	0.5485	0.073
Mof_C 	C 	0.7395	0.0442	0.505	-0.146
Mof_H 	H 	0.7616	0.0992	0.4898	0.12
Mof_C 	C 	0.7663	0.9757	0.4841	0.1
Mof_H 	H 	0.8059	0.9856	0.4539	-0.008
Mof_C 	C 	0.6843	0.8862	0.5478	0.091
Mof_H 	H 	0.665	0.832	0.5639	0.011
Mof_C 	C 	0.6532	0.9512	0.5712	-0.147
Mof_H 	H 	0.6145	0.9407	0.6021	0.103
Mof_C 	C 	0.6169	0.1153	0.6324	-0.145
Mof_H 	H 	0.6252	0.0839	0.6652	0.106
Mof_C 	C 	0.5777	0.1742	0.647	0.108
Mof_H 	H 	0.5586	0.1803	0.6891	0.018
Mof_C 	C 	0.3463	0.0942	0.7299	0.141
Mof_C 	C 	0.3397	0.9932	0.6996	0.829
Mof_C 	C 	0.237	0.2385	0.9929	0.106
Mof_C 	C 	0.1632	0.1886	0.032	0.889
Mof_C 	C 	0.669	0.6736	0.6335	0.059
Mof_C 	C 	0.7481	0.7574	0.7064	1.134
Mof_N 	N 	0.0705	0.9302	0.8351	-0.218
Mof_N 	N 	0.2865	0.6508	0.9087	-0.2
Mof_N 	N 	0.2131	0.564	0.5825	-0.201
Mof_N 	N 	0.8936	0.7455	0.4959	-0.207
Mof_N 	N 	0.5655	0.2237	0.6038	-0.206
Mof_N 	N 	0.7397	0.8952	0.5042	-0.207
Mof_O 	O 	0.2937	0.0911	0.7675	-0.283
Mof_O 	O 	0.4023	0.1648	0.7151	-0.287
Mof_F 	F 	0.3702	0.9682	0.7557	-0.498
Mof_F 	F 	0.2466	0.9175	0.6606	-0.51
Mof_F 	F 	0.3936	0.9932	0.6565	-0.509
Mof_O 	O 	0.2206	0.1832	0.9304	-0.307
Mof_O 	O 	0.3056	0.3286	0.0302	-0.266
Mof_F 	F 	0.1871	0.1383	0.0642	-0.482
Mof_F 	F 	0.0696	0.1268	0.9888	-0.541
Mof_F 	F 	0.1651	0.2541	0.0879	-0.477
Mof_O 	O 	0.5971	0.6013	0.6396	-0.287
Mof_O 	O 	0.6846	0.6868	0.5774	-0.25
Mof_F 	F 	0.72	0.766	0.7656	-0.288
Mof_F 	F 	0.787	0.8474	0.701	-0.359
Mof_F 	F 	0.8236	0.744	0.7239	-0.339
Mof_N 	N 	0.9143	0.0791	0.8208	-0.195
Mof_N 	N 	0.6249	0.2993	0.8642	-0.207
Mof_F 	F 	0.8427	0.803	0.7098	-0.328
Mof_F 	F 	0.745	0.7227	0.7612	-0.332
Mof_F 	F 	0.727	0.8283	0.7234	-0.35
_end
