data_functionalizedCrystal
_audit_creation_method	'EQeq! by Chris Wilmer'
_symmetry_space_group_name_H-M	'P1'
_symmetry_Int_Tables_number	1
_symmetry_cell_setting	triclinic
loop_
_symmetry_equiv_pos_as_xyz
  x,y,z
_cell_length_a	36.71
_cell_length_b	36.71
_cell_length_c	15.414
_cell_angle_alpha	90
_cell_angle_beta	90
_cell_angle_gamma	90
loop_
_atom_site_label
_atom_site_type_symbol
_atom_site_fract_x
_atom_site_fract_y
_atom_site_fract_z
_atom_site_charge
Mof_Mn	Mn	0.14392	0.35117	0.25	0.775
Mof_N 	N 	0.0545	0.3181	0.3384	-0.2
Mof_N 	N 	0.1334	0.4636	0.3373	-0.233
Mof_N 	N 	0.1906	0.2622	0.1707	-0.242
Mof_O 	O 	0.033	0.3579	0.2027	-0.408
Mof_O 	O 	0.0974	0.3629	0.1931	-0.351
Mof_O 	O 	0.1102	0.3183	0.323	-0.665
Mof_O 	O 	0.1762	0.461	0.1828	-0.271
Mof_O 	O 	0.1711	0.3951	0.181	-0.2
Mof_O 	O 	0.1366	0.3915	0.3431	-0.247
Mof_O 	O 	0.1601	0.3147	0.1656	-0.617
Mof_O 	O 	0.192	0.339	0.3063	-0.327
Mof_O 	O 	0.2366	0.2863	0.3008	-0.352
Mof_C 	C 	0.0641	0.3565	0.226	0.262
Mof_C 	C 	0.0776	0.3216	0.2847	0.051
Mof_C 	C 	0.1427	0.4285	0.3023	0.051
Mof_C 	C 	0.1571	0.4329	0.2054	0.139
Mof_C 	C 	0.2078	0.304	0.312	0.144
Mof_C 	C 	0.1904	0.2905	0.221	-0.621
Mof_C 	C 	0.0507	0.2937	0.4219	-0.055
Mof_C 	C 	0.0466	0.2585	0.4158	0.002
Mof_C 	C 	0.111	0.4592	0.4213	-0.115
Mof_C 	C 	0.1894	0.2489	0.0771	-0.112
Mof_C 	C 	0.1603	0.2202	0.0806	-0.018
Mof_C 	C 	0.0781	0.4542	0.3995	0.19
Mof_C 	C 	0.0569	0.4498	0.318	-0.547
Mof_H 	H 	0.0733	0.4517	0.2683	0.178
Mof_H 	H 	0.0384	0.4689	0.3148	0.161
Mof_H 	H 	0.0451	0.4258	0.318	0.173
Mof_C 	C 	0.0476	0.2398	0.3228	-0.217
Mof_H 	H 	0.0557	0.2576	0.2796	-0.018
Mof_H 	H 	0.0231	0.2312	0.3077	0.041
Mof_H 	H 	0.0645	0.2192	0.3238	-0.006
Mof_C 	C 	0.1342	0.2066	0.1409	-0.16
Mof_H 	H 	0.1434	0.2097	0.2001	-0.128
Mof_H 	H 	0.13	0.1806	0.1298	0.033
Mof_H 	H 	0.1113	0.22	0.1343	-0.042
Mof_Li	Li	0.144	0.2798	0.2506	2.521
Mof_H 	H 	0.1802	0.4429	0.5587	0.117
Mof_H 	H 	0.1821	0.4717	0.481	0.111
Mof_H 	H 	0.1793	0.4291	0.4603	0.138
Mof_H 	H 	0.2321	0.3066	0.9401	0.155
Mof_H 	H 	0.2504	0.2917	0.0274	0.151
Mof_H 	H 	0.2166	0.3191	0.0325	0.183
Mof_H 	H 	0.0338	0.3644	0.5599	0.078
Mof_H 	H 	0.012	0.3588	0.4709	0.007
Mof_H 	H 	0.0542	0.3696	0.4691	0.088
Mof_Mn	Mn	0.85608	0.64883	0.25	0.774
Mof_N 	N 	0.9455	0.6819	0.3384	-0.192
Mof_N 	N 	0.8666	0.5364	0.3373	-0.234
Mof_N 	N 	0.8094	0.7378	0.1707	-0.243
Mof_O 	O 	0.967	0.6421	0.2027	-0.401
Mof_O 	O 	0.9026	0.6371	0.1931	-0.351
Mof_O 	O 	0.8898	0.6817	0.323	-0.667
Mof_O 	O 	0.8238	0.539	0.1828	-0.272
Mof_O 	O 	0.8289	0.6049	0.181	-0.201
Mof_O 	O 	0.8634	0.6085	0.3431	-0.251
Mof_O 	O 	0.8399	0.6853	0.1656	-0.617
Mof_O 	O 	0.808	0.661	0.3063	-0.328
Mof_O 	O 	0.7634	0.7137	0.3008	-0.354
Mof_C 	C 	0.9359	0.6435	0.226	0.258
Mof_C 	C 	0.9224	0.6784	0.2847	0.048
Mof_C 	C 	0.8573	0.5715	0.3023	0.05
Mof_C 	C 	0.8429	0.5671	0.2054	0.139
Mof_C 	C 	0.7922	0.696	0.312	0.142
Mof_C 	C 	0.8096	0.7095	0.221	-0.622
Mof_C 	C 	0.9493	0.7063	0.4219	-0.122
Mof_C 	C 	0.9534	0.7415	0.4158	0.048
Mof_C 	C 	0.889	0.5408	0.4213	-0.117
Mof_C 	C 	0.8106	0.7511	0.0771	-0.113
Mof_C 	C 	0.8397	0.7798	0.0806	-0.016
Mof_C 	C 	0.9219	0.5458	0.3995	0.191
Mof_C 	C 	0.9431	0.5502	0.318	-0.553
Mof_H 	H 	0.9267	0.5483	0.2683	0.181
Mof_H 	H 	0.9616	0.5311	0.3148	0.166
Mof_H 	H 	0.9549	0.5742	0.318	0.175
Mof_C 	C 	0.9524	0.7602	0.3228	-0.261
Mof_H 	H 	0.9443	0.7424	0.2796	-0.003
Mof_H 	H 	0.9769	0.7688	0.3077	0.061
Mof_H 	H 	0.9355	0.7808	0.3238	0.008
Mof_C 	C 	0.8658	0.7934	0.1409	-0.164
Mof_H 	H 	0.8566	0.7903	0.2001	-0.126
Mof_H 	H 	0.87	0.8194	0.1298	0.036
Mof_H 	H 	0.8887	0.78	0.1343	-0.04
Mof_Li	Li	0.856	0.7202	0.2506	2.52
Mof_H 	H 	0.8198	0.5571	0.5587	0.117
Mof_H 	H 	0.8179	0.5283	0.481	0.111
Mof_H 	H 	0.8207	0.5709	0.4603	0.138
Mof_H 	H 	0.7679	0.6934	0.9401	0.155
Mof_H 	H 	0.7496	0.7083	0.0274	0.151
Mof_H 	H 	0.7834	0.6809	0.0325	0.183
Mof_H 	H 	0.9662	0.6356	0.5599	0.151
Mof_H 	H 	0.988	0.6412	0.4709	0.176
Mof_H 	H 	0.9458	0.6304	0.4691	0.181
Mof_Mn	Mn	0.64883	0.14392	0.25	0.774
Mof_N 	N 	0.6819	0.0545	0.3384	-0.2
Mof_N 	N 	0.5364	0.1334	0.3373	-0.234
Mof_N 	N 	0.7378	0.1906	0.1707	-0.243
Mof_O 	O 	0.6421	0.033	0.2027	-0.409
Mof_O 	O 	0.6371	0.0974	0.1931	-0.352
Mof_O 	O 	0.6817	0.1102	0.323	-0.667
Mof_O 	O 	0.539	0.1762	0.1828	-0.272
Mof_O 	O 	0.6049	0.1711	0.181	-0.201
Mof_O 	O 	0.6085	0.1366	0.3431	-0.248
Mof_O 	O 	0.6853	0.1601	0.1656	-0.618
Mof_O 	O 	0.661	0.192	0.3063	-0.328
Mof_O 	O 	0.7137	0.2366	0.3008	-0.354
Mof_C 	C 	0.6435	0.0641	0.226	0.261
Mof_C 	C 	0.6784	0.0776	0.2847	0.05
Mof_C 	C 	0.5715	0.1427	0.3023	0.05
Mof_C 	C 	0.5671	0.1571	0.2054	0.138
Mof_C 	C 	0.696	0.2078	0.312	0.143
Mof_C 	C 	0.7095	0.1904	0.221	-0.622
Mof_C 	C 	0.7063	0.0507	0.4219	-0.056
Mof_C 	C 	0.7415	0.0466	0.4158	0.002
Mof_C 	C 	0.5408	0.111	0.4213	-0.116
Mof_C 	C 	0.7511	0.1894	0.0771	-0.112
Mof_C 	C 	0.7798	0.1603	0.0806	-0.018
Mof_C 	C 	0.5458	0.0781	0.3995	0.19
Mof_C 	C 	0.5502	0.0569	0.318	-0.547
Mof_H 	H 	0.5483	0.0733	0.2683	0.178
Mof_H 	H 	0.5311	0.0384	0.3148	0.161
Mof_H 	H 	0.5742	0.0451	0.318	0.173
Mof_C 	C 	0.7602	0.0476	0.3228	-0.218
Mof_H 	H 	0.7424	0.0557	0.2796	-0.018
Mof_H 	H 	0.7688	0.0231	0.3077	0.041
Mof_H 	H 	0.7808	0.0645	0.3238	-0.006
Mof_C 	C 	0.7934	0.1342	0.1409	-0.161
Mof_H 	H 	0.7903	0.1434	0.2001	-0.127
Mof_H 	H 	0.8194	0.13	0.1298	0.034
Mof_H 	H 	0.78	0.1113	0.1343	-0.042
Mof_Li	Li	0.7202	0.144	0.2506	2.521
Mof_H 	H 	0.5571	0.1802	0.5587	0.117
Mof_H 	H 	0.5283	0.1821	0.481	0.111
Mof_H 	H 	0.5709	0.1793	0.4603	0.138
Mof_H 	H 	0.6934	0.2321	0.9401	0.155
Mof_H 	H 	0.7083	0.2504	0.0274	0.151
Mof_H 	H 	0.6809	0.2166	0.0325	0.183
Mof_H 	H 	0.6356	0.0338	0.5599	0.078
Mof_H 	H 	0.6412	0.012	0.4709	0.007
Mof_H 	H 	0.6304	0.0542	0.4691	0.088
Mof_Mn	Mn	0.35117	0.85608	0.25	0.774
Mof_N 	N 	0.3181	0.9455	0.3384	-0.192
Mof_N 	N 	0.4636	0.8666	0.3373	-0.234
Mof_N 	N 	0.2622	0.8094	0.1707	-0.243
Mof_O 	O 	0.3579	0.967	0.2027	-0.401
Mof_O 	O 	0.3629	0.9026	0.1931	-0.351
Mof_O 	O 	0.3183	0.8898	0.323	-0.667
Mof_O 	O 	0.461	0.8238	0.1828	-0.272
Mof_O 	O 	0.3951	0.8289	0.181	-0.201
Mof_O 	O 	0.3915	0.8634	0.3431	-0.251
Mof_O 	O 	0.3147	0.8399	0.1656	-0.617
Mof_O 	O 	0.339	0.808	0.3063	-0.328
Mof_O 	O 	0.2863	0.7634	0.3008	-0.354
Mof_C 	C 	0.3565	0.9359	0.226	0.258
Mof_C 	C 	0.3216	0.9224	0.2847	0.048
Mof_C 	C 	0.4285	0.8573	0.3023	0.05
Mof_C 	C 	0.4329	0.8429	0.2054	0.139
Mof_C 	C 	0.304	0.7922	0.312	0.142
Mof_C 	C 	0.2905	0.8096	0.221	-0.622
Mof_C 	C 	0.2937	0.9493	0.4219	-0.122
Mof_C 	C 	0.2585	0.9534	0.4158	0.048
Mof_C 	C 	0.4592	0.889	0.4213	-0.117
Mof_C 	C 	0.2489	0.8106	0.0771	-0.113
Mof_C 	C 	0.2202	0.8397	0.0806	-0.017
Mof_C 	C 	0.4542	0.9219	0.3995	0.191
Mof_C 	C 	0.4498	0.9431	0.318	-0.553
Mof_H 	H 	0.4517	0.9267	0.2683	0.181
Mof_H 	H 	0.4689	0.9616	0.3148	0.166
Mof_H 	H 	0.4258	0.9549	0.318	0.175
Mof_C 	C 	0.2398	0.9524	0.3228	-0.26
Mof_H 	H 	0.2576	0.9443	0.2796	-0.003
Mof_H 	H 	0.2312	0.9769	0.3077	0.06
Mof_H 	H 	0.2192	0.9355	0.3238	0.007
Mof_C 	C 	0.2066	0.8658	0.1409	-0.163
Mof_H 	H 	0.2097	0.8566	0.2001	-0.127
Mof_H 	H 	0.1806	0.87	0.1298	0.035
Mof_H 	H 	0.22	0.8887	0.1343	-0.04
Mof_Li	Li	0.2798	0.856	0.2506	2.52
Mof_H 	H 	0.4429	0.8198	0.5587	0.117
Mof_H 	H 	0.4717	0.8179	0.481	0.111
Mof_H 	H 	0.4291	0.8207	0.4603	0.138
Mof_H 	H 	0.3066	0.7679	0.9401	0.155
Mof_H 	H 	0.2917	0.7496	0.0274	0.151
Mof_H 	H 	0.3191	0.7834	0.0325	0.183
Mof_H 	H 	0.3644	0.9662	0.5599	0.151
Mof_H 	H 	0.3588	0.988	0.4709	0.176
Mof_H 	H 	0.3696	0.9458	0.4691	0.181
Mof_Mn	Mn	0.85608	0.35117	0.75	0.772
Mof_N 	N 	0.9455	0.3181	0.6616	-0.192
Mof_N 	N 	0.8666	0.4636	0.6627	-0.234
Mof_N 	N 	0.8094	0.2622	0.8293	-0.241
Mof_O 	O 	0.967	0.3579	0.7973	-0.412
Mof_O 	O 	0.9026	0.3629	0.8069	-0.361
Mof_O 	O 	0.8898	0.3183	0.677	-0.665
Mof_O 	O 	0.8238	0.461	0.8172	-0.285
Mof_O 	O 	0.8289	0.3951	0.819	-0.212
Mof_O 	O 	0.8634	0.3915	0.6569	-0.251
Mof_O 	O 	0.8399	0.3147	0.8344	-0.626
Mof_O 	O 	0.808	0.339	0.6937	-0.33
Mof_O 	O 	0.7634	0.2863	0.6992	-0.356
Mof_C 	C 	0.9359	0.3565	0.774	0.258
Mof_C 	C 	0.9224	0.3216	0.7153	0.045
Mof_C 	C 	0.8573	0.4285	0.6977	0.049
Mof_C 	C 	0.8429	0.4329	0.7946	0.134
Mof_C 	C 	0.7922	0.304	0.688	0.143
Mof_C 	C 	0.8096	0.2905	0.779	-0.622
Mof_C 	C 	0.9493	0.2937	0.5781	-0.121
Mof_C 	C 	0.9534	0.2585	0.5842	0.046
Mof_C 	C 	0.889	0.4592	0.5787	-0.116
Mof_C 	C 	0.8106	0.2489	0.9229	-0.136
Mof_C 	C 	0.8397	0.2202	0.9194	-0.054
Mof_C 	C 	0.9219	0.4542	0.6005	0.188
Mof_C 	C 	0.9431	0.4498	0.682	-0.543
Mof_H 	H 	0.9267	0.4517	0.7317	0.173
Mof_H 	H 	0.9616	0.4689	0.6852	0.161
Mof_H 	H 	0.9549	0.4258	0.682	0.17
Mof_C 	C 	0.9524	0.2398	0.6772	-0.252
Mof_H 	H 	0.9443	0.2576	0.7204	-0.009
Mof_H 	H 	0.9769	0.2312	0.6923	0.055
Mof_H 	H 	0.9355	0.2192	0.6762	0.003
Mof_C 	C 	0.8658	0.2066	0.8591	-0.122
Mof_H 	H 	0.8566	0.2097	0.7999	-0.138
Mof_H 	H 	0.87	0.1806	0.8702	0.013
Mof_H 	H 	0.8887	0.22	0.8657	-0.063
Mof_Li	Li	0.856	0.2798	0.7494	2.511
Mof_H 	H 	0.8198	0.4429	0.4413	0.118
Mof_H 	H 	0.8179	0.4717	0.519	0.111
Mof_H 	H 	0.8207	0.4291	0.5397	0.138
Mof_H 	H 	0.7679	0.3066	0.0599	0.135
Mof_H 	H 	0.7496	0.2917	0.9726	0.081
Mof_H 	H 	0.7834	0.3191	0.9675	0.125
Mof_H 	H 	0.9662	0.3644	0.4401	0.151
Mof_H 	H 	0.988	0.3588	0.5291	0.176
Mof_H 	H 	0.9458	0.3696	0.5309	0.181
Mof_Mn	Mn	0.14392	0.64883	0.75	0.772
Mof_N 	N 	0.0545	0.6819	0.6616	-0.2
Mof_N 	N 	0.1334	0.5364	0.6627	-0.234
Mof_N 	N 	0.1906	0.7378	0.8293	-0.241
Mof_O 	O 	0.033	0.6421	0.7973	-0.419
Mof_O 	O 	0.0974	0.6371	0.8069	-0.362
Mof_O 	O 	0.1102	0.6817	0.677	-0.665
Mof_O 	O 	0.1762	0.539	0.8172	-0.285
Mof_O 	O 	0.1711	0.6049	0.819	-0.212
Mof_O 	O 	0.1366	0.6085	0.6569	-0.248
Mof_O 	O 	0.1601	0.6853	0.8344	-0.626
Mof_O 	O 	0.192	0.661	0.6937	-0.329
Mof_O 	O 	0.2366	0.7137	0.6992	-0.356
Mof_C 	C 	0.0641	0.6435	0.774	0.261
Mof_C 	C 	0.0776	0.6784	0.7153	0.047
Mof_C 	C 	0.1427	0.5715	0.6977	0.05
Mof_C 	C 	0.1571	0.5671	0.7946	0.133
Mof_C 	C 	0.2078	0.696	0.688	0.143
Mof_C 	C 	0.1904	0.7095	0.779	-0.622
Mof_C 	C 	0.0507	0.7063	0.5781	-0.056
Mof_C 	C 	0.0466	0.7415	0.5842	-0
Mof_C 	C 	0.111	0.5408	0.5787	-0.115
Mof_C 	C 	0.1894	0.7511	0.9229	-0.136
Mof_C 	C 	0.1603	0.7798	0.9194	-0.055
Mof_C 	C 	0.0781	0.5458	0.6005	0.187
Mof_C 	C 	0.0569	0.5502	0.682	-0.537
Mof_H 	H 	0.0733	0.5483	0.7317	0.171
Mof_H 	H 	0.0384	0.5311	0.6852	0.156
Mof_H 	H 	0.0451	0.5742	0.682	0.169
Mof_C 	C 	0.0476	0.7602	0.6772	-0.211
Mof_H 	H 	0.0557	0.7424	0.7204	-0.023
Mof_H 	H 	0.0231	0.7688	0.6923	0.036
Mof_H 	H 	0.0645	0.7808	0.6762	-0.01
Mof_C 	C 	0.1342	0.7934	0.8591	-0.12
Mof_H 	H 	0.1434	0.7903	0.7999	-0.139
Mof_H 	H 	0.13	0.8194	0.8702	0.012
Mof_H 	H 	0.1113	0.78	0.8657	-0.064
Mof_Li	Li	0.144	0.7202	0.7494	2.512
Mof_H 	H 	0.1802	0.5571	0.4413	0.118
Mof_H 	H 	0.1821	0.5283	0.519	0.111
Mof_H 	H 	0.1793	0.5709	0.5397	0.138
Mof_H 	H 	0.2321	0.6934	0.0599	0.135
Mof_H 	H 	0.2504	0.7083	0.9726	0.081
Mof_H 	H 	0.2166	0.6809	0.9675	0.125
Mof_H 	H 	0.0338	0.6356	0.4401	0.078
Mof_H 	H 	0.012	0.6412	0.5291	0.007
Mof_H 	H 	0.0542	0.6304	0.5309	0.088
Mof_Mn	Mn	0.35117	0.14392	0.75	0.772
Mof_N 	N 	0.3181	0.0545	0.6616	-0.2
Mof_N 	N 	0.4636	0.1334	0.6627	-0.234
Mof_N 	N 	0.2622	0.1906	0.8293	-0.241
Mof_O 	O 	0.3579	0.033	0.7973	-0.419
Mof_O 	O 	0.3629	0.0974	0.8069	-0.362
Mof_O 	O 	0.3183	0.1102	0.677	-0.665
Mof_O 	O 	0.461	0.1762	0.8172	-0.285
Mof_O 	O 	0.3951	0.1711	0.819	-0.212
Mof_O 	O 	0.3915	0.1366	0.6569	-0.248
Mof_O 	O 	0.3147	0.1601	0.8344	-0.626
Mof_O 	O 	0.339	0.192	0.6937	-0.329
Mof_O 	O 	0.2863	0.2366	0.6992	-0.356
Mof_C 	C 	0.3565	0.0641	0.774	0.261
Mof_C 	C 	0.3216	0.0776	0.7153	0.047
Mof_C 	C 	0.4285	0.1427	0.6977	0.05
Mof_C 	C 	0.4329	0.1571	0.7946	0.133
Mof_C 	C 	0.304	0.2078	0.688	0.143
Mof_C 	C 	0.2905	0.1904	0.779	-0.622
Mof_C 	C 	0.2937	0.0507	0.5781	-0.056
Mof_C 	C 	0.2585	0.0466	0.5842	-0.001
Mof_C 	C 	0.4592	0.111	0.5787	-0.115
Mof_C 	C 	0.2489	0.1894	0.9229	-0.136
Mof_C 	C 	0.2202	0.1603	0.9194	-0.055
Mof_C 	C 	0.4542	0.0781	0.6005	0.187
Mof_C 	C 	0.4498	0.0569	0.682	-0.537
Mof_H 	H 	0.4517	0.0733	0.7317	0.171
Mof_H 	H 	0.4689	0.0384	0.6852	0.156
Mof_H 	H 	0.4258	0.0451	0.682	0.169
Mof_C 	C 	0.2398	0.0476	0.6772	-0.21
Mof_H 	H 	0.2576	0.0557	0.7204	-0.024
Mof_H 	H 	0.2312	0.0231	0.6923	0.036
Mof_H 	H 	0.2192	0.0645	0.6762	-0.011
Mof_C 	C 	0.2066	0.1342	0.8591	-0.119
Mof_H 	H 	0.2097	0.1434	0.7999	-0.139
Mof_H 	H 	0.1806	0.13	0.8702	0.011
Mof_H 	H 	0.22	0.1113	0.8657	-0.064
Mof_Li	Li	0.2798	0.144	0.7494	2.512
Mof_H 	H 	0.4429	0.1802	0.4413	0.118
Mof_H 	H 	0.4717	0.1821	0.519	0.111
Mof_H 	H 	0.4291	0.1793	0.5397	0.138
Mof_H 	H 	0.3066	0.2321	0.0599	0.135
Mof_H 	H 	0.2917	0.2504	0.9726	0.081
Mof_H 	H 	0.3191	0.2166	0.9675	0.125
Mof_H 	H 	0.3644	0.0338	0.4401	0.078
Mof_H 	H 	0.3588	0.012	0.5291	0.007
Mof_H 	H 	0.3696	0.0542	0.5309	0.088
Mof_Mn	Mn	0.64883	0.85608	0.75	0.772
Mof_N 	N 	0.6819	0.9455	0.6616	-0.192
Mof_N 	N 	0.5364	0.8666	0.6627	-0.234
Mof_N 	N 	0.7378	0.8094	0.8293	-0.241
Mof_O 	O 	0.6421	0.967	0.7973	-0.412
Mof_O 	O 	0.6371	0.9026	0.8069	-0.361
Mof_O 	O 	0.6817	0.8898	0.677	-0.665
Mof_O 	O 	0.539	0.8238	0.8172	-0.285
Mof_O 	O 	0.6049	0.8289	0.819	-0.212
Mof_O 	O 	0.6085	0.8634	0.6569	-0.251
Mof_O 	O 	0.6853	0.8399	0.8344	-0.626
Mof_O 	O 	0.661	0.808	0.6937	-0.33
Mof_O 	O 	0.7137	0.7634	0.6992	-0.356
Mof_C 	C 	0.6435	0.9359	0.774	0.258
Mof_C 	C 	0.6784	0.9224	0.7153	0.045
Mof_C 	C 	0.5715	0.8573	0.6977	0.049
Mof_C 	C 	0.5671	0.8429	0.7946	0.134
Mof_C 	C 	0.696	0.7922	0.688	0.143
Mof_C 	C 	0.7095	0.8096	0.779	-0.622
Mof_C 	C 	0.7063	0.9493	0.5781	-0.122
Mof_C 	C 	0.7415	0.9534	0.5842	0.046
Mof_C 	C 	0.5408	0.889	0.5787	-0.116
Mof_C 	C 	0.7511	0.8106	0.9229	-0.136
Mof_C 	C 	0.7798	0.8397	0.9194	-0.053
Mof_C 	C 	0.5458	0.9219	0.6005	0.188
Mof_C 	C 	0.5502	0.9431	0.682	-0.543
Mof_H 	H 	0.5483	0.9267	0.7317	0.173
Mof_H 	H 	0.5311	0.9616	0.6852	0.161
Mof_H 	H 	0.5742	0.9549	0.682	0.17
Mof_C 	C 	0.7602	0.9524	0.6772	-0.253
Mof_H 	H 	0.7424	0.9443	0.7204	-0.008
Mof_H 	H 	0.7688	0.9769	0.6923	0.056
Mof_H 	H 	0.7808	0.9355	0.6762	0.003
Mof_C 	C 	0.7934	0.8658	0.8591	-0.123
Mof_H 	H 	0.7903	0.8566	0.7999	-0.138
Mof_H 	H 	0.8194	0.87	0.8702	0.014
Mof_H 	H 	0.78	0.8887	0.8657	-0.062
Mof_Li	Li	0.7202	0.856	0.7494	2.511
Mof_H 	H 	0.5571	0.8198	0.4413	0.118
Mof_H 	H 	0.5283	0.8179	0.519	0.111
Mof_H 	H 	0.5709	0.8207	0.5397	0.138
Mof_H 	H 	0.6934	0.7679	0.0599	0.135
Mof_H 	H 	0.7083	0.7496	0.9726	0.081
Mof_H 	H 	0.6809	0.7834	0.9675	0.125
Mof_H 	H 	0.6356	0.9662	0.4401	0.151
Mof_H 	H 	0.6412	0.988	0.5291	0.176
Mof_H 	H 	0.6304	0.9458	0.5309	0.181
Mof_Mn	Mn	0.85608	0.64883	0.75	0.772
Mof_N 	N 	0.9455	0.6819	0.6616	-0.192
Mof_N 	N 	0.8666	0.5364	0.6627	-0.234
Mof_N 	N 	0.8094	0.7378	0.8293	-0.241
Mof_O 	O 	0.967	0.6421	0.7973	-0.412
Mof_O 	O 	0.9026	0.6371	0.8069	-0.361
Mof_O 	O 	0.8898	0.6817	0.677	-0.665
Mof_O 	O 	0.8238	0.539	0.8172	-0.285
Mof_O 	O 	0.8289	0.6049	0.819	-0.212
Mof_O 	O 	0.8634	0.6085	0.6569	-0.251
Mof_O 	O 	0.8399	0.6853	0.8344	-0.626
Mof_O 	O 	0.808	0.661	0.6937	-0.33
Mof_O 	O 	0.7634	0.7137	0.6992	-0.356
Mof_C 	C 	0.9359	0.6435	0.774	0.258
Mof_C 	C 	0.9224	0.6784	0.7153	0.045
Mof_C 	C 	0.8573	0.5715	0.6977	0.049
Mof_C 	C 	0.8429	0.5671	0.7946	0.134
Mof_C 	C 	0.7922	0.696	0.688	0.143
Mof_C 	C 	0.8096	0.7095	0.779	-0.622
Mof_C 	C 	0.9493	0.7063	0.5781	-0.122
Mof_C 	C 	0.9534	0.7415	0.5842	0.046
Mof_C 	C 	0.889	0.5408	0.5787	-0.116
Mof_C 	C 	0.8106	0.7511	0.9229	-0.136
Mof_C 	C 	0.8397	0.7798	0.9194	-0.053
Mof_C 	C 	0.9219	0.5458	0.6005	0.188
Mof_C 	C 	0.9431	0.5502	0.682	-0.543
Mof_H 	H 	0.9267	0.5483	0.7317	0.173
Mof_H 	H 	0.9616	0.5311	0.6852	0.161
Mof_H 	H 	0.9549	0.5742	0.682	0.17
Mof_C 	C 	0.9524	0.7602	0.6772	-0.253
Mof_H 	H 	0.9443	0.7424	0.7204	-0.008
Mof_H 	H 	0.9769	0.7688	0.6923	0.056
Mof_H 	H 	0.9355	0.7808	0.6762	0.003
Mof_C 	C 	0.8658	0.7934	0.8591	-0.123
Mof_H 	H 	0.8566	0.7903	0.7999	-0.138
Mof_H 	H 	0.87	0.8194	0.8702	0.014
Mof_H 	H 	0.8887	0.78	0.8657	-0.062
Mof_Li	Li	0.856	0.7202	0.7494	2.511
Mof_H 	H 	0.8198	0.5571	0.4413	0.118
Mof_H 	H 	0.8179	0.5283	0.519	0.111
Mof_H 	H 	0.8207	0.5709	0.5397	0.138
Mof_H 	H 	0.7679	0.6934	0.0599	0.135
Mof_H 	H 	0.7496	0.7083	0.9726	0.081
Mof_H 	H 	0.7834	0.6809	0.9675	0.125
Mof_H 	H 	0.9662	0.6356	0.4401	0.151
Mof_H 	H 	0.988	0.6412	0.5291	0.176
Mof_H 	H 	0.9458	0.6304	0.5309	0.181
Mof_Mn	Mn	0.14392	0.35117	0.75	0.772
Mof_N 	N 	0.0545	0.3181	0.6616	-0.2
Mof_N 	N 	0.1334	0.4636	0.6627	-0.234
Mof_N 	N 	0.1906	0.2622	0.8293	-0.241
Mof_O 	O 	0.033	0.3579	0.7973	-0.419
Mof_O 	O 	0.0974	0.3629	0.8069	-0.362
Mof_O 	O 	0.1102	0.3183	0.677	-0.665
Mof_O 	O 	0.1762	0.461	0.8172	-0.285
Mof_O 	O 	0.1711	0.3951	0.819	-0.212
Mof_O 	O 	0.1366	0.3915	0.6569	-0.248
Mof_O 	O 	0.1601	0.3147	0.8344	-0.626
Mof_O 	O 	0.192	0.339	0.6937	-0.329
Mof_O 	O 	0.2366	0.2863	0.6992	-0.356
Mof_C 	C 	0.0641	0.3565	0.774	0.261
Mof_C 	C 	0.0776	0.3216	0.7153	0.047
Mof_C 	C 	0.1427	0.4285	0.6977	0.05
Mof_C 	C 	0.1571	0.4329	0.7946	0.133
Mof_C 	C 	0.2078	0.304	0.688	0.143
Mof_C 	C 	0.1904	0.2905	0.779	-0.622
Mof_C 	C 	0.0507	0.2937	0.5781	-0.056
Mof_C 	C 	0.0466	0.2585	0.5842	-0.001
Mof_C 	C 	0.111	0.4592	0.5787	-0.115
Mof_C 	C 	0.1894	0.2489	0.9229	-0.136
Mof_C 	C 	0.1603	0.2202	0.9194	-0.055
Mof_C 	C 	0.0781	0.4542	0.6005	0.187
Mof_C 	C 	0.0569	0.4498	0.682	-0.537
Mof_H 	H 	0.0733	0.4517	0.7317	0.171
Mof_H 	H 	0.0384	0.4689	0.6852	0.156
Mof_H 	H 	0.0451	0.4258	0.682	0.169
Mof_C 	C 	0.0476	0.2398	0.6772	-0.21
Mof_H 	H 	0.0557	0.2576	0.7204	-0.024
Mof_H 	H 	0.0231	0.2312	0.6923	0.036
Mof_H 	H 	0.0645	0.2192	0.6762	-0.011
Mof_C 	C 	0.1342	0.2066	0.8591	-0.119
Mof_H 	H 	0.1434	0.2097	0.7999	-0.139
Mof_H 	H 	0.13	0.1806	0.8702	0.011
Mof_H 	H 	0.1113	0.22	0.8657	-0.064
Mof_Li	Li	0.144	0.2798	0.7494	2.512
Mof_H 	H 	0.1802	0.4429	0.4413	0.118
Mof_H 	H 	0.1821	0.4717	0.519	0.111
Mof_H 	H 	0.1793	0.4291	0.5397	0.138
Mof_H 	H 	0.2321	0.3066	0.0599	0.135
Mof_H 	H 	0.2504	0.2917	0.9726	0.081
Mof_H 	H 	0.2166	0.3191	0.9675	0.125
Mof_H 	H 	0.0338	0.3644	0.4401	0.078
Mof_H 	H 	0.012	0.3588	0.5291	0.007
Mof_H 	H 	0.0542	0.3696	0.5309	0.088
Mof_Mn	Mn	0.35117	0.85608	0.75	0.772
Mof_N 	N 	0.3181	0.9455	0.6616	-0.192
Mof_N 	N 	0.4636	0.8666	0.6627	-0.234
Mof_N 	N 	0.2622	0.8094	0.8293	-0.241
Mof_O 	O 	0.3579	0.967	0.7973	-0.412
Mof_O 	O 	0.3629	0.9026	0.8069	-0.361
Mof_O 	O 	0.3183	0.8898	0.677	-0.665
Mof_O 	O 	0.461	0.8238	0.8172	-0.285
Mof_O 	O 	0.3951	0.8289	0.819	-0.212
Mof_O 	O 	0.3915	0.8634	0.6569	-0.251
Mof_O 	O 	0.3147	0.8399	0.8344	-0.626
Mof_O 	O 	0.339	0.808	0.6937	-0.33
Mof_O 	O 	0.2863	0.7634	0.6992	-0.356
Mof_C 	C 	0.3565	0.9359	0.774	0.258
Mof_C 	C 	0.3216	0.9224	0.7153	0.045
Mof_C 	C 	0.4285	0.8573	0.6977	0.049
Mof_C 	C 	0.4329	0.8429	0.7946	0.134
Mof_C 	C 	0.304	0.7922	0.688	0.143
Mof_C 	C 	0.2905	0.8096	0.779	-0.622
Mof_C 	C 	0.2937	0.9493	0.5781	-0.121
Mof_C 	C 	0.2585	0.9534	0.5842	0.046
Mof_C 	C 	0.4592	0.889	0.5787	-0.116
Mof_C 	C 	0.2489	0.8106	0.9229	-0.136
Mof_C 	C 	0.2202	0.8397	0.9194	-0.054
Mof_C 	C 	0.4542	0.9219	0.6005	0.188
Mof_C 	C 	0.4498	0.9431	0.682	-0.543
Mof_H 	H 	0.4517	0.9267	0.7317	0.173
Mof_H 	H 	0.4689	0.9616	0.6852	0.161
Mof_H 	H 	0.4258	0.9549	0.682	0.17
Mof_C 	C 	0.2398	0.9524	0.6772	-0.252
Mof_H 	H 	0.2576	0.9443	0.7204	-0.009
Mof_H 	H 	0.2312	0.9769	0.6923	0.055
Mof_H 	H 	0.2192	0.9355	0.6762	0.003
Mof_C 	C 	0.2066	0.8658	0.8591	-0.122
Mof_H 	H 	0.2097	0.8566	0.7999	-0.138
Mof_H 	H 	0.1806	0.87	0.8702	0.013
Mof_H 	H 	0.22	0.8887	0.8657	-0.063
Mof_Li	Li	0.2798	0.856	0.7494	2.511
Mof_H 	H 	0.4429	0.8198	0.4413	0.118
Mof_H 	H 	0.4717	0.8179	0.519	0.111
Mof_H 	H 	0.4291	0.8207	0.5397	0.138
Mof_H 	H 	0.3066	0.7679	0.0599	0.135
Mof_H 	H 	0.2917	0.7496	0.9726	0.081
Mof_H 	H 	0.3191	0.7834	0.9675	0.125
Mof_H 	H 	0.3644	0.9662	0.4401	0.151
Mof_H 	H 	0.3588	0.988	0.5291	0.176
Mof_H 	H 	0.3696	0.9458	0.5309	0.181
Mof_Mn	Mn	0.64883	0.14392	0.75	0.772
Mof_N 	N 	0.6819	0.0545	0.6616	-0.2
Mof_N 	N 	0.5364	0.1334	0.6627	-0.234
Mof_N 	N 	0.7378	0.1906	0.8293	-0.241
Mof_O 	O 	0.6421	0.033	0.7973	-0.419
Mof_O 	O 	0.6371	0.0974	0.8069	-0.362
Mof_O 	O 	0.6817	0.1102	0.677	-0.665
Mof_O 	O 	0.539	0.1762	0.8172	-0.285
Mof_O 	O 	0.6049	0.1711	0.819	-0.212
Mof_O 	O 	0.6085	0.1366	0.6569	-0.248
Mof_O 	O 	0.6853	0.1601	0.8344	-0.626
Mof_O 	O 	0.661	0.192	0.6937	-0.329
Mof_O 	O 	0.7137	0.2366	0.6992	-0.356
Mof_C 	C 	0.6435	0.0641	0.774	0.261
Mof_C 	C 	0.6784	0.0776	0.7153	0.047
Mof_C 	C 	0.5715	0.1427	0.6977	0.05
Mof_C 	C 	0.5671	0.1571	0.7946	0.133
Mof_C 	C 	0.696	0.2078	0.688	0.143
Mof_C 	C 	0.7095	0.1904	0.779	-0.622
Mof_C 	C 	0.7063	0.0507	0.5781	-0.056
Mof_C 	C 	0.7415	0.0466	0.5842	-0
Mof_C 	C 	0.5408	0.111	0.5787	-0.115
Mof_C 	C 	0.7511	0.1894	0.9229	-0.136
Mof_C 	C 	0.7798	0.1603	0.9194	-0.055
Mof_C 	C 	0.5458	0.0781	0.6005	0.187
Mof_C 	C 	0.5502	0.0569	0.682	-0.537
Mof_H 	H 	0.5483	0.0733	0.7317	0.171
Mof_H 	H 	0.5311	0.0384	0.6852	0.156
Mof_H 	H 	0.5742	0.0451	0.682	0.169
Mof_C 	C 	0.7602	0.0476	0.6772	-0.211
Mof_H 	H 	0.7424	0.0557	0.7204	-0.023
Mof_H 	H 	0.7688	0.0231	0.6923	0.036
Mof_H 	H 	0.7808	0.0645	0.6762	-0.01
Mof_C 	C 	0.7934	0.1342	0.8591	-0.12
Mof_H 	H 	0.7903	0.1434	0.7999	-0.139
Mof_H 	H 	0.8194	0.13	0.8702	0.012
Mof_H 	H 	0.78	0.1113	0.8657	-0.064
Mof_Li	Li	0.7202	0.144	0.7494	2.512
Mof_H 	H 	0.5571	0.1802	0.4413	0.118
Mof_H 	H 	0.5283	0.1821	0.519	0.111
Mof_H 	H 	0.5709	0.1793	0.5397	0.138
Mof_H 	H 	0.6934	0.2321	0.0599	0.135
Mof_H 	H 	0.7083	0.2504	0.9726	0.081
Mof_H 	H 	0.6809	0.2166	0.9675	0.125
Mof_H 	H 	0.6356	0.0338	0.4401	0.078
Mof_H 	H 	0.6412	0.012	0.5291	0.007
Mof_H 	H 	0.6304	0.0542	0.5309	0.088
Mof_Mn	Mn	0.14392	0.64883	0.25	0.774
Mof_N 	N 	0.0545	0.6819	0.3384	-0.2
Mof_N 	N 	0.1334	0.5364	0.3373	-0.234
Mof_N 	N 	0.1906	0.7378	0.1707	-0.243
Mof_O 	O 	0.033	0.6421	0.2027	-0.409
Mof_O 	O 	0.0974	0.6371	0.1931	-0.352
Mof_O 	O 	0.1102	0.6817	0.323	-0.667
Mof_O 	O 	0.1762	0.539	0.1828	-0.272
Mof_O 	O 	0.1711	0.6049	0.181	-0.201
Mof_O 	O 	0.1366	0.6085	0.3431	-0.248
Mof_O 	O 	0.1601	0.6853	0.1656	-0.618
Mof_O 	O 	0.192	0.661	0.3063	-0.328
Mof_O 	O 	0.2366	0.7137	0.3008	-0.354
Mof_C 	C 	0.0641	0.6435	0.226	0.261
Mof_C 	C 	0.0776	0.6784	0.2847	0.05
Mof_C 	C 	0.1427	0.5715	0.3023	0.05
Mof_C 	C 	0.1571	0.5671	0.2054	0.138
Mof_C 	C 	0.2078	0.696	0.312	0.143
Mof_C 	C 	0.1904	0.7095	0.221	-0.622
Mof_C 	C 	0.0507	0.7063	0.4219	-0.056
Mof_C 	C 	0.0466	0.7415	0.4158	0.002
Mof_C 	C 	0.111	0.5408	0.4213	-0.116
Mof_C 	C 	0.1894	0.7511	0.0771	-0.112
Mof_C 	C 	0.1603	0.7798	0.0806	-0.018
Mof_C 	C 	0.0781	0.5458	0.3995	0.19
Mof_C 	C 	0.0569	0.5502	0.318	-0.547
Mof_H 	H 	0.0733	0.5483	0.2683	0.178
Mof_H 	H 	0.0384	0.5311	0.3148	0.161
Mof_H 	H 	0.0451	0.5742	0.318	0.173
Mof_C 	C 	0.0476	0.7602	0.3228	-0.218
Mof_H 	H 	0.0557	0.7424	0.2796	-0.018
Mof_H 	H 	0.0231	0.7688	0.3077	0.041
Mof_H 	H 	0.0645	0.7808	0.3238	-0.006
Mof_C 	C 	0.1342	0.7934	0.1409	-0.161
Mof_H 	H 	0.1434	0.7903	0.2001	-0.127
Mof_H 	H 	0.13	0.8194	0.1298	0.034
Mof_H 	H 	0.1113	0.78	0.1343	-0.042
Mof_Li	Li	0.144	0.7202	0.2506	2.521
Mof_H 	H 	0.1802	0.5571	0.5587	0.117
Mof_H 	H 	0.1821	0.5283	0.481	0.111
Mof_H 	H 	0.1793	0.5709	0.4603	0.138
Mof_H 	H 	0.2321	0.6934	0.9401	0.155
Mof_H 	H 	0.2504	0.7083	0.0274	0.151
Mof_H 	H 	0.2166	0.6809	0.0325	0.183
Mof_H 	H 	0.0338	0.6356	0.5599	0.078
Mof_H 	H 	0.012	0.6412	0.4709	0.007
Mof_H 	H 	0.0542	0.6304	0.4691	0.088
Mof_Mn	Mn	0.85608	0.35117	0.25	0.774
Mof_N 	N 	0.9455	0.3181	0.3384	-0.192
Mof_N 	N 	0.8666	0.4636	0.3373	-0.234
Mof_N 	N 	0.8094	0.2622	0.1707	-0.243
Mof_O 	O 	0.967	0.3579	0.2027	-0.401
Mof_O 	O 	0.9026	0.3629	0.1931	-0.351
Mof_O 	O 	0.8898	0.3183	0.323	-0.667
Mof_O 	O 	0.8238	0.461	0.1828	-0.272
Mof_O 	O 	0.8289	0.3951	0.181	-0.201
Mof_O 	O 	0.8634	0.3915	0.3431	-0.251
Mof_O 	O 	0.8399	0.3147	0.1656	-0.617
Mof_O 	O 	0.808	0.339	0.3063	-0.328
Mof_O 	O 	0.7634	0.2863	0.3008	-0.354
Mof_C 	C 	0.9359	0.3565	0.226	0.258
Mof_C 	C 	0.9224	0.3216	0.2847	0.048
Mof_C 	C 	0.8573	0.4285	0.3023	0.05
Mof_C 	C 	0.8429	0.4329	0.2054	0.139
Mof_C 	C 	0.7922	0.304	0.312	0.142
Mof_C 	C 	0.8096	0.2905	0.221	-0.622
Mof_C 	C 	0.9493	0.2937	0.4219	-0.122
Mof_C 	C 	0.9534	0.2585	0.4158	0.048
Mof_C 	C 	0.889	0.4592	0.4213	-0.117
Mof_C 	C 	0.8106	0.2489	0.0771	-0.113
Mof_C 	C 	0.8397	0.2202	0.0806	-0.017
Mof_C 	C 	0.9219	0.4542	0.3995	0.191
Mof_C 	C 	0.9431	0.4498	0.318	-0.553
Mof_H 	H 	0.9267	0.4517	0.2683	0.181
Mof_H 	H 	0.9616	0.4689	0.3148	0.166
Mof_H 	H 	0.9549	0.4258	0.318	0.175
Mof_C 	C 	0.9524	0.2398	0.3228	-0.26
Mof_H 	H 	0.9443	0.2576	0.2796	-0.003
Mof_H 	H 	0.9769	0.2312	0.3077	0.06
Mof_H 	H 	0.9355	0.2192	0.3238	0.007
Mof_C 	C 	0.8658	0.2066	0.1409	-0.163
Mof_H 	H 	0.8566	0.2097	0.2001	-0.127
Mof_H 	H 	0.87	0.1806	0.1298	0.035
Mof_H 	H 	0.8887	0.22	0.1343	-0.04
Mof_Li	Li	0.856	0.2798	0.2506	2.52
Mof_H 	H 	0.8198	0.4429	0.5587	0.117
Mof_H 	H 	0.8179	0.4717	0.481	0.111
Mof_H 	H 	0.8207	0.4291	0.4603	0.138
Mof_H 	H 	0.7679	0.3066	0.9401	0.155
Mof_H 	H 	0.7496	0.2917	0.0274	0.151
Mof_H 	H 	0.7834	0.3191	0.0325	0.183
Mof_H 	H 	0.9662	0.3644	0.5599	0.151
Mof_H 	H 	0.988	0.3588	0.4709	0.176
Mof_H 	H 	0.9458	0.3696	0.4691	0.181
Mof_Mn	Mn	0.64883	0.85608	0.25	0.774
Mof_N 	N 	0.6819	0.9455	0.3384	-0.192
Mof_N 	N 	0.5364	0.8666	0.3373	-0.234
Mof_N 	N 	0.7378	0.8094	0.1707	-0.243
Mof_O 	O 	0.6421	0.967	0.2027	-0.401
Mof_O 	O 	0.6371	0.9026	0.1931	-0.351
Mof_O 	O 	0.6817	0.8898	0.323	-0.667
Mof_O 	O 	0.539	0.8238	0.1828	-0.272
Mof_O 	O 	0.6049	0.8289	0.181	-0.201
Mof_O 	O 	0.6085	0.8634	0.3431	-0.251
Mof_O 	O 	0.6853	0.8399	0.1656	-0.617
Mof_O 	O 	0.661	0.808	0.3063	-0.328
Mof_O 	O 	0.7137	0.7634	0.3008	-0.354
Mof_C 	C 	0.6435	0.9359	0.226	0.258
Mof_C 	C 	0.6784	0.9224	0.2847	0.048
Mof_C 	C 	0.5715	0.8573	0.3023	0.05
Mof_C 	C 	0.5671	0.8429	0.2054	0.139
Mof_C 	C 	0.696	0.7922	0.312	0.142
Mof_C 	C 	0.7095	0.8096	0.221	-0.622
Mof_C 	C 	0.7063	0.9493	0.4219	-0.122
Mof_C 	C 	0.7415	0.9534	0.4158	0.048
Mof_C 	C 	0.5408	0.889	0.4213	-0.117
Mof_C 	C 	0.7511	0.8106	0.0771	-0.113
Mof_C 	C 	0.7798	0.8397	0.0806	-0.016
Mof_C 	C 	0.5458	0.9219	0.3995	0.191
Mof_C 	C 	0.5502	0.9431	0.318	-0.553
Mof_H 	H 	0.5483	0.9267	0.2683	0.181
Mof_H 	H 	0.5311	0.9616	0.3148	0.166
Mof_H 	H 	0.5742	0.9549	0.318	0.175
Mof_C 	C 	0.7602	0.9524	0.3228	-0.261
Mof_H 	H 	0.7424	0.9443	0.2796	-0.003
Mof_H 	H 	0.7688	0.9769	0.3077	0.061
Mof_H 	H 	0.7808	0.9355	0.3238	0.008
Mof_C 	C 	0.7934	0.8658	0.1409	-0.164
Mof_H 	H 	0.7903	0.8566	0.2001	-0.126
Mof_H 	H 	0.8194	0.87	0.1298	0.036
Mof_H 	H 	0.78	0.8887	0.1343	-0.04
Mof_Li	Li	0.7202	0.856	0.2506	2.52
Mof_H 	H 	0.5571	0.8198	0.5587	0.117
Mof_H 	H 	0.5283	0.8179	0.481	0.111
Mof_H 	H 	0.5709	0.8207	0.4603	0.138
Mof_H 	H 	0.6934	0.7679	0.9401	0.155
Mof_H 	H 	0.7083	0.7496	0.0274	0.151
Mof_H 	H 	0.6809	0.7834	0.0325	0.183
Mof_H 	H 	0.6356	0.9662	0.5599	0.151
Mof_H 	H 	0.6412	0.988	0.4709	0.176
Mof_H 	H 	0.6304	0.9458	0.4691	0.181
Mof_Mn	Mn	0.35117	0.14392	0.25	0.774
Mof_N 	N 	0.3181	0.0545	0.3384	-0.201
Mof_N 	N 	0.4636	0.1334	0.3373	-0.234
Mof_N 	N 	0.2622	0.1906	0.1707	-0.243
Mof_O 	O 	0.3579	0.033	0.2027	-0.409
Mof_O 	O 	0.3629	0.0974	0.1931	-0.352
Mof_O 	O 	0.3183	0.1102	0.323	-0.666
Mof_O 	O 	0.461	0.1762	0.1828	-0.272
Mof_O 	O 	0.3951	0.1711	0.181	-0.201
Mof_O 	O 	0.3915	0.1366	0.3431	-0.248
Mof_O 	O 	0.3147	0.1601	0.1656	-0.618
Mof_O 	O 	0.339	0.192	0.3063	-0.328
Mof_O 	O 	0.2863	0.2366	0.3008	-0.353
Mof_C 	C 	0.3565	0.0641	0.226	0.261
Mof_C 	C 	0.3216	0.0776	0.2847	0.05
Mof_C 	C 	0.4285	0.1427	0.3023	0.05
Mof_C 	C 	0.4329	0.1571	0.2054	0.138
Mof_C 	C 	0.304	0.2078	0.312	0.143
Mof_C 	C 	0.2905	0.1904	0.221	-0.622
Mof_C 	C 	0.2937	0.0507	0.4219	-0.056
Mof_C 	C 	0.2585	0.0466	0.4158	0.001
Mof_C 	C 	0.4592	0.111	0.4213	-0.116
Mof_C 	C 	0.2489	0.1894	0.0771	-0.112
Mof_C 	C 	0.2202	0.1603	0.0806	-0.018
Mof_C 	C 	0.4542	0.0781	0.3995	0.19
Mof_C 	C 	0.4498	0.0569	0.318	-0.547
Mof_H 	H 	0.4517	0.0733	0.2683	0.178
Mof_H 	H 	0.4689	0.0384	0.3148	0.161
Mof_H 	H 	0.4258	0.0451	0.318	0.173
Mof_C 	C 	0.2398	0.0476	0.3228	-0.217
Mof_H 	H 	0.2576	0.0557	0.2796	-0.018
Mof_H 	H 	0.2312	0.0231	0.3077	0.041
Mof_H 	H 	0.2192	0.0645	0.3238	-0.006
Mof_C 	C 	0.2066	0.1342	0.1409	-0.16
Mof_H 	H 	0.2097	0.1434	0.2001	-0.128
Mof_H 	H 	0.1806	0.13	0.1298	0.033
Mof_H 	H 	0.22	0.1113	0.1343	-0.042
Mof_Li	Li	0.2798	0.144	0.2506	2.521
Mof_H 	H 	0.4429	0.1802	0.5587	0.117
Mof_H 	H 	0.4717	0.1821	0.481	0.111
Mof_H 	H 	0.4291	0.1793	0.4603	0.138
Mof_H 	H 	0.3066	0.2321	0.9401	0.155
Mof_H 	H 	0.2917	0.2504	0.0274	0.151
Mof_H 	H 	0.3191	0.2166	0.0325	0.183
Mof_H 	H 	0.3644	0.0338	0.5599	0.078
Mof_H 	H 	0.3588	0.012	0.4709	0.007
Mof_H 	H 	0.3696	0.0542	0.4691	0.088
Mof_Cu	Cu	4.29317e-34	0.33016	0.2727	0.847
Mof_Cu	Cu	2.85982e-33	0.66984	0.2727	0.847
Mof_Cu	Cu	0.66984	-1.21525e-33	0.2727	0.847
Mof_Cu	Cu	0.33016	-1.21525e-33	0.2727	0.847
Mof_Cu	Cu	-3.71601e-33	0.33016	0.7273	0.845
Mof_Cu	Cu	-1.2855e-33	0.66984	0.7273	0.845
Mof_Cu	Cu	0.33016	-2.4305e-33	0.7273	0.845
Mof_Cu	Cu	0.66984	-2.4305e-33	0.7273	0.845
Mof_Cu	Cu	0.14874	0.5	0.2694	0.875
Mof_Cu	Cu	0.85126	0.5	0.2694	0.875
Mof_Cu	Cu	0.5	0.14874	0.2694	0.875
Mof_Cu	Cu	0.5	0.85126	0.2694	0.875
Mof_Cu	Cu	0.85126	0.5	0.7306	0.873
Mof_Cu	Cu	0.14874	0.5	0.7306	0.873
Mof_Cu	Cu	0.5	0.14874	0.7306	0.873
Mof_Cu	Cu	0.5	0.85126	0.7306	0.873
Mof_Cu	Cu	0.24185	0.24185	0.2335	0.838
Mof_Cu	Cu	0.75815	0.75815	0.2335	0.838
Mof_Cu	Cu	0.75815	0.24185	0.2335	0.838
Mof_Cu	Cu	0.24185	0.75815	0.2335	0.838
Mof_Cu	Cu	0.75815	0.24185	0.7665	0.838
Mof_Cu	Cu	0.24185	0.75815	0.7665	0.838
Mof_Cu	Cu	0.24185	0.24185	0.7665	0.838
Mof_Cu	Cu	0.75815	0.75815	0.7665	0.838
Mof_C 	C 	0.0463	0.3137	0.5	0.081
Mof_C 	C 	0.036	0.2415	0.5	-0.126
Mof_H 	H 	0.0222	0.2195	0.5	0.036
Mof_C 	C 	0.1311	0.451	0.5	0.241
Mof_C 	C 	0.1717	0.4484	0.5	-0.712
Mof_C 	C 	0.0652	0.4534	0.5	-0.185
Mof_H 	H 	0.0394	0.4517	0.5	0.067
Mof_C 	C 	0.0355	0.3556	0.5	-0.428
Mof_C 	C 	0.9537	0.6863	0.5	0.232
Mof_C 	C 	0.964	0.7585	0.5	-0.161
Mof_H 	H 	0.9778	0.7805	0.5	0.055
Mof_C 	C 	0.8689	0.549	0.5	0.239
Mof_C 	C 	0.8283	0.5516	0.5	-0.71
Mof_C 	C 	0.9348	0.5466	0.5	-0.192
Mof_H 	H 	0.9606	0.5483	0.5	0.071
Mof_C 	C 	0.9645	0.6444	0.5	-0.957
Mof_C 	C 	0.6863	0.0463	0.5	0.082
Mof_C 	C 	0.7585	0.036	0.5	-0.127
Mof_H 	H 	0.7805	0.0222	0.5	0.037
Mof_C 	C 	0.549	0.1311	0.5	0.241
Mof_C 	C 	0.5516	0.1717	0.5	-0.712
Mof_C 	C 	0.5466	0.0652	0.5	-0.185
Mof_H 	H 	0.5483	0.0394	0.5	0.067
Mof_C 	C 	0.6444	0.0355	0.5	-0.428
Mof_C 	C 	0.3137	0.9537	0.5	0.232
Mof_C 	C 	0.2415	0.964	0.5	-0.16
Mof_H 	H 	0.2195	0.9778	0.5	0.054
Mof_C 	C 	0.451	0.8689	0.5	0.239
Mof_C 	C 	0.4484	0.8283	0.5	-0.71
Mof_C 	C 	0.4534	0.9348	0.5	-0.192
Mof_H 	H 	0.4517	0.9606	0.5	0.071
Mof_C 	C 	0.3556	0.9645	0.5	-0.957
Mof_C 	C 	0.9537	0.3137	0.5	0.232
Mof_C 	C 	0.964	0.2415	0.5	-0.16
Mof_H 	H 	0.9778	0.2195	0.5	0.054
Mof_C 	C 	0.8689	0.451	0.5	0.239
Mof_C 	C 	0.8283	0.4484	0.5	-0.71
Mof_C 	C 	0.9348	0.4534	0.5	-0.192
Mof_H 	H 	0.9606	0.4517	0.5	0.071
Mof_C 	C 	0.9645	0.3556	0.5	-0.957
Mof_C 	C 	0.0463	0.6863	0.5	0.082
Mof_C 	C 	0.036	0.7585	0.5	-0.127
Mof_H 	H 	0.0222	0.7805	0.5	0.037
Mof_C 	C 	0.1311	0.549	0.5	0.241
Mof_C 	C 	0.1717	0.5516	0.5	-0.712
Mof_C 	C 	0.0652	0.5466	0.5	-0.185
Mof_H 	H 	0.0394	0.5483	0.5	0.067
Mof_C 	C 	0.0355	0.6444	0.5	-0.428
Mof_C 	C 	0.3137	0.0463	0.5	0.081
Mof_C 	C 	0.2415	0.036	0.5	-0.126
Mof_H 	H 	0.2195	0.0222	0.5	0.036
Mof_C 	C 	0.451	0.1311	0.5	0.241
Mof_C 	C 	0.4484	0.1717	0.5	-0.712
Mof_C 	C 	0.4534	0.0652	0.5	-0.185
Mof_H 	H 	0.4517	0.0394	0.5	0.067
Mof_C 	C 	0.3556	0.0355	0.5	-0.428
Mof_C 	C 	0.6863	0.9537	0.5	0.232
Mof_C 	C 	0.7585	0.964	0.5	-0.161
Mof_H 	H 	0.7805	0.9778	0.5	0.055
Mof_C 	C 	0.549	0.8689	0.5	0.239
Mof_C 	C 	0.5516	0.8283	0.5	-0.71
Mof_C 	C 	0.5466	0.9348	0.5	-0.192
Mof_H 	H 	0.5483	0.9606	0.5	0.071
Mof_C 	C 	0.6444	0.9645	0.5	-0.957
Mof_C 	C 	0.2001	0.2653	-0	0.242
Mof_C 	C 	0.2274	0.2989	-0	-0.721
Mof_C 	C 	0.1355	0.2097	-0	-0.045
Mof_H 	H 	0.1117	0.1996	-0	0.014
Mof_C 	C 	0.7999	0.7347	-0	0.242
Mof_C 	C 	0.7726	0.7011	-0	-0.721
Mof_C 	C 	0.8645	0.7903	-0	-0.046
Mof_H 	H 	0.8883	0.8004	-0	0.016
Mof_C 	C 	0.7347	0.2001	-0	0.242
Mof_C 	C 	0.7011	0.2274	-0	-0.721
Mof_C 	C 	0.7903	0.1355	-0	-0.045
Mof_H 	H 	0.8004	0.1117	-0	0.014
Mof_C 	C 	0.2653	0.7999	-0	0.242
Mof_C 	C 	0.2989	0.7726	-0	-0.721
Mof_C 	C 	0.2097	0.8645	-0	-0.046
Mof_H 	H 	0.1996	0.8883	-0	0.015
Mof_C 	C 	0.7999	0.2653	-0	0.242
Mof_C 	C 	0.7726	0.2989	-0	-0.721
Mof_C 	C 	0.8645	0.2097	-0	-0.046
Mof_H 	H 	0.8883	0.1996	-0	0.015
Mof_C 	C 	0.2001	0.7347	-0	0.242
Mof_C 	C 	0.2274	0.7011	-0	-0.721
Mof_C 	C 	0.1355	0.7903	-0	-0.045
Mof_H 	H 	0.1117	0.8004	-0	0.014
Mof_C 	C 	0.2653	0.2001	-0	0.242
Mof_C 	C 	0.2989	0.2274	-0	-0.721
Mof_C 	C 	0.2097	0.1355	-0	-0.045
Mof_H 	H 	0.1996	0.1117	-0	0.014
Mof_C 	C 	0.7347	0.7999	-0	0.242
Mof_C 	C 	0.7011	0.7726	-0	-0.721
Mof_C 	C 	0.7903	0.8645	-0	-0.046
Mof_H 	H 	0.8004	0.8883	-0	0.016
_end
