data_functionalizedCrystal
_audit_creation_method	'EQeq! by Chris Wilmer'
_symmetry_space_group_name_H-M	'P1'
_symmetry_Int_Tables_number	1
_symmetry_cell_setting	triclinic
loop_
_symmetry_equiv_pos_as_xyz
  x,y,z
_cell_length_a	16.139
_cell_length_b	18.0992
_cell_length_c	18.0992
_cell_angle_alpha	68.4397
_cell_angle_beta	72.7086
_cell_angle_gamma	107.291
loop_
_atom_site_label
_atom_site_type_symbol
_atom_site_fract_x
_atom_site_fract_y
_atom_site_fract_z
_atom_site_charge
Mof_Fe	Fe	0.5	5.44732e-17	0.5	0.692
Mof_Fe	Fe	-0	0.5	0.5	0.685
Mof_Fe	Fe	0.5	0.5	-0	0.689
Mof_H 	H 	0.2907	0.9432	0.7921	0.071
Mof_H 	H 	0.2552	0.0618	0.7472	0.024
Mof_H 	H 	0.3149	0.1555	0.5958	0.075
Mof_H 	H 	0.4079	0.1293	0.4958	0.007
Mof_H 	H 	0.6644	0.3157	0.0867	0.079
Mof_H 	H 	0.6404	0.4224	0.9963	0.04
Mof_H 	H 	0.4292	0.3842	0.1966	0.002
Mof_H 	H 	0.4493	0.2757	0.2924	0.086
Mof_H 	H 	0.0828	0.7921	0.2647	0.14
Mof_H 	H 	0.0024	0.7472	0.191	-0.105
Mof_H 	H 	0.9107	0.5958	0.2487	0.148
Mof_H 	H 	0.9037	0.4958	0.3749	-0.027
Mof_H 	H 	0.7511	0.0867	0.5976	0.084
Mof_H 	H 	0.6367	0.9963	0.5813	0.036
Mof_H 	H 	0.6258	0.1966	0.4192	0.001
Mof_H 	H 	0.7417	0.2924	0.4319	0.09
Mof_H 	H 	0.3475	0.2647	0.9432	0.064
Mof_H 	H 	0.1934	0.191	0.0618	0.017
Mof_H 	H 	0.1594	0.2487	0.1555	0.068
Mof_H 	H 	0.2786	0.3749	0.1293	0.007
Mof_H 	H 	0.3487	0.5976	0.3157	0.104
Mof_H 	H 	0.218	0.5813	0.4224	-0.008
Mof_H 	H 	0.045	0.4192	0.3842	-0.013
Mof_H 	H 	0.1736	0.4319	0.2757	0.092
Mof_H 	H 	0.7093	0.0568	0.2079	0.1
Mof_H 	H 	0.7448	0.9382	0.2528	-0.014
Mof_H 	H 	0.6851	0.8445	0.4042	0.107
Mof_H 	H 	0.5921	0.8707	0.5042	-0.009
Mof_H 	H 	0.3356	0.6843	0.9133	0.132
Mof_H 	H 	0.3596	0.5776	0.0037	-0.057
Mof_H 	H 	0.5708	0.6158	0.8034	-0.006
Mof_H 	H 	0.5507	0.7243	0.7076	0.103
Mof_H 	H 	0.9172	0.2079	0.7353	0.033
Mof_H 	H 	0.9976	0.2528	0.809	0.11
Mof_H 	H 	0.0893	0.4042	0.7513	0.037
Mof_H 	H 	0.0963	0.5042	0.6251	0.023
Mof_H 	H 	0.2489	0.9133	0.4024	0.126
Mof_H 	H 	0.3633	0.0037	0.4187	-0.052
Mof_H 	H 	0.3742	0.8034	0.5808	-0.005
Mof_H 	H 	0.2583	0.7076	0.5681	0.099
Mof_H 	H 	0.6525	0.7353	0.0568	0.106
Mof_H 	H 	0.8066	0.809	0.9382	-0.008
Mof_H 	H 	0.8406	0.7513	0.8445	0.114
Mof_H 	H 	0.7214	0.6251	0.8707	-0.009
Mof_H 	H 	0.6513	0.4024	0.6843	0.104
Mof_H 	H 	0.782	0.4187	0.5776	-0.006
Mof_H 	H 	0.955	0.5808	0.6158	0.01
Mof_H 	H 	0.8264	0.5681	0.7243	0.096
Mof_C 	C 	0.5936	0.0965	0.3112	0.07
Mof_C 	C 	0.4392	0.7986	0.739	0.065
Mof_C 	C 	0.6256	0.0289	0.3294	0.078
Mof_C 	C 	0.316	0.9828	0.7315	-0.081
Mof_C 	C 	0.2936	0.0525	0.7052	-0.001
Mof_C 	C 	0.3291	0.1078	0.6159	-0.122
Mof_C 	C 	0.3857	0.0924	0.5564	0.072
Mof_C 	C 	0.4445	0.7209	0.7996	0.131
Mof_C 	C 	0.3864	0.6729	0.8884	-0.235
Mof_C 	C 	0.4009	0.6079	0.9425	0.21
Mof_C 	C 	0.4778	0.3702	0.1727	0.096
Mof_C 	C 	0.4887	0.3036	0.2312	-0.153
Mof_C 	C 	0.9048	0.3112	0.5923	0.099
Mof_C 	C 	0.1782	0.739	0.4624	0.063
Mof_C 	C 	0.955	0.3294	0.6417	0.043
Mof_C 	C 	0.0475	0.7315	0.2857	-0.318
Mof_C 	C 	0.9988	0.7052	0.2423	0.314
Mof_C 	C 	0.945	0.6159	0.2763	-0.307
Mof_C 	C 	0.9421	0.5564	0.3512	0.186
Mof_C 	C 	0.2441	0.7996	0.4795	0.124
Mof_C 	C 	0.2748	0.8884	0.4387	-0.229
Mof_C 	C 	0.3434	0.9425	0.4496	0.2
Mof_C 	C 	0.6505	0.1727	0.4571	0.099
Mof_C 	C 	0.7199	0.2312	0.4652	-0.157
Mof_C 	C 	0.4971	0.5923	0.0965	0.071
Mof_C 	C 	0.6406	0.4624	0.7986	0.075
Mof_C 	C 	0.5967	0.6417	0.0289	0.079
Mof_C 	C 	0.3332	0.2857	0.9828	-0.075
Mof_C 	C 	0.2411	0.2423	0.0525	-0.011
Mof_C 	C 	0.2213	0.2763	0.1078	-0.118
Mof_C 	C 	0.2933	0.3512	0.0924	0.068
Mof_C 	C 	0.7236	0.4795	0.7209	0.1
Mof_C 	C 	0.7135	0.4387	0.6729	-0.18
Mof_C 	C 	0.793	0.4496	0.6079	0.124
Mof_C 	C 	0.1076	0.4571	0.3702	0.109
Mof_C 	C 	0.1851	0.4652	0.3036	-0.178
Mof_C 	C 	0.4064	0.9035	0.6888	0.084
Mof_C 	C 	0.5608	0.2014	0.261	0.082
Mof_C 	C 	0.3744	0.9711	0.6706	0.078
Mof_C 	C 	0.684	0.0172	0.2685	-0.21
Mof_C 	C 	0.7064	0.9475	0.2948	0.149
Mof_C 	C 	0.6709	0.8922	0.3841	-0.202
Mof_C 	C 	0.6143	0.9076	0.4436	0.127
Mof_C 	C 	0.5555	0.2791	0.2004	0.072
Mof_C 	C 	0.6136	0.3271	0.1116	-0.131
Mof_C 	C 	0.5991	0.3921	0.0575	0.041
Mof_C 	C 	0.5222	0.6298	0.8273	0.124
Mof_C 	C 	0.5113	0.6964	0.7688	-0.199
Mof_C 	C 	0.0952	0.6888	0.4077	0.055
Mof_C 	C 	0.8218	0.261	0.5376	0.085
Mof_C 	C 	0.045	0.6706	0.3583	0.117
Mof_C 	C 	0.9525	0.2685	0.7143	0.018
Mof_C 	C 	0.0012	0.2948	0.7577	-0.154
Mof_C 	C 	0.055	0.3841	0.7237	-0.023
Mof_C 	C 	0.0579	0.4436	0.6488	0.017
Mof_C 	C 	0.7559	0.2004	0.5205	0.079
Mof_C 	C 	0.7252	0.1116	0.5613	-0.136
Mof_C 	C 	0.6566	0.0575	0.5504	0.051
Mof_C 	C 	0.3495	0.8273	0.5429	0.121
Mof_C 	C 	0.2801	0.7688	0.5348	-0.195
Mof_C 	C 	0.5029	0.4077	0.9035	0.084
Mof_C 	C 	0.3594	0.5376	0.2014	0.073
Mof_C 	C 	0.4033	0.3583	0.9711	0.077
Mof_C 	C 	0.6668	0.7143	0.0172	-0.215
Mof_C 	C 	0.7589	0.7577	0.9475	0.158
Mof_C 	C 	0.7787	0.7237	0.8922	-0.205
Mof_C 	C 	0.7067	0.6488	0.9076	0.13
Mof_C 	C 	0.2764	0.5205	0.2791	0.101
Mof_C 	C 	0.2865	0.5613	0.3271	-0.183
Mof_C 	C 	0.207	0.5504	0.3921	0.124
Mof_C 	C 	0.8924	0.5429	0.6298	0.11
Mof_C 	C 	0.8149	0.5348	0.6964	-0.173
Mof_N 	N 	0.46863	0.90563	0.61704	-0.156
Mof_N 	N 	0.48871	0.83713	0.6515	-0.093
Mof_N 	N 	0.61357	0.16324	0.23343	-0.13
Mof_N 	N 	0.5893	0.97385	0.41835	-0.187
Mof_N 	N 	0.4682	0.58467	0.91537	-0.22
Mof_N 	N 	0.08567	0.61704	0.47733	-0.163
Mof_N 	N 	0.14021	0.6515	0.51137	-0.097
Mof_N 	N 	0.847	0.23343	0.60333	-0.131
Mof_N 	N 	0.00765	0.41835	0.6078	-0.191
Mof_N 	N 	0.38357	0.91537	0.49996	-0.219
Mof_N 	N 	0.563	0.47733	0.90563	-0.155
Mof_N 	N 	0.65158	0.51137	0.83713	-0.094
Mof_N 	N 	0.45033	0.60333	0.16324	-0.127
Mof_N 	N 	0.61545	0.6078	0.97385	-0.186
Mof_N 	N 	0.88353	0.49996	0.58467	-0.202
Mof_N 	N 	0.53137	0.09437	0.38296	-0.164
Mof_N 	N 	0.51129	0.16287	0.3485	-0.097
Mof_N 	N 	0.38643	0.83676	0.76657	-0.124
Mof_N 	N 	0.4107	0.02615	0.58165	-0.206
Mof_N 	N 	0.5318	0.41533	0.08463	-0.198
Mof_N 	N 	0.91433	0.38296	0.52267	-0.154
Mof_N 	N 	0.85979	0.3485	0.48863	-0.092
Mof_N 	N 	0.153	0.76657	0.39667	-0.124
Mof_N 	N 	0.99235	0.58165	0.3922	-0.2
Mof_N 	N 	0.61643	0.08463	0.50004	-0.2
Mof_N 	N 	0.437	0.52267	0.09437	-0.164
Mof_N 	N 	0.34842	0.48863	0.16287	-0.096
Mof_N 	N 	0.54967	0.39667	0.83676	-0.128
Mof_N 	N 	0.38455	0.3922	0.02615	-0.206
Mof_N 	N 	0.11647	0.50004	0.41533	-0.215
Mof_Fe	Fe	0.5	0.5	0.5	0.732
Mof_Fe	Fe	-0	5.44732e-17	0.5	0.646
Mof_Fe	Fe	-2.72366e-17	0.5	-0	0.64
Mof_H 	H 	0.4172	0.2647	0.7921	0.086
Mof_H 	H 	0.4976	0.191	0.7472	0.002
Mof_H 	H 	0.5893	0.2487	0.5958	0.091
Mof_H 	H 	0.5963	0.3749	0.4958	-0.003
Mof_H 	H 	0.7489	0.5976	0.0867	0.081
Mof_H 	H 	0.8633	0.5813	0.9963	0.047
Mof_H 	H 	0.8742	0.4192	0.1966	0.008
Mof_H 	H 	0.7583	0.4319	0.2924	0.088
Mof_H 	H 	0.1525	0.9432	0.2647	0.048
Mof_H 	H 	0.3066	0.0618	0.191	0.028
Mof_H 	H 	0.3406	0.1555	0.2487	0.068
Mof_H 	H 	0.2214	0.1293	0.3749	0.011
Mof_H 	H 	0.1513	0.3157	0.5976	0.099
Mof_H 	H 	0.282	0.4224	0.5813	-0.009
Mof_H 	H 	0.455	0.3842	0.4192	-0.003
Mof_H 	H 	0.3264	0.2757	0.4319	0.093
Mof_H 	H 	0.2093	0.7921	0.9432	0.068
Mof_H 	H 	0.2448	0.7472	0.0618	0.028
Mof_H 	H 	0.1851	0.5958	0.1555	0.071
Mof_H 	H 	0.0921	0.4958	0.1293	0.001
Mof_H 	H 	0.8356	0.0867	0.3157	0.093
Mof_H 	H 	0.8596	0.9963	0.4224	0.029
Mof_H 	H 	0.0708	0.1966	0.3842	0.003
Mof_H 	H 	0.0507	0.2924	0.2757	0.101
Mof_H 	H 	0.5828	0.7353	0.2079	0.085
Mof_H 	H 	0.5024	0.809	0.2528	0.006
Mof_H 	H 	0.4107	0.7513	0.4042	0.092
Mof_H 	H 	0.4037	0.6251	0.5042	-0.003
Mof_H 	H 	0.2511	0.4024	0.9133	0.129
Mof_H 	H 	0.1367	0.4187	0.0037	-0.063
Mof_H 	H 	0.1258	0.5808	0.8034	-0.008
Mof_H 	H 	0.2417	0.5681	0.7076	0.101
Mof_H 	H 	0.8475	0.0568	0.7353	0.122
Mof_H 	H 	0.6934	0.9382	0.809	-0.018
Mof_H 	H 	0.6594	0.8445	0.7513	0.114
Mof_H 	H 	0.7786	0.8707	0.6251	-0.011
Mof_H 	H 	0.8487	0.6843	0.4024	0.111
Mof_H 	H 	0.718	0.5776	0.4187	-0.009
Mof_H 	H 	0.545	0.6158	0.5808	-0.004
Mof_H 	H 	0.6736	0.7243	0.5681	0.096
Mof_H 	H 	0.7907	0.2079	0.0568	0.102
Mof_H 	H 	0.7552	0.2528	0.9382	-0.016
Mof_H 	H 	0.8149	0.4042	0.8445	0.109
Mof_H 	H 	0.9079	0.5042	0.8707	-0.001
Mof_H 	H 	0.1644	0.9133	0.6843	0.117
Mof_H 	H 	0.1404	0.0037	0.5776	-0.044
Mof_H 	H 	0.9292	0.8034	0.6158	-0.003
Mof_H 	H 	0.9493	0.7076	0.7243	0.089
Mof_C 	C 	0.5952	0.5923	0.3112	0.077
Mof_C 	C 	0.3218	0.4624	0.739	0.064
Mof_C 	C 	0.545	0.6417	0.3294	0.078
Mof_C 	C 	0.4525	0.2857	0.7315	-0.149
Mof_C 	C 	0.5012	0.2423	0.7052	0.077
Mof_C 	C 	0.555	0.2763	0.6159	-0.165
Mof_C 	C 	0.5579	0.3512	0.5564	0.102
Mof_C 	C 	0.2559	0.4795	0.7996	0.129
Mof_C 	C 	0.2252	0.4387	0.8884	-0.236
Mof_C 	C 	0.1566	0.4496	0.9425	0.208
Mof_C 	C 	0.8495	0.4571	0.1727	0.097
Mof_C 	C 	0.7801	0.4652	0.2312	-0.153
Mof_C 	C 	0.0029	0.0965	0.5923	0.028
Mof_C 	C 	0.8594	0.7986	0.4624	0.074
Mof_C 	C 	0.9033	0.0289	0.6417	0.13
Mof_C 	C 	0.1668	0.9828	0.2857	-0.049
Mof_C 	C 	0.2589	0.0525	0.2423	-0.028
Mof_C 	C 	0.2787	0.1078	0.2763	-0.103
Mof_C 	C 	0.2067	0.0924	0.3512	0.059
Mof_C 	C 	0.7764	0.7209	0.4795	0.107
Mof_C 	C 	0.7865	0.6729	0.4387	-0.187
Mof_C 	C 	0.707	0.6079	0.4496	0.129
Mof_C 	C 	0.3924	0.3702	0.4571	0.109
Mof_C 	C 	0.3149	0.3036	0.4652	-0.174
Mof_C 	C 	0.9064	0.3112	0.0965	0.075
Mof_C 	C 	0.0608	0.739	0.7986	0.077
Mof_C 	C 	0.8744	0.3294	0.0289	0.083
Mof_C 	C 	0.184	0.7315	0.9828	-0.073
Mof_C 	C 	0.2064	0.7052	0.0525	-0.014
Mof_C 	C 	0.1709	0.6159	0.1078	-0.117
Mof_C 	C 	0.1143	0.5564	0.0924	0.064
Mof_C 	C 	0.0555	0.7996	0.7209	0.069
Mof_C 	C 	0.1136	0.8884	0.6729	-0.2
Mof_C 	C 	0.0991	0.9425	0.6079	0.178
Mof_C 	C 	0.0222	0.1727	0.3702	0.085
Mof_C 	C 	0.0113	0.2312	0.3036	-0.22
Mof_C 	C 	0.4048	0.4077	0.6888	0.076
Mof_C 	C 	0.6782	0.5376	0.261	0.083
Mof_C 	C 	0.455	0.3583	0.6706	0.078
Mof_C 	C 	0.5475	0.7143	0.2685	-0.146
Mof_C 	C 	0.4988	0.7577	0.2948	0.076
Mof_C 	C 	0.445	0.7237	0.3841	-0.163
Mof_C 	C 	0.4421	0.6488	0.4436	0.101
Mof_C 	C 	0.7441	0.5205	0.2004	0.072
Mof_C 	C 	0.7748	0.5613	0.1116	-0.128
Mof_C 	C 	0.8434	0.5504	0.0575	0.044
Mof_C 	C 	0.1505	0.5429	0.8273	0.12
Mof_C 	C 	0.2199	0.5348	0.7688	-0.196
Mof_C 	C 	0.9971	0.9035	0.4077	0.126
Mof_C 	C 	0.1406	0.2014	0.5376	0.072
Mof_C 	C 	0.0967	0.9711	0.3583	0.03
Mof_C 	C 	0.8332	0.0172	0.7143	-0.243
Mof_C 	C 	0.7411	0.9475	0.7577	0.175
Mof_C 	C 	0.7213	0.8922	0.7237	-0.218
Mof_C 	C 	0.7933	0.9076	0.6488	0.137
Mof_C 	C 	0.2236	0.2791	0.5205	0.097
Mof_C 	C 	0.2135	0.3271	0.5613	-0.181
Mof_C 	C 	0.293	0.3921	0.5504	0.123
Mof_C 	C 	0.6076	0.6298	0.5429	0.113
Mof_C 	C 	0.6851	0.6964	0.5348	-0.181
Mof_C 	C 	0.0936	0.6888	0.9035	0.082
Mof_C 	C 	0.9392	0.261	0.2014	0.07
Mof_C 	C 	0.1256	0.6706	0.9711	0.076
Mof_C 	C 	0.816	0.2685	0.0172	-0.214
Mof_C 	C 	0.7936	0.2948	0.9475	0.156
Mof_C 	C 	0.8291	0.3841	0.8922	-0.201
Mof_C 	C 	0.8857	0.4436	0.9076	0.13
Mof_C 	C 	0.9445	0.2004	0.2791	0.138
Mof_C 	C 	0.8864	0.1116	0.3271	-0.167
Mof_C 	C 	0.9009	0.0575	0.3921	0.075
Mof_C 	C 	0.9778	0.8273	0.6298	0.131
Mof_C 	C 	0.9887	0.7688	0.6964	-0.136
Mof_N 	N 	0.41433	0.47733	0.61704	-0.165
Mof_N 	N 	0.35979	0.51137	0.6515	-0.094
Mof_N 	N 	0.653	0.60333	0.23343	-0.129
Mof_N 	N 	0.49235	0.6078	0.41835	-0.201
Mof_N 	N 	0.11643	0.49996	0.91537	-0.219
Mof_N 	N 	0.937	0.90563	0.47733	-0.15
Mof_N 	N 	0.84842	0.83713	0.51137	-0.094
Mof_N 	N 	0.04967	0.16324	0.60333	-0.128
Mof_N 	N 	0.88455	0.97385	0.6078	-0.185
Mof_N 	N 	0.61647	0.58467	0.49996	-0.215
Mof_N 	N 	0.03137	0.61704	0.90563	-0.156
Mof_N 	N 	0.01129	0.6515	0.83713	-0.106
Mof_N 	N 	0.88643	0.23343	0.16324	-0.126
Mof_N 	N 	0.9107	0.41835	0.97385	-0.175
Mof_N 	N 	0.0318	0.91537	0.58467	-0.227
Mof_N 	N 	0.58567	0.52267	0.38296	-0.165
Mof_N 	N 	0.64021	0.48863	0.3485	-0.097
Mof_N 	N 	0.347	0.39667	0.76657	-0.126
Mof_N 	N 	0.50765	0.3922	0.58165	-0.202
Mof_N 	N 	0.88357	0.50004	0.08463	-0.186
Mof_N 	N 	0.063	0.09437	0.52267	-0.158
Mof_N 	N 	0.15158	0.16287	0.48863	-0.096
Mof_N 	N 	0.95033	0.83676	0.39667	-0.126
Mof_N 	N 	0.11545	0.02615	0.3922	-0.198
Mof_N 	N 	0.38353	0.41533	0.50004	-0.214
Mof_N 	N 	0.96863	0.38296	0.09437	-0.149
Mof_N 	N 	0.98871	0.3485	0.16287	-0.083
Mof_N 	N 	0.11357	0.76657	0.83676	-0.128
Mof_N 	N 	0.0893	0.58165	0.02615	-0.207
Mof_N 	N 	0.9682	0.08463	0.41533	-0.178
_end
