# CIF file generated by openbabel 3.1.0, see https://openbabel.org
data_I
_chemical_name_common 'image0'
_cell_length_a 14.833
_cell_length_b 8.4766
_cell_length_c 17.326
_cell_angle_alpha 90
_cell_angle_beta 108.46
_cell_angle_gamma 90
_space_group_name_H-M_alt 'P 1'
_space_group_name_Hall 'P 1'
loop_
    _symmetry_equiv_pos_as_xyz
    x,y,z
loop_
    _atom_site_label
    _atom_site_type_symbol
    _atom_site_fract_x
    _atom_site_fract_y
    _atom_site_fract_z
    _atom_site_occupancy
    C1       C        0.50860    0.14890    0.67770    1.000
    C2       C        0.49080    0.45650    0.68990    1.000
    C3       C        0.63490    0.42980    0.81620    1.000
    C4       C        0.63520    0.13040    0.81110    1.000
    C5       C        0.36030    0.26790    0.72110    1.000
    C6       C        0.45010    0.47650    0.82850    1.000
    C7       C        0.55840    0.27110    0.91440    1.000
    C8       C        0.45950    0.06150    0.81670    1.000
    Mn1      Mn       0.13801    0.29184    0.60882    1.000
    Mo1      Mo       0.51153    0.28088    0.78389    1.000
    N1       N        0.50800    0.07460    0.62150    1.000
    N2       N        0.48010    0.55860    0.64210    1.000
    N3       N        0.70330    0.50590    0.83690    1.000
    N4       N        0.69950    0.04890    0.82190    1.000
    N5       N        0.28160    0.26190    0.68740    1.000
    N6       N        0.41600    0.58140    0.85020    1.000
    N7       N        0.58340    0.26610    0.98390    1.000
    N8       N        0.43420    0.94770    0.83590    1.000
    C9       C        0.99140    0.64890    0.82230    1.000
    C10      C        0.00920    0.95650    0.81010    1.000
    C11      C        0.86510    0.92980    0.68380    1.000
    C12      C        0.86480    0.63040    0.68890    1.000
    C13      C        0.13970    0.76790    0.77890    1.000
    C14      C        0.04990    0.97650    0.67150    1.000
    C15      C        0.94160    0.77110    0.58560    1.000
    C16      C        0.04050    0.56150    0.68330    1.000
    Mn2      Mn       0.36199    0.79184    0.89118    1.000
    Mo2      Mo       0.98847    0.78088    0.71611    1.000
    N9       N        0.99200    0.57460    0.87850    1.000
    N10      N        0.01990    0.05860    0.85790    1.000
    N11      N        0.79670    0.00590    0.66310    1.000
    N12      N        0.80050    0.54890    0.67810    1.000
    N13      N        0.21840    0.76190    0.81260    1.000
    N14      N        0.08400    0.08140    0.64980    1.000
    N15      N        0.91660    0.76610    0.51610    1.000
    N16      N        0.06580    0.44770    0.66410    1.000
    C17      C        0.49140    0.85110    0.32230    1.000
    C18      C        0.50920    0.54350    0.31010    1.000
    C19      C        0.36510    0.57020    0.18380    1.000
    C20      C        0.36480    0.86960    0.18890    1.000
    C21      C        0.63970    0.73210    0.27890    1.000
    C22      C        0.54990    0.52350    0.17150    1.000
    C23      C        0.44160    0.72890    0.08560    1.000
    C24      C        0.54050    0.93850    0.18330    1.000
    Mn3      Mn       0.86199    0.70816    0.39118    1.000
    Mo3      Mo       0.48847    0.71912    0.21611    1.000
    N17      N        0.49200    0.92540    0.37850    1.000
    N18      N        0.51990    0.44140    0.35790    1.000
    N19      N        0.29670    0.49410    0.16310    1.000
    N20      N        0.30050    0.95110    0.17810    1.000
    N21      N        0.71840    0.73810    0.31260    1.000
    N22      N        0.58400    0.41860    0.14980    1.000
    N23      N        0.41660    0.73390    0.01610    1.000
    N24      N        0.56580    0.05230    0.16410    1.000
    C25      C        0.00860    0.35110    0.17770    1.000
    C26      C        0.99080    0.04350    0.18990    1.000
    C27      C        0.13490    0.07020    0.31620    1.000
    C28      C        0.13520    0.36960    0.31110    1.000
    C29      C        0.86030    0.23210    0.22110    1.000
    C30      C        0.95010    0.02350    0.32850    1.000
    C31      C        0.05840    0.22890    0.41440    1.000
    C32      C        0.95950    0.43850    0.31670    1.000
    Mn4      Mn       0.63801    0.20816    0.10882    1.000
    Mo4      Mo       0.01153    0.21912    0.28389    1.000
    N25      N        0.00800    0.42540    0.12150    1.000
    N26      N        0.98010    0.94140    0.14210    1.000
    N27      N        0.20330    0.99410    0.33690    1.000
    N28      N        0.19950    0.45110    0.32190    1.000
    N29      N        0.78160    0.23810    0.18740    1.000
    N30      N        0.91600    0.91860    0.35020    1.000
    N31      N        0.08340    0.23390    0.48390    1.000
    N32      N        0.93420    0.55230    0.33590    1.000
    Mn5      Mn       0.50000    0.00000    0.50000    1.000
    Mn6      Mn       0.00000    0.50000    0.00000    1.000
