data_functionalizedCrystal
_audit_creation_method	'EQeq! by Chris Wilmer'
_symmetry_space_group_name_H-M	'P1'
_symmetry_Int_Tables_number	1
_symmetry_cell_setting	triclinic
loop_
_symmetry_equiv_pos_as_xyz
  x,y,z
_cell_length_a	12.1583
_cell_length_b	16.7831
_cell_length_c	43.41
_cell_angle_alpha	90
_cell_angle_beta	90
_cell_angle_gamma	93.688
loop_
_atom_site_label
_atom_site_type_symbol
_atom_site_fract_x
_atom_site_fract_y
_atom_site_fract_z
_atom_site_charge
Mof_Cd	Cd	0.18547	0.46408	0.29793	0.448
Mof_Cd	Cd	0.92036	0.56684	0.29575	0.447
Mof_Cd	Cd	0.2268	0.32143	0.50489	0.401
Mof_Cd	Cd	0.31453	0.53592	0.79793	0.448
Mof_Cd	Cd	0.57964	0.43316	0.79575	0.448
Mof_Cd	Cd	0.2732	0.67857	0.00489	0.401
Mof_Cd	Cd	0.81453	0.53592	0.70207	0.448
Mof_Cd	Cd	0.07964	0.43316	0.70425	0.447
Mof_Cd	Cd	0.7732	0.67857	0.49511	0.401
Mof_Cd	Cd	0.68547	0.46408	0.20207	0.448
Mof_Cd	Cd	0.42036	0.56684	0.20424	0.448
Mof_Cd	Cd	0.7268	0.32143	0.99511	0.401
Mof_P 	P 	0.941	0.01457	0.32396	0.377
Mof_P 	P 	0.1682	0.01813	0.32458	0.375
Mof_P 	P 	0.055	0.01756	0.26956	0.393
Mof_P 	P 	0.559	0.98543	0.82396	0.377
Mof_P 	P 	0.3318	0.98187	0.82458	0.376
Mof_P 	P 	0.445	0.98244	0.76956	0.396
Mof_P 	P 	0.059	0.98543	0.67604	0.378
Mof_P 	P 	0.8318	0.98187	0.67542	0.376
Mof_P 	P 	0.945	0.98244	0.73044	0.394
Mof_P 	P 	0.441	0.01457	0.17604	0.377
Mof_P 	P 	0.6682	0.01813	0.17542	0.376
Mof_P 	P 	0.555	0.01756	0.23044	0.396
Mof_H 	H 	0.0228	0.1807	0.3485	0.155
Mof_H 	H 	0.0402	0.3146	0.3354	-0.017
Mof_H 	H 	0.7465	0.2907	0.2928	-0.009
Mof_H 	H 	0.731	0.1564	0.3067	0.166
Mof_H 	H 	0.8323	0.989	0.3861	0.182
Mof_H 	H 	0.7772	0.9147	0.4288	-0.018
Mof_H 	H 	0.8359	0.7158	0.3839	-0.024
Mof_H 	H 	0.8682	0.7882	0.3389	0.177
Mof_H 	H 	0.261	0.0375	0.3883	0.161
Mof_H 	H 	0.2747	0.1064	0.4346	-0.004
Mof_H 	H 	0.2534	0.3136	0.3892	-0.011
Mof_H 	H 	0.2396	0.2446	0.3429	0.157
Mof_H 	H 	0.0799	0.8494	0.3471	0.16
Mof_H 	H 	0.0603	0.718	0.3314	-0.02
Mof_H 	H 	0.3609	0.7382	0.2951	-0.019
Mof_H 	H 	0.3754	0.8737	0.3056	0.167
Mof_H 	H 	0.9826	0.7984	0.2514	0.155
Mof_H 	H 	0.0843	0.6907	0.2382	0.002
Mof_H 	H 	0.3415	0.8407	0.2169	-0.006
Mof_H 	H 	0.2416	0.9479	0.2292	0.168
Mof_H 	H 	0.1227	0.2388	0.2528	0.157
Mof_H 	H 	0.0221	0.3454	0.2378	0.001
Mof_H 	H 	0.7686	0.1917	0.2144	0.006
Mof_H 	H 	0.8739	0.0835	0.228	0.162
Mof_H 	H 	0.4772	0.8193	0.8485	0.156
Mof_H 	H 	0.4598	0.6854	0.8354	-0.017
Mof_H 	H 	0.7535	0.7093	0.7928	-0.009
Mof_H 	H 	0.769	0.8436	0.8067	0.166
Mof_H 	H 	0.6677	0.011	0.8861	0.182
Mof_H 	H 	0.7228	0.0853	0.9288	-0.017
Mof_H 	H 	0.6641	0.2842	0.8839	-0.024
Mof_H 	H 	0.6318	0.2118	0.8389	0.177
Mof_H 	H 	0.239	0.9625	0.8883	0.161
Mof_H 	H 	0.2253	0.8936	0.9346	-0.004
Mof_H 	H 	0.2466	0.6864	0.8892	-0.011
Mof_H 	H 	0.2604	0.7554	0.8429	0.157
Mof_H 	H 	0.4201	0.1506	0.8471	0.16
Mof_H 	H 	0.4397	0.282	0.8314	-0.02
Mof_H 	H 	0.1391	0.2618	0.7951	-0.019
Mof_H 	H 	0.1246	0.1263	0.8056	0.167
Mof_H 	H 	0.5174	0.2016	0.7514	0.156
Mof_H 	H 	0.4157	0.3093	0.7382	0.002
Mof_H 	H 	0.1585	0.1593	0.7169	-0.006
Mof_H 	H 	0.2584	0.0521	0.7292	0.168
Mof_H 	H 	0.3773	0.7612	0.7528	0.157
Mof_H 	H 	0.4779	0.6546	0.7378	0.001
Mof_H 	H 	0.7314	0.8083	0.7144	0.006
Mof_H 	H 	0.6261	0.9165	0.728	0.162
Mof_H 	H 	0.9772	0.8193	0.6515	0.155
Mof_H 	H 	0.9598	0.6854	0.6646	-0.017
Mof_H 	H 	0.2535	0.7093	0.7072	-0.009
Mof_H 	H 	0.269	0.8436	0.6933	0.166
Mof_H 	H 	0.1677	0.011	0.6139	0.182
Mof_H 	H 	0.2228	0.0853	0.5712	-0.018
Mof_H 	H 	0.1641	0.2842	0.6161	-0.024
Mof_H 	H 	0.1318	0.2118	0.6611	0.177
Mof_H 	H 	0.739	0.9625	0.6117	0.161
Mof_H 	H 	0.7253	0.8936	0.5654	-0.004
Mof_H 	H 	0.7466	0.6864	0.6108	-0.011
Mof_H 	H 	0.7604	0.7554	0.6571	0.157
Mof_H 	H 	0.9201	0.1506	0.6529	0.16
Mof_H 	H 	0.9397	0.282	0.6686	-0.02
Mof_H 	H 	0.6391	0.2618	0.7049	-0.019
Mof_H 	H 	0.6246	0.1263	0.6944	0.167
Mof_H 	H 	0.0174	0.2016	0.7486	0.155
Mof_H 	H 	0.9157	0.3093	0.7618	0.002
Mof_H 	H 	0.6585	0.1593	0.7831	-0.006
Mof_H 	H 	0.7584	0.0521	0.7708	0.168
Mof_H 	H 	0.8773	0.7612	0.7472	0.157
Mof_H 	H 	0.9779	0.6546	0.7622	0.001
Mof_H 	H 	0.2314	0.8083	0.7856	0.006
Mof_H 	H 	0.1261	0.9165	0.772	0.162
Mof_H 	H 	0.5228	0.1807	0.1515	0.156
Mof_H 	H 	0.5402	0.3146	0.1646	-0.017
Mof_H 	H 	0.2465	0.2907	0.2072	-0.009
Mof_H 	H 	0.231	0.1564	0.1933	0.166
Mof_H 	H 	0.3323	0.989	0.1139	0.182
Mof_H 	H 	0.2772	0.9147	0.0712	-0.017
Mof_H 	H 	0.3359	0.7158	0.1161	-0.024
Mof_H 	H 	0.3682	0.7882	0.1611	0.177
Mof_H 	H 	0.761	0.0375	0.1117	0.161
Mof_H 	H 	0.7747	0.1064	0.0654	-0.004
Mof_H 	H 	0.7534	0.3136	0.1108	-0.011
Mof_H 	H 	0.7396	0.2446	0.1571	0.157
Mof_H 	H 	0.5799	0.8494	0.1529	0.16
Mof_H 	H 	0.5603	0.718	0.1686	-0.021
Mof_H 	H 	0.8609	0.7382	0.2049	-0.019
Mof_H 	H 	0.8754	0.8737	0.1944	0.167
Mof_H 	H 	0.4826	0.7984	0.2486	0.156
Mof_H 	H 	0.5843	0.6907	0.2618	0.002
Mof_H 	H 	0.8415	0.8407	0.2831	-0.006
Mof_H 	H 	0.7416	0.9479	0.2708	0.168
Mof_H 	H 	0.6227	0.2388	0.2472	0.157
Mof_H 	H 	0.5221	0.3454	0.2622	0.001
Mof_H 	H 	0.2686	0.1917	0.2856	0.006
Mof_H 	H 	0.3739	0.0835	0.272	0.162
Mof_C 	C 	0.8763	0.1589	0.3283	0.326
Mof_C 	C 	0.968	0.2035	0.3371	-0.308
Mof_C 	C 	0.9785	0.2834	0.329	0.181
Mof_C 	C 	0.8972	0.3185	0.3111	-0.207
Mof_C 	C 	0.8035	0.2691	0.3036	0.178
Mof_C 	C 	0.7931	0.1886	0.3121	-0.305
Mof_C 	C 	0.9109	0.4026	0.3027	0.366
Mof_C 	C 	0.8512	0.8949	0.3589	0.363
Mof_C 	C 	0.829	0.9335	0.3854	-0.348
Mof_C 	C 	0.8014	0.8894	0.4112	0.216
Mof_C 	C 	0.8096	0.806	0.4113	-0.241
Mof_C 	C 	0.8332	0.771	0.3844	0.224
Mof_C 	C 	0.8536	0.8138	0.3573	-0.349
Mof_C 	C 	0.249	0.1342	0.36097	0.318
Mof_C 	C 	0.2595	0.0928	0.38844	-0.29
Mof_C 	C 	0.2677	0.1341	0.41619	0.177
Mof_C 	C 	0.2654	0.2168	0.41647	-0.212
Mof_C 	C 	0.2549	0.2582	0.389	0.179
Mof_C 	C 	0.2467	0.2169	0.36125	-0.297
Mof_C 	C 	0.2699	0.2585	0.4461	0.394
Mof_C 	C 	0.2297	0.8729	0.329	0.329
Mof_C 	C 	0.1361	0.8272	0.3362	-0.32
Mof_C 	C 	0.1247	0.749	0.3272	0.198
Mof_C 	C 	0.2128	0.7166	0.3115	-0.219
Mof_C 	C 	0.303	0.7615	0.3049	0.205
Mof_C 	C 	0.3142	0.8418	0.312	-0.308
Mof_C 	C 	0.2074	0.6297	0.3044	0.344
Mof_C 	C 	0.1016	0.8844	0.2406	0.321
Mof_C 	C 	0.0542	0.807	0.244	-0.281
Mof_C 	C 	0.1158	0.7425	0.2363	0.163
Mof_C 	C 	0.2238	0.7548	0.2258	-0.192
Mof_C 	C 	0.269	0.8319	0.2235	0.175
Mof_C 	C 	0.2093	0.8964	0.2308	-0.293
Mof_C 	C 	0.2903	0.6857	0.2178	0.344
Mof_C 	C 	0.0067	0.1521	0.2406	0.311
Mof_C 	C 	0.0524	0.2298	0.2446	-0.281
Mof_C 	C 	0.9918	0.2933	0.2361	0.161
Mof_C 	C 	0.8859	0.2785	0.2251	-0.177
Mof_C 	C 	0.84	0.2008	0.2218	0.148
Mof_C 	C 	0.903	0.1359	0.2299	-0.274
Mof_C 	C 	0.8197	0.3464	0.2157	0.324
Mof_C 	C 	0.7914	0.7603	0.4399	0.386
Mof_C 	C 	0.6237	0.8411	0.8283	0.326
Mof_C 	C 	0.532	0.7965	0.8371	-0.31
Mof_C 	C 	0.5215	0.7166	0.829	0.181
Mof_C 	C 	0.6028	0.6815	0.8111	-0.207
Mof_C 	C 	0.6965	0.7309	0.8036	0.178
Mof_C 	C 	0.7069	0.8114	0.8121	-0.305
Mof_C 	C 	0.5891	0.5974	0.8027	0.366
Mof_C 	C 	0.6488	0.1051	0.8589	0.363
Mof_C 	C 	0.671	0.0665	0.8854	-0.347
Mof_C 	C 	0.6986	0.1106	0.9112	0.216
Mof_C 	C 	0.6904	0.194	0.9113	-0.241
Mof_C 	C 	0.6668	0.229	0.8844	0.224
Mof_C 	C 	0.6464	0.1862	0.8573	-0.349
Mof_C 	C 	0.251	0.8658	0.86097	0.318
Mof_C 	C 	0.2405	0.9072	0.88844	-0.291
Mof_C 	C 	0.2323	0.8659	0.91619	0.177
Mof_C 	C 	0.2346	0.7832	0.91647	-0.212
Mof_C 	C 	0.2451	0.7418	0.889	0.179
Mof_C 	C 	0.2533	0.7831	0.86125	-0.297
Mof_C 	C 	0.2301	0.7415	0.9461	0.394
Mof_C 	C 	0.2703	0.1271	0.829	0.329
Mof_C 	C 	0.3639	0.1728	0.8362	-0.321
Mof_C 	C 	0.3753	0.251	0.8272	0.198
Mof_C 	C 	0.2872	0.2834	0.8115	-0.219
Mof_C 	C 	0.197	0.2385	0.8049	0.205
Mof_C 	C 	0.1858	0.1582	0.812	-0.308
Mof_C 	C 	0.2926	0.3703	0.8044	0.344
Mof_C 	C 	0.3984	0.1156	0.7406	0.323
Mof_C 	C 	0.4458	0.193	0.744	-0.283
Mof_C 	C 	0.3842	0.2575	0.7363	0.165
Mof_C 	C 	0.2762	0.2452	0.7258	-0.193
Mof_C 	C 	0.231	0.1681	0.7235	0.176
Mof_C 	C 	0.2907	0.1036	0.7308	-0.294
Mof_C 	C 	0.2097	0.3143	0.7178	0.345
Mof_C 	C 	0.4933	0.8479	0.7406	0.312
Mof_C 	C 	0.4476	0.7702	0.7446	-0.28
Mof_C 	C 	0.5082	0.7067	0.7361	0.16
Mof_C 	C 	0.6141	0.7215	0.7251	-0.177
Mof_C 	C 	0.66	0.7992	0.7218	0.149
Mof_C 	C 	0.597	0.8641	0.7299	-0.275
Mof_C 	C 	0.6803	0.6536	0.7157	0.324
Mof_C 	C 	0.7086	0.2397	0.9399	0.386
Mof_C 	C 	0.1237	0.8411	0.6717	0.326
Mof_C 	C 	0.032	0.7965	0.6629	-0.308
Mof_C 	C 	0.0215	0.7166	0.671	0.181
Mof_C 	C 	0.1028	0.6815	0.6889	-0.207
Mof_C 	C 	0.1965	0.7309	0.6964	0.178
Mof_C 	C 	0.2069	0.8114	0.6879	-0.305
Mof_C 	C 	0.0891	0.5974	0.6973	0.366
Mof_C 	C 	0.1488	0.1051	0.6411	0.363
Mof_C 	C 	0.171	0.0665	0.6146	-0.348
Mof_C 	C 	0.1986	0.1106	0.5888	0.216
Mof_C 	C 	0.1904	0.194	0.5887	-0.241
Mof_C 	C 	0.1668	0.229	0.6156	0.224
Mof_C 	C 	0.1464	0.1862	0.6427	-0.349
Mof_C 	C 	0.751	0.8658	0.63903	0.318
Mof_C 	C 	0.7405	0.9072	0.61156	-0.29
Mof_C 	C 	0.7323	0.8659	0.58381	0.177
Mof_C 	C 	0.7346	0.7832	0.58353	-0.212
Mof_C 	C 	0.7451	0.7418	0.611	0.179
Mof_C 	C 	0.7533	0.7831	0.63875	-0.297
Mof_C 	C 	0.7301	0.7415	0.5539	0.394
Mof_C 	C 	0.7703	0.1271	0.671	0.329
Mof_C 	C 	0.8639	0.1728	0.6638	-0.32
Mof_C 	C 	0.8753	0.251	0.6728	0.198
Mof_C 	C 	0.7872	0.2834	0.6885	-0.219
Mof_C 	C 	0.697	0.2385	0.6951	0.205
Mof_C 	C 	0.6858	0.1582	0.688	-0.308
Mof_C 	C 	0.7926	0.3703	0.6956	0.344
Mof_C 	C 	0.8984	0.1156	0.7594	0.321
Mof_C 	C 	0.9458	0.193	0.756	-0.281
Mof_C 	C 	0.8842	0.2575	0.7637	0.163
Mof_C 	C 	0.7762	0.2452	0.7742	-0.192
Mof_C 	C 	0.731	0.1681	0.7765	0.175
Mof_C 	C 	0.7907	0.1036	0.7692	-0.293
Mof_C 	C 	0.7097	0.3143	0.7822	0.344
Mof_C 	C 	0.9933	0.8479	0.7594	0.311
Mof_C 	C 	0.9476	0.7702	0.7554	-0.281
Mof_C 	C 	0.0082	0.7067	0.7639	0.161
Mof_C 	C 	0.1141	0.7215	0.7749	-0.177
Mof_C 	C 	0.16	0.7992	0.7782	0.148
Mof_C 	C 	0.097	0.8641	0.7701	-0.274
Mof_C 	C 	0.1803	0.6536	0.7843	0.324
Mof_C 	C 	0.2086	0.2397	0.5601	0.386
Mof_C 	C 	0.3763	0.1589	0.1717	0.326
Mof_C 	C 	0.468	0.2035	0.1629	-0.31
Mof_C 	C 	0.4785	0.2834	0.171	0.181
Mof_C 	C 	0.3972	0.3185	0.1889	-0.207
Mof_C 	C 	0.3035	0.2691	0.1964	0.178
Mof_C 	C 	0.2931	0.1886	0.1879	-0.305
Mof_C 	C 	0.4109	0.4026	0.1973	0.366
Mof_C 	C 	0.3512	0.8949	0.1411	0.363
Mof_C 	C 	0.329	0.9335	0.1146	-0.347
Mof_C 	C 	0.3014	0.8894	0.0888	0.216
Mof_C 	C 	0.3096	0.806	0.0887	-0.241
Mof_C 	C 	0.3332	0.771	0.1156	0.224
Mof_C 	C 	0.3536	0.8138	0.1427	-0.349
Mof_C 	C 	0.749	0.1342	0.13903	0.318
Mof_C 	C 	0.7595	0.0928	0.11156	-0.291
Mof_C 	C 	0.7677	0.1341	0.08381	0.177
Mof_C 	C 	0.7654	0.2168	0.08353	-0.212
Mof_C 	C 	0.7549	0.2582	0.111	0.179
Mof_C 	C 	0.7467	0.2169	0.13875	-0.297
Mof_C 	C 	0.7699	0.2585	0.0539	0.394
Mof_C 	C 	0.7297	0.8729	0.171	0.329
Mof_C 	C 	0.6361	0.8272	0.1638	-0.321
Mof_C 	C 	0.6247	0.749	0.1728	0.198
Mof_C 	C 	0.7128	0.7166	0.1885	-0.219
Mof_C 	C 	0.803	0.7615	0.1951	0.205
Mof_C 	C 	0.8142	0.8418	0.188	-0.308
Mof_C 	C 	0.7074	0.6297	0.1956	0.344
Mof_C 	C 	0.6016	0.8844	0.2594	0.323
Mof_C 	C 	0.5542	0.807	0.256	-0.283
Mof_C 	C 	0.6158	0.7425	0.2637	0.165
Mof_C 	C 	0.7238	0.7548	0.2742	-0.193
Mof_C 	C 	0.769	0.8319	0.2765	0.176
Mof_C 	C 	0.7093	0.8964	0.2692	-0.294
Mof_C 	C 	0.7903	0.6857	0.2822	0.345
Mof_C 	C 	0.5067	0.1521	0.2594	0.312
Mof_C 	C 	0.5524	0.2298	0.2554	-0.28
Mof_C 	C 	0.4918	0.2933	0.2639	0.16
Mof_C 	C 	0.3859	0.2785	0.2749	-0.177
Mof_C 	C 	0.34	0.2008	0.2782	0.149
Mof_C 	C 	0.403	0.1359	0.2701	-0.275
Mof_C 	C 	0.3197	0.3464	0.2843	0.324
Mof_C 	C 	0.2914	0.7603	0.0601	0.386
Mof_N 	N 	0.0547	0.0172	0.3426	-0.19
Mof_N 	N 	0.1659	0.0101	0.2881	-0.183
Mof_N 	N 	0.947	0.0257	0.2882	-0.188
Mof_N 	N 	0.4453	0.9828	0.8426	-0.189
Mof_N 	N 	0.3341	0.9899	0.7881	-0.182
Mof_N 	N 	0.553	0.9743	0.7882	-0.188
Mof_N 	N 	0.9453	0.9828	0.6574	-0.19
Mof_N 	N 	0.8341	0.9899	0.7119	-0.183
Mof_N 	N 	0.053	0.9743	0.7118	-0.188
Mof_N 	N 	0.5547	0.0172	0.1574	-0.189
Mof_N 	N 	0.6659	0.0101	0.2119	-0.182
Mof_N 	N 	0.447	0.0257	0.2118	-0.188
Mof_O 	O 	0.8621	0.0777	0.33801	-0.284
Mof_O 	O 	0.9971	0.4433	0.30377	-0.328
Mof_O 	O 	0.8229	0.4365	0.29419	-0.261
Mof_O 	O 	0.868	0.9353	0.33071	-0.296
Mof_O 	O 	0.2417	0.0971	0.33247	-0.288
Mof_O 	O 	0.2816	0.2222	0.4696	-0.287
Mof_O 	O 	0.2653	0.3311	0.4477	-0.292
Mof_O 	O 	0.244	0.9532	0.33783	-0.289
Mof_O 	O 	0.1081	0.5901	0.30508	-0.29
Mof_O 	O 	0.2865	0.5929	0.29781	-0.274
Mof_O 	O 	0.0355	0.9459	0.2469	-0.297
Mof_O 	O 	0.3894	0.6986	0.21031	-0.299
Mof_O 	O 	0.2455	0.617	0.21851	-0.267
Mof_O 	O 	0.0749	0.0901	0.24688	-0.291
Mof_O 	O 	0.8605	0.4177	0.21518	-0.257
Mof_O 	O 	0.7194	0.3316	0.20884	-0.289
Mof_O 	O 	0.7974	0.6892	0.4405	-0.303
Mof_O 	O 	0.7643	0.7959	0.4642	-0.268
Mof_O 	O 	0.6379	0.9223	0.83801	-0.285
Mof_O 	O 	0.5029	0.5567	0.80377	-0.328
Mof_O 	O 	0.6771	0.5635	0.79419	-0.261
Mof_O 	O 	0.632	0.0647	0.83071	-0.295
Mof_O 	O 	0.2583	0.9029	0.83247	-0.288
Mof_O 	O 	0.2184	0.7778	0.9696	-0.287
Mof_O 	O 	0.2347	0.6689	0.9477	-0.292
Mof_O 	O 	0.256	0.0468	0.83783	-0.29
Mof_O 	O 	0.3919	0.4099	0.80508	-0.29
Mof_O 	O 	0.2135	0.4071	0.79781	-0.274
Mof_O 	O 	0.4645	0.0541	0.7469	-0.299
Mof_O 	O 	0.1106	0.3014	0.71031	-0.3
Mof_O 	O 	0.2545	0.383	0.71851	-0.267
Mof_O 	O 	0.4251	0.9099	0.74688	-0.291
Mof_O 	O 	0.6395	0.5823	0.71518	-0.257
Mof_O 	O 	0.7806	0.6684	0.70884	-0.29
Mof_O 	O 	0.7026	0.3108	0.9405	-0.303
Mof_O 	O 	0.7357	0.2041	0.9642	-0.268
Mof_O 	O 	0.1379	0.9223	0.66199	-0.284
Mof_O 	O 	0.0029	0.5567	0.69623	-0.328
Mof_O 	O 	0.1771	0.5635	0.70581	-0.261
Mof_O 	O 	0.132	0.0647	0.66929	-0.296
Mof_O 	O 	0.7583	0.9029	0.66753	-0.288
Mof_O 	O 	0.7184	0.7778	0.5304	-0.287
Mof_O 	O 	0.7347	0.6689	0.5523	-0.292
Mof_O 	O 	0.756	0.0468	0.66217	-0.289
Mof_O 	O 	0.8919	0.4099	0.69492	-0.29
Mof_O 	O 	0.7135	0.4071	0.70219	-0.274
Mof_O 	O 	0.9645	0.0541	0.7531	-0.297
Mof_O 	O 	0.6106	0.3014	0.78969	-0.299
Mof_O 	O 	0.7545	0.383	0.78149	-0.267
Mof_O 	O 	0.9251	0.9099	0.75312	-0.291
Mof_O 	O 	0.1395	0.5823	0.78482	-0.257
Mof_O 	O 	0.2806	0.6684	0.79116	-0.289
Mof_O 	O 	0.2026	0.3108	0.5595	-0.303
Mof_O 	O 	0.2357	0.2041	0.5358	-0.268
Mof_O 	O 	0.3621	0.0777	0.16199	-0.285
Mof_O 	O 	0.4971	0.4433	0.19623	-0.328
Mof_O 	O 	0.3229	0.4365	0.20581	-0.261
Mof_O 	O 	0.368	0.9353	0.16929	-0.295
Mof_O 	O 	0.7417	0.0971	0.16753	-0.288
Mof_O 	O 	0.7816	0.2222	0.0304	-0.287
Mof_O 	O 	0.7653	0.3311	0.0523	-0.292
Mof_O 	O 	0.744	0.9532	0.16217	-0.29
Mof_O 	O 	0.6081	0.5901	0.19492	-0.29
Mof_O 	O 	0.7865	0.5929	0.20219	-0.274
Mof_O 	O 	0.5355	0.9459	0.2531	-0.299
Mof_O 	O 	0.8894	0.6986	0.28969	-0.3
Mof_O 	O 	0.7455	0.617	0.28149	-0.267
Mof_O 	O 	0.5749	0.0901	0.25312	-0.291
Mof_O 	O 	0.3605	0.4177	0.28482	-0.257
Mof_O 	O 	0.2194	0.3316	0.29116	-0.29
Mof_O 	O 	0.2974	0.6892	0.0595	-0.303
Mof_O 	O 	0.2643	0.7959	0.0358	-0.268
_end
