data_functionalizedCrystal
_audit_creation_method	'EQeq! by Chris Wilmer'
_symmetry_space_group_name_H-M	'P1'
_symmetry_Int_Tables_number	1
_symmetry_cell_setting	triclinic
loop_
_symmetry_equiv_pos_as_xyz
  x,y,z
_cell_length_a	7.9341
_cell_length_b	13.8697
_cell_length_c	7.3361
_cell_angle_alpha	90
_cell_angle_beta	90
_cell_angle_gamma	90
loop_
_atom_site_label
_atom_site_type_symbol
_atom_site_fract_x
_atom_site_fract_y
_atom_site_fract_z
_atom_site_charge
Mof_Co	Co	0.22306	0.33545	0.75887	1.213
Mof_O 	O 	0.1072	0.22871	0.6083	-0.394
Mof_O 	O 	0.9293	0.16391	0.4133	-0.396
Mof_O 	O 	0.3128	0.2126	0.9014	-0.365
Mof_O 	O 	0.5084	0.14626	0.0771	-0.372
Mof_O 	O 	0.1133	0.45227	0.6178	-0.369
Mof_O 	O 	0.1306	0.57152	0.4185	-0.379
Mof_C 	C 	0.9889	0.23298	0.4987	0.477
Mof_H 	H 	0.9406	0.2932	0.4788	-0.107
Mof_C 	C 	0.4452	0.21476	0.9933	0.438
Mof_H 	H 	0.5017	0.2734	0.9994	-0.098
Mof_C 	C 	0.1917	0.50414	0.5073	0.447
Mof_H 	H 	0.3056	0.491	0.4903	-0.095
Mof_Co	Co	0.27694	0.66455	0.25887	1.213
Mof_O 	O 	0.3928	0.77129	0.1083	-0.399
Mof_O 	O 	0.5707	0.83609	0.9133	-0.397
Mof_O 	O 	0.1872	0.7874	0.4014	-0.365
Mof_O 	O 	0.9916	0.85374	0.5771	-0.372
Mof_O 	O 	0.3867	0.54773	0.1178	-0.368
Mof_O 	O 	0.3694	0.42848	0.9185	-0.378
Mof_C 	C 	0.5111	0.76702	0.9987	0.485
Mof_H 	H 	0.5594	0.7068	0.9788	-0.109
Mof_C 	C 	0.0548	0.78524	0.4933	0.435
Mof_H 	H 	0.9983	0.7266	0.4994	-0.095
Mof_C 	C 	0.3083	0.49586	0.0073	0.444
Mof_H 	H 	0.1944	0.509	0.9903	-0.093
Mof_Co	Co	0.77694	0.83545	0.74113	1.213
Mof_O 	O 	0.8928	0.72871	0.8917	-0.395
Mof_O 	O 	0.0707	0.66391	0.0867	-0.396
Mof_O 	O 	0.6872	0.7126	0.5986	-0.366
Mof_O 	O 	0.4916	0.64626	0.4229	-0.375
Mof_O 	O 	0.8867	0.95227	0.8822	-0.365
Mof_O 	O 	0.8694	0.07152	0.0815	-0.374
Mof_C 	C 	0.0111	0.73298	0.0013	0.478
Mof_H 	H 	0.0594	0.7932	0.0212	-0.108
Mof_C 	C 	0.5548	0.71476	0.5067	0.441
Mof_H 	H 	0.4983	0.7734	0.5006	-0.098
Mof_C 	C 	0.8083	0.00414	0.9927	0.435
Mof_H 	H 	0.6944	0.991	0.0097	-0.092
Mof_Co	Co	0.72306	0.16455	0.24113	1.213
Mof_O 	O 	0.6072	0.27129	0.3917	-0.397
Mof_O 	O 	0.4293	0.33609	0.5867	-0.397
Mof_O 	O 	0.8128	0.2874	0.0986	-0.365
Mof_O 	O 	0.0084	0.35374	0.9229	-0.373
Mof_O 	O 	0.6133	0.04773	0.3822	-0.367
Mof_O 	O 	0.6306	0.92848	0.5815	-0.378
Mof_C 	C 	0.4889	0.26702	0.5013	0.482
Mof_H 	H 	0.4406	0.2068	0.5212	-0.108
Mof_C 	C 	0.9452	0.28524	0.0067	0.438
Mof_H 	H 	0.0017	0.2266	0.0006	-0.096
Mof_C 	C 	0.6917	0.99586	0.4927	0.444
Mof_H 	H 	0.8056	0.009	0.5097	-0.095
_end
