# CIF file generated by openbabel 3.1.0, see https://openbabel.org
data_I
_chemical_name_common 'image0'
_cell_length_a 10.632
_cell_length_b 13.862
_cell_length_c 19.498
_cell_angle_alpha 90
_cell_angle_beta 99.98
_cell_angle_gamma 90
_space_group_name_H-M_alt 'P 1'
_space_group_name_Hall 'P 1'
loop_
    _symmetry_equiv_pos_as_xyz
    x,y,z
loop_
    _atom_site_label
    _atom_site_type_symbol
    _atom_site_fract_x
    _atom_site_fract_y
    _atom_site_fract_z
    _atom_site_occupancy
    O1       O        0.78400    0.42360    0.87866    1.000
    Er1      Er       0.15502    0.06708    0.55591    1.000
    Cu1      Cu       0.75657    0.06790    0.78942    1.000
    N1       N        0.87100    0.17980    0.77960    1.000
    C1       C        0.84890    0.26070    0.81240    1.000
    H1       H        0.78390    0.26050    0.83880    1.000
    O2       O        0.94250    0.50830    0.84891    1.000
    C2       C        0.91710    0.34470    0.80930    1.000
    N2       N        0.35830    0.45530    0.70600    1.000
    O3       O        0.19590    0.43910    0.82397    1.000
    C3       C        0.01810    0.34460    0.77210    1.000
    O4       O        0.10070    0.47610    0.71587    1.000
    C4       C        0.03960    0.26110    0.73750    1.000
    H2       H        0.10490    0.25920    0.71130    1.000
    O5       O        0.28670    0.13290    0.65912    1.000
    C5       C        0.96480    0.18030    0.74130    1.000
    H3       H        0.97960    0.12510    0.71670    1.000
    C6       C        0.87960    0.43130    0.84750    1.000
    O6       O        0.26990    0.22280    0.56410    1.000
    C7       C        0.11090    0.42770    0.77240    1.000
    O7       O        0.61160    0.15840    0.78135    1.000
    C8       C        0.31500    0.37900    0.66690    1.000
    H4       H        0.23940    0.38570    0.63510    1.000
    O8       O        0.58620    0.15260    0.66500    1.000
    O9       O        0.92030    0.06100    0.51863    1.000
    C9       C        0.37590    0.29150    0.67100    1.000
    O10      O        0.00290    0.19130    0.57095    1.000
    C10      C        0.49080    0.28130    0.71660    1.000
    C11      C        0.53880    0.36060    0.75590    1.000
    H5       H        0.61650    0.35640    0.78610    1.000
    C12      C        0.47050    0.44560    0.75000    1.000
    H6       H        0.50280    0.49810    0.77730    1.000
    C13      C        0.56790    0.18880    0.71910    1.000
    C14      C        0.30860    0.20990    0.62800    1.000
    C15      C        0.77390    0.18620    0.53800    1.000
    H7       H        0.73980    0.20170    0.49040    1.000
    H8       H        0.77790    0.24360    0.56580    1.000
    H9       H        0.71970    0.13970    0.55490    1.000
    C16      C        0.90510    0.14510    0.54240    1.000
    O11      O        0.21600    0.92360    0.62134    1.000
    Er2      Er       0.84498    0.56708    0.94409    1.000
    Cu2      Cu       0.24343    0.56790    0.71058    1.000
    N3       N        0.12900    0.67980    0.72040    1.000
    C17      C        0.15110    0.76070    0.68760    1.000
    H10      H        0.21610    0.76050    0.66120    1.000
    O12      O        0.05750    0.00830    0.65109    1.000
    C18      C        0.08290    0.84470    0.69070    1.000
    N4       N        0.64170    0.95530    0.79400    1.000
    O13      O        0.80410    0.93910    0.67603    1.000
    C19      C        0.98190    0.84460    0.72790    1.000
    O14      O        0.89930    0.97610    0.78413    1.000
    C20      C        0.96040    0.76110    0.76250    1.000
    H11      H        0.89510    0.75920    0.78870    1.000
    O15      O        0.71330    0.63290    0.84088    1.000
    C21      C        0.03520    0.68030    0.75870    1.000
    H12      H        0.02040    0.62510    0.78330    1.000
    C22      C        0.12040    0.93130    0.65250    1.000
    O16      O        0.73010    0.72280    0.93590    1.000
    C23      C        0.88910    0.92770    0.72760    1.000
    O17      O        0.38840    0.65840    0.71865    1.000
    C24      C        0.68500    0.87900    0.83310    1.000
    H13      H        0.76060    0.88570    0.86490    1.000
    O18      O        0.41380    0.65260    0.83500    1.000
    O19      O        0.07970    0.56100    0.98137    1.000
    C25      C        0.62410    0.79150    0.82900    1.000
    O20      O        0.99710    0.69130    0.92905    1.000
    C26      C        0.50920    0.78130    0.78340    1.000
    C27      C        0.46120    0.86060    0.74410    1.000
    H14      H        0.38350    0.85640    0.71390    1.000
    C28      C        0.52950    0.94560    0.75000    1.000
    H15      H        0.49720    0.99810    0.72270    1.000
    C29      C        0.43210    0.68880    0.78090    1.000
    C30      C        0.69140    0.70990    0.87200    1.000
    C31      C        0.22610    0.68620    0.96200    1.000
    H16      H        0.26020    0.70170    0.00960    1.000
    H17      H        0.22210    0.74360    0.93420    1.000
    H18      H        0.28030    0.63970    0.94510    1.000
    C32      C        0.09490    0.64510    0.95760    1.000
    O21      O        0.21600    0.57640    0.12134    1.000
    Er3      Er       0.84498    0.93292    0.44409    1.000
    Cu3      Cu       0.24343    0.93210    0.21058    1.000
    N5       N        0.12900    0.82020    0.22040    1.000
    C33      C        0.15110    0.73930    0.18760    1.000
    H19      H        0.21610    0.73950    0.16120    1.000
    O22      O        0.05750    0.49170    0.15109    1.000
    C34      C        0.08290    0.65530    0.19070    1.000
    N6       N        0.64170    0.54470    0.29400    1.000
    O23      O        0.80410    0.56090    0.17603    1.000
    C35      C        0.98190    0.65540    0.22790    1.000
    O24      O        0.89930    0.52390    0.28413    1.000
    C36      C        0.96040    0.73890    0.26250    1.000
    H20      H        0.89510    0.74080    0.28870    1.000
    O25      O        0.71330    0.86710    0.34088    1.000
    C37      C        0.03520    0.81970    0.25870    1.000
    H21      H        0.02040    0.87490    0.28330    1.000
    C38      C        0.12040    0.56870    0.15250    1.000
    O26      O        0.73010    0.77720    0.43590    1.000
    C39      C        0.88910    0.57230    0.22760    1.000
    O27      O        0.38840    0.84160    0.21865    1.000
    C40      C        0.68500    0.62100    0.33310    1.000
    H22      H        0.76060    0.61430    0.36490    1.000
    O28      O        0.41380    0.84740    0.33500    1.000
    O29      O        0.07970    0.93900    0.48137    1.000
    C41      C        0.62410    0.70850    0.32900    1.000
    O30      O        0.99710    0.80870    0.42905    1.000
    C42      C        0.50920    0.71870    0.28340    1.000
    C43      C        0.46120    0.63940    0.24410    1.000
    H23      H        0.38350    0.64360    0.21390    1.000
    C44      C        0.52950    0.55440    0.25000    1.000
    H24      H        0.49720    0.50190    0.22270    1.000
    C45      C        0.43210    0.81120    0.28090    1.000
    C46      C        0.69140    0.79010    0.37200    1.000
    C47      C        0.22610    0.81380    0.46200    1.000
    H25      H        0.26020    0.79830    0.50960    1.000
    H26      H        0.22210    0.75640    0.43420    1.000
    H27      H        0.28030    0.86030    0.44510    1.000
    C48      C        0.09490    0.85490    0.45760    1.000
    O31      O        0.78400    0.07640    0.37866    1.000
    Er4      Er       0.15502    0.43292    0.05591    1.000
    Cu4      Cu       0.75657    0.43210    0.28942    1.000
    N7       N        0.87100    0.32020    0.27960    1.000
    C49      C        0.84890    0.23930    0.31240    1.000
    H28      H        0.78390    0.23950    0.33880    1.000
    O32      O        0.94250    0.99170    0.34891    1.000
    C50      C        0.91710    0.15530    0.30930    1.000
    N8       N        0.35830    0.04470    0.20600    1.000
    O33      O        0.19590    0.06090    0.32397    1.000
    C51      C        0.01810    0.15540    0.27210    1.000
    O34      O        0.10070    0.02390    0.21587    1.000
    C52      C        0.03960    0.23890    0.23750    1.000
    H29      H        0.10490    0.24080    0.21130    1.000
    O35      O        0.28670    0.36710    0.15912    1.000
    C53      C        0.96480    0.31970    0.24130    1.000
    H30      H        0.97960    0.37490    0.21670    1.000
    C54      C        0.87960    0.06870    0.34750    1.000
    O36      O        0.26990    0.27720    0.06410    1.000
    C55      C        0.11090    0.07230    0.27240    1.000
    O37      O        0.61160    0.34160    0.28135    1.000
    C56      C        0.31500    0.12100    0.16690    1.000
    H31      H        0.23940    0.11430    0.13510    1.000
    O38      O        0.58620    0.34740    0.16500    1.000
    O39      O        0.92030    0.43900    0.01863    1.000
    C57      C        0.37590    0.20850    0.17100    1.000
    O40      O        0.00290    0.30870    0.07095    1.000
    C58      C        0.49080    0.21870    0.21660    1.000
    C59      C        0.53880    0.13940    0.25590    1.000
    H32      H        0.61650    0.14360    0.28610    1.000
    C60      C        0.47050    0.05440    0.25000    1.000
    H33      H        0.50280    0.00190    0.27730    1.000
    C61      C        0.56790    0.31120    0.21910    1.000
    C62      C        0.30860    0.29010    0.12800    1.000
    C63      C        0.77390    0.31380    0.03800    1.000
    H34      H        0.73980    0.29830    0.99040    1.000
    H35      H        0.77790    0.25640    0.06580    1.000
    H36      H        0.71970    0.36030    0.05490    1.000
    C64      C        0.90510    0.35490    0.04240    1.000
