data_functionalizedCrystal
_audit_creation_method	'EQeq! by Chris Wilmer'
_symmetry_space_group_name_H-M	'P1'
_symmetry_Int_Tables_number	1
_symmetry_cell_setting	triclinic
loop_
_symmetry_equiv_pos_as_xyz
  x,y,z
_cell_length_a	21.6819
_cell_length_b	21.6819
_cell_length_c	7.0794
_cell_angle_alpha	90
_cell_angle_beta	90
_cell_angle_gamma	120
loop_
_atom_site_label
_atom_site_type_symbol
_atom_site_fract_x
_atom_site_fract_y
_atom_site_fract_z
_atom_site_charge
Mof_Mn	Mn	0.60964	0.27167	0.14546	0.884
Mof_O 	O 	0.65949	0.2387	0.9591	-0.469
Mof_O 	O 	0.64384	0.2823	0.5949	-0.458
Mof_O 	O 	0.5935	0.20226	0.3786	-0.414
Mof_C 	C 	0.6319	0.1798	0.8707	0.302
Mof_C 	C 	0.6112	0.1649	0.6812	-0.28
Mof_C 	C 	0.5761	0.0958	0.6167	0.083
Mof_C 	C 	0.5634	0.0386	0.714	-0.057
Mof_C 	C 	0.5878	0.0498	0.8971	0.045
Mof_C 	C 	0.6133	0.1144	0.9872	-0.21
Mof_C 	C 	0.6177	0.2191	0.5421	0.452
Mof_H 	H 	0.58266	0.00968	0.96495	0.013
Mof_H 	H 	0.62577	0.11883	0.11707	0.102
Mof_H 	H 	0.56208	0.08548	0.48814	0.012
Mof_Mn	Mn	0.72833	0.33797	0.81213	0.884
Mof_O 	O 	0.7613	0.42079	0.62577	-0.471
Mof_O 	O 	0.7177	0.36154	0.26157	-0.459
Mof_O 	O 	0.79774	0.39124	0.04527	-0.415
Mof_C 	C 	0.8202	0.4521	0.53737	0.302
Mof_C 	C 	0.8351	0.4463	0.34787	-0.282
Mof_C 	C 	0.9042	0.4803	0.28337	0.085
Mof_C 	C 	0.9614	0.5248	0.38067	-0.059
Mof_C 	C 	0.9502	0.538	0.56377	0.047
Mof_C 	C 	0.8856	0.4989	0.65387	-0.214
Mof_C 	C 	0.7809	0.3986	0.20877	0.453
Mof_H 	H 	0.99032	0.57298	0.63162	0.012
Mof_H 	H 	0.88117	0.50694	0.78374	0.104
Mof_H 	H 	0.91452	0.4766	0.15481	0.012
Mof_Mn	Mn	0.66203	0.39036	0.47879	0.884
Mof_O 	O 	0.57921	0.34051	0.29243	-0.471
Mof_O 	O 	0.63846	0.35616	0.92823	-0.459
Mof_O 	O 	0.60876	0.4065	0.71193	-0.415
Mof_C 	C 	0.5479	0.3681	0.20403	0.303
Mof_C 	C 	0.5537	0.3888	0.01453	-0.283
Mof_C 	C 	0.5197	0.4239	0.95003	0.085
Mof_C 	C 	0.4752	0.4366	0.04733	-0.059
Mof_C 	C 	0.462	0.4122	0.23043	0.047
Mof_C 	C 	0.5011	0.3867	0.32053	-0.214
Mof_C 	C 	0.6014	0.3823	0.87543	0.453
Mof_H 	H 	0.42702	0.41734	0.29828	0.012
Mof_H 	H 	0.49306	0.37423	0.4504	0.105
Mof_H 	H 	0.5234	0.43792	0.82147	0.011
Mof_Mn	Mn	0.27167	0.60964	0.85454	0.883
Mof_O 	O 	0.2387	0.65949	0.0409	-0.47
Mof_O 	O 	0.2823	0.64384	0.4051	-0.459
Mof_O 	O 	0.20226	0.5935	0.6214	-0.415
Mof_C 	C 	0.1798	0.6319	0.1293	0.301
Mof_C 	C 	0.1649	0.6112	0.3188	-0.281
Mof_C 	C 	0.0958	0.5761	0.3833	0.083
Mof_C 	C 	0.0386	0.5634	0.286	-0.057
Mof_C 	C 	0.0498	0.5878	0.1029	0.045
Mof_C 	C 	0.1144	0.6133	0.0128	-0.21
Mof_C 	C 	0.2191	0.6177	0.4579	0.452
Mof_H 	H 	0.00968	0.58266	0.03505	0.013
Mof_H 	H 	0.11883	0.62577	0.88293	0.102
Mof_H 	H 	0.08548	0.56208	0.51186	0.012
Mof_Mn	Mn	0.33797	0.72833	0.18787	0.884
Mof_O 	O 	0.42079	0.7613	0.37423	-0.471
Mof_O 	O 	0.36154	0.7177	0.73843	-0.459
Mof_O 	O 	0.39124	0.79774	0.95473	-0.415
Mof_C 	C 	0.4521	0.8202	0.46263	0.302
Mof_C 	C 	0.4463	0.8351	0.65213	-0.282
Mof_C 	C 	0.4803	0.9042	0.71663	0.085
Mof_C 	C 	0.5248	0.9614	0.61933	-0.059
Mof_C 	C 	0.538	0.9502	0.43623	0.047
Mof_C 	C 	0.4989	0.8856	0.34613	-0.214
Mof_C 	C 	0.3986	0.7809	0.79123	0.453
Mof_H 	H 	0.57298	0.99032	0.36838	0.012
Mof_H 	H 	0.50694	0.88117	0.21626	0.104
Mof_H 	H 	0.4766	0.91452	0.84519	0.012
Mof_Mn	Mn	0.39036	0.66203	0.52121	0.884
Mof_O 	O 	0.34051	0.57921	0.70757	-0.471
Mof_O 	O 	0.35616	0.63846	0.07177	-0.459
Mof_O 	O 	0.4065	0.60876	0.28807	-0.415
Mof_C 	C 	0.3681	0.5479	0.79597	0.303
Mof_C 	C 	0.3888	0.5537	0.98547	-0.283
Mof_C 	C 	0.4239	0.5197	0.04997	0.085
Mof_C 	C 	0.4366	0.4752	0.95267	-0.059
Mof_C 	C 	0.4122	0.462	0.76957	0.047
Mof_C 	C 	0.3867	0.5011	0.67947	-0.214
Mof_C 	C 	0.3823	0.6014	0.12457	0.453
Mof_H 	H 	0.41734	0.42702	0.70172	0.012
Mof_H 	H 	0.37423	0.49306	0.5496	0.105
Mof_H 	H 	0.43792	0.5234	0.17853	0.011
_end
