data_functionalizedCrystal
_audit_creation_method	'EQeq! by Chris Wilmer'
_symmetry_space_group_name_H-M	'P1'
_symmetry_Int_Tables_number	1
_symmetry_cell_setting	triclinic
loop_
_symmetry_equiv_pos_as_xyz
  x,y,z
_cell_length_a	35.319
_cell_length_b	18.2332
_cell_length_c	23.452
_cell_angle_alpha	90
_cell_angle_beta	120.172
_cell_angle_gamma	90
loop_
_atom_site_label
_atom_site_type_symbol
_atom_site_fract_x
_atom_site_fract_y
_atom_site_fract_z
_atom_site_charge
Mof_N 	N 	0.5912	0.8505	0.91	-0.179
Mof_N 	N 	0.1104	0.1659	0.6218	-0.118
Mof_O 	O 	0.3554	0.845	0.7563	-0.249
Mof_O 	O 	0.3648	0.9451	0.7141	-0.188
Mof_O 	O 	0.3595	0.881	0.7089	-0.39
Mof_O 	O 	0.78116	0.9107	0.0095	-0.274
Mof_O 	O 	0.72624	0.9504	0.9132	-0.255
Mof_O 	O 	0.68713	0.661	0.0793	-0.288
Mof_O 	O 	0.75564	0.7024	0.12	-0.268
Mof_O 	O 	0.88167	0.0356	0.4537	-0.308
Mof_O 	O 	0.88817	0.1216	0.3924	-0.296
Mof_O 	O 	0.21847	0.9694	0.6452	-0.303
Mof_O 	O 	0.28268	0.0093	0.7227	-0.256
Mof_O 	O 	0.29669	0.2685	0.7897	-0.27
Mof_O 	O 	0.23902	0.3413	0.7531	-0.268
Mof_C 	C 	0.3789	0.8888	0.7547	0.69
Mof_C 	C 	0.4277	0.8771	0.7976	-0.264
Mof_C 	C 	0.4447	0.8168	0.8387	0.152
Mof_H 	H 	0.4242	0.7828	0.8359	0.003
Mof_C 	C 	0.4881	0.8002	0.8835	-0.185
Mof_H 	H 	0.4964	0.7621	0.9139	0.103
Mof_C 	C 	0.5176	0.8458	0.8785	0.094
Mof_C 	C 	0.5039	0.8996	0.8307	-0.187
Mof_H 	H 	0.5243	0.9248	0.8242	0.095
Mof_C 	C 	0.5671	0.8861	0.8827	0.096
Mof_C 	C 	0.4593	0.9161	0.7919	0.154
Mof_H 	H 	0.4507	0.9542	0.7616	-0.01
Mof_C 	C 	0.5658	0.832	0.9208	0.036
Mof_C 	C 	0.7412	0.913	0.9658	0.279
Mof_C 	C 	0.7103	0.8669	0.9768	0.006
Mof_C 	C 	0.7266	0.8127	0.025	-0.05
Mof_H 	H 	0.7566	0.8057	0.0509	0.082
Mof_C 	C 	0.6983	0.7692	0.0345	-0.007
Mof_C 	C 	0.6533	0.7809	0.9975	-0.113
Mof_H 	H 	0.6342	0.7521	0.0044	0.093
Mof_C 	C 	0.637	0.8367	0.9497	0.147
Mof_C 	C 	0.665	0.8778	0.9385	-0.123
Mof_H 	H 	0.654	0.9131	0.9054	0.12
Mof_C 	C 	0.7155	0.707	0.0824	0.295
Mof_C 	C 	0.9033	0.0813	0.4428	0.336
Mof_C 	C 	0.9514	0.0906	0.4931	-0.129
Mof_C 	C 	0.9722	0.0446	0.5451	0.072
Mof_H 	H 	0.9565	0.008	0.5518	0.02
Mof_C 	C 	0.0169	0.052	0.5885	-0.151
Mof_H 	H 	0.0311	0.0188	0.623	0.089
Mof_C 	C 	0.0403	0.1075	0.5811	0.104
Mof_C 	C 	0.0183	0.1546	0.5297	-0.154
Mof_H 	H 	0.0331	0.1944	0.5254	0.096
Mof_C 	C 	0.9748	0.1449	0.4842	0.068
Mof_H 	H 	0.9611	0.1752	0.4473	0.026
Mof_C 	C 	0.088	0.1125	0.6246	-0.018
Mof_C 	C 	0.2431	0.0199	0.6856	0.281
Mof_C 	C 	0.2217	0.0892	0.6878	-0.018
Mof_C 	C 	0.1763	0.0947	0.6552	-0.113
Mof_H 	H 	0.1592	0.0545	0.6323	0.088
Mof_C 	C 	0.1563	0.1596	0.6567	0.127
Mof_C 	C 	0.1822	0.2209	0.6887	-0.112
Mof_H 	H 	0.1691	0.2655	0.6878	0.117
Mof_C 	C 	0.2276	0.2149	0.7219	-0.002
Mof_C 	C 	0.2475	0.1495	0.7213	-0.044
Mof_H 	H 	0.2779	0.146	0.7431	0.082
Mof_C 	C 	0.2564	0.2786	0.7578	0.281
Mof_Cd	Cd	0.2915	0.89689	0.68628	0.548
Mof_Cd	Cd	0.82324	0.95339	0.97106	0.425
Mof_Cd	Cd	0.68266	0.61959	0.17018	0.453
Mof_H 	H 	0.102	0.067	0.65	0.043
Mof_O 	O 	0.3549	0.8743	0.7933	-0.132
Mof_N 	N 	0.0912	0.3505	0.91	-0.178
Mof_N 	N 	0.6104	0.6659	0.6218	-0.117
Mof_O 	O 	0.8554	0.345	0.7563	-0.248
Mof_O 	O 	0.8648	0.4451	0.7141	-0.187
Mof_O 	O 	0.8595	0.381	0.7089	-0.389
Mof_O 	O 	0.28116	0.4107	0.0095	-0.273
Mof_O 	O 	0.22624	0.4504	0.9132	-0.254
Mof_O 	O 	0.18713	0.161	0.0793	-0.287
Mof_O 	O 	0.25564	0.2024	0.12	-0.267
Mof_O 	O 	0.38167	0.5356	0.4537	-0.307
Mof_O 	O 	0.38817	0.6216	0.3924	-0.295
Mof_O 	O 	0.71847	0.4694	0.6452	-0.302
Mof_O 	O 	0.78268	0.5093	0.7227	-0.255
Mof_O 	O 	0.79669	0.7685	0.7897	-0.269
Mof_O 	O 	0.73902	0.8413	0.7531	-0.267
Mof_C 	C 	0.8789	0.3888	0.7547	0.691
Mof_C 	C 	0.9277	0.3771	0.7976	-0.263
Mof_C 	C 	0.9447	0.3168	0.8387	0.153
Mof_H 	H 	0.9242	0.2828	0.8359	0.004
Mof_C 	C 	0.9881	0.3002	0.8835	-0.184
Mof_H 	H 	0.9964	0.2621	0.9139	0.104
Mof_C 	C 	0.0176	0.3458	0.8785	0.095
Mof_C 	C 	0.0039	0.3996	0.8307	-0.187
Mof_H 	H 	0.0243	0.4248	0.8242	0.095
Mof_C 	C 	0.0671	0.3861	0.8827	0.096
Mof_C 	C 	0.9593	0.4161	0.7919	0.154
Mof_H 	H 	0.9507	0.4542	0.7616	-0.01
Mof_C 	C 	0.0658	0.332	0.9208	0.036
Mof_C 	C 	0.2412	0.413	0.9658	0.28
Mof_C 	C 	0.2103	0.3669	0.9768	0.006
Mof_C 	C 	0.2266	0.3127	0.025	-0.05
Mof_H 	H 	0.2566	0.3057	0.0509	0.082
Mof_C 	C 	0.1983	0.2692	0.0345	-0.007
Mof_C 	C 	0.1533	0.2809	0.9975	-0.112
Mof_H 	H 	0.1342	0.2521	0.0044	0.092
Mof_C 	C 	0.137	0.3367	0.9497	0.147
Mof_C 	C 	0.165	0.3778	0.9385	-0.122
Mof_H 	H 	0.154	0.4131	0.9054	0.12
Mof_C 	C 	0.2155	0.207	0.0824	0.295
Mof_C 	C 	0.4033	0.5813	0.4428	0.336
Mof_C 	C 	0.4514	0.5906	0.4931	-0.129
Mof_C 	C 	0.4722	0.5446	0.5451	0.072
Mof_H 	H 	0.4565	0.508	0.5518	0.02
Mof_C 	C 	0.5169	0.552	0.5885	-0.151
Mof_H 	H 	0.5311	0.5188	0.623	0.089
Mof_C 	C 	0.5403	0.6075	0.5811	0.104
Mof_C 	C 	0.5183	0.6546	0.5297	-0.154
Mof_H 	H 	0.5331	0.6944	0.5254	0.096
Mof_C 	C 	0.4748	0.6449	0.4842	0.068
Mof_H 	H 	0.4611	0.6752	0.4473	0.026
Mof_C 	C 	0.588	0.6125	0.6246	-0.018
Mof_C 	C 	0.7431	0.5199	0.6856	0.281
Mof_C 	C 	0.7217	0.5892	0.6878	-0.018
Mof_C 	C 	0.6763	0.5947	0.6552	-0.113
Mof_H 	H 	0.6592	0.5545	0.6323	0.088
Mof_C 	C 	0.6563	0.6596	0.6567	0.127
Mof_C 	C 	0.6822	0.7209	0.6887	-0.112
Mof_H 	H 	0.6691	0.7655	0.6878	0.117
Mof_C 	C 	0.7276	0.7149	0.7219	-0.002
Mof_C 	C 	0.7475	0.6495	0.7213	-0.044
Mof_H 	H 	0.7779	0.646	0.7431	0.082
Mof_C 	C 	0.7564	0.7786	0.7578	0.281
Mof_Cd	Cd	0.7915	0.39689	0.68628	0.548
Mof_Cd	Cd	0.32324	0.45339	0.97106	0.425
Mof_Cd	Cd	0.18266	0.11959	0.17018	0.453
Mof_H 	H 	0.602	0.567	0.65	0.043
Mof_O 	O 	0.8549	0.3743	0.7933	-0.132
Mof_N 	N 	0.4088	0.8505	0.59	-0.178
Mof_N 	N 	0.8896	0.1659	0.8782	-0.117
Mof_O 	O 	0.6446	0.845	0.7437	-0.248
Mof_O 	O 	0.6352	0.9451	0.7859	-0.187
Mof_O 	O 	0.6405	0.881	0.7911	-0.389
Mof_O 	O 	0.21884	0.9107	0.4905	-0.273
Mof_O 	O 	0.27376	0.9504	0.5868	-0.254
Mof_O 	O 	0.31287	0.661	0.4207	-0.287
Mof_O 	O 	0.24436	0.7024	0.38	-0.267
Mof_O 	O 	0.11833	0.0356	0.0463	-0.307
Mof_O 	O 	0.11183	0.1216	0.1076	-0.295
Mof_O 	O 	0.78153	0.9694	0.8548	-0.302
Mof_O 	O 	0.71732	0.0093	0.7773	-0.255
Mof_O 	O 	0.70331	0.2685	0.7103	-0.269
Mof_O 	O 	0.76098	0.3413	0.7469	-0.267
Mof_C 	C 	0.6211	0.8888	0.7453	0.691
Mof_C 	C 	0.5723	0.8771	0.7024	-0.263
Mof_C 	C 	0.5553	0.8168	0.6613	0.153
Mof_H 	H 	0.5758	0.7828	0.6641	0.004
Mof_C 	C 	0.5119	0.8002	0.6165	-0.184
Mof_H 	H 	0.5036	0.7621	0.5861	0.104
Mof_C 	C 	0.4824	0.8458	0.6215	0.095
Mof_C 	C 	0.4961	0.8996	0.6693	-0.187
Mof_H 	H 	0.4757	0.9248	0.6758	0.095
Mof_C 	C 	0.4329	0.8861	0.6173	0.096
Mof_C 	C 	0.5407	0.9161	0.7081	0.154
Mof_H 	H 	0.5493	0.9542	0.7384	-0.01
Mof_C 	C 	0.4342	0.832	0.5792	0.036
Mof_C 	C 	0.2588	0.913	0.5342	0.28
Mof_C 	C 	0.2897	0.8669	0.5232	0.006
Mof_C 	C 	0.2734	0.8127	0.475	-0.05
Mof_H 	H 	0.2434	0.8057	0.4491	0.082
Mof_C 	C 	0.3017	0.7692	0.4655	-0.007
Mof_C 	C 	0.3467	0.7809	0.5025	-0.113
Mof_H 	H 	0.3658	0.7521	0.4956	0.093
Mof_C 	C 	0.363	0.8367	0.5503	0.147
Mof_C 	C 	0.335	0.8778	0.5615	-0.123
Mof_H 	H 	0.346	0.9131	0.5946	0.12
Mof_C 	C 	0.2845	0.707	0.4176	0.295
Mof_C 	C 	0.0967	0.0813	0.0572	0.337
Mof_C 	C 	0.0486	0.0906	0.0069	-0.129
Mof_C 	C 	0.0278	0.0446	0.9549	0.073
Mof_H 	H 	0.0435	0.008	0.9482	0.02
Mof_C 	C 	0.9831	0.052	0.9115	-0.151
Mof_H 	H 	0.9689	0.0188	0.877	0.09
Mof_C 	C 	0.9597	0.1075	0.9189	0.104
Mof_C 	C 	0.9817	0.1546	0.9703	-0.154
Mof_H 	H 	0.9669	0.1944	0.9746	0.096
Mof_C 	C 	0.0252	0.1449	0.0158	0.068
Mof_H 	H 	0.0389	0.1752	0.0527	0.026
Mof_C 	C 	0.912	0.1125	0.8754	-0.018
Mof_C 	C 	0.7569	0.0199	0.8144	0.281
Mof_C 	C 	0.7783	0.0892	0.8122	-0.018
Mof_C 	C 	0.8237	0.0947	0.8448	-0.113
Mof_H 	H 	0.8408	0.0545	0.8677	0.088
Mof_C 	C 	0.8437	0.1596	0.8433	0.127
Mof_C 	C 	0.8178	0.2209	0.8113	-0.112
Mof_H 	H 	0.8309	0.2655	0.8122	0.117
Mof_C 	C 	0.7724	0.2149	0.7781	-0.002
Mof_C 	C 	0.7525	0.1495	0.7787	-0.044
Mof_H 	H 	0.7221	0.146	0.7569	0.082
Mof_C 	C 	0.7436	0.2786	0.7422	0.281
Mof_Cd	Cd	0.7085	0.89689	0.81372	0.548
Mof_Cd	Cd	0.17676	0.95339	0.52894	0.425
Mof_Cd	Cd	0.31734	0.61959	0.32982	0.453
Mof_H 	H 	0.898	0.067	0.85	0.043
Mof_O 	O 	0.6451	0.8743	0.7067	-0.132
Mof_N 	N 	0.9088	0.3505	0.59	-0.178
Mof_N 	N 	0.3896	0.6659	0.8782	-0.117
Mof_O 	O 	0.1446	0.345	0.7437	-0.248
Mof_O 	O 	0.1352	0.4451	0.7859	-0.187
Mof_O 	O 	0.1405	0.381	0.7911	-0.389
Mof_O 	O 	0.71884	0.4107	0.4905	-0.273
Mof_O 	O 	0.77376	0.4504	0.5868	-0.254
Mof_O 	O 	0.81287	0.161	0.4207	-0.287
Mof_O 	O 	0.74436	0.2024	0.38	-0.267
Mof_O 	O 	0.61833	0.5356	0.0463	-0.307
Mof_O 	O 	0.61183	0.6216	0.1076	-0.295
Mof_O 	O 	0.28153	0.4694	0.8548	-0.302
Mof_O 	O 	0.21732	0.5093	0.7773	-0.255
Mof_O 	O 	0.20331	0.7685	0.7103	-0.269
Mof_O 	O 	0.26098	0.8413	0.7469	-0.267
Mof_C 	C 	0.1211	0.3888	0.7453	0.691
Mof_C 	C 	0.0723	0.3771	0.7024	-0.263
Mof_C 	C 	0.0553	0.3168	0.6613	0.153
Mof_H 	H 	0.0758	0.2828	0.6641	0.004
Mof_C 	C 	0.0119	0.3002	0.6165	-0.184
Mof_H 	H 	0.0036	0.2621	0.5861	0.104
Mof_C 	C 	0.9824	0.3458	0.6215	0.095
Mof_C 	C 	0.9961	0.3996	0.6693	-0.187
Mof_H 	H 	0.9757	0.4248	0.6758	0.095
Mof_C 	C 	0.9329	0.3861	0.6173	0.096
Mof_C 	C 	0.0407	0.4161	0.7081	0.154
Mof_H 	H 	0.0493	0.4542	0.7384	-0.01
Mof_C 	C 	0.9342	0.332	0.5792	0.036
Mof_C 	C 	0.7588	0.413	0.5342	0.28
Mof_C 	C 	0.7897	0.3669	0.5232	0.006
Mof_C 	C 	0.7734	0.3127	0.475	-0.05
Mof_H 	H 	0.7434	0.3057	0.4491	0.082
Mof_C 	C 	0.8017	0.2692	0.4655	-0.007
Mof_C 	C 	0.8467	0.2809	0.5025	-0.113
Mof_H 	H 	0.8658	0.2521	0.4956	0.093
Mof_C 	C 	0.863	0.3367	0.5503	0.147
Mof_C 	C 	0.835	0.3778	0.5615	-0.123
Mof_H 	H 	0.846	0.4131	0.5946	0.12
Mof_C 	C 	0.7845	0.207	0.4176	0.295
Mof_C 	C 	0.5967	0.5813	0.0572	0.337
Mof_C 	C 	0.5486	0.5906	0.0069	-0.129
Mof_C 	C 	0.5278	0.5446	0.9549	0.072
Mof_H 	H 	0.5435	0.508	0.9482	0.02
Mof_C 	C 	0.4831	0.552	0.9115	-0.151
Mof_H 	H 	0.4689	0.5188	0.877	0.089
Mof_C 	C 	0.4597	0.6075	0.9189	0.104
Mof_C 	C 	0.4817	0.6546	0.9703	-0.155
Mof_H 	H 	0.4669	0.6944	0.9746	0.096
Mof_C 	C 	0.5252	0.6449	0.0158	0.068
Mof_H 	H 	0.5389	0.6752	0.0527	0.026
Mof_C 	C 	0.412	0.6125	0.8754	-0.018
Mof_C 	C 	0.2569	0.5199	0.8144	0.281
Mof_C 	C 	0.2783	0.5892	0.8122	-0.018
Mof_C 	C 	0.3237	0.5947	0.8448	-0.113
Mof_H 	H 	0.3408	0.5545	0.8677	0.088
Mof_C 	C 	0.3437	0.6596	0.8433	0.127
Mof_C 	C 	0.3178	0.7209	0.8113	-0.112
Mof_H 	H 	0.3309	0.7655	0.8122	0.117
Mof_C 	C 	0.2724	0.7149	0.7781	-0.002
Mof_C 	C 	0.2525	0.6495	0.7787	-0.044
Mof_H 	H 	0.2221	0.646	0.7569	0.082
Mof_C 	C 	0.2436	0.7786	0.7422	0.281
Mof_Cd	Cd	0.2085	0.39689	0.81372	0.548
Mof_Cd	Cd	0.67676	0.45339	0.52894	0.425
Mof_Cd	Cd	0.81734	0.11959	0.32982	0.453
Mof_H 	H 	0.398	0.567	0.85	0.043
Mof_O 	O 	0.1451	0.3743	0.7067	-0.132
Mof_N 	N 	0.4088	0.1495	0.09	-0.178
Mof_N 	N 	0.8896	0.8341	0.3782	-0.117
Mof_O 	O 	0.6446	0.155	0.2437	-0.248
Mof_O 	O 	0.6352	0.0549	0.2859	-0.187
Mof_O 	O 	0.6405	0.119	0.2911	-0.389
Mof_O 	O 	0.21884	0.0893	0.9905	-0.273
Mof_O 	O 	0.27376	0.0496	0.0868	-0.254
Mof_O 	O 	0.31287	0.339	0.9207	-0.287
Mof_O 	O 	0.24436	0.2976	0.88	-0.267
Mof_O 	O 	0.11833	0.9644	0.5463	-0.307
Mof_O 	O 	0.11183	0.8784	0.6076	-0.295
Mof_O 	O 	0.78153	0.0306	0.3548	-0.302
Mof_O 	O 	0.71732	0.9907	0.2773	-0.255
Mof_O 	O 	0.70331	0.7315	0.2103	-0.269
Mof_O 	O 	0.76098	0.6587	0.2469	-0.267
Mof_C 	C 	0.6211	0.1112	0.2453	0.691
Mof_C 	C 	0.5723	0.1229	0.2024	-0.263
Mof_C 	C 	0.5553	0.1832	0.1613	0.153
Mof_H 	H 	0.5758	0.2172	0.1641	0.004
Mof_C 	C 	0.5119	0.1998	0.1165	-0.184
Mof_H 	H 	0.5036	0.2379	0.0861	0.104
Mof_C 	C 	0.4824	0.1542	0.1215	0.095
Mof_C 	C 	0.4961	0.1004	0.1693	-0.187
Mof_H 	H 	0.4757	0.0752	0.1758	0.095
Mof_C 	C 	0.4329	0.1139	0.1173	0.096
Mof_C 	C 	0.5407	0.0839	0.2081	0.154
Mof_H 	H 	0.5493	0.0458	0.2384	-0.01
Mof_C 	C 	0.4342	0.168	0.0792	0.036
Mof_C 	C 	0.2588	0.087	0.0342	0.279
Mof_C 	C 	0.2897	0.1331	0.0232	0.006
Mof_C 	C 	0.2734	0.1873	0.975	-0.05
Mof_H 	H 	0.2434	0.1943	0.9491	0.082
Mof_C 	C 	0.3017	0.2308	0.9655	-0.007
Mof_C 	C 	0.3467	0.2191	0.0025	-0.113
Mof_H 	H 	0.3658	0.2479	0.9956	0.093
Mof_C 	C 	0.363	0.1633	0.0503	0.147
Mof_C 	C 	0.335	0.1222	0.0615	-0.123
Mof_H 	H 	0.346	0.0869	0.0946	0.12
Mof_C 	C 	0.2845	0.293	0.9176	0.295
Mof_C 	C 	0.0967	0.9187	0.5572	0.336
Mof_C 	C 	0.0486	0.9094	0.5069	-0.129
Mof_C 	C 	0.0278	0.9554	0.4549	0.072
Mof_H 	H 	0.0435	0.992	0.4482	0.02
Mof_C 	C 	0.9831	0.948	0.4115	-0.151
Mof_H 	H 	0.9689	0.9812	0.377	0.089
Mof_C 	C 	0.9597	0.8925	0.4189	0.104
Mof_C 	C 	0.9817	0.8454	0.4703	-0.154
Mof_H 	H 	0.9669	0.8056	0.4746	0.096
Mof_C 	C 	0.0252	0.8551	0.5158	0.068
Mof_H 	H 	0.0389	0.8248	0.5527	0.026
Mof_C 	C 	0.912	0.8875	0.3754	-0.018
Mof_C 	C 	0.7569	0.9801	0.3144	0.281
Mof_C 	C 	0.7783	0.9108	0.3122	-0.018
Mof_C 	C 	0.8237	0.9053	0.3448	-0.113
Mof_H 	H 	0.8408	0.9455	0.3677	0.088
Mof_C 	C 	0.8437	0.8404	0.3433	0.127
Mof_C 	C 	0.8178	0.7791	0.3113	-0.112
Mof_H 	H 	0.8309	0.7345	0.3122	0.117
Mof_C 	C 	0.7724	0.7851	0.2781	-0.002
Mof_C 	C 	0.7525	0.8505	0.2787	-0.044
Mof_H 	H 	0.7221	0.854	0.2569	0.082
Mof_C 	C 	0.7436	0.7214	0.2422	0.281
Mof_Cd	Cd	0.7085	0.10311	0.31372	0.548
Mof_Cd	Cd	0.17676	0.04661	0.02894	0.425
Mof_Cd	Cd	0.31734	0.38041	0.82982	0.453
Mof_H 	H 	0.898	0.933	0.35	0.043
Mof_O 	O 	0.6451	0.1257	0.2067	-0.132
Mof_N 	N 	0.9088	0.6495	0.09	-0.178
Mof_N 	N 	0.3896	0.3341	0.3782	-0.117
Mof_O 	O 	0.1446	0.655	0.2437	-0.248
Mof_O 	O 	0.1352	0.5549	0.2859	-0.187
Mof_O 	O 	0.1405	0.619	0.2911	-0.389
Mof_O 	O 	0.71884	0.5893	0.9905	-0.273
Mof_O 	O 	0.77376	0.5496	0.0868	-0.254
Mof_O 	O 	0.81287	0.839	0.9207	-0.287
Mof_O 	O 	0.74436	0.7976	0.88	-0.267
Mof_O 	O 	0.61833	0.4644	0.5463	-0.307
Mof_O 	O 	0.61183	0.3784	0.6076	-0.295
Mof_O 	O 	0.28153	0.5306	0.3548	-0.302
Mof_O 	O 	0.21732	0.4907	0.2773	-0.255
Mof_O 	O 	0.20331	0.2315	0.2103	-0.269
Mof_O 	O 	0.26098	0.1587	0.2469	-0.267
Mof_C 	C 	0.1211	0.6112	0.2453	0.691
Mof_C 	C 	0.0723	0.6229	0.2024	-0.263
Mof_C 	C 	0.0553	0.6832	0.1613	0.153
Mof_H 	H 	0.0758	0.7172	0.1641	0.004
Mof_C 	C 	0.0119	0.6998	0.1165	-0.184
Mof_H 	H 	0.0036	0.7379	0.0861	0.104
Mof_C 	C 	0.9824	0.6542	0.1215	0.095
Mof_C 	C 	0.9961	0.6004	0.1693	-0.187
Mof_H 	H 	0.9757	0.5752	0.1758	0.095
Mof_C 	C 	0.9329	0.6139	0.1173	0.096
Mof_C 	C 	0.0407	0.5839	0.2081	0.154
Mof_H 	H 	0.0493	0.5458	0.2384	-0.01
Mof_C 	C 	0.9342	0.668	0.0792	0.036
Mof_C 	C 	0.7588	0.587	0.0342	0.28
Mof_C 	C 	0.7897	0.6331	0.0232	0.006
Mof_C 	C 	0.7734	0.6873	0.975	-0.05
Mof_H 	H 	0.7434	0.6943	0.9491	0.082
Mof_C 	C 	0.8017	0.7308	0.9655	-0.007
Mof_C 	C 	0.8467	0.7191	0.0025	-0.112
Mof_H 	H 	0.8658	0.7479	0.9956	0.092
Mof_C 	C 	0.863	0.6633	0.0503	0.147
Mof_C 	C 	0.835	0.6222	0.0615	-0.122
Mof_H 	H 	0.846	0.5869	0.0946	0.12
Mof_C 	C 	0.7845	0.793	0.9176	0.295
Mof_C 	C 	0.5967	0.4187	0.5572	0.336
Mof_C 	C 	0.5486	0.4094	0.5069	-0.129
Mof_C 	C 	0.5278	0.4554	0.4549	0.072
Mof_H 	H 	0.5435	0.492	0.4482	0.02
Mof_C 	C 	0.4831	0.448	0.4115	-0.151
Mof_H 	H 	0.4689	0.4812	0.377	0.089
Mof_C 	C 	0.4597	0.3925	0.4189	0.104
Mof_C 	C 	0.4817	0.3454	0.4703	-0.154
Mof_H 	H 	0.4669	0.3056	0.4746	0.096
Mof_C 	C 	0.5252	0.3551	0.5158	0.068
Mof_H 	H 	0.5389	0.3248	0.5527	0.026
Mof_C 	C 	0.412	0.3875	0.3754	-0.018
Mof_C 	C 	0.2569	0.4801	0.3144	0.281
Mof_C 	C 	0.2783	0.4108	0.3122	-0.018
Mof_C 	C 	0.3237	0.4053	0.3448	-0.113
Mof_H 	H 	0.3408	0.4455	0.3677	0.088
Mof_C 	C 	0.3437	0.3404	0.3433	0.127
Mof_C 	C 	0.3178	0.2791	0.3113	-0.112
Mof_H 	H 	0.3309	0.2345	0.3122	0.117
Mof_C 	C 	0.2724	0.2851	0.2781	-0.002
Mof_C 	C 	0.2525	0.3505	0.2787	-0.044
Mof_H 	H 	0.2221	0.354	0.2569	0.082
Mof_C 	C 	0.2436	0.2214	0.2422	0.281
Mof_Cd	Cd	0.2085	0.60311	0.31372	0.548
Mof_Cd	Cd	0.67676	0.54661	0.02894	0.425
Mof_Cd	Cd	0.81734	0.88041	0.82982	0.453
Mof_H 	H 	0.398	0.433	0.35	0.043
Mof_O 	O 	0.1451	0.6257	0.2067	-0.132
Mof_N 	N 	0.5912	0.1495	0.41	-0.178
Mof_N 	N 	0.1104	0.8341	0.1218	-0.117
Mof_O 	O 	0.3554	0.155	0.2563	-0.248
Mof_O 	O 	0.3648	0.0549	0.2141	-0.187
Mof_O 	O 	0.3595	0.119	0.2089	-0.389
Mof_O 	O 	0.78116	0.0893	0.5095	-0.273
Mof_O 	O 	0.72624	0.0496	0.4132	-0.254
Mof_O 	O 	0.68713	0.339	0.5793	-0.287
Mof_O 	O 	0.75564	0.2976	0.62	-0.267
Mof_O 	O 	0.88167	0.9644	0.9537	-0.307
Mof_O 	O 	0.88817	0.8784	0.8924	-0.295
Mof_O 	O 	0.21847	0.0306	0.1452	-0.302
Mof_O 	O 	0.28268	0.9907	0.2227	-0.255
Mof_O 	O 	0.29669	0.7315	0.2897	-0.269
Mof_O 	O 	0.23902	0.6587	0.2531	-0.267
Mof_C 	C 	0.3789	0.1112	0.2547	0.691
Mof_C 	C 	0.4277	0.1229	0.2976	-0.263
Mof_C 	C 	0.4447	0.1832	0.3387	0.153
Mof_H 	H 	0.4242	0.2172	0.3359	0.004
Mof_C 	C 	0.4881	0.1998	0.3835	-0.184
Mof_H 	H 	0.4964	0.2379	0.4139	0.104
Mof_C 	C 	0.5176	0.1542	0.3785	0.095
Mof_C 	C 	0.5039	0.1004	0.3307	-0.187
Mof_H 	H 	0.5243	0.0752	0.3242	0.095
Mof_C 	C 	0.5671	0.1139	0.3827	0.096
Mof_C 	C 	0.4593	0.0839	0.2919	0.154
Mof_H 	H 	0.4507	0.0458	0.2616	-0.01
Mof_C 	C 	0.5658	0.168	0.4208	0.036
Mof_C 	C 	0.7412	0.087	0.4658	0.28
Mof_C 	C 	0.7103	0.1331	0.4768	0.006
Mof_C 	C 	0.7266	0.1873	0.525	-0.05
Mof_H 	H 	0.7566	0.1943	0.5509	0.082
Mof_C 	C 	0.6983	0.2308	0.5345	-0.007
Mof_C 	C 	0.6533	0.2191	0.4975	-0.113
Mof_H 	H 	0.6342	0.2479	0.5044	0.093
Mof_C 	C 	0.637	0.1633	0.4497	0.147
Mof_C 	C 	0.665	0.1222	0.4385	-0.123
Mof_H 	H 	0.654	0.0869	0.4054	0.12
Mof_C 	C 	0.7155	0.293	0.5824	0.295
Mof_C 	C 	0.9033	0.9187	0.9428	0.337
Mof_C 	C 	0.9514	0.9094	0.9931	-0.129
Mof_C 	C 	0.9722	0.9554	0.0451	0.073
Mof_H 	H 	0.9565	0.992	0.0518	0.02
Mof_C 	C 	0.0169	0.948	0.0885	-0.151
Mof_H 	H 	0.0311	0.9812	0.123	0.09
Mof_C 	C 	0.0403	0.8925	0.0811	0.104
Mof_C 	C 	0.0183	0.8454	0.0297	-0.154
Mof_H 	H 	0.0331	0.8056	0.0254	0.096
Mof_C 	C 	0.9748	0.8551	0.9842	0.068
Mof_H 	H 	0.9611	0.8248	0.9473	0.026
Mof_C 	C 	0.088	0.8875	0.1246	-0.018
Mof_C 	C 	0.2431	0.9801	0.1856	0.281
Mof_C 	C 	0.2217	0.9108	0.1878	-0.018
Mof_C 	C 	0.1763	0.9053	0.1552	-0.113
Mof_H 	H 	0.1592	0.9455	0.1323	0.088
Mof_C 	C 	0.1563	0.8404	0.1567	0.127
Mof_C 	C 	0.1822	0.7791	0.1887	-0.112
Mof_H 	H 	0.1691	0.7345	0.1878	0.117
Mof_C 	C 	0.2276	0.7851	0.2219	-0.002
Mof_C 	C 	0.2475	0.8505	0.2213	-0.044
Mof_H 	H 	0.2779	0.854	0.2431	0.082
Mof_C 	C 	0.2564	0.7214	0.2578	0.281
Mof_Cd	Cd	0.2915	0.10311	0.18628	0.548
Mof_Cd	Cd	0.82324	0.04661	0.47106	0.425
Mof_Cd	Cd	0.68266	0.38041	0.67018	0.453
Mof_H 	H 	0.102	0.933	0.15	0.043
Mof_O 	O 	0.3549	0.1257	0.2933	-0.132
Mof_N 	N 	0.0912	0.6495	0.41	-0.178
Mof_N 	N 	0.6104	0.3341	0.1218	-0.117
Mof_O 	O 	0.8554	0.655	0.2563	-0.248
Mof_O 	O 	0.8648	0.5549	0.2141	-0.187
Mof_O 	O 	0.8595	0.619	0.2089	-0.389
Mof_O 	O 	0.28116	0.5893	0.5095	-0.273
Mof_O 	O 	0.22624	0.5496	0.4132	-0.254
Mof_O 	O 	0.18713	0.839	0.5793	-0.287
Mof_O 	O 	0.25564	0.7976	0.62	-0.267
Mof_O 	O 	0.38167	0.4644	0.9537	-0.307
Mof_O 	O 	0.38817	0.3784	0.8924	-0.295
Mof_O 	O 	0.71847	0.5306	0.1452	-0.302
Mof_O 	O 	0.78268	0.4907	0.2227	-0.255
Mof_O 	O 	0.79669	0.2315	0.2897	-0.269
Mof_O 	O 	0.73902	0.1587	0.2531	-0.267
Mof_C 	C 	0.8789	0.6112	0.2547	0.691
Mof_C 	C 	0.9277	0.6229	0.2976	-0.263
Mof_C 	C 	0.9447	0.6832	0.3387	0.153
Mof_H 	H 	0.9242	0.7172	0.3359	0.004
Mof_C 	C 	0.9881	0.6998	0.3835	-0.184
Mof_H 	H 	0.9964	0.7379	0.4139	0.104
Mof_C 	C 	0.0176	0.6542	0.3785	0.095
Mof_C 	C 	0.0039	0.6004	0.3307	-0.187
Mof_H 	H 	0.0243	0.5752	0.3242	0.095
Mof_C 	C 	0.0671	0.6139	0.3827	0.096
Mof_C 	C 	0.9593	0.5839	0.2919	0.154
Mof_H 	H 	0.9507	0.5458	0.2616	-0.01
Mof_C 	C 	0.0658	0.668	0.4208	0.036
Mof_C 	C 	0.2412	0.587	0.4658	0.28
Mof_C 	C 	0.2103	0.6331	0.4768	0.006
Mof_C 	C 	0.2266	0.6873	0.525	-0.05
Mof_H 	H 	0.2566	0.6943	0.5509	0.082
Mof_C 	C 	0.1983	0.7308	0.5345	-0.007
Mof_C 	C 	0.1533	0.7191	0.4975	-0.113
Mof_H 	H 	0.1342	0.7479	0.5044	0.093
Mof_C 	C 	0.137	0.6633	0.4497	0.147
Mof_C 	C 	0.165	0.6222	0.4385	-0.123
Mof_H 	H 	0.154	0.5869	0.4054	0.12
Mof_C 	C 	0.2155	0.793	0.5824	0.295
Mof_C 	C 	0.4033	0.4187	0.9428	0.337
Mof_C 	C 	0.4514	0.4094	0.9931	-0.129
Mof_C 	C 	0.4722	0.4554	0.0451	0.072
Mof_H 	H 	0.4565	0.492	0.0518	0.02
Mof_C 	C 	0.5169	0.448	0.0885	-0.151
Mof_H 	H 	0.5311	0.4812	0.123	0.089
Mof_C 	C 	0.5403	0.3925	0.0811	0.104
Mof_C 	C 	0.5183	0.3454	0.0297	-0.155
Mof_H 	H 	0.5331	0.3056	0.0254	0.096
Mof_C 	C 	0.4748	0.3551	0.9842	0.068
Mof_H 	H 	0.4611	0.3248	0.9473	0.026
Mof_C 	C 	0.588	0.3875	0.1246	-0.018
Mof_C 	C 	0.7431	0.4801	0.1856	0.281
Mof_C 	C 	0.7217	0.4108	0.1878	-0.018
Mof_C 	C 	0.6763	0.4053	0.1552	-0.113
Mof_H 	H 	0.6592	0.4455	0.1323	0.088
Mof_C 	C 	0.6563	0.3404	0.1567	0.127
Mof_C 	C 	0.6822	0.2791	0.1887	-0.112
Mof_H 	H 	0.6691	0.2345	0.1878	0.117
Mof_C 	C 	0.7276	0.2851	0.2219	-0.002
Mof_C 	C 	0.7475	0.3505	0.2213	-0.044
Mof_H 	H 	0.7779	0.354	0.2431	0.082
Mof_C 	C 	0.7564	0.2214	0.2578	0.281
Mof_Cd	Cd	0.7915	0.60311	0.18628	0.548
Mof_Cd	Cd	0.32324	0.54661	0.47106	0.425
Mof_Cd	Cd	0.18266	0.88041	0.67018	0.453
Mof_H 	H 	0.602	0.433	0.15	0.043
Mof_O 	O 	0.8549	0.6257	0.2933	-0.132
_end
