data_functionalizedCrystal
_audit_creation_method	'EQeq! by Chris Wilmer'
_symmetry_space_group_name_H-M	'P1'
_symmetry_Int_Tables_number	1
_symmetry_cell_setting	triclinic
loop_
_symmetry_equiv_pos_as_xyz
  x,y,z
_cell_length_a	10.152
_cell_length_b	17.44
_cell_length_c	17.715
_cell_angle_alpha	90
_cell_angle_beta	90
_cell_angle_gamma	90
loop_
_atom_site_label
_atom_site_type_symbol
_atom_site_fract_x
_atom_site_fract_y
_atom_site_fract_z
_atom_site_charge
Mof_Tb	Tb	0.33876	0.47912	0.24096	2.175
Mof_Tb	Tb	0.11769	0.6789	0.22713	2.225
Mof_Tb	Tb	0.66124	0.52088	0.74096	2.171
Mof_Tb	Tb	0.88231	0.3211	0.72713	2.222
Mof_Tb	Tb	0.16124	0.97912	0.24096	2.167
Mof_Tb	Tb	0.38231	0.1789	0.22713	2.227
Mof_Tb	Tb	0.83876	0.02088	0.74096	2.166
Mof_Tb	Tb	0.61769	0.8211	0.72713	2.224
Mof_H 	H 	0.8847	0.6242	0.5459	0.037
Mof_H 	H 	0.9775	0.6406	0.4214	0.019
Mof_H 	H 	0.6383	0.2135	0.9231	0.051
Mof_H 	H 	0.5436	0.2073	0.0498	-0.006
Mof_H 	H 	0.614	0.5488	0.9363	0.022
Mof_H 	H 	0.5181	0.533	0.0616	0.011
Mof_H 	H 	0.1153	0.3758	0.0459	0.032
Mof_H 	H 	0.0225	0.3594	0.9214	0.026
Mof_H 	H 	0.3617	0.7865	0.4231	0.044
Mof_H 	H 	0.4564	0.7927	0.5498	-0.002
Mof_H 	H 	0.386	0.4512	0.4363	0.016
Mof_H 	H 	0.4819	0.467	0.5616	0.015
Mof_H 	H 	0.6153	0.1242	0.5459	0.036
Mof_H 	H 	0.5225	0.1406	0.4214	0.019
Mof_H 	H 	0.8617	0.7135	0.9231	0.05
Mof_H 	H 	0.9564	0.7073	0.0498	-0.004
Mof_H 	H 	0.886	0.0488	0.9363	0.021
Mof_H 	H 	0.9819	0.033	0.0616	0.012
Mof_H 	H 	0.3847	0.8758	0.0459	0.032
Mof_H 	H 	0.4775	0.8594	0.9214	0.025
Mof_H 	H 	0.1383	0.2865	0.4231	0.044
Mof_H 	H 	0.0436	0.2927	0.5498	-0.001
Mof_H 	H 	0.114	0.9512	0.4363	0.013
Mof_H 	H 	0.0181	0.967	0.5616	0.016
Mof_C 	C 	0.9508	0.5161	0.5498	-0.146
Mof_C 	C 	0.9302	0.5857	0.5206	-0.002
Mof_C 	C 	0.9835	0.5952	0.4488	0.018
Mof_C 	C 	0.0446	0.5317	0.4232	-0.171
Mof_C 	C 	0.1107	0.521	0.3504	0.497
Mof_C 	C 	0.9056	0.4836	0.6231	0.482
Mof_C 	C 	0.5911	0.3272	0.9177	-0.137
Mof_C 	C 	0.6009	0.2552	0.9479	-0.041
Mof_C 	C 	0.5473	0.2519	0.0211	0.061
Mof_C 	C 	0.5014	0.3213	0.0456	-0.184
Mof_C 	C 	0.4443	0.3384	0.1209	0.549
Mof_C 	C 	0.6356	0.3561	0.8433	0.482
Mof_C 	C 	0.5223	0.6519	0.9255	-0.173
Mof_C 	C 	0.5584	0.5845	0.9588	-0.008
Mof_C 	C 	0.5023	0.5751	0.0306	0.022
Mof_C 	C 	0.4219	0.6346	0.05	-0.154
Mof_C 	C 	0.3445	0.6425	0.1201	0.483
Mof_C 	C 	0.5626	0.6789	0.8499	0.511
Mof_C 	C 	0.0492	0.4839	0.0498	-0.143
Mof_C 	C 	0.0698	0.4143	0.0206	0.02
Mof_C 	C 	0.0165	0.4048	0.9488	-0.007
Mof_C 	C 	0.9554	0.4683	0.9232	-0.161
Mof_C 	C 	0.8893	0.479	0.8504	0.493
Mof_C 	C 	0.0944	0.5164	0.1231	0.483
Mof_C 	C 	0.4089	0.6728	0.4177	-0.145
Mof_C 	C 	0.3991	0.7448	0.4479	-0.018
Mof_C 	C 	0.4527	0.7481	0.5211	0.04
Mof_C 	C 	0.4986	0.6787	0.5456	-0.189
Mof_C 	C 	0.5557	0.6616	0.6209	0.548
Mof_C 	C 	0.3644	0.6439	0.3433	0.486
Mof_C 	C 	0.4777	0.3481	0.4255	-0.181
Mof_C 	C 	0.4416	0.4155	0.4588	0.014
Mof_C 	C 	0.4977	0.4249	0.5306	0.003
Mof_C 	C 	0.5781	0.3654	0.55	-0.159
Mof_C 	C 	0.6555	0.3575	0.6201	0.483
Mof_C 	C 	0.4374	0.3211	0.3499	0.515
Mof_C 	C 	0.5492	0.0161	0.5498	-0.146
Mof_C 	C 	0.5698	0.0857	0.5206	-0.002
Mof_C 	C 	0.5165	0.0952	0.4488	0.017
Mof_C 	C 	0.4554	0.0317	0.4232	-0.169
Mof_C 	C 	0.3893	0.021	0.3504	0.5
Mof_C 	C 	0.5944	0.9836	0.6231	0.484
Mof_C 	C 	0.9089	0.8272	0.9177	-0.138
Mof_C 	C 	0.8991	0.7552	0.9479	-0.037
Mof_C 	C 	0.9527	0.7519	0.0211	0.057
Mof_C 	C 	0.9986	0.8213	0.0456	-0.181
Mof_C 	C 	0.0557	0.8384	0.1209	0.545
Mof_C 	C 	0.8644	0.8561	0.8433	0.483
Mof_C 	C 	0.9777	0.1519	0.9255	-0.175
Mof_C 	C 	0.9416	0.0845	0.9588	-0.007
Mof_C 	C 	0.9977	0.0751	0.0306	0.016
Mof_C 	C 	0.0781	0.1346	0.05	-0.149
Mof_C 	C 	0.1555	0.1425	0.1201	0.481
Mof_C 	C 	0.9374	0.1789	0.8499	0.512
Mof_C 	C 	0.4508	0.9839	0.0498	-0.145
Mof_C 	C 	0.4302	0.9143	0.0206	0.018
Mof_C 	C 	0.4835	0.9048	0.9488	-0.006
Mof_C 	C 	0.5446	0.9683	0.9232	-0.16
Mof_C 	C 	0.6107	0.979	0.8504	0.495
Mof_C 	C 	0.4056	0.0164	0.1231	0.488
Mof_C 	C 	0.0911	0.1728	0.4177	-0.146
Mof_C 	C 	0.1009	0.2448	0.4479	-0.017
Mof_C 	C 	0.0473	0.2481	0.5211	0.039
Mof_C 	C 	0.0014	0.1787	0.5456	-0.186
Mof_C 	C 	0.9443	0.1616	0.6209	0.545
Mof_C 	C 	0.1356	0.1439	0.3433	0.486
Mof_C 	C 	0.0223	0.8481	0.4255	-0.185
Mof_C 	C 	0.0584	0.9155	0.4588	0.018
Mof_C 	C 	0.0023	0.9249	0.5306	-0.006
Mof_C 	C 	0.9219	0.8654	0.55	-0.154
Mof_C 	C 	0.8445	0.8575	0.6201	0.481
Mof_C 	C 	0.0626	0.8211	0.3499	0.516
Mof_S 	S 	0.0382	0.45885	0.48802	0.073
Mof_S 	S 	0.5183	0.38999	0.97846	0.059
Mof_S 	S 	0.4183	0.70328	0.9813	0.063
Mof_S 	S 	0.9618	0.54115	0.98802	0.058
Mof_S 	S 	0.4817	0.61001	0.47846	0.075
Mof_S 	S 	0.5817	0.29672	0.4813	0.078
Mof_S 	S 	0.4618	0.95885	0.48802	0.073
Mof_S 	S 	0.9817	0.88999	0.97846	0.064
Mof_S 	S 	0.0817	0.20328	0.9813	0.064
Mof_S 	S 	0.5382	0.04115	0.98802	0.058
Mof_S 	S 	0.0183	0.11001	0.47846	0.078
Mof_S 	S 	0.9183	0.79672	0.4813	0.081
Mof_O 	O 	0.1753	0.4612	0.3379	-0.502
Mof_O 	O 	0.1071	0.5762	0.3045	-0.637
Mof_O 	O 	0.932	0.414	0.6352	-0.566
Mof_O 	O 	0.8486	0.53	0.6675	-0.548
Mof_O 	O 	0.4108	0.4075	0.1346	-0.55
Mof_O 	O 	0.4461	0.2859	0.1673	-0.632
Mof_O 	O 	0.6157	0.4252	0.8294	-0.576
Mof_O 	O 	0.6912	0.3075	0.7997	-0.535
Mof_O 	O 	0.2773	0.7005	0.1319	-0.521
Mof_O 	O 	0.348	0.5856	0.1655	-0.615
Mof_O 	O 	0.5454	0.7479	0.8322	-0.548
Mof_O 	O 	0.6155	0.6303	0.8063	-0.589
Mof_O 	O 	0.8247	0.5388	0.8379	-0.501
Mof_O 	O 	0.8929	0.4238	0.8045	-0.636
Mof_O 	O 	0.068	0.586	0.1352	-0.564
Mof_O 	O 	0.1514	0.47	0.1675	-0.548
Mof_O 	O 	0.5892	0.5925	0.6346	-0.552
Mof_O 	O 	0.5539	0.7141	0.6673	-0.632
Mof_O 	O 	0.3843	0.5748	0.3294	-0.577
Mof_O 	O 	0.3088	0.6925	0.2997	-0.535
Mof_O 	O 	0.7227	0.2995	0.6319	-0.523
Mof_O 	O 	0.652	0.4144	0.6655	-0.615
Mof_O 	O 	0.4546	0.2521	0.3322	-0.549
Mof_O 	O 	0.3845	0.3697	0.3063	-0.59
Mof_O 	O 	0.3247	0.9612	0.3379	-0.503
Mof_O 	O 	0.3929	0.0762	0.3045	-0.637
Mof_O 	O 	0.568	0.914	0.6352	-0.566
Mof_O 	O 	0.6514	0.03	0.6675	-0.548
Mof_O 	O 	0.0892	0.9075	0.1346	-0.551
Mof_O 	O 	0.0539	0.7859	0.1673	-0.631
Mof_O 	O 	0.8843	0.9252	0.8294	-0.573
Mof_O 	O 	0.8088	0.8075	0.7997	-0.535
Mof_O 	O 	0.2227	0.2005	0.1319	-0.521
Mof_O 	O 	0.152	0.0856	0.1655	-0.612
Mof_O 	O 	0.9546	0.2479	0.8322	-0.548
Mof_O 	O 	0.8845	0.1303	0.8063	-0.589
Mof_O 	O 	0.6753	0.0388	0.8379	-0.502
Mof_O 	O 	0.6071	0.9238	0.8045	-0.636
Mof_O 	O 	0.432	0.086	0.1352	-0.564
Mof_O 	O 	0.3486	0.97	0.1675	-0.55
Mof_O 	O 	0.9108	0.0925	0.6346	-0.552
Mof_O 	O 	0.9461	0.2141	0.6673	-0.631
Mof_O 	O 	0.1157	0.0748	0.3294	-0.574
Mof_O 	O 	0.1912	0.1925	0.2997	-0.535
Mof_O 	O 	0.7773	0.7995	0.6319	-0.522
Mof_O 	O 	0.848	0.9144	0.6655	-0.612
Mof_O 	O 	0.0454	0.7521	0.3322	-0.549
Mof_O 	O 	0.1155	0.8697	0.3063	-0.59
_end
