# CIF file generated by openbabel 3.1.0, see https://openbabel.org
data_I
_chemical_name_common 'FIGQUJ_clean'
_cell_length_a 8.531
_cell_length_b 12.57
_cell_length_c 13.252
_cell_angle_alpha 105.078
_cell_angle_beta 90.123
_cell_angle_gamma 107.139
_space_group_name_H-M_alt 'P 1'
_space_group_name_Hall 'P 1'
loop_
    _symmetry_equiv_pos_as_xyz
    x,y,z
loop_
    _atom_site_label
    _atom_site_type_symbol
    _atom_site_fract_x
    _atom_site_fract_y
    _atom_site_fract_z
    _atom_site_occupancy
    Cu1      Cu       0.49221    0.59596    0.97948    1.000
    Cu2      Cu       0.99070    0.59489    0.56727    1.000
    Cu3      Cu       0.50779    0.40404    0.02052    1.000
    Cu4      Cu       0.00930    0.40511    0.43273    1.000
    H1       H        0.23200    0.02540    0.02620    1.000
    H2       H        0.44920    0.36230    0.44890    1.000
    H3       H        0.49600    0.26290    0.48550    1.000
    H4       H        0.48370    0.47710    0.62900    1.000
    H5       H        0.34410    0.35530    0.61430    1.000
    H6       H        0.68170    0.39560    0.68950    1.000
    H7       H        0.53520    0.27960    0.68240    1.000
    H8       H        0.05220    0.63150    0.01870    1.000
    H9       H        0.00780    0.73350    0.10230    1.000
    H10      H        0.01440    0.52130    0.14410    1.000
    H11      H        0.15610    0.64260    0.18750    1.000
    H12      H        0.82100    0.60940    0.24050    1.000
    H13      H        0.97220    0.72280    0.29070    1.000
    H14      H        0.40010    0.81940    0.07990    1.000
    H15      H        0.25850    0.93430    0.84820    1.000
    H16      H        0.33360    0.79260    0.72850    1.000
    H17      H        0.44120    0.67050    0.78680    1.000
    H18      H        0.12720    0.01960    0.32500    1.000
    H19      H        0.04810    0.16990    0.42310    1.000
    H20      H        0.11150    0.33290    0.20620    1.000
    H21      H        0.21120    0.18020    0.10250    1.000
    H22      H        0.76800    0.97460    0.97380    1.000
    H23      H        0.55080    0.63770    0.55110    1.000
    H24      H        0.50400    0.73710    0.51450    1.000
    H25      H        0.51630    0.52290    0.37100    1.000
    H26      H        0.65590    0.64470    0.38570    1.000
    H27      H        0.31830    0.60440    0.31050    1.000
    H28      H        0.46480    0.72040    0.31760    1.000
    H29      H        0.94780    0.36850    0.98130    1.000
    H30      H        0.99220    0.26650    0.89770    1.000
    H31      H        0.98560    0.47870    0.85590    1.000
    H32      H        0.84390    0.35740    0.81250    1.000
    H33      H        0.17900    0.39060    0.75950    1.000
    H34      H        0.02780    0.27720    0.70930    1.000
    H35      H        0.59990    0.18060    0.92010    1.000
    H36      H        0.74150    0.06570    0.15180    1.000
    H37      H        0.66640    0.20740    0.27150    1.000
    H38      H        0.55880    0.32950    0.21320    1.000
    H39      H        0.87280    0.98040    0.67500    1.000
    H40      H        0.95190    0.83010    0.57690    1.000
    H41      H        0.88850    0.66710    0.79380    1.000
    H42      H        0.78880    0.81980    0.89750    1.000
    C1       C        0.69290    0.40500    0.49470    1.000
    C2       C        0.51640    0.34750    0.50160    1.000
    C3       C        0.46340    0.39250    0.61260    1.000
    C4       C        0.56270    0.36470    0.69710    1.000
    C5       C        0.53140    0.41300    0.80900    1.000
    C6       C        0.80740    0.59310    0.04110    1.000
    C7       C        0.98510    0.64850    0.07820    1.000
    C8       C        0.03650    0.60620    0.16770    1.000
    C9       C        0.94010    0.63750    0.26340    1.000
    C10      C        0.96950    0.58620    0.35210    1.000
    C11      C        0.38660    0.81550    0.00780    1.000
    C12      C        0.32010    0.89360    0.98010    1.000
    C13      C        0.30230    0.88290    0.87180    1.000
    C14      C        0.34680    0.80030    0.80150    1.000
    C15      C        0.41050    0.72870    0.83670    1.000
    C16      C        0.13000    0.08410    0.29940    1.000
    C17      C        0.18300    0.09220    0.21200    1.000
    C18      C        0.07840    0.17260    0.35470    1.000
    C19      C        0.11500    0.26980    0.23210    1.000
    C20      C        0.17650    0.17900    0.17040    1.000
    C21      C        0.25100    0.98990    0.15610    1.000
    C22      C        0.30710    0.59500    0.50530    1.000
    C23      C        0.48360    0.65250    0.49840    1.000
    C24      C        0.53660    0.60750    0.38740    1.000
    C25      C        0.43730    0.63530    0.30290    1.000
    C26      C        0.46860    0.58700    0.19100    1.000
    C27      C        0.19260    0.40690    0.95890    1.000
    C28      C        0.01490    0.35150    0.92180    1.000
    C29      C        0.96350    0.39380    0.83230    1.000
    C30      C        0.05990    0.36250    0.73660    1.000
    C31      C        0.03050    0.41380    0.64790    1.000
    C32      C        0.61340    0.18450    0.99220    1.000
    C33      C        0.67990    0.10640    0.01990    1.000
    C34      C        0.69770    0.11710    0.12820    1.000
    C35      C        0.65320    0.19970    0.19850    1.000
    C36      C        0.58950    0.27130    0.16330    1.000
    C37      C        0.87000    0.91590    0.70060    1.000
    C38      C        0.81700    0.90780    0.78800    1.000
    C39      C        0.92160    0.82740    0.64530    1.000
    C40      C        0.88500    0.73020    0.76790    1.000
    C41      C        0.82350    0.82100    0.82960    1.000
    C42      C        0.74900    0.01010    0.84390    1.000
    N1       N        0.43200    0.73590    0.93780    1.000
    N2       N        0.26320    0.97660    0.05240    1.000
    N3       N        0.06450    0.26280    0.32450    1.000
    N4       N        0.56800    0.26410    0.06220    1.000
    N5       N        0.73680    0.02340    0.94760    1.000
    N6       N        0.93550    0.73720    0.67550    1.000
    O1       O        0.75320    0.50620    0.54500    1.000
    O2       O        0.98230    0.48560    0.32820    1.000
    O3       O        0.52160    0.51430    0.83500    1.000
    O4       O        0.76930    0.34410    0.43770    1.000
    O5       O        0.74170    0.49050    0.04150    1.000
    O6       O        0.73290    0.65390    0.01090    1.000
    O7       O        0.52600    0.34940    0.86920    1.000
    O8       O        0.96950    0.64830    0.44310    1.000
    O9       O        0.30430    0.92680    0.20930    1.000
    O10      O        0.24680    0.49380    0.45500    1.000
    O11      O        0.01770    0.51440    0.67180    1.000
    O12      O        0.47840    0.48570    0.16500    1.000
    O13      O        0.23070    0.65590    0.56230    1.000
    O14      O        0.25830    0.50950    0.95850    1.000
    O15      O        0.26710    0.34610    0.98910    1.000
    O16      O        0.47400    0.65060    0.13080    1.000
    O17      O        0.03050    0.35170    0.55690    1.000
    O18      O        0.69570    0.07320    0.79070    1.000
