data_functionalizedCrystal
_audit_creation_method	'EQeq! by Chris Wilmer'
_symmetry_space_group_name_H-M	'P1'
_symmetry_Int_Tables_number	1
_symmetry_cell_setting	triclinic
loop_
_symmetry_equiv_pos_as_xyz
  x,y,z
_cell_length_a	15.6289
_cell_length_b	15.6289
_cell_length_c	15.6289
_cell_angle_alpha	90
_cell_angle_beta	90
_cell_angle_gamma	90
loop_
_atom_site_label
_atom_site_type_symbol
_atom_site_fract_x
_atom_site_fract_y
_atom_site_fract_z
_atom_site_charge
Mof_N 	N 	0.5002	0.6996	0.8793	-0.169
Mof_N 	N 	0.42971	0.67322	0.9223	-0.141
Mof_C 	C 	0.4719	0.752	0.8212	0.091
Mof_H 	H 	0.5069	0.7794	0.7816	-0.036
Mof_C 	C 	0.3831	0.7627	0.8247	-0.16
Mof_H 	H 	0.3488	0.7968	0.7901	0.072
Mof_C 	C 	0.3586	0.7111	0.8912	0.085
Mof_H 	H 	0.3031	0.7036	0.9113	-0.003
Mof_C 	C 	0.4357	0.6152	0.9923	0.221
Mof_C 	C 	0.5018	0.6235	0.0501	-0.317
Mof_H 	H 	0.537	0.6678	0.039	0.126
Mof_N 	N 	0.9998	0.3004	0.3793	-0.169
Mof_N 	N 	0.07029	0.32678	0.4223	-0.141
Mof_C 	C 	0.0281	0.248	0.3212	0.091
Mof_H 	H 	0.9931	0.2206	0.2816	-0.036
Mof_C 	C 	0.1169	0.2373	0.3247	-0.16
Mof_H 	H 	0.1512	0.2032	0.2901	0.072
Mof_C 	C 	0.1414	0.2889	0.3912	0.085
Mof_H 	H 	0.1969	0.2964	0.4113	-0.003
Mof_C 	C 	0.0643	0.3848	0.4923	0.221
Mof_C 	C 	0.9982	0.3765	0.5501	-0.317
Mof_H 	H 	0.963	0.3322	0.539	0.126
Mof_N 	N 	0.4998	0.1996	0.6207	-0.169
Mof_N 	N 	0.57029	0.17322	0.5777	-0.141
Mof_C 	C 	0.5281	0.252	0.6788	0.091
Mof_H 	H 	0.4931	0.2794	0.7184	-0.036
Mof_C 	C 	0.6169	0.2627	0.6753	-0.16
Mof_H 	H 	0.6512	0.2968	0.7099	0.072
Mof_C 	C 	0.6414	0.2111	0.6088	0.085
Mof_H 	H 	0.6969	0.2036	0.5887	-0.003
Mof_C 	C 	0.5643	0.1152	0.5077	0.22
Mof_C 	C 	0.4982	0.1235	0.4499	-0.318
Mof_H 	H 	0.463	0.1678	0.461	0.125
Mof_N 	N 	0.0002	0.8004	0.1207	-0.17
Mof_N 	N 	0.92971	0.82678	0.0777	-0.142
Mof_C 	C 	0.9719	0.748	0.1788	0.089
Mof_H 	H 	0.0069	0.7206	0.2184	-0.037
Mof_C 	C 	0.8831	0.7373	0.1753	-0.161
Mof_H 	H 	0.8488	0.7032	0.2099	0.071
Mof_C 	C 	0.8586	0.7889	0.1088	0.084
Mof_H 	H 	0.8031	0.7964	0.0887	-0.004
Mof_C 	C 	0.9357	0.8848	0.0077	0.22
Mof_C 	C 	0.0018	0.8765	0.9499	-0.318
Mof_H 	H 	0.037	0.8322	0.961	0.125
Mof_N 	N 	0.8793	0.5002	0.6996	-0.17
Mof_N 	N 	0.9223	0.42971	0.67322	-0.142
Mof_C 	C 	0.8212	0.4719	0.752	0.09
Mof_H 	H 	0.7816	0.5069	0.7794	-0.037
Mof_C 	C 	0.8247	0.3831	0.7627	-0.161
Mof_H 	H 	0.7901	0.3488	0.7968	0.071
Mof_C 	C 	0.8912	0.3586	0.7111	0.084
Mof_H 	H 	0.9113	0.3031	0.7036	-0.004
Mof_C 	C 	0.9923	0.4357	0.6152	0.22
Mof_C 	C 	0.0501	0.5018	0.6235	-0.318
Mof_H 	H 	0.039	0.537	0.6678	0.125
Mof_N 	N 	0.3793	0.9998	0.3004	-0.17
Mof_N 	N 	0.4223	0.07029	0.32678	-0.142
Mof_C 	C 	0.3212	0.0281	0.248	0.09
Mof_H 	H 	0.2816	0.9931	0.2206	-0.037
Mof_C 	C 	0.3247	0.1169	0.2373	-0.161
Mof_H 	H 	0.2901	0.1512	0.2032	0.071
Mof_C 	C 	0.3912	0.1414	0.2889	0.084
Mof_H 	H 	0.4113	0.1969	0.2964	-0.004
Mof_C 	C 	0.4923	0.0643	0.3848	0.22
Mof_C 	C 	0.5501	0.9982	0.3765	-0.318
Mof_H 	H 	0.539	0.963	0.3322	0.125
Mof_N 	N 	0.6207	0.4998	0.1996	-0.17
Mof_N 	N 	0.5777	0.57029	0.17322	-0.142
Mof_C 	C 	0.6788	0.5281	0.252	0.09
Mof_H 	H 	0.7184	0.4931	0.2794	-0.037
Mof_C 	C 	0.6753	0.6169	0.2627	-0.161
Mof_H 	H 	0.7099	0.6512	0.2968	0.071
Mof_C 	C 	0.6088	0.6414	0.2111	0.084
Mof_H 	H 	0.5887	0.6969	0.2036	-0.004
Mof_C 	C 	0.5077	0.5643	0.1152	0.22
Mof_C 	C 	0.4499	0.4982	0.1235	-0.318
Mof_H 	H 	0.461	0.463	0.1678	0.125
Mof_N 	N 	0.1207	0.0002	0.8004	-0.17
Mof_N 	N 	0.0777	0.92971	0.82678	-0.142
Mof_C 	C 	0.1788	0.9719	0.748	0.089
Mof_H 	H 	0.2184	0.0069	0.7206	-0.037
Mof_C 	C 	0.1753	0.8831	0.7373	-0.161
Mof_H 	H 	0.2099	0.8488	0.7032	0.071
Mof_C 	C 	0.1088	0.8586	0.7889	0.084
Mof_H 	H 	0.0887	0.8031	0.7964	-0.004
Mof_C 	C 	0.0077	0.9357	0.8848	0.22
Mof_C 	C 	0.9499	0.0018	0.8765	-0.318
Mof_H 	H 	0.961	0.037	0.8322	0.125
Mof_N 	N 	0.6996	0.8793	0.5002	-0.17
Mof_N 	N 	0.67322	0.9223	0.42971	-0.142
Mof_C 	C 	0.752	0.8212	0.4719	0.09
Mof_H 	H 	0.7794	0.7816	0.5069	-0.037
Mof_C 	C 	0.7627	0.8247	0.3831	-0.161
Mof_H 	H 	0.7968	0.7901	0.3488	0.071
Mof_C 	C 	0.7111	0.8912	0.3586	0.084
Mof_H 	H 	0.7036	0.9113	0.3031	-0.004
Mof_C 	C 	0.6152	0.9923	0.4357	0.22
Mof_C 	C 	0.6235	0.0501	0.5018	-0.318
Mof_H 	H 	0.6678	0.039	0.537	0.125
Mof_N 	N 	0.3004	0.3793	0.9998	-0.17
Mof_N 	N 	0.32678	0.4223	0.07029	-0.142
Mof_C 	C 	0.248	0.3212	0.0281	0.09
Mof_H 	H 	0.2206	0.2816	0.9931	-0.037
Mof_C 	C 	0.2373	0.3247	0.1169	-0.161
Mof_H 	H 	0.2032	0.2901	0.1512	0.071
Mof_C 	C 	0.2889	0.3912	0.1414	0.084
Mof_H 	H 	0.2964	0.4113	0.1969	-0.004
Mof_C 	C 	0.3848	0.4923	0.0643	0.22
Mof_C 	C 	0.3765	0.5501	0.9982	-0.318
Mof_H 	H 	0.3322	0.539	0.963	0.125
Mof_N 	N 	0.1996	0.6207	0.4998	-0.17
Mof_N 	N 	0.17322	0.5777	0.57029	-0.142
Mof_C 	C 	0.252	0.6788	0.5281	0.09
Mof_H 	H 	0.2794	0.7184	0.4931	-0.037
Mof_C 	C 	0.2627	0.6753	0.6169	-0.161
Mof_H 	H 	0.2968	0.7099	0.6512	0.071
Mof_C 	C 	0.2111	0.6088	0.6414	0.084
Mof_H 	H 	0.2036	0.5887	0.6969	-0.004
Mof_C 	C 	0.1152	0.5077	0.5643	0.22
Mof_C 	C 	0.1235	0.4499	0.4982	-0.318
Mof_H 	H 	0.1678	0.461	0.463	0.125
Mof_N 	N 	0.8004	0.1207	0.0002	-0.17
Mof_N 	N 	0.82678	0.0777	0.92971	-0.142
Mof_C 	C 	0.748	0.1788	0.9719	0.089
Mof_H 	H 	0.7206	0.2184	0.0069	-0.037
Mof_C 	C 	0.7373	0.1753	0.8831	-0.161
Mof_H 	H 	0.7032	0.2099	0.8488	0.071
Mof_C 	C 	0.7889	0.1088	0.8586	0.084
Mof_H 	H 	0.7964	0.0887	0.8031	-0.004
Mof_C 	C 	0.8848	0.0077	0.9357	0.22
Mof_C 	C 	0.8765	0.9499	0.0018	-0.318
Mof_H 	H 	0.8322	0.961	0.037	0.125
Mof_N 	N 	0.4496	0.7502	0.3707	-0.17
Mof_N 	N 	0.42322	0.67971	0.3277	-0.142
Mof_C 	C 	0.502	0.7219	0.4288	0.09
Mof_H 	H 	0.5294	0.7569	0.4684	-0.037
Mof_C 	C 	0.5127	0.6331	0.4253	-0.161
Mof_H 	H 	0.5468	0.5988	0.4599	0.071
Mof_C 	C 	0.4611	0.6086	0.3588	0.084
Mof_H 	H 	0.4536	0.5531	0.3387	-0.004
Mof_C 	C 	0.3652	0.6857	0.2577	0.22
Mof_C 	C 	0.3735	0.7518	0.1999	-0.318
Mof_H 	H 	0.4178	0.787	0.211	0.125
Mof_N 	N 	0.0504	0.2498	0.8707	-0.17
Mof_N 	N 	0.07678	0.32029	0.8277	-0.142
Mof_C 	C 	0.998	0.2781	0.9288	0.089
Mof_H 	H 	0.9706	0.2431	0.9684	-0.037
Mof_C 	C 	0.9873	0.3669	0.9253	-0.161
Mof_H 	H 	0.9532	0.4012	0.9599	0.071
Mof_C 	C 	0.0389	0.3914	0.8588	0.085
Mof_H 	H 	0.0464	0.4469	0.8387	-0.005
Mof_C 	C 	0.1348	0.3143	0.7577	0.22
Mof_C 	C 	0.1265	0.2482	0.6999	-0.318
Mof_H 	H 	0.0822	0.213	0.711	0.125
Mof_N 	N 	0.9496	0.7498	0.6293	-0.17
Mof_N 	N 	0.92322	0.82029	0.6723	-0.142
Mof_C 	C 	0.002	0.7781	0.5712	0.09
Mof_H 	H 	0.0294	0.7431	0.5316	-0.037
Mof_C 	C 	0.0127	0.8669	0.5747	-0.161
Mof_H 	H 	0.0468	0.9012	0.5401	0.071
Mof_C 	C 	0.9611	0.8914	0.6412	0.084
Mof_H 	H 	0.9536	0.9469	0.6613	-0.004
Mof_C 	C 	0.8652	0.8143	0.7423	0.22
Mof_C 	C 	0.8735	0.7482	0.8001	-0.318
Mof_H 	H 	0.9178	0.713	0.789	0.125
Mof_N 	N 	0.5504	0.2502	0.1293	-0.17
Mof_N 	N 	0.57678	0.17971	0.1723	-0.142
Mof_C 	C 	0.498	0.2219	0.0712	0.09
Mof_H 	H 	0.4706	0.2569	0.0316	-0.037
Mof_C 	C 	0.4873	0.1331	0.0747	-0.161
Mof_H 	H 	0.4532	0.0988	0.0401	0.071
Mof_C 	C 	0.5389	0.1086	0.1412	0.084
Mof_H 	H 	0.5464	0.0531	0.1613	-0.004
Mof_C 	C 	0.6348	0.1857	0.2423	0.22
Mof_C 	C 	0.6265	0.2518	0.3001	-0.318
Mof_H 	H 	0.5822	0.287	0.289	0.125
Mof_N 	N 	0.2502	0.1293	0.5504	-0.17
Mof_N 	N 	0.17971	0.1723	0.57678	-0.142
Mof_C 	C 	0.2219	0.0712	0.498	0.09
Mof_H 	H 	0.2569	0.0316	0.4706	-0.037
Mof_C 	C 	0.1331	0.0747	0.4873	-0.161
Mof_H 	H 	0.0988	0.0401	0.4532	0.071
Mof_C 	C 	0.1086	0.1412	0.5389	0.084
Mof_H 	H 	0.0531	0.1613	0.5464	-0.004
Mof_C 	C 	0.1857	0.2423	0.6348	0.22
Mof_C 	C 	0.2518	0.3001	0.6265	-0.318
Mof_H 	H 	0.287	0.289	0.5822	0.125
Mof_N 	N 	0.7498	0.6293	0.9496	-0.17
Mof_N 	N 	0.82029	0.6723	0.92322	-0.142
Mof_C 	C 	0.7781	0.5712	0.002	0.09
Mof_H 	H 	0.7431	0.5316	0.0294	-0.037
Mof_C 	C 	0.8669	0.5747	0.0127	-0.161
Mof_H 	H 	0.9012	0.5401	0.0468	0.071
Mof_C 	C 	0.8914	0.6412	0.9611	0.084
Mof_H 	H 	0.9469	0.6613	0.9536	-0.004
Mof_C 	C 	0.8143	0.7423	0.8652	0.22
Mof_C 	C 	0.7482	0.8001	0.8735	-0.318
Mof_H 	H 	0.713	0.789	0.9178	0.125
Mof_N 	N 	0.2498	0.8707	0.0504	-0.17
Mof_N 	N 	0.32029	0.8277	0.07678	-0.142
Mof_C 	C 	0.2781	0.9288	0.998	0.089
Mof_H 	H 	0.2431	0.9684	0.9706	-0.037
Mof_C 	C 	0.3669	0.9253	0.9873	-0.161
Mof_H 	H 	0.4012	0.9599	0.9532	0.071
Mof_C 	C 	0.3914	0.8588	0.0389	0.085
Mof_H 	H 	0.4469	0.8387	0.0464	-0.005
Mof_C 	C 	0.3143	0.7577	0.1348	0.22
Mof_C 	C 	0.2482	0.6999	0.1265	-0.318
Mof_H 	H 	0.213	0.711	0.0822	0.125
Mof_N 	N 	0.7502	0.3707	0.4496	-0.17
Mof_N 	N 	0.67971	0.3277	0.42322	-0.142
Mof_C 	C 	0.7219	0.4288	0.502	0.09
Mof_H 	H 	0.7569	0.4684	0.5294	-0.037
Mof_C 	C 	0.6331	0.4253	0.5127	-0.161
Mof_H 	H 	0.5988	0.4599	0.5468	0.071
Mof_C 	C 	0.6086	0.3588	0.4611	0.084
Mof_H 	H 	0.5531	0.3387	0.4536	-0.004
Mof_C 	C 	0.6857	0.2577	0.3652	0.22
Mof_C 	C 	0.7518	0.1999	0.3735	-0.318
Mof_H 	H 	0.787	0.211	0.4178	0.125
Mof_N 	N 	0.6293	0.9496	0.7498	-0.17
Mof_N 	N 	0.6723	0.92322	0.82029	-0.142
Mof_C 	C 	0.5712	0.002	0.7781	0.09
Mof_H 	H 	0.5316	0.0294	0.7431	-0.037
Mof_C 	C 	0.5747	0.0127	0.8669	-0.161
Mof_H 	H 	0.5401	0.0468	0.9012	0.071
Mof_C 	C 	0.6412	0.9611	0.8914	0.084
Mof_H 	H 	0.6613	0.9536	0.9469	-0.004
Mof_C 	C 	0.7423	0.8652	0.8143	0.22
Mof_C 	C 	0.8001	0.8735	0.7482	-0.318
Mof_H 	H 	0.789	0.9178	0.713	0.125
Mof_N 	N 	0.1293	0.5504	0.2502	-0.17
Mof_N 	N 	0.1723	0.57678	0.17971	-0.142
Mof_C 	C 	0.0712	0.498	0.2219	0.09
Mof_H 	H 	0.0316	0.4706	0.2569	-0.037
Mof_C 	C 	0.0747	0.4873	0.1331	-0.161
Mof_H 	H 	0.0401	0.4532	0.0988	0.071
Mof_C 	C 	0.1412	0.5389	0.1086	0.084
Mof_H 	H 	0.1613	0.5464	0.0531	-0.004
Mof_C 	C 	0.2423	0.6348	0.1857	0.22
Mof_C 	C 	0.3001	0.6265	0.2518	-0.318
Mof_H 	H 	0.289	0.5822	0.287	0.125
Mof_N 	N 	0.3707	0.4496	0.7502	-0.17
Mof_N 	N 	0.3277	0.42322	0.67971	-0.142
Mof_C 	C 	0.4288	0.502	0.7219	0.09
Mof_H 	H 	0.4684	0.5294	0.7569	-0.037
Mof_C 	C 	0.4253	0.5127	0.6331	-0.161
Mof_H 	H 	0.4599	0.5468	0.5988	0.071
Mof_C 	C 	0.3588	0.4611	0.6086	0.084
Mof_H 	H 	0.3387	0.4536	0.5531	-0.004
Mof_C 	C 	0.2577	0.3652	0.6857	0.22
Mof_C 	C 	0.1999	0.3735	0.7518	-0.318
Mof_H 	H 	0.211	0.4178	0.787	0.125
Mof_N 	N 	0.8707	0.0504	0.2498	-0.17
Mof_N 	N 	0.8277	0.07678	0.32029	-0.142
Mof_C 	C 	0.9288	0.998	0.2781	0.089
Mof_H 	H 	0.9684	0.9706	0.2431	-0.037
Mof_C 	C 	0.9253	0.9873	0.3669	-0.161
Mof_H 	H 	0.9599	0.9532	0.4012	0.071
Mof_C 	C 	0.8588	0.0389	0.3914	0.085
Mof_H 	H 	0.8387	0.0464	0.4469	-0.005
Mof_C 	C 	0.7577	0.1348	0.3143	0.22
Mof_C 	C 	0.6999	0.1265	0.2482	-0.318
Mof_H 	H 	0.711	0.0822	0.213	0.125
Mof_Ag	Ag	0.625	0.64128	0.89128	0.482
Mof_Ag	Ag	0.875	0.35872	0.39128	0.482
Mof_Ag	Ag	0.375	0.14128	0.60872	0.482
Mof_Ag	Ag	0.125	0.85872	0.10872	0.482
Mof_Ag	Ag	0.89128	0.625	0.64128	0.482
Mof_Ag	Ag	0.39128	0.875	0.35872	0.482
Mof_Ag	Ag	0.60872	0.375	0.14128	0.482
Mof_Ag	Ag	0.10872	0.125	0.85872	0.482
Mof_Ag	Ag	0.64128	0.89128	0.625	0.482
Mof_Ag	Ag	0.35872	0.39128	0.875	0.482
Mof_Ag	Ag	0.14128	0.60872	0.375	0.482
Mof_Ag	Ag	0.85872	0.10872	0.125	0.482
_end
