data_functionalizedCrystal
_audit_creation_method	'EQeq! by Chris Wilmer'
_symmetry_space_group_name_H-M	'P1'
_symmetry_Int_Tables_number	1
_symmetry_cell_setting	triclinic
loop_
_symmetry_equiv_pos_as_xyz
  x,y,z
_cell_length_a	16.682
_cell_length_b	21.662
_cell_length_c	27.674
_cell_angle_alpha	90
_cell_angle_beta	96.49
_cell_angle_gamma	90
loop_
_atom_site_label
_atom_site_type_symbol
_atom_site_fract_x
_atom_site_fract_y
_atom_site_fract_z
_atom_site_charge
Mof_W 	W 	0.763	0.904	0.1353	0.342
Mof_W 	W 	0.14338	0.00219	0.4156	0.347
Mof_Cu	Cu	0.8826	0.98464	0.17032	0.814
Mof_Cu	Cu	0.69246	0.93186	0.21319	0.801
Mof_Cu	Cu	0.84101	0.88166	0.05928	0.807
Mof_Cu	Cu	0.25249	0.02045	0.49208	0.802
Mof_Cu	Cu	0.04578	0.98679	0.33377	0.804
Mof_Cu	Cu	0.25973	0.02594	0.35512	0.812
Mof_Cu	Cu	0.13949	0.16634	0.22166	0.8
Mof_Cu	Cu	0.03685	0.15274	0.094	0.824
Mof_Cu	Cu	0.55092	0.97148	0.35889	0.808
Mof_S 	S 	0.74408	0.99904	0.16363	-0.554
Mof_S 	S 	0.7081	0.8381	0.18235	-0.383
Mof_S 	S 	0.70834	0.8967	0.05891	-0.383
Mof_S 	S 	0.89555	0.88701	0.13658	-0.553
Mof_S 	S 	0.1576	0.94688	0.48295	-0.384
Mof_S 	S 	0.23381	0.0793	0.42533	-0.557
Mof_S 	S 	0.16854	0.94405	0.3521	-0.551
Mof_S 	S 	0.02061	0.03975	0.39965	-0.391
Mof_S 	S 	0.16175	0.1656	0.14354	-0.538
Mof_N 	N 	0.9352	0.0527	0.1384	-0.214
Mof_N 	N 	0.6383	0.9491	0.2684	-0.229
Mof_N 	N 	0.9272	0.858	0.9701	-0.208
Mof_N 	N 	0.3735	0.0313	0.5815	-0.221
Mof_N 	N 	0.9353	0.9758	0.2394	-0.206
Mof_N 	N 	0.3724	0.0021	0.3539	-0.216
Mof_N 	N 	0.2133	0.0817	0.3012	-0.209
Mof_C 	C 	0.972	0.0898	0.1198	-0.234
Mof_C 	C 	0.6056	0.9586	0.3023	-0.243
Mof_C 	C 	0.8941	0.8671	0.0046	-0.251
Mof_C 	C 	0.3285	0.0293	0.5478	-0.256
Mof_C 	C 	0.9756	0.9783	0.2755	-0.253
Mof_C 	C 	0.4401	0.9897	0.356	-0.265
Mof_C 	C 	0.1818	0.1115	0.2711	-0.263
Mof_W 	W 	0.237	0.404	0.8647	0.342
Mof_W 	W 	0.85662	0.50219	0.5844	0.349
Mof_Cu	Cu	0.1174	0.48464	0.82968	0.814
Mof_Cu	Cu	0.30754	0.43186	0.78681	0.801
Mof_Cu	Cu	0.15899	0.38166	0.94072	0.808
Mof_Cu	Cu	0.74751	0.52045	0.50792	0.802
Mof_Cu	Cu	0.95422	0.48679	0.66623	0.803
Mof_Cu	Cu	0.74027	0.52594	0.64488	0.812
Mof_Cu	Cu	0.86051	0.66634	0.77834	0.8
Mof_Cu	Cu	0.96315	0.65274	0.906	0.824
Mof_Cu	Cu	0.44908	0.47148	0.64111	0.808
Mof_S 	S 	0.25592	0.49904	0.83637	-0.554
Mof_S 	S 	0.2919	0.3381	0.81765	-0.383
Mof_S 	S 	0.29166	0.3967	0.94109	-0.383
Mof_S 	S 	0.10445	0.38701	0.86342	-0.552
Mof_S 	S 	0.8424	0.44688	0.51705	-0.387
Mof_S 	S 	0.76619	0.5793	0.57467	-0.557
Mof_S 	S 	0.83146	0.44405	0.6479	-0.553
Mof_S 	S 	0.97939	0.53975	0.60035	-0.39
Mof_S 	S 	0.83825	0.6656	0.85646	-0.538
Mof_N 	N 	0.0648	0.5527	0.8616	-0.215
Mof_N 	N 	0.3617	0.4491	0.7316	-0.229
Mof_N 	N 	0.0728	0.358	0.0299	-0.208
Mof_N 	N 	0.6265	0.5313	0.4185	-0.221
Mof_N 	N 	0.0647	0.4758	0.7606	-0.206
Mof_N 	N 	0.6276	0.5021	0.6461	-0.215
Mof_N 	N 	0.7867	0.5817	0.6988	-0.208
Mof_C 	C 	0.028	0.5898	0.8802	-0.236
Mof_C 	C 	0.3944	0.4586	0.6977	-0.243
Mof_C 	C 	0.1059	0.3671	0.9954	-0.251
Mof_C 	C 	0.6715	0.5293	0.4522	-0.256
Mof_C 	C 	0.0244	0.4783	0.7245	-0.252
Mof_C 	C 	0.5599	0.4897	0.644	-0.266
Mof_C 	C 	0.8182	0.6115	0.7289	-0.263
Mof_W 	W 	0.237	0.096	0.8647	0.342
Mof_W 	W 	0.85662	0.99781	0.5844	0.347
Mof_Cu	Cu	0.1174	0.01536	0.82968	0.814
Mof_Cu	Cu	0.30754	0.06814	0.78681	0.801
Mof_Cu	Cu	0.15899	0.11834	0.94072	0.807
Mof_Cu	Cu	0.74751	0.97955	0.50792	0.802
Mof_Cu	Cu	0.95422	0.01321	0.66623	0.804
Mof_Cu	Cu	0.74027	0.97406	0.64488	0.812
Mof_Cu	Cu	0.86051	0.83366	0.77834	0.8
Mof_Cu	Cu	0.96315	0.84726	0.906	0.824
Mof_Cu	Cu	0.44908	0.02852	0.64111	0.808
Mof_S 	S 	0.25592	0.00096	0.83637	-0.554
Mof_S 	S 	0.2919	0.1619	0.81765	-0.383
Mof_S 	S 	0.29166	0.1033	0.94109	-0.383
Mof_S 	S 	0.10445	0.11299	0.86342	-0.553
Mof_S 	S 	0.8424	0.05312	0.51705	-0.384
Mof_S 	S 	0.76619	0.9207	0.57467	-0.557
Mof_S 	S 	0.83146	0.05595	0.6479	-0.551
Mof_S 	S 	0.97939	0.96025	0.60035	-0.391
Mof_S 	S 	0.83825	0.8344	0.85646	-0.538
Mof_N 	N 	0.0648	0.9473	0.8616	-0.214
Mof_N 	N 	0.3617	0.0509	0.7316	-0.229
Mof_N 	N 	0.0728	0.142	0.0299	-0.208
Mof_N 	N 	0.6265	0.9687	0.4185	-0.221
Mof_N 	N 	0.0647	0.0242	0.7606	-0.206
Mof_N 	N 	0.6276	0.9979	0.6461	-0.216
Mof_N 	N 	0.7867	0.9183	0.6988	-0.209
Mof_C 	C 	0.028	0.9102	0.8802	-0.234
Mof_C 	C 	0.3944	0.0414	0.6977	-0.243
Mof_C 	C 	0.1059	0.1329	0.9954	-0.251
Mof_C 	C 	0.6715	0.9707	0.4522	-0.256
Mof_C 	C 	0.0244	0.0217	0.7245	-0.253
Mof_C 	C 	0.5599	0.0103	0.644	-0.265
Mof_C 	C 	0.8182	0.8885	0.7289	-0.263
Mof_W 	W 	0.763	0.596	0.1353	0.342
Mof_W 	W 	0.14338	0.49781	0.4156	0.349
Mof_Cu	Cu	0.8826	0.51536	0.17032	0.814
Mof_Cu	Cu	0.69246	0.56814	0.21319	0.801
Mof_Cu	Cu	0.84101	0.61834	0.05928	0.808
Mof_Cu	Cu	0.25249	0.47955	0.49208	0.802
Mof_Cu	Cu	0.04578	0.51321	0.33377	0.803
Mof_Cu	Cu	0.25973	0.47406	0.35512	0.812
Mof_Cu	Cu	0.13949	0.33366	0.22166	0.8
Mof_Cu	Cu	0.03685	0.34726	0.094	0.824
Mof_Cu	Cu	0.55092	0.52852	0.35889	0.808
Mof_S 	S 	0.74408	0.50096	0.16363	-0.554
Mof_S 	S 	0.7081	0.6619	0.18235	-0.383
Mof_S 	S 	0.70834	0.6033	0.05891	-0.383
Mof_S 	S 	0.89555	0.61299	0.13658	-0.552
Mof_S 	S 	0.1576	0.55312	0.48295	-0.387
Mof_S 	S 	0.23381	0.4207	0.42533	-0.557
Mof_S 	S 	0.16854	0.55595	0.3521	-0.553
Mof_S 	S 	0.02061	0.46025	0.39965	-0.39
Mof_S 	S 	0.16175	0.3344	0.14354	-0.538
Mof_N 	N 	0.9352	0.4473	0.1384	-0.215
Mof_N 	N 	0.6383	0.5509	0.2684	-0.229
Mof_N 	N 	0.9272	0.642	0.9701	-0.208
Mof_N 	N 	0.3735	0.4687	0.5815	-0.221
Mof_N 	N 	0.9353	0.5242	0.2394	-0.206
Mof_N 	N 	0.3724	0.4979	0.3539	-0.215
Mof_N 	N 	0.2133	0.4183	0.3012	-0.208
Mof_C 	C 	0.972	0.4102	0.1198	-0.236
Mof_C 	C 	0.6056	0.5414	0.3023	-0.243
Mof_C 	C 	0.8941	0.6329	0.0046	-0.251
Mof_C 	C 	0.3285	0.4707	0.5478	-0.256
Mof_C 	C 	0.9756	0.5217	0.2755	-0.252
Mof_C 	C 	0.4401	0.5103	0.356	-0.266
Mof_C 	C 	0.1818	0.3885	0.2711	-0.263
Mof_W 	W 	0.09051	0.25	0.15521	0.28
Mof_S 	S 	0.0642	0.25	0.23338	-0.576
Mof_S 	S 	0.9776	0.25	0.10544	-0.5
Mof_W 	W 	0.90949	0.75	0.84479	0.28
Mof_S 	S 	0.9358	0.75	0.76662	-0.576
Mof_S 	S 	0.0224	0.75	0.89456	-0.5
_end
