data_functionalizedCrystal
_audit_creation_method	'EQeq! by Chris Wilmer'
_symmetry_space_group_name_H-M	'P1'
_symmetry_Int_Tables_number	1
_symmetry_cell_setting	triclinic
loop_
_symmetry_equiv_pos_as_xyz
  x,y,z
_cell_length_a	5.8653
_cell_length_b	12.8535
_cell_length_c	20.98
_cell_angle_alpha	92.3172
_cell_angle_beta	90
_cell_angle_gamma	103.189
loop_
_atom_site_label
_atom_site_type_symbol
_atom_site_fract_x
_atom_site_fract_y
_atom_site_fract_z
_atom_site_charge
Mof_Zn	Zn	0.71755	9.23607e-18	0.75	1.188
Mof_Zn	Zn	0.28245	0	0.25	1.188
Mof_H 	H 	0.646	0.898	0.6186	0.008
Mof_H 	H 	0.7875	0.7808	0.5541	0.096
Mof_H 	H 	0.2634	0.7692	0.6911	0.085
Mof_H 	H 	0.0982	0.882	0.7537	0.006
Mof_H 	H 	0.0716	0.6766	0.5293	0.072
Mof_H 	H 	0.3564	0.6442	0.6282	0.042
Mof_H 	H 	0.1975	0.5708	0.4621	0.049
Mof_H 	H 	0.633	0.5364	0.6046	0.051
Mof_H 	H 	0.6313	0.2374	0.5838	0.203
Mof_H 	H 	0.3879	0.178	0.6127	0.21
Mof_H 	H 	0.1748	0.013	0.5607	0.157
Mof_H 	H 	0.8537	0.1226	0.5166	0.165
Mof_H 	H 	0.748	0.102	0.8814	-0.035
Mof_H 	H 	0.0067	0.2192	0.9459	0.086
Mof_H 	H 	0.4942	0.2308	0.8089	0.085
Mof_H 	H 	0.2162	0.118	0.7463	-0.016
Mof_H 	H 	0.395	0.3234	0.9707	0.069
Mof_H 	H 	0.7122	0.3558	0.8718	0.033
Mof_H 	H 	0.6267	0.4292	0.0379	0.029
Mof_H 	H 	0.0966	0.4636	0.8954	0.036
Mof_H 	H 	0.3939	0.7626	0.9162	0.129
Mof_H 	H 	0.2099	0.822	0.8873	0.144
Mof_H 	H 	0.1618	0.987	0.9393	0.01
Mof_H 	H 	0.7311	0.8774	0.9834	-0.012
Mof_H 	H 	0.354	0.102	0.3814	-0.032
Mof_H 	H 	0.2125	0.2192	0.4459	0.087
Mof_H 	H 	0.7366	0.2308	0.3089	0.082
Mof_H 	H 	0.9018	0.118	0.2463	-0.015
Mof_H 	H 	0.9284	0.3234	0.4707	0.067
Mof_H 	H 	0.6436	0.3558	0.3718	0.042
Mof_H 	H 	0.8025	0.4292	0.5379	0.045
Mof_H 	H 	0.367	0.4636	0.3954	0.052
Mof_H 	H 	0.3687	0.7626	0.4162	0.124
Mof_H 	H 	0.6121	0.822	0.3873	0.137
Mof_H 	H 	0.8252	0.987	0.4393	-0.011
Mof_H 	H 	0.1463	0.8774	0.4834	-0.029
Mof_H 	H 	0.252	0.898	0.1186	0.007
Mof_H 	H 	0.9933	0.7808	0.0541	0.098
Mof_H 	H 	0.5058	0.7692	0.1911	0.083
Mof_H 	H 	0.7838	0.882	0.2537	0.006
Mof_H 	H 	0.605	0.6766	0.0293	0.071
Mof_H 	H 	0.2878	0.6442	0.1282	0.051
Mof_H 	H 	0.3733	0.5708	0.9621	0.066
Mof_H 	H 	0.9034	0.5364	0.1046	0.068
Mof_H 	H 	0.6061	0.2374	0.0838	0.197
Mof_H 	H 	0.7901	0.178	0.1127	0.203
Mof_H 	H 	0.8382	0.013	0.0607	0.136
Mof_H 	H 	0.2689	0.1226	0.0166	0.148
Mof_C 	C 	0.77024	0.87028	0.63357	0.102
Mof_C 	C 	0.85543	0.80086	0.5947	-0.173
Mof_C 	C 	0.04184	0.75948	0.6143	0.132
Mof_C 	C 	0.13498	0.79336	0.6756	-0.163
Mof_C 	C 	0.03672	0.86164	0.7125	0.1
Mof_C 	C 	0.13345	0.6875	0.571	-0.119
Mof_C 	C 	0.29876	0.63572	0.5861	-0.036
Mof_C 	C 	0.39718	0.56596	0.5411	0.026
Mof_C 	C 	0.31987	0.54234	0.4776	-0.061
Mof_C 	C 	0.57859	0.52198	0.5622	-0.062
Mof_C 	C 	0.67134	0.13528	0.6549	0.468
Mof_C 	C 	0.54261	0.16922	0.5992	-0.576
Mof_C 	C 	0.3066	0.008	0.5363	-0.427
Mof_C 	C 	0.51795	0.0825	0.54708	0.363
Mof_C 	C 	0.71018	0.07296	0.51	-0.423
Mof_C 	C 	0.89996	0.12972	0.86643	0.096
Mof_C 	C 	0.05457	0.19914	0.9053	-0.194
Mof_C 	C 	0.28236	0.24052	0.8857	0.134
Mof_C 	C 	0.34162	0.20664	0.8244	-0.18
Mof_C 	C 	0.17508	0.13836	0.7875	0.087
Mof_C 	C 	0.44595	0.3125	0.929	-0.141
Mof_C 	C 	0.66304	0.36428	0.9139	-0.01
Mof_C 	C 	0.83122	0.43404	0.9589	-0.03
Mof_C 	C 	0.77753	0.45766	0.0224	0.003
Mof_C 	C 	0.05661	0.47802	0.9378	-0.013
Mof_C 	C 	0.53606	0.86472	0.8451	0.395
Mof_C 	C 	0.37339	0.83078	0.9008	-0.326
Mof_C 	C 	0.2986	0.992	0.9637	0.155
Mof_C 	C 	0.43545	0.9175	0.95292	-0.015
Mof_C 	C 	0.63722	0.92704	0.99	0.154
Mof_C 	C 	0.22976	0.12972	0.36643	0.092
Mof_C 	C 	0.14457	0.19914	0.4053	-0.184
Mof_C 	C 	0.95816	0.24052	0.3857	0.123
Mof_C 	C 	0.86502	0.20664	0.3244	-0.173
Mof_C 	C 	0.96328	0.13836	0.2875	0.082
Mof_C 	C 	0.86655	0.3125	0.429	-0.121
Mof_C 	C 	0.70124	0.36428	0.4139	-0.037
Mof_C 	C 	0.60282	0.43404	0.4589	0.024
Mof_C 	C 	0.68013	0.45766	0.5224	-0.061
Mof_C 	C 	0.42141	0.47802	0.4378	-0.061
Mof_C 	C 	0.32866	0.86472	0.3451	0.387
Mof_C 	C 	0.45739	0.83078	0.4008	-0.299
Mof_C 	C 	0.6934	0.992	0.4637	0.224
Mof_C 	C 	0.48205	0.9175	0.45292	-0.059
Mof_C 	C 	0.28982	0.92704	0.49	0.225
Mof_C 	C 	0.10004	0.87028	0.13357	0.103
Mof_C 	C 	0.94543	0.80086	0.0947	-0.172
Mof_C 	C 	0.71764	0.75948	0.1143	0.127
Mof_C 	C 	0.65838	0.79336	0.1756	-0.159
Mof_C 	C 	0.82492	0.86164	0.2125	0.097
Mof_C 	C 	0.55405	0.6875	0.071	-0.103
Mof_C 	C 	0.33696	0.63572	0.0861	-0.062
Mof_C 	C 	0.16878	0.56596	0.0411	0.081
Mof_C 	C 	0.22247	0.54234	0.9776	-0.124
Mof_C 	C 	0.94339	0.52198	0.0622	-0.111
Mof_C 	C 	0.46394	0.13528	0.1549	0.46
Mof_C 	C 	0.62661	0.16922	0.0992	-0.549
Mof_C 	C 	0.7014	0.008	0.0363	-0.357
Mof_C 	C 	0.56455	0.0825	0.04708	0.319
Mof_C 	C 	0.36278	0.07296	0.01	-0.352
Mof_N 	N 	0.85681	0.90082	0.69264	-0.254
Mof_N 	N 	0.95599	0.09918	0.80736	-0.289
Mof_N 	N 	0.14319	0.09918	0.30736	-0.286
Mof_N 	N 	0.04401	0.90082	0.19264	-0.253
Mof_O 	O 	0.54655	0.0683	0.69141	-0.523
Mof_O 	O 	0.88641	0.16582	0.6605	-0.373
Mof_O 	O 	0.47825	0.9317	0.80859	-0.437
Mof_O 	O 	0.72059	0.83418	0.8395	-0.326
Mof_O 	O 	0.45345	0.9317	0.30859	-0.435
Mof_O 	O 	0.11359	0.83418	0.3395	-0.322
Mof_O 	O 	0.52175	0.0683	0.19141	-0.52
Mof_O 	O 	0.27941	0.16582	0.1605	-0.369
_end
