data_functionalizedCrystal
_audit_creation_method	'EQeq! by Chris Wilmer'
_symmetry_space_group_name_H-M	'P1'
_symmetry_Int_Tables_number	1
_symmetry_cell_setting	triclinic
loop_
_symmetry_equiv_pos_as_xyz
  x,y,z
_cell_length_a	7.8494
_cell_length_b	9.9876
_cell_length_c	12.6067
_cell_angle_alpha	104.131
_cell_angle_beta	91.094
_cell_angle_gamma	111.882
loop_
_atom_site_label
_atom_site_type_symbol
_atom_site_fract_x
_atom_site_fract_y
_atom_site_fract_z
_atom_site_charge
Mof_Mn	Mn	0.98193	0.27892	0.46437	0.835
Mof_Mn	Mn	0.01807	0.72108	0.53563	0.835
Mof_H 	H 	0.4653	0.8064	0.4582	0.043
Mof_H 	H 	0.6282	0.8706	0.1679	0.054
Mof_H 	H 	0.2509	0.4766	0.1822	0.049
Mof_H 	H 	0.4799	0.6709	0.9936	0.029
Mof_H 	H 	0.2682	0.3866	0.0189	0.066
Mof_H 	H 	0.9067	0.1694	0.6824	-0.009
Mof_H 	H 	0.0297	0.2264	0.8636	0.103
Mof_H 	H 	0.4142	0.5983	0.8221	0.106
Mof_H 	H 	0.2798	0.5294	0.6443	-0.005
Mof_H 	H 	0.5347	0.1936	0.5418	0.043
Mof_H 	H 	0.3718	0.1294	0.8321	0.054
Mof_H 	H 	0.7491	0.5234	0.8178	0.049
Mof_H 	H 	0.5201	0.3291	0.0064	0.029
Mof_H 	H 	0.7318	0.6134	0.9811	0.066
Mof_H 	H 	0.0933	0.8306	0.3176	-0.009
Mof_H 	H 	0.9703	0.7736	0.1364	0.103
Mof_H 	H 	0.5858	0.4017	0.1779	0.106
Mof_H 	H 	0.7202	0.4706	0.3557	-0.005
Mof_C 	C 	0.2114	0.5384	0.3954	0.342
Mof_C 	C 	0.3328	0.6316	0.3299	-0.095
Mof_C 	C 	0.4558	0.7718	0.3819	0.016
Mof_C 	C 	0.5695	0.866	0.322	-0.07
Mof_C 	C 	0.712	0.0171	0.3797	0.308
Mof_C 	C 	0.5578	0.8092	0.209	-0.032
Mof_C 	C 	0.4428	0.6624	0.1562	0.003
Mof_C 	C 	0.3299	0.5748	0.2171	-0.021
Mof_C 	C 	0.4746	0.6007	0.0371	0.001
Mof_C 	C 	0.3505	0.4391	0.9718	-0.118
Mof_C 	C 	0.0117	0.2565	0.7103	0.129
Mof_C 	C 	0.086	0.2893	0.8199	-0.203
Mof_C 	C 	0.2439	0.4163	0.862	0.15
Mof_C 	C 	0.3125	0.5083	0.7957	-0.199
Mof_C 	C 	0.2292	0.4661	0.6887	0.122
Mof_C 	C 	0.7886	0.4616	0.6046	0.342
Mof_C 	C 	0.6672	0.3684	0.6701	-0.095
Mof_C 	C 	0.5442	0.2282	0.6181	0.016
Mof_C 	C 	0.4305	0.134	0.678	-0.07
Mof_C 	C 	0.288	0.9829	0.6203	0.308
Mof_C 	C 	0.4422	0.1908	0.791	-0.032
Mof_C 	C 	0.5572	0.3376	0.8438	0.003
Mof_C 	C 	0.6701	0.4252	0.7829	-0.021
Mof_C 	C 	0.5254	0.3993	0.9629	0.001
Mof_C 	C 	0.6495	0.5609	0.0282	-0.118
Mof_C 	C 	0.9883	0.7435	0.2897	0.129
Mof_C 	C 	0.914	0.7107	0.1801	-0.203
Mof_C 	C 	0.7561	0.5837	0.138	0.15
Mof_C 	C 	0.6875	0.4917	0.2043	-0.199
Mof_C 	C 	0.7708	0.5339	0.3113	0.122
Mof_N 	N 	0.0817	0.3413	0.645	-0.215
Mof_N 	N 	0.9183	0.6587	0.355	-0.215
Mof_O 	O 	0.1287	0.4003	0.3522	-0.36
Mof_O 	O 	0.1967	0.6001	0.4929	-0.373
Mof_O 	O 	0.7781	0.0431	0.4753	-0.335
Mof_O 	O 	0.763	0.1144	0.3267	-0.321
Mof_O 	O 	0.8713	0.5997	0.6478	-0.36
Mof_O 	O 	0.8033	0.3999	0.5071	-0.373
Mof_O 	O 	0.2219	0.9569	0.5247	-0.335
Mof_O 	O 	0.237	0.8856	0.6733	-0.321
_end
