data_functionalizedCrystal
_audit_creation_method	'EQeq! by Chris Wilmer'
_symmetry_space_group_name_H-M	'P1'
_symmetry_Int_Tables_number	1
_symmetry_cell_setting	triclinic
loop_
_symmetry_equiv_pos_as_xyz
  x,y,z
_cell_length_a	6.5678
_cell_length_b	16.4055
_cell_length_c	13.1687
_cell_angle_alpha	90
_cell_angle_beta	90
_cell_angle_gamma	90
loop_
_atom_site_label
_atom_site_type_symbol
_atom_site_fract_x
_atom_site_fract_y
_atom_site_fract_z
_atom_site_charge
Mof_O 	O 	0.1694	0.16805	0.84015	-1.677
Mof_C 	C 	0.8068	0.0298	0.9591	0.019
Mof_O 	O 	0.6694	0.66805	0.34015	-1.665
Mof_C 	C 	0.3068	0.5298	0.4591	0.069
Mof_O 	O 	0.8306	0.33195	0.84015	-1.697
Mof_C 	C 	0.1932	0.4702	0.9591	0.055
Mof_O 	O 	0.3306	0.83195	0.34015	-1.665
Mof_C 	C 	0.6932	0.9702	0.4591	0.046
Mof_O 	O 	0.8306	0.66805	0.15985	-1.697
Mof_C 	C 	0.1932	0.5298	0.0409	0.055
Mof_O 	O 	0.3306	0.16805	0.65985	-1.665
Mof_C 	C 	0.6932	0.0298	0.5409	0.046
Mof_O 	O 	0.1694	0.83195	0.15985	-1.676
Mof_C 	C 	0.8068	0.9702	0.0409	0.02
Mof_O 	O 	0.6694	0.33195	0.65985	-1.665
Mof_C 	C 	0.3068	0.4702	0.5409	0.069
Mof_O 	O 	0.8306	0.83195	0.15985	-1.696
Mof_C 	C 	0.1932	0.9702	0.0409	0.055
Mof_O 	O 	0.3306	0.33195	0.65985	-1.665
Mof_C 	C 	0.6932	0.4702	0.5409	0.046
Mof_O 	O 	0.1694	0.66805	0.15985	-1.676
Mof_C 	C 	0.8068	0.5298	0.0409	0.02
Mof_O 	O 	0.6694	0.16805	0.65985	-1.665
Mof_C 	C 	0.3068	0.0298	0.5409	0.068
Mof_O 	O 	0.1694	0.33195	0.84015	-1.676
Mof_C 	C 	0.8068	0.4702	0.9591	0.02
Mof_O 	O 	0.6694	0.83195	0.34015	-1.665
Mof_C 	C 	0.3068	0.9702	0.4591	0.068
Mof_O 	O 	0.8306	0.16805	0.84015	-1.696
Mof_C 	C 	0.1932	0.0298	0.9591	0.055
Mof_O 	O 	0.3306	0.66805	0.34015	-1.665
Mof_C 	C 	0.6932	0.5298	0.4591	0.046
Mof_Al	Al	0.25	0.25	0.75	7.079
Mof_Al	Al	0.75	0.25	0.75	6.98
Mof_Al	Al	0.75	0.75	0.25	6.98
Mof_Al	Al	0.25	0.75	0.25	7.079
Mof_F 	F 	5.21653e-33	0.25	0.6939	-2.361
Mof_F 	F 	0.5	0.75	0.1939	-2.385
Mof_F 	F 	2.00921e-32	0.75	0.3061	-2.361
Mof_F 	F 	0.5	0.25	0.8061	-2.385
Mof_C 	C 	7.12602e-33	0.0644	0.9479	-0.255
Mof_C 	C 	2.43298e-32	0.1376	0.8698	1.227
Mof_C 	C 	0.5	0.5644	0.4479	-0.295
Mof_C 	C 	0.5	0.6376	0.3698	1.18
Mof_C 	C 	-1.06649e-32	0.4356	0.9479	-0.255
Mof_C 	C 	2.43298e-32	0.3624	0.8698	1.227
Mof_C 	C 	0.5	0.9356	0.4479	-0.295
Mof_C 	C 	0.5	0.8624	0.3698	1.18
Mof_C 	C 	-1.83219e-33	0.5644	0.0521	-0.255
Mof_C 	C 	-3.46892e-33	0.6376	0.1302	1.227
Mof_C 	C 	0.5	0.0644	0.5521	-0.295
Mof_C 	C 	0.5	0.1376	0.6302	1.18
Mof_C 	C 	1.59587e-32	0.9356	0.0521	-0.255
Mof_C 	C 	1.4322e-32	0.8624	0.1302	1.227
Mof_C 	C 	0.5	0.4356	0.5521	-0.295
Mof_C 	C 	0.5	0.3624	0.6302	1.18
_end
