data_functionalizedCrystal
_audit_creation_method	'EQeq! by Chris Wilmer'
_symmetry_space_group_name_H-M	'P1'
_symmetry_Int_Tables_number	1
_symmetry_cell_setting	triclinic
loop_
_symmetry_equiv_pos_as_xyz
  x,y,z
_cell_length_a	9.6706
_cell_length_b	11.7551
_cell_length_c	12.3115
_cell_angle_alpha	90
_cell_angle_beta	99.269
_cell_angle_gamma	90
loop_
_atom_site_label
_atom_site_type_symbol
_atom_site_fract_x
_atom_site_fract_y
_atom_site_fract_z
_atom_site_charge
Mof_Eu	Eu	0.28617	0.01554	0.16909	2.313
Mof_O 	O 	0.3605	0.2154	0.1563	-0.422
Mof_O 	O 	0.1921	0.1408	0.2943	-0.452
Mof_O 	O 	0.316	0.3948	0.2001	-0.425
Mof_O 	O 	0.1339	0.31971	0.3278	-0.439
Mof_O 	O 	0.3186	0.0118	0.9773	-0.417
Mof_O 	O 	0.4664	0.9863	0.8577	-0.431
Mof_O 	O 	0.1023	0.8911	0.0671	-0.42
Mof_O 	O 	0.9161	0.8819	0.9334	-0.438
Mof_C 	C 	0.3012	0.289	0.2061	0.264
Mof_C 	C 	0.1998	0.2452	0.2822	0.288
Mof_C 	C 	0.4379	0.999	0.9531	0.275
Mof_C 	C 	0.0059	0.9341	0.0008	0.296
Mof_Eu	Eu	0.21383	0.51554	0.33091	2.333
Mof_O 	O 	0.1395	0.7154	0.3437	-0.423
Mof_O 	O 	0.3079	0.6408	0.2057	-0.454
Mof_O 	O 	0.184	0.8948	0.2999	-0.42
Mof_O 	O 	0.3661	0.81971	0.1722	-0.434
Mof_O 	O 	0.1814	0.5118	0.5227	-0.434
Mof_O 	O 	0.0336	0.4863	0.6423	-0.434
Mof_O 	O 	0.3977	0.3911	0.4329	-0.422
Mof_O 	O 	0.5839	0.3819	0.5666	-0.426
Mof_C 	C 	0.1988	0.789	0.2939	0.264
Mof_C 	C 	0.3002	0.7452	0.2178	0.288
Mof_C 	C 	0.0621	0.499	0.5469	0.287
Mof_C 	C 	0.4941	0.4341	0.4992	0.286
Mof_Eu	Eu	0.71383	0.98446	0.83091	2.312
Mof_O 	O 	0.6395	0.7846	0.8437	-0.423
Mof_O 	O 	0.8079	0.8592	0.7057	-0.453
Mof_O 	O 	0.684	0.6052	0.7999	-0.426
Mof_O 	O 	0.8661	0.68029	0.6722	-0.44
Mof_O 	O 	0.6814	0.9882	0.0227	-0.418
Mof_O 	O 	0.5336	0.0137	0.1423	-0.431
Mof_O 	O 	0.8977	0.1089	0.9329	-0.42
Mof_O 	O 	0.0839	0.1181	0.0666	-0.438
Mof_C 	C 	0.6988	0.711	0.7939	0.264
Mof_C 	C 	0.8002	0.7548	0.7178	0.288
Mof_C 	C 	0.5621	0.001	0.0469	0.275
Mof_C 	C 	0.9941	0.0659	0.9992	0.296
Mof_Eu	Eu	0.78617	0.48446	0.66909	2.333
Mof_O 	O 	0.8605	0.2846	0.6563	-0.423
Mof_O 	O 	0.6921	0.3592	0.7943	-0.454
Mof_O 	O 	0.816	0.1052	0.7001	-0.42
Mof_O 	O 	0.6339	0.18029	0.8278	-0.434
Mof_O 	O 	0.8186	0.4882	0.4773	-0.434
Mof_O 	O 	0.9664	0.5137	0.3577	-0.434
Mof_O 	O 	0.6023	0.6089	0.5671	-0.422
Mof_O 	O 	0.4161	0.6181	0.4334	-0.426
Mof_C 	C 	0.8012	0.211	0.7061	0.264
Mof_C 	C 	0.6998	0.2548	0.7822	0.288
Mof_C 	C 	0.9379	0.501	0.4531	0.287
Mof_C 	C 	0.5059	0.5659	0.5008	0.286
_end
