data_functionalizedCrystal
_audit_creation_method	'EQeq! by Chris Wilmer'
_symmetry_space_group_name_H-M	'P1'
_symmetry_Int_Tables_number	1
_symmetry_cell_setting	triclinic
loop_
_symmetry_equiv_pos_as_xyz
  x,y,z
_cell_length_a	14.9235
_cell_length_b	15.1203
_cell_length_c	15.9793
_cell_angle_alpha	67.399
_cell_angle_beta	68.016
_cell_angle_gamma	70.67
loop_
_atom_site_label
_atom_site_type_symbol
_atom_site_fract_x
_atom_site_fract_y
_atom_site_fract_z
_atom_site_charge
Mof_Co	Co	0.24835	0.9325	0.98581	1.182
Mof_C 	C 	0.67304	0.51426	0.13259	-1.002
Mof_B 	B 	0.6395	0.6335	0.0693	0.736
Mof_H 	H 	0.5682	0.6661	0.0499	-0.254
Mof_B 	B 	0.7352	0.551	0.0134	0.125
Mof_H 	H 	0.7272	0.5281	0.9582	-0.072
Mof_B 	B 	0.7997	0.4683	0.0966	0.956
Mof_H 	H 	0.8346	0.3906	0.0955	-0.315
Mof_B 	B 	0.7417	0.499	0.2049	0.189
Mof_H 	H 	0.7382	0.4415	0.2752	-0.106
Mof_B 	B 	0.6425	0.60257	0.1874	0.759
Mof_H 	H 	0.5734	0.615	0.2458	-0.26
Mof_B 	B 	0.7503	0.6708	0.9923	0.223
Mof_H 	H 	0.7526	0.7289	0.9225	-0.101
Mof_B 	B 	0.8504	0.5676	0.0087	-0.424
Mof_H 	H 	0.919	0.5565	0.9496	0.072
Mof_B 	B 	0.8532	0.5349	0.1279	-0.404
Mof_H 	H 	0.9244	0.5016	0.1475	0.057
Mof_B 	B 	0.7569	0.6178	0.1841	0.158
Mof_H 	H 	0.7638	0.6406	0.24	-0.08
Mof_C 	C 	0.69591	0.69317	0.10019	-0.881
Mof_B 	B 	0.8235	0.6599	0.0633	0.891
Mof_H 	H 	0.8742	0.7107	0.0399	-0.288
Mof_C 	C 	0.65055	0.80196	0.09999	0.399
Mof_H 	H 	0.6995	0.8427	0.0542	-0.088
Mof_O 	O 	0.63147	0.80816	0.19191	-0.462
Mof_H 	H 	0.6581	0.8511	0.1881	0.283
Mof_C 	C 	0.55548	0.84153	0.07081	-0.095
Mof_C 	C 	0.55686	0.88094	0.97624	-0.021
Mof_H 	H 	0.6174	0.888	0.928	0.043
Mof_C 	C 	0.46822	0.90979	0.9535	0.035
Mof_H 	H 	0.4696	0.9356	0.8887	0.022
Mof_N 	N 	0.38052	0.90273	0.01925	-0.214
Mof_C 	C 	0.37963	0.86938	0.11057	0.025
Mof_H 	H 	0.3177	0.8673	0.1577	0.029
Mof_C 	C 	0.46474	0.83793	0.13898	-0.03
Mof_H 	H 	0.4611	0.8142	0.2043	0.054
Mof_C 	C 	0.5974	0.449	0.1692	0.947
Mof_H 	H 	0.5849	0.423	0.2394	-0.691
Mof_O 	O 	0.5068	0.5044	0.1532	0.49
Mof_H 	H 	0.4622	0.4734	0.189	-0.105
Mof_C 	C 	0.63514	0.3595	0.1332	-0.302
Mof_C 	C 	0.6101	0.35916	0.0581	0.113
Mof_H 	H 	0.5706	0.4161	0.026	-0.022
Mof_C 	C 	0.6434	0.27437	0.0303	-0.084
Mof_H 	H 	0.6262	0.2755	0.9783	0.057
Mof_N 	N 	0.69836	0.19126	0.07292	-0.179
Mof_C 	C 	0.7232	0.19279	0.14464	-0.047
Mof_H 	H 	0.7638	0.1353	0.1748	0.043
Mof_C 	C 	0.6929	0.27385	0.1771	0.104
Mof_H 	H 	0.7116	0.2708	0.229	-0.012
Mof_O 	O 	0.1883	0.83769	0.10999	-0.428
Mof_C 	C 	0.11082	0.81144	0.12114	0.363
Mof_O 	O 	0.04751	0.85879	0.07727	-0.429
Mof_C 	C 	0.09628	0.71338	0.19091	-0.108
Mof_C 	C 	0.1604	0.65782	0.24678	0.029
Mof_H 	H 	0.2112	0.6843	0.2444	0.026
Mof_C 	C 	0.15031	0.56422	0.30568	-0.108
Mof_H 	H 	0.1939	0.527	0.3439	0.059
Mof_C 	C 	0.07646	0.52431	0.3092	0.045
Mof_C 	C 	0.01083	0.58186	0.25513	-0.139
Mof_H 	H 	0.959	0.5563	0.2585	0.077
Mof_C 	C 	0.0203	0.67566	0.19678	0.001
Mof_H 	H 	0.9749	0.7141	0.1608	0.053
Mof_C 	C 	0.07343	0.41974	0.36037	0.016
Mof_C 	C 	0.05944	0.36491	0.31485	-0.091
Mof_H 	H 	0.0485	0.3966	0.2543	0.039
Mof_C 	C 	0.06111	0.26472	0.35609	0.012
Mof_C 	C 	0.07649	0.2196	0.44593	-0.093
Mof_H 	H 	0.0765	0.1518	0.4757	0.05
Mof_C 	C 	0.09187	0.27269	0.49242	0.025
Mof_C 	C 	0.0899	0.37293	0.44927	-0.096
Mof_H 	H 	0.0998	0.4095	0.4807	0.056
Mof_C 	C 	0.05783	0.20826	0.29945	0.045
Mof_C 	C 	0.00535	0.25158	0.2322	-0.145
Mof_H 	H 	0.9623	0.3144	0.2295	0.076
Mof_C 	C 	0.01515	0.20403	0.16916	-0.003
Mof_H 	H 	0.9764	0.2329	0.1259	0.051
Mof_C 	C 	0.08144	0.11432	0.1692	-0.12
Mof_C 	C 	0.12911	0.06777	0.2397	0.032
Mof_H 	H 	0.1716	0.0046	0.2426	0.006
Mof_C 	C 	0.11498	0.11301	0.3057	-0.117
Mof_H 	H 	0.1446	0.0788	0.3559	0.056
Mof_C 	C 	0.1016	0.06804	0.09387	0.372
Mof_O 	O 	0.02751	0.06158	0.07916	-0.452
Mof_O 	O 	0.19187	0.0399	0.05245	-0.45
Mof_C 	C 	0.11472	0.22065	0.58466	0.032
Mof_C 	C 	0.06361	0.14969	0.65347	-0.098
Mof_H 	H 	0.0098	0.1384	0.6437	0.049
Mof_C 	C 	0.09086	0.09547	0.73617	0.02
Mof_H 	H 	0.0558	0.0472	0.7826	0.014
Mof_C 	C 	0.16955	0.11189	0.75103	-0.111
Mof_C 	C 	0.22045	0.18313	0.68304	0.022
Mof_H 	H 	0.274	0.1947	0.693	0.028
Mof_C 	C 	0.19267	0.23734	0.60038	-0.098
Mof_H 	H 	0.2272	0.2862	0.5543	0.057
Mof_C 	C 	0.20049	0.04973	0.83784	0.297
Mof_O 	O 	0.2837	0.04445	0.84524	-0.404
Mof_O 	O 	0.14508	0.9949	0.90486	-0.46
Mof_H 	H 	0.5393	0.4904	0.1448	-0.688
Mof_O 	O 	0.5644	0.4276	0.2652	0.479
Mof_H 	H 	0.5176	0.3988	0.2861	-0.067
Mof_Co	Co	0.75165	0.0675	0.01419	1.145
Mof_C 	C 	0.32696	0.48574	0.86741	-1.039
Mof_B 	B 	0.3605	0.3665	0.9307	0.853
Mof_H 	H 	0.4318	0.3339	0.9501	-0.279
Mof_B 	B 	0.2648	0.449	0.9866	0.252
Mof_H 	H 	0.2728	0.4719	0.0418	-0.126
Mof_B 	B 	0.2003	0.5317	0.9034	0.824
Mof_H 	H 	0.1654	0.6094	0.9045	-0.279
Mof_B 	B 	0.2583	0.501	0.7951	0.356
Mof_H 	H 	0.2618	0.5585	0.7248	-0.153
Mof_B 	B 	0.3575	0.39743	0.8126	0.652
Mof_H 	H 	0.4266	0.385	0.7542	-0.231
Mof_B 	B 	0.2497	0.3292	0.0077	-0.076
Mof_H 	H 	0.2474	0.2711	0.0775	-0.024
Mof_B 	B 	0.1496	0.4324	0.9913	-0.24
Mof_H 	H 	0.081	0.4435	0.0504	-0.009
Mof_B 	B 	0.1468	0.4651	0.8721	-0.511
Mof_H 	H 	0.0756	0.4984	0.8525	0.074
Mof_B 	B 	0.2431	0.3822	0.8159	0.113
Mof_H 	H 	0.2362	0.3594	0.76	-0.07
Mof_C 	C 	0.30409	0.30683	0.89981	-0.814
Mof_B 	B 	0.1765	0.3401	0.9367	0.985
Mof_H 	H 	0.1258	0.2893	0.9601	-0.313
Mof_C 	C 	0.34945	0.19804	0.90001	0.362
Mof_H 	H 	0.3005	0.1573	0.9458	-0.073
Mof_O 	O 	0.36853	0.19184	0.80809	-0.459
Mof_H 	H 	0.3419	0.1489	0.8119	0.274
Mof_C 	C 	0.44452	0.15847	0.92919	-0.055
Mof_C 	C 	0.44314	0.11906	0.02376	-0.076
Mof_H 	H 	0.3826	0.112	0.072	0.044
Mof_C 	C 	0.53178	0.09021	0.0465	0.013
Mof_H 	H 	0.5304	0.0644	0.1113	0.004
Mof_N 	N 	0.61948	0.09727	0.98075	-0.211
Mof_C 	C 	0.62037	0.13062	0.88943	0.028
Mof_H 	H 	0.6823	0.1327	0.8423	0.014
Mof_C 	C 	0.53526	0.16207	0.86102	-0.058
Mof_H 	H 	0.5389	0.1858	0.7957	0.055
Mof_C 	C 	0.4026	0.551	0.8308	0.953
Mof_H 	H 	0.4151	0.577	0.7606	-0.69
Mof_O 	O 	0.4932	0.4956	0.8468	0.484
Mof_H 	H 	0.5378	0.5266	0.811	-0.1
Mof_C 	C 	0.36486	0.6405	0.8668	-0.288
Mof_C 	C 	0.3899	0.64084	0.9419	0.084
Mof_H 	H 	0.4294	0.5839	0.974	-0.002
Mof_C 	C 	0.3566	0.72563	0.9697	-0.02
Mof_H 	H 	0.3738	0.7245	0.0217	0.017
Mof_N 	N 	0.30164	0.80874	0.92708	-0.182
Mof_C 	C 	0.2768	0.80721	0.85536	-0.039
Mof_H 	H 	0.2362	0.8647	0.8252	0.054
Mof_C 	C 	0.3071	0.72615	0.8229	0.098
Mof_H 	H 	0.2884	0.7292	0.771	-0.007
Mof_O 	O 	0.8117	0.16231	0.89001	-0.432
Mof_C 	C 	0.88918	0.18856	0.87886	0.374
Mof_O 	O 	0.95249	0.14121	0.92273	-0.408
Mof_C 	C 	0.90372	0.28662	0.80909	-0.118
Mof_C 	C 	0.8396	0.34218	0.75322	0.035
Mof_H 	H 	0.7888	0.3157	0.7556	0.026
Mof_C 	C 	0.84969	0.43578	0.69432	-0.093
Mof_H 	H 	0.8061	0.473	0.6561	0.058
Mof_C 	C 	0.92354	0.47569	0.6908	0.021
Mof_C 	C 	0.98917	0.41814	0.74487	-0.062
Mof_H 	H 	0.041	0.4437	0.7415	0.015
Mof_C 	C 	0.9797	0.32434	0.80322	0.069
Mof_H 	H 	0.0251	0.2859	0.8392	-0.003
Mof_C 	C 	0.92657	0.58026	0.63963	0.05
Mof_C 	C 	0.94056	0.63509	0.68515	-0.11
Mof_H 	H 	0.9515	0.6034	0.7457	0.061
Mof_C 	C 	0.93889	0.73528	0.64391	0.051
Mof_C 	C 	0.92351	0.7804	0.55407	-0.109
Mof_H 	H 	0.9235	0.8482	0.5243	0.075
Mof_C 	C 	0.90813	0.72731	0.50758	0.048
Mof_C 	C 	0.9101	0.62707	0.55073	-0.109
Mof_H 	H 	0.9002	0.5905	0.5193	0.071
Mof_C 	C 	0.94217	0.79174	0.70055	0.019
Mof_C 	C 	0.99465	0.74842	0.7678	-0.059
Mof_H 	H 	0.0377	0.6856	0.7705	0.011
Mof_C 	C 	0.98485	0.79597	0.83084	0.054
Mof_H 	H 	0.0236	0.7671	0.8741	-0.001
Mof_C 	C 	0.91856	0.88568	0.8308	-0.109
Mof_C 	C 	0.87089	0.93223	0.7603	0.033
Mof_H 	H 	0.8284	0.9954	0.7574	0.038
Mof_C 	C 	0.88502	0.88699	0.6943	-0.088
Mof_H 	H 	0.8554	0.9212	0.6441	0.068
Mof_C 	C 	0.8984	0.93196	0.90613	0.375
Mof_O 	O 	0.97249	0.93842	0.92084	-0.384
Mof_O 	O 	0.80813	0.9601	0.94755	-0.398
Mof_C 	C 	0.88528	0.77935	0.41534	0.042
Mof_C 	C 	0.93639	0.85031	0.34653	-0.092
Mof_H 	H 	0.9902	0.8616	0.3563	0.078
Mof_C 	C 	0.90914	0.90453	0.26383	0.045
Mof_H 	H 	0.9442	0.9528	0.2174	0.055
Mof_C 	C 	0.83045	0.88811	0.24897	-0.126
Mof_C 	C 	0.77955	0.81687	0.31696	0.043
Mof_H 	H 	0.726	0.8053	0.307	0.026
Mof_C 	C 	0.80733	0.76266	0.39962	-0.098
Mof_H 	H 	0.7728	0.7138	0.4457	0.063
Mof_C 	C 	0.79951	0.95027	0.16216	0.396
Mof_O 	O 	0.7163	0.95555	0.15476	-0.396
Mof_O 	O 	0.85492	0.0051	0.09514	-0.55
Mof_H 	H 	0.4607	0.5096	0.8552	-0.683
Mof_O 	O 	0.4356	0.5724	0.7348	0.475
Mof_H 	H 	0.4824	0.6012	0.7139	-0.062
Mof_Co	Co	-0	0	-0	1.166
_end
