data_functionalizedCrystal
_audit_creation_method	'EQeq! by Chris Wilmer'
_symmetry_space_group_name_H-M	'P1'
_symmetry_Int_Tables_number	1
_symmetry_cell_setting	triclinic
loop_
_symmetry_equiv_pos_as_xyz
  x,y,z
_cell_length_a	19.21
_cell_length_b	19.21
_cell_length_c	10.994
_cell_angle_alpha	90
_cell_angle_beta	90
_cell_angle_gamma	90
loop_
_atom_site_label
_atom_site_type_symbol
_atom_site_fract_x
_atom_site_fract_y
_atom_site_fract_z
_atom_site_charge
Mof_O 	O 	0.48383	0.38168	0.5082	-0.408
Mof_O 	O 	0.5356	0.43335	0.3506	-0.413
Mof_C 	C 	0.5797	0.3096	0.2599	0.086
Mof_H 	H 	0.5943	0.3514	0.2259	0.008
Mof_C 	C 	0.5342	0.3116	0.3568	-0.138
Mof_C 	C 	0.5149	0.3814	0.4095	0.388
Mof_O 	O 	0.01617	0.11832	0.5082	-0.408
Mof_O 	O 	0.9644	0.06665	0.3506	-0.413
Mof_C 	C 	0.9203	0.1904	0.2599	0.087
Mof_H 	H 	0.9057	0.1486	0.2259	0.008
Mof_C 	C 	0.9658	0.1884	0.3568	-0.138
Mof_C 	C 	0.9851	0.1186	0.4095	0.389
Mof_O 	O 	0.11832	0.48383	0.5082	-0.408
Mof_O 	O 	0.06665	0.5356	0.3506	-0.413
Mof_C 	C 	0.1904	0.5797	0.2599	0.086
Mof_H 	H 	0.1486	0.5943	0.2259	0.008
Mof_C 	C 	0.1884	0.5342	0.3568	-0.138
Mof_C 	C 	0.1186	0.5149	0.4095	0.388
Mof_O 	O 	0.38168	0.01617	0.5082	-0.408
Mof_O 	O 	0.43335	0.9644	0.3506	-0.414
Mof_C 	C 	0.3096	0.9203	0.2599	0.087
Mof_H 	H 	0.3514	0.9057	0.2259	0.008
Mof_C 	C 	0.3116	0.9658	0.3568	-0.138
Mof_C 	C 	0.3814	0.9851	0.4095	0.389
Mof_O 	O 	0.51617	0.88168	0.4918	-0.408
Mof_O 	O 	0.4644	0.93335	0.6494	-0.413
Mof_C 	C 	0.4203	0.8096	0.7401	0.086
Mof_H 	H 	0.4057	0.8514	0.7741	0.008
Mof_C 	C 	0.4658	0.8116	0.6432	-0.138
Mof_C 	C 	0.4851	0.8814	0.5905	0.388
Mof_O 	O 	0.98383	0.61832	0.4918	-0.408
Mof_O 	O 	0.0356	0.56665	0.6494	-0.414
Mof_C 	C 	0.0797	0.6904	0.7401	0.087
Mof_H 	H 	0.0943	0.6486	0.7741	0.008
Mof_C 	C 	0.0342	0.6884	0.6432	-0.138
Mof_C 	C 	0.0149	0.6186	0.5905	0.389
Mof_O 	O 	0.88168	0.98383	0.4918	-0.408
Mof_O 	O 	0.93335	0.0356	0.6494	-0.413
Mof_C 	C 	0.8096	0.0797	0.7401	0.087
Mof_H 	H 	0.8514	0.0943	0.7741	0.008
Mof_C 	C 	0.8116	0.0342	0.6432	-0.138
Mof_C 	C 	0.8814	0.0149	0.5905	0.389
Mof_O 	O 	0.61832	0.51617	0.4918	-0.408
Mof_O 	O 	0.56665	0.4644	0.6494	-0.413
Mof_C 	C 	0.6904	0.4203	0.7401	0.086
Mof_H 	H 	0.6486	0.4057	0.7741	0.008
Mof_C 	C 	0.6884	0.4658	0.6432	-0.138
Mof_C 	C 	0.6186	0.4851	0.5905	0.388
Mof_O 	O 	0.51617	0.61832	0.4918	-0.408
Mof_O 	O 	0.4644	0.56665	0.6494	-0.413
Mof_C 	C 	0.4203	0.6904	0.7401	0.086
Mof_H 	H 	0.4057	0.6486	0.7741	0.008
Mof_C 	C 	0.4658	0.6884	0.6432	-0.138
Mof_C 	C 	0.4851	0.6186	0.5905	0.388
Mof_O 	O 	0.98383	0.88168	0.4918	-0.408
Mof_O 	O 	0.0356	0.93335	0.6494	-0.413
Mof_C 	C 	0.0797	0.8096	0.7401	0.087
Mof_H 	H 	0.0943	0.8514	0.7741	0.008
Mof_C 	C 	0.0342	0.8116	0.6432	-0.138
Mof_C 	C 	0.0149	0.8814	0.5905	0.389
Mof_O 	O 	0.88168	0.51617	0.4918	-0.408
Mof_O 	O 	0.93335	0.4644	0.6494	-0.413
Mof_C 	C 	0.8096	0.4203	0.7401	0.086
Mof_H 	H 	0.8514	0.4057	0.7741	0.008
Mof_C 	C 	0.8116	0.4658	0.6432	-0.138
Mof_C 	C 	0.8814	0.4851	0.5905	0.388
Mof_O 	O 	0.61832	0.98383	0.4918	-0.408
Mof_O 	O 	0.56665	0.0356	0.6494	-0.414
Mof_C 	C 	0.6904	0.0797	0.7401	0.087
Mof_H 	H 	0.6486	0.0943	0.7741	0.008
Mof_C 	C 	0.6884	0.0342	0.6432	-0.138
Mof_C 	C 	0.6186	0.0149	0.5905	0.389
Mof_O 	O 	0.48383	0.11832	0.5082	-0.408
Mof_O 	O 	0.5356	0.06665	0.3506	-0.413
Mof_C 	C 	0.5797	0.1904	0.2599	0.086
Mof_H 	H 	0.5943	0.1486	0.2259	0.008
Mof_C 	C 	0.5342	0.1884	0.3568	-0.138
Mof_C 	C 	0.5149	0.1186	0.4095	0.388
Mof_O 	O 	0.01617	0.38168	0.5082	-0.408
Mof_O 	O 	0.9644	0.43335	0.3506	-0.414
Mof_C 	C 	0.9203	0.3096	0.2599	0.087
Mof_H 	H 	0.9057	0.3514	0.2259	0.008
Mof_C 	C 	0.9658	0.3116	0.3568	-0.138
Mof_C 	C 	0.9851	0.3814	0.4095	0.389
Mof_O 	O 	0.11832	0.01617	0.5082	-0.408
Mof_O 	O 	0.06665	0.9644	0.3506	-0.413
Mof_C 	C 	0.1904	0.9203	0.2599	0.087
Mof_H 	H 	0.1486	0.9057	0.2259	0.008
Mof_C 	C 	0.1884	0.9658	0.3568	-0.138
Mof_C 	C 	0.1186	0.9851	0.4095	0.389
Mof_O 	O 	0.38168	0.48383	0.5082	-0.408
Mof_O 	O 	0.43335	0.5356	0.3506	-0.413
Mof_C 	C 	0.3096	0.5797	0.2599	0.086
Mof_H 	H 	0.3514	0.5943	0.2259	0.008
Mof_C 	C 	0.3116	0.5342	0.3568	-0.138
Mof_C 	C 	0.3814	0.5149	0.4095	0.388
Mof_I 	I 	0.62904	0.25	0.86411	-0.558
Mof_Cu	Cu	0.68147	0.25	0.08659	0.718
Mof_N 	N 	0.6038	0.25	0.2125	-0.24
Mof_C 	C 	0.5115	0.25	0.4069	0.087
Mof_H 	H 	0.4814	0.25	0.4732	0.037
Mof_I 	I 	0.87096	0.25	0.86411	-0.558
Mof_Cu	Cu	0.81853	0.25	0.08659	0.718
Mof_N 	N 	0.8962	0.25	0.2125	-0.241
Mof_C 	C 	0.9885	0.25	0.4069	0.088
Mof_H 	H 	0.0186	0.25	0.4732	0.036
Mof_I 	I 	0.25	0.62904	0.86411	-0.558
Mof_Cu	Cu	0.25	0.68147	0.08659	0.718
Mof_N 	N 	0.25	0.6038	0.2125	-0.24
Mof_C 	C 	0.25	0.5115	0.4069	0.087
Mof_H 	H 	0.25	0.4814	0.4732	0.037
Mof_I 	I 	0.25	0.87096	0.86411	-0.558
Mof_Cu	Cu	0.25	0.81853	0.08659	0.718
Mof_N 	N 	0.25	0.8962	0.2125	-0.241
Mof_C 	C 	0.25	0.9885	0.4069	0.088
Mof_H 	H 	0.25	0.0186	0.4732	0.036
Mof_I 	I 	0.37096	0.75	0.13589	-0.558
Mof_Cu	Cu	0.31853	0.75	0.91341	0.718
Mof_N 	N 	0.3962	0.75	0.7875	-0.24
Mof_C 	C 	0.4885	0.75	0.5931	0.087
Mof_H 	H 	0.5186	0.75	0.5268	0.037
Mof_I 	I 	0.12904	0.75	0.13589	-0.558
Mof_Cu	Cu	0.18147	0.75	0.91341	0.718
Mof_N 	N 	0.1038	0.75	0.7875	-0.241
Mof_C 	C 	0.0115	0.75	0.5931	0.088
Mof_H 	H 	0.9814	0.75	0.5268	0.036
Mof_I 	I 	0.75	0.12904	0.13589	-0.558
Mof_Cu	Cu	0.75	0.18147	0.91341	0.718
Mof_N 	N 	0.75	0.1038	0.7875	-0.241
Mof_C 	C 	0.75	0.0115	0.5931	0.088
Mof_H 	H 	0.75	0.9814	0.5268	0.036
Mof_I 	I 	0.75	0.37096	0.13589	-0.558
Mof_Cu	Cu	0.75	0.31853	0.91341	0.718
Mof_N 	N 	0.75	0.3962	0.7875	-0.24
Mof_C 	C 	0.75	0.4885	0.5931	0.087
Mof_H 	H 	0.75	0.5186	0.5268	0.037
Mof_Cu	Cu	0.46954	0.46954	0.595	0.909
Mof_Cu	Cu	0.03046	0.03046	0.595	0.909
Mof_Cu	Cu	0.03046	0.46954	0.595	0.909
Mof_Cu	Cu	0.46954	0.03046	0.595	0.909
Mof_Cu	Cu	0.53046	0.96954	0.405	0.909
Mof_Cu	Cu	0.96954	0.53046	0.405	0.909
Mof_Cu	Cu	0.96954	0.96954	0.405	0.909
Mof_Cu	Cu	0.53046	0.53046	0.405	0.909
_end
