# CIF file generated by openbabel 3.1.0, see https://openbabel.org
data_I
_chemical_name_common 'image0'
_cell_length_a 6.6293
_cell_length_b 16.7515
_cell_length_c 12.8019
_cell_angle_alpha 90
_cell_angle_beta 90
_cell_angle_gamma 90
_space_group_name_H-M_alt 'P 1'
_space_group_name_Hall 'P 1'
loop_
    _symmetry_equiv_pos_as_xyz
    x,y,z
loop_
    _atom_site_label
    _atom_site_type_symbol
    _atom_site_fract_x
    _atom_site_fract_y
    _atom_site_fract_z
    _atom_site_occupancy
    O1       O        0.16606    0.16780    0.84380    1.000
    C1       C        0.80790    0.03456    0.96680    1.000
    O2       O        0.66606    0.66780    0.34380    1.000
    C2       C        0.30790    0.53456    0.46680    1.000
    O3       O        0.83394    0.33220    0.84380    1.000
    C3       C        0.19210    0.46544    0.96680    1.000
    O4       O        0.33394    0.83220    0.34380    1.000
    C4       C        0.69210    0.96544    0.46680    1.000
    O5       O        0.83394    0.66780    0.15620    1.000
    C5       C        0.19210    0.53456    0.03320    1.000
    O6       O        0.33394    0.16780    0.65620    1.000
    C6       C        0.69210    0.03456    0.53320    1.000
    O7       O        0.16606    0.83220    0.15620    1.000
    C7       C        0.80790    0.96544    0.03320    1.000
    O8       O        0.66606    0.33220    0.65620    1.000
    C8       C        0.30790    0.46544    0.53320    1.000
    O9       O        0.83394    0.83220    0.15620    1.000
    C9       C        0.19210    0.96544    0.03320    1.000
    O10      O        0.33394    0.33220    0.65620    1.000
    C10      C        0.69210    0.46544    0.53320    1.000
    O11      O        0.16606    0.66780    0.15620    1.000
    C11      C        0.80790    0.53456    0.03320    1.000
    O12      O        0.66606    0.16780    0.65620    1.000
    C12      C        0.30790    0.03456    0.53320    1.000
    O13      O        0.16606    0.33220    0.84380    1.000
    C13      C        0.80790    0.46544    0.96680    1.000
    O14      O        0.66606    0.83220    0.34380    1.000
    C14      C        0.30790    0.96544    0.46680    1.000
    O15      O        0.83394    0.16780    0.84380    1.000
    C15      C        0.19210    0.03456    0.96680    1.000
    O16      O        0.33394    0.66780    0.34380    1.000
    C16      C        0.69210    0.53456    0.46680    1.000
    Al1      Al       0.25000    0.25000    0.75000    1.000
    Al2      Al       0.75000    0.25000    0.75000    1.000
    Al3      Al       0.75000    0.75000    0.25000    1.000
    Al4      Al       0.25000    0.75000    0.25000    1.000
    O17      O        0.00000    0.25000    0.68450    1.000
    O18      O        0.50000    0.75000    0.18450    1.000
    O19      O        0.00000    0.75000    0.31550    1.000
    O20      O        0.50000    0.25000    0.81550    1.000
    C17      C        0.00000    0.06260    0.94570    1.000
    C18      C        0.00000    0.13860    0.87020    1.000
    C19      C        0.50000    0.56260    0.44570    1.000
    C20      C        0.50000    0.63860    0.37020    1.000
    C21      C        0.00000    0.43740    0.94570    1.000
    C22      C        0.00000    0.36140    0.87020    1.000
    C23      C        0.50000    0.93740    0.44570    1.000
    C24      C        0.50000    0.86140    0.37020    1.000
    C25      C        0.00000    0.56260    0.05430    1.000
    C26      C        0.00000    0.63860    0.12980    1.000
    C27      C        0.50000    0.06260    0.55430    1.000
    C28      C        0.50000    0.13860    0.62980    1.000
    C29      C        0.00000    0.93740    0.05430    1.000
    C30      C        0.00000    0.86140    0.12980    1.000
    C31      C        0.50000    0.43740    0.55430    1.000
    C32      C        0.50000    0.36140    0.62980    1.000
