# CIF file generated by openbabel 3.1.0, see https://openbabel.org
data_I
_chemical_name_common 'image0'
_cell_length_a 9.1686
_cell_length_b 11.1145
_cell_length_c 11.1899
_cell_angle_alpha 77.156
_cell_angle_beta 68.195
_cell_angle_gamma 78.35
_space_group_name_H-M_alt 'P 1'
_space_group_name_Hall 'P 1'
loop_
    _symmetry_equiv_pos_as_xyz
    x,y,z
loop_
    _atom_site_label
    _atom_site_type_symbol
    _atom_site_fract_x
    _atom_site_fract_y
    _atom_site_fract_z
    _atom_site_occupancy
    Eu1      Eu       0.72641    0.51635    0.52012    1.000
    S1       S        0.07780    0.76299    0.06503    1.000
    O1       O        0.86190    0.67440    0.34890    1.000
    C1       C        0.00550    0.67360    0.33190    1.000
    S2       S        0.30590    0.37920    0.00618    1.000
    O2       O        0.07210    0.60500    0.40570    1.000
    C2       C        0.10340    0.75830    0.21720    1.000
    H1       H        0.21440    0.73180    0.20650    1.000
    H2       H        0.07720    0.84210    0.23760    1.000
    S3       S        0.84850    0.05550    0.37540    1.000
    O3       O        0.42590    0.45320    0.62150    1.000
    C3       C        0.11480    0.60060    0.05140    1.000
    H3       H        0.05200    0.55540    0.13300    1.000
    H4       H        0.07740    0.59070    0.98410    1.000
    O4       O        0.56790    0.43150    0.74490    1.000
    C4       C        0.28610    0.54040    0.01980    1.000
    H5       H        0.32430    0.54680    0.08790    1.000
    H6       H        0.35080    0.58460    0.93830    1.000
    O5       O        0.72920    0.29860    0.48520    1.000
    C5       C        0.29390    0.39800    0.84710    1.000
    H7       H        0.26490    0.32180    0.83890    1.000
    H8       H        0.20810    0.46380    0.84140    1.000
    O6       O        0.91310    0.40550    0.33670    1.000
    C6       C        0.43890    0.42790    0.73270    1.000
    C7       C        0.84550    0.30760    0.38200    1.000
    C8       C        0.91590    0.20010    0.30270    1.000
    H9       H        0.03000    0.18850    0.28130    1.000
    H10      H        0.89510    0.22560    0.22120    1.000
    C9       C        0.91350    0.01440    0.51770    1.000
    H11      H        0.87680    0.08320    0.56650    1.000
    H12      H        0.86500    0.94280    0.57420    1.000
    Eu2      Eu       0.27359    0.48365    0.47988    1.000
    S4       S        0.92220    0.23701    0.93497    1.000
    O7       O        0.13810    0.32560    0.65110    1.000
    C10      C        0.99450    0.32640    0.66810    1.000
    S5       S        0.69410    0.62080    0.99382    1.000
    O8       O        0.92790    0.39500    0.59430    1.000
    C11      C        0.89660    0.24170    0.78280    1.000
    H13      H        0.78560    0.26820    0.79350    1.000
    H14      H        0.92280    0.15790    0.76240    1.000
    S6       S        0.15150    0.94450    0.62460    1.000
    O9       O        0.57410    0.54680    0.37850    1.000
    C12      C        0.88520    0.39940    0.94860    1.000
    H15      H        0.94800    0.44460    0.86700    1.000
    H16      H        0.92260    0.40930    0.01590    1.000
    O10      O        0.43210    0.56850    0.25510    1.000
    C13      C        0.71390    0.45960    0.98020    1.000
    H17      H        0.67570    0.45320    0.91210    1.000
    H18      H        0.64920    0.41540    0.06170    1.000
    O11      O        0.27080    0.70140    0.51480    1.000
    C14      C        0.70610    0.60200    0.15290    1.000
    H19      H        0.73510    0.67820    0.16110    1.000
    H20      H        0.79190    0.53620    0.15860    1.000
    O12      O        0.08690    0.59450    0.66330    1.000
    C15      C        0.56110    0.57210    0.26730    1.000
    C16      C        0.15450    0.69240    0.61800    1.000
    C17      C        0.08410    0.79990    0.69730    1.000
    H21      H        0.97000    0.81150    0.71870    1.000
    H22      H        0.10490    0.77440    0.77880    1.000
    C18      C        0.08650    0.98560    0.48230    1.000
    H23      H        0.12320    0.91680    0.43350    1.000
    H24      H        0.13500    0.05720    0.42580    1.000
