# CIF file generated by openbabel 3.1.0, see https://openbabel.org
data_I
_chemical_name_common 'image0'
_cell_length_a 9.46
_cell_length_b 15.98
_cell_length_c 11.574
_cell_angle_alpha 90
_cell_angle_beta 93.89
_cell_angle_gamma 90
_space_group_name_H-M_alt 'P 1'
_space_group_name_Hall 'P 1'
loop_
    _symmetry_equiv_pos_as_xyz
    x,y,z
loop_
    _atom_site_label
    _atom_site_type_symbol
    _atom_site_fract_x
    _atom_site_fract_y
    _atom_site_fract_z
    _atom_site_occupancy
    Zn1      Zn       0.14276    0.91881    0.45022    1.000
    O1       O        0.98030    0.93190    0.33500    1.000
    O2       O        0.25550    0.81400    0.29250    1.000
    O3       O        0.31650    0.93540    0.37060    1.000
    C1       C        0.59870    0.91240    0.32320    1.000
    H1       H        0.57890    0.95620    0.37250    1.000
    O4       O        0.58720    0.67260    0.04590    1.000
    C2       C        0.34560    0.87190    0.31380    1.000
    O5       O        0.82170    0.98380    0.45070    1.000
    C3       C        0.76710    0.83630    0.22060    1.000
    H2       H        0.86030    0.82760    0.20280    1.000
    C4       C        0.52190    0.80080    0.19750    1.000
    H3       H        0.44890    0.76730    0.16570    1.000
    C5       C        0.49060    0.86260    0.27400    1.000
    C6       C        0.73920    0.89540    0.29710    1.000
    C7       C        0.69330    0.71760    0.08700    1.000
    C8       C        0.65920    0.78670    0.16590    1.000
    C9       C        0.85450    0.94180    0.36430    1.000
    O6       O        0.81670    0.70320    0.06460    1.000
    Zn2      Zn       0.35724    0.41881    0.04978    1.000
    O7       O        0.51970    0.43190    0.16500    1.000
    O8       O        0.24450    0.31400    0.20750    1.000
    O9       O        0.18350    0.43540    0.12940    1.000
    C10      C        0.90130    0.41240    0.17680    1.000
    H4       H        0.92110    0.45620    0.12750    1.000
    O10      O        0.91280    0.17260    0.45410    1.000
    C11      C        0.15440    0.37190    0.18620    1.000
    O11      O        0.67830    0.48380    0.04930    1.000
    C12      C        0.73290    0.33630    0.27940    1.000
    H5       H        0.63970    0.32760    0.29720    1.000
    C13      C        0.97810    0.30080    0.30250    1.000
    H6       H        0.05110    0.26730    0.33430    1.000
    C14      C        0.00940    0.36260    0.22600    1.000
    C15      C        0.76080    0.39540    0.20290    1.000
    C16      C        0.80670    0.21760    0.41300    1.000
    C17      C        0.84080    0.28670    0.33410    1.000
    C18      C        0.64550    0.44180    0.13570    1.000
    O12      O        0.68330    0.20320    0.43540    1.000
    Zn3      Zn       0.85724    0.08119    0.54978    1.000
    O13      O        0.01970    0.06810    0.66500    1.000
    O14      O        0.74450    0.18600    0.70750    1.000
    O15      O        0.68350    0.06460    0.62940    1.000
    C19      C        0.40130    0.08760    0.67680    1.000
    H7       H        0.42110    0.04380    0.62750    1.000
    O16      O        0.41280    0.32740    0.95410    1.000
    C20      C        0.65440    0.12810    0.68620    1.000
    O17      O        0.17830    0.01620    0.54930    1.000
    C21      C        0.23290    0.16370    0.77940    1.000
    H8       H        0.13970    0.17240    0.79720    1.000
    C22      C        0.47810    0.19920    0.80250    1.000
    H9       H        0.55110    0.23270    0.83430    1.000
    C23      C        0.50940    0.13740    0.72600    1.000
    C24      C        0.26080    0.10460    0.70290    1.000
    C25      C        0.30670    0.28240    0.91300    1.000
    C26      C        0.34080    0.21330    0.83410    1.000
    C27      C        0.14550    0.05820    0.63570    1.000
    O18      O        0.18330    0.29680    0.93540    1.000
    Zn4      Zn       0.64276    0.58119    0.95022    1.000
    O19      O        0.48030    0.56810    0.83500    1.000
    O20      O        0.75550    0.68600    0.79250    1.000
    O21      O        0.81650    0.56460    0.87060    1.000
    C28      C        0.09870    0.58760    0.82320    1.000
    H10      H        0.07890    0.54380    0.87250    1.000
    O22      O        0.08720    0.82740    0.54590    1.000
    C29      C        0.84560    0.62810    0.81380    1.000
    O23      O        0.32170    0.51620    0.95070    1.000
    C30      C        0.26710    0.66370    0.72060    1.000
    H11      H        0.36030    0.67240    0.70280    1.000
    C31      C        0.02190    0.69920    0.69750    1.000
    H12      H        0.94890    0.73270    0.66570    1.000
    C32      C        0.99060    0.63740    0.77400    1.000
    C33      C        0.23920    0.60460    0.79710    1.000
    C34      C        0.19330    0.78240    0.58700    1.000
    C35      C        0.15920    0.71330    0.66590    1.000
    C36      C        0.35450    0.55820    0.86430    1.000
    O24      O        0.31670    0.79680    0.56460    1.000
