# CIF file generated by openbabel 3.1.0, see https://openbabel.org
data_I
_chemical_name_common 'image0'
_cell_length_a 7.696
_cell_length_b 21.222
_cell_length_c 19.668
_cell_angle_alpha 90
_cell_angle_beta 97.801
_cell_angle_gamma 90
_space_group_name_H-M_alt 'P 1'
_space_group_name_Hall 'P 1'
loop_
    _symmetry_equiv_pos_as_xyz
    x,y,z
loop_
    _atom_site_label
    _atom_site_type_symbol
    _atom_site_fract_x
    _atom_site_fract_y
    _atom_site_fract_z
    _atom_site_occupancy
    Ce1      Ce       0.00903    0.22313    0.24502    1.000
    C1       C        0.28310    0.21470    0.36870    1.000
    C2       C        0.39670    0.21480    0.43600    1.000
    C3       C        0.44390    0.15740    0.46900    1.000
    N1       N        0.36600    0.10020    0.44680    1.000
    N2       N        0.39600    0.32540    0.44140    1.000
    C4       C        0.44870    0.27150    0.46800    1.000
    C5       C        0.74490    0.18920    0.12370    1.000
    C6       C        0.62060    0.17730    0.05990    1.000
    C7       C        0.68260    0.17460    0.99620    1.000
    C8       C        0.44220    0.17550    0.06270    1.000
    H1       H        0.40340    0.17490    0.10550    1.000
    N3       N        0.85100    0.15990    0.99060    1.000
    C9       C        0.88770    0.36460    0.24970    1.000
    C10      C        0.87790    0.43490    0.25050    1.000
    C11      C        0.75440    0.46700    0.20330    1.000
    C12      C        0.99470    0.46740    0.29840    1.000
    N4       N        0.63100    0.44380    0.14980    1.000
    N5       N        0.12800    0.43970    0.33810    1.000
    O1       O        0.86860    0.11660    0.26560    1.000
    H2       H        0.83060    0.09330    0.23160    1.000
    H3       H        0.97800    0.10810    0.27390    1.000
    O2       O        0.17180    0.17220    0.35340    1.000
    O3       O        0.29630    0.26010    0.32690    1.000
    O4       O        0.68440    0.20920    0.17730    1.000
    O5       O        0.90680    0.18130    0.12560    1.000
    O6       O        0.76880    0.33300    0.21390    1.000
    O7       O        0.01720    0.33820    0.28290    1.000
    Ce2      Ce       0.50903    0.72313    0.24502    1.000
    C13      C        0.78310    0.71470    0.36870    1.000
    C14      C        0.89670    0.71480    0.43600    1.000
    C15      C        0.94390    0.65740    0.46900    1.000
    N6       N        0.86600    0.60020    0.44680    1.000
    N7       N        0.89600    0.82540    0.44140    1.000
    C16      C        0.94870    0.77150    0.46800    1.000
    C17      C        0.24490    0.68920    0.12370    1.000
    C18      C        0.12060    0.67730    0.05990    1.000
    C19      C        0.18260    0.67460    0.99620    1.000
    C20      C        0.94220    0.67550    0.06270    1.000
    H4       H        0.90340    0.67490    0.10550    1.000
    N8       N        0.35100    0.65990    0.99060    1.000
    C21      C        0.38770    0.86460    0.24970    1.000
    C22      C        0.37790    0.93490    0.25050    1.000
    C23      C        0.25440    0.96700    0.20330    1.000
    C24      C        0.49470    0.96740    0.29840    1.000
    N9       N        0.13100    0.94380    0.14980    1.000
    N10      N        0.62800    0.93970    0.33810    1.000
    O8       O        0.36860    0.61660    0.26560    1.000
    H5       H        0.33060    0.59330    0.23160    1.000
    H6       H        0.47800    0.60810    0.27390    1.000
    O9       O        0.67180    0.67220    0.35340    1.000
    O10      O        0.79630    0.76010    0.32690    1.000
    O11      O        0.18440    0.70920    0.17730    1.000
    O12      O        0.40680    0.68130    0.12560    1.000
    O13      O        0.26880    0.83300    0.21390    1.000
    O14      O        0.51720    0.83820    0.28290    1.000
    Ce3      Ce       0.99097    0.22313    0.75498    1.000
    C25      C        0.71690    0.21470    0.63130    1.000
    C26      C        0.60330    0.21480    0.56400    1.000
    C27      C        0.55610    0.15740    0.53100    1.000
    N11      N        0.63400    0.10020    0.55320    1.000
    N12      N        0.60400    0.32540    0.55860    1.000
    C28      C        0.55130    0.27150    0.53200    1.000
    C29      C        0.25510    0.18920    0.87630    1.000
    C30      C        0.37940    0.17730    0.94010    1.000
    C31      C        0.31740    0.17460    0.00380    1.000
    C32      C        0.55780    0.17550    0.93730    1.000
    H7       H        0.59660    0.17490    0.89450    1.000
    N13      N        0.14900    0.15990    0.00940    1.000
    C33      C        0.11230    0.36460    0.75030    1.000
    C34      C        0.12210    0.43490    0.74950    1.000
    C35      C        0.24560    0.46700    0.79670    1.000
    C36      C        0.00530    0.46740    0.70160    1.000
    N14      N        0.36900    0.44380    0.85020    1.000
    N15      N        0.87200    0.43970    0.66190    1.000
    O15      O        0.13140    0.11660    0.73440    1.000
    H8       H        0.16940    0.09330    0.76840    1.000
    H9       H        0.02200    0.10810    0.72610    1.000
    O16      O        0.82820    0.17220    0.64660    1.000
    O17      O        0.70370    0.26010    0.67310    1.000
    O18      O        0.31560    0.20920    0.82270    1.000
    O19      O        0.09320    0.18130    0.87440    1.000
    O20      O        0.23120    0.33300    0.78610    1.000
    O21      O        0.98280    0.33820    0.71710    1.000
    Ce4      Ce       0.49097    0.72313    0.75498    1.000
    C37      C        0.21690    0.71470    0.63130    1.000
    C38      C        0.10330    0.71480    0.56400    1.000
    C39      C        0.05610    0.65740    0.53100    1.000
    N16      N        0.13400    0.60020    0.55320    1.000
    N17      N        0.10400    0.82540    0.55860    1.000
    C40      C        0.05130    0.77150    0.53200    1.000
    C41      C        0.75510    0.68920    0.87630    1.000
    C42      C        0.87940    0.67730    0.94010    1.000
    C43      C        0.81740    0.67460    0.00380    1.000
    C44      C        0.05780    0.67550    0.93730    1.000
    H10      H        0.09660    0.67490    0.89450    1.000
    N18      N        0.64900    0.65990    0.00940    1.000
    C45      C        0.61230    0.86460    0.75030    1.000
    C46      C        0.62210    0.93490    0.74950    1.000
    C47      C        0.74560    0.96700    0.79670    1.000
    C48      C        0.50530    0.96740    0.70160    1.000
    N19      N        0.86900    0.94380    0.85020    1.000
    N20      N        0.37200    0.93970    0.66190    1.000
    O22      O        0.63140    0.61660    0.73440    1.000
    H11      H        0.66940    0.59330    0.76840    1.000
    H12      H        0.52200    0.60810    0.72610    1.000
    O23      O        0.32820    0.67220    0.64660    1.000
    O24      O        0.20370    0.76010    0.67310    1.000
    O25      O        0.81560    0.70920    0.82270    1.000
    O26      O        0.59320    0.68130    0.87440    1.000
    O27      O        0.73120    0.83300    0.78610    1.000
    O28      O        0.48280    0.83820    0.71710    1.000
    Ce5      Ce       0.99097    0.77687    0.75498    1.000
    C49      C        0.71690    0.78530    0.63130    1.000
    C50      C        0.60330    0.78520    0.56400    1.000
    C51      C        0.55610    0.84260    0.53100    1.000
    N21      N        0.63400    0.89980    0.55320    1.000
    N22      N        0.60400    0.67460    0.55860    1.000
    C52      C        0.55130    0.72850    0.53200    1.000
    C53      C        0.25510    0.81080    0.87630    1.000
    C54      C        0.37940    0.82270    0.94010    1.000
    C55      C        0.31740    0.82540    0.00380    1.000
    C56      C        0.55780    0.82450    0.93730    1.000
    H13      H        0.59660    0.82510    0.89450    1.000
    N23      N        0.14900    0.84010    0.00940    1.000
    C57      C        0.11230    0.63540    0.75030    1.000
    C58      C        0.12210    0.56510    0.74950    1.000
    C59      C        0.24560    0.53300    0.79670    1.000
    C60      C        0.00530    0.53260    0.70160    1.000
    N24      N        0.36900    0.55620    0.85020    1.000
    N25      N        0.87200    0.56030    0.66190    1.000
    O29      O        0.13140    0.88340    0.73440    1.000
    H14      H        0.16940    0.90670    0.76840    1.000
    H15      H        0.02200    0.89190    0.72610    1.000
    O30      O        0.82820    0.82780    0.64660    1.000
    O31      O        0.70370    0.73990    0.67310    1.000
    O32      O        0.31560    0.79080    0.82270    1.000
    O33      O        0.09320    0.81870    0.87440    1.000
    O34      O        0.23120    0.66700    0.78610    1.000
    O35      O        0.98280    0.66180    0.71710    1.000
    Ce6      Ce       0.49097    0.27687    0.75498    1.000
    C61      C        0.21690    0.28530    0.63130    1.000
    C62      C        0.10330    0.28520    0.56400    1.000
    C63      C        0.05610    0.34260    0.53100    1.000
    N26      N        0.13400    0.39980    0.55320    1.000
    N27      N        0.10400    0.17460    0.55860    1.000
    C64      C        0.05130    0.22850    0.53200    1.000
    C65      C        0.75510    0.31080    0.87630    1.000
    C66      C        0.87940    0.32270    0.94010    1.000
    C67      C        0.81740    0.32540    0.00380    1.000
    C68      C        0.05780    0.32450    0.93730    1.000
    H16      H        0.09660    0.32510    0.89450    1.000
    N28      N        0.64900    0.34010    0.00940    1.000
    C69      C        0.61230    0.13540    0.75030    1.000
    C70      C        0.62210    0.06510    0.74950    1.000
    C71      C        0.74560    0.03300    0.79670    1.000
    C72      C        0.50530    0.03260    0.70160    1.000
    N29      N        0.86900    0.05620    0.85020    1.000
    N30      N        0.37200    0.06030    0.66190    1.000
    O36      O        0.63140    0.38340    0.73440    1.000
    H17      H        0.66940    0.40670    0.76840    1.000
    H18      H        0.52200    0.39190    0.72610    1.000
    O37      O        0.32820    0.32780    0.64660    1.000
    O38      O        0.20370    0.23990    0.67310    1.000
    O39      O        0.81560    0.29080    0.82270    1.000
    O40      O        0.59320    0.31870    0.87440    1.000
    O41      O        0.73120    0.16700    0.78610    1.000
    O42      O        0.48280    0.16180    0.71710    1.000
    Ce7      Ce       0.00903    0.77687    0.24502    1.000
    C73      C        0.28310    0.78530    0.36870    1.000
    C74      C        0.39670    0.78520    0.43600    1.000
    C75      C        0.44390    0.84260    0.46900    1.000
    N31      N        0.36600    0.89980    0.44680    1.000
    N32      N        0.39600    0.67460    0.44140    1.000
    C76      C        0.44870    0.72850    0.46800    1.000
    C77      C        0.74490    0.81080    0.12370    1.000
    C78      C        0.62060    0.82270    0.05990    1.000
    C79      C        0.68260    0.82540    0.99620    1.000
    C80      C        0.44220    0.82450    0.06270    1.000
    H19      H        0.40340    0.82510    0.10550    1.000
    N33      N        0.85100    0.84010    0.99060    1.000
    C81      C        0.88770    0.63540    0.24970    1.000
    C82      C        0.87790    0.56510    0.25050    1.000
    C83      C        0.75440    0.53300    0.20330    1.000
    C84      C        0.99470    0.53260    0.29840    1.000
    N34      N        0.63100    0.55620    0.14980    1.000
    N35      N        0.12800    0.56030    0.33810    1.000
    O43      O        0.86860    0.88340    0.26560    1.000
    H20      H        0.83060    0.90670    0.23160    1.000
    H21      H        0.97800    0.89190    0.27390    1.000
    O44      O        0.17180    0.82780    0.35340    1.000
    O45      O        0.29630    0.73990    0.32690    1.000
    O46      O        0.68440    0.79080    0.17730    1.000
    O47      O        0.90680    0.81870    0.12560    1.000
    O48      O        0.76880    0.66700    0.21390    1.000
    O49      O        0.01720    0.66180    0.28290    1.000
    Ce8      Ce       0.50903    0.27687    0.24502    1.000
    C85      C        0.78310    0.28530    0.36870    1.000
    C86      C        0.89670    0.28520    0.43600    1.000
    C87      C        0.94390    0.34260    0.46900    1.000
    N36      N        0.86600    0.39980    0.44680    1.000
    N37      N        0.89600    0.17460    0.44140    1.000
    C88      C        0.94870    0.22850    0.46800    1.000
    C89      C        0.24490    0.31080    0.12370    1.000
    C90      C        0.12060    0.32270    0.05990    1.000
    C91      C        0.18260    0.32540    0.99620    1.000
    C92      C        0.94220    0.32450    0.06270    1.000
    H22      H        0.90340    0.32510    0.10550    1.000
    N38      N        0.35100    0.34010    0.99060    1.000
    C93      C        0.38770    0.13540    0.24970    1.000
    C94      C        0.37790    0.06510    0.25050    1.000
    C95      C        0.25440    0.03300    0.20330    1.000
    C96      C        0.49470    0.03260    0.29840    1.000
    N39      N        0.13100    0.05620    0.14980    1.000
    N40      N        0.62800    0.06030    0.33810    1.000
    O50      O        0.36860    0.38340    0.26560    1.000
    H23      H        0.33060    0.40670    0.23160    1.000
    H24      H        0.47800    0.39190    0.27390    1.000
    O51      O        0.67180    0.32780    0.35340    1.000
    O52      O        0.79630    0.23990    0.32690    1.000
    O53      O        0.18440    0.29080    0.17730    1.000
    O54      O        0.40680    0.31870    0.12560    1.000
    O55      O        0.26880    0.16700    0.21390    1.000
    O56      O        0.51720    0.16180    0.28290    1.000
