data_functionalizedCrystal
_audit_creation_method	'EQeq! by Chris Wilmer'
_symmetry_space_group_name_H-M	'P1'
_symmetry_Int_Tables_number	1
_symmetry_cell_setting	triclinic
loop_
_symmetry_equiv_pos_as_xyz
  x,y,z
_cell_length_a	10.3332
_cell_length_b	11.7635
_cell_length_c	20.4524
_cell_angle_alpha	90
_cell_angle_beta	90
_cell_angle_gamma	90
loop_
_atom_site_label
_atom_site_type_symbol
_atom_site_fract_x
_atom_site_fract_y
_atom_site_fract_z
_atom_site_charge
Mof_Zn	Zn	0.45083	0.42233	0.00975	1.211
Mof_Zn	Zn	0.13842	0.32406	0.0075	1.235
Mof_O 	O 	0.3369	0.2726	0.0039	-0.555
Mof_O 	O 	0.4554	0.1181	0.9825	-0.438
Mof_O 	O 	0.116	0.16	0.9909	-0.572
Mof_C 	C 	0.3506	0.1695	0.9865	0.313
Mof_C 	C 	0.2276	0.1053	0.9669	0.133
Mof_H 	H 	0.2314	0.0265	0.9852	-0.03
Mof_C 	C 	0.2239	0.0983	0.8922	-0.524
Mof_H 	H 	0.1679	0.0352	0.8788	0.161
Mof_H 	H 	0.3116	0.0855	0.8755	0.181
Mof_H 	H 	0.1899	0.1696	0.8744	0.168
Mof_O 	O 	0.3677	0.4615	0.0935	-0.513
Mof_O 	O 	0.1706	0.3806	0.0981	-0.475
Mof_C 	C 	0.2665	0.4315	0.1227	0.397
Mof_C 	C 	0.2584	0.4618	0.194	-0.096
Mof_C 	C 	0.1767	0.4001	0.2352	-0.017
Mof_H 	H 	0.1247	0.3403	0.2184	0.039
Mof_C 	C 	0.1728	0.4277	0.3011	-0.015
Mof_H 	H 	0.119	0.3849	0.3296	0.036
Mof_C 	C 	0.2455	0.516	0.3261	-0.092
Mof_C 	C 	0.327	0.5759	0.2851	-0.017
Mof_H 	H 	0.3791	0.6355	0.3021	0.034
Mof_C 	C 	0.333	0.5494	0.2189	-0.015
Mof_H 	H 	0.3884	0.5914	0.1908	0.035
Mof_C 	C 	0.2356	0.5484	0.3978	0.391
Mof_O 	O 	0.13	0.5265	0.4253	-0.5
Mof_O 	O 	0.335	0.5909	0.4235	-0.475
Mof_Zn	Zn	0.04917	0.57767	0.50975	1.21
Mof_Zn	Zn	0.36158	0.67594	0.5075	1.235
Mof_O 	O 	0.1631	0.7274	0.5039	-0.554
Mof_O 	O 	0.0446	0.8819	0.4825	-0.438
Mof_O 	O 	0.384	0.84	0.4909	-0.574
Mof_C 	C 	0.1494	0.8305	0.4865	0.31
Mof_C 	C 	0.2724	0.8947	0.4669	0.133
Mof_H 	H 	0.2686	0.9735	0.4852	-0.031
Mof_C 	C 	0.2761	0.9017	0.3922	-0.524
Mof_H 	H 	0.3321	0.9648	0.3788	0.16
Mof_H 	H 	0.1884	0.9145	0.3755	0.18
Mof_H 	H 	0.3101	0.8304	0.3744	0.168
Mof_O 	O 	0.1323	0.5385	0.5935	-0.512
Mof_O 	O 	0.3294	0.6194	0.5981	-0.474
Mof_C 	C 	0.2335	0.5685	0.6227	0.397
Mof_C 	C 	0.2416	0.5382	0.694	-0.095
Mof_C 	C 	0.3233	0.5999	0.7352	-0.017
Mof_H 	H 	0.3753	0.6597	0.7184	0.039
Mof_C 	C 	0.3272	0.5723	0.8011	-0.015
Mof_H 	H 	0.381	0.6151	0.8296	0.036
Mof_C 	C 	0.2545	0.484	0.8261	-0.092
Mof_C 	C 	0.173	0.4241	0.7851	-0.016
Mof_H 	H 	0.1209	0.3645	0.8021	0.034
Mof_C 	C 	0.167	0.4506	0.7189	-0.015
Mof_H 	H 	0.1116	0.4086	0.6908	0.035
Mof_C 	C 	0.2644	0.4516	0.8978	0.391
Mof_O 	O 	0.37	0.4735	0.9253	-0.499
Mof_O 	O 	0.165	0.4091	0.9235	-0.474
Mof_Zn	Zn	0.54917	0.92233	0.49025	1.21
Mof_Zn	Zn	0.86158	0.82406	0.4925	1.236
Mof_O 	O 	0.6631	0.7726	0.4961	-0.554
Mof_O 	O 	0.5446	0.6181	0.5175	-0.437
Mof_O 	O 	0.884	0.66	0.5091	-0.574
Mof_C 	C 	0.6494	0.6695	0.5135	0.31
Mof_C 	C 	0.7724	0.6053	0.5331	0.134
Mof_H 	H 	0.7686	0.5265	0.5148	-0.03
Mof_C 	C 	0.7761	0.5983	0.6078	-0.525
Mof_H 	H 	0.8321	0.5352	0.6212	0.161
Mof_H 	H 	0.6884	0.5855	0.6245	0.181
Mof_H 	H 	0.8101	0.6696	0.6256	0.168
Mof_O 	O 	0.6323	0.9615	0.4065	-0.513
Mof_O 	O 	0.8294	0.8806	0.4019	-0.474
Mof_C 	C 	0.7335	0.9315	0.3773	0.398
Mof_C 	C 	0.7416	0.9618	0.306	-0.098
Mof_C 	C 	0.8233	0.9001	0.2648	-0.015
Mof_H 	H 	0.8753	0.8403	0.2816	0.039
Mof_C 	C 	0.8272	0.9277	0.1989	-0.018
Mof_H 	H 	0.881	0.8849	0.1704	0.037
Mof_C 	C 	0.7545	0.016	0.1739	-0.089
Mof_C 	C 	0.673	0.0759	0.2149	-0.019
Mof_H 	H 	0.6209	0.1355	0.1979	0.035
Mof_C 	C 	0.667	0.0494	0.2811	-0.012
Mof_H 	H 	0.6116	0.0914	0.3092	0.034
Mof_C 	C 	0.7644	0.0484	0.1022	0.39
Mof_O 	O 	0.87	0.0265	0.0747	-0.498
Mof_O 	O 	0.665	0.0909	0.0765	-0.474
Mof_Zn	Zn	0.95083	0.07767	0.99025	1.209
Mof_Zn	Zn	0.63842	0.17594	0.9925	1.235
Mof_O 	O 	0.8369	0.2274	0.9961	-0.557
Mof_O 	O 	0.9554	0.3819	0.0175	-0.436
Mof_O 	O 	0.616	0.34	0.0091	-0.573
Mof_C 	C 	0.8506	0.3305	0.0135	0.313
Mof_C 	C 	0.7276	0.3947	0.0331	0.133
Mof_H 	H 	0.7314	0.4735	0.0148	-0.03
Mof_C 	C 	0.7239	0.4017	0.1078	-0.525
Mof_H 	H 	0.6679	0.4648	0.1212	0.161
Mof_H 	H 	0.8116	0.4145	0.1245	0.182
Mof_H 	H 	0.6899	0.3304	0.1256	0.168
Mof_O 	O 	0.8677	0.0385	0.9065	-0.514
Mof_O 	O 	0.6706	0.1194	0.9019	-0.474
Mof_C 	C 	0.7665	0.0685	0.8773	0.398
Mof_C 	C 	0.7584	0.0382	0.806	-0.098
Mof_C 	C 	0.6767	0.0999	0.7648	-0.015
Mof_H 	H 	0.6247	0.1597	0.7816	0.039
Mof_C 	C 	0.6728	0.0723	0.6989	-0.017
Mof_H 	H 	0.619	0.1151	0.6704	0.037
Mof_C 	C 	0.7455	0.984	0.6739	-0.09
Mof_C 	C 	0.827	0.9241	0.7149	-0.018
Mof_H 	H 	0.8791	0.8645	0.6979	0.034
Mof_C 	C 	0.833	0.9506	0.7811	-0.012
Mof_H 	H 	0.8884	0.9086	0.8092	0.034
Mof_C 	C 	0.7356	0.9516	0.6022	0.39
Mof_O 	O 	0.63	0.9735	0.5747	-0.5
Mof_O 	O 	0.835	0.9091	0.5765	-0.475
_end
