# CIF file generated by openbabel 3.1.0, see https://openbabel.org
data_I
_chemical_name_common 'image0'
_cell_length_a 11.521
_cell_length_b 11.6637
_cell_length_c 11.853
_cell_angle_alpha 92.926
_cell_angle_beta 93.35
_cell_angle_gamma 113.619
_space_group_name_H-M_alt 'P 1'
_space_group_name_Hall 'P 1'
loop_
    _symmetry_equiv_pos_as_xyz
    x,y,z
loop_
    _atom_site_label
    _atom_site_type_symbol
    _atom_site_fract_x
    _atom_site_fract_y
    _atom_site_fract_z
    _atom_site_occupancy
    O1       O        0.38620    0.00160    0.34780    1.000
    O2       O        0.41070    0.79630    0.46260    1.000
    O3       O        0.34990    0.99210    0.60750    1.000
    C1       C        0.33700    0.07510    0.31500    1.000
    C2       C        0.33380    0.17610    0.38130    1.000
    C3       C        0.28430    0.25560    0.34070    1.000
    C4       C        0.22940    0.23080    0.22940    1.000
    C5       C        0.22970    0.13270    0.16660    1.000
    N1       N        0.28190    0.05490    0.20570    1.000
    C6       C        0.28420    0.36590    0.41300    1.000
    C7       C        0.28010    0.94850    0.12980    1.000
    C8       C        0.39560    0.97810    0.06400    1.000
    C9       C        0.42020    0.06010    0.97980    1.000
    C10      C        0.47800    0.92020    0.08520    1.000
    C11      C        0.37530    0.72990    0.36910    1.000
    C12      C        0.45380    0.68990    0.30520    1.000
    C13      C        0.41270    0.61530    0.20870    1.000
    C14      C        0.28540    0.57670    0.16580    1.000
    C15      C        0.20890    0.61460    0.22750    1.000
    N2       N        0.25180    0.68940    0.32540    1.000
    C16      C        0.49740    0.57060    0.14360    1.000
    C17      C        0.15900    0.71880    0.38830    1.000
    C18      C        0.07440    0.60480    0.44670    1.000
    C19      C        0.12830    0.56040    0.53240    1.000
    C20      C        0.94810    0.54440    0.41510    1.000
    C21      C        0.29770    0.92140    0.68160    1.000
    C22      C        0.32850    0.82210    0.71880    1.000
    C23      C        0.26880    0.74640    0.79990    1.000
    C24      C        0.16840    0.76420    0.84700    1.000
    C25      C        0.13710    0.85780    0.81580    1.000
    N3       N        0.20010    0.93630    0.73370    1.000
    C26      C        0.30810    0.64400    0.83700    1.000
    C27      C        0.16880    0.04110    0.70590    1.000
    C28      C        0.08140    0.01700    0.59940    1.000
    C29      C        0.05560    0.11550    0.55900    1.000
    C30      C        0.02430    0.90290    0.53780    1.000
    H1       H        0.36710    0.18970    0.45650    1.000
    H2       H        0.19300    0.28200    0.19930    1.000
    H3       H        0.19240    0.11680    0.09260    1.000
    H4       H        0.30200    0.43620    0.36800    1.000
    H5       H        0.38420    0.38770    0.47530    1.000
    H6       H        0.20230    0.34390    0.44150    1.000
    H7       H        0.20520    0.92060    0.07640    1.000
    H8       H        0.27210    0.87940    0.17530    1.000
    H9       H        0.36810    0.10250    0.96640    1.000
    H10      H        0.46490    0.86730    0.14370    1.000
    H11      H        0.53890    0.71680    0.33160    1.000
    H12      H        0.25440    0.52720    0.09780    1.000
    H13      H        0.12380    0.58790    0.20130    1.000
    H14      H        0.52110    0.61730    0.07820    1.000
    H15      H        0.45260    0.48300    0.11990    1.000
    H16      H        0.57240    0.58320    0.19130    1.000
    H17      H        0.10670    0.74360    0.33630    1.000
    H18      H        0.20370    0.78850    0.44460    1.000
    H19      H        0.21490    0.60040    0.55470    1.000
    H20      H        0.91190    0.57370    0.35720    1.000
    H21      H        0.39350    0.80820    0.68570    1.000
    H22      H        0.12340    0.71130    0.89990    1.000
    H23      H        0.07190    0.87060    0.84950    1.000
    H24      H        0.24560    0.56370    0.80640    1.000
    H25      H        0.31480    0.64650    0.91830    1.000
    H26      H        0.38900    0.65670    0.80990    1.000
    H27      H        0.24710    0.11310    0.69760    1.000
    H28      H        0.12910    0.06260    0.76880    1.000
    H29      H        0.09270    0.19470    0.59790    1.000
    H30      H        0.03990    0.83550    0.56220    1.000
    O4       O        0.61380    0.99840    0.65220    1.000
    O5       O        0.58930    0.20370    0.53740    1.000
    O6       O        0.65010    0.00790    0.39250    1.000
    C31      C        0.66300    0.92490    0.68500    1.000
    C32      C        0.66620    0.82390    0.61870    1.000
    C33      C        0.71570    0.74440    0.65930    1.000
    C34      C        0.77060    0.76920    0.77060    1.000
    C35      C        0.77030    0.86730    0.83340    1.000
    N4       N        0.71810    0.94510    0.79430    1.000
    C36      C        0.71580    0.63410    0.58700    1.000
    C37      C        0.71990    0.05150    0.87020    1.000
    C38      C        0.60440    0.02190    0.93600    1.000
    C39      C        0.57980    0.93990    0.02020    1.000
    C40      C        0.52200    0.07980    0.91480    1.000
    C41      C        0.62470    0.27010    0.63090    1.000
    C42      C        0.54620    0.31010    0.69480    1.000
    C43      C        0.58730    0.38470    0.79130    1.000
    C44      C        0.71460    0.42330    0.83420    1.000
    C45      C        0.79110    0.38540    0.77250    1.000
    N5       N        0.74820    0.31060    0.67460    1.000
    C46      C        0.50260    0.42940    0.85640    1.000
    C47      C        0.84100    0.28120    0.61170    1.000
    C48      C        0.92560    0.39520    0.55330    1.000
    C49      C        0.87170    0.43960    0.46760    1.000
    C50      C        0.05190    0.45560    0.58490    1.000
    C51      C        0.70230    0.07860    0.31840    1.000
    C52      C        0.67150    0.17790    0.28120    1.000
    C53      C        0.73120    0.25360    0.20010    1.000
    C54      C        0.83160    0.23580    0.15300    1.000
    C55      C        0.86290    0.14220    0.18420    1.000
    N6       N        0.79990    0.06370    0.26630    1.000
    C56      C        0.69190    0.35600    0.16300    1.000
    C57      C        0.83120    0.95890    0.29410    1.000
    C58      C        0.91860    0.98300    0.40060    1.000
    C59      C        0.94440    0.88450    0.44100    1.000
    C60      C        0.97570    0.09710    0.46220    1.000
    H31      H        0.63290    0.81030    0.54350    1.000
    H32      H        0.80700    0.71800    0.80070    1.000
    H33      H        0.80760    0.88320    0.90740    1.000
    H34      H        0.69800    0.56380    0.63200    1.000
    H35      H        0.61580    0.61230    0.52470    1.000
    H36      H        0.79770    0.65610    0.55850    1.000
    H37      H        0.79480    0.07940    0.92360    1.000
    H38      H        0.72790    0.12060    0.82470    1.000
    H39      H        0.63190    0.89750    0.03360    1.000
    H40      H        0.53510    0.13270    0.85630    1.000
    H41      H        0.46110    0.28320    0.66840    1.000
    H42      H        0.74560    0.47280    0.90220    1.000
    H43      H        0.87620    0.41210    0.79870    1.000
    H44      H        0.47890    0.38270    0.92180    1.000
    H45      H        0.54740    0.51700    0.88010    1.000
    H46      H        0.42760    0.41680    0.80870    1.000
    H47      H        0.89330    0.25640    0.66370    1.000
    H48      H        0.79630    0.21150    0.55540    1.000
    H49      H        0.78510    0.39960    0.44530    1.000
    H50      H        0.08810    0.42630    0.64280    1.000
    H51      H        0.60650    0.19180    0.31430    1.000
    H52      H        0.87660    0.28870    0.10010    1.000
    H53      H        0.92810    0.12940    0.15050    1.000
    H54      H        0.75440    0.43630    0.19360    1.000
    H55      H        0.68520    0.35350    0.08170    1.000
    H56      H        0.61100    0.34330    0.19010    1.000
    H57      H        0.75290    0.88690    0.30240    1.000
    H58      H        0.87090    0.93740    0.23120    1.000
    H59      H        0.90730    0.80530    0.40210    1.000
    H60      H        0.96010    0.16450    0.43780    1.000
    Mn1      Mn       0.50000    0.00000    0.50000    1.000
