data_functionalizedCrystal
_audit_creation_method	'EQeq! by Chris Wilmer'
_symmetry_space_group_name_H-M	'P1'
_symmetry_Int_Tables_number	1
_symmetry_cell_setting	triclinic
loop_
_symmetry_equiv_pos_as_xyz
  x,y,z
_cell_length_a	19.5615
_cell_length_b	19.5615
_cell_length_c	24.304
_cell_angle_alpha	90
_cell_angle_beta	90
_cell_angle_gamma	90
loop_
_atom_site_label
_atom_site_type_symbol
_atom_site_fract_x
_atom_site_fract_y
_atom_site_fract_z
_atom_site_charge
Mof_O 	O 	0.0624	0.539	0.288	-0.542
Mof_O 	O 	0.0053	0.6007	0.2296	-0.632
Mof_O 	O 	0.1586	0.778	0.452	-0.527
Mof_O 	O 	0.1915	0.6725	0.4357	-0.445
Mof_O 	O 	0.0067	0.8958	0.3301	-0.627
Mof_O 	O 	0.9499	0.8421	0.2618	-0.471
Mof_O 	O 	0.1575	0.3042	0.3125	-0.229
Mof_C 	C 	0.037	0.5956	0.274	0.452
Mof_C 	C 	0.1542	0.7224	0.4264	0.337
Mof_C 	C 	0.9879	0.841	0.3022	0.449
Mof_C 	C 	0.0469	0.6585	0.3069	-0.206
Mof_C 	C 	0.0135	0.7175	0.291	0.113
Mof_H 	H 	0.9852	0.7178	0.2603	-0.012
Mof_C 	C 	0.0234	0.7771	0.3221	-0.191
Mof_C 	C 	0.0674	0.7778	0.3643	0.102
Mof_H 	H 	0.0749	0.8181	0.3838	0.034
Mof_C 	C 	0.1021	0.718	0.3792	-0.139
Mof_C 	C 	0.0915	0.6587	0.3516	0.101
Mof_H 	H 	0.1138	0.6188	0.3622	0.001
Mof_C 	C 	0.162	0.2765	0.2666	0.073
Mof_H 	H 	0.1656	0.3059	0.2351	-0.011
Mof_N 	N 	0.1669	0.2016	0.2688	0.079
Mof_H 	H 	0.1698	0.1236	0.2143	0.295
Mof_H 	H 	0.1363	0.1908	0.1915	0.158
Mof_H 	H 	0.2159	0.1868	0.1998	0.24
Mof_H 	H 	0.1611	0.1093	0.3093	0.14
Mof_H 	H 	0.2001	0.1651	0.3436	0.208
Mof_H 	H 	0.1203	0.1691	0.3373	0.163
Mof_O 	O 	0.0397	0.4862	0.4083	-0.346
Mof_H 	H 	0.0056	0.5123	0.4023	0.123
Mof_H 	H 	0.0491	0.4736	0.441	0.125
Mof_O 	O 	0.4376	0.961	0.288	-0.54
Mof_O 	O 	0.4947	0.8993	0.2296	-0.633
Mof_O 	O 	0.3414	0.722	0.452	-0.528
Mof_O 	O 	0.3085	0.8275	0.4357	-0.444
Mof_O 	O 	0.4933	0.6042	0.3301	-0.644
Mof_O 	O 	0.5501	0.6579	0.2618	-0.475
Mof_O 	O 	0.3425	0.1958	0.3125	-0.228
Mof_C 	C 	0.463	0.9044	0.274	0.451
Mof_C 	C 	0.3458	0.7776	0.4264	0.337
Mof_C 	C 	0.5121	0.659	0.3022	0.465
Mof_C 	C 	0.4531	0.8415	0.3069	-0.206
Mof_C 	C 	0.4865	0.7825	0.291	0.11
Mof_H 	H 	0.5148	0.7822	0.2603	-0.01
Mof_C 	C 	0.4766	0.7229	0.3221	-0.201
Mof_C 	C 	0.4326	0.7222	0.3643	0.108
Mof_H 	H 	0.4251	0.6819	0.3838	0.03
Mof_C 	C 	0.3979	0.782	0.3792	-0.142
Mof_C 	C 	0.4085	0.8413	0.3516	0.102
Mof_H 	H 	0.3862	0.8812	0.3622	0.001
Mof_C 	C 	0.338	0.2235	0.2666	0.07
Mof_H 	H 	0.3344	0.1941	0.2351	-0.01
Mof_N 	N 	0.3331	0.2984	0.2688	0.083
Mof_H 	H 	0.3302	0.3764	0.2143	0.303
Mof_H 	H 	0.3637	0.3092	0.1915	0.163
Mof_H 	H 	0.2841	0.3132	0.1998	0.247
Mof_H 	H 	0.3389	0.3907	0.3093	0.143
Mof_H 	H 	0.2999	0.3349	0.3436	0.211
Mof_H 	H 	0.3797	0.3309	0.3373	0.166
Mof_O 	O 	0.4603	0.0138	0.4083	-0.335
Mof_H 	H 	0.4944	0.9877	0.4023	0.122
Mof_H 	H 	0.4509	0.0264	0.441	0.116
Mof_O 	O 	0.961	0.0624	0.788	-0.533
Mof_O 	O 	0.8993	0.0053	0.7296	-0.621
Mof_O 	O 	0.722	0.1586	0.952	-0.462
Mof_O 	O 	0.8275	0.1915	0.9357	-0.396
Mof_O 	O 	0.6042	0.0067	0.8301	-0.635
Mof_O 	O 	0.6579	0.9499	0.7618	-0.474
Mof_O 	O 	0.1958	0.1575	0.8125	-0.225
Mof_C 	C 	0.9044	0.037	0.774	0.449
Mof_C 	C 	0.7776	0.1542	0.9264	0.33
Mof_C 	C 	0.659	0.9879	0.8022	0.459
Mof_C 	C 	0.8415	0.0469	0.8069	-0.203
Mof_C 	C 	0.7825	0.0135	0.791	0.12
Mof_H 	H 	0.7822	0.9852	0.7603	-0.017
Mof_C 	C 	0.7229	0.0234	0.8221	-0.193
Mof_C 	C 	0.7222	0.0674	0.8643	0.103
Mof_H 	H 	0.6819	0.0749	0.8838	0.039
Mof_C 	C 	0.782	0.1021	0.8792	-0.128
Mof_C 	C 	0.8413	0.0915	0.8516	0.099
Mof_H 	H 	0.8812	0.1138	0.8622	0.007
Mof_C 	C 	0.2235	0.162	0.7666	0.066
Mof_H 	H 	0.1941	0.1656	0.7351	-0.009
Mof_N 	N 	0.2984	0.1669	0.7688	0.094
Mof_H 	H 	0.3764	0.1698	0.7143	0.318
Mof_H 	H 	0.3092	0.1363	0.6915	0.176
Mof_H 	H 	0.3132	0.2159	0.6998	0.261
Mof_H 	H 	0.3907	0.1611	0.8093	0.15
Mof_H 	H 	0.3349	0.2001	0.8436	0.227
Mof_H 	H 	0.3309	0.1203	0.8373	0.18
Mof_O 	O 	0.0138	0.0397	0.9083	-0.35
Mof_H 	H 	0.9877	0.0056	0.9023	0.134
Mof_H 	H 	0.0264	0.0491	0.941	0.133
Mof_O 	O 	0.539	0.4376	0.788	-0.543
Mof_O 	O 	0.6007	0.4947	0.7296	-0.634
Mof_O 	O 	0.778	0.3414	0.952	-0.462
Mof_O 	O 	0.6725	0.3085	0.9357	-0.396
Mof_O 	O 	0.8958	0.4933	0.8301	-0.638
Mof_O 	O 	0.8421	0.5501	0.7618	-0.474
Mof_O 	O 	0.3042	0.3425	0.8125	-0.226
Mof_C 	C 	0.5956	0.463	0.774	0.451
Mof_C 	C 	0.7224	0.3458	0.9264	0.33
Mof_C 	C 	0.841	0.5121	0.8022	0.465
Mof_C 	C 	0.6585	0.4531	0.8069	-0.201
Mof_C 	C 	0.7175	0.4865	0.791	0.106
Mof_H 	H 	0.7178	0.5148	0.7603	-0.008
Mof_C 	C 	0.7771	0.4766	0.8221	-0.194
Mof_C 	C 	0.7778	0.4326	0.8643	0.102
Mof_H 	H 	0.8181	0.4251	0.8838	0.039
Mof_C 	C 	0.718	0.3979	0.8792	-0.128
Mof_C 	C 	0.6587	0.4085	0.8516	0.097
Mof_H 	H 	0.6188	0.3862	0.8622	0.006
Mof_C 	C 	0.2765	0.338	0.7666	0.067
Mof_H 	H 	0.3059	0.3344	0.7351	-0.009
Mof_N 	N 	0.2016	0.3331	0.7688	0.094
Mof_H 	H 	0.1236	0.3302	0.7143	0.318
Mof_H 	H 	0.1908	0.3637	0.6915	0.176
Mof_H 	H 	0.1868	0.2841	0.6998	0.261
Mof_H 	H 	0.1093	0.3389	0.8093	0.15
Mof_H 	H 	0.1651	0.2999	0.8436	0.227
Mof_H 	H 	0.1691	0.3797	0.8373	0.181
Mof_O 	O 	0.4862	0.4603	0.9083	-0.341
Mof_H 	H 	0.5123	0.4944	0.9023	0.127
Mof_H 	H 	0.4736	0.4509	0.941	0.132
Mof_O 	O 	0.9376	0.039	0.212	-0.537
Mof_O 	O 	0.9947	0.1007	0.2704	-0.623
Mof_O 	O 	0.8414	0.278	0.048	-0.524
Mof_O 	O 	0.8085	0.1725	0.0643	-0.445
Mof_O 	O 	0.9933	0.3958	0.1699	-0.641
Mof_O 	O 	0.0501	0.3421	0.2382	-0.475
Mof_O 	O 	0.8425	0.8042	0.1875	-0.23
Mof_C 	C 	0.963	0.0956	0.226	0.453
Mof_C 	C 	0.8458	0.2224	0.0736	0.34
Mof_C 	C 	0.0121	0.341	0.1978	0.455
Mof_C 	C 	0.9531	0.1585	0.1931	-0.216
Mof_C 	C 	0.9865	0.2175	0.209	0.132
Mof_H 	H 	0.0148	0.2178	0.2397	-0.023
Mof_C 	C 	0.9766	0.2771	0.1779	-0.207
Mof_C 	C 	0.9326	0.2778	0.1357	0.114
Mof_H 	H 	0.9251	0.3181	0.1162	0.022
Mof_C 	C 	0.8979	0.218	0.1208	-0.155
Mof_C 	C 	0.9085	0.1587	0.1484	0.11
Mof_H 	H 	0.8862	0.1188	0.1378	-0.006
Mof_C 	C 	0.838	0.7765	0.2334	0.071
Mof_H 	H 	0.8344	0.8059	0.2649	-0.01
Mof_N 	N 	0.8331	0.7016	0.2312	0.083
Mof_H 	H 	0.8302	0.6236	0.2857	0.31
Mof_H 	H 	0.8637	0.6908	0.3085	0.171
Mof_H 	H 	0.7841	0.6868	0.3002	0.254
Mof_H 	H 	0.8389	0.6093	0.1907	0.14
Mof_H 	H 	0.7999	0.6651	0.1564	0.202
Mof_H 	H 	0.8797	0.6691	0.1627	0.158
Mof_O 	O 	0.9603	0.9862	0.0917	-0.345
Mof_H 	H 	0.9944	0.0123	0.0977	0.123
Mof_H 	H 	0.9509	0.9736	0.059	0.111
Mof_O 	O 	0.5624	0.461	0.212	-0.544
Mof_O 	O 	0.5053	0.3993	0.2704	-0.634
Mof_O 	O 	0.6586	0.222	0.048	-0.524
Mof_O 	O 	0.6915	0.3275	0.0643	-0.446
Mof_O 	O 	0.5067	0.1042	0.1699	-0.648
Mof_O 	O 	0.4499	0.1579	0.2382	-0.476
Mof_O 	O 	0.6575	0.6958	0.1875	-0.231
Mof_C 	C 	0.537	0.4044	0.226	0.452
Mof_C 	C 	0.6542	0.2776	0.0736	0.34
Mof_C 	C 	0.4879	0.159	0.1978	0.466
Mof_C 	C 	0.5469	0.3415	0.1931	-0.213
Mof_C 	C 	0.5135	0.2825	0.209	0.114
Mof_H 	H 	0.4852	0.2822	0.2397	-0.011
Mof_C 	C 	0.5234	0.2229	0.1779	-0.209
Mof_C 	C 	0.5674	0.2222	0.1357	0.113
Mof_H 	H 	0.5749	0.1819	0.1162	0.021
Mof_C 	C 	0.6021	0.282	0.1208	-0.155
Mof_C 	C 	0.5915	0.3413	0.1484	0.108
Mof_H 	H 	0.6138	0.3812	0.1378	-0.006
Mof_C 	C 	0.662	0.7235	0.2334	0.071
Mof_H 	H 	0.6656	0.6941	0.2649	-0.01
Mof_N 	N 	0.6669	0.7984	0.2312	0.083
Mof_H 	H 	0.6698	0.8764	0.2857	0.309
Mof_H 	H 	0.6363	0.8092	0.3085	0.171
Mof_H 	H 	0.7159	0.8132	0.3002	0.254
Mof_H 	H 	0.6611	0.8907	0.1907	0.14
Mof_H 	H 	0.7001	0.8349	0.1564	0.202
Mof_H 	H 	0.6203	0.8309	0.1627	0.158
Mof_O 	O 	0.5397	0.5138	0.0917	-0.338
Mof_H 	H 	0.5056	0.4877	0.0977	0.116
Mof_H 	H 	0.5491	0.5264	0.059	0.109
Mof_O 	O 	0.039	0.5624	0.712	-0.543
Mof_O 	O 	0.1007	0.5053	0.7704	-0.634
Mof_O 	O 	0.278	0.6586	0.548	-0.528
Mof_O 	O 	0.1725	0.6915	0.5643	-0.445
Mof_O 	O 	0.3958	0.5067	0.6699	-0.644
Mof_O 	O 	0.3421	0.4499	0.7382	-0.476
Mof_O 	O 	0.8042	0.6575	0.6875	-0.228
Mof_C 	C 	0.0956	0.537	0.726	0.451
Mof_C 	C 	0.2224	0.6542	0.5736	0.337
Mof_C 	C 	0.341	0.4879	0.6978	0.466
Mof_C 	C 	0.1585	0.5469	0.6931	-0.206
Mof_C 	C 	0.2175	0.5135	0.709	0.11
Mof_H 	H 	0.2178	0.4852	0.7397	-0.009
Mof_C 	C 	0.2771	0.5234	0.6779	-0.202
Mof_C 	C 	0.2778	0.5674	0.6357	0.108
Mof_H 	H 	0.3181	0.5749	0.6162	0.03
Mof_C 	C 	0.218	0.6021	0.6208	-0.142
Mof_C 	C 	0.1587	0.5915	0.6484	0.102
Mof_H 	H 	0.1188	0.6138	0.6378	0
Mof_C 	C 	0.7765	0.662	0.7334	0.066
Mof_H 	H 	0.8059	0.6656	0.7649	-0.008
Mof_N 	N 	0.7016	0.6669	0.7312	0.095
Mof_H 	H 	0.6236	0.6698	0.7857	0.326
Mof_H 	H 	0.6908	0.6363	0.8085	0.186
Mof_H 	H 	0.6868	0.7159	0.8002	0.271
Mof_H 	H 	0.6093	0.6611	0.6907	0.147
Mof_H 	H 	0.6651	0.7001	0.6564	0.217
Mof_H 	H 	0.6691	0.6203	0.6627	0.172
Mof_O 	O 	0.9862	0.5397	0.5917	-0.343
Mof_H 	H 	0.0123	0.5056	0.5977	0.121
Mof_H 	H 	0.9736	0.5491	0.559	0.123
Mof_O 	O 	0.461	0.9376	0.712	-0.544
Mof_O 	O 	0.3993	0.9947	0.7704	-0.632
Mof_O 	O 	0.222	0.8414	0.548	-0.526
Mof_O 	O 	0.3275	0.8085	0.5643	-0.445
Mof_O 	O 	0.1042	0.9933	0.6699	-0.622
Mof_O 	O 	0.1579	0.0501	0.7382	-0.471
Mof_O 	O 	0.6958	0.8425	0.6875	-0.229
Mof_C 	C 	0.4044	0.963	0.726	0.452
Mof_C 	C 	0.2776	0.8458	0.5736	0.337
Mof_C 	C 	0.159	0.0121	0.6978	0.444
Mof_C 	C 	0.3415	0.9531	0.6931	-0.207
Mof_C 	C 	0.2825	0.9865	0.709	0.116
Mof_H 	H 	0.2822	0.0148	0.7397	-0.014
Mof_C 	C 	0.2229	0.9766	0.6779	-0.189
Mof_C 	C 	0.2222	0.9326	0.6357	0.102
Mof_H 	H 	0.1819	0.9251	0.6162	0.034
Mof_C 	C 	0.282	0.8979	0.6208	-0.139
Mof_C 	C 	0.3413	0.9085	0.6484	0.101
Mof_H 	H 	0.3812	0.8862	0.6378	0
Mof_C 	C 	0.7235	0.838	0.7334	0.068
Mof_H 	H 	0.6941	0.8344	0.7649	-0.009
Mof_N 	N 	0.7984	0.8331	0.7312	0.092
Mof_H 	H 	0.8764	0.8302	0.7857	0.32
Mof_H 	H 	0.8092	0.8637	0.8085	0.181
Mof_H 	H 	0.8132	0.7841	0.8002	0.265
Mof_H 	H 	0.8907	0.8389	0.6907	0.145
Mof_H 	H 	0.8349	0.7999	0.6564	0.215
Mof_H 	H 	0.8309	0.8797	0.6627	0.17
Mof_O 	O 	0.5138	0.9603	0.5917	-0.337
Mof_H 	H 	0.4877	0.9944	0.5977	0.122
Mof_H 	H 	0.5264	0.9509	0.559	0.119
Mof_O 	O 	0.9376	0.461	0.712	-0.544
Mof_O 	O 	0.9947	0.3993	0.7704	-0.632
Mof_O 	O 	0.8414	0.222	0.548	-0.526
Mof_O 	O 	0.8085	0.3275	0.5643	-0.445
Mof_O 	O 	0.9933	0.1042	0.6699	-0.622
Mof_O 	O 	0.0501	0.1579	0.7382	-0.471
Mof_O 	O 	0.8425	0.6958	0.6875	-0.229
Mof_C 	C 	0.963	0.4044	0.726	0.452
Mof_C 	C 	0.8458	0.2776	0.5736	0.337
Mof_C 	C 	0.0121	0.159	0.6978	0.444
Mof_C 	C 	0.9531	0.3415	0.6931	-0.207
Mof_C 	C 	0.9865	0.2825	0.709	0.116
Mof_H 	H 	0.0148	0.2822	0.7397	-0.014
Mof_C 	C 	0.9766	0.2229	0.6779	-0.189
Mof_C 	C 	0.9326	0.2222	0.6357	0.102
Mof_H 	H 	0.9251	0.1819	0.6162	0.034
Mof_C 	C 	0.8979	0.282	0.6208	-0.139
Mof_C 	C 	0.9085	0.3413	0.6484	0.101
Mof_H 	H 	0.8862	0.3812	0.6378	0
Mof_C 	C 	0.838	0.7235	0.7334	0.068
Mof_H 	H 	0.8344	0.6941	0.7649	-0.009
Mof_N 	N 	0.8331	0.7984	0.7312	0.092
Mof_H 	H 	0.8302	0.8764	0.7857	0.32
Mof_H 	H 	0.8637	0.8092	0.8085	0.181
Mof_H 	H 	0.7841	0.8132	0.8002	0.265
Mof_H 	H 	0.8389	0.8907	0.6907	0.145
Mof_H 	H 	0.7999	0.8349	0.6564	0.215
Mof_H 	H 	0.8797	0.8309	0.6627	0.17
Mof_O 	O 	0.9603	0.5138	0.5917	-0.337
Mof_H 	H 	0.9944	0.4877	0.5977	0.122
Mof_H 	H 	0.9509	0.5264	0.559	0.119
Mof_O 	O 	0.5624	0.039	0.712	-0.543
Mof_O 	O 	0.5053	0.1007	0.7704	-0.634
Mof_O 	O 	0.6586	0.278	0.548	-0.528
Mof_O 	O 	0.6915	0.1725	0.5643	-0.445
Mof_O 	O 	0.5067	0.3958	0.6699	-0.644
Mof_O 	O 	0.4499	0.3421	0.7382	-0.476
Mof_O 	O 	0.6575	0.8042	0.6875	-0.228
Mof_C 	C 	0.537	0.0956	0.726	0.451
Mof_C 	C 	0.6542	0.2224	0.5736	0.337
Mof_C 	C 	0.4879	0.341	0.6978	0.466
Mof_C 	C 	0.5469	0.1585	0.6931	-0.206
Mof_C 	C 	0.5135	0.2175	0.709	0.11
Mof_H 	H 	0.4852	0.2178	0.7397	-0.009
Mof_C 	C 	0.5234	0.2771	0.6779	-0.202
Mof_C 	C 	0.5674	0.2778	0.6357	0.108
Mof_H 	H 	0.5749	0.3181	0.6162	0.03
Mof_C 	C 	0.6021	0.218	0.6208	-0.142
Mof_C 	C 	0.5915	0.1587	0.6484	0.102
Mof_H 	H 	0.6138	0.1188	0.6378	0
Mof_C 	C 	0.662	0.7765	0.7334	0.066
Mof_H 	H 	0.6656	0.8059	0.7649	-0.008
Mof_N 	N 	0.6669	0.7016	0.7312	0.095
Mof_H 	H 	0.6698	0.6236	0.7857	0.326
Mof_H 	H 	0.6363	0.6908	0.8085	0.186
Mof_H 	H 	0.7159	0.6868	0.8002	0.271
Mof_H 	H 	0.6611	0.6093	0.6907	0.147
Mof_H 	H 	0.7001	0.6651	0.6564	0.217
Mof_H 	H 	0.6203	0.6691	0.6627	0.172
Mof_O 	O 	0.5397	0.9862	0.5917	-0.343
Mof_H 	H 	0.5056	0.0123	0.5977	0.121
Mof_H 	H 	0.5491	0.9736	0.559	0.123
Mof_O 	O 	0.039	0.9376	0.212	-0.537
Mof_O 	O 	0.1007	0.9947	0.2704	-0.623
Mof_O 	O 	0.278	0.8414	0.048	-0.524
Mof_O 	O 	0.1725	0.8085	0.0643	-0.445
Mof_O 	O 	0.3958	0.9933	0.1699	-0.641
Mof_O 	O 	0.3421	0.0501	0.2382	-0.475
Mof_O 	O 	0.8042	0.8425	0.1875	-0.23
Mof_C 	C 	0.0956	0.963	0.226	0.453
Mof_C 	C 	0.2224	0.8458	0.0736	0.34
Mof_C 	C 	0.341	0.0121	0.1978	0.455
Mof_C 	C 	0.1585	0.9531	0.1931	-0.216
Mof_C 	C 	0.2175	0.9865	0.209	0.132
Mof_H 	H 	0.2178	0.0148	0.2397	-0.023
Mof_C 	C 	0.2771	0.9766	0.1779	-0.207
Mof_C 	C 	0.2778	0.9326	0.1357	0.114
Mof_H 	H 	0.3181	0.9251	0.1162	0.022
Mof_C 	C 	0.218	0.8979	0.1208	-0.155
Mof_C 	C 	0.1587	0.9085	0.1484	0.11
Mof_H 	H 	0.1188	0.8862	0.1378	-0.006
Mof_C 	C 	0.7765	0.838	0.2334	0.071
Mof_H 	H 	0.8059	0.8344	0.2649	-0.01
Mof_N 	N 	0.7016	0.8331	0.2312	0.083
Mof_H 	H 	0.6236	0.8302	0.2857	0.31
Mof_H 	H 	0.6908	0.8637	0.3085	0.171
Mof_H 	H 	0.6868	0.7841	0.3002	0.254
Mof_H 	H 	0.6093	0.8389	0.1907	0.14
Mof_H 	H 	0.6651	0.7999	0.1564	0.202
Mof_H 	H 	0.6691	0.8797	0.1627	0.158
Mof_O 	O 	0.9862	0.9603	0.0917	-0.345
Mof_H 	H 	0.0123	0.9944	0.0977	0.123
Mof_H 	H 	0.9736	0.9509	0.059	0.111
Mof_O 	O 	0.461	0.5624	0.212	-0.544
Mof_O 	O 	0.3993	0.5053	0.2704	-0.634
Mof_O 	O 	0.222	0.6586	0.048	-0.524
Mof_O 	O 	0.3275	0.6915	0.0643	-0.446
Mof_O 	O 	0.1042	0.5067	0.1699	-0.648
Mof_O 	O 	0.1579	0.4499	0.2382	-0.476
Mof_O 	O 	0.6958	0.6575	0.1875	-0.231
Mof_C 	C 	0.4044	0.537	0.226	0.452
Mof_C 	C 	0.2776	0.6542	0.0736	0.34
Mof_C 	C 	0.159	0.4879	0.1978	0.466
Mof_C 	C 	0.3415	0.5469	0.1931	-0.213
Mof_C 	C 	0.2825	0.5135	0.209	0.114
Mof_H 	H 	0.2822	0.4852	0.2397	-0.011
Mof_C 	C 	0.2229	0.5234	0.1779	-0.209
Mof_C 	C 	0.2222	0.5674	0.1357	0.113
Mof_H 	H 	0.1819	0.5749	0.1162	0.021
Mof_C 	C 	0.282	0.6021	0.1208	-0.155
Mof_C 	C 	0.3413	0.5915	0.1484	0.108
Mof_H 	H 	0.3812	0.6138	0.1378	-0.006
Mof_C 	C 	0.7235	0.662	0.2334	0.071
Mof_H 	H 	0.6941	0.6656	0.2649	-0.01
Mof_N 	N 	0.7984	0.6669	0.2312	0.083
Mof_H 	H 	0.8764	0.6698	0.2857	0.309
Mof_H 	H 	0.8092	0.6363	0.3085	0.171
Mof_H 	H 	0.8132	0.7159	0.3002	0.254
Mof_H 	H 	0.8907	0.6611	0.1907	0.14
Mof_H 	H 	0.8349	0.7001	0.1564	0.202
Mof_H 	H 	0.8309	0.6203	0.1627	0.158
Mof_O 	O 	0.5138	0.5397	0.0917	-0.338
Mof_H 	H 	0.4877	0.5056	0.0977	0.116
Mof_H 	H 	0.5264	0.5491	0.059	0.109
Mof_O 	O 	0.0624	0.961	0.788	-0.533
Mof_O 	O 	0.0053	0.8993	0.7296	-0.621
Mof_O 	O 	0.1586	0.722	0.952	-0.462
Mof_O 	O 	0.1915	0.8275	0.9357	-0.396
Mof_O 	O 	0.0067	0.6042	0.8301	-0.635
Mof_O 	O 	0.9499	0.6579	0.7618	-0.474
Mof_O 	O 	0.1575	0.1958	0.8125	-0.225
Mof_C 	C 	0.037	0.9044	0.774	0.449
Mof_C 	C 	0.1542	0.7776	0.9264	0.33
Mof_C 	C 	0.9879	0.659	0.8022	0.459
Mof_C 	C 	0.0469	0.8415	0.8069	-0.203
Mof_C 	C 	0.0135	0.7825	0.791	0.12
Mof_H 	H 	0.9852	0.7822	0.7603	-0.017
Mof_C 	C 	0.0234	0.7229	0.8221	-0.193
Mof_C 	C 	0.0674	0.7222	0.8643	0.103
Mof_H 	H 	0.0749	0.6819	0.8838	0.039
Mof_C 	C 	0.1021	0.782	0.8792	-0.128
Mof_C 	C 	0.0915	0.8413	0.8516	0.099
Mof_H 	H 	0.1138	0.8812	0.8622	0.007
Mof_C 	C 	0.162	0.2235	0.7666	0.066
Mof_H 	H 	0.1656	0.1941	0.7351	-0.009
Mof_N 	N 	0.1669	0.2984	0.7688	0.094
Mof_H 	H 	0.1698	0.3764	0.7143	0.318
Mof_H 	H 	0.1363	0.3092	0.6915	0.176
Mof_H 	H 	0.2159	0.3132	0.6998	0.261
Mof_H 	H 	0.1611	0.3907	0.8093	0.15
Mof_H 	H 	0.2001	0.3349	0.8436	0.227
Mof_H 	H 	0.1203	0.3309	0.8373	0.18
Mof_O 	O 	0.0397	0.0138	0.9083	-0.35
Mof_H 	H 	0.0056	0.9877	0.9023	0.134
Mof_H 	H 	0.0491	0.0264	0.941	0.133
Mof_O 	O 	0.4376	0.539	0.788	-0.543
Mof_O 	O 	0.4947	0.6007	0.7296	-0.634
Mof_O 	O 	0.3414	0.778	0.952	-0.462
Mof_O 	O 	0.3085	0.6725	0.9357	-0.396
Mof_O 	O 	0.4933	0.8958	0.8301	-0.638
Mof_O 	O 	0.5501	0.8421	0.7618	-0.474
Mof_O 	O 	0.3425	0.3042	0.8125	-0.226
Mof_C 	C 	0.463	0.5956	0.774	0.451
Mof_C 	C 	0.3458	0.7224	0.9264	0.33
Mof_C 	C 	0.5121	0.841	0.8022	0.465
Mof_C 	C 	0.4531	0.6585	0.8069	-0.201
Mof_C 	C 	0.4865	0.7175	0.791	0.106
Mof_H 	H 	0.5148	0.7178	0.7603	-0.008
Mof_C 	C 	0.4766	0.7771	0.8221	-0.194
Mof_C 	C 	0.4326	0.7778	0.8643	0.102
Mof_H 	H 	0.4251	0.8181	0.8838	0.039
Mof_C 	C 	0.3979	0.718	0.8792	-0.128
Mof_C 	C 	0.4085	0.6587	0.8516	0.097
Mof_H 	H 	0.3862	0.6188	0.8622	0.006
Mof_C 	C 	0.338	0.2765	0.7666	0.067
Mof_H 	H 	0.3344	0.3059	0.7351	-0.009
Mof_N 	N 	0.3331	0.2016	0.7688	0.094
Mof_H 	H 	0.3302	0.1236	0.7143	0.318
Mof_H 	H 	0.3637	0.1908	0.6915	0.176
Mof_H 	H 	0.2841	0.1868	0.6998	0.261
Mof_H 	H 	0.3389	0.1093	0.8093	0.15
Mof_H 	H 	0.2999	0.1651	0.8436	0.227
Mof_H 	H 	0.3797	0.1691	0.8373	0.181
Mof_O 	O 	0.4603	0.4862	0.9083	-0.341
Mof_H 	H 	0.4944	0.5123	0.9023	0.127
Mof_H 	H 	0.4509	0.4736	0.941	0.132
Mof_O 	O 	0.961	0.4376	0.288	-0.54
Mof_O 	O 	0.8993	0.4947	0.2296	-0.633
Mof_O 	O 	0.722	0.3414	0.452	-0.528
Mof_O 	O 	0.8275	0.3085	0.4357	-0.444
Mof_O 	O 	0.6042	0.4933	0.3301	-0.644
Mof_O 	O 	0.6579	0.5501	0.2618	-0.475
Mof_O 	O 	0.1958	0.3425	0.3125	-0.228
Mof_C 	C 	0.9044	0.463	0.274	0.451
Mof_C 	C 	0.7776	0.3458	0.4264	0.337
Mof_C 	C 	0.659	0.5121	0.3022	0.465
Mof_C 	C 	0.8415	0.4531	0.3069	-0.206
Mof_C 	C 	0.7825	0.4865	0.291	0.11
Mof_H 	H 	0.7822	0.5148	0.2603	-0.01
Mof_C 	C 	0.7229	0.4766	0.3221	-0.201
Mof_C 	C 	0.7222	0.4326	0.3643	0.108
Mof_H 	H 	0.6819	0.4251	0.3838	0.03
Mof_C 	C 	0.782	0.3979	0.3792	-0.142
Mof_C 	C 	0.8413	0.4085	0.3516	0.102
Mof_H 	H 	0.8812	0.3862	0.3622	0.001
Mof_C 	C 	0.2235	0.338	0.2666	0.07
Mof_H 	H 	0.1941	0.3344	0.2351	-0.01
Mof_N 	N 	0.2984	0.3331	0.2688	0.083
Mof_H 	H 	0.3764	0.3302	0.2143	0.303
Mof_H 	H 	0.3092	0.3637	0.1915	0.163
Mof_H 	H 	0.3132	0.2841	0.1998	0.247
Mof_H 	H 	0.3907	0.3389	0.3093	0.143
Mof_H 	H 	0.3349	0.2999	0.3436	0.211
Mof_H 	H 	0.3309	0.3797	0.3373	0.166
Mof_O 	O 	0.0138	0.4603	0.4083	-0.335
Mof_H 	H 	0.9877	0.4944	0.4023	0.122
Mof_H 	H 	0.0264	0.4509	0.441	0.116
Mof_O 	O 	0.539	0.0624	0.288	-0.543
Mof_O 	O 	0.6007	0.0053	0.2296	-0.633
Mof_O 	O 	0.778	0.1586	0.452	-0.527
Mof_O 	O 	0.6725	0.1915	0.4357	-0.445
Mof_O 	O 	0.8958	0.0067	0.3301	-0.627
Mof_O 	O 	0.8421	0.9499	0.2618	-0.471
Mof_O 	O 	0.3042	0.1575	0.3125	-0.229
Mof_C 	C 	0.5956	0.037	0.274	0.452
Mof_C 	C 	0.7224	0.1542	0.4264	0.337
Mof_C 	C 	0.841	0.9879	0.3022	0.449
Mof_C 	C 	0.6585	0.0469	0.3069	-0.206
Mof_C 	C 	0.7175	0.0135	0.291	0.113
Mof_H 	H 	0.7178	0.9852	0.2603	-0.012
Mof_C 	C 	0.7771	0.0234	0.3221	-0.191
Mof_C 	C 	0.7778	0.0674	0.3643	0.102
Mof_H 	H 	0.8181	0.0749	0.3838	0.034
Mof_C 	C 	0.718	0.1021	0.3792	-0.139
Mof_C 	C 	0.6587	0.0915	0.3516	0.101
Mof_H 	H 	0.6188	0.1138	0.3622	0.001
Mof_C 	C 	0.2765	0.162	0.2666	0.073
Mof_H 	H 	0.3059	0.1656	0.2351	-0.011
Mof_N 	N 	0.2016	0.1669	0.2688	0.079
Mof_H 	H 	0.1236	0.1698	0.2143	0.295
Mof_H 	H 	0.1908	0.1363	0.1915	0.158
Mof_H 	H 	0.1868	0.2159	0.1998	0.24
Mof_H 	H 	0.1093	0.1611	0.3093	0.14
Mof_H 	H 	0.1651	0.2001	0.3436	0.208
Mof_H 	H 	0.1691	0.1203	0.3373	0.163
Mof_O 	O 	0.4862	0.0397	0.4083	-0.346
Mof_H 	H 	0.5123	0.0056	0.4023	0.123
Mof_H 	H 	0.4736	0.0491	0.441	0.125
Mof_In	In	0.00029	0.49971	0.19268	2.567
Mof_Sr	Sr	0.085	0.415	0.31997	1.479
Mof_Cl	Cl	0.9595	0.5405	0.106	-0.712
Mof_In	In	0.49971	0.00029	0.19268	2.567
Mof_Sr	Sr	0.415	0.085	0.31997	1.479
Mof_Cl	Cl	0.5405	0.9595	0.106	-0.712
Mof_In	In	0.00029	0.00029	0.69268	2.518
Mof_Sr	Sr	0.085	0.085	0.81997	1.485
Mof_Cl	Cl	0.9595	0.9595	0.606	-0.69
Mof_In	In	0.49971	0.49971	0.69268	2.578
Mof_Sr	Sr	0.415	0.415	0.81997	1.498
Mof_Cl	Cl	0.5405	0.5405	0.606	-0.692
Mof_In	In	0.99971	0.99971	0.30732	2.539
Mof_Sr	Sr	0.915	0.915	0.18003	1.457
Mof_Cl	Cl	0.0405	0.0405	0.394	-0.695
Mof_In	In	0.50029	0.50029	0.30732	2.58
Mof_Sr	Sr	0.585	0.585	0.18003	1.466
Mof_Cl	Cl	0.4595	0.4595	0.394	-0.691
Mof_In	In	0.99971	0.50029	0.80732	2.579
Mof_Sr	Sr	0.915	0.585	0.68003	1.479
Mof_Cl	Cl	0.0405	0.4595	0.894	-0.666
Mof_In	In	0.50029	0.99971	0.80732	2.579
Mof_Sr	Sr	0.585	0.915	0.68003	1.479
Mof_Cl	Cl	0.4595	0.0405	0.894	-0.666
Mof_In	In	0.25	0.75	0.5	2.387
Mof_In	In	0.75	0.25	-0	2.147
Mof_In	In	0.75	0.25	0.5	2.387
Mof_In	In	0.25	0.75	-0	2.147
Mof_C 	C 	0.1723	0.1723	0.2142	-1.286
Mof_C 	C 	0.1623	0.1623	0.3192	-0.9
Mof_C 	C 	0.3277	0.3277	0.2142	-1.321
Mof_C 	C 	0.3377	0.3377	0.3192	-0.918
Mof_C 	C 	0.3277	0.1723	0.7142	-1.393
Mof_C 	C 	0.3377	0.1623	0.8192	-0.978
Mof_C 	C 	0.1723	0.3277	0.7142	-1.393
Mof_C 	C 	0.1623	0.3377	0.8192	-0.978
Mof_C 	C 	0.8277	0.6723	0.2858	-1.352
Mof_C 	C 	0.8377	0.6623	0.1808	-0.889
Mof_C 	C 	0.6723	0.8277	0.2858	-1.352
Mof_C 	C 	0.6623	0.8377	0.1808	-0.889
Mof_C 	C 	0.6723	0.6723	0.7858	-1.434
Mof_C 	C 	0.6623	0.6623	0.6808	-0.95
Mof_C 	C 	0.8277	0.8277	0.7858	-1.407
Mof_C 	C 	0.8377	0.8377	0.6808	-0.939
_end
