# CIF file generated by openbabel 3.1.0, see https://openbabel.org
data_I
_chemical_name_common 'image0'
_cell_length_a 11.115
_cell_length_b 13.287
_cell_length_c 8.664
_cell_angle_alpha 90
_cell_angle_beta 90
_cell_angle_gamma 90
_space_group_name_H-M_alt 'P 1'
_space_group_name_Hall 'P 1'
loop_
    _symmetry_equiv_pos_as_xyz
    x,y,z
loop_
    _atom_site_label
    _atom_site_type_symbol
    _atom_site_fract_x
    _atom_site_fract_y
    _atom_site_fract_z
    _atom_site_occupancy
    N1       N        0.09600    0.95190    0.19100    1.000
    N2       N        0.36100    0.05800    0.19000    1.000
    C1       C        0.03500    0.93720    0.29300    1.000
    C2       C        0.41300    0.08900    0.28900    1.000
    N3       N        0.90400    0.45190    0.30900    1.000
    N4       N        0.63900    0.55800    0.31000    1.000
    C3       C        0.96500    0.43720    0.20700    1.000
    C4       C        0.58700    0.58900    0.21100    1.000
    N5       N        0.90400    0.45190    0.69100    1.000
    N6       N        0.63900    0.55800    0.69000    1.000
    C5       C        0.96500    0.43720    0.79300    1.000
    C6       C        0.58700    0.58900    0.78900    1.000
    N7       N        0.09600    0.95190    0.80900    1.000
    N8       N        0.36100    0.05800    0.81000    1.000
    C7       C        0.03500    0.93720    0.70700    1.000
    C8       C        0.41300    0.08900    0.71100    1.000
    Cd1      Cd       0.22899    0.00000    0.00000    1.000
    N9       N        0.13900    0.16100    0.00000    1.000
    N10      N        0.33300    0.84900    0.00000    1.000
    C9       C        0.11700    0.24000    0.00000    1.000
    C10      C        0.39000    0.77600    0.00000    1.000
    Cd2      Cd       0.77101    0.50000    0.50000    1.000
    N11      N        0.86100    0.66100    0.50000    1.000
    N12      N        0.66700    0.34900    0.50000    1.000
    C11      C        0.88300    0.74000    0.50000    1.000
    C12      C        0.61000    0.27600    0.50000    1.000
    Cd3      Cd       0.92600    0.90320    0.50000    1.000
    Cd4      Cd       0.50670    0.13500    0.50000    1.000
    C13      C        0.75700    0.98600    0.50000    1.000
    C14      C        0.67200    0.03500    0.50000    1.000
    Cd5      Cd       0.07400    0.40320    0.00000    1.000
    Cd6      Cd       0.49330    0.63500    0.00000    1.000
    C15      C        0.24300    0.48600    0.00000    1.000
    C16      C        0.32800    0.53500    0.00000    1.000
