data_functionalizedCrystal
_audit_creation_method	'EQeq! by Chris Wilmer'
_symmetry_space_group_name_H-M	'P1'
_symmetry_Int_Tables_number	1
_symmetry_cell_setting	triclinic
loop_
_symmetry_equiv_pos_as_xyz
  x,y,z
_cell_length_a	15.454
_cell_length_b	18.7345
_cell_length_c	18.7345
_cell_angle_alpha	80.2055
_cell_angle_beta	65.6412
_cell_angle_gamma	65.6412
loop_
_atom_site_label
_atom_site_type_symbol
_atom_site_fract_x
_atom_site_fract_y
_atom_site_fract_z
_atom_site_charge
Mof_Cs	Cs	0.44572	0.50094	0.83728	4.116
Mof_Cs	Cs	0.78394	0.49906	0.16272	4.039
Mof_Cs	Cs	0.283	0.16272	0.50094	4.171
Mof_Cs	Cs	0.94666	0.83728	0.49906	3.706
Mof_H 	H 	0.06	0.4034	0.8544	0.147
Mof_H 	H 	0.0196	0.3195	0.0121	0.16
Mof_H 	H 	0.322	0.494	0.0518	0.094
Mof_H 	H 	0.9731	0.2198	0.3224	0.182
Mof_H 	H 	0.0086	0.373	0.136	0.21
Mof_H 	H 	0.4175	0.2691	0.1875	0.177
Mof_H 	H 	0.9957	0.5524	0.8776	0.025
Mof_H 	H 	0.0966	0.6598	0.6956	0.082
Mof_H 	H 	0.4409	0.6818	0.7226	0.145
Mof_H 	H 	0.0986	0.7264	0.641	0.168
Mof_H 	H 	0.0188	0.9836	0.5522	0.196
Mof_H 	H 	0.3589	0.9031	0.7035	0.186
Mof_H 	H 	0.2629	0.4092	0.8156	-0.124
Mof_H 	H 	0.1079	0.4415	0.9237	0.011
Mof_H 	H 	0.1915	0.2815	0.9751	0.037
Mof_H 	H 	0.1423	0.4242	0.0474	0.014
Mof_H 	H 	0.3413	0.3044	0.9656	0.01
Mof_H 	H 	0.4167	0.3833	0.9813	-0.125
Mof_H 	H 	0.3424	0.3673	0.0665	0.044
Mof_H 	H 	0.1479	0.4159	0.1569	0.014
Mof_H 	H 	0.0277	0.3895	0.2731	-0.053
Mof_H 	H 	0.0827	0.2443	0.2025	0.061
Mof_H 	H 	0.3896	0.3337	0.7335	-0.072
Mof_H 	H 	0.273	0.2146	0.1762	0.08
Mof_H 	H 	0.3365	0.1621	0.2811	-0.094
Mof_H 	H 	0.3048	0.2496	0.3062	-0.155
Mof_H 	H 	0.1678	0.5541	0.9307	-0.119
Mof_H 	H 	0.1397	0.5586	0.8176	-0.009
Mof_H 	H 	0.014	0.7221	0.8401	0.074
Mof_H 	H 	0.2192	0.6607	0.7269	-0.029
Mof_H 	H 	0.146	0.7436	0.87	0.031
Mof_H 	H 	0.3178	0.721	0.8442	-0.033
Mof_H 	H 	0.2823	0.7766	0.7782	0.052
Mof_H 	H 	0.2482	0.7378	0.6324	-0.034
Mof_H 	H 	0.1772	0.8232	0.5516	-0.016
Mof_H 	H 	0.0006	0.9043	0.6849	0.038
Mof_H 	H 	0.1174	0.5787	0.0427	-0.008
Mof_H 	H 	0.1222	0.9078	0.7402	0.075
Mof_H 	H 	0.1788	0.0134	0.708	-0.019
Mof_H 	H 	0.2757	0.965	0.6348	-0.07
Mof_H 	H 	0.3178	0.5966	0.1456	0.124
Mof_H 	H 	0.3512	0.6805	0.9879	0.14
Mof_H 	H 	0.8678	0.506	0.9482	0.076
Mof_H 	H 	0.5153	0.7802	0.6776	0.186
Mof_H 	H 	0.5176	0.627	0.864	0.135
Mof_H 	H 	0.8741	0.7309	0.8125	0.157
Mof_H 	H 	0.4257	0.4476	0.1224	0.113
Mof_H 	H 	0.452	0.3402	0.3044	0.079
Mof_H 	H 	0.8453	0.3182	0.2774	0.142
Mof_H 	H 	0.466	0.2736	0.359	0.168
Mof_H 	H 	0.5546	0.0164	0.4478	0.189
Mof_H 	H 	0.9655	0.0969	0.2965	0.18
Mof_H 	H 	0.4877	0.5908	0.1844	-0.124
Mof_H 	H 	0.4731	0.5585	0.0763	0.003
Mof_H 	H 	0.4481	0.7185	0.0249	0.035
Mof_H 	H 	0.6139	0.5758	0.9526	0.01
Mof_H 	H 	0.6113	0.6956	0.0344	0.007
Mof_H 	H 	0.7813	0.6167	0.0187	-0.12
Mof_H 	H 	0.7762	0.6327	0.9335	0.041
Mof_H 	H 	0.7207	0.5841	0.8431	-0.003
Mof_H 	H 	0.6903	0.6105	0.7269	-0.064
Mof_H 	H 	0.5295	0.7557	0.7975	0.057
Mof_H 	H 	0.4568	0.6663	0.2665	-0.069
Mof_H 	H 	0.6638	0.7854	0.8238	0.078
Mof_H 	H 	0.7797	0.8379	0.7189	-0.092
Mof_H 	H 	0.8606	0.7504	0.6938	-0.159
Mof_H 	H 	0.6526	0.4459	0.0693	-0.113
Mof_H 	H 	0.5159	0.4414	0.1824	-0.023
Mof_H 	H 	0.5762	0.2779	0.1599	0.055
Mof_H 	H 	0.6068	0.3393	0.2731	-0.029
Mof_H 	H 	0.7596	0.2564	0.13	0.021
Mof_H 	H 	0.883	0.279	0.1558	-0.053
Mof_H 	H 	0.8371	0.2234	0.2218	0.042
Mof_H 	H 	0.6184	0.2622	0.3676	-0.035
Mof_H 	H 	0.552	0.1768	0.4484	-0.024
Mof_H 	H 	0.5898	0.0957	0.3151	0.01
Mof_H 	H 	0.7388	0.4213	0.9573	0.013
Mof_H 	H 	0.7702	0.0922	0.2598	0.064
Mof_H 	H 	0.9002	0.9866	0.292	-0.046
Mof_H 	H 	0.8755	0.035	0.3652	-0.078
Mof_H 	H 	0.9144	0.1456	0.4034	0.127
Mof_H 	H 	0.0317	0.9879	0.3195	0.174
Mof_H 	H 	0.3738	0.9482	0.494	0.091
Mof_H 	H 	0.2955	0.6776	0.2198	0.186
Mof_H 	H 	0.1446	0.864	0.373	0.144
Mof_H 	H 	0.605	0.8125	0.2691	0.177
Mof_H 	H 	0.8733	0.1224	0.5524	0.104
Mof_H 	H 	0.7922	0.3044	0.6598	0.076
Mof_H 	H 	0.1635	0.2774	0.6818	0.144
Mof_H 	H 	0.7396	0.359	0.7264	0.165
Mof_H 	H 	0.571	0.4478	0.9836	0.186
Mof_H 	H 	0.0624	0.2965	0.9031	0.18
Mof_H 	H 	0.0785	0.1844	0.4092	-0.1
Mof_H 	H 	0.0316	0.0763	0.4415	0.005
Mof_H 	H 	0.1666	0.0249	0.2815	0.05
Mof_H 	H 	0.1897	0.9526	0.4242	0.011
Mof_H 	H 	0.3069	0.0344	0.3044	0.011
Mof_H 	H 	0.398	0.0187	0.3833	-0.123
Mof_H 	H 	0.4089	0.9335	0.3673	0.045
Mof_H 	H 	0.3048	0.8431	0.4159	0.001
Mof_H 	H 	0.3008	0.7269	0.3895	-0.049
Mof_H 	H 	0.2852	0.7975	0.2443	0.059
Mof_H 	H 	0.1231	0.2665	0.3337	-0.058
Mof_H 	H 	0.4492	0.8238	0.2146	0.08
Mof_H 	H 	0.6176	0.7189	0.1621	-0.092
Mof_H 	H 	0.611	0.6938	0.2496	-0.154
Mof_H 	H 	0.0985	0.0693	0.5541	-0.132
Mof_H 	H 	0.9573	0.1824	0.5586	-0.024
Mof_H 	H 	0.8541	0.1599	0.7221	0.03
Mof_H 	H 	0.9461	0.2731	0.6607	-0.024
Mof_H 	H 	0.016	0.13	0.7436	0.016
Mof_H 	H 	0.162	0.1558	0.721	-0.02
Mof_H 	H 	0.0605	0.2218	0.7766	0.084
Mof_H 	H 	0.8806	0.3676	0.7378	-0.049
Mof_H 	H 	0.7288	0.4484	0.8232	-0.024
Mof_H 	H 	0.6855	0.3151	0.9043	0.006
Mof_H 	H 	0.1601	0.9573	0.5787	0.005
Mof_H 	H 	0.8624	0.2598	0.9078	0.037
Mof_H 	H 	0.8868	0.292	0.0134	0.003
Mof_H 	H 	0.9105	0.3652	0.965	-0.054
Mof_H 	H 	0.4634	0.8544	0.5966	0.122
Mof_H 	H 	0.3391	0.0121	0.6805	0.14
Mof_H 	H 	0.816	0.0518	0.506	0.091
Mof_H 	H 	0.1929	0.3224	0.7802	0.189
Mof_H 	H 	0.3816	0.136	0.627	0.134
Mof_H 	H 	0.6866	0.1875	0.7309	0.177
Mof_H 	H 	0.5481	0.8776	0.4476	0.112
Mof_H 	H 	0.7564	0.6956	0.3402	0.076
Mof_H 	H 	0.1227	0.7226	0.3182	0.151
Mof_H 	H 	0.825	0.641	0.2736	0.162
Mof_H 	H 	0.0024	0.5522	0.0164	0.245
Mof_H 	H 	0.262	0.7035	0.0969	0.187
Mof_H 	H 	0.6721	0.8156	0.5908	-0.117
Mof_H 	H 	0.5494	0.9237	0.5585	-0.001
Mof_H 	H 	0.473	0.9751	0.7185	0.039
Mof_H 	H 	0.5665	0.0474	0.5758	0.004
Mof_H 	H 	0.6457	0.9656	0.6956	0.016
Mof_H 	H 	0.8	0.9813	0.6167	-0.136
Mof_H 	H 	0.7097	0.0665	0.6327	0.033
Mof_H 	H 	0.5638	0.1569	0.5841	0
Mof_H 	H 	0.4172	0.2731	0.6105	-0.06
Mof_H 	H 	0.327	0.2025	0.7557	0.058
Mof_H 	H 	0.7233	0.7335	0.6663	-0.069
Mof_H 	H 	0.4876	0.1762	0.7854	0.08
Mof_H 	H 	0.4986	0.2811	0.8379	-0.094
Mof_H 	H 	0.5544	0.3062	0.7504	-0.157
Mof_H 	H 	0.7219	0.9307	0.4459	-0.107
Mof_H 	H 	0.6983	0.8176	0.4414	-0.023
Mof_H 	H 	0.7361	0.8401	0.2779	0.056
Mof_H 	H 	0.8799	0.7269	0.3393	-0.044
Mof_H 	H 	0.8896	0.87	0.2564	0.037
Mof_H 	H 	0.0388	0.8442	0.279	-0.035
Mof_H 	H 	0.0589	0.7782	0.2234	0.036
Mof_H 	H 	0.986	0.6324	0.2622	-0.048
Mof_H 	H 	0.0004	0.5516	0.1768	0.058
Mof_H 	H 	0.9049	0.6849	0.0957	0.009
Mof_H 	H 	0.6961	0.0427	0.4213	0.01
Mof_H 	H 	0.03	0.7402	0.0922	0.101
Mof_H 	H 	0.1922	0.708	0.9866	-0.024
Mof_H 	H 	0.2407	0.6348	0.035	-0.073
Mof_C 	C 	0.2605	0.3766	0.864	0.283
Mof_C 	C 	0.1512	0.3849	0.9105	-0.016
Mof_C 	C 	0.1468	0.3379	0.9881	0.091
Mof_C 	C 	0.1872	0.3684	0.0316	0.026
Mof_C 	C 	0.2973	0.361	0.9782	0.092
Mof_C 	C 	0.3441	0.3939	0.0157	0.026
Mof_C 	C 	0.1558	0.36	0.1696	0.093
Mof_C 	C 	0.0518	0.3586	0.2252	0.23
Mof_C 	C 	0.0623	0.2752	0.2494	0.038
Mof_C 	C 	0.3849	0.2839	0.7609	0.12
Mof_C 	C 	0.2471	0.2462	0.224	-0.054
Mof_C 	C 	0.3287	0.2158	0.2612	0.197
Mof_C 	C 	0.1432	0.6073	0.9079	0.254
Mof_C 	C 	0.0925	0.6045	0.8537	-0.012
Mof_C 	C 	0.0717	0.6783	0.8047	0.05
Mof_C 	C 	0.1635	0.7003	0.7677	0.041
Mof_C 	C 	0.2026	0.704	0.8294	0.094
Mof_C 	C 	0.2975	0.7229	0.8001	0.029
Mof_C 	C 	0.1939	0.7895	0.6553	0.172
Mof_C 	C 	0.1296	0.8211	0.6071	0.041
Mof_C 	C 	0.0536	0.9048	0.6314	0.089
Mof_C 	C 	0.0642	0.633	0.0468	0.127
Mof_C 	C 	0.1705	0.9136	0.6862	-0.011
Mof_C 	C 	0.2285	0.9599	0.6889	0.139
Mof_C 	C 	0.5011	0.6234	0.136	0.283
Mof_C 	C 	0.4466	0.6151	0.0895	-0.02
Mof_C 	C 	0.4728	0.6621	0.0119	0.101
Mof_C 	C 	0.5872	0.6316	0.9684	0.016
Mof_C 	C 	0.6365	0.639	0.0218	0.106
Mof_C 	C 	0.7537	0.6061	0.9843	0.007
Mof_C 	C 	0.6854	0.64	0.8304	0.117
Mof_C 	C 	0.6356	0.6414	0.7748	0.163
Mof_C 	C 	0.5869	0.7248	0.7506	-0.009
Mof_C 	C 	0.4297	0.7161	0.2391	0.117
Mof_C 	C 	0.7173	0.7538	0.776	-0.054
Mof_C 	C 	0.8057	0.7842	0.7388	0.193
Mof_C 	C 	0.6584	0.3927	0.0921	0.241
Mof_C 	C 	0.5507	0.3955	0.1463	0.011
Mof_C 	C 	0.5547	0.3217	0.1953	0.046
Mof_C 	C 	0.6315	0.2997	0.2323	0.042
Mof_C 	C 	0.736	0.296	0.1706	0.089
Mof_C 	C 	0.8205	0.2771	0.1999	0.039
Mof_C 	C 	0.6387	0.2105	0.3447	0.174
Mof_C 	C 	0.5578	0.1789	0.3929	0.041
Mof_C 	C 	0.5898	0.0952	0.3686	0.101
Mof_C 	C 	0.744	0.367	0.9532	0.029
Mof_C 	C 	0.7703	0.0864	0.3138	-0.013
Mof_C 	C 	0.8773	0.0401	0.3111	0.157
Mof_C 	C 	0.1245	0.136	0.3766	0.257
Mof_C 	C 	0.0617	0.0895	0.3849	0.06
Mof_C 	C 	0.1349	0.0119	0.3379	0.07
Mof_C 	C 	0.2188	0.9684	0.3684	0.036
Mof_C 	C 	0.2755	0.0218	0.361	0.092
Mof_C 	C 	0.3598	0.9843	0.3939	0.018
Mof_C 	C 	0.3254	0.8304	0.36	0.122
Mof_C 	C 	0.277	0.7748	0.3586	0.147
Mof_C 	C 	0.3117	0.7506	0.2752	-0.005
Mof_C 	C 	0.1458	0.2391	0.2839	0.105
Mof_C 	C 	0.4711	0.776	0.2462	-0.055
Mof_C 	C 	0.5899	0.7388	0.2158	0.196
Mof_C 	C 	0.0511	0.0921	0.6073	0.328
Mof_C 	C 	0.9462	0.1463	0.6045	-0.079
Mof_C 	C 	0.8764	0.1953	0.6783	0.095
Mof_C 	C 	0.9312	0.2323	0.7003	-0.055
Mof_C 	C 	0.032	0.1706	0.704	0.196
Mof_C 	C 	0.0976	0.1999	0.7229	-0.019
Mof_C 	C 	0.8492	0.3447	0.7895	0.179
Mof_C 	C 	0.7367	0.3929	0.8211	0.035
Mof_C 	C 	0.685	0.3686	0.9048	0.11
Mof_C 	C 	0.111	0.9532	0.633	0.063
Mof_C 	C 	0.8567	0.3138	0.9136	0.04
Mof_C 	C 	0.9174	0.3111	0.9599	0.013
Mof_C 	C 	0.6371	0.864	0.6234	0.272
Mof_C 	C 	0.5361	0.9105	0.6151	-0.011
Mof_C 	C 	0.4847	0.9881	0.6621	0.08
Mof_C 	C 	0.5556	0.0316	0.6316	0.045
Mof_C 	C 	0.6583	0.9782	0.639	0.068
Mof_C 	C 	0.738	0.0157	0.6061	0.057
Mof_C 	C 	0.5158	0.1696	0.64	0.117
Mof_C 	C 	0.4104	0.2252	0.6414	0.164
Mof_C 	C 	0.3375	0.2494	0.7248	-0.011
Mof_C 	C 	0.6688	0.7609	0.7161	0.116
Mof_C 	C 	0.4933	0.224	0.7538	-0.057
Mof_C 	C 	0.5445	0.2612	0.7842	0.199
Mof_C 	C 	0.7505	0.9079	0.3927	0.235
Mof_C 	C 	0.697	0.8537	0.3955	0.016
Mof_C 	C 	0.75	0.8047	0.3217	0.037
Mof_C 	C 	0.8638	0.7677	0.2997	0.067
Mof_C 	C 	0.9066	0.8294	0.296	-0.005
Mof_C 	C 	0.0204	0.8001	0.2771	0.137
Mof_C 	C 	0.9834	0.6553	0.2105	0.126
Mof_C 	C 	0.9507	0.6071	0.1789	-0.045
Mof_C 	C 	0.9584	0.6314	0.0952	0.053
Mof_C 	C 	0.6972	0.0468	0.367	0.057
Mof_C 	C 	0.0841	0.6862	0.0864	-0.039
Mof_C 	C 	0.1884	0.6889	0.0401	0.155
Mof_O 	O 	0.2991	0.4035	0.9071	-0.517
Mof_O 	O 	0.114	0.3588	0.8662	-0.307
Mof_O 	O 	0.0445	0.3435	0.0381	-0.385
Mof_O 	O 	0.1919	0.3203	0.0987	-0.194
Mof_O 	O 	0.2904	0.4742	0.028	-0.41
Mof_O 	O 	0.2304	0.3253	0.2029	-0.204
Mof_O 	O 	0.9658	0.2741	0.3073	-0.376
Mof_O 	O 	0.322	0.299	0.8418	-0.272
Mof_O 	O 	0.9789	0.3946	0.1888	-0.739
Mof_O 	O 	0.4248	0.2156	0.2066	-0.312
Mof_O 	O 	0.2283	0.6294	0.866	-0.553
Mof_O 	O 	0.0004	0.5929	0.9011	-0.173
Mof_O 	O 	0.04	0.6679	0.7469	-0.246
Mof_O 	O 	0.1317	0.7752	0.7316	-0.211
Mof_O 	O 	0.38	0.6685	0.7411	-0.517
Mof_O 	O 	0.2439	0.838	0.654	-0.214
Mof_O 	O 	0.0804	0.7723	0.6081	-0.519
Mof_O 	O 	0.0046	0.937	0.5768	-0.521
Mof_O 	O 	0.0674	0.6612	0.9704	-0.228
Mof_O 	O 	0.286	0.9279	0.7365	-0.3
Mof_O 	O 	0.6097	0.5965	0.0929	-0.515
Mof_O 	O 	0.339	0.6412	0.1338	-0.308
Mof_O 	O 	0.4261	0.6565	0.9619	-0.4
Mof_O 	O 	0.6109	0.6797	0.9013	-0.2
Mof_O 	O 	0.7926	0.5258	0.972	-0.408
Mof_O 	O 	0.7586	0.6747	0.7971	-0.218
Mof_O 	O 	0.5472	0.7259	0.6927	-0.323
Mof_O 	O 	0.4628	0.701	0.1582	-0.271
Mof_O 	O 	0.5623	0.6054	0.8112	-0.624
Mof_O 	O 	0.847	0.7844	0.7934	-0.33
Mof_O 	O 	0.7237	0.3706	0.134	-0.548
Mof_O 	O 	0.4944	0.4071	0.0989	-0.267
Mof_O 	O 	0.4548	0.3321	0.2531	-0.278
Mof_O 	O 	0.6385	0.2248	0.2684	-0.22
Mof_O 	O 	0.7896	0.3315	0.2589	-0.517
Mof_O 	O 	0.7359	0.162	0.346	-0.215
Mof_O 	O 	0.4608	0.2277	0.3919	-0.573
Mof_O 	O 	0.5184	0.063	0.4232	-0.586
Mof_O 	O 	0.699	0.3388	0.0296	-0.221
Mof_O 	O 	0.9504	0.0721	0.2635	-0.331
Mof_O 	O 	0.2062	0.0929	0.4035	-0.512
Mof_O 	O 	0.9802	0.1338	0.3588	-0.373
Mof_O 	O 	0.0826	0.9619	0.3435	-0.373
Mof_O 	O 	0.2906	0.9013	0.3203	-0.202
Mof_O 	O 	0.3184	0.972	0.4742	-0.411
Mof_O 	O 	0.4333	0.7971	0.3253	-0.211
Mof_O 	O 	0.2731	0.6927	0.2741	-0.315
Mof_O 	O 	0.1638	0.1582	0.299	-0.255
Mof_O 	O 	0.1677	0.8112	0.3946	-0.578
Mof_O 	O 	0.6314	0.7934	0.2156	-0.314
Mof_O 	O 	0.0943	0.134	0.6294	-0.576
Mof_O 	O 	0.9015	0.0989	0.5929	-0.274
Mof_O 	O 	0.7869	0.2531	0.6679	-0.29
Mof_O 	O 	0.8633	0.2684	0.7752	-0.216
Mof_O 	O 	0.1211	0.2589	0.6685	-0.49
Mof_O 	O 	0.8979	0.346	0.838	-0.25
Mof_O 	O 	0.6885	0.3919	0.7723	-0.57
Mof_O 	O 	0.5814	0.4232	0.937	-0.585
Mof_O 	O 	0.0378	0.0296	0.6612	-0.223
Mof_O 	O 	0.0225	0.2635	0.9279	-0.23
Mof_O 	O 	0.7026	0.9071	0.5965	-0.49
Mof_O 	O 	0.4728	0.8662	0.6412	-0.31
Mof_O 	O 	0.388	0.0381	0.6565	-0.394
Mof_O 	O 	0.5122	0.0987	0.6797	-0.203
Mof_O 	O 	0.7646	0.028	0.5258	-0.404
Mof_O 	O 	0.5557	0.2029	0.6747	-0.21
Mof_O 	O 	0.2399	0.3073	0.7259	-0.317
Mof_O 	O 	0.621	0.8418	0.701	-0.268
Mof_O 	O 	0.3735	0.1888	0.6054	-0.626
Mof_O 	O 	0.6404	0.2066	0.7844	-0.314
Mof_O 	O 	0.8577	0.866	0.3706	-0.521
Mof_O 	O 	0.5933	0.9011	0.4071	-0.27
Mof_O 	O 	0.7079	0.7469	0.3321	-0.276
Mof_O 	O 	0.9069	0.7316	0.2248	-0.234
Mof_O 	O 	0.0485	0.7411	0.3315	-0.478
Mof_O 	O 	0.0819	0.654	0.162	-0.16
Mof_O 	O 	0.8527	0.6081	0.2277	-0.554
Mof_O 	O 	0.9416	0.5768	0.063	-0.647
Mof_O 	O 	0.7286	0.9704	0.3388	-0.231
Mof_O 	O 	0.2139	0.7365	0.0721	-0.299
_end
