# CIF file generated by openbabel 3.1.0, see https://openbabel.org
data_I
_chemical_name_common 'image0'
_cell_length_a 12.3029
_cell_length_b 17.4336
_cell_length_c 17.492
_cell_angle_alpha 67.67
_cell_angle_beta 76.2
_cell_angle_gamma 71.884
_space_group_name_H-M_alt 'P 1'
_space_group_name_Hall 'P 1'
loop_
    _symmetry_equiv_pos_as_xyz
    x,y,z
loop_
    _atom_site_label
    _atom_site_type_symbol
    _atom_site_fract_x
    _atom_site_fract_y
    _atom_site_fract_z
    _atom_site_occupancy
    Mn1      Mn       0.86946    0.20046    0.64551    1.000
    Mn2      Mn       0.85702    0.43505    0.47037    1.000
    C1       C        0.05170    0.54160    0.26520    1.000
    H1       H        0.02700    0.57320    0.30140    1.000
    C2       C        0.16340    0.53100    0.22500    1.000
    C3       C        0.20180    0.48500    0.17080    1.000
    C4       C        0.12400    0.45000    0.15960    1.000
    H2       H        0.14900    0.41830    0.12350    1.000
    C5       C        0.01110    0.45820    0.19780    1.000
    C6       C        0.97660    0.50500    0.25140    1.000
    C7       C        0.20490    0.63220    0.26840    1.000
    H3       H        0.13270    0.66830    0.24830    1.000
    H4       H        0.26080    0.66680    0.24770    1.000
    C8       C        0.18610    0.60370    0.36310    1.000
    C9       C        0.79920    0.59470    0.28780    1.000
    H5       H        0.72100    0.59890    0.28160    1.000
    H6       H        0.83010    0.63490    0.23790    1.000
    C10      C        0.79450    0.62100    0.36160    1.000
    C11      C        0.32310    0.47600    0.12410    1.000
    H7       H        0.37240    0.47650    0.16030    1.000
    C12      C        0.32780    0.55430    0.04540    1.000
    H8       H        0.29730    0.60540    0.06020    1.000
    H9       H        0.28270    0.55510    0.00720    1.000
    H10      H        0.40650    0.55160    0.01950    1.000
    C13      C        0.36840    0.39160    0.10930    1.000
    C14      C        0.38550    0.31700    0.17660    1.000
    C15      C        0.41950    0.23740    0.16720    1.000
    H11      H        0.42830    0.18810    0.21380    1.000
    C16      C        0.44060    0.23140    0.08740    1.000
    C17      C        0.42690    0.30500    0.01760    1.000
    C18      C        0.39160    0.38260    0.03090    1.000
    H12      H        0.38270    0.43210    0.98460    1.000
    C19      C        0.44260    0.08480    0.13780    1.000
    H13      H        0.43540    0.04570    0.11320    1.000
    H14      H        0.36730    0.10490    0.16640    1.000
    C20      C        0.52550    0.03700    0.20090    1.000
    C21      C        0.30910    0.27360    0.32010    1.000
    H15      H        0.25760    0.25740    0.29810    1.000
    H16      H        0.26190    0.30630    0.35570    1.000
    C22      C        0.38370    0.19480    0.37140    1.000
    C23      C        0.45160    0.29440    0.93320    1.000
    H17      H        0.52740    0.25420    0.93080    1.000
    C24      C        0.46090    0.37680    0.86140    1.000
    H18      H        0.47640    0.36620    0.80940    1.000
    H19      H        0.52260    0.39680    0.86630    1.000
    H20      H        0.38970    0.41940    0.86330    1.000
    C25      C        0.36640    0.25460    0.92070    1.000
    C26      C        0.25660    0.25760    0.96520    1.000
    H21      H        0.23490    0.28360    0.00590    1.000
    C27      C        0.17740    0.22350    0.95200    1.000
    C28      C        0.21110    0.18660    0.89050    1.000
    C29      C        0.32160    0.17950    0.84700    1.000
    H22      H        0.34420    0.15160    0.80770    1.000
    C30      C        0.39700    0.21310    0.86180    1.000
    C31      C        0.53140    0.19750    0.74290    1.000
    H23      H        0.47970    0.24270    0.70590    1.000
    H24      H        0.51950    0.14310    0.74850    1.000
    C32      C        0.65340    0.20050    0.70730    1.000
    C33      C        0.13590    0.16370    0.79150    1.000
    H25      H        0.19560    0.11740    0.77800    1.000
    H26      H        0.15580    0.21700    0.75610    1.000
    C34      C        0.02230    0.16340    0.77380    1.000
    C35      C        0.05540    0.23110    0.99820    1.000
    H27      H        0.03670    0.17640    0.01100    1.000
    C36      C        0.97110    0.29890    0.94130    1.000
    H28      H        0.98170    0.28690    0.89050    1.000
    H29      H        0.98460    0.35400    0.92890    1.000
    H30      H        0.89350    0.29870    0.96860    1.000
    C37      C        0.04270    0.24470    0.08050    1.000
    C38      C        0.07810    0.17530    0.15100    1.000
    C39      C        0.06730    0.18620    0.22630    1.000
    H31      H        0.09290    0.14010    0.27230    1.000
    C40      C        0.01720    0.26750    0.23290    1.000
    C41      C        0.98060    0.33810    0.16550    1.000
    C42      C        0.99580    0.32400    0.09080    1.000
    H32      H        0.97320    0.37080    0.04440    1.000
    C43      C        0.92660    0.42390    0.17790    1.000
    H33      H        0.86720    0.41480    0.22680    1.000
    C44      C        0.86580    0.49170    0.10550    1.000
    H34      H        0.81170    0.46980    0.09330    1.000
    H35      H        0.92190    0.50600    0.05720    1.000
    H36      H        0.82560    0.54190    0.12040    1.000
    C45      C        0.00630    0.21690    0.38240    1.000
    H37      H        0.08620    0.18990    0.39130    1.000
    H38      H        0.97120    0.17410    0.38260    1.000
    C46      C        0.94150    0.25460    0.45140    1.000
    C47      C        0.14850    0.02540    0.20890    1.000
    H39      H        0.19210    0.03660    0.24130    1.000
    H40      H        0.19780    0.97880    0.18980    1.000
    C48      C        0.04700    0.99680    0.26460    1.000
    O1       O        0.47600    0.15560    0.07330    1.000
    O2       O        0.62280    0.04740    0.18540    1.000
    O3       O        0.48510    0.98770    0.26670    1.000
    H41      H        0.53400    0.96360    0.29850    1.000
    O4       O        0.37150    0.32650    0.25290    1.000
    O5       O        0.32830    0.14660    0.43040    1.000
    O6       O        0.50780    0.20810    0.82150    1.000
    O7       O        0.68230    0.20910    0.63070    1.000
    O8       O        0.72470    0.19360    0.75110    1.000
    O9       O        0.13220    0.15430    0.87560    1.000
    O10      O        0.00880    0.19560    0.69830    1.000
    O11      O        0.95410    0.13220    0.83010    1.000
    O12      O        0.12400    0.09830    0.13890    1.000
    O13      O        0.07050    0.93470    0.33100    1.000
    O14      O        0.94800    0.03410    0.24600    1.000
    O15      O        0.00030    0.28430    0.30600    1.000
    O16      O        0.94590    0.20310    0.52330    1.000
    O17      O        0.88790    0.33060    0.43110    1.000
    O18      O        0.86510    0.51250    0.29310    1.000
    O19      O        0.84850    0.56760    0.42030    1.000
    O20      O        0.73550    0.69340    0.35920    1.000
    O21      O        0.24360    0.56540    0.23450    1.000
    O22      O        0.18750    0.53040    0.40620    1.000
    O23      O        0.16880    0.66090    0.39450    1.000
    O24      O        0.48910    0.18020    0.35480    1.000
    Mn3      Mn       0.13054    0.79954    0.35449    1.000
    Mn4      Mn       0.14298    0.56495    0.52963    1.000
    C49      C        0.94830    0.45840    0.73480    1.000
    H42      H        0.97300    0.42680    0.69860    1.000
    C50      C        0.83660    0.46900    0.77500    1.000
    C51      C        0.79820    0.51500    0.82920    1.000
    C52      C        0.87600    0.55000    0.84040    1.000
    H43      H        0.85100    0.58170    0.87650    1.000
    C53      C        0.98890    0.54180    0.80220    1.000
    C54      C        0.02340    0.49500    0.74860    1.000
    C55      C        0.79510    0.36780    0.73160    1.000
    H44      H        0.86730    0.33170    0.75170    1.000
    H45      H        0.73920    0.33320    0.75230    1.000
    C56      C        0.81390    0.39630    0.63690    1.000
    C57      C        0.20080    0.40530    0.71220    1.000
    H46      H        0.27900    0.40110    0.71840    1.000
    H47      H        0.16990    0.36510    0.76210    1.000
    C58      C        0.20550    0.37900    0.63840    1.000
    C59      C        0.67690    0.52400    0.87590    1.000
    H48      H        0.62760    0.52350    0.83970    1.000
    C60      C        0.67220    0.44570    0.95460    1.000
    H49      H        0.70270    0.39460    0.93980    1.000
    H50      H        0.71730    0.44490    0.99280    1.000
    H51      H        0.59350    0.44840    0.98050    1.000
    C61      C        0.63160    0.60840    0.89070    1.000
    C62      C        0.61450    0.68300    0.82340    1.000
    C63      C        0.58050    0.76260    0.83280    1.000
    H52      H        0.57170    0.81190    0.78620    1.000
    C64      C        0.55940    0.76860    0.91260    1.000
    C65      C        0.57310    0.69500    0.98240    1.000
    C66      C        0.60840    0.61740    0.96910    1.000
    H53      H        0.61730    0.56790    0.01540    1.000
    C67      C        0.55740    0.91520    0.86220    1.000
    H54      H        0.56460    0.95430    0.88680    1.000
    H55      H        0.63270    0.89510    0.83360    1.000
    C68      C        0.47450    0.96300    0.79910    1.000
    C69      C        0.69090    0.72640    0.67990    1.000
    H56      H        0.74240    0.74260    0.70190    1.000
    H57      H        0.73810    0.69370    0.64430    1.000
    C70      C        0.61630    0.80520    0.62860    1.000
    C71      C        0.54840    0.70560    0.06680    1.000
    H58      H        0.47260    0.74580    0.06920    1.000
    C72      C        0.53910    0.62320    0.13860    1.000
    H59      H        0.52360    0.63380    0.19060    1.000
    H60      H        0.47740    0.60320    0.13370    1.000
    H61      H        0.61030    0.58060    0.13670    1.000
    C73      C        0.63360    0.74540    0.07930    1.000
    C74      C        0.74340    0.74240    0.03480    1.000
    H62      H        0.76510    0.71640    0.99410    1.000
    C75      C        0.82260    0.77650    0.04800    1.000
    C76      C        0.78890    0.81340    0.10950    1.000
    C77      C        0.67840    0.82050    0.15300    1.000
    H63      H        0.65580    0.84840    0.19230    1.000
    C78      C        0.60300    0.78690    0.13820    1.000
    C79      C        0.46860    0.80250    0.25710    1.000
    H64      H        0.52030    0.75730    0.29410    1.000
    H65      H        0.48050    0.85690    0.25150    1.000
    C80      C        0.34660    0.79950    0.29270    1.000
    C81      C        0.86410    0.83630    0.20850    1.000
    H66      H        0.80440    0.88260    0.22200    1.000
    H67      H        0.84420    0.78300    0.24390    1.000
    C82      C        0.97770    0.83660    0.22620    1.000
    C83      C        0.94460    0.76890    0.00180    1.000
    H68      H        0.96330    0.82360    0.98900    1.000
    C84      C        0.02890    0.70110    0.05870    1.000
    H69      H        0.01830    0.71310    0.10950    1.000
    H70      H        0.01540    0.64600    0.07110    1.000
    H71      H        0.10650    0.70130    0.03140    1.000
    C85      C        0.95730    0.75530    0.91950    1.000
    C86      C        0.92190    0.82470    0.84900    1.000
    C87      C        0.93270    0.81380    0.77370    1.000
    H72      H        0.90710    0.85990    0.72770    1.000
    C88      C        0.98280    0.73250    0.76710    1.000
    C89      C        0.01940    0.66190    0.83450    1.000
    C90      C        0.00420    0.67600    0.90920    1.000
    H73      H        0.02680    0.62920    0.95560    1.000
    C91      C        0.07340    0.57610    0.82210    1.000
    H74      H        0.13280    0.58520    0.77320    1.000
    C92      C        0.13420    0.50830    0.89450    1.000
    H75      H        0.18830    0.53020    0.90670    1.000
    H76      H        0.07810    0.49400    0.94280    1.000
    H77      H        0.17440    0.45810    0.87960    1.000
    C93      C        0.99370    0.78310    0.61760    1.000
    H78      H        0.91380    0.81010    0.60870    1.000
    H79      H        0.02880    0.82590    0.61740    1.000
    C94      C        0.05850    0.74540    0.54860    1.000
    C95      C        0.85150    0.97460    0.79110    1.000
    H80      H        0.80790    0.96340    0.75870    1.000
    H81      H        0.80220    0.02120    0.81020    1.000
    C96      C        0.95300    0.00320    0.73540    1.000
    O25      O        0.52400    0.84440    0.92670    1.000
    O26      O        0.37720    0.95260    0.81460    1.000
    O27      O        0.51490    0.01230    0.73330    1.000
    H82      H        0.46600    0.03640    0.70150    1.000
    O28      O        0.62850    0.67350    0.74710    1.000
    O29      O        0.67170    0.85340    0.56960    1.000
    O30      O        0.49220    0.79190    0.17850    1.000
    O31      O        0.31770    0.79090    0.36930    1.000
    O32      O        0.27530    0.80640    0.24890    1.000
    O33      O        0.86780    0.84570    0.12440    1.000
    O34      O        0.99120    0.80440    0.30170    1.000
    O35      O        0.04590    0.86780    0.16990    1.000
    O36      O        0.87600    0.90170    0.86110    1.000
    O37      O        0.92950    0.06530    0.66900    1.000
    O38      O        0.05200    0.96590    0.75400    1.000
    O39      O        0.99970    0.71570    0.69400    1.000
    O40      O        0.05410    0.79690    0.47670    1.000
    O41      O        0.11210    0.66940    0.56890    1.000
    O42      O        0.13490    0.48750    0.70690    1.000
    O43      O        0.15150    0.43240    0.57970    1.000
    O44      O        0.26450    0.30660    0.64080    1.000
    O45      O        0.75640    0.43460    0.76550    1.000
    O46      O        0.81250    0.46960    0.59380    1.000
    O47      O        0.83120    0.33910    0.60550    1.000
    O48      O        0.51090    0.81980    0.64520    1.000
