data_functionalizedCrystal
_audit_creation_method	'EQeq! by Chris Wilmer'
_symmetry_space_group_name_H-M	'P1'
_symmetry_Int_Tables_number	1
_symmetry_cell_setting	triclinic
loop_
_symmetry_equiv_pos_as_xyz
  x,y,z
_cell_length_a	9.472
_cell_length_b	11.4977
_cell_length_c	22.5039
_cell_angle_alpha	78.4172
_cell_angle_beta	77.8511
_cell_angle_gamma	65.6753
loop_
_atom_site_label
_atom_site_type_symbol
_atom_site_fract_x
_atom_site_fract_y
_atom_site_fract_z
_atom_site_charge
Mof_Zn	Zn	0.06707	0.83729	0.73863	1.22
Mof_Zn	Zn	0.64299	0.66271	0.76137	1.221
Mof_Zn	Zn	0.93293	0.16271	0.26137	1.22
Mof_Zn	Zn	0.35701	0.33729	0.23863	1.221
Mof_Zn	Zn	0.08435	0.25	0.75	1.175
Mof_Zn	Zn	0.91565	0.75	0.25	1.175
Mof_H 	H 	0.7467	0.0531	0.5709	0.034
Mof_H 	H 	0.5408	0.0667	0.5257	0.058
Mof_H 	H 	0.3374	0.0185	0.5851	0.026
Mof_H 	H 	0.7486	0.1671	0.1679	-0.001
Mof_H 	H 	0.7711	0.1729	0.0635	0.078
Mof_H 	H 	0.2029	0.1657	0.0491	0.077
Mof_H 	H 	0.1671	0.1624	0.153	0.007
Mof_H 	H 	0.7828	0.2768	0.9648	0.076
Mof_H 	H 	0.8217	0.2979	0.8603	0.002
Mof_H 	H 	0.268	0.1034	0.857	0.005
Mof_H 	H 	0.2434	0.0795	0.9607	0.081
Mof_H 	H 	0.3707	0.4469	0.9291	0.035
Mof_H 	H 	0.1332	0.4333	0.9743	0.058
Mof_H 	H 	0.941	0.4815	0.9149	0.03
Mof_H 	H 	0.0836	0.3329	0.3321	-0
Mof_H 	H 	0.0075	0.3271	0.4365	0.08
Mof_H 	H 	0.4177	0.3343	0.4509	0.079
Mof_H 	H 	0.4825	0.3376	0.347	0.008
Mof_H 	H 	0.0244	0.2232	0.5352	0.075
Mof_H 	H 	0.9799	0.2021	0.6397	0.005
Mof_H 	H 	0.2284	0.3966	0.643	0.005
Mof_H 	H 	0.2836	0.4205	0.5393	0.08
Mof_H 	H 	0.2533	0.9469	0.4291	0.035
Mof_H 	H 	0.4592	0.9333	0.4743	0.059
Mof_H 	H 	0.6626	0.9815	0.4149	0.027
Mof_H 	H 	0.2514	0.8329	0.8321	-0
Mof_H 	H 	0.2289	0.8271	0.9365	0.079
Mof_H 	H 	0.7971	0.8343	0.9509	0.078
Mof_H 	H 	0.8329	0.8376	0.847	0.007
Mof_H 	H 	0.2172	0.7232	0.0352	0.076
Mof_H 	H 	0.1783	0.7021	0.1397	0.002
Mof_H 	H 	0.732	0.8966	0.143	0.005
Mof_H 	H 	0.7566	0.9205	0.0393	0.081
Mof_H 	H 	0.6293	0.5531	0.0709	0.035
Mof_H 	H 	0.8668	0.5667	0.0257	0.058
Mof_H 	H 	0.059	0.5185	0.0851	0.03
Mof_H 	H 	0.9164	0.6671	0.6679	-0
Mof_H 	H 	0.9925	0.6729	0.5635	0.08
Mof_H 	H 	0.5823	0.6657	0.5491	0.079
Mof_H 	H 	0.5175	0.6624	0.653	0.008
Mof_H 	H 	0.9756	0.7768	0.4648	0.075
Mof_H 	H 	0.0201	0.7979	0.3603	0.005
Mof_H 	H 	0.7716	0.6034	0.357	0.005
Mof_H 	H 	0.7164	0.5795	0.4607	0.08
Mof_C 	C 	0.66352	0.03525	0.59489	-0.002
Mof_C 	C 	0.54022	0.04356	0.56772	-0.081
Mof_C 	C 	0.41737	0.01731	0.60343	0.024
Mof_C 	C 	0.41174	0.98887	0.66687	-0.112
Mof_C 	C 	0.53592	0.97815	0.69447	-0.049
Mof_C 	C 	0.66323	0.00069	0.65741	-0.051
Mof_C 	C 	0.80573	0.98147	0.68239	0.283
Mof_C 	C 	0.53238	0.94479	0.76251	0.329
Mof_C 	C 	0.26795	0.97356	0.70452	0.383
Mof_C 	C 	0.84105	0.1669	0.14344	0.083
Mof_C 	C 	0.85386	0.17024	0.08056	-0.133
Mof_C 	C 	0.99035	0.16954	0.04366	0.054
Mof_C 	C 	0.10892	0.16617	0.07229	-0.127
Mof_C 	C 	0.08705	0.16376	0.13464	0.078
Mof_C 	C 	0.01015	0.17611	0.97625	0.056
Mof_C 	C 	0.88351	0.24155	0.94389	-0.127
Mof_C 	C 	0.90793	0.25389	0.88097	0.069
Mof_C 	C 	0.16893	0.14065	0.87889	0.081
Mof_C 	C 	0.15484	0.12497	0.94149	-0.134
Mof_C 	C 	0.29366	0.46475	0.90511	-0.002
Mof_C 	C 	0.1515	0.45644	0.93228	-0.079
Mof_C 	C 	0.03811	0.48269	0.89657	0.02
Mof_C 	C 	0.06748	0.51113	0.83313	-0.112
Mof_C 	C 	0.20854	0.52185	0.80553	-0.049
Mof_C 	C 	0.32133	0.49931	0.84259	-0.052
Mof_C 	C 	0.46959	0.51853	0.81761	0.284
Mof_C 	C 	0.23968	0.55521	0.73749	0.33
Mof_C 	C 	0.94603	0.52644	0.79548	0.386
Mof_C 	C 	0.15139	0.3331	0.35656	0.084
Mof_C 	C 	0.10466	0.32976	0.41944	-0.134
Mof_C 	C 	0.20355	0.33046	0.45634	0.059
Mof_C 	C 	0.34738	0.33383	0.42771	-0.13
Mof_C 	C 	0.38545	0.33624	0.36536	0.077
Mof_C 	C 	0.16251	0.32389	0.52375	0.052
Mof_C 	C 	0.06895	0.25845	0.55611	-0.124
Mof_C 	C 	0.04279	0.24611	0.61903	0.062
Mof_C 	C 	0.18847	0.35935	0.62111	0.079
Mof_C 	C 	0.2213	0.37503	0.55851	-0.132
Mof_C 	C 	0.33648	0.96475	0.40511	-0.002
Mof_C 	C 	0.45978	0.95644	0.43228	-0.081
Mof_C 	C 	0.58263	0.98269	0.39657	0.024
Mof_C 	C 	0.58826	0.01113	0.33313	-0.112
Mof_C 	C 	0.46408	0.02185	0.30553	-0.049
Mof_C 	C 	0.33677	0.99931	0.34259	-0.051
Mof_C 	C 	0.19427	0.01853	0.31761	0.283
Mof_C 	C 	0.46762	0.05521	0.23749	0.329
Mof_C 	C 	0.73205	0.02644	0.29548	0.383
Mof_C 	C 	0.15895	0.8331	0.85656	0.083
Mof_C 	C 	0.14614	0.82976	0.91944	-0.133
Mof_C 	C 	0.00965	0.83046	0.95634	0.054
Mof_C 	C 	0.89108	0.83383	0.92771	-0.127
Mof_C 	C 	0.91295	0.83624	0.86536	0.078
Mof_C 	C 	0.98985	0.82389	0.02375	0.056
Mof_C 	C 	0.11649	0.75845	0.05611	-0.127
Mof_C 	C 	0.09207	0.74611	0.11903	0.069
Mof_C 	C 	0.83107	0.85935	0.12111	0.081
Mof_C 	C 	0.84516	0.87503	0.05851	-0.134
Mof_C 	C 	0.70634	0.53525	0.09489	-0.002
Mof_C 	C 	0.8485	0.54356	0.06772	-0.079
Mof_C 	C 	0.96189	0.51731	0.10343	0.02
Mof_C 	C 	0.93252	0.48887	0.16687	-0.112
Mof_C 	C 	0.79146	0.47815	0.19447	-0.049
Mof_C 	C 	0.67867	0.50069	0.15741	-0.052
Mof_C 	C 	0.53041	0.48147	0.18239	0.284
Mof_C 	C 	0.76032	0.44479	0.26251	0.33
Mof_C 	C 	0.05397	0.47356	0.20452	0.386
Mof_C 	C 	0.84861	0.6669	0.64344	0.084
Mof_C 	C 	0.89534	0.67024	0.58056	-0.134
Mof_C 	C 	0.79645	0.66954	0.54366	0.059
Mof_C 	C 	0.65262	0.66617	0.57229	-0.13
Mof_C 	C 	0.61455	0.66376	0.63464	0.077
Mof_C 	C 	0.83749	0.67611	0.47625	0.052
Mof_C 	C 	0.93105	0.74155	0.44389	-0.124
Mof_C 	C 	0.95721	0.75389	0.38097	0.062
Mof_C 	C 	0.81153	0.64065	0.37889	0.079
Mof_C 	C 	0.7787	0.62497	0.44149	-0.132
Mof_N 	N 	0.95492	0.1634	0.16998	-0.268
Mof_N 	N 	0.04994	0.20561	0.84765	-0.256
Mof_N 	N 	0.2883	0.3366	0.33002	-0.267
Mof_N 	N 	0.1032	0.29439	0.65235	-0.255
Mof_N 	N 	0.04508	0.8366	0.83002	-0.268
Mof_N 	N 	0.95006	0.79439	0.15235	-0.256
Mof_N 	N 	0.7117	0.6634	0.66998	-0.267
Mof_N 	N 	0.8968	0.70561	0.34765	-0.255
Mof_O 	O 	0.85174	0.88968	0.72312	-0.447
Mof_O 	O 	0.83943	0.08673	0.67421	-0.274
Mof_O 	O 	0.52172	0.02924	0.79278	-0.25
Mof_O 	O 	0.53182	0.83692	0.78724	-0.43
Mof_O 	O 	0.23589	0.88546	0.692	-0.473
Mof_O 	O 	0.18859	0.04439	0.74423	-0.481
Mof_O 	O 	0.46454	0.61032	0.77688	-0.448
Mof_O 	O 	0.60037	0.41327	0.82579	-0.275
Mof_O 	O 	0.34374	0.47076	0.70722	-0.251
Mof_O 	O 	0.15598	0.66308	0.71276	-0.431
Mof_O 	O 	0.81335	0.61454	0.808	-0.473
Mof_O 	O 	0.97721	0.45561	0.75577	-0.481
Mof_O 	O 	0.14826	0.11032	0.27688	-0.447
Mof_O 	O 	0.16057	0.91327	0.32579	-0.274
Mof_O 	O 	0.47828	0.97076	0.20722	-0.25
Mof_O 	O 	0.46818	0.16308	0.21276	-0.43
Mof_O 	O 	0.76411	0.11454	0.308	-0.473
Mof_O 	O 	0.81141	0.95561	0.25577	-0.481
Mof_O 	O 	0.53546	0.38968	0.22312	-0.448
Mof_O 	O 	0.39963	0.58673	0.17421	-0.275
Mof_O 	O 	0.65626	0.52924	0.29278	-0.251
Mof_O 	O 	0.84402	0.33692	0.28724	-0.431
Mof_O 	O 	0.18665	0.38546	0.192	-0.473
Mof_O 	O 	0.02279	0.54439	0.24423	-0.481
_end
