# CIF file generated by openbabel 3.1.0, see https://openbabel.org
data_I
_chemical_name_common 'image0'
_cell_length_a 21.926
_cell_length_b 21.926
_cell_length_c 10.5643
_cell_angle_alpha 90
_cell_angle_beta 90
_cell_angle_gamma 120
_space_group_name_H-M_alt 'P 1'
_space_group_name_Hall 'P 1'
loop_
    _symmetry_equiv_pos_as_xyz
    x,y,z
loop_
    _atom_site_label
    _atom_site_type_symbol
    _atom_site_fract_x
    _atom_site_fract_y
    _atom_site_fract_z
    _atom_site_occupancy
    Zn1      Zn       0.42898    0.14121    0.82714    1.000
    Zn2      Zn       0.43050    0.14595    0.16682    1.000
    Zn3      Zn       0.28788    0.14027    0.99372    1.000
    Zn4      Zn       0.42503    0.28093    0.99324    1.000
    Zn5      Zn       0.28833    0.29106    0.99232    1.000
    Zn6      Zn       0.42647    0.43184    0.00135    1.000
    Zn7      Zn       0.13812    0.14115    0.99344    1.000
    Zn8      Zn       0.57647    0.42993    0.00115    1.000
    Zn9      Zn       0.56597    0.28388    0.98384    1.000
    O1       O        0.52814    0.19615    0.10470    1.000
    H1       H        0.55000    0.21100    0.17700    1.000
    O2       O        0.47421    0.24018    0.87470    1.000
    H2       H        0.48300    0.25800    0.80600    1.000
    O3       O        0.33134    0.09135    0.88640    1.000
    H3       H        0.30700    0.08100    0.81600    1.000
    O4       O        0.37804    0.19122    0.10860    1.000
    H4       H        0.36800    0.20200    0.17900    1.000
    O5       O        0.48100    0.09540    0.88640    1.000
    H5       H        0.49670    0.08130    0.80830    1.000
    O6       O        0.33608    0.38288    0.88350    1.000
    H6       H        0.34600    0.37300    0.80900    1.000
    O7       O        0.04646    0.09806    0.88650    1.000
    H7       H        0.05200    0.11900    0.81700    1.000
    O8       O        0.38334    0.33606    0.08460    1.000
    H8       H        0.38220    0.33470    0.17920    1.000
    O9       O        0.19228    0.23867    0.90920    1.000
    H9       H        0.19100    0.24010    0.81460    1.000
    O10      O        0.52025    0.33235    0.07870    1.000
    H10      H        0.52030    0.32980    0.17330    1.000
    O11      O        0.52386    0.47290    0.08950    1.000
    H11      H        0.52440    0.47360    0.18410    1.000
    O12      O        0.18958    0.09686    0.90800    1.000
    H12      H        0.18800    0.09420    0.81350    1.000
    O13      O        0.62191    0.38157    0.90080    1.000
    H13      H        0.62040    0.38350    0.80630    1.000
    O14      O        0.32946    0.23495    0.90620    1.000
    H14      H        0.32960    0.23460    0.81160    1.000
    N1       N        0.01370    0.01950    0.64030    1.000
    H15      H        0.99360    0.04600    0.61710    1.000
    H16      H        0.06110    0.04540    0.62290    1.000
    C1       C        0.98270    0.95540    0.56610    1.000
    H17      H        0.94280    0.91680    0.61230    1.000
    H18      H        0.01810    0.94110    0.54850    1.000
    N2       N        0.44190    0.15940    0.35590    1.000
    H19      H        0.46810    0.14000    0.38420    1.000
    H20      H        0.46730    0.20700    0.37250    1.000
    C2       C        0.37890    0.13020    0.42650    1.000
    H21      H        0.35660    0.07820    0.42550    1.000
    H22      H        0.34600    0.14260    0.38520    1.000
    C3       C        0.39040    0.15620    0.56770    1.000
    H23      H        0.41500    0.20830    0.56930    1.000
    H24      H        0.34400    0.13840    0.60920    1.000
    N3       N        0.43133    0.13206    0.63750    1.000
    H25      H        0.47740    0.15730    0.61090    1.000
    H26      H        0.41490    0.08550    0.61790    1.000
    Zn10     Zn       0.85879    0.28777    0.82714    1.000
    Zn11     Zn       0.85405    0.28455    0.16682    1.000
    Zn12     Zn       0.85973    0.14761    0.99372    1.000
    Zn13     Zn       0.71907    0.14410    0.99324    1.000
    Zn14     Zn       0.70894    0.99727    0.99232    1.000
    Zn15     Zn       0.56816    0.99463    0.00135    1.000
    Zn16     Zn       0.85885    0.99697    0.99344    1.000
    Zn17     Zn       0.57007    0.14654    0.00115    1.000
    Zn18     Zn       0.71612    0.28209    0.98384    1.000
    O15      O        0.80385    0.33199    0.10470    1.000
    H27      H        0.78900    0.33900    0.17700    1.000
    O16      O        0.75982    0.23403    0.87470    1.000
    H28      H        0.74200    0.22500    0.80600    1.000
    O17      O        0.90865    0.23999    0.88640    1.000
    H29      H        0.91900    0.22600    0.81600    1.000
    O18      O        0.80878    0.18682    0.10860    1.000
    H30      H        0.79800    0.16600    0.17900    1.000
    O19      O        0.90460    0.38560    0.88640    1.000
    H31      H        0.91870    0.41540    0.80830    1.000
    O20      O        0.61712    0.95320    0.88350    1.000
    H32      H        0.62700    0.97300    0.80900    1.000
    O21      O        0.90194    0.94840    0.88650    1.000
    H33      H        0.88100    0.93300    0.81700    1.000
    O22      O        0.66394    0.04728    0.08460    1.000
    H34      H        0.66530    0.04750    0.17920    1.000
    O23      O        0.76133    0.95361    0.90920    1.000
    H35      H        0.75990    0.95090    0.81460    1.000
    O24      O        0.66765    0.18790    0.07870    1.000
    H36      H        0.67020    0.19050    0.17330    1.000
    O25      O        0.52710    0.05096    0.08950    1.000
    H37      H        0.52640    0.05080    0.18410    1.000
    O26      O        0.90314    0.09272    0.90800    1.000
    H38      H        0.90580    0.09380    0.81350    1.000
    O27      O        0.61843    0.24034    0.90080    1.000
    H39      H        0.61650    0.23690    0.80630    1.000
    O28      O        0.76505    0.09451    0.90620    1.000
    H40      H        0.76540    0.09500    0.81160    1.000
    N4       N        0.98050    0.99420    0.64030    1.000
    H41      H        0.95400    0.94760    0.61710    1.000
    H42      H        0.95460    0.01570    0.62290    1.000
    C4       C        0.04460    0.02730    0.56610    1.000
    H43      H        0.08320    0.02600    0.61230    1.000
    H44      H        0.05890    0.07700    0.54850    1.000
    N5       N        0.84060    0.28250    0.35590    1.000
    H45      H        0.86000    0.32810    0.38420    1.000
    H46      H        0.79300    0.26030    0.37250    1.000
    C5       C        0.86980    0.24870    0.42650    1.000
    H47      H        0.92180    0.27840    0.42550    1.000
    H48      H        0.85740    0.20340    0.38520    1.000
    C6       C        0.84380    0.23420    0.56770    1.000
    H49      H        0.79170    0.20670    0.56930    1.000
    H50      H        0.86160    0.20560    0.60920    1.000
    N6       N        0.86794    0.29927    0.63750    1.000
    H51      H        0.84270    0.32010    0.61090    1.000
    H52      H        0.91450    0.32940    0.61790    1.000
    Zn19     Zn       0.71223    0.57102    0.82714    1.000
    Zn20     Zn       0.71545    0.56950    0.16682    1.000
    Zn21     Zn       0.85239    0.71212    0.99372    1.000
    Zn22     Zn       0.85590    0.57497    0.99324    1.000
    Zn23     Zn       0.00273    0.71167    0.99232    1.000
    Zn24     Zn       0.00537    0.57353    0.00135    1.000
    Zn25     Zn       0.00303    0.86188    0.99344    1.000
    Zn26     Zn       0.85346    0.42353    0.00115    1.000
    Zn27     Zn       0.71791    0.43403    0.98384    1.000
    O29      O        0.66801    0.47186    0.10470    1.000
    H53      H        0.66100    0.45000    0.17700    1.000
    O30      O        0.76597    0.52579    0.87470    1.000
    H54      H        0.77500    0.51700    0.80600    1.000
    O31      O        0.76001    0.66866    0.88640    1.000
    H55      H        0.77400    0.69300    0.81600    1.000
    O32      O        0.81318    0.62196    0.10860    1.000
    H56      H        0.83400    0.63200    0.17900    1.000
    O33      O        0.61440    0.51900    0.88640    1.000
    H57      H        0.58460    0.50330    0.80830    1.000
    O34      O        0.04680    0.66392    0.88350    1.000
    H58      H        0.02700    0.65400    0.80900    1.000
    O35      O        0.05160    0.95354    0.88650    1.000
    H59      H        0.06700    0.94800    0.81700    1.000
    O36      O        0.95272    0.61666    0.08460    1.000
    H60      H        0.95250    0.61780    0.17920    1.000
    O37      O        0.04639    0.80772    0.90920    1.000
    H61      H        0.04910    0.80900    0.81460    1.000
    O38      O        0.81210    0.47975    0.07870    1.000
    H62      H        0.80950    0.47970    0.17330    1.000
    O39      O        0.94904    0.47614    0.08950    1.000
    H63      H        0.94920    0.47560    0.18410    1.000
    O40      O        0.90728    0.81042    0.90800    1.000
    H64      H        0.90620    0.81200    0.81350    1.000
    O41      O        0.75966    0.37809    0.90080    1.000
    H65      H        0.76310    0.37960    0.80630    1.000
    O42      O        0.90549    0.67054    0.90620    1.000
    H66      H        0.90500    0.67040    0.81160    1.000
    N7       N        0.00580    0.98630    0.64030    1.000
    H67      H        0.05240    0.00640    0.61710    1.000
    H68      H        0.98430    0.93890    0.62290    1.000
    C7       C        0.97270    0.01730    0.56610    1.000
    H69      H        0.97400    0.05720    0.61230    1.000
    H70      H        0.92300    0.98190    0.54850    1.000
    N8       N        0.71750    0.55810    0.35590    1.000
    H71      H        0.67190    0.53190    0.38420    1.000
    H72      H        0.73970    0.53270    0.37250    1.000
    C8       C        0.75130    0.62110    0.42650    1.000
    H73      H        0.72160    0.64340    0.42550    1.000
    H74      H        0.79660    0.65400    0.38520    1.000
    C9       C        0.76580    0.60960    0.56770    1.000
    H75      H        0.79330    0.58500    0.56930    1.000
    H76      H        0.79440    0.65600    0.60920    1.000
    N9       N        0.70073    0.56867    0.63750    1.000
    H77      H        0.67990    0.52260    0.61090    1.000
    H78      H        0.67060    0.58510    0.61790    1.000
    Zn28     Zn       0.57102    0.85879    0.17286    1.000
    Zn29     Zn       0.56950    0.85405    0.83318    1.000
    Zn30     Zn       0.71212    0.85973    0.00628    1.000
    Zn31     Zn       0.57497    0.71907    0.00676    1.000
    Zn32     Zn       0.71167    0.70894    0.00768    1.000
    Zn33     Zn       0.57353    0.56816    0.99865    1.000
    Zn34     Zn       0.86188    0.85885    0.00656    1.000
    Zn35     Zn       0.42353    0.57007    0.99885    1.000
    Zn36     Zn       0.43403    0.71612    0.01616    1.000
    O43      O        0.47186    0.80385    0.89530    1.000
    H79      H        0.45000    0.78900    0.82300    1.000
    O44      O        0.52579    0.75982    0.12530    1.000
    H80      H        0.51700    0.74200    0.19400    1.000
    O45      O        0.66866    0.90865    0.11360    1.000
    H81      H        0.69300    0.91900    0.18400    1.000
    O46      O        0.62196    0.80878    0.89140    1.000
    H82      H        0.63200    0.79800    0.82100    1.000
    O47      O        0.51900    0.90460    0.11360    1.000
    H83      H        0.50330    0.91870    0.19170    1.000
    O48      O        0.66392    0.61712    0.11650    1.000
    H84      H        0.65400    0.62700    0.19100    1.000
    O49      O        0.95354    0.90194    0.11350    1.000
    H85      H        0.94800    0.88100    0.18300    1.000
    O50      O        0.61666    0.66394    0.91540    1.000
    H86      H        0.61780    0.66530    0.82080    1.000
    O51      O        0.80772    0.76133    0.09080    1.000
    H87      H        0.80900    0.75990    0.18540    1.000
    O52      O        0.47975    0.66765    0.92130    1.000
    H88      H        0.47970    0.67020    0.82670    1.000
    O53      O        0.47614    0.52710    0.91050    1.000
    H89      H        0.47560    0.52640    0.81590    1.000
    O54      O        0.81042    0.90314    0.09200    1.000
    H90      H        0.81200    0.90580    0.18650    1.000
    O55      O        0.37809    0.61843    0.09920    1.000
    H91      H        0.37960    0.61650    0.19370    1.000
    O56      O        0.67054    0.76505    0.09380    1.000
    H92      H        0.67040    0.76540    0.18840    1.000
    N10      N        0.98630    0.98050    0.35970    1.000
    H93      H        0.00640    0.95400    0.38290    1.000
    H94      H        0.93890    0.95460    0.37710    1.000
    C10      C        0.01730    0.04460    0.43390    1.000
    H95      H        0.05720    0.08320    0.38770    1.000
    H96      H        0.98190    0.05890    0.45150    1.000
    N11      N        0.55810    0.84060    0.64410    1.000
    H97      H        0.53190    0.86000    0.61580    1.000
    H98      H        0.53270    0.79300    0.62750    1.000
    C11      C        0.62110    0.86980    0.57350    1.000
    H99      H        0.64340    0.92180    0.57450    1.000
    H100     H        0.65400    0.85740    0.61480    1.000
    C12      C        0.60960    0.84380    0.43230    1.000
    H101     H        0.58500    0.79170    0.43070    1.000
    H102     H        0.65600    0.86160    0.39080    1.000
    N12      N        0.56867    0.86794    0.36250    1.000
    H103     H        0.52260    0.84270    0.38910    1.000
    H104     H        0.58510    0.91450    0.38210    1.000
    Zn37     Zn       0.14121    0.71223    0.17286    1.000
    Zn38     Zn       0.14595    0.71545    0.83318    1.000
    Zn39     Zn       0.14027    0.85239    0.00628    1.000
    Zn40     Zn       0.28093    0.85590    0.00676    1.000
    Zn41     Zn       0.29106    0.00273    0.00768    1.000
    Zn42     Zn       0.43184    0.00537    0.99865    1.000
    Zn43     Zn       0.14115    0.00303    0.00656    1.000
    Zn44     Zn       0.42993    0.85346    0.99885    1.000
    Zn45     Zn       0.28388    0.71791    0.01616    1.000
    O57      O        0.19615    0.66801    0.89530    1.000
    H105     H        0.21100    0.66100    0.82300    1.000
    O58      O        0.24018    0.76597    0.12530    1.000
    H106     H        0.25800    0.77500    0.19400    1.000
    O59      O        0.09135    0.76001    0.11360    1.000
    H107     H        0.08100    0.77400    0.18400    1.000
    O60      O        0.19122    0.81318    0.89140    1.000
    H108     H        0.20200    0.83400    0.82100    1.000
    O61      O        0.09540    0.61440    0.11360    1.000
    H109     H        0.08130    0.58460    0.19170    1.000
    O62      O        0.38288    0.04680    0.11650    1.000
    H110     H        0.37300    0.02700    0.19100    1.000
    O63      O        0.09806    0.05160    0.11350    1.000
    H111     H        0.11900    0.06700    0.18300    1.000
    O64      O        0.33606    0.95272    0.91540    1.000
    H112     H        0.33470    0.95250    0.82080    1.000
    O65      O        0.23867    0.04639    0.09080    1.000
    H113     H        0.24010    0.04910    0.18540    1.000
    O66      O        0.33235    0.81210    0.92130    1.000
    H114     H        0.32980    0.80950    0.82670    1.000
    O67      O        0.47290    0.94904    0.91050    1.000
    H115     H        0.47360    0.94920    0.81590    1.000
    O68      O        0.09686    0.90728    0.09200    1.000
    H116     H        0.09420    0.90620    0.18650    1.000
    O69      O        0.38157    0.75966    0.09920    1.000
    H117     H        0.38350    0.76310    0.19370    1.000
    O70      O        0.23495    0.90549    0.09380    1.000
    H118     H        0.23460    0.90500    0.18840    1.000
    N13      N        0.01950    0.00580    0.35970    1.000
    H119     H        0.04600    0.05240    0.38290    1.000
    H120     H        0.04540    0.98430    0.37710    1.000
    C13      C        0.95540    0.97270    0.43390    1.000
    H121     H        0.91680    0.97400    0.38770    1.000
    H122     H        0.94110    0.92300    0.45150    1.000
    N14      N        0.15940    0.71750    0.64410    1.000
    H123     H        0.14000    0.67190    0.61580    1.000
    H124     H        0.20700    0.73970    0.62750    1.000
    C14      C        0.13020    0.75130    0.57350    1.000
    H125     H        0.07820    0.72160    0.57450    1.000
    H126     H        0.14260    0.79660    0.61480    1.000
    C15      C        0.15620    0.76580    0.43230    1.000
    H127     H        0.20830    0.79330    0.43070    1.000
    H128     H        0.13840    0.79440    0.39080    1.000
    N15      N        0.13206    0.70073    0.36250    1.000
    H129     H        0.15730    0.67990    0.38910    1.000
    H130     H        0.08550    0.67060    0.38210    1.000
    Zn46     Zn       0.28777    0.42898    0.17286    1.000
    Zn47     Zn       0.28455    0.43050    0.83318    1.000
    Zn48     Zn       0.14761    0.28788    0.00628    1.000
    Zn49     Zn       0.14410    0.42503    0.00676    1.000
    Zn50     Zn       0.99727    0.28833    0.00768    1.000
    Zn51     Zn       0.99463    0.42647    0.99865    1.000
    Zn52     Zn       0.99697    0.13812    0.00656    1.000
    Zn53     Zn       0.14654    0.57647    0.99885    1.000
    Zn54     Zn       0.28209    0.56597    0.01616    1.000
    O71      O        0.33199    0.52814    0.89530    1.000
    H131     H        0.33900    0.55000    0.82300    1.000
    O72      O        0.23403    0.47421    0.12530    1.000
    H132     H        0.22500    0.48300    0.19400    1.000
    O73      O        0.23999    0.33134    0.11360    1.000
    H133     H        0.22600    0.30700    0.18400    1.000
    O74      O        0.18682    0.37804    0.89140    1.000
    H134     H        0.16600    0.36800    0.82100    1.000
    O75      O        0.38560    0.48100    0.11360    1.000
    H135     H        0.41540    0.49670    0.19170    1.000
    O76      O        0.95320    0.33608    0.11650    1.000
    H136     H        0.97300    0.34600    0.19100    1.000
    O77      O        0.94840    0.04646    0.11350    1.000
    H137     H        0.93300    0.05200    0.18300    1.000
    O78      O        0.04728    0.38334    0.91540    1.000
    H138     H        0.04750    0.38220    0.82080    1.000
    O79      O        0.95361    0.19228    0.09080    1.000
    H139     H        0.95090    0.19100    0.18540    1.000
    O80      O        0.18790    0.52025    0.92130    1.000
    H140     H        0.19050    0.52030    0.82670    1.000
    O81      O        0.05096    0.52386    0.91050    1.000
    H141     H        0.05080    0.52440    0.81590    1.000
    O82      O        0.09272    0.18958    0.09200    1.000
    H142     H        0.09380    0.18800    0.18650    1.000
    O83      O        0.24034    0.62191    0.09920    1.000
    H143     H        0.23690    0.62040    0.19370    1.000
    O84      O        0.09451    0.32946    0.09380    1.000
    H144     H        0.09500    0.32960    0.18840    1.000
    N16      N        0.99420    0.01370    0.35970    1.000
    H145     H        0.94760    0.99360    0.38290    1.000
    H146     H        0.01570    0.06110    0.37710    1.000
    C16      C        0.02730    0.98270    0.43390    1.000
    H147     H        0.02600    0.94280    0.38770    1.000
    H148     H        0.07700    0.01810    0.45150    1.000
    N17      N        0.28250    0.44190    0.64410    1.000
    H149     H        0.32810    0.46810    0.61580    1.000
    H150     H        0.26030    0.46730    0.62750    1.000
    C17      C        0.24870    0.37890    0.57350    1.000
    H151     H        0.27840    0.35660    0.57450    1.000
    H152     H        0.20340    0.34600    0.61480    1.000
    C18      C        0.23420    0.39040    0.43230    1.000
    H153     H        0.20670    0.41500    0.43070    1.000
    H154     H        0.20560    0.34400    0.39080    1.000
    N18      N        0.29927    0.43133    0.36250    1.000
    H155     H        0.32010    0.47740    0.38910    1.000
    H156     H        0.32940    0.41490    0.38210    1.000
    Zn55     Zn       0.00000    0.00000    0.83009    1.000
    Zn56     Zn       0.00000    0.00000    0.16991    1.000
