# CIF file generated by openbabel 3.1.0, see https://openbabel.org
data_I
_chemical_name_common 'image0'
_cell_length_a 18.8423
_cell_length_b 18.8423
_cell_length_c 21.921
_cell_angle_alpha 90
_cell_angle_beta 90
_cell_angle_gamma 90
_space_group_name_H-M_alt 'P 1'
_space_group_name_Hall 'P 1'
loop_
    _symmetry_equiv_pos_as_xyz
    x,y,z
loop_
    _atom_site_label
    _atom_site_type_symbol
    _atom_site_fract_x
    _atom_site_fract_y
    _atom_site_fract_z
    _atom_site_occupancy
    C1       C        0.95850    0.44650    0.05050    1.000
    C2       C        0.57970    0.93470    0.99480    1.000
    C3       C        0.53420    0.92660    0.94540    1.000
    C4       C        0.46250    0.94220    0.95160    1.000
    C5       C        0.43630    0.96610    0.00720    1.000
    C6       C        0.48180    0.97420    0.05670    1.000
    C7       C        0.36820    0.77430    0.42120    1.000
    C8       C        0.47710    0.87420    0.72450    1.000
    C9       C        0.45600    0.82770    0.77020    1.000
    C10      C        0.43570    0.85400    0.82690    1.000
    C11      C        0.43650    0.92660    0.83770    1.000
    C12      C        0.45760    0.97310    0.79200    1.000
    C13      C        0.94690    0.52210    0.73530    1.000
    Cu1      Cu       0.79061    0.77478    0.41644    1.000
    C14      C        0.01180    0.68510    0.19730    1.000
    C15      C        0.07360    0.69990    0.22940    1.000
    H1       H        0.11850    0.69350    0.21050    1.000
    C16      C        0.06980    0.72420    0.28920    1.000
    C17      C        0.00410    0.73360    0.31690    1.000
    H2       H        0.00150    0.75020    0.35780    1.000
    C18      C        0.94230    0.71880    0.28480    1.000
    C19      C        0.94610    0.69460    0.22500    1.000
    H3       H        0.90380    0.68450    0.20310    1.000
    Cu2      Cu       0.29065    0.72307    0.32572    1.000
    C20      C        0.51260    0.76170    0.42790    1.000
    H4       H        0.51290    0.74280    0.38780    1.000
    C21      C        0.44880    0.78050    0.45530    1.000
    C22      C        0.44840    0.80820    0.51400    1.000
    H5       H        0.40470    0.82110    0.53270    1.000
    C23      C        0.51180    0.81710    0.54550    1.000
    C24      C        0.57570    0.79830    0.51810    1.000
    H6       H        0.61900    0.80440    0.53960    1.000
    C25      C        0.57610    0.77060    0.45940    1.000
    C26      C        0.13790    0.74240    0.31570    1.000
    O1       O        0.37220    0.74280    0.37220    1.000
    C27      C        0.88400    0.72700    0.32290    1.000
    O2       O        0.87960    0.76410    0.37430    1.000
    O3       O        0.13760    0.76840    0.36800    1.000
    O4       O        0.63530    0.73110    0.38110    1.000
    O5       O        0.82300    0.70300    0.29080    1.000
    O6       O        0.31640    0.79780    0.44010    1.000
    O7       O        0.70540    0.78470    0.45130    1.000
    O8       O        0.18870    0.71890    0.28860    1.000
    C28      C        0.64740    0.76100    0.43460    1.000
    C29      C        0.49550    0.82900    0.60850    1.000
    C30      C        0.36580    0.98960    0.01090    1.000
    C31      C        0.48500    0.77900    0.90200    1.000
    C32      C        0.45730    0.04400    0.80570    1.000
    C33      C        0.49260    0.83970    0.66350    1.000
    C34      C        0.49900    0.92940    0.70550    1.000
    C35      C        0.09300    0.52100    0.76230    1.000
    C36      C        0.01350    0.64950    0.13670    1.000
    O9       O        0.42100    0.80150    0.87070    1.000
    C37      C        0.51700    0.83200    0.94900    1.000
    C38      C        0.02510    0.60310    0.09810    1.000
    C39      C        0.41410    0.93880    0.90300    1.000
    C40      C        0.31900    0.98310    0.96340    1.000
    C41      C        0.34280    0.95690    0.90620    1.000
    O10      O        0.29950    0.94550    0.85660    1.000
    C42      C        0.22830    0.97160    0.86370    1.000
    C43      C        0.21700    0.03200    0.81600    1.000
    C44      C        0.04150    0.55350    0.05050    1.000
    C45      C        0.42030    0.06530    0.99480    1.000
    C46      C        0.46580    0.07340    0.94540    1.000
    C47      C        0.53750    0.05780    0.95160    1.000
    C48      C        0.56370    0.03390    0.00720    1.000
    C49      C        0.51820    0.02580    0.05670    1.000
    C50      C        0.63180    0.22570    0.42120    1.000
    C51      C        0.52290    0.12580    0.72450    1.000
    C52      C        0.54400    0.17230    0.77020    1.000
    C53      C        0.56430    0.14600    0.82690    1.000
    C54      C        0.56350    0.07340    0.83770    1.000
    C55      C        0.54240    0.02690    0.79200    1.000
    C56      C        0.05310    0.47790    0.73530    1.000
    Cu3      Cu       0.20939    0.22522    0.41644    1.000
    C57      C        0.98820    0.31490    0.19730    1.000
    C58      C        0.92640    0.30010    0.22940    1.000
    H7       H        0.88150    0.30650    0.21050    1.000
    C59      C        0.93020    0.27580    0.28920    1.000
    C60      C        0.99590    0.26640    0.31690    1.000
    H8       H        0.99850    0.24980    0.35780    1.000
    C61      C        0.05770    0.28120    0.28480    1.000
    C62      C        0.05390    0.30540    0.22500    1.000
    H9       H        0.09620    0.31550    0.20310    1.000
    Cu4      Cu       0.70935    0.27693    0.32572    1.000
    C63      C        0.48740    0.23830    0.42790    1.000
    H10      H        0.48710    0.25720    0.38780    1.000
    C64      C        0.55120    0.21950    0.45530    1.000
    C65      C        0.55160    0.19180    0.51400    1.000
    H11      H        0.59530    0.17890    0.53270    1.000
    C66      C        0.48820    0.18290    0.54550    1.000
    C67      C        0.42430    0.20170    0.51810    1.000
    H12      H        0.38100    0.19560    0.53960    1.000
    C68      C        0.42390    0.22940    0.45940    1.000
    C69      C        0.86210    0.25760    0.31570    1.000
    O11      O        0.62780    0.25720    0.37220    1.000
    C70      C        0.11600    0.27300    0.32290    1.000
    O12      O        0.12040    0.23590    0.37430    1.000
    O13      O        0.86240    0.23160    0.36800    1.000
    O14      O        0.36470    0.26890    0.38110    1.000
    O15      O        0.17700    0.29700    0.29080    1.000
    O16      O        0.68360    0.20220    0.44010    1.000
    O17      O        0.29460    0.21530    0.45130    1.000
    O18      O        0.81130    0.28110    0.28860    1.000
    C71      C        0.35260    0.23900    0.43460    1.000
    C72      C        0.50450    0.17100    0.60850    1.000
    C73      C        0.63420    0.01040    0.01090    1.000
    C74      C        0.51500    0.22100    0.90200    1.000
    C75      C        0.54270    0.95600    0.80570    1.000
    C76      C        0.50740    0.16030    0.66350    1.000
    C77      C        0.50100    0.07060    0.70550    1.000
    C78      C        0.90700    0.47900    0.76230    1.000
    C79      C        0.98650    0.35050    0.13670    1.000
    O19      O        0.57900    0.19850    0.87070    1.000
    C80      C        0.48300    0.16800    0.94900    1.000
    C81      C        0.97490    0.39690    0.09810    1.000
    C82      C        0.58590    0.06120    0.90300    1.000
    C83      C        0.68100    0.01690    0.96340    1.000
    C84      C        0.65720    0.04310    0.90620    1.000
    O20      O        0.70050    0.05450    0.85660    1.000
    C85      C        0.77170    0.02840    0.86370    1.000
    C86      C        0.78300    0.96800    0.81600    1.000
    C87      C        0.55350    0.95850    0.05050    1.000
    C88      C        0.06530    0.57970    0.99480    1.000
    C89      C        0.07340    0.53420    0.94540    1.000
    C90      C        0.05780    0.46250    0.95160    1.000
    C91      C        0.03390    0.43630    0.00720    1.000
    C92      C        0.02580    0.48180    0.05670    1.000
    C93      C        0.22570    0.36820    0.42120    1.000
    C94      C        0.12580    0.47710    0.72450    1.000
    C95      C        0.17230    0.45600    0.77020    1.000
    C96      C        0.14600    0.43570    0.82690    1.000
    C97      C        0.07340    0.43650    0.83770    1.000
    C98      C        0.02690    0.45760    0.79200    1.000
    C99      C        0.47790    0.94690    0.73530    1.000
    Cu5      Cu       0.22522    0.79061    0.41644    1.000
    C100     C        0.31490    0.01180    0.19730    1.000
    C101     C        0.30010    0.07360    0.22940    1.000
    H13      H        0.30650    0.11850    0.21050    1.000
    C102     C        0.27580    0.06980    0.28920    1.000
    C103     C        0.26640    0.00410    0.31690    1.000
    H14      H        0.24980    0.00150    0.35780    1.000
    C104     C        0.28120    0.94230    0.28480    1.000
    C105     C        0.30540    0.94610    0.22500    1.000
    H15      H        0.31550    0.90380    0.20310    1.000
    Cu6      Cu       0.27693    0.29065    0.32572    1.000
    C106     C        0.23830    0.51260    0.42790    1.000
    H16      H        0.25720    0.51290    0.38780    1.000
    C107     C        0.21950    0.44880    0.45530    1.000
    C108     C        0.19180    0.44840    0.51400    1.000
    H17      H        0.17890    0.40470    0.53270    1.000
    C109     C        0.18290    0.51180    0.54550    1.000
    C110     C        0.20170    0.57570    0.51810    1.000
    H18      H        0.19560    0.61900    0.53960    1.000
    C111     C        0.22940    0.57610    0.45940    1.000
    C112     C        0.25760    0.13790    0.31570    1.000
    O21      O        0.25720    0.37220    0.37220    1.000
    C113     C        0.27300    0.88400    0.32290    1.000
    O22      O        0.23590    0.87960    0.37430    1.000
    O23      O        0.23160    0.13760    0.36800    1.000
    O24      O        0.26890    0.63530    0.38110    1.000
    O25      O        0.29700    0.82300    0.29080    1.000
    O26      O        0.20220    0.31640    0.44010    1.000
    O27      O        0.21530    0.70540    0.45130    1.000
    O28      O        0.28110    0.18870    0.28860    1.000
    C114     C        0.23900    0.64740    0.43460    1.000
    C115     C        0.17100    0.49550    0.60850    1.000
    C116     C        0.01040    0.36580    0.01090    1.000
    C117     C        0.22100    0.48500    0.90200    1.000
    C118     C        0.95600    0.45730    0.80570    1.000
    C119     C        0.16030    0.49260    0.66350    1.000
    C120     C        0.07060    0.49900    0.70550    1.000
    C121     C        0.47900    0.09300    0.76230    1.000
    C122     C        0.35050    0.01350    0.13670    1.000
    O29      O        0.19850    0.42100    0.87070    1.000
    C123     C        0.16800    0.51700    0.94900    1.000
    C124     C        0.39690    0.02510    0.09810    1.000
    C125     C        0.06120    0.41410    0.90300    1.000
    C126     C        0.01690    0.31900    0.96340    1.000
    C127     C        0.04310    0.34280    0.90620    1.000
    O30      O        0.05450    0.29950    0.85660    1.000
    C128     C        0.02840    0.22830    0.86370    1.000
    C129     C        0.96800    0.21700    0.81600    1.000
    C130     C        0.44650    0.04150    0.05050    1.000
    C131     C        0.93470    0.42030    0.99480    1.000
    C132     C        0.92660    0.46580    0.94540    1.000
    C133     C        0.94220    0.53750    0.95160    1.000
    C134     C        0.96610    0.56370    0.00720    1.000
    C135     C        0.97420    0.51820    0.05670    1.000
    C136     C        0.77430    0.63180    0.42120    1.000
    C137     C        0.87420    0.52290    0.72450    1.000
    C138     C        0.82770    0.54400    0.77020    1.000
    C139     C        0.85400    0.56430    0.82690    1.000
    C140     C        0.92660    0.56350    0.83770    1.000
    C141     C        0.97310    0.54240    0.79200    1.000
    C142     C        0.52210    0.05310    0.73530    1.000
    Cu7      Cu       0.77478    0.20939    0.41644    1.000
    C143     C        0.68510    0.98820    0.19730    1.000
    C144     C        0.69990    0.92640    0.22940    1.000
    H19      H        0.69350    0.88150    0.21050    1.000
    C145     C        0.72420    0.93020    0.28920    1.000
    C146     C        0.73360    0.99590    0.31690    1.000
    H20      H        0.75020    0.99850    0.35780    1.000
    C147     C        0.71880    0.05770    0.28480    1.000
    C148     C        0.69460    0.05390    0.22500    1.000
    H21      H        0.68450    0.09620    0.20310    1.000
    Cu8      Cu       0.72307    0.70935    0.32572    1.000
    C149     C        0.76170    0.48740    0.42790    1.000
    H22      H        0.74280    0.48710    0.38780    1.000
    C150     C        0.78050    0.55120    0.45530    1.000
    C151     C        0.80820    0.55160    0.51400    1.000
    H23      H        0.82110    0.59530    0.53270    1.000
    C152     C        0.81710    0.48820    0.54550    1.000
    C153     C        0.79830    0.42430    0.51810    1.000
    H24      H        0.80440    0.38100    0.53960    1.000
    C154     C        0.77060    0.42390    0.45940    1.000
    C155     C        0.74240    0.86210    0.31570    1.000
    O31      O        0.74280    0.62780    0.37220    1.000
    C156     C        0.72700    0.11600    0.32290    1.000
    O32      O        0.76410    0.12040    0.37430    1.000
    O33      O        0.76840    0.86240    0.36800    1.000
    O34      O        0.73110    0.36470    0.38110    1.000
    O35      O        0.70300    0.17700    0.29080    1.000
    O36      O        0.79780    0.68360    0.44010    1.000
    O37      O        0.78470    0.29460    0.45130    1.000
    O38      O        0.71890    0.81130    0.28860    1.000
    C157     C        0.76100    0.35260    0.43460    1.000
    C158     C        0.82900    0.50450    0.60850    1.000
    C159     C        0.98960    0.63420    0.01090    1.000
    C160     C        0.77900    0.51500    0.90200    1.000
    C161     C        0.04400    0.54270    0.80570    1.000
    C162     C        0.83970    0.50740    0.66350    1.000
    C163     C        0.92940    0.50100    0.70550    1.000
    C164     C        0.52100    0.90700    0.76230    1.000
    C165     C        0.64950    0.98650    0.13670    1.000
    O39      O        0.80150    0.57900    0.87070    1.000
    C166     C        0.83200    0.48300    0.94900    1.000
    C167     C        0.60310    0.97490    0.09810    1.000
    C168     C        0.93880    0.58590    0.90300    1.000
    C169     C        0.98310    0.68100    0.96340    1.000
    C170     C        0.95690    0.65720    0.90620    1.000
    O40      O        0.94550    0.70050    0.85660    1.000
    C171     C        0.97160    0.77170    0.86370    1.000
    C172     C        0.03200    0.78300    0.81600    1.000
    C173     C        0.50000    0.00000    0.69170    1.000
    C174     C        0.00000    0.50000    0.69170    1.000
