data_functionalizedCrystal
_audit_creation_method	'EQeq! by Chris Wilmer'
_symmetry_space_group_name_H-M	'P1'
_symmetry_Int_Tables_number	1
_symmetry_cell_setting	triclinic
loop_
_symmetry_equiv_pos_as_xyz
  x,y,z
_cell_length_a	10.3515
_cell_length_b	21.3776
_cell_length_c	21.3776
_cell_angle_alpha	62.5534
_cell_angle_beta	80.7114
_cell_angle_gamma	99.2886
loop_
_atom_site_label
_atom_site_type_symbol
_atom_site_fract_x
_atom_site_fract_y
_atom_site_fract_z
_atom_site_charge
Mof_P 	P 	0.46919	0.59821	0.94314	0.424
Mof_P 	P 	0.49898	0.78194	0.7246	0.421
Mof_P 	P 	0.03173	0.43448	0.96409	0.435
Mof_P 	P 	0.30317	0.54544	0.72273	0.398
Mof_P 	P 	0.41233	0.94314	0.45865	0.423
Mof_P 	P 	0.22358	0.7246	0.49346	0.421
Mof_P 	P 	0.99582	0.96409	0.60143	0.435
Mof_P 	P 	0.0259	0.72273	0.73183	0.397
Mof_P 	P 	0.87098	0.45865	0.59821	0.423
Mof_P 	P 	0.71704	0.49346	0.78194	0.42
Mof_P 	P 	0.59725	0.60143	0.43448	0.435
Mof_P 	P 	0.75773	0.73183	0.54544	0.397
Mof_P 	P 	0.53081	0.40179	0.05686	0.423
Mof_P 	P 	0.50102	0.21806	0.2754	0.42
Mof_P 	P 	0.96827	0.56552	0.03591	0.434
Mof_P 	P 	0.69683	0.45456	0.27727	0.397
Mof_P 	P 	0.58767	0.05686	0.54135	0.423
Mof_P 	P 	0.77642	0.2754	0.50654	0.421
Mof_P 	P 	0.00418	0.03591	0.39857	0.435
Mof_P 	P 	0.9741	0.27727	0.26817	0.397
Mof_P 	P 	0.12902	0.54135	0.40179	0.423
Mof_P 	P 	0.28296	0.50654	0.21806	0.42
Mof_P 	P 	0.40275	0.39857	0.56552	0.435
Mof_P 	P 	0.24227	0.26817	0.45456	0.397
Mof_H 	H 	0.4933	0.8306	0.802	0.099
Mof_H 	H 	0.3476	0.811	0.7932	0.073
Mof_H 	H 	0.5359	0.7166	0.9244	0.104
Mof_H 	H 	0.5773	0.7183	0.8499	0.116
Mof_H 	H 	0.2238	0.7397	0.928	0.08
Mof_H 	H 	0.302	0.6937	0.981	0.086
Mof_H 	H 	0.0384	0.334	0.9489	0.104
Mof_H 	H 	0.9576	0.3814	0.8982	0.114
Mof_H 	H 	0.082	0.4993	0.8055	0.111
Mof_H 	H 	0.0923	0.4557	0.7637	0.106
Mof_H 	H 	0.2639	0.3815	0.7906	0.069
Mof_H 	H 	0.2211	0.3236	0.874	0.055
Mof_H 	H 	0.2953	0.802	0.3674	0.099
Mof_H 	H 	0.1408	0.7932	0.3958	0.073
Mof_H 	H 	0.4603	0.9244	0.359	0.104
Mof_H 	H 	0.4272	0.8499	0.4318	0.116
Mof_H 	H 	0.1518	0.928	0.3323	0.081
Mof_H 	H 	0.283	0.981	0.3253	0.087
Mof_H 	H 	0.9873	0.9489	0.7171	0.103
Mof_H 	H 	0.8558	0.8982	0.7204	0.113
Mof_H 	H 	0.8875	0.8055	0.6952	0.111
Mof_H 	H 	0.856	0.7637	0.7806	0.106
Mof_H 	H 	0.0545	0.7906	0.8279	0.069
Mof_H 	H 	0.0951	0.874	0.8024	0.055
Mof_H 	H 	0.6627	0.3674	0.8306	0.099
Mof_H 	H 	0.5366	0.3958	0.811	0.073
Mof_H 	H 	0.8193	0.359	0.7166	0.104
Mof_H 	H 	0.859	0.4318	0.7183	0.116
Mof_H 	H 	0.4841	0.3323	0.7397	0.081
Mof_H 	H 	0.6083	0.3253	0.6937	0.087
Mof_H 	H 	0.7044	0.7171	0.334	0.103
Mof_H 	H 	0.5762	0.7204	0.3814	0.113
Mof_H 	H 	0.5827	0.6952	0.4993	0.111
Mof_H 	H 	0.6366	0.7806	0.4557	0.106
Mof_H 	H 	0.8824	0.8279	0.3815	0.069
Mof_H 	H 	0.8975	0.8024	0.3236	0.055
Mof_H 	H 	0.5067	0.1694	0.198	0.099
Mof_H 	H 	0.6524	0.189	0.2068	0.073
Mof_H 	H 	0.4641	0.2834	0.0756	0.104
Mof_H 	H 	0.4227	0.2817	0.1501	0.116
Mof_H 	H 	0.7762	0.2603	0.072	0.08
Mof_H 	H 	0.698	0.3063	0.019	0.086
Mof_H 	H 	0.9616	0.666	0.0511	0.104
Mof_H 	H 	0.0424	0.6186	0.1018	0.114
Mof_H 	H 	0.918	0.5007	0.1945	0.111
Mof_H 	H 	0.9077	0.5443	0.2363	0.106
Mof_H 	H 	0.7361	0.6185	0.2094	0.069
Mof_H 	H 	0.7789	0.6764	0.126	0.055
Mof_H 	H 	0.7047	0.198	0.6326	0.099
Mof_H 	H 	0.8592	0.2068	0.6042	0.073
Mof_H 	H 	0.5397	0.0756	0.641	0.104
Mof_H 	H 	0.5728	0.1501	0.5682	0.116
Mof_H 	H 	0.8482	0.072	0.6677	0.081
Mof_H 	H 	0.717	0.019	0.6747	0.087
Mof_H 	H 	0.0127	0.0511	0.2829	0.103
Mof_H 	H 	0.1442	0.1018	0.2796	0.113
Mof_H 	H 	0.1125	0.1945	0.3048	0.111
Mof_H 	H 	0.144	0.2363	0.2194	0.106
Mof_H 	H 	0.9455	0.2094	0.1721	0.069
Mof_H 	H 	0.9049	0.126	0.1976	0.055
Mof_H 	H 	0.3373	0.6326	0.1694	0.099
Mof_H 	H 	0.4634	0.6042	0.189	0.073
Mof_H 	H 	0.1807	0.641	0.2834	0.104
Mof_H 	H 	0.141	0.5682	0.2817	0.116
Mof_H 	H 	0.5159	0.6677	0.2603	0.081
Mof_H 	H 	0.3917	0.6747	0.3063	0.087
Mof_H 	H 	0.2956	0.2829	0.666	0.103
Mof_H 	H 	0.4238	0.2796	0.6186	0.113
Mof_H 	H 	0.4173	0.3048	0.5007	0.111
Mof_H 	H 	0.3634	0.2194	0.5443	0.106
Mof_H 	H 	0.1176	0.1721	0.6185	0.069
Mof_H 	H 	0.1025	0.1976	0.6764	0.055
Mof_Pb	Pb	0.38581	0.45859	0.90048	0.744
Mof_Pb	Pb	0.78901	0.54496	0.91089	0.792
Mof_Pb	Pb	0.20111	0.6186	0.86402	0.766
Mof_Pb	Pb	0.28629	0.90048	0.64093	0.744
Mof_Pb	Pb	0.6999	0.91089	0.54415	0.791
Mof_Pb	Pb	0.06513	0.86402	0.51738	0.767
Mof_Pb	Pb	0.92722	0.64093	0.45859	0.744
Mof_Pb	Pb	0.24405	0.54415	0.54496	0.791
Mof_Pb	Pb	0.58251	0.51738	0.6186	0.767
Mof_Pb	Pb	0.61419	0.54141	0.09952	0.744
Mof_Pb	Pb	0.21099	0.45504	0.08911	0.792
Mof_Pb	Pb	0.79889	0.3814	0.13598	0.766
Mof_Pb	Pb	0.71371	0.09952	0.35907	0.744
Mof_Pb	Pb	0.3001	0.08911	0.45585	0.791
Mof_Pb	Pb	0.93487	0.13598	0.48262	0.767
Mof_Pb	Pb	0.07278	0.35907	0.54141	0.744
Mof_Pb	Pb	0.75595	0.45585	0.45504	0.791
Mof_Pb	Pb	0.41749	0.48262	0.3814	0.767
Mof_C 	C 	0.427	0.7933	0.8013	-0.22
Mof_C 	C 	0.5045	0.6985	0.894	-0.23
Mof_C 	C 	0.3139	0.7371	0.9344	-0.152
Mof_C 	C 	0.3747	0.8022	0.9401	0.06
Mof_C 	C 	0.3016	0.8532	0.9134	-0.045
Mof_C 	C 	0.4765	0.81	0.9545	-0.053
Mof_C 	C 	0.0386	0.3838	0.915	-0.243
Mof_C 	C 	0.1399	0.475	0.7893	-0.211
Mof_C 	C 	0.1896	0.3574	0.8346	-0.125
Mof_C 	C 	0.0756	0.3133	0.8235	0.026
Mof_C 	C 	0.1136	0.3362	0.7444	-0.052
Mof_C 	C 	0.1149	0.2408	0.8521	-0.029
Mof_C 	C 	0.2283	0.8013	0.4054	-0.22
Mof_C 	C 	0.3985	0.894	0.4075	-0.23
Mof_C 	C 	0.2483	0.9344	0.3285	-0.152
Mof_C 	C 	0.3148	0.9401	0.2577	0.06
Mof_C 	C 	0.215	0.9134	0.2334	-0.044
Mof_C 	C 	0.431	0.9545	0.2355	-0.052
Mof_C 	C 	0.9536	0.915	0.7012	-0.241
Mof_C 	C 	0.9292	0.7893	0.7357	-0.211
Mof_C 	C 	0.0242	0.8346	0.808	-0.125
Mof_C 	C 	0.8991	0.8235	0.8632	0.026
Mof_C 	C 	0.858	0.7444	0.9194	-0.051
Mof_C 	C 	0.967	0.8521	0.9071	-0.028
Mof_C 	C 	0.6337	0.4054	0.7933	-0.22
Mof_C 	C 	0.806	0.4075	0.6985	-0.23
Mof_C 	C 	0.5768	0.3285	0.7371	-0.152
Mof_C 	C 	0.5725	0.2577	0.8022	0.059
Mof_C 	C 	0.4484	0.2334	0.8532	-0.044
Mof_C 	C 	0.6665	0.2355	0.81	-0.052
Mof_C 	C 	0.6548	0.7012	0.3838	-0.241
Mof_C 	C 	0.6649	0.7357	0.475	-0.211
Mof_C 	C 	0.8322	0.808	0.3574	-0.125
Mof_C 	C 	0.7623	0.8632	0.3133	0.026
Mof_C 	C 	0.7774	0.9194	0.3362	-0.052
Mof_C 	C 	0.8741	0.9071	0.2408	-0.029
Mof_C 	C 	0.573	0.2067	0.1987	-0.22
Mof_C 	C 	0.4955	0.3015	0.106	-0.23
Mof_C 	C 	0.6861	0.2629	0.0656	-0.152
Mof_C 	C 	0.6253	0.1978	0.0599	0.06
Mof_C 	C 	0.6984	0.1468	0.0866	-0.045
Mof_C 	C 	0.5235	0.19	0.0455	-0.053
Mof_C 	C 	0.9614	0.6162	0.085	-0.243
Mof_C 	C 	0.8601	0.525	0.2107	-0.211
Mof_C 	C 	0.8104	0.6426	0.1654	-0.125
Mof_C 	C 	0.9244	0.6867	0.1765	0.026
Mof_C 	C 	0.8864	0.6638	0.2556	-0.052
Mof_C 	C 	0.8851	0.7592	0.1479	-0.029
Mof_C 	C 	0.7717	0.1987	0.5946	-0.22
Mof_C 	C 	0.6015	0.106	0.5925	-0.23
Mof_C 	C 	0.7517	0.0656	0.6715	-0.152
Mof_C 	C 	0.6852	0.0599	0.7423	0.06
Mof_C 	C 	0.785	0.0866	0.7666	-0.044
Mof_C 	C 	0.569	0.0455	0.7645	-0.052
Mof_C 	C 	0.0464	0.085	0.2988	-0.241
Mof_C 	C 	0.0708	0.2107	0.2643	-0.211
Mof_C 	C 	0.9758	0.1654	0.192	-0.125
Mof_C 	C 	0.1009	0.1765	0.1368	0.026
Mof_C 	C 	0.142	0.2556	0.0806	-0.051
Mof_C 	C 	0.033	0.1479	0.0929	-0.028
Mof_C 	C 	0.3663	0.5946	0.2067	-0.22
Mof_C 	C 	0.194	0.5925	0.3015	-0.23
Mof_C 	C 	0.4232	0.6715	0.2629	-0.152
Mof_C 	C 	0.4275	0.7423	0.1978	0.059
Mof_C 	C 	0.5516	0.7666	0.1468	-0.044
Mof_C 	C 	0.3335	0.7645	0.19	-0.052
Mof_C 	C 	0.3452	0.2988	0.6162	-0.241
Mof_C 	C 	0.3351	0.2643	0.525	-0.211
Mof_C 	C 	0.1678	0.192	0.6426	-0.125
Mof_C 	C 	0.2377	0.1368	0.6867	0.026
Mof_C 	C 	0.2226	0.0806	0.6638	-0.052
Mof_C 	C 	0.1259	0.0929	0.7592	-0.029
Mof_N 	N 	0.3887	0.7254	0.8741	-0.062
Mof_N 	N 	0.1563	0.4147	0.8529	-0.069
Mof_N 	N 	0.2628	0.8741	0.4005	-0.061
Mof_N 	N 	0.0092	0.8529	0.7324	-0.07
Mof_N 	N 	0.6633	0.4005	0.7254	-0.061
Mof_N 	N 	0.7416	0.7324	0.4147	-0.069
Mof_N 	N 	0.6113	0.2746	0.1259	-0.062
Mof_N 	N 	0.8437	0.5853	0.1471	-0.069
Mof_N 	N 	0.7372	0.1259	0.5995	-0.061
Mof_N 	N 	0.9908	0.1471	0.2676	-0.07
Mof_N 	N 	0.3367	0.5995	0.2746	-0.061
Mof_N 	N 	0.2584	0.2676	0.5853	-0.069
Mof_O 	O 	0.4543	0.5752	0.8856	-0.321
Mof_O 	O 	0.5896	0.5806	0.9741	-0.353
Mof_O 	O 	0.3344	0.5696	0.0012	-0.34
Mof_O 	O 	0.4167	0.7088	0.7369	-0.23
Mof_O 	O 	0.4853	0.8449	0.657	-0.333
Mof_O 	O 	0.6448	0.7821	0.7208	-0.254
Mof_O 	O 	0.988	0.5032	0.9189	-0.353
Mof_O 	O 	0.1774	0.459	0.9686	-0.369
Mof_O 	O 	0.932	0.3818	0.0381	-0.334
Mof_O 	O 	0.2512	0.613	0.678	-0.204
Mof_O 	O 	0.3655	0.5146	0.678	-0.332
Mof_O 	O 	0.3899	0.5559	0.7712	-0.269
Mof_O 	O 	0.3399	0.8856	0.5392	-0.321
Mof_O 	O 	0.5637	0.9741	0.4453	-0.353
Mof_O 	O 	0.3356	0.0012	0.4292	-0.34
Mof_O 	O 	0.1536	0.7369	0.5543	-0.23
Mof_O 	O 	0.1423	0.657	0.4981	-0.333
Mof_O 	O 	0.3656	0.7208	0.4971	-0.255
Mof_O 	O 	0.9069	0.9189	0.5779	-0.354
Mof_O 	O 	0.146	0.9686	0.5724	-0.369
Mof_O 	O 	0.9701	0.0381	0.5801	-0.334
Mof_O 	O 	0.9292	0.678	0.709	-0.204
Mof_O 	O 	0.0435	0.678	0.8074	-0.332
Mof_O 	O 	0.1611	0.7712	0.6729	-0.269
Mof_O 	O 	0.8791	0.5392	0.5752	-0.321
Mof_O 	O 	0.009	0.4453	0.5806	-0.353
Mof_O 	O 	0.7648	0.4292	0.5696	-0.34
Mof_O 	O 	0.7079	0.5543	0.7088	-0.23
Mof_O 	O 	0.6404	0.4981	0.8449	-0.333
Mof_O 	O 	0.8627	0.4971	0.7821	-0.254
Mof_O 	O 	0.4848	0.5779	0.5032	-0.354
Mof_O 	O 	0.7184	0.5724	0.459	-0.369
Mof_O 	O 	0.5502	0.5801	0.3818	-0.334
Mof_O 	O 	0.6382	0.709	0.613	-0.204
Mof_O 	O 	0.8509	0.8074	0.5146	-0.332
Mof_O 	O 	0.834	0.6729	0.5559	-0.269
Mof_O 	O 	0.5457	0.4248	0.1144	-0.321
Mof_O 	O 	0.4104	0.4194	0.0259	-0.353
Mof_O 	O 	0.6656	0.4304	0.9988	-0.34
Mof_O 	O 	0.5833	0.2912	0.2631	-0.23
Mof_O 	O 	0.5147	0.1551	0.343	-0.333
Mof_O 	O 	0.3552	0.2179	0.2792	-0.254
Mof_O 	O 	0.012	0.4968	0.0811	-0.353
Mof_O 	O 	0.8226	0.541	0.0314	-0.369
Mof_O 	O 	0.068	0.6182	0.9619	-0.334
Mof_O 	O 	0.7488	0.387	0.322	-0.204
Mof_O 	O 	0.6345	0.4854	0.322	-0.332
Mof_O 	O 	0.6101	0.4441	0.2288	-0.269
Mof_O 	O 	0.6601	0.1144	0.4608	-0.321
Mof_O 	O 	0.4363	0.0259	0.5547	-0.353
Mof_O 	O 	0.6644	0.9988	0.5708	-0.34
Mof_O 	O 	0.8464	0.2631	0.4457	-0.23
Mof_O 	O 	0.8577	0.343	0.5019	-0.333
Mof_O 	O 	0.6344	0.2792	0.5029	-0.255
Mof_O 	O 	0.0931	0.0811	0.4221	-0.354
Mof_O 	O 	0.854	0.0314	0.4276	-0.369
Mof_O 	O 	0.0299	0.9619	0.4199	-0.334
Mof_O 	O 	0.0708	0.322	0.291	-0.204
Mof_O 	O 	0.9565	0.322	0.1926	-0.332
Mof_O 	O 	0.8389	0.2288	0.3271	-0.269
Mof_O 	O 	0.1209	0.4608	0.4248	-0.321
Mof_O 	O 	0.991	0.5547	0.4194	-0.353
Mof_O 	O 	0.2352	0.5708	0.4304	-0.34
Mof_O 	O 	0.2921	0.4457	0.2912	-0.23
Mof_O 	O 	0.3596	0.5019	0.1551	-0.333
Mof_O 	O 	0.1373	0.5029	0.2179	-0.254
Mof_O 	O 	0.5152	0.4221	0.4968	-0.354
Mof_O 	O 	0.2816	0.4276	0.541	-0.369
Mof_O 	O 	0.4498	0.4199	0.6182	-0.334
Mof_O 	O 	0.3618	0.291	0.387	-0.204
Mof_O 	O 	0.1491	0.1926	0.4854	-0.332
Mof_O 	O 	0.166	0.3271	0.4441	-0.269
_end
