# CIF file generated by openbabel 3.1.0, see https://openbabel.org
data_I
_chemical_name_common 'image0'
_cell_length_a 21.007
_cell_length_b 21.099
_cell_length_c 21.24
_cell_angle_alpha 63.477
_cell_angle_beta 63.691
_cell_angle_gamma 84.66
_space_group_name_H-M_alt 'P 1'
_space_group_name_Hall 'P 1'
loop_
    _symmetry_equiv_pos_as_xyz
    x,y,z
loop_
    _atom_site_label
    _atom_site_type_symbol
    _atom_site_fract_x
    _atom_site_fract_y
    _atom_site_fract_z
    _atom_site_occupancy
    Zn1      Zn       0.03820    0.43734    0.33950    1.000
    O1       O        0.09951    0.47420    0.21720    1.000
    O2       O        0.09721    0.29558    0.44280    1.000
    O3       O        0.93414    0.42810    0.35630    1.000
    O4       O        0.06935    0.35770    0.28790    1.000
    O5       O        0.94781    0.38620    0.46400    1.000
    O6       O        0.10961    0.41580    0.38270    1.000
    N1       N        0.02230    0.77590    0.35880    1.000
    N2       N        0.04930    0.01810    0.35940    1.000
    C1       C        0.01090    0.67080    0.33350    1.000
    C2       C        0.22140    0.36410    0.56150    1.000
    N3       N        0.96390    0.84770    0.29650    1.000
    C3       C        0.99760    0.74290    0.32940    1.000
    N4       N        0.07010    0.75510    0.39180    1.000
    H1       H        0.08780    0.78490    0.39900    1.000
    H2       H        0.08170    0.71260    0.40470    1.000
    N5       N        0.37560    0.36980    0.72250    1.000
    C4       C        0.14970    0.35910    0.47990    1.000
    C5       C        0.01560    0.90050    0.34800    1.000
    C6       C        0.68140    0.38360    0.56250    1.000
    C7       C        0.20320    0.42650    0.51530    1.000
    H3       H        0.21420    0.46980    0.51240    1.000
    N6       N        0.03160    0.53820    0.33490    1.000
    C8       C        0.26210    0.36550    0.60250    1.000
    C9       C        0.10150    0.41220    0.22310    1.000
    C10      C        0.99980    0.84040    0.33600    1.000
    C11      C        0.20280    0.30040    0.56580    1.000
    H4       H        0.21550    0.25850    0.59610    1.000
    N7       N        0.96440    0.78430    0.29200    1.000
    C12      C        0.90830    0.40310    0.42970    1.000
    C13      C        0.02570    0.61630    0.39000    1.000
    H5       H        0.02990    0.62310    0.42830    1.000
    C14      C        0.22330    0.38770    0.01110    1.000
    C15      C        0.03410    0.55060    0.38850    1.000
    H6       H        0.04190    0.51340    0.42830    1.000
    C16      C        0.60100    0.37860    0.60760    1.000
    C17      C        0.33810    0.37040    0.68090    1.000
    C18      C        0.04830    0.95330    0.40780    1.000
    H7       H        0.05900    0.94660    0.44820    1.000
    C19      C        0.56280    0.33390    0.68420    1.000
    H8       H        0.58670    0.30400    0.71170    1.000
    C20      C        0.71250    0.40350    0.48120    1.000
    H9       H        0.68320    0.41300    0.45650    1.000
    C21      C        0.16770    0.42440    0.47260    1.000
    H10      H        0.15680    0.46620    0.44020    1.000
    C22      C        0.11600    0.35720    0.43120    1.000
    C23      C        0.48990    0.42180    0.60640    1.000
    H11      H        0.46550    0.45190    0.57950    1.000
    C24      C        0.26490    0.37920    0.93930    1.000
    C25      C        0.34080    0.37160    0.79620    1.000
    C26      C        0.79770    0.37120    0.55790    1.000
    H12      H        0.82600    0.35860    0.58410    1.000
    C27      C        0.72330    0.36720    0.59990    1.000
    H13      H        0.70250    0.35320    0.65370    1.000
    C28      C        0.01720    0.59030    0.28100    1.000
    H14      H        0.01430    0.58170    0.24300    1.000
    C29      C        0.78590    0.40930    0.43750    1.000
    H15      H        0.80640    0.42270    0.38390    1.000
    C30      C        0.01320    0.96950    0.29510    1.000
    H16      H        0.00000    0.97690    0.25610    1.000
    C31      C        0.35670    0.32770    0.64220    1.000
    H17      H        0.39420    0.30050    0.64210    1.000
    C32      C        0.37100    0.40850    0.81800    1.000
    H18      H        0.41710    0.43270    0.78360    1.000
    C33      C        0.23020    0.45050    0.01290    1.000
    H19      H        0.26390    0.48750    0.96750    1.000
    C34      C        0.14380    0.40400    0.14870    1.000
    C35      C        0.28410    0.41150    0.67840    1.000
    H20      H        0.27270    0.44070    0.70320    1.000
    C36      C        0.45360    0.37610    0.68320    1.000
    C37      C        0.48940    0.33020    0.72420    1.000
    H21      H        0.46440    0.29790    0.77720    1.000
    C38      C        0.17570    0.32990    0.08060    1.000
    H22      H        0.17040    0.28620    0.08140    1.000
    C39      C        0.03270    0.89300    0.40460    1.000
    H23      H        0.03400    0.84790    0.44110    1.000
    C40      C        0.82880    0.39400    0.47750    1.000
    C41      C        0.16650    0.29640    0.52740    1.000
    H24      H        0.15350    0.25250    0.53300    1.000
    C42      C        0.23410    0.33990    0.91920    1.000
    H25      H        0.18800    0.31570    0.95360    1.000
    C43      C        0.31780    0.32630    0.60330    1.000
    H26      H        0.33020    0.29800    0.57740    1.000
    C44      C        0.33580    0.41070    0.88820    1.000
    H27      H        0.35920    0.43360    0.90220    1.000
    C45      C        0.00640    0.65680    0.27800    1.000
    H28      H        0.99610    0.69200    0.23890    1.000
    C46      C        0.13580    0.33890    0.14940    1.000
    H29      H        0.10400    0.30090    0.19550    1.000
    C47      C        0.56320    0.42440    0.56680    1.000
    H30      H        0.58800    0.45610    0.51360    1.000
    C48      C        0.24620    0.41010    0.63950    1.000
    H31      H        0.21000    0.43890    0.63780    1.000
    C49      C        0.27210    0.33660    0.84780    1.000
    H32      H        0.25080    0.31060    0.83490    1.000
    C50      C        0.19060    0.46290    0.07780    1.000
    H33      H        0.19450    0.50770    0.07500    1.000
    C51      C        0.03080    0.02570    0.30300    1.000
    H34      H        0.03010    0.07170    0.26750    1.000
    Zn2      Zn       0.10117    0.27385    0.35989    1.000
    Zn3      Zn       0.08608    0.10995    0.35064    1.000
    O7       O        0.99876    0.23030    0.41430    1.000
    O8       O        0.13731    0.17730    0.37560    1.000
    O9       O        0.10791    0.06100    0.44870    1.000
    O10      O        0.13710    0.15880    0.23260    1.000
    O11      O        0.99368    0.14840    0.37560    1.000
    C52      C        0.13820    0.11780    0.43270    1.000
    C53      C        0.73560    0.15970    0.53110    1.000
    C54      C        0.17740    0.11950    0.47590    1.000
    N8       N        0.42890    0.12140    0.69630    1.000
    C55      C        0.88590    0.17610    0.45360    1.000
    C56      C        0.26610    0.17700    0.48080    1.000
    H35      H        0.29920    0.21650    0.45810    1.000
    C57      C        0.96450    0.18590    0.41150    1.000
    C58      C        0.30130    0.13090    0.99220    1.000
    C59      C        0.77130    0.11050    0.50690    1.000
    H36      H        0.74530    0.07140    0.51590    1.000
    C60      C        0.77710    0.21840    0.51560    1.000
    H37      H        0.75440    0.25290    0.53060    1.000
    C61      C        0.30660    0.15880    0.86240    1.000
    H38      H        0.26590    0.18150    0.87450    1.000
    C62      C        0.30200    0.11940    0.58990    1.000
    C63      C        0.25770    0.12100    0.55030    1.000
    C64      C        0.84560    0.11850    0.46910    1.000
    H39      H        0.86860    0.08420    0.45390    1.000
    C65      C        0.65590    0.15220    0.57160    1.000
    C66      C        0.42720    0.09160    0.82380    1.000
    H40      H        0.46670    0.06710    0.81250    1.000
    C67      C        0.54760    0.17920    0.65420    1.000
    H41      H        0.52540    0.20400    0.68340    1.000
    C68      C        0.54000    0.09790    0.60750    1.000
    H42      H        0.51360    0.06800    0.60360    1.000
    C69      C        0.50630    0.13230    0.65290    1.000
    C70      C        0.33580    0.12880    0.91580    1.000
    C71      C        0.19790    0.14270    0.09380    1.000
    H43      H        0.14970    0.14900    0.11300    1.000
    C72      C        0.20470    0.06110    0.58740    1.000
    H44      H        0.19590    0.02330    0.63630    1.000
    C73      C        0.23390    0.13410    0.13900    1.000
    C74      C        0.61300    0.10850    0.56820    1.000
    H45      H        0.63540    0.08520    0.53730    1.000
    C75      C        0.38700    0.12080    0.66040    1.000
    C76      C        0.22790    0.17680    0.44380    1.000
    H46      H        0.23560    0.21580    0.39610    1.000
    C77      C        0.23100    0.14190    0.02440    1.000
    H47      H        0.20520    0.14900    0.99620    1.000
    C78      C        0.36870    0.15900    0.54800    1.000
    H48      H        0.38650    0.18600    0.49370    1.000
    C79      C        0.39580    0.09760    0.89210    1.000
    H49      H        0.41720    0.07870    0.92560    1.000
    C80      C        0.33780    0.15490    0.79220    1.000
    H50      H        0.31720    0.17410    0.75780    1.000
    C81      C        0.16650    0.06160    0.54740    1.000
    H51      H        0.13320    0.02250    0.56910    1.000
    C82      C        0.39790    0.12330    0.77230    1.000
    O12      O        0.22060    0.10370    0.26540    1.000
    C83      C        0.40970    0.16070    0.58220    1.000
    H52      H        0.45370    0.18950    0.55140    1.000
    C84      C        0.30410    0.12290    0.10720    1.000
    H53      H        0.33020    0.11590    0.13500    1.000
    C85      C        0.19740    0.13300    0.21670    1.000
    C86      C        0.33700    0.12180    0.03600    1.000
    H54      H        0.38490    0.11460    0.01650    1.000
    C87      C        0.85030    0.22540    0.47880    1.000
    H55      H        0.87660    0.26390    0.47050    1.000
    C88      C        0.32100    0.07680    0.70810    1.000
    H56      H        0.30590    0.04710    0.76160    1.000
    C89      C        0.27850    0.08010    0.67010    1.000
    H57      H        0.23280    0.05460    0.70080    1.000
    C90      C        0.61870    0.18860    0.61390    1.000
    H58      H        0.64460    0.22160    0.61450    1.000
    Zn4      Zn       0.96180    0.56266    0.66050    1.000
    O13      O        0.90049    0.52580    0.78280    1.000
    O14      O        0.90279    0.70442    0.55720    1.000
    O15      O        0.06586    0.57190    0.64370    1.000
    O16      O        0.93065    0.64230    0.71210    1.000
    O17      O        0.05219    0.61380    0.53600    1.000
    O18      O        0.89039    0.58420    0.61730    1.000
    N9       N        0.97770    0.22410    0.64120    1.000
    N10      N        0.95070    0.98190    0.64060    1.000
    C91      C        0.98910    0.32920    0.66650    1.000
    C92      C        0.77860    0.63590    0.43850    1.000
    N11      N        0.03610    0.15230    0.70350    1.000
    C93      C        0.00240    0.25710    0.67060    1.000
    N12      N        0.92990    0.24490    0.60820    1.000
    H59      H        0.91220    0.21510    0.60100    1.000
    H60      H        0.91830    0.28740    0.59530    1.000
    N13      N        0.62440    0.63020    0.27750    1.000
    C94      C        0.85030    0.64090    0.52010    1.000
    C95      C        0.98440    0.09950    0.65200    1.000
    C96      C        0.31860    0.61640    0.43750    1.000
    C97      C        0.79680    0.57350    0.48470    1.000
    H61      H        0.78580    0.53020    0.48760    1.000
    N14      N        0.96840    0.46180    0.66510    1.000
    C98      C        0.73790    0.63450    0.39750    1.000
    C99      C        0.89850    0.58780    0.77690    1.000
    C100     C        0.00020    0.15960    0.66400    1.000
    C101     C        0.79720    0.69960    0.43420    1.000
    H62      H        0.78450    0.74150    0.40390    1.000
    N15      N        0.03560    0.21570    0.70800    1.000
    C102     C        0.09170    0.59690    0.57030    1.000
    C103     C        0.97430    0.38370    0.61000    1.000
    H63      H        0.97010    0.37690    0.57170    1.000
    C104     C        0.77670    0.61230    0.98890    1.000
    C105     C        0.96590    0.44940    0.61150    1.000
    H64      H        0.95810    0.48660    0.57170    1.000
    C106     C        0.39900    0.62140    0.39240    1.000
    C107     C        0.66190    0.62960    0.31910    1.000
    C108     C        0.95170    0.04670    0.59220    1.000
    H65      H        0.94100    0.05340    0.55180    1.000
    C109     C        0.43720    0.66610    0.31580    1.000
    H66      H        0.41330    0.69600    0.28830    1.000
    C110     C        0.28750    0.59650    0.51880    1.000
    H67      H        0.31680    0.58700    0.54350    1.000
    C111     C        0.83230    0.57560    0.52740    1.000
    H68      H        0.84320    0.53380    0.55980    1.000
    C112     C        0.88400    0.64280    0.56880    1.000
    C113     C        0.51010    0.57820    0.39360    1.000
    H69      H        0.53450    0.54810    0.42050    1.000
    C114     C        0.73510    0.62080    0.06070    1.000
    C115     C        0.65920    0.62840    0.20380    1.000
    C116     C        0.20230    0.62880    0.44210    1.000
    H70      H        0.17400    0.64140    0.41590    1.000
    C117     C        0.27670    0.63280    0.40010    1.000
    H71      H        0.29750    0.64680    0.34630    1.000
    C118     C        0.98280    0.40970    0.71900    1.000
    H72      H        0.98570    0.41830    0.75700    1.000
    C119     C        0.21410    0.59070    0.56250    1.000
    H73      H        0.19360    0.57730    0.61610    1.000
    C120     C        0.98680    0.03050    0.70490    1.000
    H74      H        0.00000    0.02310    0.74390    1.000
    C121     C        0.64330    0.67230    0.35780    1.000
    H75      H        0.60580    0.69950    0.35790    1.000
    C122     C        0.62900    0.59150    0.18200    1.000
    H76      H        0.58290    0.56730    0.21640    1.000
    C123     C        0.76980    0.54950    0.98710    1.000
    H77      H        0.73610    0.51250    0.03250    1.000
    C124     C        0.85620    0.59600    0.85130    1.000
    C125     C        0.71590    0.58850    0.32160    1.000
    H78      H        0.72730    0.55930    0.29680    1.000
    C126     C        0.54640    0.62390    0.31680    1.000
    C127     C        0.51060    0.66980    0.27580    1.000
    H79      H        0.53560    0.70210    0.22280    1.000
    C128     C        0.82430    0.67010    0.91940    1.000
    H80      H        0.82960    0.71380    0.91860    1.000
    C129     C        0.96730    0.10700    0.59540    1.000
    H81      H        0.96600    0.15210    0.55890    1.000
    C130     C        0.17120    0.60600    0.52250    1.000
    C131     C        0.83350    0.70360    0.47260    1.000
    H82      H        0.84650    0.74750    0.46700    1.000
    C132     C        0.76590    0.66010    0.08080    1.000
    H83      H        0.81200    0.68430    0.04640    1.000
    C133     C        0.68220    0.67370    0.39670    1.000
    H84      H        0.66980    0.70200    0.42260    1.000
    C134     C        0.66420    0.58930    0.11180    1.000
    H85      H        0.64080    0.56640    0.09780    1.000
    C135     C        0.99360    0.34320    0.72200    1.000
    H86      H        0.00390    0.30800    0.76110    1.000
    C136     C        0.86420    0.66110    0.85060    1.000
    H87      H        0.89600    0.69910    0.80450    1.000
    C137     C        0.43680    0.57560    0.43320    1.000
    H88      H        0.41200    0.54390    0.48640    1.000
    C138     C        0.75380    0.58990    0.36050    1.000
    H89      H        0.79000    0.56110    0.36220    1.000
    C139     C        0.72790    0.66340    0.15220    1.000
    H90      H        0.74920    0.68940    0.16510    1.000
    C140     C        0.80940    0.53710    0.92220    1.000
    H91      H        0.80550    0.49230    0.92500    1.000
    C141     C        0.96920    0.97430    0.69700    1.000
    H92      H        0.96990    0.92830    0.73250    1.000
    Zn5      Zn       0.89883    0.72615    0.64011    1.000
    Zn6      Zn       0.91392    0.89005    0.64936    1.000
    O19      O        0.00124    0.76970    0.58570    1.000
    O20      O        0.86269    0.82270    0.62440    1.000
    O21      O        0.89209    0.93900    0.55130    1.000
    O22      O        0.86290    0.84120    0.76740    1.000
    O23      O        0.00632    0.85160    0.62440    1.000
    C142     C        0.86180    0.88220    0.56730    1.000
    C143     C        0.26440    0.84030    0.46890    1.000
    C144     C        0.82260    0.88050    0.52410    1.000
    N16      N        0.57110    0.87860    0.30370    1.000
    C145     C        0.11410    0.82390    0.54640    1.000
    C146     C        0.73390    0.82300    0.51920    1.000
    H93      H        0.70080    0.78350    0.54190    1.000
    C147     C        0.03550    0.81410    0.58850    1.000
    C148     C        0.69870    0.86910    0.00780    1.000
    C149     C        0.22870    0.88950    0.49310    1.000
    H94      H        0.25470    0.92860    0.48410    1.000
    C150     C        0.22290    0.78160    0.48440    1.000
    H95      H        0.24560    0.74710    0.46940    1.000
    C151     C        0.69340    0.84120    0.13760    1.000
    H96      H        0.73410    0.81850    0.12550    1.000
    C152     C        0.69800    0.88060    0.41010    1.000
    C153     C        0.74230    0.87900    0.44970    1.000
    C154     C        0.15440    0.88150    0.53090    1.000
    H97      H        0.13140    0.91580    0.54610    1.000
    C155     C        0.34410    0.84780    0.42840    1.000
    C156     C        0.57280    0.90840    0.17620    1.000
    H98      H        0.53330    0.93290    0.18750    1.000
    C157     C        0.45240    0.82080    0.34580    1.000
    H99      H        0.47460    0.79600    0.31660    1.000
    C158     C        0.46000    0.90210    0.39250    1.000
    H100     H        0.48640    0.93200    0.39640    1.000
    C159     C        0.49370    0.86770    0.34710    1.000
    C160     C        0.66420    0.87120    0.08420    1.000
    C161     C        0.80210    0.85730    0.90620    1.000
    H101     H        0.85030    0.85100    0.88700    1.000
    C162     C        0.79530    0.93890    0.41260    1.000
    H102     H        0.80410    0.97670    0.36370    1.000
    C163     C        0.76610    0.86590    0.86100    1.000
    C164     C        0.38700    0.89150    0.43180    1.000
    H103     H        0.36460    0.91480    0.46270    1.000
    C165     C        0.61300    0.87920    0.33960    1.000
    C166     C        0.77210    0.82320    0.55620    1.000
    H104     H        0.76440    0.78420    0.60390    1.000
    C167     C        0.76900    0.85810    0.97560    1.000
    H105     H        0.79480    0.85100    0.00380    1.000
    C168     C        0.63130    0.84100    0.45200    1.000
    H106     H        0.61350    0.81400    0.50630    1.000
    C169     C        0.60420    0.90240    0.10790    1.000
    H107     H        0.58280    0.92130    0.07440    1.000
    C170     C        0.66220    0.84510    0.20780    1.000
    H108     H        0.68280    0.82590    0.24220    1.000
    C171     C        0.83350    0.93840    0.45260    1.000
    H109     H        0.86680    0.97750    0.43090    1.000
    C172     C        0.60210    0.87670    0.22770    1.000
    O24      O        0.77940    0.89630    0.73460    1.000
    C173     C        0.59030    0.83930    0.41780    1.000
    H110     H        0.54630    0.81050    0.44860    1.000
    C174     C        0.69590    0.87710    0.89280    1.000
    H111     H        0.66980    0.88410    0.86500    1.000
    C175     C        0.80260    0.86700    0.78330    1.000
    C176     C        0.66300    0.87820    0.96400    1.000
    H112     H        0.61510    0.88540    0.98350    1.000
    C177     C        0.14970    0.77460    0.52120    1.000
    H113     H        0.12340    0.73610    0.52950    1.000
    C178     C        0.67900    0.92320    0.29190    1.000
    H114     H        0.69410    0.95290    0.23840    1.000
    C179     C        0.72150    0.91990    0.32990    1.000
    H115     H        0.76720    0.94540    0.29920    1.000
    C180     C        0.38130    0.81140    0.38610    1.000
    H116     H        0.35540    0.77840    0.38550    1.000
