# CIF file generated by openbabel 3.1.0, see https://openbabel.org
data_I
_chemical_name_common 'image0'
_cell_length_a 12.115
_cell_length_b 25.751
_cell_length_c 35.588
_cell_angle_alpha 90
_cell_angle_beta 90.639
_cell_angle_gamma 90
_space_group_name_H-M_alt 'P 1'
_space_group_name_Hall 'P 1'
loop_
    _symmetry_equiv_pos_as_xyz
    x,y,z
loop_
    _atom_site_label
    _atom_site_type_symbol
    _atom_site_fract_x
    _atom_site_fract_y
    _atom_site_fract_z
    _atom_site_occupancy
    Zn1      Zn       0.78299    0.79148    0.33474    1.000
    Zn2      Zn       0.77465    0.82646    0.19303    1.000
    Zn3      Zn       0.10025    0.71289    0.48166    1.000
    N1       N        0.78820    0.78607    0.39055    1.000
    N2       N        0.74800    0.76501    0.44843    1.000
    N3       N        0.79310    0.69391    0.63895    1.000
    N4       N        0.75950    0.71153    0.57915    1.000
    N5       N        0.25120    0.68589    0.49521    1.000
    N6       N        0.42880    0.68246    0.50441    1.000
    N7       N        0.62960    0.80543    0.31485    1.000
    N8       N        0.45300    0.80686    0.30239    1.000
    N9       N        0.09880    0.71553    0.42481    1.000
    N10      N        0.13750    0.73364    0.36641    1.000
    N11      N        0.93570    0.82633    0.21128    1.000
    N12      N        0.08670    0.81296    0.24420    1.000
    N13      N        0.75480    0.50250    0.29816    1.000
    N14      N        0.74530    0.48570    0.20811    1.000
    N15      N        0.25930    0.66440    0.22524    1.000
    N16      N        0.26750    0.62034    0.31099    1.000
    O1       O        0.66090    0.50689    0.30947    1.000
    O2       O        0.80260    0.46210    0.29668    1.000
    O3       O        0.71200    0.52850    0.21409    1.000
    O4       O        0.68340    0.45140    0.19780    1.000
    O5       O        0.70730    0.76614    0.21721    1.000
    O6       O        0.55780    0.79228    0.18652    1.000
    O7       O        0.29220    0.39005    0.28922    1.000
    O8       O        0.19360    0.43126    0.33133    1.000
    O9       O        0.20910    0.70330    0.21586    1.000
    O10      O        0.21450    0.62360    0.22630    1.000
    O11      O        0.32960    0.65750    0.31417    1.000
    O12      O        0.18490    0.61910    0.32480    1.000
    O13      O        0.85190    0.73250    0.30687    1.000
    O14      O        0.71900    0.69130    0.33605    1.000
    O15      O        0.14580    0.35205    0.18708    1.000
    O16      O        0.99850    0.35338    0.14924    1.000
    C1       C        0.30680    0.48134    0.29163    1.000
    C2       C        0.58880    0.72191    0.47564    1.000
    H1       H        0.55080    0.72460    0.45290    1.000
    C3       C        0.69550    0.74046    0.47975    1.000
    C4       C        0.75300    0.73694    0.51336    1.000
    H2       H        0.82460    0.74970    0.51550    1.000
    C5       C        0.70250    0.71425    0.54365    1.000
    C6       C        0.59560    0.69471    0.54080    1.000
    H3       H        0.56200    0.67900    0.56120    1.000
    C7       C        0.54100    0.69932    0.50665    1.000
    C8       C        0.72560    0.75668    0.41200    1.000
    H4       H        0.67300    0.73330    0.40300    1.000
    C9       C        0.85300    0.81340    0.41439    1.000
    H5       H        0.90600    0.83750    0.40740    1.000
    C10      C        0.82900    0.80010    0.45002    1.000
    H6       H        0.86260    0.81310    0.47170    1.000
    C11      C        0.72000    0.69100    0.61130    1.000
    H7       H        0.65000    0.67660    0.61360    1.000
    C12      C        0.88190    0.71680    0.62392    1.000
    H8       H        0.94730    0.72350    0.63690    1.000
    C13      C        0.86370    0.72880    0.58720    1.000
    H9       H        0.91200    0.74530    0.57100    1.000
    C14      C        0.34430    0.70996    0.49018    1.000
    H10      H        0.35120    0.74190    0.47830    1.000
    C15      C        0.27600    0.64050    0.51355    1.000
    H11      H        0.22490    0.61560    0.52070    1.000
    C16      C        0.38520    0.63761    0.51966    1.000
    H12      H        0.42370    0.61100    0.53170    1.000
    C17      C        0.27100    0.80789    0.27264    1.000
    H13      H        0.30050    0.82410    0.25160    1.000
    C18      C        0.33710    0.79493    0.30337    1.000
    C19      C        0.29530    0.77038    0.33459    1.000
    H14      H        0.34030    0.76250    0.35510    1.000
    C20      C        0.18430    0.75797    0.33434    1.000
    C21      C        0.11500    0.77081    0.30450    1.000
    H15      H        0.04030    0.76250    0.30500    1.000
    C22      C        0.15880    0.79584    0.27434    1.000
    C23      C        0.53400    0.78375    0.32170    1.000
    H16      H        0.52400    0.75590    0.33790    1.000
    C24      C        0.60810    0.84370    0.28913    1.000
    H17      H        0.66100    0.86550    0.27890    1.000
    C25      C        0.50150    0.84521    0.28090    1.000
    H18      H        0.46620    0.86750    0.26410    1.000
    C26      C        0.16380    0.74190    0.40232    1.000
    H19      H        0.22070    0.76350    0.41050    1.000
    C27      C        0.02660    0.68960    0.40203    1.000
    H20      H        0.97030    0.66790    0.41020    1.000
    C28      C        0.04930    0.70000    0.36620    1.000
    H21      H        0.01250    0.68710    0.34510    1.000
    C29      C        0.98080    0.80036    0.23943    1.000
    H22      H        0.94350    0.77630    0.25410    1.000
    C30      C        0.01740    0.85711    0.19737    1.000
    H23      H        0.00960    0.88000    0.17730    1.000
    C31      C        0.11150    0.84910    0.21734    1.000
    H24      H        0.17950    0.86500    0.21360    1.000
    C32      C        0.79850    0.69130    0.31443    1.000
    C33      C        0.83490    0.64177    0.29636    1.000
    C34      C        0.78440    0.59533    0.30506    1.000
    H25      H        0.73030    0.59450    0.32340    1.000
    C35      C        0.81300    0.55067    0.28698    1.000
    C36      C        0.89390    0.54889    0.25912    1.000
    C37      C        0.94570    0.59535    0.25140    1.000
    H26      H        0.00100    0.59590    0.23350    1.000
    C38      C        0.91840    0.64072    0.26930    1.000
    H27      H        0.95580    0.67120    0.26340    1.000
    C39      C        0.92830    0.50140    0.23801    1.000
    C40      C        0.03660    0.48480    0.24265    1.000
    H28      H        0.08330    0.50260    0.25910    1.000
    C41      C        0.07620    0.44240    0.22325    1.000
    H29      H        0.14880    0.43190    0.22730    1.000
    C42      C        0.01120    0.41548    0.19821    1.000
    C43      C        0.90240    0.43087    0.19396    1.000
    H30      H        0.85570    0.41290    0.17760    1.000
    C44      C        0.86360    0.47241    0.21370    1.000
    C45      C        0.05330    0.36994    0.17584    1.000
    C46      C        0.60600    0.76198    0.20743    1.000
    C47      C        0.54590    0.71489    0.22267    1.000
    C48      C        0.60240    0.67546    0.24088    1.000
    H31      H        0.67830    0.67830    0.24460    1.000
    C49      C        0.54800    0.63200    0.25352    1.000
    H32      H        0.58840    0.60560    0.26510    1.000
    C50      C        0.43450    0.62657    0.24948    1.000
    C51      C        0.37950    0.66639    0.23107    1.000
    C52      C        0.43330    0.71058    0.21856    1.000
    H33      H        0.39310    0.73730    0.20740    1.000
    C53      C        0.38610    0.57729    0.26429    1.000
    C54      C        0.42400    0.53020    0.25011    1.000
    H34      H        0.47730    0.53030    0.23150    1.000
    C55      C        0.38400    0.48322    0.26304    1.000
    H35      H        0.40920    0.45250    0.25250    1.000
    C56      C        0.27190    0.52679    0.30679    1.000
    H36      H        0.22180    0.52630    0.32640    1.000
    C57      C        0.31030    0.57380    0.29337    1.000
    C58      C        0.26080    0.43082    0.30596    1.000
    Zn4      Zn       0.21701    0.29148    0.16526    1.000
    Zn5      Zn       0.22535    0.32646    0.30697    1.000
    Zn6      Zn       0.89975    0.21289    0.01834    1.000
    N17      N        0.21180    0.28607    0.10945    1.000
    N18      N        0.25200    0.26501    0.05157    1.000
    N19      N        0.20690    0.19391    0.86105    1.000
    N20      N        0.24050    0.21153    0.92085    1.000
    N21      N        0.74880    0.18589    0.00479    1.000
    N22      N        0.57120    0.18246    0.99559    1.000
    N23      N        0.37040    0.30543    0.18515    1.000
    N24      N        0.54700    0.30686    0.19761    1.000
    N25      N        0.90120    0.21553    0.07519    1.000
    N26      N        0.86250    0.23364    0.13359    1.000
    N27      N        0.06430    0.32633    0.28872    1.000
    N28      N        0.91330    0.31296    0.25580    1.000
    N29      N        0.24520    0.00250    0.20184    1.000
    N30      N        0.25470    0.98570    0.29189    1.000
    N31      N        0.74070    0.16440    0.27476    1.000
    N32      N        0.73250    0.12034    0.18901    1.000
    O17      O        0.33910    0.00689    0.19053    1.000
    O18      O        0.19740    0.96210    0.20332    1.000
    O19      O        0.28800    0.02850    0.28591    1.000
    O20      O        0.31660    0.95140    0.30220    1.000
    O21      O        0.29270    0.26614    0.28279    1.000
    O22      O        0.44220    0.29228    0.31348    1.000
    O23      O        0.70780    0.89005    0.21078    1.000
    O24      O        0.80640    0.93126    0.16867    1.000
    O25      O        0.79090    0.20330    0.28414    1.000
    O26      O        0.78550    0.12360    0.27370    1.000
    O27      O        0.67040    0.15750    0.18583    1.000
    O28      O        0.81510    0.11910    0.17520    1.000
    O29      O        0.14810    0.23250    0.19313    1.000
    O30      O        0.28100    0.19130    0.16395    1.000
    O31      O        0.85420    0.85205    0.31292    1.000
    O32      O        0.00150    0.85338    0.35076    1.000
    C59      C        0.69320    0.98134    0.20837    1.000
    C60      C        0.41120    0.22191    0.02436    1.000
    H37      H        0.44920    0.22460    0.04710    1.000
    C61      C        0.30450    0.24046    0.02025    1.000
    C62      C        0.24700    0.23694    0.98664    1.000
    H38      H        0.17540    0.24970    0.98450    1.000
    C63      C        0.29750    0.21425    0.95635    1.000
    C64      C        0.40440    0.19471    0.95920    1.000
    H39      H        0.43800    0.17900    0.93880    1.000
    C65      C        0.45900    0.19932    0.99335    1.000
    C66      C        0.27440    0.25668    0.08800    1.000
    H40      H        0.32700    0.23330    0.09700    1.000
    C67      C        0.14700    0.31340    0.08561    1.000
    H41      H        0.09400    0.33750    0.09260    1.000
    C68      C        0.17100    0.30010    0.04998    1.000
    H42      H        0.13740    0.31310    0.02830    1.000
    C69      C        0.28000    0.19100    0.88870    1.000
    H43      H        0.35000    0.17660    0.88640    1.000
    C70      C        0.11810    0.21680    0.87608    1.000
    H44      H        0.05270    0.22350    0.86310    1.000
    C71      C        0.13630    0.22880    0.91280    1.000
    H45      H        0.08800    0.24530    0.92900    1.000
    C72      C        0.65570    0.20996    0.00982    1.000
    H46      H        0.64880    0.24190    0.02170    1.000
    C73      C        0.72400    0.14050    0.98645    1.000
    H47      H        0.77510    0.11560    0.97930    1.000
    C74      C        0.61480    0.13761    0.98034    1.000
    H48      H        0.57630    0.11100    0.96830    1.000
    C75      C        0.72900    0.30789    0.22736    1.000
    H49      H        0.69950    0.32410    0.24840    1.000
    C76      C        0.66290    0.29493    0.19663    1.000
    C77      C        0.70470    0.27038    0.16541    1.000
    H50      H        0.65970    0.26250    0.14490    1.000
    C78      C        0.81570    0.25797    0.16566    1.000
    C79      C        0.88500    0.27081    0.19550    1.000
    H51      H        0.95970    0.26250    0.19500    1.000
    C80      C        0.84120    0.29584    0.22566    1.000
    C81      C        0.46600    0.28375    0.17830    1.000
    H52      H        0.47600    0.25590    0.16210    1.000
    C82      C        0.39190    0.34370    0.21087    1.000
    H53      H        0.33900    0.36550    0.22110    1.000
    C83      C        0.49850    0.34521    0.21910    1.000
    H54      H        0.53380    0.36750    0.23590    1.000
    C84      C        0.83620    0.24190    0.09768    1.000
    H55      H        0.77930    0.26350    0.08950    1.000
    C85      C        0.97340    0.18960    0.09797    1.000
    H56      H        0.02970    0.16790    0.08980    1.000
    C86      C        0.95070    0.20000    0.13380    1.000
    H57      H        0.98750    0.18710    0.15490    1.000
    C87      C        0.01920    0.30036    0.26057    1.000
    H58      H        0.05650    0.27630    0.24590    1.000
    C88      C        0.98260    0.35711    0.30263    1.000
    H59      H        0.99040    0.38000    0.32270    1.000
    C89      C        0.88850    0.34910    0.28266    1.000
    H60      H        0.82050    0.36500    0.28640    1.000
    C90      C        0.20150    0.19130    0.18557    1.000
    C91      C        0.16510    0.14177    0.20364    1.000
    C92      C        0.21560    0.09533    0.19494    1.000
    H61      H        0.26970    0.09450    0.17660    1.000
    C93      C        0.18700    0.05067    0.21302    1.000
    C94      C        0.10610    0.04889    0.24088    1.000
    C95      C        0.05430    0.09535    0.24860    1.000
    H62      H        0.99900    0.09590    0.26650    1.000
    C96      C        0.08160    0.14072    0.23070    1.000
    H63      H        0.04420    0.17120    0.23660    1.000
    C97      C        0.07170    0.00140    0.26199    1.000
    C98      C        0.96340    0.98480    0.25735    1.000
    H64      H        0.91670    0.00260    0.24090    1.000
    C99      C        0.92380    0.94240    0.27675    1.000
    H65      H        0.85120    0.93190    0.27270    1.000
    C100     C        0.98880    0.91548    0.30179    1.000
    C101     C        0.09760    0.93087    0.30604    1.000
    H66      H        0.14430    0.91290    0.32240    1.000
    C102     C        0.13640    0.97241    0.28630    1.000
    C103     C        0.94670    0.86994    0.32416    1.000
    C104     C        0.39400    0.26198    0.29257    1.000
    C105     C        0.45410    0.21489    0.27733    1.000
    C106     C        0.39760    0.17546    0.25912    1.000
    H67      H        0.32170    0.17830    0.25540    1.000
    C107     C        0.45200    0.13200    0.24648    1.000
    H68      H        0.41160    0.10560    0.23490    1.000
    C108     C        0.56550    0.12657    0.25052    1.000
    C109     C        0.62050    0.16639    0.26893    1.000
    C110     C        0.56670    0.21058    0.28144    1.000
    H69      H        0.60690    0.23730    0.29260    1.000
    C111     C        0.61390    0.07729    0.23571    1.000
    C112     C        0.57600    0.03020    0.24989    1.000
    H70      H        0.52270    0.03030    0.26850    1.000
    C113     C        0.61600    0.98322    0.23696    1.000
    H71      H        0.59080    0.95250    0.24750    1.000
    C114     C        0.72810    0.02679    0.19321    1.000
    H72      H        0.77820    0.02630    0.17360    1.000
    C115     C        0.68970    0.07380    0.20663    1.000
    C116     C        0.73920    0.93082    0.19404    1.000
    Zn7      Zn       0.21701    0.20852    0.66526    1.000
    Zn8      Zn       0.22535    0.17354    0.80697    1.000
    Zn9      Zn       0.89975    0.28711    0.51834    1.000
    N33      N        0.21180    0.21393    0.60945    1.000
    N34      N        0.25200    0.23499    0.55157    1.000
    N35      N        0.20690    0.30609    0.36105    1.000
    N36      N        0.24050    0.28847    0.42085    1.000
    N37      N        0.74880    0.31411    0.50479    1.000
    N38      N        0.57120    0.31754    0.49559    1.000
    N39      N        0.37040    0.19457    0.68515    1.000
    N40      N        0.54700    0.19314    0.69761    1.000
    N41      N        0.90120    0.28447    0.57519    1.000
    N42      N        0.86250    0.26636    0.63359    1.000
    N43      N        0.06430    0.17367    0.78872    1.000
    N44      N        0.91330    0.18704    0.75580    1.000
    N45      N        0.24520    0.49750    0.70184    1.000
    N46      N        0.25470    0.51430    0.79189    1.000
    N47      N        0.74070    0.33560    0.77476    1.000
    N48      N        0.73250    0.37966    0.68901    1.000
    O33      O        0.33910    0.49311    0.69053    1.000
    O34      O        0.19740    0.53790    0.70332    1.000
    O35      O        0.28800    0.47150    0.78591    1.000
    O36      O        0.31660    0.54860    0.80220    1.000
    O37      O        0.29270    0.23386    0.78279    1.000
    O38      O        0.44220    0.20772    0.81348    1.000
    O39      O        0.70780    0.60995    0.71078    1.000
    O40      O        0.80640    0.56874    0.66867    1.000
    O41      O        0.79090    0.29670    0.78414    1.000
    O42      O        0.78550    0.37640    0.77370    1.000
    O43      O        0.67040    0.34250    0.68583    1.000
    O44      O        0.81510    0.38090    0.67520    1.000
    O45      O        0.14810    0.26750    0.69313    1.000
    O46      O        0.28100    0.30870    0.66395    1.000
    O47      O        0.85420    0.64795    0.81292    1.000
    O48      O        0.00150    0.64662    0.85076    1.000
    C117     C        0.69320    0.51866    0.70837    1.000
    C118     C        0.41120    0.27809    0.52436    1.000
    H73      H        0.44920    0.27540    0.54710    1.000
    C119     C        0.30450    0.25954    0.52025    1.000
    C120     C        0.24700    0.26306    0.48664    1.000
    H74      H        0.17540    0.25030    0.48450    1.000
    C121     C        0.29750    0.28575    0.45635    1.000
    C122     C        0.40440    0.30529    0.45920    1.000
    H75      H        0.43800    0.32100    0.43880    1.000
    C123     C        0.45900    0.30068    0.49335    1.000
    C124     C        0.27440    0.24332    0.58800    1.000
    H76      H        0.32700    0.26670    0.59700    1.000
    C125     C        0.14700    0.18660    0.58561    1.000
    H77      H        0.09400    0.16250    0.59260    1.000
    C126     C        0.17100    0.19990    0.54998    1.000
    H78      H        0.13740    0.18690    0.52830    1.000
    C127     C        0.28000    0.30900    0.38870    1.000
    H79      H        0.35000    0.32340    0.38640    1.000
    C128     C        0.11810    0.28320    0.37608    1.000
    H80      H        0.05270    0.27650    0.36310    1.000
    C129     C        0.13630    0.27120    0.41280    1.000
    H81      H        0.08800    0.25470    0.42900    1.000
    C130     C        0.65570    0.29004    0.50982    1.000
    H82      H        0.64880    0.25810    0.52170    1.000
    C131     C        0.72400    0.35950    0.48645    1.000
    H83      H        0.77510    0.38440    0.47930    1.000
    C132     C        0.61480    0.36239    0.48034    1.000
    H84      H        0.57630    0.38900    0.46830    1.000
    C133     C        0.72900    0.19211    0.72736    1.000
    H85      H        0.69950    0.17590    0.74840    1.000
    C134     C        0.66290    0.20507    0.69663    1.000
    C135     C        0.70470    0.22962    0.66541    1.000
    H86      H        0.65970    0.23750    0.64490    1.000
    C136     C        0.81570    0.24203    0.66566    1.000
    C137     C        0.88500    0.22919    0.69550    1.000
    H87      H        0.95970    0.23750    0.69500    1.000
    C138     C        0.84120    0.20416    0.72566    1.000
    C139     C        0.46600    0.21625    0.67830    1.000
    H88      H        0.47600    0.24410    0.66210    1.000
    C140     C        0.39190    0.15630    0.71087    1.000
    H89      H        0.33900    0.13450    0.72110    1.000
    C141     C        0.49850    0.15479    0.71910    1.000
    H90      H        0.53380    0.13250    0.73590    1.000
    C142     C        0.83620    0.25810    0.59768    1.000
    H91      H        0.77930    0.23650    0.58950    1.000
    C143     C        0.97340    0.31040    0.59797    1.000
    H92      H        0.02970    0.33210    0.58980    1.000
    C144     C        0.95070    0.30000    0.63380    1.000
    H93      H        0.98750    0.31290    0.65490    1.000
    C145     C        0.01920    0.19964    0.76057    1.000
    H94      H        0.05650    0.22370    0.74590    1.000
    C146     C        0.98260    0.14289    0.80263    1.000
    H95      H        0.99040    0.12000    0.82270    1.000
    C147     C        0.88850    0.15090    0.78266    1.000
    H96      H        0.82050    0.13500    0.78640    1.000
    C148     C        0.20150    0.30870    0.68557    1.000
    C149     C        0.16510    0.35823    0.70364    1.000
    C150     C        0.21560    0.40467    0.69494    1.000
    H97      H        0.26970    0.40550    0.67660    1.000
    C151     C        0.18700    0.44933    0.71302    1.000
    C152     C        0.10610    0.45111    0.74088    1.000
    C153     C        0.05430    0.40465    0.74860    1.000
    H98      H        0.99900    0.40410    0.76650    1.000
    C154     C        0.08160    0.35928    0.73070    1.000
    H99      H        0.04420    0.32880    0.73660    1.000
    C155     C        0.07170    0.49860    0.76199    1.000
    C156     C        0.96340    0.51520    0.75735    1.000
    H100     H        0.91670    0.49740    0.74090    1.000
    C157     C        0.92380    0.55760    0.77675    1.000
    H101     H        0.85120    0.56810    0.77270    1.000
    C158     C        0.98880    0.58452    0.80179    1.000
    C159     C        0.09760    0.56913    0.80604    1.000
    H102     H        0.14430    0.58710    0.82240    1.000
    C160     C        0.13640    0.52759    0.78630    1.000
    C161     C        0.94670    0.63006    0.82416    1.000
    C162     C        0.39400    0.23802    0.79257    1.000
    C163     C        0.45410    0.28511    0.77733    1.000
    C164     C        0.39760    0.32454    0.75912    1.000
    H103     H        0.32170    0.32170    0.75540    1.000
    C165     C        0.45200    0.36800    0.74648    1.000
    H104     H        0.41160    0.39440    0.73490    1.000
    C166     C        0.56550    0.37343    0.75052    1.000
    C167     C        0.62050    0.33361    0.76893    1.000
    C168     C        0.56670    0.28942    0.78144    1.000
    H105     H        0.60690    0.26270    0.79260    1.000
    C169     C        0.61390    0.42271    0.73571    1.000
    C170     C        0.57600    0.46980    0.74989    1.000
    H106     H        0.52270    0.46970    0.76850    1.000
    C171     C        0.61600    0.51678    0.73696    1.000
    H107     H        0.59080    0.54750    0.74750    1.000
    C172     C        0.72810    0.47321    0.69321    1.000
    H108     H        0.77820    0.47370    0.67360    1.000
    C173     C        0.68970    0.42620    0.70663    1.000
    C174     C        0.73920    0.56918    0.69404    1.000
    Zn10     Zn       0.78299    0.70852    0.83474    1.000
    Zn11     Zn       0.77465    0.67354    0.69303    1.000
    Zn12     Zn       0.10025    0.78711    0.98166    1.000
    N49      N        0.78820    0.71393    0.89055    1.000
    N50      N        0.74800    0.73499    0.94843    1.000
    N51      N        0.79310    0.80609    0.13895    1.000
    N52      N        0.75950    0.78847    0.07915    1.000
    N53      N        0.25120    0.81411    0.99521    1.000
    N54      N        0.42880    0.81754    0.00441    1.000
    N55      N        0.62960    0.69457    0.81485    1.000
    N56      N        0.45300    0.69314    0.80239    1.000
    N57      N        0.09880    0.78447    0.92481    1.000
    N58      N        0.13750    0.76636    0.86641    1.000
    N59      N        0.93570    0.67367    0.71128    1.000
    N60      N        0.08670    0.68704    0.74420    1.000
    N61      N        0.75480    0.99750    0.79816    1.000
    N62      N        0.74530    0.01430    0.70811    1.000
    N63      N        0.25930    0.83560    0.72524    1.000
    N64      N        0.26750    0.87966    0.81099    1.000
    O49      O        0.66090    0.99311    0.80947    1.000
    O50      O        0.80260    0.03790    0.79668    1.000
    O51      O        0.71200    0.97150    0.71409    1.000
    O52      O        0.68340    0.04860    0.69780    1.000
    O53      O        0.70730    0.73386    0.71721    1.000
    O54      O        0.55780    0.70772    0.68652    1.000
    O55      O        0.29220    0.10995    0.78922    1.000
    O56      O        0.19360    0.06874    0.83133    1.000
    O57      O        0.20910    0.79670    0.71586    1.000
    O58      O        0.21450    0.87640    0.72630    1.000
    O59      O        0.32960    0.84250    0.81417    1.000
    O60      O        0.18490    0.88090    0.82480    1.000
    O61      O        0.85190    0.76750    0.80687    1.000
    O62      O        0.71900    0.80870    0.83605    1.000
    O63      O        0.14580    0.14795    0.68708    1.000
    O64      O        0.99850    0.14662    0.64924    1.000
    C175     C        0.30680    0.01866    0.79163    1.000
    C176     C        0.58880    0.77809    0.97564    1.000
    H109     H        0.55080    0.77540    0.95290    1.000
    C177     C        0.69550    0.75954    0.97975    1.000
    C178     C        0.75300    0.76306    0.01336    1.000
    H110     H        0.82460    0.75030    0.01550    1.000
    C179     C        0.70250    0.78575    0.04365    1.000
    C180     C        0.59560    0.80529    0.04080    1.000
    H111     H        0.56200    0.82100    0.06120    1.000
    C181     C        0.54100    0.80068    0.00665    1.000
    C182     C        0.72560    0.74332    0.91200    1.000
    H112     H        0.67300    0.76670    0.90300    1.000
    C183     C        0.85300    0.68660    0.91439    1.000
    H113     H        0.90600    0.66250    0.90740    1.000
    C184     C        0.82900    0.69990    0.95002    1.000
    H114     H        0.86260    0.68690    0.97170    1.000
    C185     C        0.72000    0.80900    0.11130    1.000
    H115     H        0.65000    0.82340    0.11360    1.000
    C186     C        0.88190    0.78320    0.12392    1.000
    H116     H        0.94730    0.77650    0.13690    1.000
    C187     C        0.86370    0.77120    0.08720    1.000
    H117     H        0.91200    0.75470    0.07100    1.000
    C188     C        0.34430    0.79004    0.99018    1.000
    H118     H        0.35120    0.75810    0.97830    1.000
    C189     C        0.27600    0.85950    0.01355    1.000
    H119     H        0.22490    0.88440    0.02070    1.000
    C190     C        0.38520    0.86239    0.01966    1.000
    H120     H        0.42370    0.88900    0.03170    1.000
    C191     C        0.27100    0.69211    0.77264    1.000
    H121     H        0.30050    0.67590    0.75160    1.000
    C192     C        0.33710    0.70507    0.80337    1.000
    C193     C        0.29530    0.72962    0.83459    1.000
    H122     H        0.34030    0.73750    0.85510    1.000
    C194     C        0.18430    0.74203    0.83434    1.000
    C195     C        0.11500    0.72919    0.80450    1.000
    H123     H        0.04030    0.73750    0.80500    1.000
    C196     C        0.15880    0.70416    0.77434    1.000
    C197     C        0.53400    0.71625    0.82170    1.000
    H124     H        0.52400    0.74410    0.83790    1.000
    C198     C        0.60810    0.65630    0.78913    1.000
    H125     H        0.66100    0.63450    0.77890    1.000
    C199     C        0.50150    0.65479    0.78090    1.000
    H126     H        0.46620    0.63250    0.76410    1.000
    C200     C        0.16380    0.75810    0.90232    1.000
    H127     H        0.22070    0.73650    0.91050    1.000
    C201     C        0.02660    0.81040    0.90203    1.000
    H128     H        0.97030    0.83210    0.91020    1.000
    C202     C        0.04930    0.80000    0.86620    1.000
    H129     H        0.01250    0.81290    0.84510    1.000
    C203     C        0.98080    0.69964    0.73943    1.000
    H130     H        0.94350    0.72370    0.75410    1.000
    C204     C        0.01740    0.64289    0.69737    1.000
    H131     H        0.00960    0.62000    0.67730    1.000
    C205     C        0.11150    0.65090    0.71734    1.000
    H132     H        0.17950    0.63500    0.71360    1.000
    C206     C        0.79850    0.80870    0.81443    1.000
    C207     C        0.83490    0.85823    0.79636    1.000
    C208     C        0.78440    0.90467    0.80506    1.000
    H133     H        0.73030    0.90550    0.82340    1.000
    C209     C        0.81300    0.94933    0.78698    1.000
    C210     C        0.89390    0.95111    0.75912    1.000
    C211     C        0.94570    0.90465    0.75140    1.000
    H134     H        0.00100    0.90410    0.73350    1.000
    C212     C        0.91840    0.85928    0.76930    1.000
    H135     H        0.95580    0.82880    0.76340    1.000
    C213     C        0.92830    0.99860    0.73801    1.000
    C214     C        0.03660    0.01520    0.74265    1.000
    H136     H        0.08330    0.99740    0.75910    1.000
    C215     C        0.07620    0.05760    0.72325    1.000
    H137     H        0.14880    0.06810    0.72730    1.000
    C216     C        0.01120    0.08452    0.69821    1.000
    C217     C        0.90240    0.06913    0.69396    1.000
    H138     H        0.85570    0.08710    0.67760    1.000
    C218     C        0.86360    0.02759    0.71370    1.000
    C219     C        0.05330    0.13006    0.67584    1.000
    C220     C        0.60600    0.73802    0.70743    1.000
    C221     C        0.54590    0.78511    0.72267    1.000
    C222     C        0.60240    0.82454    0.74088    1.000
    H139     H        0.67830    0.82170    0.74460    1.000
    C223     C        0.54800    0.86800    0.75352    1.000
    H140     H        0.58840    0.89440    0.76510    1.000
    C224     C        0.43450    0.87343    0.74948    1.000
    C225     C        0.37950    0.83361    0.73107    1.000
    C226     C        0.43330    0.78942    0.71856    1.000
    H141     H        0.39310    0.76270    0.70740    1.000
    C227     C        0.38610    0.92271    0.76429    1.000
    C228     C        0.42400    0.96980    0.75011    1.000
    H142     H        0.47730    0.96970    0.73150    1.000
    C229     C        0.38400    0.01678    0.76304    1.000
    H143     H        0.40920    0.04750    0.75250    1.000
    C230     C        0.27190    0.97321    0.80679    1.000
    H144     H        0.22180    0.97370    0.82640    1.000
    C231     C        0.31030    0.92620    0.79337    1.000
    C232     C        0.26080    0.06918    0.80596    1.000
