data_functionalizedCrystal
_audit_creation_method	'EQeq! by Chris Wilmer'
_symmetry_space_group_name_H-M	'P1'
_symmetry_Int_Tables_number	1
_symmetry_cell_setting	triclinic
loop_
_symmetry_equiv_pos_as_xyz
  x,y,z
_cell_length_a	14.655
_cell_length_b	25.896
_cell_length_c	36.317
_cell_angle_alpha	90
_cell_angle_beta	90
_cell_angle_gamma	90
loop_
_atom_site_label
_atom_site_type_symbol
_atom_site_fract_x
_atom_site_fract_y
_atom_site_fract_z
_atom_site_charge
Mof_Ag	Ag	0.06701	0.34157	0.90793	0.548
Mof_O 	O 	0.0383	0.37389	0.09204	-0.261
Mof_O 	O 	0.0314	0.40918	0.03583	-0.541
Mof_O 	O 	0.8539	0.23993	0.93548	-0.301
Mof_O 	O 	0.9089	0.31976	0.93143	-0.408
Mof_O 	O 	0.8531	0.21225	0.11133	-0.364
Mof_O 	O 	0.8162	0.1661	0.06134	-0.357
Mof_C 	C 	0.9623	0.3286	0.04341	-0.128
Mof_C 	C 	0.9296	0.29	0.06706	0.061
Mof_C 	C 	0.8801	0.2491	0.05218	-0.106
Mof_C 	C 	0.8656	0.2461	0.01432	0.047
Mof_C 	C 	0.8993	0.2842	0.99085	-0.116
Mof_C 	C 	0.9471	0.3257	0.00558	0.072
Mof_C 	C 	0.0142	0.3725	0.05974	0.425
Mof_C 	C 	0.8861	0.2805	0.94991	0.345
Mof_C 	C 	0.8462	0.2058	0.0762	0.337
Mof_H 	H 	0.9465	0.2902	0.0912	0.039
Mof_H 	H 	0.8376	0.218	0.0066	0.042
Mof_H 	H 	0.9709	0.3541	0.9899	0.046
Mof_H 	H 	0.0551	0.4358	0.0412	0.363
Mof_Ag	Ag	0.06701	0.84157	0.40793	0.548
Mof_O 	O 	0.0383	0.87389	0.59204	-0.261
Mof_O 	O 	0.0314	0.90918	0.53583	-0.541
Mof_O 	O 	0.8539	0.73993	0.43548	-0.301
Mof_O 	O 	0.9089	0.81976	0.43143	-0.409
Mof_O 	O 	0.8531	0.71225	0.61133	-0.365
Mof_O 	O 	0.8162	0.6661	0.56134	-0.358
Mof_C 	C 	0.9623	0.8286	0.54341	-0.13
Mof_C 	C 	0.9296	0.79	0.56706	0.061
Mof_C 	C 	0.8801	0.7491	0.55218	-0.107
Mof_C 	C 	0.8656	0.7461	0.51432	0.047
Mof_C 	C 	0.8993	0.7842	0.49085	-0.118
Mof_C 	C 	0.9471	0.8257	0.50558	0.072
Mof_C 	C 	0.0142	0.8725	0.55974	0.424
Mof_C 	C 	0.8861	0.7805	0.44991	0.344
Mof_C 	C 	0.8462	0.7058	0.5762	0.336
Mof_H 	H 	0.9465	0.7902	0.5912	0.037
Mof_H 	H 	0.8376	0.718	0.5066	0.041
Mof_H 	H 	0.9709	0.8541	0.4899	0.044
Mof_H 	H 	0.0551	0.9358	0.5412	0.362
Mof_Ag	Ag	0.56701	0.34157	0.40793	0.547
Mof_O 	O 	0.5383	0.37389	0.59204	-0.262
Mof_O 	O 	0.5314	0.40918	0.53583	-0.542
Mof_O 	O 	0.3539	0.23993	0.43548	-0.302
Mof_O 	O 	0.4089	0.31976	0.43143	-0.409
Mof_O 	O 	0.3531	0.21225	0.61133	-0.365
Mof_O 	O 	0.3162	0.1661	0.56134	-0.358
Mof_C 	C 	0.4623	0.3286	0.54341	-0.13
Mof_C 	C 	0.4296	0.29	0.56706	0.061
Mof_C 	C 	0.3801	0.2491	0.55218	-0.107
Mof_C 	C 	0.3656	0.2461	0.51432	0.047
Mof_C 	C 	0.3993	0.2842	0.49085	-0.118
Mof_C 	C 	0.4471	0.3257	0.50558	0.072
Mof_C 	C 	0.5142	0.3725	0.55974	0.424
Mof_C 	C 	0.3861	0.2805	0.44991	0.344
Mof_C 	C 	0.3462	0.2058	0.5762	0.336
Mof_H 	H 	0.4465	0.2902	0.5912	0.038
Mof_H 	H 	0.3376	0.218	0.5066	0.041
Mof_H 	H 	0.4709	0.3541	0.4899	0.044
Mof_H 	H 	0.5551	0.4358	0.5412	0.362
Mof_Ag	Ag	0.56701	0.84157	0.90793	0.547
Mof_O 	O 	0.5383	0.87389	0.09204	-0.262
Mof_O 	O 	0.5314	0.90918	0.03583	-0.542
Mof_O 	O 	0.3539	0.73993	0.93548	-0.302
Mof_O 	O 	0.4089	0.81976	0.93143	-0.409
Mof_O 	O 	0.3531	0.71225	0.11133	-0.365
Mof_O 	O 	0.3162	0.6661	0.06134	-0.358
Mof_C 	C 	0.4623	0.8286	0.04341	-0.13
Mof_C 	C 	0.4296	0.79	0.06706	0.061
Mof_C 	C 	0.3801	0.7491	0.05218	-0.107
Mof_C 	C 	0.3656	0.7461	0.01432	0.047
Mof_C 	C 	0.3993	0.7842	0.99085	-0.119
Mof_C 	C 	0.4471	0.8257	0.00558	0.072
Mof_C 	C 	0.5142	0.8725	0.05974	0.424
Mof_C 	C 	0.3861	0.7805	0.94991	0.344
Mof_C 	C 	0.3462	0.7058	0.0762	0.336
Mof_H 	H 	0.4465	0.7902	0.0912	0.037
Mof_H 	H 	0.3376	0.718	0.0066	0.041
Mof_H 	H 	0.4709	0.8541	0.9899	0.044
Mof_H 	H 	0.5551	0.9358	0.0412	0.362
Mof_Ag	Ag	0.68299	0.40843	0.90793	0.547
Mof_O 	O 	0.7117	0.37611	0.09204	-0.262
Mof_O 	O 	0.7186	0.34082	0.03583	-0.542
Mof_O 	O 	0.8961	0.51007	0.93548	-0.302
Mof_O 	O 	0.8411	0.43024	0.93143	-0.409
Mof_O 	O 	0.8969	0.53775	0.11133	-0.365
Mof_O 	O 	0.9338	0.5839	0.06134	-0.358
Mof_C 	C 	0.7877	0.4214	0.04341	-0.13
Mof_C 	C 	0.8204	0.46	0.06706	0.06
Mof_C 	C 	0.8699	0.5009	0.05218	-0.107
Mof_C 	C 	0.8844	0.5039	0.01432	0.046
Mof_C 	C 	0.8507	0.4658	0.99085	-0.118
Mof_C 	C 	0.8029	0.4243	0.00558	0.071
Mof_C 	C 	0.7358	0.3775	0.05974	0.424
Mof_C 	C 	0.8639	0.4695	0.94991	0.344
Mof_C 	C 	0.9038	0.5442	0.0762	0.336
Mof_H 	H 	0.8035	0.4598	0.0912	0.038
Mof_H 	H 	0.9124	0.532	0.0066	0.041
Mof_H 	H 	0.7791	0.3959	0.9899	0.045
Mof_H 	H 	0.6949	0.3142	0.0412	0.362
Mof_Ag	Ag	0.68299	0.90843	0.40793	0.547
Mof_O 	O 	0.7117	0.87611	0.59204	-0.262
Mof_O 	O 	0.7186	0.84082	0.53583	-0.542
Mof_O 	O 	0.8961	0.01007	0.43548	-0.302
Mof_O 	O 	0.8411	0.93024	0.43143	-0.409
Mof_O 	O 	0.8969	0.03775	0.61133	-0.365
Mof_O 	O 	0.9338	0.0839	0.56134	-0.357
Mof_C 	C 	0.7877	0.9214	0.54341	-0.13
Mof_C 	C 	0.8204	0.96	0.56706	0.06
Mof_C 	C 	0.8699	0.0009	0.55218	-0.107
Mof_C 	C 	0.8844	0.0039	0.51432	0.047
Mof_C 	C 	0.8507	0.9658	0.49085	-0.118
Mof_C 	C 	0.8029	0.9243	0.50558	0.072
Mof_C 	C 	0.7358	0.8775	0.55974	0.424
Mof_C 	C 	0.8639	0.9695	0.44991	0.344
Mof_C 	C 	0.9038	0.0442	0.5762	0.336
Mof_H 	H 	0.8035	0.9598	0.5912	0.038
Mof_H 	H 	0.9124	0.032	0.5066	0.041
Mof_H 	H 	0.7791	0.8959	0.4899	0.044
Mof_H 	H 	0.6949	0.8142	0.5412	0.362
Mof_Ag	Ag	0.18299	0.40843	0.40793	0.547
Mof_O 	O 	0.2117	0.37611	0.59204	-0.262
Mof_O 	O 	0.2186	0.34082	0.53583	-0.542
Mof_O 	O 	0.3961	0.51007	0.43548	-0.302
Mof_O 	O 	0.3411	0.43024	0.43143	-0.409
Mof_O 	O 	0.3969	0.53775	0.61133	-0.365
Mof_O 	O 	0.4338	0.5839	0.56134	-0.358
Mof_C 	C 	0.2877	0.4214	0.54341	-0.13
Mof_C 	C 	0.3204	0.46	0.56706	0.061
Mof_C 	C 	0.3699	0.5009	0.55218	-0.107
Mof_C 	C 	0.3844	0.5039	0.51432	0.047
Mof_C 	C 	0.3507	0.4658	0.49085	-0.118
Mof_C 	C 	0.3029	0.4243	0.50558	0.072
Mof_C 	C 	0.2358	0.3775	0.55974	0.424
Mof_C 	C 	0.3639	0.4695	0.44991	0.344
Mof_C 	C 	0.4038	0.5442	0.5762	0.336
Mof_H 	H 	0.3035	0.4598	0.5912	0.038
Mof_H 	H 	0.4124	0.532	0.5066	0.041
Mof_H 	H 	0.2791	0.3959	0.4899	0.044
Mof_H 	H 	0.1949	0.3142	0.5412	0.362
Mof_Ag	Ag	0.18299	0.90843	0.90793	0.547
Mof_O 	O 	0.2117	0.87611	0.09204	-0.262
Mof_O 	O 	0.2186	0.84082	0.03583	-0.542
Mof_O 	O 	0.3961	0.01007	0.93548	-0.302
Mof_O 	O 	0.3411	0.93024	0.93143	-0.409
Mof_O 	O 	0.3969	0.03775	0.11133	-0.365
Mof_O 	O 	0.4338	0.0839	0.06134	-0.358
Mof_C 	C 	0.2877	0.9214	0.04341	-0.13
Mof_C 	C 	0.3204	0.96	0.06706	0.061
Mof_C 	C 	0.3699	0.0009	0.05218	-0.108
Mof_C 	C 	0.3844	0.0039	0.01432	0.047
Mof_C 	C 	0.3507	0.9658	0.99085	-0.119
Mof_C 	C 	0.3029	0.9243	0.00558	0.072
Mof_C 	C 	0.2358	0.8775	0.05974	0.424
Mof_C 	C 	0.3639	0.9695	0.94991	0.344
Mof_C 	C 	0.4038	0.0442	0.0762	0.336
Mof_H 	H 	0.3035	0.9598	0.0912	0.037
Mof_H 	H 	0.4124	0.032	0.0066	0.041
Mof_H 	H 	0.2791	0.8959	0.9899	0.044
Mof_H 	H 	0.1949	0.8142	0.0412	0.362
Mof_Ag	Ag	0.68299	0.34157	0.84207	0.547
Mof_O 	O 	0.7117	0.37389	0.65796	-0.262
Mof_O 	O 	0.7186	0.40918	0.71417	-0.542
Mof_O 	O 	0.8961	0.23993	0.81452	-0.302
Mof_O 	O 	0.8411	0.31976	0.81857	-0.409
Mof_O 	O 	0.8969	0.21225	0.63867	-0.365
Mof_O 	O 	0.9338	0.1661	0.68866	-0.357
Mof_C 	C 	0.7877	0.3286	0.70659	-0.13
Mof_C 	C 	0.8204	0.29	0.68294	0.061
Mof_C 	C 	0.8699	0.2491	0.69782	-0.107
Mof_C 	C 	0.8844	0.2461	0.73568	0.047
Mof_C 	C 	0.8507	0.2842	0.75915	-0.118
Mof_C 	C 	0.8029	0.3257	0.74442	0.072
Mof_C 	C 	0.7358	0.3725	0.69026	0.424
Mof_C 	C 	0.8639	0.2805	0.80009	0.344
Mof_C 	C 	0.9038	0.2058	0.6738	0.336
Mof_H 	H 	0.8035	0.2902	0.6588	0.038
Mof_H 	H 	0.9124	0.218	0.7434	0.041
Mof_H 	H 	0.7791	0.3541	0.7601	0.044
Mof_H 	H 	0.6949	0.4358	0.7088	0.362
Mof_Ag	Ag	0.68299	0.84157	0.34207	0.547
Mof_O 	O 	0.7117	0.87389	0.15796	-0.262
Mof_O 	O 	0.7186	0.90918	0.21417	-0.542
Mof_O 	O 	0.8961	0.73993	0.31452	-0.302
Mof_O 	O 	0.8411	0.81976	0.31857	-0.409
Mof_O 	O 	0.8969	0.71225	0.13867	-0.365
Mof_O 	O 	0.9338	0.6661	0.18866	-0.358
Mof_C 	C 	0.7877	0.8286	0.20659	-0.13
Mof_C 	C 	0.8204	0.79	0.18294	0.061
Mof_C 	C 	0.8699	0.7491	0.19782	-0.107
Mof_C 	C 	0.8844	0.7461	0.23568	0.047
Mof_C 	C 	0.8507	0.7842	0.25915	-0.118
Mof_C 	C 	0.8029	0.8257	0.24442	0.072
Mof_C 	C 	0.7358	0.8725	0.19026	0.424
Mof_C 	C 	0.8639	0.7805	0.30009	0.344
Mof_C 	C 	0.9038	0.7058	0.1738	0.336
Mof_H 	H 	0.8035	0.7902	0.1588	0.037
Mof_H 	H 	0.9124	0.718	0.2434	0.041
Mof_H 	H 	0.7791	0.8541	0.2601	0.044
Mof_H 	H 	0.6949	0.9358	0.2088	0.362
Mof_Ag	Ag	0.18299	0.34157	0.34207	0.547
Mof_O 	O 	0.2117	0.37389	0.15796	-0.262
Mof_O 	O 	0.2186	0.40918	0.21417	-0.542
Mof_O 	O 	0.3961	0.23993	0.31452	-0.302
Mof_O 	O 	0.3411	0.31976	0.31857	-0.409
Mof_O 	O 	0.3969	0.21225	0.13867	-0.365
Mof_O 	O 	0.4338	0.1661	0.18866	-0.358
Mof_C 	C 	0.2877	0.3286	0.20659	-0.13
Mof_C 	C 	0.3204	0.29	0.18294	0.061
Mof_C 	C 	0.3699	0.2491	0.19782	-0.107
Mof_C 	C 	0.3844	0.2461	0.23568	0.047
Mof_C 	C 	0.3507	0.2842	0.25915	-0.118
Mof_C 	C 	0.3029	0.3257	0.24442	0.072
Mof_C 	C 	0.2358	0.3725	0.19026	0.424
Mof_C 	C 	0.3639	0.2805	0.30009	0.344
Mof_C 	C 	0.4038	0.2058	0.1738	0.336
Mof_H 	H 	0.3035	0.2902	0.1588	0.037
Mof_H 	H 	0.4124	0.218	0.2434	0.041
Mof_H 	H 	0.2791	0.3541	0.2601	0.044
Mof_H 	H 	0.1949	0.4358	0.2088	0.362
Mof_Ag	Ag	0.18299	0.84157	0.84207	0.547
Mof_O 	O 	0.2117	0.87389	0.65796	-0.262
Mof_O 	O 	0.2186	0.90918	0.71417	-0.542
Mof_O 	O 	0.3961	0.73993	0.81452	-0.302
Mof_O 	O 	0.3411	0.81976	0.81857	-0.409
Mof_O 	O 	0.3969	0.71225	0.63867	-0.365
Mof_O 	O 	0.4338	0.6661	0.68866	-0.358
Mof_C 	C 	0.2877	0.8286	0.70659	-0.13
Mof_C 	C 	0.3204	0.79	0.68294	0.061
Mof_C 	C 	0.3699	0.7491	0.69782	-0.107
Mof_C 	C 	0.3844	0.7461	0.73568	0.047
Mof_C 	C 	0.3507	0.7842	0.75915	-0.118
Mof_C 	C 	0.3029	0.8257	0.74442	0.072
Mof_C 	C 	0.2358	0.8725	0.69026	0.424
Mof_C 	C 	0.3639	0.7805	0.80009	0.344
Mof_C 	C 	0.4038	0.7058	0.6738	0.336
Mof_H 	H 	0.3035	0.7902	0.6588	0.038
Mof_H 	H 	0.4124	0.718	0.7434	0.041
Mof_H 	H 	0.2791	0.8541	0.7601	0.044
Mof_H 	H 	0.1949	0.9358	0.7088	0.362
Mof_Ag	Ag	0.06701	0.40843	0.84207	0.547
Mof_O 	O 	0.0383	0.37611	0.65796	-0.262
Mof_O 	O 	0.0314	0.34082	0.71417	-0.542
Mof_O 	O 	0.8539	0.51007	0.81452	-0.302
Mof_O 	O 	0.9089	0.43024	0.81857	-0.409
Mof_O 	O 	0.8531	0.53775	0.63867	-0.365
Mof_O 	O 	0.8162	0.5839	0.68866	-0.358
Mof_C 	C 	0.9623	0.4214	0.70659	-0.13
Mof_C 	C 	0.9296	0.46	0.68294	0.06
Mof_C 	C 	0.8801	0.5009	0.69782	-0.107
Mof_C 	C 	0.8656	0.5039	0.73568	0.047
Mof_C 	C 	0.8993	0.4658	0.75915	-0.118
Mof_C 	C 	0.9471	0.4243	0.74442	0.072
Mof_C 	C 	0.0142	0.3775	0.69026	0.424
Mof_C 	C 	0.8861	0.4695	0.80009	0.344
Mof_C 	C 	0.8462	0.5442	0.6738	0.336
Mof_H 	H 	0.9465	0.4598	0.6588	0.038
Mof_H 	H 	0.8376	0.532	0.7434	0.041
Mof_H 	H 	0.9709	0.3959	0.7601	0.045
Mof_H 	H 	0.0551	0.3142	0.7088	0.362
Mof_Ag	Ag	0.06701	0.90843	0.34207	0.547
Mof_O 	O 	0.0383	0.87611	0.15796	-0.262
Mof_O 	O 	0.0314	0.84082	0.21417	-0.542
Mof_O 	O 	0.8539	0.01007	0.31452	-0.302
Mof_O 	O 	0.9089	0.93024	0.31857	-0.409
Mof_O 	O 	0.8531	0.03775	0.13867	-0.365
Mof_O 	O 	0.8162	0.0839	0.18866	-0.358
Mof_C 	C 	0.9623	0.9214	0.20659	-0.13
Mof_C 	C 	0.9296	0.96	0.18294	0.061
Mof_C 	C 	0.8801	0.0009	0.19782	-0.107
Mof_C 	C 	0.8656	0.0039	0.23568	0.047
Mof_C 	C 	0.8993	0.9658	0.25915	-0.119
Mof_C 	C 	0.9471	0.9243	0.24442	0.072
Mof_C 	C 	0.0142	0.8775	0.19026	0.424
Mof_C 	C 	0.8861	0.9695	0.30009	0.344
Mof_C 	C 	0.8462	0.0442	0.1738	0.336
Mof_H 	H 	0.9465	0.9598	0.1588	0.037
Mof_H 	H 	0.8376	0.032	0.2434	0.041
Mof_H 	H 	0.9709	0.8959	0.2601	0.044
Mof_H 	H 	0.0551	0.8142	0.2088	0.362
Mof_Ag	Ag	0.56701	0.40843	0.34207	0.547
Mof_O 	O 	0.5383	0.37611	0.15796	-0.262
Mof_O 	O 	0.5314	0.34082	0.21417	-0.542
Mof_O 	O 	0.3539	0.51007	0.31452	-0.302
Mof_O 	O 	0.4089	0.43024	0.31857	-0.409
Mof_O 	O 	0.3531	0.53775	0.13867	-0.365
Mof_O 	O 	0.3162	0.5839	0.18866	-0.358
Mof_C 	C 	0.4623	0.4214	0.20659	-0.13
Mof_C 	C 	0.4296	0.46	0.18294	0.061
Mof_C 	C 	0.3801	0.5009	0.19782	-0.107
Mof_C 	C 	0.3656	0.5039	0.23568	0.047
Mof_C 	C 	0.3993	0.4658	0.25915	-0.118
Mof_C 	C 	0.4471	0.4243	0.24442	0.072
Mof_C 	C 	0.5142	0.3775	0.19026	0.424
Mof_C 	C 	0.3861	0.4695	0.30009	0.344
Mof_C 	C 	0.3462	0.5442	0.1738	0.336
Mof_H 	H 	0.4465	0.4598	0.1588	0.038
Mof_H 	H 	0.3376	0.532	0.2434	0.041
Mof_H 	H 	0.4709	0.3959	0.2601	0.044
Mof_H 	H 	0.5551	0.3142	0.2088	0.362
Mof_Ag	Ag	0.56701	0.90843	0.84207	0.547
Mof_O 	O 	0.5383	0.87611	0.65796	-0.262
Mof_O 	O 	0.5314	0.84082	0.71417	-0.542
Mof_O 	O 	0.3539	0.01007	0.81452	-0.302
Mof_O 	O 	0.4089	0.93024	0.81857	-0.409
Mof_O 	O 	0.3531	0.03775	0.63867	-0.365
Mof_O 	O 	0.3162	0.0839	0.68866	-0.358
Mof_C 	C 	0.4623	0.9214	0.70659	-0.13
Mof_C 	C 	0.4296	0.96	0.68294	0.061
Mof_C 	C 	0.3801	0.0009	0.69782	-0.107
Mof_C 	C 	0.3656	0.0039	0.73568	0.047
Mof_C 	C 	0.3993	0.9658	0.75915	-0.118
Mof_C 	C 	0.4471	0.9243	0.74442	0.072
Mof_C 	C 	0.5142	0.8775	0.69026	0.424
Mof_C 	C 	0.3861	0.9695	0.80009	0.344
Mof_C 	C 	0.3462	0.0442	0.6738	0.336
Mof_H 	H 	0.4465	0.9598	0.6588	0.037
Mof_H 	H 	0.3376	0.032	0.7434	0.041
Mof_H 	H 	0.4709	0.8959	0.7601	0.044
Mof_H 	H 	0.5551	0.8142	0.7088	0.362
Mof_Ag	Ag	0.93299	0.65843	0.09207	0.547
Mof_O 	O 	0.9617	0.62611	0.90796	-0.262
Mof_O 	O 	0.9686	0.59082	0.96417	-0.542
Mof_O 	O 	0.1461	0.76007	0.06452	-0.302
Mof_O 	O 	0.0911	0.68024	0.06857	-0.409
Mof_O 	O 	0.1469	0.78775	0.88867	-0.365
Mof_O 	O 	0.1838	0.8339	0.93866	-0.358
Mof_C 	C 	0.0377	0.6714	0.95659	-0.129
Mof_C 	C 	0.0704	0.71	0.93294	0.06
Mof_C 	C 	0.1199	0.7509	0.94782	-0.107
Mof_C 	C 	0.1344	0.7539	0.98568	0.046
Mof_C 	C 	0.1007	0.7158	0.00915	-0.117
Mof_C 	C 	0.0529	0.6743	0.99442	0.071
Mof_C 	C 	0.9858	0.6275	0.94026	0.424
Mof_C 	C 	0.1139	0.7195	0.05009	0.344
Mof_C 	C 	0.1538	0.7942	0.9238	0.336
Mof_H 	H 	0.0535	0.7098	0.9088	0.038
Mof_H 	H 	0.1624	0.782	0.9934	0.041
Mof_H 	H 	0.0291	0.6459	0.0101	0.045
Mof_H 	H 	0.9449	0.5642	0.9588	0.362
Mof_Ag	Ag	0.93299	0.15843	0.59207	0.547
Mof_O 	O 	0.9617	0.12611	0.40796	-0.262
Mof_O 	O 	0.9686	0.09082	0.46417	-0.542
Mof_O 	O 	0.1461	0.26007	0.56452	-0.302
Mof_O 	O 	0.0911	0.18024	0.56857	-0.409
Mof_O 	O 	0.1469	0.28775	0.38867	-0.365
Mof_O 	O 	0.1838	0.3339	0.43866	-0.358
Mof_C 	C 	0.0377	0.1714	0.45659	-0.13
Mof_C 	C 	0.0704	0.21	0.43294	0.061
Mof_C 	C 	0.1199	0.2509	0.44782	-0.107
Mof_C 	C 	0.1344	0.2539	0.48568	0.047
Mof_C 	C 	0.1007	0.2158	0.50915	-0.118
Mof_C 	C 	0.0529	0.1743	0.49442	0.072
Mof_C 	C 	0.9858	0.1275	0.44026	0.424
Mof_C 	C 	0.1139	0.2195	0.55009	0.344
Mof_C 	C 	0.1538	0.2942	0.4238	0.336
Mof_H 	H 	0.0535	0.2098	0.4088	0.037
Mof_H 	H 	0.1624	0.282	0.4934	0.041
Mof_H 	H 	0.0291	0.1459	0.5101	0.044
Mof_H 	H 	0.9449	0.0642	0.4588	0.362
Mof_Ag	Ag	0.43299	0.65843	0.59207	0.547
Mof_O 	O 	0.4617	0.62611	0.40796	-0.262
Mof_O 	O 	0.4686	0.59082	0.46417	-0.542
Mof_O 	O 	0.6461	0.76007	0.56452	-0.302
Mof_O 	O 	0.5911	0.68024	0.56857	-0.409
Mof_O 	O 	0.6469	0.78775	0.38867	-0.365
Mof_O 	O 	0.6838	0.8339	0.43866	-0.358
Mof_C 	C 	0.5377	0.6714	0.45659	-0.13
Mof_C 	C 	0.5704	0.71	0.43294	0.061
Mof_C 	C 	0.6199	0.7509	0.44782	-0.107
Mof_C 	C 	0.6344	0.7539	0.48568	0.047
Mof_C 	C 	0.6007	0.7158	0.50915	-0.118
Mof_C 	C 	0.5529	0.6743	0.49442	0.072
Mof_C 	C 	0.4858	0.6275	0.44026	0.424
Mof_C 	C 	0.6139	0.7195	0.55009	0.344
Mof_C 	C 	0.6538	0.7942	0.4238	0.336
Mof_H 	H 	0.5535	0.7098	0.4088	0.038
Mof_H 	H 	0.6624	0.782	0.4934	0.041
Mof_H 	H 	0.5291	0.6459	0.5101	0.044
Mof_H 	H 	0.4449	0.5642	0.4588	0.362
Mof_Ag	Ag	0.43299	0.15843	0.09207	0.547
Mof_O 	O 	0.4617	0.12611	0.90796	-0.262
Mof_O 	O 	0.4686	0.09082	0.96417	-0.542
Mof_O 	O 	0.6461	0.26007	0.06452	-0.302
Mof_O 	O 	0.5911	0.18024	0.06857	-0.409
Mof_O 	O 	0.6469	0.28775	0.88867	-0.365
Mof_O 	O 	0.6838	0.3339	0.93866	-0.358
Mof_C 	C 	0.5377	0.1714	0.95659	-0.13
Mof_C 	C 	0.5704	0.21	0.93294	0.061
Mof_C 	C 	0.6199	0.2509	0.94782	-0.107
Mof_C 	C 	0.6344	0.2539	0.98568	0.047
Mof_C 	C 	0.6007	0.2158	0.00915	-0.119
Mof_C 	C 	0.5529	0.1743	0.99442	0.072
Mof_C 	C 	0.4858	0.1275	0.94026	0.424
Mof_C 	C 	0.6139	0.2195	0.05009	0.344
Mof_C 	C 	0.6538	0.2942	0.9238	0.336
Mof_H 	H 	0.5535	0.2098	0.9088	0.037
Mof_H 	H 	0.6624	0.282	0.9934	0.041
Mof_H 	H 	0.5291	0.1459	0.0101	0.044
Mof_H 	H 	0.4449	0.0642	0.9588	0.362
Mof_Ag	Ag	0.31701	0.59157	0.09207	0.547
Mof_O 	O 	0.2883	0.62389	0.90796	-0.262
Mof_O 	O 	0.2814	0.65918	0.96417	-0.542
Mof_O 	O 	0.1039	0.48993	0.06452	-0.302
Mof_O 	O 	0.1589	0.56976	0.06857	-0.409
Mof_O 	O 	0.1031	0.46225	0.88867	-0.365
Mof_O 	O 	0.0662	0.4161	0.93866	-0.358
Mof_C 	C 	0.2123	0.5786	0.95659	-0.13
Mof_C 	C 	0.1796	0.54	0.93294	0.06
Mof_C 	C 	0.1301	0.4991	0.94782	-0.107
Mof_C 	C 	0.1156	0.4961	0.98568	0.046
Mof_C 	C 	0.1493	0.5342	0.00915	-0.118
Mof_C 	C 	0.1971	0.5757	0.99442	0.071
Mof_C 	C 	0.2642	0.6225	0.94026	0.424
Mof_C 	C 	0.1361	0.5305	0.05009	0.344
Mof_C 	C 	0.0962	0.4558	0.9238	0.336
Mof_H 	H 	0.1965	0.5402	0.9088	0.038
Mof_H 	H 	0.0876	0.468	0.9934	0.041
Mof_H 	H 	0.2209	0.6041	0.0101	0.045
Mof_H 	H 	0.3051	0.6858	0.9588	0.362
Mof_Ag	Ag	0.31701	0.09157	0.59207	0.547
Mof_O 	O 	0.2883	0.12389	0.40796	-0.262
Mof_O 	O 	0.2814	0.15918	0.46417	-0.542
Mof_O 	O 	0.1039	0.98993	0.56452	-0.302
Mof_O 	O 	0.1589	0.06976	0.56857	-0.409
Mof_O 	O 	0.1031	0.96225	0.38867	-0.365
Mof_O 	O 	0.0662	0.9161	0.43866	-0.357
Mof_C 	C 	0.2123	0.0786	0.45659	-0.13
Mof_C 	C 	0.1796	0.04	0.43294	0.06
Mof_C 	C 	0.1301	0.9991	0.44782	-0.107
Mof_C 	C 	0.1156	0.9961	0.48568	0.047
Mof_C 	C 	0.1493	0.0342	0.50915	-0.118
Mof_C 	C 	0.1971	0.0757	0.49442	0.072
Mof_C 	C 	0.2642	0.1225	0.44026	0.424
Mof_C 	C 	0.1361	0.0305	0.55009	0.344
Mof_C 	C 	0.0962	0.9558	0.4238	0.336
Mof_H 	H 	0.1965	0.0402	0.4088	0.038
Mof_H 	H 	0.0876	0.968	0.4934	0.041
Mof_H 	H 	0.2209	0.1041	0.5101	0.044
Mof_H 	H 	0.3051	0.1858	0.4588	0.362
Mof_Ag	Ag	0.81701	0.59157	0.59207	0.547
Mof_O 	O 	0.7883	0.62389	0.40796	-0.262
Mof_O 	O 	0.7814	0.65918	0.46417	-0.542
Mof_O 	O 	0.6039	0.48993	0.56452	-0.302
Mof_O 	O 	0.6589	0.56976	0.56857	-0.409
Mof_O 	O 	0.6031	0.46225	0.38867	-0.365
Mof_O 	O 	0.5662	0.4161	0.43866	-0.358
Mof_C 	C 	0.7123	0.5786	0.45659	-0.13
Mof_C 	C 	0.6796	0.54	0.43294	0.061
Mof_C 	C 	0.6301	0.4991	0.44782	-0.107
Mof_C 	C 	0.6156	0.4961	0.48568	0.047
Mof_C 	C 	0.6493	0.5342	0.50915	-0.118
Mof_C 	C 	0.6971	0.5757	0.49442	0.072
Mof_C 	C 	0.7642	0.6225	0.44026	0.424
Mof_C 	C 	0.6361	0.5305	0.55009	0.344
Mof_C 	C 	0.5962	0.4558	0.4238	0.336
Mof_H 	H 	0.6965	0.5402	0.4088	0.038
Mof_H 	H 	0.5876	0.468	0.4934	0.041
Mof_H 	H 	0.7209	0.6041	0.5101	0.044
Mof_H 	H 	0.8051	0.6858	0.4588	0.362
Mof_Ag	Ag	0.81701	0.09157	0.09207	0.547
Mof_O 	O 	0.7883	0.12389	0.90796	-0.262
Mof_O 	O 	0.7814	0.15918	0.96417	-0.542
Mof_O 	O 	0.6039	0.98993	0.06452	-0.302
Mof_O 	O 	0.6589	0.06976	0.06857	-0.409
Mof_O 	O 	0.6031	0.96225	0.88867	-0.365
Mof_O 	O 	0.5662	0.9161	0.93866	-0.358
Mof_C 	C 	0.7123	0.0786	0.95659	-0.13
Mof_C 	C 	0.6796	0.04	0.93294	0.061
Mof_C 	C 	0.6301	0.9991	0.94782	-0.108
Mof_C 	C 	0.6156	0.9961	0.98568	0.047
Mof_C 	C 	0.6493	0.0342	0.00915	-0.119
Mof_C 	C 	0.6971	0.0757	0.99442	0.072
Mof_C 	C 	0.7642	0.1225	0.94026	0.424
Mof_C 	C 	0.6361	0.0305	0.05009	0.344
Mof_C 	C 	0.5962	0.9558	0.9238	0.336
Mof_H 	H 	0.6965	0.0402	0.9088	0.037
Mof_H 	H 	0.5876	0.968	0.9934	0.041
Mof_H 	H 	0.7209	0.1041	0.0101	0.044
Mof_H 	H 	0.8051	0.1858	0.9588	0.362
Mof_Ag	Ag	0.31701	0.65843	0.15793	0.547
Mof_O 	O 	0.2883	0.62611	0.34204	-0.262
Mof_O 	O 	0.2814	0.59082	0.28583	-0.542
Mof_O 	O 	0.1039	0.76007	0.18548	-0.302
Mof_O 	O 	0.1589	0.68024	0.18143	-0.409
Mof_O 	O 	0.1031	0.78775	0.36133	-0.365
Mof_O 	O 	0.0662	0.8339	0.31134	-0.357
Mof_C 	C 	0.2123	0.6714	0.29341	-0.13
Mof_C 	C 	0.1796	0.71	0.31706	0.061
Mof_C 	C 	0.1301	0.7509	0.30218	-0.107
Mof_C 	C 	0.1156	0.7539	0.26432	0.047
Mof_C 	C 	0.1493	0.7158	0.24085	-0.118
Mof_C 	C 	0.1971	0.6743	0.25558	0.072
Mof_C 	C 	0.2642	0.6275	0.30974	0.424
Mof_C 	C 	0.1361	0.7195	0.19991	0.344
Mof_C 	C 	0.0962	0.7942	0.3262	0.336
Mof_H 	H 	0.1965	0.7098	0.3412	0.038
Mof_H 	H 	0.0876	0.782	0.2566	0.041
Mof_H 	H 	0.2209	0.6459	0.2399	0.044
Mof_H 	H 	0.3051	0.5642	0.2912	0.362
Mof_Ag	Ag	0.31701	0.15843	0.65793	0.547
Mof_O 	O 	0.2883	0.12611	0.84204	-0.262
Mof_O 	O 	0.2814	0.09082	0.78583	-0.542
Mof_O 	O 	0.1039	0.26007	0.68548	-0.302
Mof_O 	O 	0.1589	0.18024	0.68143	-0.409
Mof_O 	O 	0.1031	0.28775	0.86133	-0.365
Mof_O 	O 	0.0662	0.3339	0.81134	-0.358
Mof_C 	C 	0.2123	0.1714	0.79341	-0.13
Mof_C 	C 	0.1796	0.21	0.81706	0.061
Mof_C 	C 	0.1301	0.2509	0.80218	-0.107
Mof_C 	C 	0.1156	0.2539	0.76432	0.047
Mof_C 	C 	0.1493	0.2158	0.74085	-0.118
Mof_C 	C 	0.1971	0.1743	0.75558	0.072
Mof_C 	C 	0.2642	0.1275	0.80974	0.424
Mof_C 	C 	0.1361	0.2195	0.69991	0.344
Mof_C 	C 	0.0962	0.2942	0.8262	0.336
Mof_H 	H 	0.1965	0.2098	0.8412	0.037
Mof_H 	H 	0.0876	0.282	0.7566	0.041
Mof_H 	H 	0.2209	0.1459	0.7399	0.044
Mof_H 	H 	0.3051	0.0642	0.7912	0.362
Mof_Ag	Ag	0.81701	0.65843	0.65793	0.547
Mof_O 	O 	0.7883	0.62611	0.84204	-0.262
Mof_O 	O 	0.7814	0.59082	0.78583	-0.542
Mof_O 	O 	0.6039	0.76007	0.68548	-0.302
Mof_O 	O 	0.6589	0.68024	0.68143	-0.409
Mof_O 	O 	0.6031	0.78775	0.86133	-0.365
Mof_O 	O 	0.5662	0.8339	0.81134	-0.358
Mof_C 	C 	0.7123	0.6714	0.79341	-0.13
Mof_C 	C 	0.6796	0.71	0.81706	0.061
Mof_C 	C 	0.6301	0.7509	0.80218	-0.107
Mof_C 	C 	0.6156	0.7539	0.76432	0.047
Mof_C 	C 	0.6493	0.7158	0.74085	-0.118
Mof_C 	C 	0.6971	0.6743	0.75558	0.072
Mof_C 	C 	0.7642	0.6275	0.80974	0.424
Mof_C 	C 	0.6361	0.7195	0.69991	0.344
Mof_C 	C 	0.5962	0.7942	0.8262	0.336
Mof_H 	H 	0.6965	0.7098	0.8412	0.037
Mof_H 	H 	0.5876	0.782	0.7566	0.041
Mof_H 	H 	0.7209	0.6459	0.7399	0.044
Mof_H 	H 	0.8051	0.5642	0.7912	0.362
Mof_Ag	Ag	0.81701	0.15843	0.15793	0.547
Mof_O 	O 	0.7883	0.12611	0.34204	-0.262
Mof_O 	O 	0.7814	0.09082	0.28583	-0.542
Mof_O 	O 	0.6039	0.26007	0.18548	-0.302
Mof_O 	O 	0.6589	0.18024	0.18143	-0.409
Mof_O 	O 	0.6031	0.28775	0.36133	-0.365
Mof_O 	O 	0.5662	0.3339	0.31134	-0.358
Mof_C 	C 	0.7123	0.1714	0.29341	-0.13
Mof_C 	C 	0.6796	0.21	0.31706	0.061
Mof_C 	C 	0.6301	0.2509	0.30218	-0.107
Mof_C 	C 	0.6156	0.2539	0.26432	0.047
Mof_C 	C 	0.6493	0.2158	0.24085	-0.118
Mof_C 	C 	0.6971	0.1743	0.25558	0.072
Mof_C 	C 	0.7642	0.1275	0.30974	0.424
Mof_C 	C 	0.6361	0.2195	0.19991	0.344
Mof_C 	C 	0.5962	0.2942	0.3262	0.336
Mof_H 	H 	0.6965	0.2098	0.3412	0.038
Mof_H 	H 	0.5876	0.282	0.2566	0.041
Mof_H 	H 	0.7209	0.1459	0.2399	0.044
Mof_H 	H 	0.8051	0.0642	0.2912	0.362
Mof_Ag	Ag	0.93299	0.59157	0.15793	0.547
Mof_O 	O 	0.9617	0.62389	0.34204	-0.262
Mof_O 	O 	0.9686	0.65918	0.28583	-0.542
Mof_O 	O 	0.1461	0.48993	0.18548	-0.302
Mof_O 	O 	0.0911	0.56976	0.18143	-0.409
Mof_O 	O 	0.1469	0.46225	0.36133	-0.365
Mof_O 	O 	0.1838	0.4161	0.31134	-0.358
Mof_C 	C 	0.0377	0.5786	0.29341	-0.13
Mof_C 	C 	0.0704	0.54	0.31706	0.06
Mof_C 	C 	0.1199	0.4991	0.30218	-0.107
Mof_C 	C 	0.1344	0.4961	0.26432	0.047
Mof_C 	C 	0.1007	0.5342	0.24085	-0.118
Mof_C 	C 	0.0529	0.5757	0.25558	0.072
Mof_C 	C 	0.9858	0.6225	0.30974	0.424
Mof_C 	C 	0.1139	0.5305	0.19991	0.344
Mof_C 	C 	0.1538	0.4558	0.3262	0.336
Mof_H 	H 	0.0535	0.5402	0.3412	0.038
Mof_H 	H 	0.1624	0.468	0.2566	0.041
Mof_H 	H 	0.0291	0.6041	0.2399	0.045
Mof_H 	H 	0.9449	0.6858	0.2912	0.362
Mof_Ag	Ag	0.93299	0.09157	0.65793	0.547
Mof_O 	O 	0.9617	0.12389	0.84204	-0.262
Mof_O 	O 	0.9686	0.15918	0.78583	-0.542
Mof_O 	O 	0.1461	0.98993	0.68548	-0.302
Mof_O 	O 	0.0911	0.06976	0.68143	-0.409
Mof_O 	O 	0.1469	0.96225	0.86133	-0.365
Mof_O 	O 	0.1838	0.9161	0.81134	-0.358
Mof_C 	C 	0.0377	0.0786	0.79341	-0.13
Mof_C 	C 	0.0704	0.04	0.81706	0.061
Mof_C 	C 	0.1199	0.9991	0.80218	-0.107
Mof_C 	C 	0.1344	0.9961	0.76432	0.047
Mof_C 	C 	0.1007	0.0342	0.74085	-0.119
Mof_C 	C 	0.0529	0.0757	0.75558	0.072
Mof_C 	C 	0.9858	0.1225	0.80974	0.424
Mof_C 	C 	0.1139	0.0305	0.69991	0.344
Mof_C 	C 	0.1538	0.9558	0.8262	0.336
Mof_H 	H 	0.0535	0.0402	0.8412	0.037
Mof_H 	H 	0.1624	0.968	0.7566	0.041
Mof_H 	H 	0.0291	0.1041	0.7399	0.044
Mof_H 	H 	0.9449	0.1858	0.7912	0.362
Mof_Ag	Ag	0.43299	0.59157	0.65793	0.547
Mof_O 	O 	0.4617	0.62389	0.84204	-0.262
Mof_O 	O 	0.4686	0.65918	0.78583	-0.542
Mof_O 	O 	0.6461	0.48993	0.68548	-0.302
Mof_O 	O 	0.5911	0.56976	0.68143	-0.409
Mof_O 	O 	0.6469	0.46225	0.86133	-0.365
Mof_O 	O 	0.6838	0.4161	0.81134	-0.358
Mof_C 	C 	0.5377	0.5786	0.79341	-0.13
Mof_C 	C 	0.5704	0.54	0.81706	0.061
Mof_C 	C 	0.6199	0.4991	0.80218	-0.107
Mof_C 	C 	0.6344	0.4961	0.76432	0.047
Mof_C 	C 	0.6007	0.5342	0.74085	-0.118
Mof_C 	C 	0.5529	0.5757	0.75558	0.072
Mof_C 	C 	0.4858	0.6225	0.80974	0.424
Mof_C 	C 	0.6139	0.5305	0.69991	0.344
Mof_C 	C 	0.6538	0.4558	0.8262	0.336
Mof_H 	H 	0.5535	0.5402	0.8412	0.038
Mof_H 	H 	0.6624	0.468	0.7566	0.041
Mof_H 	H 	0.5291	0.6041	0.7399	0.044
Mof_H 	H 	0.4449	0.6858	0.7912	0.362
Mof_Ag	Ag	0.43299	0.09157	0.15793	0.547
Mof_O 	O 	0.4617	0.12389	0.34204	-0.262
Mof_O 	O 	0.4686	0.15918	0.28583	-0.542
Mof_O 	O 	0.6461	0.98993	0.18548	-0.302
Mof_O 	O 	0.5911	0.06976	0.18143	-0.409
Mof_O 	O 	0.6469	0.96225	0.36133	-0.365
Mof_O 	O 	0.6838	0.9161	0.31134	-0.358
Mof_C 	C 	0.5377	0.0786	0.29341	-0.13
Mof_C 	C 	0.5704	0.04	0.31706	0.061
Mof_C 	C 	0.6199	0.9991	0.30218	-0.107
Mof_C 	C 	0.6344	0.9961	0.26432	0.047
Mof_C 	C 	0.6007	0.0342	0.24085	-0.118
Mof_C 	C 	0.5529	0.0757	0.25558	0.072
Mof_C 	C 	0.4858	0.1225	0.30974	0.424
Mof_C 	C 	0.6139	0.0305	0.19991	0.344
Mof_C 	C 	0.6538	0.9558	0.3262	0.336
Mof_H 	H 	0.5535	0.0402	0.3412	0.037
Mof_H 	H 	0.6624	0.968	0.2566	0.041
Mof_H 	H 	0.5291	0.1041	0.2399	0.044
Mof_H 	H 	0.4449	0.1858	0.2912	0.362
Mof_Ag	Ag	0.875	0.31605	0.875	0.554
Mof_Ag	Ag	0.875	0.81605	0.375	0.554
Mof_Ag	Ag	0.375	0.31605	0.375	0.554
Mof_Ag	Ag	0.375	0.81605	0.875	0.554
Mof_Ag	Ag	0.875	0.43395	0.875	0.554
Mof_Ag	Ag	0.875	0.93395	0.375	0.554
Mof_Ag	Ag	0.375	0.43395	0.375	0.554
Mof_Ag	Ag	0.375	0.93395	0.875	0.554
Mof_Ag	Ag	0.125	0.68395	0.125	0.554
Mof_Ag	Ag	0.125	0.18395	0.625	0.554
Mof_Ag	Ag	0.625	0.68395	0.625	0.554
Mof_Ag	Ag	0.625	0.18395	0.125	0.554
Mof_Ag	Ag	0.125	0.56605	0.125	0.554
Mof_Ag	Ag	0.125	0.06605	0.625	0.554
Mof_Ag	Ag	0.625	0.56605	0.625	0.554
Mof_Ag	Ag	0.625	0.06605	0.125	0.554
_end
