data_functionalizedCrystal
_audit_creation_method	'EQeq! by Chris Wilmer'
_symmetry_space_group_name_H-M	'P1'
_symmetry_Int_Tables_number	1
_symmetry_cell_setting	triclinic
loop_
_symmetry_equiv_pos_as_xyz
  x,y,z
_cell_length_a	13.5703
_cell_length_b	14.408
_cell_length_c	19.4879
_cell_angle_alpha	93.937
_cell_angle_beta	109.856
_cell_angle_gamma	93.505
loop_
_atom_site_label
_atom_site_type_symbol
_atom_site_fract_x
_atom_site_fract_y
_atom_site_fract_z
_atom_site_charge
Mof_Cd	Cd	0.9421	0.45471	0.20141	0.425
Mof_Cd	Cd	0.47166	0.88508	0.59158	0.467
Mof_Cd	Cd	0.0579	0.54529	0.79859	0.424
Mof_Cd	Cd	0.52834	0.11492	0.40842	0.466
Mof_H 	H 	0.1721	0.4341	0.1694	0.033
Mof_H 	H 	0.8949	0.4028	0.0145	0.071
Mof_H 	H 	0.0172	0.332	0.9608	0.061
Mof_H 	H 	0.202	0.3504	0.9541	0.152
Mof_H 	H 	0.4681	0.2267	0.0563	0.14
Mof_H 	H 	0.283	0.3084	0.17	0.14
Mof_H 	H 	0.3673	0.1756	0.2435	0.015
Mof_H 	H 	0.6102	0.26	0.1838	0.058
Mof_H 	H 	0.6776	0.1982	0.3048	0.042
Mof_H 	H 	0.2258	0.3113	0.8496	0.037
Mof_H 	H 	0.4764	0.2202	0.8211	0.079
Mof_H 	H 	0.5078	0.2317	0.9507	0.046
Mof_H 	H 	0.0913	0.4478	0.3804	0.017
Mof_H 	H 	0.1243	0.2698	0.2278	0.042
Mof_H 	H 	0.247	0.2345	0.3482	0.051
Mof_H 	H 	0.2665	0.6009	0.6099	0.06
Mof_H 	H 	0.1832	0.6699	0.6919	0.039
Mof_H 	H 	0.1567	0.3969	0.7028	0.031
Mof_H 	H 	0.2036	0.4691	0.5023	0.138
Mof_H 	H 	0.2652	0.1997	0.4672	0.149
Mof_H 	H 	0.3034	0.3104	0.6735	0.159
Mof_H 	H 	0.3897	0.0957	0.5316	0.03
Mof_H 	H 	0.2813	0.1443	0.694	0.054
Mof_H 	H 	0.3513	0.9916	0.7049	0.046
Mof_H 	H 	0.8279	0.5659	0.8306	0.033
Mof_H 	H 	0.1051	0.5972	0.9855	0.071
Mof_H 	H 	0.9828	0.668	0.0392	0.061
Mof_H 	H 	0.798	0.6496	0.0459	0.152
Mof_H 	H 	0.5319	0.7733	0.9437	0.14
Mof_H 	H 	0.717	0.6916	0.83	0.14
Mof_H 	H 	0.6327	0.8244	0.7565	0.015
Mof_H 	H 	0.3898	0.74	0.8162	0.058
Mof_H 	H 	0.3224	0.8018	0.6952	0.042
Mof_H 	H 	0.7742	0.6887	0.1504	0.037
Mof_H 	H 	0.5236	0.7798	0.1789	0.079
Mof_H 	H 	0.4922	0.7683	0.0493	0.046
Mof_H 	H 	0.9087	0.5522	0.6196	0.017
Mof_H 	H 	0.8757	0.7302	0.7722	0.042
Mof_H 	H 	0.753	0.7655	0.6518	0.051
Mof_H 	H 	0.7335	0.3991	0.3901	0.06
Mof_H 	H 	0.8168	0.3301	0.3081	0.039
Mof_H 	H 	0.8433	0.6031	0.2972	0.031
Mof_H 	H 	0.7964	0.5309	0.4977	0.138
Mof_H 	H 	0.7348	0.8003	0.5328	0.149
Mof_H 	H 	0.6966	0.6896	0.3265	0.159
Mof_H 	H 	0.6103	0.9043	0.4684	0.03
Mof_H 	H 	0.7187	0.8557	0.306	0.054
Mof_H 	H 	0.6487	0.0084	0.2951	0.046
Mof_C 	C 	0.1181	0.4171	0.125	0.099
Mof_C 	C 	0.9663	0.3994	0.0395	0.01
Mof_C 	C 	0.0335	0.3601	0.0083	0.018
Mof_C 	C 	0.226	0.3326	0.0625	0.215
Mof_C 	C 	0.2468	0.3271	0.9956	-0.236
Mof_C 	C 	0.338	0.2849	0.9941	0.21
Mof_C 	C 	0.4081	0.2534	0.0578	-0.244
Mof_C 	C 	0.3874	0.2622	0.1232	0.219
Mof_C 	C 	0.2962	0.3023	0.1262	-0.237
Mof_C 	C 	0.4355	0.1884	0.2439	0.107
Mof_C 	C 	0.5699	0.2366	0.21	0.017
Mof_C 	C 	0.6069	0.2006	0.2772	0.014
Mof_C 	C 	0.2914	0.2892	0.8577	0.101
Mof_C 	C 	0.429	0.2402	0.8427	0
Mof_C 	C 	0.4466	0.2453	0.9146	0.033
Mof_C 	C 	0.1149	0.4001	0.3571	0.107
Mof_C 	C 	0.1336	0.3018	0.273	0.003
Mof_C 	C 	0.2013	0.2814	0.3405	0.025
Mof_C 	C 	0.2348	0.5692	0.6381	0.014
Mof_C 	C 	0.1884	0.6063	0.6837	0.02
Mof_C 	C 	0.1732	0.4555	0.6903	0.109
Mof_C 	C 	0.2468	0.399	0.5963	0.223
Mof_C 	C 	0.2226	0.4121	0.52	-0.24
Mof_C 	C 	0.2287	0.3362	0.4737	0.211
Mof_C 	C 	0.2621	0.2496	0.4991	-0.232
Mof_C 	C 	0.2906	0.2425	0.5759	0.231
Mof_C 	C 	0.2835	0.3164	0.6235	-0.247
Mof_C 	C 	0.3716	0.0884	0.573	0.124
Mof_C 	C 	0.3115	0.1162	0.6626	0.034
Mof_C 	C 	0.3502	0.0309	0.6688	0.017
Mof_C 	C 	0.4649	0.6934	0.541	0.325
Mof_C 	C 	0.4827	0.5937	0.5199	-0.094
Mof_C 	C 	0.518	0.5297	0.5737	0.094
Mof_C 	C 	0.5344	0.4366	0.554	0.095
Mof_C 	C 	0.6983	0.4192	0.0853	0.333
Mof_C 	C 	0.5955	0.4628	0.0406	-0.093
Mof_C 	C 	0.5278	0.493	0.0753	0.092
Mof_C 	C 	0.4332	0.5308	0.0352	0.092
Mof_C 	C 	0.0209	0.6669	0.2346	0.325
Mof_C 	C 	0.0962	0.7535	0.2685	-0.095
Mof_C 	C 	0.185	0.7696	0.2489	0.107
Mof_C 	C 	0.2728	0.8382	0.2979	0.113
Mof_C 	C 	0.2684	0.8882	0.357	-0.09
Mof_C 	C 	0.1685	0.8766	0.3731	0.1
Mof_C 	C 	0.0777	0.8187	0.3195	0.104
Mof_C 	C 	0.3591	0.9562	0.4086	0.343
Mof_C 	C 	0.8819	0.5829	0.875	0.099
Mof_C 	C 	0.0337	0.6006	0.9605	0.01
Mof_C 	C 	0.9665	0.6399	0.9917	0.018
Mof_C 	C 	0.774	0.6674	0.9375	0.215
Mof_C 	C 	0.7532	0.6729	0.0044	-0.236
Mof_C 	C 	0.662	0.7151	0.0059	0.21
Mof_C 	C 	0.5919	0.7466	0.9422	-0.244
Mof_C 	C 	0.6126	0.7378	0.8768	0.219
Mof_C 	C 	0.7038	0.6977	0.8738	-0.237
Mof_C 	C 	0.5645	0.8116	0.7561	0.107
Mof_C 	C 	0.4301	0.7634	0.79	0.017
Mof_C 	C 	0.3931	0.7994	0.7228	0.014
Mof_C 	C 	0.7086	0.7108	0.1423	0.101
Mof_C 	C 	0.571	0.7598	0.1573	0
Mof_C 	C 	0.5534	0.7547	0.0854	0.033
Mof_C 	C 	0.8851	0.5999	0.6429	0.107
Mof_C 	C 	0.8664	0.6982	0.727	0.003
Mof_C 	C 	0.7987	0.7186	0.6595	0.025
Mof_C 	C 	0.7652	0.4308	0.3619	0.014
Mof_C 	C 	0.8116	0.3937	0.3163	0.02
Mof_C 	C 	0.8268	0.5445	0.3097	0.109
Mof_C 	C 	0.7532	0.601	0.4037	0.223
Mof_C 	C 	0.7774	0.5879	0.48	-0.24
Mof_C 	C 	0.7713	0.6638	0.5263	0.211
Mof_C 	C 	0.7379	0.7504	0.5009	-0.232
Mof_C 	C 	0.7094	0.7575	0.4241	0.231
Mof_C 	C 	0.7165	0.6836	0.3765	-0.247
Mof_C 	C 	0.6284	0.9116	0.427	0.124
Mof_C 	C 	0.6885	0.8838	0.3374	0.034
Mof_C 	C 	0.6498	0.9691	0.3312	0.017
Mof_C 	C 	0.5351	0.3066	0.459	0.325
Mof_C 	C 	0.5173	0.4063	0.4801	-0.094
Mof_C 	C 	0.482	0.4703	0.4263	0.094
Mof_C 	C 	0.4656	0.5634	0.446	0.095
Mof_C 	C 	0.3017	0.5808	0.9147	0.333
Mof_C 	C 	0.4045	0.5372	0.9594	-0.093
Mof_C 	C 	0.4722	0.507	0.9247	0.092
Mof_C 	C 	0.5668	0.4692	0.9648	0.092
Mof_C 	C 	0.9791	0.3331	0.7654	0.325
Mof_C 	C 	0.9038	0.2465	0.7315	-0.095
Mof_C 	C 	0.815	0.2304	0.7511	0.107
Mof_C 	C 	0.7272	0.1618	0.7021	0.113
Mof_C 	C 	0.7316	0.1118	0.643	-0.09
Mof_C 	C 	0.8315	0.1234	0.6269	0.1
Mof_C 	C 	0.9223	0.1813	0.6805	0.104
Mof_C 	C 	0.6409	0.0438	0.5914	0.343
Mof_Br	Br	0.53743	0.57027	0.67378	-0.187
Mof_Br	Br	0.57841	0.3498	0.62642	-0.164
Mof_Br	Br	0.56472	0.48502	0.1798	-0.185
Mof_Br	Br	0.34089	0.57627	0.08401	-0.175
Mof_Br	Br	0.95519	0.7985	0.34525	-0.208
Mof_Br	Br	0.1562	0.9588	0.4513	-0.194
Mof_Br	Br	0.20794	0.68307	0.17968	-0.171
Mof_Br	Br	0.3964	0.8596	0.27071	-0.196
Mof_Br	Br	0.46257	0.42973	0.32622	-0.187
Mof_Br	Br	0.42159	0.6502	0.37358	-0.164
Mof_Br	Br	0.43528	0.51498	0.8202	-0.185
Mof_Br	Br	0.65911	0.42373	0.91599	-0.175
Mof_Br	Br	0.04481	0.2015	0.65475	-0.208
Mof_Br	Br	0.8438	0.0412	0.5487	-0.194
Mof_Br	Br	0.79206	0.31693	0.82032	-0.171
Mof_Br	Br	0.6036	0.1404	0.72929	-0.196
Mof_N 	N 	0.0172	0.433	0.1119	-0.129
Mof_N 	N 	0.1317	0.3722	0.0644	-0.142
Mof_N 	N 	0.3584	0.2742	0.9257	-0.147
Mof_N 	N 	0.33	0.2688	0.8039	-0.1
Mof_N 	N 	0.4604	0.2309	0.189	-0.14
Mof_N 	N 	0.5225	0.1682	0.2976	-0.132
Mof_N 	N 	0.0811	0.38	0.285	-0.132
Mof_N 	N 	0.1892	0.3423	0.3938	-0.142
Mof_N 	N 	0.2246	0.4717	0.6425	-0.139
Mof_N 	N 	0.1494	0.5375	0.717	-0.13
Mof_N 	N 	0.3237	0.1544	0.6032	-0.14
Mof_N 	N 	0.3885	0.0131	0.6105	-0.127
Mof_N 	N 	0.9828	0.567	0.8881	-0.129
Mof_N 	N 	0.8683	0.6278	0.9356	-0.142
Mof_N 	N 	0.6416	0.7258	0.0743	-0.147
Mof_N 	N 	0.67	0.7312	0.1961	-0.1
Mof_N 	N 	0.5396	0.7691	0.811	-0.14
Mof_N 	N 	0.4775	0.8318	0.7024	-0.132
Mof_N 	N 	0.9189	0.62	0.715	-0.132
Mof_N 	N 	0.8108	0.6577	0.6062	-0.142
Mof_N 	N 	0.7754	0.5283	0.3575	-0.139
Mof_N 	N 	0.8506	0.4625	0.283	-0.13
Mof_N 	N 	0.6763	0.8456	0.3968	-0.14
Mof_N 	N 	0.6115	0.9869	0.3895	-0.127
Mof_O 	O 	0.781	0.4726	0.1079	-0.263
Mof_O 	O 	0.6874	0.3321	0.0898	-0.233
Mof_O 	O 	0.0401	0.5959	0.2703	-0.246
Mof_O 	O 	0.9507	0.672	0.1721	-0.234
Mof_O 	O 	0.5437	0.7536	0.5607	-0.252
Mof_O 	O 	0.3737	0.7109	0.5388	-0.231
Mof_O 	O 	0.3673	0.0337	0.3869	-0.27
Mof_O 	O 	0.4078	0.9158	0.4661	-0.248
Mof_O 	O 	0.219	0.5274	0.8921	-0.263
Mof_O 	O 	0.3126	0.6679	0.9102	-0.233
Mof_O 	O 	0.9599	0.4041	0.7297	-0.246
Mof_O 	O 	0.0493	0.328	0.8279	-0.234
Mof_O 	O 	0.4563	0.2464	0.4393	-0.252
Mof_O 	O 	0.6263	0.2891	0.4612	-0.231
Mof_O 	O 	0.6327	0.9663	0.6131	-0.27
Mof_O 	O 	0.5922	0.0842	0.5339	-0.248
_end
