data_functionalizedCrystal
_audit_creation_method	'EQeq! by Chris Wilmer'
_symmetry_space_group_name_H-M	'P1'
_symmetry_Int_Tables_number	1
_symmetry_cell_setting	triclinic
loop_
_symmetry_equiv_pos_as_xyz
  x,y,z
_cell_length_a	7.892
_cell_length_b	9.272
_cell_length_c	11.942
_cell_angle_alpha	104.75
_cell_angle_beta	101.69
_cell_angle_gamma	107.92
loop_
_atom_site_label
_atom_site_type_symbol
_atom_site_fract_x
_atom_site_fract_y
_atom_site_fract_z
_atom_site_charge
Mof_Li	Li	0.4351	0.9351	0.6022	2.728
Mof_Li	Li	0.4739	0.928	0.103	3.076
Mof_Li	Li	0.5649	0.0649	0.3978	2.728
Mof_Li	Li	0.5261	0.072	0.897	3.076
Mof_Fe	Fe	0.79114	0.58605	0.77376	0.968
Mof_Fe	Fe	0.20886	0.41395	0.22624	0.968
Mof_C 	C 	0.5444	0.2704	0.7138	0.281
Mof_C 	C 	0.706	0.256	0.664	0.254
Mof_C 	C 	0.1624	0.8002	0.8987	0.467
Mof_C 	C 	0.0918	0.7268	0.9906	0.173
Mof_C 	C 	0.615	0.8022	0.7508	0.483
Mof_C 	C 	0.6215	0.722	0.6226	0.169
Mof_C 	C 	0.4556	0.7296	0.2862	0.281
Mof_C 	C 	0.294	0.744	0.336	0.254
Mof_C 	C 	0.8376	0.1998	0.1013	0.467
Mof_C 	C 	0.9082	0.2732	0.0094	0.173
Mof_C 	C 	0.385	0.1978	0.2492	0.483
Mof_C 	C 	0.3785	0.278	0.3774	0.169
Mof_O 	O 	0.5607	0.4132	0.7678	-0.432
Mof_O 	O 	0.8426	0.3904	0.6904	-0.406
Mof_O 	O 	0.4145	0.1454	0.6991	-0.985
Mof_O 	O 	0.6933	0.1218	0.6035	-0.967
Mof_O 	O 	0.0478	0.7407	0.7909	-0.504
Mof_O 	O 	0.9204	0.6265	0.9484	-0.366
Mof_O 	O 	0.318	0.9074	0.9333	-1.347
Mof_O 	O 	0.1979	0.7675	0.0928	-0.697
Mof_O 	O 	0.6892	0.7561	0.8334	-0.517
Mof_O 	O 	0.7013	0.6197	0.6166	-0.361
Mof_O 	O 	0.5426	0.9027	0.7641	-1.348
Mof_O 	O 	0.5538	0.7607	0.5388	-0.669
Mof_O 	O 	0.4393	0.5868	0.2322	-0.432
Mof_O 	O 	0.1574	0.6096	0.3096	-0.406
Mof_O 	O 	0.5855	0.8546	0.3009	-0.985
Mof_O 	O 	0.3067	0.8782	0.3965	-0.967
Mof_O 	O 	0.9522	0.2593	0.2091	-0.504
Mof_O 	O 	0.0796	0.3735	0.0516	-0.366
Mof_O 	O 	0.682	0.0926	0.0667	-1.347
Mof_O 	O 	0.8021	0.2325	0.9072	-0.697
Mof_O 	O 	0.3108	0.2439	0.1666	-0.517
Mof_O 	O 	0.2987	0.3803	0.3834	-0.361
Mof_O 	O 	0.4574	0.0973	0.2359	-1.348
Mof_O 	O 	0.4462	0.2393	0.4612	-0.669
_end
