data_functionalizedCrystal
_audit_creation_method	'EQeq! by Chris Wilmer'
_symmetry_space_group_name_H-M	'P1'
_symmetry_Int_Tables_number	1
_symmetry_cell_setting	triclinic
loop_
_symmetry_equiv_pos_as_xyz
  x,y,z
_cell_length_a	14.6248
_cell_length_b	25.9012
_cell_length_c	36.3162
_cell_angle_alpha	90
_cell_angle_beta	90
_cell_angle_gamma	90
loop_
_atom_site_label
_atom_site_type_symbol
_atom_site_fract_x
_atom_site_fract_y
_atom_site_fract_z
_atom_site_charge
Mof_Ag	Ag	0.93297	0.65843	0.09211	0.547
Mof_O 	O 	0.93358	0.58393	0.06138	-0.356
Mof_O 	O 	0.89684	0.53766	0.11132	-0.364
Mof_O 	O 	0.71205	0.37594	0.09207	-0.269
Mof_O 	O 	0.7186	0.34088	0.03576	-0.585
Mof_H 	H 	0.6891	0.3182	0.0424	0.396
Mof_O 	O 	0.841	0.43008	0.93134	-0.407
Mof_O 	O 	0.89601	0.51011	0.93546	-0.302
Mof_C 	C 	0.86973	0.50104	0.05206	-0.105
Mof_C 	C 	0.8201	0.45989	0.06699	0.063
Mof_H 	H 	0.809	0.4582	0.0922	0.039
Mof_C 	C 	0.78741	0.42143	0.04349	-0.129
Mof_C 	C 	0.8028	0.42435	0.00543	0.072
Mof_H 	H 	0.7811	0.3985	0.99	0.045
Mof_C 	C 	0.85066	0.46598	0.99077	-0.117
Mof_C 	C 	0.8844	0.50412	0.01431	0.051
Mof_H 	H 	0.917	0.5318	0.0046	0.044
Mof_C 	C 	0.90385	0.54419	0.07614	0.337
Mof_C 	C 	0.7356	0.37745	0.0597	0.434
Mof_C 	C 	0.86386	0.46951	0.94985	0.343
Mof_Ag	Ag	0.93297	0.15843	0.59211	0.546
Mof_O 	O 	0.93358	0.08393	0.56138	-0.357
Mof_O 	O 	0.89684	0.03766	0.61132	-0.365
Mof_O 	O 	0.71205	0.87594	0.59207	-0.27
Mof_O 	O 	0.7186	0.84088	0.53576	-0.586
Mof_H 	H 	0.6891	0.8182	0.5424	0.395
Mof_O 	O 	0.841	0.93008	0.43134	-0.408
Mof_O 	O 	0.89601	0.01011	0.43546	-0.303
Mof_C 	C 	0.86973	0.00104	0.55206	-0.106
Mof_C 	C 	0.8201	0.95989	0.56699	0.061
Mof_H 	H 	0.809	0.9582	0.5922	0.038
Mof_C 	C 	0.78741	0.92143	0.54349	-0.13
Mof_C 	C 	0.8028	0.92435	0.50543	0.071
Mof_H 	H 	0.7811	0.8985	0.49	0.044
Mof_C 	C 	0.85066	0.96598	0.49077	-0.117
Mof_C 	C 	0.8844	0.00412	0.51431	0.052
Mof_H 	H 	0.917	0.0318	0.5046	0.044
Mof_C 	C 	0.90385	0.04419	0.57614	0.337
Mof_C 	C 	0.7356	0.87745	0.5597	0.434
Mof_C 	C 	0.86386	0.96951	0.44985	0.343
Mof_Ag	Ag	0.43297	0.65843	0.59211	0.546
Mof_O 	O 	0.43358	0.58393	0.56138	-0.357
Mof_O 	O 	0.39684	0.53766	0.61132	-0.365
Mof_O 	O 	0.21205	0.37594	0.59207	-0.27
Mof_O 	O 	0.2186	0.34088	0.53576	-0.586
Mof_H 	H 	0.1891	0.3182	0.5424	0.395
Mof_O 	O 	0.341	0.43008	0.43134	-0.408
Mof_O 	O 	0.39601	0.51011	0.43546	-0.303
Mof_C 	C 	0.36973	0.50104	0.55206	-0.107
Mof_C 	C 	0.3201	0.45989	0.56699	0.062
Mof_H 	H 	0.309	0.4582	0.5922	0.038
Mof_C 	C 	0.28741	0.42143	0.54349	-0.13
Mof_C 	C 	0.3028	0.42435	0.50543	0.071
Mof_H 	H 	0.2811	0.3985	0.49	0.044
Mof_C 	C 	0.35066	0.46598	0.49077	-0.117
Mof_C 	C 	0.3844	0.50412	0.51431	0.052
Mof_H 	H 	0.417	0.5318	0.5046	0.044
Mof_C 	C 	0.40385	0.54419	0.57614	0.337
Mof_C 	C 	0.2356	0.37745	0.5597	0.434
Mof_C 	C 	0.36386	0.46951	0.44985	0.343
Mof_Ag	Ag	0.43297	0.15843	0.09211	0.546
Mof_O 	O 	0.43358	0.08393	0.06138	-0.357
Mof_O 	O 	0.39684	0.03766	0.11132	-0.365
Mof_O 	O 	0.21205	0.87594	0.09207	-0.27
Mof_O 	O 	0.2186	0.84088	0.03576	-0.586
Mof_H 	H 	0.1891	0.8182	0.0424	0.395
Mof_O 	O 	0.341	0.93008	0.93134	-0.408
Mof_O 	O 	0.39601	0.01011	0.93546	-0.303
Mof_C 	C 	0.36973	0.00104	0.05206	-0.107
Mof_C 	C 	0.3201	0.95989	0.06699	0.063
Mof_H 	H 	0.309	0.9582	0.0922	0.038
Mof_C 	C 	0.28741	0.92143	0.04349	-0.13
Mof_C 	C 	0.3028	0.92435	0.00543	0.072
Mof_H 	H 	0.2811	0.8985	0.99	0.043
Mof_C 	C 	0.35066	0.96598	0.99077	-0.118
Mof_C 	C 	0.3844	0.00412	0.01431	0.052
Mof_H 	H 	0.417	0.0318	0.0046	0.044
Mof_C 	C 	0.40385	0.04419	0.07614	0.337
Mof_C 	C 	0.2356	0.87745	0.0597	0.434
Mof_C 	C 	0.36386	0.96951	0.94985	0.343
Mof_Ag	Ag	0.81703	0.09157	0.09211	0.546
Mof_O 	O 	0.81642	0.16607	0.06138	-0.357
Mof_O 	O 	0.85316	0.21234	0.11132	-0.365
Mof_O 	O 	0.03795	0.37406	0.09207	-0.27
Mof_O 	O 	0.0314	0.40912	0.03576	-0.586
Mof_H 	H 	0.0609	0.4318	0.0424	0.395
Mof_O 	O 	0.909	0.31992	0.93134	-0.408
Mof_O 	O 	0.85399	0.23989	0.93546	-0.303
Mof_C 	C 	0.88027	0.24896	0.05206	-0.106
Mof_C 	C 	0.9299	0.29011	0.06699	0.061
Mof_H 	H 	0.941	0.2918	0.0922	0.038
Mof_C 	C 	0.96259	0.32857	0.04349	-0.129
Mof_C 	C 	0.9472	0.32565	0.00543	0.07
Mof_H 	H 	0.9689	0.3515	0.99	0.044
Mof_C 	C 	0.89934	0.28402	0.99077	-0.116
Mof_C 	C 	0.8656	0.24588	0.01431	0.051
Mof_H 	H 	0.833	0.2182	0.0046	0.044
Mof_C 	C 	0.84615	0.20581	0.07614	0.337
Mof_C 	C 	0.0144	0.37255	0.0597	0.434
Mof_C 	C 	0.88614	0.28049	0.94985	0.343
Mof_Ag	Ag	0.81703	0.59157	0.59211	0.546
Mof_O 	O 	0.81642	0.66607	0.56138	-0.357
Mof_O 	O 	0.85316	0.71234	0.61132	-0.365
Mof_O 	O 	0.03795	0.87406	0.59207	-0.27
Mof_O 	O 	0.0314	0.90912	0.53576	-0.586
Mof_H 	H 	0.0609	0.9318	0.5424	0.395
Mof_O 	O 	0.909	0.81992	0.43134	-0.408
Mof_O 	O 	0.85399	0.73989	0.43546	-0.303
Mof_C 	C 	0.88027	0.74896	0.55206	-0.107
Mof_C 	C 	0.9299	0.79011	0.56699	0.062
Mof_H 	H 	0.941	0.7918	0.5922	0.038
Mof_C 	C 	0.96259	0.82857	0.54349	-0.13
Mof_C 	C 	0.9472	0.82565	0.50543	0.072
Mof_H 	H 	0.9689	0.8515	0.49	0.044
Mof_C 	C 	0.89934	0.78402	0.49077	-0.117
Mof_C 	C 	0.8656	0.74588	0.51431	0.052
Mof_H 	H 	0.833	0.7182	0.5046	0.044
Mof_C 	C 	0.84615	0.70581	0.57614	0.337
Mof_C 	C 	0.0144	0.87255	0.5597	0.434
Mof_C 	C 	0.88614	0.78049	0.44985	0.343
Mof_Ag	Ag	0.31703	0.09157	0.59211	0.546
Mof_O 	O 	0.31642	0.16607	0.56138	-0.357
Mof_O 	O 	0.35316	0.21234	0.61132	-0.365
Mof_O 	O 	0.53795	0.37406	0.59207	-0.27
Mof_O 	O 	0.5314	0.40912	0.53576	-0.586
Mof_H 	H 	0.5609	0.4318	0.5424	0.395
Mof_O 	O 	0.409	0.31992	0.43134	-0.408
Mof_O 	O 	0.35399	0.23989	0.43546	-0.303
Mof_C 	C 	0.38027	0.24896	0.55206	-0.107
Mof_C 	C 	0.4299	0.29011	0.56699	0.062
Mof_H 	H 	0.441	0.2918	0.5922	0.038
Mof_C 	C 	0.46259	0.32857	0.54349	-0.13
Mof_C 	C 	0.4472	0.32565	0.50543	0.071
Mof_H 	H 	0.4689	0.3515	0.49	0.044
Mof_C 	C 	0.39934	0.28402	0.49077	-0.117
Mof_C 	C 	0.3656	0.24588	0.51431	0.052
Mof_H 	H 	0.333	0.2182	0.5046	0.044
Mof_C 	C 	0.34615	0.20581	0.57614	0.337
Mof_C 	C 	0.5144	0.37255	0.5597	0.434
Mof_C 	C 	0.38614	0.28049	0.44985	0.343
Mof_Ag	Ag	0.31703	0.59157	0.09211	0.546
Mof_O 	O 	0.31642	0.66607	0.06138	-0.357
Mof_O 	O 	0.35316	0.71234	0.11132	-0.365
Mof_O 	O 	0.53795	0.87406	0.09207	-0.27
Mof_O 	O 	0.5314	0.90912	0.03576	-0.586
Mof_H 	H 	0.5609	0.9318	0.0424	0.395
Mof_O 	O 	0.409	0.81992	0.93134	-0.408
Mof_O 	O 	0.35399	0.73989	0.93546	-0.303
Mof_C 	C 	0.38027	0.74896	0.05206	-0.107
Mof_C 	C 	0.4299	0.79011	0.06699	0.062
Mof_H 	H 	0.441	0.7918	0.0922	0.038
Mof_C 	C 	0.46259	0.82857	0.04349	-0.13
Mof_C 	C 	0.4472	0.82565	0.00543	0.072
Mof_H 	H 	0.4689	0.8515	0.99	0.043
Mof_C 	C 	0.39934	0.78402	0.99077	-0.118
Mof_C 	C 	0.3656	0.74588	0.01431	0.052
Mof_H 	H 	0.333	0.7182	0.0046	0.044
Mof_C 	C 	0.34615	0.70581	0.07614	0.337
Mof_C 	C 	0.5144	0.87255	0.0597	0.434
Mof_C 	C 	0.38614	0.78049	0.94985	0.343
Mof_Ag	Ag	0.81703	0.65843	0.65789	0.546
Mof_O 	O 	0.81642	0.58393	0.68862	-0.357
Mof_O 	O 	0.85316	0.53766	0.63868	-0.365
Mof_O 	O 	0.03795	0.37594	0.65793	-0.27
Mof_O 	O 	0.0314	0.34088	0.71424	-0.586
Mof_H 	H 	0.0609	0.3182	0.7076	0.395
Mof_O 	O 	0.909	0.43008	0.81866	-0.408
Mof_O 	O 	0.85399	0.51011	0.81454	-0.303
Mof_C 	C 	0.88027	0.50104	0.69794	-0.106
Mof_C 	C 	0.9299	0.45989	0.68301	0.062
Mof_H 	H 	0.941	0.4582	0.6578	0.038
Mof_C 	C 	0.96259	0.42143	0.70651	-0.13
Mof_C 	C 	0.9472	0.42435	0.74457	0.071
Mof_H 	H 	0.9689	0.3985	0.76	0.044
Mof_C 	C 	0.89934	0.46598	0.75923	-0.117
Mof_C 	C 	0.8656	0.50412	0.73569	0.052
Mof_H 	H 	0.833	0.5318	0.7454	0.044
Mof_C 	C 	0.84615	0.54419	0.67386	0.337
Mof_C 	C 	0.0144	0.37745	0.6903	0.434
Mof_C 	C 	0.88614	0.46951	0.80015	0.343
Mof_Ag	Ag	0.81703	0.15843	0.15789	0.546
Mof_O 	O 	0.81642	0.08393	0.18862	-0.357
Mof_O 	O 	0.85316	0.03766	0.13868	-0.365
Mof_O 	O 	0.03795	0.87594	0.15793	-0.27
Mof_O 	O 	0.0314	0.84088	0.21424	-0.586
Mof_H 	H 	0.0609	0.8182	0.2076	0.395
Mof_O 	O 	0.909	0.93008	0.31866	-0.408
Mof_O 	O 	0.85399	0.01011	0.31454	-0.303
Mof_C 	C 	0.88027	0.00104	0.19794	-0.107
Mof_C 	C 	0.9299	0.95989	0.18301	0.062
Mof_H 	H 	0.941	0.9582	0.1578	0.038
Mof_C 	C 	0.96259	0.92143	0.20651	-0.13
Mof_C 	C 	0.9472	0.92435	0.24457	0.072
Mof_H 	H 	0.9689	0.8985	0.26	0.044
Mof_C 	C 	0.89934	0.96598	0.25923	-0.118
Mof_C 	C 	0.8656	0.00412	0.23569	0.052
Mof_H 	H 	0.833	0.0318	0.2454	0.044
Mof_C 	C 	0.84615	0.04419	0.17386	0.337
Mof_C 	C 	0.0144	0.87745	0.1903	0.434
Mof_C 	C 	0.88614	0.96951	0.30015	0.343
Mof_Ag	Ag	0.31703	0.65843	0.15789	0.546
Mof_O 	O 	0.31642	0.58393	0.18862	-0.357
Mof_O 	O 	0.35316	0.53766	0.13868	-0.365
Mof_O 	O 	0.53795	0.37594	0.15793	-0.27
Mof_O 	O 	0.5314	0.34088	0.21424	-0.586
Mof_H 	H 	0.5609	0.3182	0.2076	0.395
Mof_O 	O 	0.409	0.43008	0.31866	-0.408
Mof_O 	O 	0.35399	0.51011	0.31454	-0.303
Mof_C 	C 	0.38027	0.50104	0.19794	-0.107
Mof_C 	C 	0.4299	0.45989	0.18301	0.062
Mof_H 	H 	0.441	0.4582	0.1578	0.038
Mof_C 	C 	0.46259	0.42143	0.20651	-0.13
Mof_C 	C 	0.4472	0.42435	0.24457	0.071
Mof_H 	H 	0.4689	0.3985	0.26	0.044
Mof_C 	C 	0.39934	0.46598	0.25923	-0.117
Mof_C 	C 	0.3656	0.50412	0.23569	0.052
Mof_H 	H 	0.333	0.5318	0.2454	0.044
Mof_C 	C 	0.34615	0.54419	0.17386	0.337
Mof_C 	C 	0.5144	0.37745	0.1903	0.434
Mof_C 	C 	0.38614	0.46951	0.30015	0.343
Mof_Ag	Ag	0.31703	0.15843	0.65789	0.546
Mof_O 	O 	0.31642	0.08393	0.68862	-0.357
Mof_O 	O 	0.35316	0.03766	0.63868	-0.365
Mof_O 	O 	0.53795	0.87594	0.65793	-0.27
Mof_O 	O 	0.5314	0.84088	0.71424	-0.586
Mof_H 	H 	0.5609	0.8182	0.7076	0.395
Mof_O 	O 	0.409	0.93008	0.81866	-0.408
Mof_O 	O 	0.35399	0.01011	0.81454	-0.303
Mof_C 	C 	0.38027	0.00104	0.69794	-0.107
Mof_C 	C 	0.4299	0.95989	0.68301	0.062
Mof_H 	H 	0.441	0.9582	0.6578	0.038
Mof_C 	C 	0.46259	0.92143	0.70651	-0.13
Mof_C 	C 	0.4472	0.92435	0.74457	0.071
Mof_H 	H 	0.4689	0.8985	0.76	0.044
Mof_C 	C 	0.39934	0.96598	0.75923	-0.117
Mof_C 	C 	0.3656	0.00412	0.73569	0.052
Mof_H 	H 	0.333	0.0318	0.7454	0.044
Mof_C 	C 	0.34615	0.04419	0.67386	0.337
Mof_C 	C 	0.5144	0.87745	0.6903	0.434
Mof_C 	C 	0.38614	0.96951	0.80015	0.343
Mof_Ag	Ag	0.93297	0.09157	0.65789	0.546
Mof_O 	O 	0.93358	0.16607	0.68862	-0.357
Mof_O 	O 	0.89684	0.21234	0.63868	-0.365
Mof_O 	O 	0.71205	0.37406	0.65793	-0.27
Mof_O 	O 	0.7186	0.40912	0.71424	-0.586
Mof_H 	H 	0.6891	0.4318	0.7076	0.395
Mof_O 	O 	0.841	0.31992	0.81866	-0.408
Mof_O 	O 	0.89601	0.23989	0.81454	-0.303
Mof_C 	C 	0.86973	0.24896	0.69794	-0.106
Mof_C 	C 	0.8201	0.29011	0.68301	0.062
Mof_H 	H 	0.809	0.2918	0.6578	0.038
Mof_C 	C 	0.78741	0.32857	0.70651	-0.13
Mof_C 	C 	0.8028	0.32565	0.74457	0.071
Mof_H 	H 	0.7811	0.3515	0.76	0.044
Mof_C 	C 	0.85066	0.28402	0.75923	-0.117
Mof_C 	C 	0.8844	0.24588	0.73569	0.052
Mof_H 	H 	0.917	0.2182	0.7454	0.044
Mof_C 	C 	0.90385	0.20581	0.67386	0.337
Mof_C 	C 	0.7356	0.37255	0.6903	0.434
Mof_C 	C 	0.86386	0.28049	0.80015	0.343
Mof_Ag	Ag	0.93297	0.59157	0.15789	0.546
Mof_O 	O 	0.93358	0.66607	0.18862	-0.357
Mof_O 	O 	0.89684	0.71234	0.13868	-0.365
Mof_O 	O 	0.71205	0.87406	0.15793	-0.27
Mof_O 	O 	0.7186	0.90912	0.21424	-0.586
Mof_H 	H 	0.6891	0.9318	0.2076	0.395
Mof_O 	O 	0.841	0.81992	0.31866	-0.408
Mof_O 	O 	0.89601	0.73989	0.31454	-0.303
Mof_C 	C 	0.86973	0.74896	0.19794	-0.107
Mof_C 	C 	0.8201	0.79011	0.18301	0.062
Mof_H 	H 	0.809	0.7918	0.1578	0.038
Mof_C 	C 	0.78741	0.82857	0.20651	-0.13
Mof_C 	C 	0.8028	0.82565	0.24457	0.071
Mof_H 	H 	0.7811	0.8515	0.26	0.044
Mof_C 	C 	0.85066	0.78402	0.25923	-0.117
Mof_C 	C 	0.8844	0.74588	0.23569	0.052
Mof_H 	H 	0.917	0.7182	0.2454	0.044
Mof_C 	C 	0.90385	0.70581	0.17386	0.337
Mof_C 	C 	0.7356	0.87255	0.1903	0.434
Mof_C 	C 	0.86386	0.78049	0.30015	0.343
Mof_Ag	Ag	0.43297	0.09157	0.15789	0.546
Mof_O 	O 	0.43358	0.16607	0.18862	-0.357
Mof_O 	O 	0.39684	0.21234	0.13868	-0.365
Mof_O 	O 	0.21205	0.37406	0.15793	-0.27
Mof_O 	O 	0.2186	0.40912	0.21424	-0.586
Mof_H 	H 	0.1891	0.4318	0.2076	0.395
Mof_O 	O 	0.341	0.31992	0.31866	-0.408
Mof_O 	O 	0.39601	0.23989	0.31454	-0.303
Mof_C 	C 	0.36973	0.24896	0.19794	-0.107
Mof_C 	C 	0.3201	0.29011	0.18301	0.062
Mof_H 	H 	0.309	0.2918	0.1578	0.038
Mof_C 	C 	0.28741	0.32857	0.20651	-0.13
Mof_C 	C 	0.3028	0.32565	0.24457	0.071
Mof_H 	H 	0.2811	0.3515	0.26	0.044
Mof_C 	C 	0.35066	0.28402	0.25923	-0.117
Mof_C 	C 	0.3844	0.24588	0.23569	0.052
Mof_H 	H 	0.417	0.2182	0.2454	0.044
Mof_C 	C 	0.40385	0.20581	0.17386	0.337
Mof_C 	C 	0.2356	0.37255	0.1903	0.434
Mof_C 	C 	0.36386	0.28049	0.30015	0.343
Mof_Ag	Ag	0.43297	0.59157	0.65789	0.546
Mof_O 	O 	0.43358	0.66607	0.68862	-0.357
Mof_O 	O 	0.39684	0.71234	0.63868	-0.365
Mof_O 	O 	0.21205	0.87406	0.65793	-0.27
Mof_O 	O 	0.2186	0.90912	0.71424	-0.586
Mof_H 	H 	0.1891	0.9318	0.7076	0.395
Mof_O 	O 	0.341	0.81992	0.81866	-0.408
Mof_O 	O 	0.39601	0.73989	0.81454	-0.303
Mof_C 	C 	0.36973	0.74896	0.69794	-0.107
Mof_C 	C 	0.3201	0.79011	0.68301	0.062
Mof_H 	H 	0.309	0.7918	0.6578	0.038
Mof_C 	C 	0.28741	0.82857	0.70651	-0.13
Mof_C 	C 	0.3028	0.82565	0.74457	0.071
Mof_H 	H 	0.2811	0.8515	0.76	0.044
Mof_C 	C 	0.35066	0.78402	0.75923	-0.117
Mof_C 	C 	0.3844	0.74588	0.73569	0.052
Mof_H 	H 	0.417	0.7182	0.7454	0.044
Mof_C 	C 	0.40385	0.70581	0.67386	0.337
Mof_C 	C 	0.2356	0.87255	0.6903	0.434
Mof_C 	C 	0.36386	0.78049	0.80015	0.343
Mof_Ag	Ag	0.06703	0.34157	0.90789	0.546
Mof_O 	O 	0.06642	0.41607	0.93862	-0.357
Mof_O 	O 	0.10316	0.46234	0.88868	-0.365
Mof_O 	O 	0.28795	0.62406	0.90793	-0.27
Mof_O 	O 	0.2814	0.65912	0.96424	-0.586
Mof_H 	H 	0.3109	0.6818	0.9576	0.395
Mof_O 	O 	0.159	0.56992	0.06866	-0.408
Mof_O 	O 	0.10399	0.48989	0.06454	-0.303
Mof_C 	C 	0.13027	0.49896	0.94794	-0.106
Mof_C 	C 	0.1799	0.54011	0.93301	0.062
Mof_H 	H 	0.191	0.5418	0.9078	0.038
Mof_C 	C 	0.21259	0.57857	0.95651	-0.13
Mof_C 	C 	0.1972	0.57565	0.99457	0.071
Mof_H 	H 	0.2189	0.6015	0.01	0.044
Mof_C 	C 	0.14934	0.53402	0.00923	-0.117
Mof_C 	C 	0.1156	0.49588	0.98569	0.051
Mof_H 	H 	0.083	0.4682	0.9954	0.044
Mof_C 	C 	0.09615	0.45581	0.92386	0.337
Mof_C 	C 	0.2644	0.62255	0.9403	0.434
Mof_C 	C 	0.13614	0.53049	0.05015	0.343
Mof_Ag	Ag	0.06703	0.84157	0.40789	0.546
Mof_O 	O 	0.06642	0.91607	0.43862	-0.357
Mof_O 	O 	0.10316	0.96234	0.38868	-0.365
Mof_O 	O 	0.28795	0.12406	0.40793	-0.27
Mof_O 	O 	0.2814	0.15912	0.46424	-0.586
Mof_H 	H 	0.3109	0.1818	0.4576	0.395
Mof_O 	O 	0.159	0.06992	0.56866	-0.408
Mof_O 	O 	0.10399	0.98989	0.56454	-0.303
Mof_C 	C 	0.13027	0.99896	0.44794	-0.106
Mof_C 	C 	0.1799	0.04011	0.43301	0.061
Mof_H 	H 	0.191	0.0418	0.4078	0.038
Mof_C 	C 	0.21259	0.07857	0.45651	-0.13
Mof_C 	C 	0.1972	0.07565	0.49457	0.071
Mof_H 	H 	0.2189	0.1015	0.51	0.044
Mof_C 	C 	0.14934	0.03402	0.50923	-0.117
Mof_C 	C 	0.1156	0.99588	0.48569	0.052
Mof_H 	H 	0.083	0.9682	0.4954	0.044
Mof_C 	C 	0.09615	0.95581	0.42386	0.337
Mof_C 	C 	0.2644	0.12255	0.4403	0.434
Mof_C 	C 	0.13614	0.03049	0.55015	0.343
Mof_Ag	Ag	0.56703	0.34157	0.40789	0.546
Mof_O 	O 	0.56642	0.41607	0.43862	-0.357
Mof_O 	O 	0.60316	0.46234	0.38868	-0.365
Mof_O 	O 	0.78795	0.62406	0.40793	-0.27
Mof_O 	O 	0.7814	0.65912	0.46424	-0.586
Mof_H 	H 	0.8109	0.6818	0.4576	0.395
Mof_O 	O 	0.659	0.56992	0.56866	-0.408
Mof_O 	O 	0.60399	0.48989	0.56454	-0.303
Mof_C 	C 	0.63027	0.49896	0.44794	-0.107
Mof_C 	C 	0.6799	0.54011	0.43301	0.062
Mof_H 	H 	0.691	0.5418	0.4078	0.038
Mof_C 	C 	0.71259	0.57857	0.45651	-0.13
Mof_C 	C 	0.6972	0.57565	0.49457	0.071
Mof_H 	H 	0.7189	0.6015	0.51	0.044
Mof_C 	C 	0.64934	0.53402	0.50923	-0.117
Mof_C 	C 	0.6156	0.49588	0.48569	0.052
Mof_H 	H 	0.583	0.4682	0.4954	0.044
Mof_C 	C 	0.59615	0.45581	0.42386	0.337
Mof_C 	C 	0.7644	0.62255	0.4403	0.434
Mof_C 	C 	0.63614	0.53049	0.55015	0.343
Mof_Ag	Ag	0.56703	0.84157	0.90789	0.546
Mof_O 	O 	0.56642	0.91607	0.93862	-0.357
Mof_O 	O 	0.60316	0.96234	0.88868	-0.365
Mof_O 	O 	0.78795	0.12406	0.90793	-0.27
Mof_O 	O 	0.7814	0.15912	0.96424	-0.586
Mof_H 	H 	0.8109	0.1818	0.9576	0.395
Mof_O 	O 	0.659	0.06992	0.06866	-0.408
Mof_O 	O 	0.60399	0.98989	0.06454	-0.303
Mof_C 	C 	0.63027	0.99896	0.94794	-0.107
Mof_C 	C 	0.6799	0.04011	0.93301	0.063
Mof_H 	H 	0.691	0.0418	0.9078	0.038
Mof_C 	C 	0.71259	0.07857	0.95651	-0.13
Mof_C 	C 	0.6972	0.07565	0.99457	0.072
Mof_H 	H 	0.7189	0.1015	0.01	0.043
Mof_C 	C 	0.64934	0.03402	0.00923	-0.118
Mof_C 	C 	0.6156	0.99588	0.98569	0.052
Mof_H 	H 	0.583	0.9682	0.9954	0.044
Mof_C 	C 	0.59615	0.95581	0.92386	0.337
Mof_C 	C 	0.7644	0.12255	0.9403	0.434
Mof_C 	C 	0.63614	0.03049	0.05015	0.343
Mof_Ag	Ag	0.18297	0.90843	0.90789	0.546
Mof_O 	O 	0.18358	0.83393	0.93862	-0.357
Mof_O 	O 	0.14684	0.78766	0.88868	-0.365
Mof_O 	O 	0.96205	0.62594	0.90793	-0.27
Mof_O 	O 	0.9686	0.59088	0.96424	-0.586
Mof_H 	H 	0.9391	0.5682	0.9576	0.395
Mof_O 	O 	0.091	0.68008	0.06866	-0.408
Mof_O 	O 	0.14601	0.76011	0.06454	-0.303
Mof_C 	C 	0.11973	0.75104	0.94794	-0.106
Mof_C 	C 	0.0701	0.70989	0.93301	0.061
Mof_H 	H 	0.059	0.7082	0.9078	0.038
Mof_C 	C 	0.03741	0.67143	0.95651	-0.129
Mof_C 	C 	0.0528	0.67435	0.99457	0.07
Mof_H 	H 	0.0311	0.6485	0.01	0.044
Mof_C 	C 	0.10066	0.71598	0.00923	-0.116
Mof_C 	C 	0.1344	0.75412	0.98569	0.051
Mof_H 	H 	0.167	0.7818	0.9954	0.044
Mof_C 	C 	0.15385	0.79419	0.92386	0.337
Mof_C 	C 	0.9856	0.62745	0.9403	0.434
Mof_C 	C 	0.11386	0.71951	0.05015	0.343
Mof_Ag	Ag	0.18297	0.40843	0.40789	0.546
Mof_O 	O 	0.18358	0.33393	0.43862	-0.357
Mof_O 	O 	0.14684	0.28766	0.38868	-0.365
Mof_O 	O 	0.96205	0.12594	0.40793	-0.27
Mof_O 	O 	0.9686	0.09088	0.46424	-0.586
Mof_H 	H 	0.9391	0.0682	0.4576	0.395
Mof_O 	O 	0.091	0.18008	0.56866	-0.408
Mof_O 	O 	0.14601	0.26011	0.56454	-0.303
Mof_C 	C 	0.11973	0.25104	0.44794	-0.107
Mof_C 	C 	0.0701	0.20989	0.43301	0.062
Mof_H 	H 	0.059	0.2082	0.4078	0.038
Mof_C 	C 	0.03741	0.17143	0.45651	-0.13
Mof_C 	C 	0.0528	0.17435	0.49457	0.072
Mof_H 	H 	0.0311	0.1485	0.51	0.044
Mof_C 	C 	0.10066	0.21598	0.50923	-0.117
Mof_C 	C 	0.1344	0.25412	0.48569	0.052
Mof_H 	H 	0.167	0.2818	0.4954	0.044
Mof_C 	C 	0.15385	0.29419	0.42386	0.337
Mof_C 	C 	0.9856	0.12745	0.4403	0.434
Mof_C 	C 	0.11386	0.21951	0.55015	0.343
Mof_Ag	Ag	0.68297	0.90843	0.40789	0.546
Mof_O 	O 	0.68358	0.83393	0.43862	-0.357
Mof_O 	O 	0.64684	0.78766	0.38868	-0.365
Mof_O 	O 	0.46205	0.62594	0.40793	-0.27
Mof_O 	O 	0.4686	0.59088	0.46424	-0.586
Mof_H 	H 	0.4391	0.5682	0.4576	0.395
Mof_O 	O 	0.591	0.68008	0.56866	-0.408
Mof_O 	O 	0.64601	0.76011	0.56454	-0.303
Mof_C 	C 	0.61973	0.75104	0.44794	-0.107
Mof_C 	C 	0.5701	0.70989	0.43301	0.062
Mof_H 	H 	0.559	0.7082	0.4078	0.038
Mof_C 	C 	0.53741	0.67143	0.45651	-0.13
Mof_C 	C 	0.5528	0.67435	0.49457	0.071
Mof_H 	H 	0.5311	0.6485	0.51	0.044
Mof_C 	C 	0.60066	0.71598	0.50923	-0.117
Mof_C 	C 	0.6344	0.75412	0.48569	0.052
Mof_H 	H 	0.667	0.7818	0.4954	0.044
Mof_C 	C 	0.65385	0.79419	0.42386	0.337
Mof_C 	C 	0.4856	0.62745	0.4403	0.434
Mof_C 	C 	0.61386	0.71951	0.55015	0.343
Mof_Ag	Ag	0.68297	0.40843	0.90789	0.546
Mof_O 	O 	0.68358	0.33393	0.93862	-0.357
Mof_O 	O 	0.64684	0.28766	0.88868	-0.365
Mof_O 	O 	0.46205	0.12594	0.90793	-0.27
Mof_O 	O 	0.4686	0.09088	0.96424	-0.586
Mof_H 	H 	0.4391	0.0682	0.9576	0.395
Mof_O 	O 	0.591	0.18008	0.06866	-0.408
Mof_O 	O 	0.64601	0.26011	0.06454	-0.303
Mof_C 	C 	0.61973	0.25104	0.94794	-0.107
Mof_C 	C 	0.5701	0.20989	0.93301	0.062
Mof_H 	H 	0.559	0.2082	0.9078	0.038
Mof_C 	C 	0.53741	0.17143	0.95651	-0.13
Mof_C 	C 	0.5528	0.17435	0.99457	0.072
Mof_H 	H 	0.5311	0.1485	0.01	0.043
Mof_C 	C 	0.60066	0.21598	0.00923	-0.118
Mof_C 	C 	0.6344	0.25412	0.98569	0.052
Mof_H 	H 	0.667	0.2818	0.9954	0.044
Mof_C 	C 	0.65385	0.29419	0.92386	0.337
Mof_C 	C 	0.4856	0.12745	0.9403	0.434
Mof_C 	C 	0.61386	0.21951	0.05015	0.343
Mof_Ag	Ag	0.18297	0.34157	0.34211	0.546
Mof_O 	O 	0.18358	0.41607	0.31138	-0.357
Mof_O 	O 	0.14684	0.46234	0.36132	-0.365
Mof_O 	O 	0.96205	0.62406	0.34207	-0.27
Mof_O 	O 	0.9686	0.65912	0.28576	-0.586
Mof_H 	H 	0.9391	0.6818	0.2924	0.395
Mof_O 	O 	0.091	0.56992	0.18134	-0.408
Mof_O 	O 	0.14601	0.48989	0.18546	-0.303
Mof_C 	C 	0.11973	0.49896	0.30206	-0.106
Mof_C 	C 	0.0701	0.54011	0.31699	0.062
Mof_H 	H 	0.059	0.5418	0.3422	0.038
Mof_C 	C 	0.03741	0.57857	0.29349	-0.13
Mof_C 	C 	0.0528	0.57565	0.25543	0.071
Mof_H 	H 	0.0311	0.6015	0.24	0.044
Mof_C 	C 	0.10066	0.53402	0.24077	-0.117
Mof_C 	C 	0.1344	0.49588	0.26431	0.052
Mof_H 	H 	0.167	0.4682	0.2546	0.044
Mof_C 	C 	0.15385	0.45581	0.32614	0.337
Mof_C 	C 	0.9856	0.62255	0.3097	0.434
Mof_C 	C 	0.11386	0.53049	0.19985	0.343
Mof_Ag	Ag	0.18297	0.84157	0.84211	0.546
Mof_O 	O 	0.18358	0.91607	0.81138	-0.357
Mof_O 	O 	0.14684	0.96234	0.86132	-0.365
Mof_O 	O 	0.96205	0.12406	0.84207	-0.27
Mof_O 	O 	0.9686	0.15912	0.78576	-0.586
Mof_H 	H 	0.9391	0.1818	0.7924	0.395
Mof_O 	O 	0.091	0.06992	0.68134	-0.408
Mof_O 	O 	0.14601	0.98989	0.68546	-0.303
Mof_C 	C 	0.11973	0.99896	0.80206	-0.107
Mof_C 	C 	0.0701	0.04011	0.81699	0.062
Mof_H 	H 	0.059	0.0418	0.8422	0.038
Mof_C 	C 	0.03741	0.07857	0.79349	-0.13
Mof_C 	C 	0.0528	0.07565	0.75543	0.072
Mof_H 	H 	0.0311	0.1015	0.74	0.044
Mof_C 	C 	0.10066	0.03402	0.74077	-0.118
Mof_C 	C 	0.1344	0.99588	0.76431	0.052
Mof_H 	H 	0.167	0.9682	0.7546	0.044
Mof_C 	C 	0.15385	0.95581	0.82614	0.337
Mof_C 	C 	0.9856	0.12255	0.8097	0.434
Mof_C 	C 	0.11386	0.03049	0.69985	0.343
Mof_Ag	Ag	0.68297	0.34157	0.84211	0.546
Mof_O 	O 	0.68358	0.41607	0.81138	-0.357
Mof_O 	O 	0.64684	0.46234	0.86132	-0.365
Mof_O 	O 	0.46205	0.62406	0.84207	-0.27
Mof_O 	O 	0.4686	0.65912	0.78576	-0.586
Mof_H 	H 	0.4391	0.6818	0.7924	0.395
Mof_O 	O 	0.591	0.56992	0.68134	-0.408
Mof_O 	O 	0.64601	0.48989	0.68546	-0.303
Mof_C 	C 	0.61973	0.49896	0.80206	-0.107
Mof_C 	C 	0.5701	0.54011	0.81699	0.062
Mof_H 	H 	0.559	0.5418	0.8422	0.038
Mof_C 	C 	0.53741	0.57857	0.79349	-0.13
Mof_C 	C 	0.5528	0.57565	0.75543	0.071
Mof_H 	H 	0.5311	0.6015	0.74	0.044
Mof_C 	C 	0.60066	0.53402	0.74077	-0.117
Mof_C 	C 	0.6344	0.49588	0.76431	0.052
Mof_H 	H 	0.667	0.4682	0.7546	0.044
Mof_C 	C 	0.65385	0.45581	0.82614	0.337
Mof_C 	C 	0.4856	0.62255	0.8097	0.434
Mof_C 	C 	0.61386	0.53049	0.69985	0.343
Mof_Ag	Ag	0.68297	0.84157	0.34211	0.546
Mof_O 	O 	0.68358	0.91607	0.31138	-0.357
Mof_O 	O 	0.64684	0.96234	0.36132	-0.365
Mof_O 	O 	0.46205	0.12406	0.34207	-0.27
Mof_O 	O 	0.4686	0.15912	0.28576	-0.586
Mof_H 	H 	0.4391	0.1818	0.2924	0.395
Mof_O 	O 	0.591	0.06992	0.18134	-0.408
Mof_O 	O 	0.64601	0.98989	0.18546	-0.303
Mof_C 	C 	0.61973	0.99896	0.30206	-0.107
Mof_C 	C 	0.5701	0.04011	0.31699	0.062
Mof_H 	H 	0.559	0.0418	0.3422	0.038
Mof_C 	C 	0.53741	0.07857	0.29349	-0.13
Mof_C 	C 	0.5528	0.07565	0.25543	0.071
Mof_H 	H 	0.5311	0.1015	0.24	0.044
Mof_C 	C 	0.60066	0.03402	0.24077	-0.117
Mof_C 	C 	0.6344	0.99588	0.26431	0.052
Mof_H 	H 	0.667	0.9682	0.2546	0.044
Mof_C 	C 	0.65385	0.95581	0.32614	0.337
Mof_C 	C 	0.4856	0.12255	0.3097	0.434
Mof_C 	C 	0.61386	0.03049	0.19985	0.343
Mof_Ag	Ag	0.06703	0.90843	0.34211	0.546
Mof_O 	O 	0.06642	0.83393	0.31138	-0.357
Mof_O 	O 	0.10316	0.78766	0.36132	-0.365
Mof_O 	O 	0.28795	0.62594	0.34207	-0.27
Mof_O 	O 	0.2814	0.59088	0.28576	-0.586
Mof_H 	H 	0.3109	0.5682	0.2924	0.395
Mof_O 	O 	0.159	0.68008	0.18134	-0.408
Mof_O 	O 	0.10399	0.76011	0.18546	-0.303
Mof_C 	C 	0.13027	0.75104	0.30206	-0.106
Mof_C 	C 	0.1799	0.70989	0.31699	0.062
Mof_H 	H 	0.191	0.7082	0.3422	0.038
Mof_C 	C 	0.21259	0.67143	0.29349	-0.13
Mof_C 	C 	0.1972	0.67435	0.25543	0.071
Mof_H 	H 	0.2189	0.6485	0.24	0.044
Mof_C 	C 	0.14934	0.71598	0.24077	-0.117
Mof_C 	C 	0.1156	0.75412	0.26431	0.052
Mof_H 	H 	0.083	0.7818	0.2546	0.044
Mof_C 	C 	0.09615	0.79419	0.32614	0.337
Mof_C 	C 	0.2644	0.62745	0.3097	0.434
Mof_C 	C 	0.13614	0.71951	0.19985	0.343
Mof_Ag	Ag	0.06703	0.40843	0.84211	0.546
Mof_O 	O 	0.06642	0.33393	0.81138	-0.357
Mof_O 	O 	0.10316	0.28766	0.86132	-0.365
Mof_O 	O 	0.28795	0.12594	0.84207	-0.27
Mof_O 	O 	0.2814	0.09088	0.78576	-0.586
Mof_H 	H 	0.3109	0.0682	0.7924	0.395
Mof_O 	O 	0.159	0.18008	0.68134	-0.408
Mof_O 	O 	0.10399	0.26011	0.68546	-0.303
Mof_C 	C 	0.13027	0.25104	0.80206	-0.107
Mof_C 	C 	0.1799	0.20989	0.81699	0.062
Mof_H 	H 	0.191	0.2082	0.8422	0.038
Mof_C 	C 	0.21259	0.17143	0.79349	-0.13
Mof_C 	C 	0.1972	0.17435	0.75543	0.071
Mof_H 	H 	0.2189	0.1485	0.74	0.044
Mof_C 	C 	0.14934	0.21598	0.74077	-0.117
Mof_C 	C 	0.1156	0.25412	0.76431	0.052
Mof_H 	H 	0.083	0.2818	0.7546	0.044
Mof_C 	C 	0.09615	0.29419	0.82614	0.337
Mof_C 	C 	0.2644	0.12745	0.8097	0.434
Mof_C 	C 	0.13614	0.21951	0.69985	0.343
Mof_Ag	Ag	0.56703	0.90843	0.84211	0.546
Mof_O 	O 	0.56642	0.83393	0.81138	-0.357
Mof_O 	O 	0.60316	0.78766	0.86132	-0.365
Mof_O 	O 	0.78795	0.62594	0.84207	-0.27
Mof_O 	O 	0.7814	0.59088	0.78576	-0.586
Mof_H 	H 	0.8109	0.5682	0.7924	0.395
Mof_O 	O 	0.659	0.68008	0.68134	-0.408
Mof_O 	O 	0.60399	0.76011	0.68546	-0.303
Mof_C 	C 	0.63027	0.75104	0.80206	-0.107
Mof_C 	C 	0.6799	0.70989	0.81699	0.062
Mof_H 	H 	0.691	0.7082	0.8422	0.038
Mof_C 	C 	0.71259	0.67143	0.79349	-0.13
Mof_C 	C 	0.6972	0.67435	0.75543	0.071
Mof_H 	H 	0.7189	0.6485	0.74	0.044
Mof_C 	C 	0.64934	0.71598	0.74077	-0.117
Mof_C 	C 	0.6156	0.75412	0.76431	0.052
Mof_H 	H 	0.583	0.7818	0.7546	0.044
Mof_C 	C 	0.59615	0.79419	0.82614	0.337
Mof_C 	C 	0.7644	0.62745	0.8097	0.434
Mof_C 	C 	0.63614	0.71951	0.69985	0.343
Mof_Ag	Ag	0.56703	0.40843	0.34211	0.546
Mof_O 	O 	0.56642	0.33393	0.31138	-0.357
Mof_O 	O 	0.60316	0.28766	0.36132	-0.365
Mof_O 	O 	0.78795	0.12594	0.34207	-0.27
Mof_O 	O 	0.7814	0.09088	0.28576	-0.586
Mof_H 	H 	0.8109	0.0682	0.2924	0.395
Mof_O 	O 	0.659	0.18008	0.18134	-0.408
Mof_O 	O 	0.60399	0.26011	0.18546	-0.303
Mof_C 	C 	0.63027	0.25104	0.30206	-0.107
Mof_C 	C 	0.6799	0.20989	0.31699	0.062
Mof_H 	H 	0.691	0.2082	0.3422	0.038
Mof_C 	C 	0.71259	0.17143	0.29349	-0.13
Mof_C 	C 	0.6972	0.17435	0.25543	0.071
Mof_H 	H 	0.7189	0.1485	0.24	0.044
Mof_C 	C 	0.64934	0.21598	0.24077	-0.117
Mof_C 	C 	0.6156	0.25412	0.26431	0.052
Mof_H 	H 	0.583	0.2818	0.2546	0.044
Mof_C 	C 	0.59615	0.29419	0.32614	0.337
Mof_C 	C 	0.7644	0.12745	0.3097	0.434
Mof_C 	C 	0.63614	0.21951	0.19985	0.343
Mof_Ag	Ag	0.875	0.43377	0.875	0.553
Mof_Ag	Ag	0.875	0.93377	0.375	0.552
Mof_Ag	Ag	0.375	0.43377	0.375	0.553
Mof_Ag	Ag	0.375	0.93377	0.875	0.553
Mof_Ag	Ag	0.875	0.31623	0.875	0.553
Mof_Ag	Ag	0.875	0.81623	0.375	0.553
Mof_Ag	Ag	0.375	0.31623	0.375	0.553
Mof_Ag	Ag	0.375	0.81623	0.875	0.553
Mof_Ag	Ag	0.125	0.56623	0.125	0.553
Mof_Ag	Ag	0.125	0.06623	0.625	0.552
Mof_Ag	Ag	0.625	0.56623	0.625	0.553
Mof_Ag	Ag	0.625	0.06623	0.125	0.553
Mof_Ag	Ag	0.125	0.68377	0.125	0.553
Mof_Ag	Ag	0.125	0.18377	0.625	0.553
Mof_Ag	Ag	0.625	0.68377	0.625	0.553
Mof_Ag	Ag	0.625	0.18377	0.125	0.553
_end
