data_functionalizedCrystal
_audit_creation_method	'EQeq! by Chris Wilmer'
_symmetry_space_group_name_H-M	'P1'
_symmetry_Int_Tables_number	1
_symmetry_cell_setting	triclinic
loop_
_symmetry_equiv_pos_as_xyz
  x,y,z
_cell_length_a	14.9773
_cell_length_b	12.5017
_cell_length_c	16.5629
_cell_angle_alpha	90
_cell_angle_beta	90
_cell_angle_gamma	90
loop_
_atom_site_label
_atom_site_type_symbol
_atom_site_fract_x
_atom_site_fract_y
_atom_site_fract_z
_atom_site_charge
Mof_C 	C 	0.7683	0.4214	0.0008	0.337
Mof_O 	O 	0.5281	0.1192	0.00679	-0.377
Mof_C 	C 	0.6341	0.404	0.7228	0.322
Mof_O 	O 	0.5008	0.0867	0.8773	-0.354
Mof_C 	C 	0.5918	0.2721	0.8306	0.042
Mof_H 	H 	0.556	0.2378	0.7927	0.059
Mof_C 	C 	0.5385	0.1389	0.9332	0.371
Mof_Mn	Mn	0.60384	0.48631	0.58239	0.952
Mof_O 	O 	0.593	0.3536	0.6717	-0.322
Mof_C 	C 	0.7026	0.3697	0.9428	-0.087
Mof_C 	C 	0.6525	0.2806	0.9643	0.059
Mof_H 	H 	0.6569	0.2532	0.0164	0.039
Mof_C 	C 	0.64	0.3615	0.8084	-0.079
Mof_C 	C 	0.6939	0.4122	0.865	0.033
Mof_H 	H 	0.7242	0.4745	0.8512	0.059
Mof_C 	C 	0.5964	0.2325	0.9094	-0.103
Mof_O 	O 	0.8011	0.3655	0.0547	-0.303
Mof_O 	O 	0.6695	0.4928	0.708	-0.302
Mof_O 	O 	0.7925	0.5136	0.9896	-0.346
Mof_C 	C 	0.7317	0.5786	0.5008	0.341
Mof_O 	O 	0.9719	0.8808	0.50679	-0.373
Mof_C 	C 	0.8659	0.596	0.2228	0.323
Mof_O 	O 	0.9992	0.9133	0.3773	-0.354
Mof_C 	C 	0.9082	0.7279	0.3306	0.04
Mof_H 	H 	0.944	0.7622	0.2927	0.059
Mof_C 	C 	0.9615	0.8611	0.4332	0.367
Mof_Mn	Mn	0.89616	0.51369	0.08239	0.95
Mof_O 	O 	0.907	0.6464	0.1717	-0.322
Mof_C 	C 	0.7974	0.6303	0.4428	-0.087
Mof_C 	C 	0.8475	0.7194	0.4643	0.053
Mof_H 	H 	0.8431	0.7468	0.5164	0.042
Mof_C 	C 	0.86	0.6385	0.3084	-0.078
Mof_C 	C 	0.8061	0.5878	0.365	0.033
Mof_H 	H 	0.7758	0.5255	0.3512	0.059
Mof_C 	C 	0.9036	0.7675	0.4094	-0.101
Mof_O 	O 	0.6989	0.6345	0.5547	-0.303
Mof_O 	O 	0.8305	0.5072	0.208	-0.302
Mof_O 	O 	0.7075	0.4864	0.4896	-0.349
Mof_C 	C 	0.2317	0.9214	0.4992	0.341
Mof_O 	O 	0.4719	0.6192	0.49321	-0.373
Mof_C 	C 	0.3659	0.904	0.7772	0.323
Mof_O 	O 	0.4992	0.5867	0.6227	-0.354
Mof_C 	C 	0.4082	0.7721	0.6694	0.04
Mof_H 	H 	0.444	0.7378	0.7073	0.059
Mof_C 	C 	0.4615	0.6389	0.5668	0.367
Mof_Mn	Mn	0.39616	0.98631	0.91761	0.948
Mof_O 	O 	0.407	0.8536	0.8283	-0.322
Mof_C 	C 	0.2974	0.8697	0.5572	-0.087
Mof_C 	C 	0.3475	0.7806	0.5357	0.053
Mof_H 	H 	0.3431	0.7532	0.4836	0.042
Mof_C 	C 	0.36	0.8615	0.6916	-0.078
Mof_C 	C 	0.3061	0.9122	0.635	0.033
Mof_H 	H 	0.2758	0.9745	0.6488	0.059
Mof_C 	C 	0.4036	0.7325	0.5906	-0.101
Mof_O 	O 	0.1989	0.8655	0.4453	-0.302
Mof_O 	O 	0.3305	0.9928	0.792	-0.303
Mof_O 	O 	0.2075	0.0136	0.5104	-0.349
Mof_C 	C 	0.2683	0.0786	0.9992	0.341
Mof_O 	O 	0.0281	0.3808	0.99321	-0.375
Mof_C 	C 	0.1341	0.096	0.2772	0.323
Mof_O 	O 	0.0008	0.4133	0.1227	-0.354
Mof_C 	C 	0.0918	0.2279	0.1694	0.041
Mof_H 	H 	0.056	0.2622	0.2073	0.059
Mof_C 	C 	0.0385	0.3611	0.0668	0.369
Mof_Mn	Mn	0.10384	0.01369	0.41761	0.952
Mof_O 	O 	0.093	0.1464	0.3283	-0.322
Mof_C 	C 	0.2026	0.1303	0.0572	-0.089
Mof_C 	C 	0.1525	0.2194	0.0357	0.054
Mof_H 	H 	0.1569	0.2468	0.9836	0.042
Mof_C 	C 	0.14	0.1385	0.1916	-0.079
Mof_C 	C 	0.1939	0.0878	0.135	0.034
Mof_H 	H 	0.2242	0.0255	0.1488	0.059
Mof_C 	C 	0.0964	0.2675	0.0906	-0.102
Mof_O 	O 	0.3011	0.1345	0.9453	-0.302
Mof_O 	O 	0.1695	0.0072	0.292	-0.302
Mof_O 	O 	0.2925	0.9864	0.0104	-0.345
Mof_C 	C 	0.2317	0.5786	0.9992	0.338
Mof_O 	O 	0.4719	0.8808	0.99321	-0.376
Mof_C 	C 	0.3659	0.596	0.2772	0.323
Mof_O 	O 	0.4992	0.9133	0.1227	-0.353
Mof_C 	C 	0.4082	0.7279	0.1694	0.042
Mof_H 	H 	0.444	0.7622	0.2073	0.059
Mof_C 	C 	0.4615	0.8611	0.0668	0.371
Mof_Mn	Mn	0.39616	0.51369	0.41761	0.952
Mof_O 	O 	0.407	0.6464	0.3283	-0.322
Mof_C 	C 	0.2974	0.6303	0.0572	-0.087
Mof_C 	C 	0.3475	0.7194	0.0357	0.059
Mof_H 	H 	0.3431	0.7468	0.9836	0.039
Mof_C 	C 	0.36	0.6385	0.1916	-0.079
Mof_C 	C 	0.3061	0.5878	0.135	0.033
Mof_H 	H 	0.2758	0.5255	0.1488	0.059
Mof_C 	C 	0.4036	0.7675	0.0906	-0.103
Mof_O 	O 	0.1989	0.6345	0.9453	-0.303
Mof_O 	O 	0.3305	0.5072	0.292	-0.302
Mof_O 	O 	0.2075	0.4864	0.0104	-0.346
Mof_C 	C 	0.2683	0.4214	0.4992	0.341
Mof_O 	O 	0.0281	0.1192	0.49321	-0.373
Mof_C 	C 	0.1341	0.404	0.7772	0.323
Mof_O 	O 	0.0008	0.0867	0.6227	-0.354
Mof_C 	C 	0.0918	0.2721	0.6694	0.04
Mof_H 	H 	0.056	0.2378	0.7073	0.059
Mof_C 	C 	0.0385	0.1389	0.5668	0.367
Mof_Mn	Mn	0.10384	0.48631	0.91761	0.95
Mof_O 	O 	0.093	0.3536	0.8283	-0.322
Mof_C 	C 	0.2026	0.3697	0.5572	-0.087
Mof_C 	C 	0.1525	0.2806	0.5357	0.053
Mof_H 	H 	0.1569	0.2532	0.4836	0.042
Mof_C 	C 	0.14	0.3615	0.6916	-0.078
Mof_C 	C 	0.1939	0.4122	0.635	0.033
Mof_H 	H 	0.2242	0.4745	0.6488	0.059
Mof_C 	C 	0.0964	0.2325	0.5906	-0.101
Mof_O 	O 	0.3011	0.3655	0.4453	-0.303
Mof_O 	O 	0.1695	0.4928	0.792	-0.302
Mof_O 	O 	0.2925	0.5136	0.5104	-0.349
Mof_C 	C 	0.7683	0.0786	0.5008	0.341
Mof_O 	O 	0.5281	0.3808	0.50679	-0.373
Mof_C 	C 	0.6341	0.096	0.2228	0.323
Mof_O 	O 	0.5008	0.4133	0.3773	-0.354
Mof_C 	C 	0.5918	0.2279	0.3306	0.04
Mof_H 	H 	0.556	0.2622	0.2927	0.059
Mof_C 	C 	0.5385	0.3611	0.4332	0.367
Mof_Mn	Mn	0.60384	0.01369	0.08239	0.948
Mof_O 	O 	0.593	0.1464	0.1717	-0.322
Mof_C 	C 	0.7026	0.1303	0.4428	-0.087
Mof_C 	C 	0.6525	0.2194	0.4643	0.053
Mof_H 	H 	0.6569	0.2468	0.5164	0.042
Mof_C 	C 	0.64	0.1385	0.3084	-0.078
Mof_C 	C 	0.6939	0.0878	0.365	0.033
Mof_H 	H 	0.7242	0.0255	0.3512	0.059
Mof_C 	C 	0.5964	0.2675	0.4094	-0.101
Mof_O 	O 	0.8011	0.1345	0.5547	-0.302
Mof_O 	O 	0.6695	0.0072	0.208	-0.303
Mof_O 	O 	0.7925	0.9864	0.4896	-0.349
Mof_C 	C 	0.7317	0.9214	0.0008	0.341
Mof_O 	O 	0.9719	0.6192	0.00679	-0.375
Mof_C 	C 	0.8659	0.904	0.7228	0.323
Mof_O 	O 	0.9992	0.5867	0.8773	-0.354
Mof_C 	C 	0.9082	0.7721	0.8306	0.041
Mof_H 	H 	0.944	0.7378	0.7927	0.059
Mof_C 	C 	0.9615	0.6389	0.9332	0.369
Mof_Mn	Mn	0.89616	0.98631	0.58239	0.952
Mof_O 	O 	0.907	0.8536	0.6717	-0.322
Mof_C 	C 	0.7974	0.8697	0.9428	-0.089
Mof_C 	C 	0.8475	0.7806	0.9643	0.054
Mof_H 	H 	0.8431	0.7532	0.0164	0.042
Mof_C 	C 	0.86	0.8615	0.8084	-0.079
Mof_C 	C 	0.8061	0.9122	0.865	0.034
Mof_H 	H 	0.7758	0.9745	0.8512	0.059
Mof_C 	C 	0.9036	0.7325	0.9094	-0.102
Mof_O 	O 	0.6989	0.8655	0.0547	-0.302
Mof_O 	O 	0.8305	0.9928	0.708	-0.302
Mof_O 	O 	0.7075	0.0136	0.9896	-0.345
_end
