data_functionalizedCrystal
_audit_creation_method	'EQeq! by Chris Wilmer'
_symmetry_space_group_name_H-M	'P1'
_symmetry_Int_Tables_number	1
_symmetry_cell_setting	triclinic
loop_
_symmetry_equiv_pos_as_xyz
  x,y,z
_cell_length_a	10.642
_cell_length_b	16.472
_cell_length_c	12.47
_cell_angle_alpha	90
_cell_angle_beta	90
_cell_angle_gamma	90
loop_
_atom_site_label
_atom_site_type_symbol
_atom_site_fract_x
_atom_site_fract_y
_atom_site_fract_z
_atom_site_charge
Mof_Cd	Cd	0.52841	0.05537	0.807	0.428
Mof_C 	C 	0.6113	0.8711	0.6935	0.196
Mof_N 	N 	0.5329	0.6806	0.6292	-0.169
Mof_C 	C 	0.5825	0.7402	0.642	0.201
Mof_N 	N 	0.6383	0.8098	0.627	-0.101
Mof_N 	N 	0.5878	0.9311	0.7323	-0.171
Mof_N 	N 	0.8388	0.8848	0.1771	-0.157
Mof_N 	N 	0.833	0.937	0.9927	-0.164
Mof_C 	C 	0.7585	0.993	0.9599	0.179
Mof_C 	C 	0.8308	0.9113	0.0923	0.174
Mof_N 	N 	0.6975	0.0438	0.922	-0.16
Mof_C 	C 	0.1893	0.9296	0.1083	0.224
Mof_N 	N 	0.1321	0.9361	0.1814	-0.181
Mof_C 	C 	0.3297	0.9576	0.976	0.224
Mof_N 	N 	0.218	0.9227	0.9982	-0.124
Mof_N 	N 	0.3968	0.9912	0.9248	-0.18
Mof_N 	N 	0.6615	0.7979	0.677	-0.091
Mof_N 	N 	0.292	0.901	0.0551	-0.121
Mof_Cd	Cd	0.97159	0.94463	0.307	0.427
Mof_C 	C 	0.8887	0.1289	0.1935	0.195
Mof_N 	N 	0.9671	0.3194	0.1292	-0.169
Mof_C 	C 	0.9175	0.2598	0.142	0.2
Mof_N 	N 	0.8617	0.1902	0.127	-0.102
Mof_N 	N 	0.9122	0.0689	0.2323	-0.172
Mof_N 	N 	0.6612	0.1152	0.6771	-0.158
Mof_N 	N 	0.667	0.063	0.4927	-0.165
Mof_C 	C 	0.7415	0.007	0.4599	0.18
Mof_C 	C 	0.6692	0.0887	0.5923	0.174
Mof_N 	N 	0.8025	0.9562	0.422	-0.16
Mof_C 	C 	0.3107	0.0704	0.6083	0.223
Mof_N 	N 	0.3679	0.0639	0.6814	-0.181
Mof_C 	C 	0.1703	0.0424	0.476	0.223
Mof_N 	N 	0.282	0.0773	0.4982	-0.124
Mof_N 	N 	0.1032	0.0088	0.4248	-0.181
Mof_N 	N 	0.8385	0.2021	0.177	-0.091
Mof_N 	N 	0.208	0.099	0.5551	-0.121
Mof_Cd	Cd	0.47159	0.55537	0.693	0.427
Mof_C 	C 	0.3887	0.3711	0.8065	0.195
Mof_N 	N 	0.4671	0.1806	0.8708	-0.17
Mof_C 	C 	0.4175	0.2402	0.858	0.2
Mof_N 	N 	0.3617	0.3098	0.873	-0.102
Mof_N 	N 	0.4122	0.4311	0.7677	-0.172
Mof_N 	N 	0.1612	0.3848	0.3229	-0.158
Mof_N 	N 	0.167	0.437	0.5073	-0.165
Mof_C 	C 	0.2415	0.493	0.5401	0.179
Mof_C 	C 	0.1692	0.4113	0.4077	0.174
Mof_N 	N 	0.3025	0.5438	0.578	-0.16
Mof_C 	C 	0.8107	0.4296	0.3917	0.224
Mof_N 	N 	0.8679	0.4361	0.3186	-0.181
Mof_C 	C 	0.6703	0.4576	0.524	0.223
Mof_N 	N 	0.782	0.4227	0.5018	-0.124
Mof_N 	N 	0.6032	0.4912	0.5752	-0.181
Mof_N 	N 	0.3385	0.2979	0.823	-0.091
Mof_N 	N 	0.708	0.401	0.4449	-0.121
Mof_Cd	Cd	0.02841	0.44463	0.193	0.427
Mof_C 	C 	0.1113	0.6289	0.3065	0.195
Mof_N 	N 	0.0329	0.8194	0.3708	-0.169
Mof_C 	C 	0.0825	0.7598	0.358	0.2
Mof_N 	N 	0.1383	0.6902	0.373	-0.102
Mof_N 	N 	0.0878	0.5689	0.2677	-0.172
Mof_N 	N 	0.3388	0.6152	0.8229	-0.158
Mof_N 	N 	0.333	0.563	0.0073	-0.165
Mof_C 	C 	0.2585	0.507	0.0401	0.179
Mof_C 	C 	0.3308	0.5887	0.9077	0.174
Mof_N 	N 	0.1975	0.4562	0.078	-0.16
Mof_C 	C 	0.6893	0.5704	0.8917	0.223
Mof_N 	N 	0.6321	0.5639	0.8186	-0.181
Mof_C 	C 	0.8297	0.5424	0.024	0.224
Mof_N 	N 	0.718	0.5773	0.0018	-0.124
Mof_N 	N 	0.8968	0.5088	0.0752	-0.181
Mof_N 	N 	0.1615	0.7021	0.323	-0.091
Mof_N 	N 	0.792	0.599	0.9449	-0.121
_end
