data_functionalizedCrystal
_audit_creation_method	'EQeq! by Chris Wilmer'
_symmetry_space_group_name_H-M	'P1'
_symmetry_Int_Tables_number	1
_symmetry_cell_setting	triclinic
loop_
_symmetry_equiv_pos_as_xyz
  x,y,z
_cell_length_a	12.0501
_cell_length_b	13.9638
_cell_length_c	14.7073
_cell_angle_alpha	98.257
_cell_angle_beta	111.863
_cell_angle_gamma	107.785
loop_
_atom_site_label
_atom_site_type_symbol
_atom_site_fract_x
_atom_site_fract_y
_atom_site_fract_z
_atom_site_charge
Mof_Ca	Ca	0.7008	0.58044	0.57721	1.424
Mof_Ca	Ca	0.46179	0.93829	0.13771	1.489
Mof_Ca	Ca	0.2992	0.41956	0.42279	1.38
Mof_Ca	Ca	0.53821	0.06171	0.86229	1.353
Mof_Ca	Ca	4.07542e-17	0	0.5	1.065
Mof_Ca	Ca	2.71694e-17	0.5	-0	1.106
Mof_H 	H 	0.9635	0.7936	0.6206	-0.052
Mof_H 	H 	0.5095	0.6034	0.3666	-0.056
Mof_H 	H 	0.9334	0.6495	0.8232	-0.052
Mof_H 	H 	0.2539	0.9045	0.9043	-0.064
Mof_H 	H 	0.6754	0.8669	0.3086	-0.014
Mof_H 	H 	0.3015	0.7067	0.1523	-0.045
Mof_H 	H 	0.5723	0.7977	0.7911	-0.011
Mof_H 	H 	0.3112	0.6549	0.8839	-0.008
Mof_H 	H 	0.3385	0.4938	0.661	-0.024
Mof_H 	H 	0.0365	0.2064	0.3794	0.015
Mof_H 	H 	0.4905	0.3966	0.6334	-0.055
Mof_H 	H 	0.0666	0.3505	0.1768	0.023
Mof_H 	H 	0.7461	0.0955	0.0957	-0.007
Mof_H 	H 	0.3246	0.1331	0.6914	-0.046
Mof_H 	H 	0.6985	0.2933	0.8477	-0.021
Mof_H 	H 	0.4277	0.2023	0.2089	-0.034
Mof_H 	H 	0.6888	0.3451	0.1161	-0.007
Mof_H 	H 	0.6615	0.5062	0.339	-0.017
Mof_C 	C 	0.12223	0.86161	0.75603	-0.395
Mof_C 	C 	0.1015	0.7748	0.8816	-0.407
Mof_C 	C 	0.9987	0.78814	0.68671	0.294
Mof_C 	C 	0.3853	0.64082	0.25606	-0.278
Mof_C 	C 	0.5041	0.65253	0.33042	0.191
Mof_C 	C 	0.6148	0.7376	0.35077	-0.257
Mof_C 	C 	0.9807	0.70418	0.80618	0.308
Mof_C 	C 	0.1729	0.8553	0.85559	0.293
Mof_C 	C 	0.7446	0.75566	0.43424	0.484
Mof_C 	C 	0.5313	0.63339	0.64668	0.394
Mof_C 	C 	0.4482	0.74227	0.85135	-0.231
Mof_C 	C 	0.4658	0.64348	0.7143	-0.206
Mof_C 	C 	0.6015	0.80923	0.29502	0.142
Mof_C 	C 	0.3811	0.71512	0.20325	0.148
Mof_C 	C 	0.1968	0.94164	0.71908	0.513
Mof_C 	C 	0.4923	0.84198	0.93334	0.529
Mof_C 	C 	0.2627	0.55182	0.23577	0.501
Mof_C 	C 	0.15	0.7613	0.98811	0.575
Mof_C 	C 	0.5067	0.73801	0.78634	0.138
Mof_C 	C 	0.3505	0.6517	0.8404	0.128
Mof_C 	C 	0.3664	0.5571	0.7097	0.11
Mof_C 	C 	0.87777	0.13839	0.24397	-0.068
Mof_C 	C 	0.8985	0.2252	0.1184	-0.049
Mof_C 	C 	0.0013	0.21186	0.31329	-0.056
Mof_C 	C 	0.6147	0.35918	0.74394	-0.263
Mof_C 	C 	0.4959	0.34747	0.66958	0.192
Mof_C 	C 	0.3852	0.2624	0.64923	-0.273
Mof_C 	C 	0.0193	0.29582	0.19382	-0.057
Mof_C 	C 	0.8271	0.1447	0.14441	0.031
Mof_C 	C 	0.2554	0.24434	0.56576	0.49
Mof_C 	C 	0.4687	0.36661	0.35332	0.399
Mof_C 	C 	0.5518	0.25773	0.14865	-0.224
Mof_C 	C 	0.5342	0.35652	0.2857	-0.213
Mof_C 	C 	0.3985	0.19077	0.70498	0.145
Mof_C 	C 	0.6189	0.28488	0.79675	0.143
Mof_C 	C 	0.8032	0.05836	0.28092	0.424
Mof_C 	C 	0.5077	0.15802	0.06666	0.436
Mof_C 	C 	0.7373	0.44818	0.76423	0.497
Mof_C 	C 	0.85	0.2387	0.01189	0.373
Mof_C 	C 	0.4933	0.26199	0.21366	0.131
Mof_C 	C 	0.6495	0.3483	0.1596	0.121
Mof_C 	C 	0.6336	0.4429	0.2903	0.115
Mof_N 	N 	0.92826	0.71013	0.71031	-0.282
Mof_N 	N 	0.48709	0.79884	0.22257	-0.256
Mof_N 	N 	0.3086	0.55969	0.7713	-0.169
Mof_N 	N 	0.07174	0.28987	0.28969	-0.185
Mof_N 	N 	0.51291	0.20116	0.77743	-0.254
Mof_N 	N 	0.6914	0.44031	0.2287	-0.154
Mof_O 	O 	0.2418	0.83813	0.05908	-0.541
Mof_O 	O 	0.7476	0.68842	0.48166	-0.482
Mof_O 	O 	0.47615	0.55388	0.56963	-0.518
Mof_O 	O 	0.3164	0.98678	0.77356	-0.469
Mof_O 	O 	0.13578	0.95615	0.6362	-0.457
Mof_O 	O 	0.15985	0.53943	0.16311	-0.497
Mof_O 	O 	0.27315	0.49686	0.29543	-0.511
Mof_O 	O 	0.84004	0.83504	0.45082	-0.415
Mof_O 	O 	0.09383	0.67493	0.99774	-0.473
Mof_O 	O 	0.5583	0.92591	0.92593	-0.47
Mof_O 	O 	0.6404	0.70139	0.67092	-0.397
Mof_O 	O 	0.4597	0.832	0.00358	-0.522
Mof_O 	O 	0.7582	0.16187	0.94092	-0.423
Mof_O 	O 	0.2524	0.31158	0.51834	-0.501
Mof_O 	O 	0.52385	0.44612	0.43037	-0.519
Mof_O 	O 	0.6836	0.01322	0.22644	-0.508
Mof_O 	O 	0.86422	0.04385	0.3638	-0.411
Mof_O 	O 	0.84015	0.46057	0.83689	-0.427
Mof_O 	O 	0.72685	0.50314	0.70457	-0.496
Mof_O 	O 	0.15996	0.16496	0.54918	-0.491
Mof_O 	O 	0.90617	0.32507	0.00226	-0.392
Mof_O 	O 	0.4417	0.07409	0.07407	-0.533
Mof_O 	O 	0.3596	0.29861	0.32908	-0.419
Mof_O 	O 	0.5403	0.168	0.99642	-0.438
_end
