data_functionalizedCrystal
_audit_creation_method	'EQeq! by Chris Wilmer'
_symmetry_space_group_name_H-M	'P1'
_symmetry_Int_Tables_number	1
_symmetry_cell_setting	triclinic
loop_
_symmetry_equiv_pos_as_xyz
  x,y,z
_cell_length_a	20.794
_cell_length_b	5.2272
_cell_length_c	17.9628
_cell_angle_alpha	90
_cell_angle_beta	90
_cell_angle_gamma	90
loop_
_atom_site_label
_atom_site_type_symbol
_atom_site_fract_x
_atom_site_fract_y
_atom_site_fract_z
_atom_site_charge
Mof_Zn	Zn	0.64889	0.28434	0.46652	1.219
Mof_Zn	Zn	0.74644	0.77233	0.49751	1.21
Mof_Zn	Zn	0.50064	0.7263	0.4499	1.225
Mof_Zn	Zn	0.74987	0.6133	0.2627	1.203
Mof_Zn	Zn	0.37115	0.34858	0.48363	1.22
Mof_P 	P 	0.7573	0.2635	0.58705	0.545
Mof_P 	P 	0.6393	0.7698	0.36921	0.527
Mof_P 	P 	0.51169	0.2511	0.54428	0.562
Mof_P 	P 	0.85888	0.6484	0.38579	0.541
Mof_O 	O 	0.6809	0.6248	0.429	-0.662
Mof_O 	O 	0.7198	0.1221	0.522	-0.656
Mof_O 	O 	0.5764	0.3651	0.5252	-0.528
Mof_O 	O 	0.6494	0.0603	0.3794	-0.489
Mof_O 	O 	0.7428	0.5471	0.5799	-0.517
Mof_O 	O 	0.5699	0.6905	0.3783	-0.473
Mof_O 	O 	0.4634	0.3998	0.4928	-0.623
Mof_O 	O 	0.9304	0.6929	0.3806	-0.469
Mof_O 	O 	0.5067	0.9669	0.5276	-0.512
Mof_O 	O 	0.662	0.6946	0.2915	-0.449
Mof_O 	O 	0.8269	0.7309	0.3131	-0.471
Mof_O 	O 	0.7317	0.1632	0.6605	-0.478
Mof_O 	O 	0.832	0.8159	0.4517	-0.656
Mof_O 	O 	0.8418	0.3688	0.4021	-0.516
Mof_O 	O 	0.8287	0.205	0.5764	-0.505
Mof_O 	O 	0.4955	0.3022	0.6236	-0.243
Mof_Zn	Zn	0.35111	0.71566	0.96652	1.13
Mof_Zn	Zn	0.25356	0.22767	0.99751	1.122
Mof_Zn	Zn	0.49936	0.2737	0.9499	1.171
Mof_Zn	Zn	0.25013	0.3867	0.7627	1.2
Mof_Zn	Zn	0.62885	0.65142	0.98363	1.162
Mof_P 	P 	0.2427	0.7365	0.08705	0.541
Mof_P 	P 	0.3607	0.2302	0.86921	0.534
Mof_P 	P 	0.48831	0.7489	0.04428	0.719
Mof_P 	P 	0.14112	0.3516	0.88579	0.541
Mof_O 	O 	0.3191	0.3752	0.929	-0.748
Mof_O 	O 	0.2802	0.8779	0.022	-0.488
Mof_O 	O 	0.4236	0.6349	0.0252	-0.407
Mof_O 	O 	0.3506	0.9397	0.8794	-0.555
Mof_O 	O 	0.2572	0.4529	0.0799	-0.413
Mof_O 	O 	0.4301	0.3095	0.8783	-0.522
Mof_O 	O 	0.5366	0.6002	0.9928	-0.839
Mof_O 	O 	0.0696	0.3071	0.8806	-0.481
Mof_O 	O 	0.4933	0.0331	0.0276	-0.367
Mof_O 	O 	0.338	0.3054	0.7915	-0.457
Mof_O 	O 	0.1731	0.2691	0.8131	-0.471
Mof_O 	O 	0.2683	0.8368	0.1605	-0.469
Mof_O 	O 	0.168	0.1841	0.9517	-0.732
Mof_O 	O 	0.1582	0.6312	0.9021	-0.563
Mof_O 	O 	0.1713	0.795	0.0764	-0.388
Mof_O 	O 	0.5045	0.6978	0.1236	-0.229
Mof_Zn	Zn	0.14889	0.21566	0.46652	1.22
Mof_Zn	Zn	0.24644	0.72767	0.49751	1.212
Mof_Zn	Zn	0.00064	0.7737	0.4499	1.229
Mof_Zn	Zn	0.24987	0.8867	0.2627	1.202
Mof_Zn	Zn	0.87115	0.15142	0.48363	1.221
Mof_P 	P 	0.2573	0.2365	0.58705	0.55
Mof_P 	P 	0.1393	0.7302	0.36921	0.536
Mof_P 	P 	0.01169	0.2489	0.54428	0.576
Mof_P 	P 	0.35888	0.8516	0.38579	0.535
Mof_O 	O 	0.1809	0.8752	0.429	-0.665
Mof_O 	O 	0.2198	0.3779	0.522	-0.661
Mof_O 	O 	0.0764	0.1349	0.5252	-0.525
Mof_O 	O 	0.1494	0.4397	0.3794	-0.497
Mof_O 	O 	0.2428	0.9529	0.5799	-0.519
Mof_O 	O 	0.0699	0.8095	0.3783	-0.472
Mof_O 	O 	0.9634	0.1002	0.4928	-0.632
Mof_O 	O 	0.4304	0.8071	0.3806	-0.462
Mof_O 	O 	0.0067	0.5331	0.5276	-0.501
Mof_O 	O 	0.162	0.8054	0.2915	-0.448
Mof_O 	O 	0.3269	0.7691	0.3131	-0.467
Mof_O 	O 	0.2317	0.3368	0.6605	-0.48
Mof_O 	O 	0.332	0.6841	0.4517	-0.65
Mof_O 	O 	0.3418	0.1312	0.4021	-0.51
Mof_O 	O 	0.3287	0.295	0.5764	-0.506
Mof_O 	O 	0.9955	0.1978	0.6236	-0.256
Mof_Zn	Zn	0.85111	0.78434	0.96652	1.128
Mof_Zn	Zn	0.75356	0.27233	0.99751	1.121
Mof_Zn	Zn	0.99936	0.2263	0.9499	1.168
Mof_Zn	Zn	0.75013	0.1133	0.7627	1.201
Mof_Zn	Zn	0.12885	0.84858	0.98363	1.163
Mof_P 	P 	0.7427	0.7635	0.08705	0.531
Mof_P 	P 	0.8607	0.2698	0.86921	0.53
Mof_P 	P 	0.98831	0.7511	0.04428	0.705
Mof_P 	P 	0.64112	0.1484	0.88579	0.549
Mof_O 	O 	0.8191	0.1248	0.929	-0.744
Mof_O 	O 	0.7802	0.6221	0.022	-0.483
Mof_O 	O 	0.9236	0.8651	0.0252	-0.412
Mof_O 	O 	0.8506	0.5603	0.8794	-0.554
Mof_O 	O 	0.7572	0.0471	0.0799	-0.404
Mof_O 	O 	0.9301	0.1905	0.8783	-0.523
Mof_O 	O 	0.0366	0.8998	0.9928	-0.824
Mof_O 	O 	0.5696	0.1929	0.8806	-0.489
Mof_O 	O 	0.9933	0.4669	0.0276	-0.377
Mof_O 	O 	0.838	0.1946	0.7915	-0.456
Mof_O 	O 	0.6731	0.2309	0.8131	-0.474
Mof_O 	O 	0.7683	0.6632	0.1605	-0.467
Mof_O 	O 	0.668	0.3159	0.9517	-0.737
Mof_O 	O 	0.6582	0.8688	0.9021	-0.572
Mof_O 	O 	0.6713	0.705	0.0764	-0.387
Mof_O 	O 	0.0045	0.8022	0.1236	-0.219
_end
