data_functionalizedCrystal
_audit_creation_method	'EQeq! by Chris Wilmer'
_symmetry_space_group_name_H-M	'P1'
_symmetry_Int_Tables_number	1
_symmetry_cell_setting	triclinic
loop_
_symmetry_equiv_pos_as_xyz
  x,y,z
_cell_length_a	30.7911
_cell_length_b	30.7911
_cell_length_c	30.7911
_cell_angle_alpha	90
_cell_angle_beta	90
_cell_angle_gamma	90
loop_
_atom_site_label
_atom_site_type_symbol
_atom_site_fract_x
_atom_site_fract_y
_atom_site_fract_z
_atom_site_charge
Mof_O 	O 	0.15586	0.04462	0.29273	-0.406
Mof_O 	O 	0.15605	0.95497	0.2075	-0.37
Mof_O 	O 	0.15586	0.54462	0.79273	-0.394
Mof_O 	O 	0.15605	0.45497	0.7075	-0.395
Mof_O 	O 	0.65586	0.04462	0.79273	-0.402
Mof_O 	O 	0.65605	0.95497	0.7075	-0.366
Mof_O 	O 	0.65586	0.54462	0.29273	-0.392
Mof_O 	O 	0.65605	0.45497	0.2075	-0.393
Mof_O 	O 	0.84414	0.95538	0.29273	-0.363
Mof_O 	O 	0.84395	0.04503	0.2075	-0.401
Mof_O 	O 	0.84414	0.45538	0.79273	-0.388
Mof_O 	O 	0.84395	0.54503	0.7075	-0.389
Mof_O 	O 	0.34414	0.95538	0.79273	-0.365
Mof_O 	O 	0.34395	0.04503	0.7075	-0.403
Mof_O 	O 	0.34414	0.45538	0.29273	-0.392
Mof_O 	O 	0.34395	0.54503	0.2075	-0.393
Mof_O 	O 	0.84414	0.04462	0.70727	-0.4
Mof_O 	O 	0.84395	0.95497	0.7925	-0.362
Mof_O 	O 	0.84414	0.54462	0.20727	-0.39
Mof_O 	O 	0.84395	0.45497	0.2925	-0.389
Mof_O 	O 	0.34414	0.04462	0.20727	-0.404
Mof_O 	O 	0.34395	0.95497	0.2925	-0.366
Mof_O 	O 	0.34414	0.54462	0.70727	-0.392
Mof_O 	O 	0.34395	0.45497	0.7925	-0.391
Mof_O 	O 	0.15586	0.95538	0.70727	-0.368
Mof_O 	O 	0.15605	0.04503	0.7925	-0.404
Mof_O 	O 	0.15586	0.45538	0.20727	-0.395
Mof_O 	O 	0.15605	0.54503	0.2925	-0.395
Mof_O 	O 	0.65586	0.95538	0.20727	-0.367
Mof_O 	O 	0.65605	0.04503	0.2925	-0.403
Mof_O 	O 	0.65586	0.45538	0.70727	-0.392
Mof_O 	O 	0.65605	0.54503	0.7925	-0.391
Mof_O 	O 	0.29273	0.15586	0.04462	-0.406
Mof_O 	O 	0.2075	0.15605	0.95497	-0.37
Mof_O 	O 	0.29273	0.65586	0.54462	-0.392
Mof_O 	O 	0.2075	0.65605	0.45497	-0.393
Mof_O 	O 	0.79273	0.15586	0.54462	-0.394
Mof_O 	O 	0.7075	0.15605	0.45497	-0.395
Mof_O 	O 	0.79273	0.65586	0.04462	-0.402
Mof_O 	O 	0.7075	0.65605	0.95497	-0.366
Mof_O 	O 	0.29273	0.84414	0.95538	-0.363
Mof_O 	O 	0.2075	0.84395	0.04503	-0.401
Mof_O 	O 	0.29273	0.34414	0.45538	-0.392
Mof_O 	O 	0.2075	0.34395	0.54503	-0.393
Mof_O 	O 	0.79273	0.84414	0.45538	-0.388
Mof_O 	O 	0.7075	0.84395	0.54503	-0.389
Mof_O 	O 	0.79273	0.34414	0.95538	-0.365
Mof_O 	O 	0.7075	0.34395	0.04503	-0.403
Mof_O 	O 	0.70727	0.84414	0.04462	-0.4
Mof_O 	O 	0.7925	0.84395	0.95497	-0.362
Mof_O 	O 	0.70727	0.34414	0.54462	-0.392
Mof_O 	O 	0.7925	0.34395	0.45497	-0.391
Mof_O 	O 	0.20727	0.84414	0.54462	-0.39
Mof_O 	O 	0.2925	0.84395	0.45497	-0.389
Mof_O 	O 	0.20727	0.34414	0.04462	-0.404
Mof_O 	O 	0.2925	0.34395	0.95497	-0.366
Mof_O 	O 	0.70727	0.15586	0.95538	-0.368
Mof_O 	O 	0.7925	0.15605	0.04503	-0.404
Mof_O 	O 	0.70727	0.65586	0.45538	-0.392
Mof_O 	O 	0.7925	0.65605	0.54503	-0.391
Mof_O 	O 	0.20727	0.15586	0.45538	-0.395
Mof_O 	O 	0.2925	0.15605	0.54503	-0.395
Mof_O 	O 	0.20727	0.65586	0.95538	-0.367
Mof_O 	O 	0.2925	0.65605	0.04503	-0.403
Mof_O 	O 	0.04462	0.29273	0.15586	-0.406
Mof_O 	O 	0.95497	0.2075	0.15605	-0.37
Mof_O 	O 	0.04462	0.79273	0.65586	-0.402
Mof_O 	O 	0.95497	0.7075	0.65605	-0.366
Mof_O 	O 	0.54462	0.29273	0.65586	-0.392
Mof_O 	O 	0.45497	0.2075	0.65605	-0.393
Mof_O 	O 	0.54462	0.79273	0.15586	-0.394
Mof_O 	O 	0.45497	0.7075	0.15605	-0.395
Mof_O 	O 	0.95538	0.29273	0.84414	-0.363
Mof_O 	O 	0.04503	0.2075	0.84395	-0.401
Mof_O 	O 	0.95538	0.79273	0.34414	-0.365
Mof_O 	O 	0.04503	0.7075	0.34395	-0.403
Mof_O 	O 	0.45538	0.29273	0.34414	-0.392
Mof_O 	O 	0.54503	0.2075	0.34395	-0.393
Mof_O 	O 	0.45538	0.79273	0.84414	-0.388
Mof_O 	O 	0.54503	0.7075	0.84395	-0.389
Mof_O 	O 	0.04462	0.70727	0.84414	-0.4
Mof_O 	O 	0.95497	0.7925	0.84395	-0.362
Mof_O 	O 	0.04462	0.20727	0.34414	-0.404
Mof_O 	O 	0.95497	0.2925	0.34395	-0.366
Mof_O 	O 	0.54462	0.70727	0.34414	-0.392
Mof_O 	O 	0.45497	0.7925	0.34395	-0.391
Mof_O 	O 	0.54462	0.20727	0.84414	-0.39
Mof_O 	O 	0.45497	0.2925	0.84395	-0.389
Mof_O 	O 	0.95538	0.70727	0.15586	-0.368
Mof_O 	O 	0.04503	0.7925	0.15605	-0.404
Mof_O 	O 	0.95538	0.20727	0.65586	-0.367
Mof_O 	O 	0.04503	0.2925	0.65605	-0.403
Mof_O 	O 	0.45538	0.70727	0.65586	-0.392
Mof_O 	O 	0.54503	0.7925	0.65605	-0.391
Mof_O 	O 	0.45538	0.20727	0.15586	-0.395
Mof_O 	O 	0.54503	0.2925	0.15605	-0.395
Mof_O 	O 	0.04462	0.15586	0.70727	-0.406
Mof_O 	O 	0.95497	0.15605	0.7925	-0.368
Mof_O 	O 	0.04462	0.65586	0.20727	-0.404
Mof_O 	O 	0.95497	0.65605	0.2925	-0.366
Mof_O 	O 	0.54462	0.15586	0.20727	-0.395
Mof_O 	O 	0.45497	0.15605	0.2925	-0.395
Mof_O 	O 	0.54462	0.65586	0.70727	-0.392
Mof_O 	O 	0.45497	0.65605	0.7925	-0.391
Mof_O 	O 	0.95538	0.84414	0.70727	-0.363
Mof_O 	O 	0.04503	0.84395	0.7925	-0.399
Mof_O 	O 	0.95538	0.34414	0.20727	-0.367
Mof_O 	O 	0.04503	0.34395	0.2925	-0.403
Mof_O 	O 	0.45538	0.84414	0.20727	-0.39
Mof_O 	O 	0.54503	0.84395	0.2925	-0.389
Mof_O 	O 	0.45538	0.34414	0.70727	-0.392
Mof_O 	O 	0.54503	0.34395	0.7925	-0.391
Mof_O 	O 	0.04462	0.84414	0.29273	-0.4
Mof_O 	O 	0.95497	0.84395	0.2075	-0.364
Mof_O 	O 	0.04462	0.34414	0.79273	-0.402
Mof_O 	O 	0.95497	0.34395	0.7075	-0.366
Mof_O 	O 	0.54462	0.84414	0.79273	-0.388
Mof_O 	O 	0.45497	0.84395	0.7075	-0.389
Mof_O 	O 	0.54462	0.34414	0.29273	-0.392
Mof_O 	O 	0.45497	0.34395	0.2075	-0.393
Mof_O 	O 	0.95538	0.15586	0.29273	-0.368
Mof_O 	O 	0.04503	0.15605	0.2075	-0.406
Mof_O 	O 	0.95538	0.65586	0.79273	-0.365
Mof_O 	O 	0.04503	0.65605	0.7075	-0.403
Mof_O 	O 	0.45538	0.15586	0.79273	-0.394
Mof_O 	O 	0.54503	0.15605	0.7075	-0.395
Mof_O 	O 	0.45538	0.65586	0.29273	-0.392
Mof_O 	O 	0.54503	0.65605	0.2075	-0.393
Mof_O 	O 	0.15586	0.29273	0.95538	-0.368
Mof_O 	O 	0.15605	0.2075	0.04503	-0.406
Mof_O 	O 	0.15586	0.79273	0.45538	-0.394
Mof_O 	O 	0.15605	0.7075	0.54503	-0.395
Mof_O 	O 	0.65586	0.29273	0.45538	-0.392
Mof_O 	O 	0.65605	0.2075	0.54503	-0.393
Mof_O 	O 	0.65586	0.79273	0.95538	-0.365
Mof_O 	O 	0.65605	0.7075	0.04503	-0.403
Mof_O 	O 	0.84414	0.29273	0.04462	-0.4
Mof_O 	O 	0.84395	0.2075	0.95497	-0.364
Mof_O 	O 	0.84414	0.79273	0.54462	-0.388
Mof_O 	O 	0.84395	0.7075	0.45497	-0.389
Mof_O 	O 	0.34414	0.29273	0.54462	-0.392
Mof_O 	O 	0.34395	0.2075	0.45497	-0.393
Mof_O 	O 	0.34414	0.79273	0.04462	-0.402
Mof_O 	O 	0.34395	0.7075	0.95497	-0.366
Mof_O 	O 	0.84414	0.70727	0.95538	-0.363
Mof_O 	O 	0.84395	0.7925	0.04503	-0.399
Mof_O 	O 	0.84414	0.20727	0.45538	-0.39
Mof_O 	O 	0.84395	0.2925	0.54503	-0.389
Mof_O 	O 	0.34414	0.70727	0.45538	-0.392
Mof_O 	O 	0.34395	0.7925	0.54503	-0.391
Mof_O 	O 	0.34414	0.20727	0.95538	-0.367
Mof_O 	O 	0.34395	0.2925	0.04503	-0.403
Mof_O 	O 	0.15586	0.70727	0.04462	-0.406
Mof_O 	O 	0.15605	0.7925	0.95497	-0.368
Mof_O 	O 	0.15586	0.20727	0.54462	-0.395
Mof_O 	O 	0.15605	0.2925	0.45497	-0.395
Mof_O 	O 	0.65586	0.70727	0.54462	-0.392
Mof_O 	O 	0.65605	0.7925	0.45497	-0.391
Mof_O 	O 	0.65586	0.20727	0.04462	-0.404
Mof_O 	O 	0.65605	0.2925	0.95497	-0.366
Mof_O 	O 	0.29273	0.04462	0.84414	-0.4
Mof_O 	O 	0.2075	0.95497	0.84395	-0.364
Mof_O 	O 	0.29273	0.54462	0.34414	-0.392
Mof_O 	O 	0.2075	0.45497	0.34395	-0.393
Mof_O 	O 	0.79273	0.04462	0.34414	-0.402
Mof_O 	O 	0.7075	0.95497	0.34395	-0.366
Mof_O 	O 	0.79273	0.54462	0.84414	-0.388
Mof_O 	O 	0.7075	0.45497	0.84395	-0.389
Mof_O 	O 	0.29273	0.95538	0.15586	-0.368
Mof_O 	O 	0.2075	0.04503	0.15605	-0.406
Mof_O 	O 	0.29273	0.45538	0.65586	-0.392
Mof_O 	O 	0.2075	0.54503	0.65605	-0.393
Mof_O 	O 	0.79273	0.95538	0.65586	-0.365
Mof_O 	O 	0.7075	0.04503	0.65605	-0.403
Mof_O 	O 	0.79273	0.45538	0.15586	-0.394
Mof_O 	O 	0.7075	0.54503	0.15605	-0.395
Mof_O 	O 	0.70727	0.04462	0.15586	-0.406
Mof_O 	O 	0.7925	0.95497	0.15605	-0.368
Mof_O 	O 	0.70727	0.54462	0.65586	-0.392
Mof_O 	O 	0.7925	0.45497	0.65605	-0.391
Mof_O 	O 	0.20727	0.04462	0.65586	-0.404
Mof_O 	O 	0.2925	0.95497	0.65605	-0.366
Mof_O 	O 	0.20727	0.54462	0.15586	-0.395
Mof_O 	O 	0.2925	0.45497	0.15605	-0.395
Mof_O 	O 	0.70727	0.95538	0.84414	-0.363
Mof_O 	O 	0.7925	0.04503	0.84395	-0.399
Mof_O 	O 	0.70727	0.45538	0.34414	-0.392
Mof_O 	O 	0.7925	0.54503	0.34395	-0.391
Mof_O 	O 	0.20727	0.95538	0.34414	-0.367
Mof_O 	O 	0.2925	0.04503	0.34395	-0.403
Mof_O 	O 	0.20727	0.45538	0.84414	-0.39
Mof_O 	O 	0.2925	0.54503	0.84395	-0.389
Mof_O 	O 	0.84414	0.95538	0.70727	-0.363
Mof_O 	O 	0.84395	0.04503	0.7925	-0.399
Mof_O 	O 	0.84414	0.45538	0.20727	-0.39
Mof_O 	O 	0.84395	0.54503	0.2925	-0.389
Mof_O 	O 	0.34414	0.95538	0.20727	-0.367
Mof_O 	O 	0.34395	0.04503	0.2925	-0.403
Mof_O 	O 	0.34414	0.45538	0.70727	-0.392
Mof_O 	O 	0.34395	0.54503	0.7925	-0.391
Mof_O 	O 	0.15586	0.04462	0.70727	-0.406
Mof_O 	O 	0.15605	0.95497	0.7925	-0.368
Mof_O 	O 	0.15586	0.54462	0.20727	-0.395
Mof_O 	O 	0.15605	0.45497	0.2925	-0.395
Mof_O 	O 	0.65586	0.04462	0.20727	-0.404
Mof_O 	O 	0.65605	0.95497	0.2925	-0.366
Mof_O 	O 	0.65586	0.54462	0.70727	-0.392
Mof_O 	O 	0.65605	0.45497	0.7925	-0.391
Mof_O 	O 	0.15586	0.95538	0.29273	-0.368
Mof_O 	O 	0.15605	0.04503	0.2075	-0.406
Mof_O 	O 	0.15586	0.45538	0.79273	-0.394
Mof_O 	O 	0.15605	0.54503	0.7075	-0.395
Mof_O 	O 	0.65586	0.95538	0.79273	-0.365
Mof_O 	O 	0.65605	0.04503	0.7075	-0.403
Mof_O 	O 	0.65586	0.45538	0.29273	-0.392
Mof_O 	O 	0.65605	0.54503	0.2075	-0.393
Mof_O 	O 	0.84414	0.04462	0.29273	-0.4
Mof_O 	O 	0.84395	0.95497	0.2075	-0.364
Mof_O 	O 	0.84414	0.54462	0.79273	-0.388
Mof_O 	O 	0.84395	0.45497	0.7075	-0.389
Mof_O 	O 	0.34414	0.04462	0.79273	-0.402
Mof_O 	O 	0.34395	0.95497	0.7075	-0.366
Mof_O 	O 	0.34414	0.54462	0.29273	-0.392
Mof_O 	O 	0.34395	0.45497	0.2075	-0.393
Mof_O 	O 	0.70727	0.84414	0.95538	-0.363
Mof_O 	O 	0.7925	0.84395	0.04503	-0.399
Mof_O 	O 	0.70727	0.34414	0.45538	-0.392
Mof_O 	O 	0.7925	0.34395	0.54503	-0.391
Mof_O 	O 	0.20727	0.84414	0.45538	-0.39
Mof_O 	O 	0.2925	0.84395	0.54503	-0.389
Mof_O 	O 	0.20727	0.34414	0.95538	-0.367
Mof_O 	O 	0.2925	0.34395	0.04503	-0.403
Mof_O 	O 	0.70727	0.15586	0.04462	-0.406
Mof_O 	O 	0.7925	0.15605	0.95497	-0.368
Mof_O 	O 	0.70727	0.65586	0.54462	-0.392
Mof_O 	O 	0.7925	0.65605	0.45497	-0.391
Mof_O 	O 	0.20727	0.15586	0.54462	-0.395
Mof_O 	O 	0.2925	0.15605	0.45497	-0.395
Mof_O 	O 	0.20727	0.65586	0.04462	-0.404
Mof_O 	O 	0.2925	0.65605	0.95497	-0.366
Mof_O 	O 	0.29273	0.15586	0.95538	-0.368
Mof_O 	O 	0.2075	0.15605	0.04503	-0.406
Mof_O 	O 	0.29273	0.65586	0.45538	-0.392
Mof_O 	O 	0.2075	0.65605	0.54503	-0.393
Mof_O 	O 	0.79273	0.15586	0.45538	-0.394
Mof_O 	O 	0.7075	0.15605	0.54503	-0.395
Mof_O 	O 	0.79273	0.65586	0.95538	-0.365
Mof_O 	O 	0.7075	0.65605	0.04503	-0.403
Mof_O 	O 	0.29273	0.84414	0.04462	-0.4
Mof_O 	O 	0.2075	0.84395	0.95497	-0.364
Mof_O 	O 	0.29273	0.34414	0.54462	-0.392
Mof_O 	O 	0.2075	0.34395	0.45497	-0.393
Mof_O 	O 	0.79273	0.84414	0.54462	-0.388
Mof_O 	O 	0.7075	0.84395	0.45497	-0.389
Mof_O 	O 	0.79273	0.34414	0.04462	-0.402
Mof_O 	O 	0.7075	0.34395	0.95497	-0.366
Mof_O 	O 	0.95538	0.70727	0.84414	-0.363
Mof_O 	O 	0.04503	0.7925	0.84395	-0.399
Mof_O 	O 	0.95538	0.20727	0.34414	-0.367
Mof_O 	O 	0.04503	0.2925	0.34395	-0.403
Mof_O 	O 	0.45538	0.70727	0.34414	-0.392
Mof_O 	O 	0.54503	0.7925	0.34395	-0.391
Mof_O 	O 	0.45538	0.20727	0.84414	-0.39
Mof_O 	O 	0.54503	0.2925	0.84395	-0.389
Mof_O 	O 	0.04462	0.70727	0.15586	-0.406
Mof_O 	O 	0.95497	0.7925	0.15605	-0.368
Mof_O 	O 	0.04462	0.20727	0.65586	-0.404
Mof_O 	O 	0.95497	0.2925	0.65605	-0.366
Mof_O 	O 	0.54462	0.70727	0.65586	-0.392
Mof_O 	O 	0.45497	0.7925	0.65605	-0.391
Mof_O 	O 	0.54462	0.20727	0.15586	-0.395
Mof_O 	O 	0.45497	0.2925	0.15605	-0.395
Mof_O 	O 	0.95538	0.29273	0.15586	-0.368
Mof_O 	O 	0.04503	0.2075	0.15605	-0.406
Mof_O 	O 	0.95538	0.79273	0.65586	-0.365
Mof_O 	O 	0.04503	0.7075	0.65605	-0.403
Mof_O 	O 	0.45538	0.29273	0.65586	-0.392
Mof_O 	O 	0.54503	0.2075	0.65605	-0.393
Mof_O 	O 	0.45538	0.79273	0.15586	-0.394
Mof_O 	O 	0.54503	0.7075	0.15605	-0.395
Mof_O 	O 	0.04462	0.29273	0.84414	-0.4
Mof_O 	O 	0.95497	0.2075	0.84395	-0.364
Mof_O 	O 	0.04462	0.79273	0.34414	-0.402
Mof_O 	O 	0.95497	0.7075	0.34395	-0.366
Mof_O 	O 	0.54462	0.29273	0.34414	-0.392
Mof_O 	O 	0.45497	0.2075	0.34395	-0.393
Mof_O 	O 	0.54462	0.79273	0.84414	-0.388
Mof_O 	O 	0.45497	0.7075	0.84395	-0.389
Mof_O 	O 	0.95538	0.84414	0.29273	-0.363
Mof_O 	O 	0.04503	0.84395	0.2075	-0.401
Mof_O 	O 	0.95538	0.34414	0.79273	-0.365
Mof_O 	O 	0.04503	0.34395	0.7075	-0.403
Mof_O 	O 	0.45538	0.84414	0.79273	-0.388
Mof_O 	O 	0.54503	0.84395	0.7075	-0.389
Mof_O 	O 	0.45538	0.34414	0.29273	-0.392
Mof_O 	O 	0.54503	0.34395	0.2075	-0.393
Mof_O 	O 	0.04462	0.15586	0.29273	-0.406
Mof_O 	O 	0.95497	0.15605	0.2075	-0.37
Mof_O 	O 	0.04462	0.65586	0.79273	-0.402
Mof_O 	O 	0.95497	0.65605	0.7075	-0.366
Mof_O 	O 	0.54462	0.15586	0.79273	-0.394
Mof_O 	O 	0.45497	0.15605	0.7075	-0.395
Mof_O 	O 	0.54462	0.65586	0.29273	-0.392
Mof_O 	O 	0.45497	0.65605	0.2075	-0.393
Mof_O 	O 	0.95538	0.15586	0.70727	-0.368
Mof_O 	O 	0.04503	0.15605	0.7925	-0.404
Mof_O 	O 	0.95538	0.65586	0.20727	-0.367
Mof_O 	O 	0.04503	0.65605	0.2925	-0.403
Mof_O 	O 	0.45538	0.15586	0.20727	-0.395
Mof_O 	O 	0.54503	0.15605	0.2925	-0.395
Mof_O 	O 	0.45538	0.65586	0.70727	-0.392
Mof_O 	O 	0.54503	0.65605	0.7925	-0.391
Mof_O 	O 	0.04462	0.84414	0.70727	-0.4
Mof_O 	O 	0.95497	0.84395	0.7925	-0.362
Mof_O 	O 	0.04462	0.34414	0.20727	-0.404
Mof_O 	O 	0.95497	0.34395	0.2925	-0.366
Mof_O 	O 	0.54462	0.84414	0.20727	-0.39
Mof_O 	O 	0.45497	0.84395	0.2925	-0.389
Mof_O 	O 	0.54462	0.34414	0.70727	-0.392
Mof_O 	O 	0.45497	0.34395	0.7925	-0.391
Mof_O 	O 	0.84414	0.70727	0.04462	-0.4
Mof_O 	O 	0.84395	0.7925	0.95497	-0.362
Mof_O 	O 	0.84414	0.20727	0.54462	-0.39
Mof_O 	O 	0.84395	0.2925	0.45497	-0.389
Mof_O 	O 	0.34414	0.70727	0.54462	-0.392
Mof_O 	O 	0.34395	0.7925	0.45497	-0.391
Mof_O 	O 	0.34414	0.20727	0.04462	-0.404
Mof_O 	O 	0.34395	0.2925	0.95497	-0.366
Mof_O 	O 	0.15586	0.70727	0.95538	-0.368
Mof_O 	O 	0.15605	0.7925	0.04503	-0.404
Mof_O 	O 	0.15586	0.20727	0.45538	-0.395
Mof_O 	O 	0.15605	0.2925	0.54503	-0.395
Mof_O 	O 	0.65586	0.70727	0.45538	-0.392
Mof_O 	O 	0.65605	0.7925	0.54503	-0.391
Mof_O 	O 	0.65586	0.20727	0.95538	-0.367
Mof_O 	O 	0.65605	0.2925	0.04503	-0.403
Mof_O 	O 	0.15586	0.29273	0.04462	-0.406
Mof_O 	O 	0.15605	0.2075	0.95497	-0.37
Mof_O 	O 	0.15586	0.79273	0.54462	-0.394
Mof_O 	O 	0.15605	0.7075	0.45497	-0.395
Mof_O 	O 	0.65586	0.29273	0.54462	-0.392
Mof_O 	O 	0.65605	0.2075	0.45497	-0.393
Mof_O 	O 	0.65586	0.79273	0.04462	-0.402
Mof_O 	O 	0.65605	0.7075	0.95497	-0.366
Mof_O 	O 	0.84414	0.29273	0.95538	-0.363
Mof_O 	O 	0.84395	0.2075	0.04503	-0.401
Mof_O 	O 	0.84414	0.79273	0.45538	-0.388
Mof_O 	O 	0.84395	0.7075	0.54503	-0.389
Mof_O 	O 	0.34414	0.29273	0.45538	-0.392
Mof_O 	O 	0.34395	0.2075	0.54503	-0.393
Mof_O 	O 	0.34414	0.79273	0.95538	-0.365
Mof_O 	O 	0.34395	0.7075	0.04503	-0.403
Mof_O 	O 	0.70727	0.95538	0.15586	-0.368
Mof_O 	O 	0.7925	0.04503	0.15605	-0.404
Mof_O 	O 	0.70727	0.45538	0.65586	-0.392
Mof_O 	O 	0.7925	0.54503	0.65605	-0.391
Mof_O 	O 	0.20727	0.95538	0.65586	-0.367
Mof_O 	O 	0.2925	0.04503	0.65605	-0.403
Mof_O 	O 	0.20727	0.45538	0.15586	-0.395
Mof_O 	O 	0.2925	0.54503	0.15605	-0.395
Mof_O 	O 	0.70727	0.04462	0.84414	-0.4
Mof_O 	O 	0.7925	0.95497	0.84395	-0.362
Mof_O 	O 	0.70727	0.54462	0.34414	-0.392
Mof_O 	O 	0.7925	0.45497	0.34395	-0.391
Mof_O 	O 	0.20727	0.04462	0.34414	-0.404
Mof_O 	O 	0.2925	0.95497	0.34395	-0.366
Mof_O 	O 	0.20727	0.54462	0.84414	-0.39
Mof_O 	O 	0.2925	0.45497	0.84395	-0.389
Mof_O 	O 	0.29273	0.95538	0.84414	-0.363
Mof_O 	O 	0.2075	0.04503	0.84395	-0.401
Mof_O 	O 	0.29273	0.45538	0.34414	-0.392
Mof_O 	O 	0.2075	0.54503	0.34395	-0.393
Mof_O 	O 	0.79273	0.95538	0.34414	-0.365
Mof_O 	O 	0.7075	0.04503	0.34395	-0.403
Mof_O 	O 	0.79273	0.45538	0.84414	-0.388
Mof_O 	O 	0.7075	0.54503	0.84395	-0.389
Mof_O 	O 	0.29273	0.04462	0.15586	-0.406
Mof_O 	O 	0.2075	0.95497	0.15605	-0.37
Mof_O 	O 	0.29273	0.54462	0.65586	-0.392
Mof_O 	O 	0.2075	0.45497	0.65605	-0.393
Mof_O 	O 	0.79273	0.04462	0.65586	-0.402
Mof_O 	O 	0.7075	0.95497	0.65605	-0.366
Mof_O 	O 	0.79273	0.54462	0.15586	-0.394
Mof_O 	O 	0.7075	0.45497	0.15605	-0.395
Mof_Cl	Cl	0.25	0	0.25	-0.704
Mof_Cl	Cl	0.25	0.5	0.75	-0.672
Mof_Cl	Cl	0.75	0	0.25	-0.705
Mof_Cl	Cl	0.75	0.5	0.75	-0.673
Mof_Cl	Cl	0.25	0.5	0.25	-0.671
Mof_Cl	Cl	0.75	-6.91775e-33	0.75	-0.706
Mof_Cl	Cl	0.75	0.5	0.25	-0.672
Mof_Cl	Cl	0.25	-6.91775e-33	0.75	-0.705
Mof_Cl	Cl	0.25	0.25	-0	-0.704
Mof_Cl	Cl	0.25	0.75	0.5	-0.672
Mof_Cl	Cl	0.25	0.75	-0	-0.705
Mof_Cl	Cl	0.25	0.25	0.5	-0.671
Mof_Cl	Cl	0.75	0.75	-0	-0.706
Mof_Cl	Cl	0.75	0.25	0.5	-0.672
Mof_Cl	Cl	0.75	0.25	-0	-0.705
Mof_Cl	Cl	0.75	0.75	0.5	-0.673
Mof_Cl	Cl	-7.92087e-34	0.25	0.25	-0.704
Mof_Cl	Cl	0.5	0.25	0.75	-0.672
Mof_Cl	Cl	-4.1057e-33	0.25	0.75	-0.705
Mof_Cl	Cl	0.5	0.25	0.25	-0.671
Mof_Cl	Cl	-1.10234e-32	0.75	0.75	-0.706
Mof_Cl	Cl	0.5	0.75	0.25	-0.672
Mof_Cl	Cl	-4.25096e-33	0.75	0.25	-0.705
Mof_Cl	Cl	0.5	0.75	0.75	-0.673
Mof_Cu	Cu	0.16761	0	0.24967	0.94
Mof_Cu	Cu	0.16761	0.5	0.74967	0.961
Mof_Cu	Cu	0.66761	-6.91775e-33	0.74967	0.94
Mof_Cu	Cu	0.66761	0.5	0.24967	0.962
Mof_Cu	Cu	0.83239	0	0.24967	0.941
Mof_Cu	Cu	0.83239	0.5	0.74967	0.962
Mof_Cu	Cu	0.33239	-6.91775e-33	0.74967	0.941
Mof_Cu	Cu	0.33239	0.5	0.24967	0.962
Mof_Cu	Cu	0.83239	0	0.75033	0.941
Mof_Cu	Cu	0.83239	0.5	0.25033	0.962
Mof_Cu	Cu	0.33239	-3.45887e-33	0.25033	0.941
Mof_Cu	Cu	0.33239	0.5	0.75033	0.962
Mof_Cu	Cu	0.16761	0	0.75033	0.94
Mof_Cu	Cu	0.16761	0.5	0.25033	0.961
Mof_Cu	Cu	0.66761	-3.45887e-33	0.25033	0.94
Mof_Cu	Cu	0.66761	0.5	0.75033	0.962
Mof_Cu	Cu	0.24967	0.16761	-0	0.94
Mof_Cu	Cu	0.24967	0.66761	0.5	0.962
Mof_Cu	Cu	0.74967	0.16761	0.5	0.961
Mof_Cu	Cu	0.74967	0.66761	-0	0.94
Mof_Cu	Cu	0.24967	0.83239	-0	0.941
Mof_Cu	Cu	0.24967	0.33239	0.5	0.962
Mof_Cu	Cu	0.74967	0.83239	0.5	0.962
Mof_Cu	Cu	0.74967	0.33239	-0	0.941
Mof_Cu	Cu	0.75033	0.83239	-0	0.941
Mof_Cu	Cu	0.75033	0.33239	0.5	0.962
Mof_Cu	Cu	0.25033	0.83239	0.5	0.962
Mof_Cu	Cu	0.25033	0.33239	-0	0.941
Mof_Cu	Cu	0.75033	0.16761	-0	0.94
Mof_Cu	Cu	0.75033	0.66761	0.5	0.962
Mof_Cu	Cu	0.25033	0.16761	0.5	0.961
Mof_Cu	Cu	0.25033	0.66761	-0	0.94
Mof_Cu	Cu	-1.101e-33	0.24967	0.16761	0.94
Mof_Cu	Cu	-1.13324e-32	0.74967	0.66761	0.94
Mof_Cu	Cu	0.5	0.24967	0.66761	0.962
Mof_Cu	Cu	0.5	0.74967	0.16761	0.961
Mof_Cu	Cu	-1.76323e-32	0.24967	0.83239	0.941
Mof_Cu	Cu	-1.25892e-32	0.74967	0.33239	0.941
Mof_Cu	Cu	0.5	0.24967	0.33239	0.962
Mof_Cu	Cu	0.5	0.74967	0.83239	0.962
Mof_Cu	Cu	3.12096e-33	0.75033	0.83239	0.941
Mof_Cu	Cu	-5.67149e-33	0.25033	0.33239	0.941
Mof_Cu	Cu	0.5	0.75033	0.33239	0.962
Mof_Cu	Cu	0.5	0.25033	0.83239	0.962
Mof_Cu	Cu	-1.101e-33	0.75033	0.16761	0.94
Mof_Cu	Cu	-4.41461e-33	0.25033	0.66761	0.94
Mof_Cu	Cu	0.5	0.75033	0.66761	0.962
Mof_Cu	Cu	0.5	0.25033	0.16761	0.961
Mof_Cu	Cu	-4.10446e-33	0.16761	0.75033	0.94
Mof_Cu	Cu	-4.24972e-33	0.66761	0.25033	0.94
Mof_Cu	Cu	0.5	0.16761	0.25033	0.961
Mof_Cu	Cu	0.5	0.66761	0.75033	0.962
Mof_Cu	Cu	2.81329e-33	0.83239	0.75033	0.941
Mof_Cu	Cu	-4.24972e-33	0.33239	0.25033	0.941
Mof_Cu	Cu	0.5	0.83239	0.25033	0.962
Mof_Cu	Cu	0.5	0.33239	0.75033	0.962
Mof_Cu	Cu	-1.28994e-32	0.83239	0.24967	0.941
Mof_Cu	Cu	-1.10247e-32	0.33239	0.74967	0.941
Mof_Cu	Cu	0.5	0.83239	0.74967	0.962
Mof_Cu	Cu	0.5	0.33239	0.24967	0.962
Mof_Cu	Cu	-2.52276e-33	0.16761	0.24967	0.94
Mof_Cu	Cu	-1.10247e-32	0.66761	0.74967	0.94
Mof_Cu	Cu	0.5	0.16761	0.74967	0.961
Mof_Cu	Cu	0.5	0.66761	0.24967	0.962
Mof_Cu	Cu	0.16761	0.24967	-0	0.94
Mof_Cu	Cu	0.16761	0.74967	0.5	0.961
Mof_Cu	Cu	0.66761	0.24967	0.5	0.962
Mof_Cu	Cu	0.66761	0.74967	-0	0.94
Mof_Cu	Cu	0.83239	0.24967	-0	0.941
Mof_Cu	Cu	0.83239	0.74967	0.5	0.962
Mof_Cu	Cu	0.33239	0.24967	0.5	0.962
Mof_Cu	Cu	0.33239	0.74967	-0	0.941
Mof_Cu	Cu	0.83239	0.75033	-0	0.941
Mof_Cu	Cu	0.83239	0.25033	0.5	0.962
Mof_Cu	Cu	0.33239	0.75033	0.5	0.962
Mof_Cu	Cu	0.33239	0.25033	-0	0.941
Mof_Cu	Cu	0.16761	0.75033	-0	0.94
Mof_Cu	Cu	0.16761	0.25033	0.5	0.961
Mof_Cu	Cu	0.66761	0.75033	0.5	0.962
Mof_Cu	Cu	0.66761	0.25033	-0	0.94
Mof_Cu	Cu	0.24967	0	0.83239	0.941
Mof_Cu	Cu	0.24967	0.5	0.33239	0.962
Mof_Cu	Cu	0.74967	-3.45887e-33	0.33239	0.941
Mof_Cu	Cu	0.74967	0.5	0.83239	0.962
Mof_Cu	Cu	0.24967	-1.72944e-33	0.16761	0.94
Mof_Cu	Cu	0.24967	0.5	0.66761	0.962
Mof_Cu	Cu	0.74967	-6.91775e-33	0.66761	0.94
Mof_Cu	Cu	0.74967	0.5	0.16761	0.961
Mof_Cu	Cu	0.75033	-1.72944e-33	0.16761	0.94
Mof_Cu	Cu	0.75033	0.5	0.66761	0.962
Mof_Cu	Cu	0.25033	-6.91775e-33	0.66761	0.94
Mof_Cu	Cu	0.25033	0.5	0.16761	0.961
Mof_Cu	Cu	0.75033	0	0.83239	0.941
Mof_Cu	Cu	0.75033	0.5	0.33239	0.962
Mof_Cu	Cu	0.25033	-3.45887e-33	0.33239	0.941
Mof_Cu	Cu	0.25033	0.5	0.83239	0.962
Mof_C 	C 	0.17338	0.05822	0.32662	0.4
Mof_C 	C 	0.15235	0.0969	0.34765	-0.134
Mof_C 	C 	0.17338	0.55822	0.82662	0.399
Mof_C 	C 	0.15235	0.5969	0.84765	-0.123
Mof_C 	C 	0.82662	0.94178	0.32662	0.395
Mof_C 	C 	0.84765	0.9031	0.34765	-0.11
Mof_C 	C 	0.82662	0.44178	0.82662	0.398
Mof_C 	C 	0.84765	0.4031	0.84765	-0.115
Mof_C 	C 	0.32662	0.44178	0.32662	0.4
Mof_C 	C 	0.34765	0.4031	0.34765	-0.125
Mof_C 	C 	0.82662	0.05822	0.67338	0.398
Mof_C 	C 	0.84765	0.0969	0.65235	-0.126
Mof_C 	C 	0.82662	0.55822	0.17338	0.399
Mof_C 	C 	0.84765	0.5969	0.15235	-0.123
Mof_C 	C 	0.32662	0.05822	0.17338	0.4
Mof_C 	C 	0.34765	0.0969	0.15235	-0.134
Mof_C 	C 	0.17338	0.94178	0.67338	0.396
Mof_C 	C 	0.15235	0.9031	0.65235	-0.119
Mof_C 	C 	0.17338	0.44178	0.17338	0.4
Mof_C 	C 	0.15235	0.4031	0.15235	-0.132
Mof_C 	C 	0.32662	0.17338	0.05822	0.4
Mof_C 	C 	0.34765	0.15235	0.0969	-0.134
Mof_C 	C 	0.32662	0.67338	0.55822	0.4
Mof_C 	C 	0.34765	0.65235	0.5969	-0.125
Mof_C 	C 	0.32662	0.82662	0.94178	0.395
Mof_C 	C 	0.34765	0.84765	0.9031	-0.11
Mof_C 	C 	0.32662	0.32662	0.44178	0.4
Mof_C 	C 	0.34765	0.34765	0.4031	-0.125
Mof_C 	C 	0.67338	0.82662	0.05822	0.398
Mof_C 	C 	0.65235	0.84765	0.0969	-0.126
Mof_C 	C 	0.67338	0.32662	0.55822	0.4
Mof_C 	C 	0.65235	0.34765	0.5969	-0.125
Mof_C 	C 	0.17338	0.32662	0.05822	0.4
Mof_C 	C 	0.15235	0.34765	0.0969	-0.134
Mof_C 	C 	0.67338	0.17338	0.94178	0.396
Mof_C 	C 	0.65235	0.15235	0.9031	-0.119
Mof_C 	C 	0.67338	0.67338	0.44178	0.399
Mof_C 	C 	0.65235	0.65235	0.4031	-0.125
Mof_C 	C 	0.17338	0.17338	0.44178	0.4
Mof_C 	C 	0.15235	0.15235	0.4031	-0.132
Mof_C 	C 	0.05822	0.32662	0.17338	0.4
Mof_C 	C 	0.0969	0.34765	0.15235	-0.134
Mof_C 	C 	0.55822	0.32662	0.67338	0.4
Mof_C 	C 	0.5969	0.34765	0.65235	-0.125
Mof_C 	C 	0.94178	0.32662	0.82662	0.395
Mof_C 	C 	0.9031	0.34765	0.84765	-0.11
Mof_C 	C 	0.44178	0.32662	0.32662	0.4
Mof_C 	C 	0.4031	0.34765	0.34765	-0.125
Mof_C 	C 	0.05822	0.67338	0.82662	0.398
Mof_C 	C 	0.0969	0.65235	0.84765	-0.126
Mof_C 	C 	0.05822	0.17338	0.32662	0.4
Mof_C 	C 	0.0969	0.15235	0.34765	-0.134
Mof_C 	C 	0.55822	0.67338	0.32662	0.4
Mof_C 	C 	0.5969	0.65235	0.34765	-0.125
Mof_C 	C 	0.94178	0.67338	0.17338	0.396
Mof_C 	C 	0.9031	0.65235	0.15235	-0.119
Mof_C 	C 	0.44178	0.67338	0.67338	0.399
Mof_C 	C 	0.4031	0.65235	0.65235	-0.125
Mof_C 	C 	0.44178	0.17338	0.17338	0.4
Mof_C 	C 	0.4031	0.15235	0.15235	-0.132
Mof_C 	C 	0.05822	0.17338	0.67338	0.399
Mof_C 	C 	0.0969	0.15235	0.65235	-0.134
Mof_C 	C 	0.55822	0.17338	0.17338	0.4
Mof_C 	C 	0.5969	0.15235	0.15235	-0.132
Mof_C 	C 	0.94178	0.82662	0.67338	0.395
Mof_C 	C 	0.9031	0.84765	0.65235	-0.11
Mof_C 	C 	0.94178	0.32662	0.17338	0.396
Mof_C 	C 	0.9031	0.34765	0.15235	-0.119
Mof_C 	C 	0.44178	0.82662	0.17338	0.399
Mof_C 	C 	0.4031	0.84765	0.15235	-0.123
Mof_C 	C 	0.05822	0.82662	0.32662	0.399
Mof_C 	C 	0.0969	0.84765	0.34765	-0.126
Mof_C 	C 	0.55822	0.82662	0.82662	0.398
Mof_C 	C 	0.5969	0.84765	0.84765	-0.115
Mof_C 	C 	0.55822	0.32662	0.32662	0.4
Mof_C 	C 	0.5969	0.34765	0.34765	-0.125
Mof_C 	C 	0.94178	0.17338	0.32662	0.396
Mof_C 	C 	0.9031	0.15235	0.34765	-0.119
Mof_C 	C 	0.44178	0.17338	0.82662	0.399
Mof_C 	C 	0.4031	0.15235	0.84765	-0.123
Mof_C 	C 	0.17338	0.32662	0.94178	0.396
Mof_C 	C 	0.15235	0.34765	0.9031	-0.119
Mof_C 	C 	0.17338	0.82662	0.44178	0.399
Mof_C 	C 	0.15235	0.84765	0.4031	-0.123
Mof_C 	C 	0.82662	0.32662	0.05822	0.399
Mof_C 	C 	0.84765	0.34765	0.0969	-0.126
Mof_C 	C 	0.82662	0.82662	0.55822	0.398
Mof_C 	C 	0.84765	0.84765	0.5969	-0.115
Mof_C 	C 	0.32662	0.32662	0.55822	0.4
Mof_C 	C 	0.34765	0.34765	0.5969	-0.125
Mof_C 	C 	0.82662	0.67338	0.94178	0.395
Mof_C 	C 	0.84765	0.65235	0.9031	-0.11
Mof_C 	C 	0.82662	0.17338	0.44178	0.399
Mof_C 	C 	0.84765	0.15235	0.4031	-0.123
Mof_C 	C 	0.32662	0.17338	0.94178	0.396
Mof_C 	C 	0.34765	0.15235	0.9031	-0.119
Mof_C 	C 	0.17338	0.67338	0.05822	0.399
Mof_C 	C 	0.15235	0.65235	0.0969	-0.134
Mof_C 	C 	0.17338	0.17338	0.55822	0.4
Mof_C 	C 	0.15235	0.15235	0.5969	-0.132
Mof_C 	C 	0.32662	0.05822	0.82662	0.399
Mof_C 	C 	0.34765	0.0969	0.84765	-0.126
Mof_C 	C 	0.32662	0.55822	0.32662	0.4
Mof_C 	C 	0.34765	0.5969	0.34765	-0.125
Mof_C 	C 	0.32662	0.94178	0.17338	0.396
Mof_C 	C 	0.34765	0.9031	0.15235	-0.119
Mof_C 	C 	0.32662	0.44178	0.67338	0.4
Mof_C 	C 	0.34765	0.4031	0.65235	-0.125
Mof_C 	C 	0.67338	0.05822	0.17338	0.399
Mof_C 	C 	0.65235	0.0969	0.15235	-0.134
Mof_C 	C 	0.67338	0.55822	0.67338	0.399
Mof_C 	C 	0.65235	0.5969	0.65235	-0.125
Mof_C 	C 	0.17338	0.55822	0.17338	0.4
Mof_C 	C 	0.15235	0.5969	0.15235	-0.132
Mof_C 	C 	0.67338	0.94178	0.82662	0.395
Mof_C 	C 	0.65235	0.9031	0.84765	-0.11
Mof_C 	C 	0.67338	0.44178	0.32662	0.4
Mof_C 	C 	0.65235	0.4031	0.34765	-0.125
Mof_C 	C 	0.17338	0.94178	0.32662	0.396
Mof_C 	C 	0.15235	0.9031	0.34765	-0.119
Mof_C 	C 	0.82662	0.94178	0.67338	0.395
Mof_C 	C 	0.84765	0.9031	0.65235	-0.11
Mof_C 	C 	0.82662	0.44178	0.17338	0.399
Mof_C 	C 	0.84765	0.4031	0.15235	-0.123
Mof_C 	C 	0.17338	0.05822	0.67338	0.399
Mof_C 	C 	0.15235	0.0969	0.65235	-0.134
Mof_C 	C 	0.17338	0.44178	0.82662	0.399
Mof_C 	C 	0.15235	0.4031	0.84765	-0.123
Mof_C 	C 	0.82662	0.05822	0.32662	0.399
Mof_C 	C 	0.84765	0.0969	0.34765	-0.126
Mof_C 	C 	0.82662	0.55822	0.82662	0.398
Mof_C 	C 	0.84765	0.5969	0.84765	-0.115
Mof_C 	C 	0.67338	0.82662	0.94178	0.395
Mof_C 	C 	0.65235	0.84765	0.9031	-0.11
Mof_C 	C 	0.67338	0.32662	0.44178	0.4
Mof_C 	C 	0.65235	0.34765	0.4031	-0.125
Mof_C 	C 	0.67338	0.17338	0.05822	0.399
Mof_C 	C 	0.65235	0.15235	0.0969	-0.134
Mof_C 	C 	0.67338	0.67338	0.55822	0.399
Mof_C 	C 	0.65235	0.65235	0.5969	-0.125
Mof_C 	C 	0.32662	0.67338	0.44178	0.4
Mof_C 	C 	0.34765	0.65235	0.4031	-0.125
Mof_C 	C 	0.32662	0.82662	0.05822	0.399
Mof_C 	C 	0.34765	0.84765	0.0969	-0.126
Mof_C 	C 	0.94178	0.67338	0.82662	0.395
Mof_C 	C 	0.9031	0.65235	0.84765	-0.11
Mof_C 	C 	0.44178	0.67338	0.32662	0.4
Mof_C 	C 	0.4031	0.65235	0.34765	-0.125
Mof_C 	C 	0.05822	0.67338	0.17338	0.399
Mof_C 	C 	0.0969	0.65235	0.15235	-0.134
Mof_C 	C 	0.55822	0.67338	0.67338	0.399
Mof_C 	C 	0.5969	0.65235	0.65235	-0.125
Mof_C 	C 	0.44178	0.32662	0.67338	0.4
Mof_C 	C 	0.4031	0.34765	0.65235	-0.125
Mof_C 	C 	0.05822	0.32662	0.82662	0.399
Mof_C 	C 	0.0969	0.34765	0.84765	-0.126
Mof_C 	C 	0.94178	0.82662	0.32662	0.395
Mof_C 	C 	0.9031	0.84765	0.34765	-0.11
Mof_C 	C 	0.44178	0.82662	0.82662	0.398
Mof_C 	C 	0.4031	0.84765	0.84765	-0.115
Mof_C 	C 	0.55822	0.17338	0.82662	0.399
Mof_C 	C 	0.5969	0.15235	0.84765	-0.123
Mof_C 	C 	0.94178	0.17338	0.67338	0.396
Mof_C 	C 	0.9031	0.15235	0.65235	-0.119
Mof_C 	C 	0.05822	0.82662	0.67338	0.398
Mof_C 	C 	0.0969	0.84765	0.65235	-0.126
Mof_C 	C 	0.55822	0.82662	0.17338	0.399
Mof_C 	C 	0.5969	0.84765	0.15235	-0.123
Mof_C 	C 	0.82662	0.67338	0.05822	0.398
Mof_C 	C 	0.84765	0.65235	0.0969	-0.126
Mof_C 	C 	0.82662	0.17338	0.55822	0.399
Mof_C 	C 	0.84765	0.15235	0.5969	-0.123
Mof_C 	C 	0.17338	0.67338	0.94178	0.396
Mof_C 	C 	0.15235	0.65235	0.9031	-0.119
Mof_C 	C 	0.17338	0.82662	0.55822	0.399
Mof_C 	C 	0.15235	0.84765	0.5969	-0.123
Mof_C 	C 	0.82662	0.32662	0.94178	0.395
Mof_C 	C 	0.84765	0.34765	0.9031	-0.11
Mof_C 	C 	0.82662	0.82662	0.44178	0.398
Mof_C 	C 	0.84765	0.84765	0.4031	-0.115
Mof_C 	C 	0.67338	0.94178	0.17338	0.396
Mof_C 	C 	0.65235	0.9031	0.15235	-0.119
Mof_C 	C 	0.67338	0.44178	0.67338	0.399
Mof_C 	C 	0.65235	0.4031	0.65235	-0.125
Mof_C 	C 	0.67338	0.05822	0.82662	0.398
Mof_C 	C 	0.65235	0.0969	0.84765	-0.126
Mof_C 	C 	0.67338	0.55822	0.32662	0.4
Mof_C 	C 	0.65235	0.5969	0.34765	-0.125
Mof_C 	C 	0.32662	0.94178	0.82662	0.395
Mof_C 	C 	0.34765	0.9031	0.84765	-0.11
Mof_C 	C 	0.32662	0.55822	0.67338	0.4
Mof_C 	C 	0.34765	0.5969	0.65235	-0.125
Mof_C 	C 	0.11513	0.11513	0.32949	0.074
Mof_H 	H 	0.1027	0.1027	0.305	0.036
Mof_C 	C 	0.11513	0.61513	0.82949	0.07
Mof_H 	H 	0.1027	0.6027	0.805	0.042
Mof_C 	C 	0.61513	0.11513	0.82949	0.07
Mof_H 	H 	0.6027	0.1027	0.805	0.042
Mof_C 	C 	0.61513	0.61513	0.32949	0.071
Mof_H 	H 	0.6027	0.6027	0.305	0.044
Mof_C 	C 	0.88487	0.88487	0.32949	0.064
Mof_H 	H 	0.8973	0.8973	0.305	0.055
Mof_C 	C 	0.88487	0.38487	0.82949	0.065
Mof_H 	H 	0.8973	0.3973	0.805	0.051
Mof_C 	C 	0.38487	0.88487	0.82949	0.065
Mof_H 	H 	0.3973	0.8973	0.805	0.051
Mof_C 	C 	0.38487	0.38487	0.32949	0.071
Mof_H 	H 	0.3973	0.3973	0.305	0.045
Mof_C 	C 	0.88487	0.11513	0.67051	0.069
Mof_H 	H 	0.8973	0.1027	0.695	0.046
Mof_C 	C 	0.88487	0.61513	0.17051	0.069
Mof_H 	H 	0.8973	0.6027	0.195	0.049
Mof_C 	C 	0.38487	0.11513	0.17051	0.074
Mof_H 	H 	0.3973	0.1027	0.195	0.039
Mof_C 	C 	0.38487	0.61513	0.67051	0.071
Mof_H 	H 	0.3973	0.6027	0.695	0.045
Mof_C 	C 	0.11513	0.88487	0.67051	0.069
Mof_H 	H 	0.1027	0.8973	0.695	0.046
Mof_C 	C 	0.11513	0.38487	0.17051	0.074
Mof_H 	H 	0.1027	0.3973	0.195	0.039
Mof_C 	C 	0.61513	0.88487	0.17051	0.069
Mof_H 	H 	0.6027	0.8973	0.195	0.049
Mof_C 	C 	0.61513	0.38487	0.67051	0.071
Mof_H 	H 	0.6027	0.3973	0.695	0.045
Mof_C 	C 	0.32949	0.11513	0.11513	0.074
Mof_H 	H 	0.305	0.1027	0.1027	0.036
Mof_C 	C 	0.32949	0.61513	0.61513	0.071
Mof_H 	H 	0.305	0.6027	0.6027	0.044
Mof_C 	C 	0.82949	0.11513	0.61513	0.07
Mof_H 	H 	0.805	0.1027	0.6027	0.042
Mof_C 	C 	0.82949	0.61513	0.11513	0.07
Mof_H 	H 	0.805	0.6027	0.1027	0.042
Mof_C 	C 	0.32949	0.88487	0.88487	0.064
Mof_H 	H 	0.305	0.8973	0.8973	0.055
Mof_C 	C 	0.32949	0.38487	0.38487	0.071
Mof_H 	H 	0.305	0.3973	0.3973	0.045
Mof_C 	C 	0.82949	0.88487	0.38487	0.065
Mof_H 	H 	0.805	0.8973	0.3973	0.051
Mof_C 	C 	0.82949	0.38487	0.88487	0.065
Mof_H 	H 	0.805	0.3973	0.8973	0.051
Mof_C 	C 	0.67051	0.88487	0.11513	0.069
Mof_H 	H 	0.695	0.8973	0.1027	0.046
Mof_C 	C 	0.67051	0.38487	0.61513	0.071
Mof_H 	H 	0.695	0.3973	0.6027	0.045
Mof_C 	C 	0.17051	0.88487	0.61513	0.069
Mof_H 	H 	0.195	0.8973	0.6027	0.049
Mof_C 	C 	0.17051	0.38487	0.11513	0.074
Mof_H 	H 	0.195	0.3973	0.1027	0.039
Mof_C 	C 	0.67051	0.11513	0.88487	0.069
Mof_H 	H 	0.695	0.1027	0.8973	0.046
Mof_C 	C 	0.67051	0.61513	0.38487	0.071
Mof_H 	H 	0.695	0.6027	0.3973	0.045
Mof_C 	C 	0.17051	0.11513	0.38487	0.074
Mof_H 	H 	0.195	0.1027	0.3973	0.039
Mof_C 	C 	0.17051	0.61513	0.88487	0.069
Mof_H 	H 	0.195	0.6027	0.8973	0.049
Mof_C 	C 	0.11513	0.32949	0.11513	0.074
Mof_H 	H 	0.1027	0.305	0.1027	0.036
Mof_C 	C 	0.11513	0.82949	0.61513	0.07
Mof_H 	H 	0.1027	0.805	0.6027	0.042
Mof_C 	C 	0.61513	0.32949	0.61513	0.071
Mof_H 	H 	0.6027	0.305	0.6027	0.044
Mof_C 	C 	0.61513	0.82949	0.11513	0.07
Mof_H 	H 	0.6027	0.805	0.1027	0.042
Mof_C 	C 	0.88487	0.32949	0.88487	0.064
Mof_H 	H 	0.8973	0.305	0.8973	0.055
Mof_C 	C 	0.88487	0.82949	0.38487	0.065
Mof_H 	H 	0.8973	0.805	0.3973	0.051
Mof_C 	C 	0.38487	0.32949	0.38487	0.071
Mof_H 	H 	0.3973	0.305	0.3973	0.045
Mof_C 	C 	0.38487	0.82949	0.88487	0.065
Mof_H 	H 	0.3973	0.805	0.8973	0.051
Mof_C 	C 	0.11513	0.67051	0.88487	0.069
Mof_H 	H 	0.1027	0.695	0.8973	0.046
Mof_C 	C 	0.11513	0.17051	0.38487	0.074
Mof_H 	H 	0.1027	0.195	0.3973	0.039
Mof_C 	C 	0.61513	0.67051	0.38487	0.071
Mof_H 	H 	0.6027	0.695	0.3973	0.045
Mof_C 	C 	0.61513	0.17051	0.88487	0.069
Mof_H 	H 	0.6027	0.195	0.8973	0.049
Mof_C 	C 	0.88487	0.67051	0.11513	0.069
Mof_H 	H 	0.8973	0.695	0.1027	0.046
Mof_C 	C 	0.88487	0.17051	0.61513	0.069
Mof_H 	H 	0.8973	0.195	0.6027	0.049
Mof_C 	C 	0.38487	0.67051	0.61513	0.071
Mof_H 	H 	0.3973	0.695	0.6027	0.045
Mof_C 	C 	0.38487	0.17051	0.11513	0.074
Mof_H 	H 	0.3973	0.195	0.1027	0.039
Mof_C 	C 	0.11513	0.11513	0.67051	0.074
Mof_H 	H 	0.1027	0.1027	0.695	0.036
Mof_C 	C 	0.11513	0.61513	0.17051	0.074
Mof_H 	H 	0.1027	0.6027	0.195	0.039
Mof_C 	C 	0.61513	0.11513	0.17051	0.074
Mof_H 	H 	0.6027	0.1027	0.195	0.039
Mof_C 	C 	0.61513	0.61513	0.67051	0.07
Mof_H 	H 	0.6027	0.6027	0.695	0.045
Mof_C 	C 	0.88487	0.88487	0.67051	0.064
Mof_H 	H 	0.8973	0.8973	0.695	0.055
Mof_C 	C 	0.88487	0.38487	0.17051	0.069
Mof_H 	H 	0.8973	0.3973	0.195	0.049
Mof_C 	C 	0.38487	0.88487	0.17051	0.069
Mof_H 	H 	0.3973	0.8973	0.195	0.049
Mof_C 	C 	0.38487	0.38487	0.67051	0.071
Mof_H 	H 	0.3973	0.3973	0.695	0.045
Mof_C 	C 	0.11513	0.88487	0.32949	0.069
Mof_H 	H 	0.1027	0.8973	0.305	0.045
Mof_C 	C 	0.11513	0.38487	0.82949	0.07
Mof_H 	H 	0.1027	0.3973	0.805	0.042
Mof_C 	C 	0.61513	0.88487	0.82949	0.065
Mof_H 	H 	0.6027	0.8973	0.805	0.051
Mof_C 	C 	0.61513	0.38487	0.32949	0.071
Mof_H 	H 	0.6027	0.3973	0.305	0.044
Mof_C 	C 	0.88487	0.11513	0.32949	0.069
Mof_H 	H 	0.8973	0.1027	0.305	0.045
Mof_C 	C 	0.88487	0.61513	0.82949	0.065
Mof_H 	H 	0.8973	0.6027	0.805	0.051
Mof_C 	C 	0.38487	0.11513	0.82949	0.07
Mof_H 	H 	0.3973	0.1027	0.805	0.042
Mof_C 	C 	0.38487	0.61513	0.32949	0.071
Mof_H 	H 	0.3973	0.6027	0.305	0.044
Mof_C 	C 	0.11513	0.32949	0.88487	0.069
Mof_H 	H 	0.1027	0.305	0.8973	0.045
Mof_C 	C 	0.11513	0.82949	0.38487	0.07
Mof_H 	H 	0.1027	0.805	0.3973	0.042
Mof_C 	C 	0.61513	0.32949	0.38487	0.071
Mof_H 	H 	0.6027	0.305	0.3973	0.044
Mof_C 	C 	0.61513	0.82949	0.88487	0.065
Mof_H 	H 	0.6027	0.805	0.8973	0.051
Mof_C 	C 	0.88487	0.32949	0.11513	0.069
Mof_H 	H 	0.8973	0.305	0.1027	0.045
Mof_C 	C 	0.88487	0.82949	0.61513	0.065
Mof_H 	H 	0.8973	0.805	0.6027	0.051
Mof_C 	C 	0.38487	0.32949	0.61513	0.071
Mof_H 	H 	0.3973	0.305	0.6027	0.044
Mof_C 	C 	0.38487	0.82949	0.11513	0.07
Mof_H 	H 	0.3973	0.805	0.1027	0.042
Mof_C 	C 	0.88487	0.67051	0.88487	0.064
Mof_H 	H 	0.8973	0.695	0.8973	0.055
Mof_C 	C 	0.88487	0.17051	0.38487	0.069
Mof_H 	H 	0.8973	0.195	0.3973	0.049
Mof_C 	C 	0.38487	0.67051	0.38487	0.071
Mof_H 	H 	0.3973	0.695	0.3973	0.045
Mof_C 	C 	0.38487	0.17051	0.88487	0.069
Mof_H 	H 	0.3973	0.195	0.8973	0.049
Mof_C 	C 	0.11513	0.67051	0.11513	0.074
Mof_H 	H 	0.1027	0.695	0.1027	0.036
Mof_C 	C 	0.11513	0.17051	0.61513	0.074
Mof_H 	H 	0.1027	0.195	0.6027	0.039
Mof_C 	C 	0.61513	0.67051	0.61513	0.07
Mof_H 	H 	0.6027	0.695	0.6027	0.045
Mof_C 	C 	0.61513	0.17051	0.11513	0.074
Mof_H 	H 	0.6027	0.195	0.1027	0.039
Mof_C 	C 	0.32949	0.11513	0.88487	0.069
Mof_H 	H 	0.305	0.1027	0.8973	0.045
Mof_C 	C 	0.32949	0.61513	0.38487	0.071
Mof_H 	H 	0.305	0.6027	0.3973	0.044
Mof_C 	C 	0.82949	0.11513	0.38487	0.07
Mof_H 	H 	0.805	0.1027	0.3973	0.042
Mof_C 	C 	0.82949	0.61513	0.88487	0.065
Mof_H 	H 	0.805	0.6027	0.8973	0.051
Mof_C 	C 	0.32949	0.88487	0.11513	0.069
Mof_H 	H 	0.305	0.8973	0.1027	0.045
Mof_C 	C 	0.32949	0.38487	0.61513	0.071
Mof_H 	H 	0.305	0.3973	0.6027	0.044
Mof_C 	C 	0.82949	0.88487	0.61513	0.065
Mof_H 	H 	0.805	0.8973	0.6027	0.051
Mof_C 	C 	0.82949	0.38487	0.11513	0.07
Mof_H 	H 	0.805	0.3973	0.1027	0.042
Mof_C 	C 	0.67051	0.11513	0.11513	0.074
Mof_H 	H 	0.695	0.1027	0.1027	0.036
Mof_C 	C 	0.67051	0.61513	0.61513	0.07
Mof_H 	H 	0.695	0.6027	0.6027	0.045
Mof_C 	C 	0.17051	0.11513	0.61513	0.074
Mof_H 	H 	0.195	0.1027	0.6027	0.039
Mof_C 	C 	0.17051	0.61513	0.11513	0.074
Mof_H 	H 	0.195	0.6027	0.1027	0.039
Mof_C 	C 	0.67051	0.88487	0.88487	0.064
Mof_H 	H 	0.695	0.8973	0.8973	0.055
Mof_C 	C 	0.67051	0.38487	0.38487	0.071
Mof_H 	H 	0.695	0.3973	0.3973	0.045
Mof_C 	C 	0.17051	0.88487	0.38487	0.069
Mof_H 	H 	0.195	0.8973	0.3973	0.049
Mof_C 	C 	0.17051	0.38487	0.88487	0.069
Mof_H 	H 	0.195	0.3973	0.8973	0.049
Mof_C 	C 	0.17321	0.94126	0.17321	0.393
Mof_C 	C 	0.15185	0.9034	0.15185	-0.128
Mof_C 	C 	0.17321	0.44126	0.67321	0.396
Mof_C 	C 	0.15185	0.4034	0.65185	-0.134
Mof_C 	C 	0.67321	0.94126	0.67321	0.391
Mof_C 	C 	0.65185	0.9034	0.65185	-0.12
Mof_C 	C 	0.67321	0.44126	0.17321	0.396
Mof_C 	C 	0.65185	0.4034	0.15185	-0.134
Mof_C 	C 	0.82679	0.05874	0.17321	0.395
Mof_C 	C 	0.84815	0.0966	0.15185	-0.136
Mof_C 	C 	0.82679	0.55874	0.67321	0.395
Mof_C 	C 	0.84815	0.5966	0.65185	-0.125
Mof_C 	C 	0.32679	0.05874	0.67321	0.395
Mof_C 	C 	0.34815	0.0966	0.65185	-0.137
Mof_C 	C 	0.32679	0.55874	0.17321	0.396
Mof_C 	C 	0.34815	0.5966	0.15185	-0.134
Mof_C 	C 	0.82679	0.94126	0.82679	0.39
Mof_C 	C 	0.84815	0.9034	0.84815	-0.11
Mof_C 	C 	0.82679	0.44126	0.32679	0.395
Mof_C 	C 	0.84815	0.4034	0.34815	-0.125
Mof_C 	C 	0.32679	0.94126	0.32679	0.392
Mof_C 	C 	0.34815	0.9034	0.34815	-0.12
Mof_C 	C 	0.32679	0.44126	0.82679	0.395
Mof_C 	C 	0.34815	0.4034	0.84815	-0.125
Mof_C 	C 	0.17321	0.05874	0.82679	0.395
Mof_C 	C 	0.15185	0.0966	0.84815	-0.136
Mof_C 	C 	0.17321	0.55874	0.32679	0.396
Mof_C 	C 	0.15185	0.5966	0.34815	-0.134
Mof_C 	C 	0.67321	0.05874	0.32679	0.395
Mof_C 	C 	0.65185	0.0966	0.34815	-0.137
Mof_C 	C 	0.67321	0.55874	0.82679	0.395
Mof_C 	C 	0.65185	0.5966	0.84815	-0.125
Mof_C 	C 	0.17321	0.17321	0.94126	0.393
Mof_C 	C 	0.15185	0.15185	0.9034	-0.128
Mof_C 	C 	0.17321	0.67321	0.44126	0.396
Mof_C 	C 	0.15185	0.65185	0.4034	-0.134
Mof_C 	C 	0.67321	0.17321	0.44126	0.396
Mof_C 	C 	0.65185	0.15185	0.4034	-0.134
Mof_C 	C 	0.67321	0.67321	0.94126	0.391
Mof_C 	C 	0.65185	0.65185	0.9034	-0.12
Mof_C 	C 	0.17321	0.82679	0.05874	0.395
Mof_C 	C 	0.15185	0.84815	0.0966	-0.136
Mof_C 	C 	0.17321	0.32679	0.55874	0.396
Mof_C 	C 	0.15185	0.34815	0.5966	-0.134
Mof_C 	C 	0.67321	0.82679	0.55874	0.395
Mof_C 	C 	0.65185	0.84815	0.5966	-0.125
Mof_C 	C 	0.67321	0.32679	0.05874	0.395
Mof_C 	C 	0.65185	0.34815	0.0966	-0.137
Mof_C 	C 	0.82679	0.82679	0.94126	0.39
Mof_C 	C 	0.84815	0.84815	0.9034	-0.11
Mof_C 	C 	0.82679	0.32679	0.44126	0.395
Mof_C 	C 	0.84815	0.34815	0.4034	-0.125
Mof_C 	C 	0.32679	0.82679	0.44126	0.395
Mof_C 	C 	0.34815	0.84815	0.4034	-0.125
Mof_C 	C 	0.32679	0.32679	0.94126	0.392
Mof_C 	C 	0.34815	0.34815	0.9034	-0.12
Mof_C 	C 	0.82679	0.17321	0.05874	0.395
Mof_C 	C 	0.84815	0.15185	0.0966	-0.136
Mof_C 	C 	0.82679	0.67321	0.55874	0.395
Mof_C 	C 	0.84815	0.65185	0.5966	-0.125
Mof_C 	C 	0.32679	0.17321	0.55874	0.396
Mof_C 	C 	0.34815	0.15185	0.5966	-0.134
Mof_C 	C 	0.32679	0.67321	0.05874	0.395
Mof_C 	C 	0.34815	0.65185	0.0966	-0.137
Mof_C 	C 	0.94126	0.17321	0.17321	0.393
Mof_C 	C 	0.9034	0.15185	0.15185	-0.128
Mof_C 	C 	0.94126	0.67321	0.67321	0.391
Mof_C 	C 	0.9034	0.65185	0.65185	-0.12
Mof_C 	C 	0.44126	0.17321	0.67321	0.396
Mof_C 	C 	0.4034	0.15185	0.65185	-0.134
Mof_C 	C 	0.44126	0.67321	0.17321	0.396
Mof_C 	C 	0.4034	0.65185	0.15185	-0.134
Mof_C 	C 	0.05874	0.17321	0.82679	0.395
Mof_C 	C 	0.0966	0.15185	0.84815	-0.136
Mof_C 	C 	0.05874	0.67321	0.32679	0.395
Mof_C 	C 	0.0966	0.65185	0.34815	-0.137
Mof_C 	C 	0.55874	0.17321	0.32679	0.396
Mof_C 	C 	0.5966	0.15185	0.34815	-0.134
Mof_C 	C 	0.55874	0.67321	0.82679	0.395
Mof_C 	C 	0.5966	0.65185	0.84815	-0.125
Mof_C 	C 	0.94126	0.82679	0.82679	0.39
Mof_C 	C 	0.9034	0.84815	0.84815	-0.11
Mof_C 	C 	0.94126	0.32679	0.32679	0.392
Mof_C 	C 	0.9034	0.34815	0.34815	-0.12
Mof_C 	C 	0.44126	0.82679	0.32679	0.395
Mof_C 	C 	0.4034	0.84815	0.34815	-0.125
Mof_C 	C 	0.44126	0.32679	0.82679	0.395
Mof_C 	C 	0.4034	0.34815	0.84815	-0.125
Mof_C 	C 	0.05874	0.82679	0.17321	0.395
Mof_C 	C 	0.0966	0.84815	0.15185	-0.136
Mof_C 	C 	0.05874	0.32679	0.67321	0.395
Mof_C 	C 	0.0966	0.34815	0.65185	-0.137
Mof_C 	C 	0.55874	0.82679	0.67321	0.395
Mof_C 	C 	0.5966	0.84815	0.65185	-0.125
Mof_C 	C 	0.55874	0.32679	0.17321	0.396
Mof_C 	C 	0.5966	0.34815	0.15185	-0.134
Mof_C 	C 	0.94126	0.17321	0.82679	0.391
Mof_C 	C 	0.9034	0.15185	0.84815	-0.119
Mof_C 	C 	0.94126	0.67321	0.32679	0.392
Mof_C 	C 	0.9034	0.65185	0.34815	-0.12
Mof_C 	C 	0.44126	0.17321	0.32679	0.397
Mof_C 	C 	0.4034	0.15185	0.34815	-0.134
Mof_C 	C 	0.44126	0.67321	0.82679	0.395
Mof_C 	C 	0.4034	0.65185	0.84815	-0.125
Mof_C 	C 	0.05874	0.82679	0.82679	0.394
Mof_C 	C 	0.0966	0.84815	0.84815	-0.126
Mof_C 	C 	0.05874	0.32679	0.32679	0.396
Mof_C 	C 	0.0966	0.34815	0.34815	-0.137
Mof_C 	C 	0.55874	0.82679	0.32679	0.395
Mof_C 	C 	0.5966	0.84815	0.34815	-0.125
Mof_C 	C 	0.55874	0.32679	0.82679	0.395
Mof_C 	C 	0.5966	0.34815	0.84815	-0.125
Mof_C 	C 	0.94126	0.82679	0.17321	0.391
Mof_C 	C 	0.9034	0.84815	0.15185	-0.119
Mof_C 	C 	0.94126	0.32679	0.67321	0.392
Mof_C 	C 	0.9034	0.34815	0.65185	-0.12
Mof_C 	C 	0.44126	0.82679	0.67321	0.395
Mof_C 	C 	0.4034	0.84815	0.65185	-0.125
Mof_C 	C 	0.44126	0.32679	0.17321	0.397
Mof_C 	C 	0.4034	0.34815	0.15185	-0.134
Mof_C 	C 	0.05874	0.17321	0.17321	0.396
Mof_C 	C 	0.0966	0.15185	0.15185	-0.145
Mof_C 	C 	0.05874	0.67321	0.67321	0.395
Mof_C 	C 	0.0966	0.65185	0.65185	-0.137
Mof_C 	C 	0.55874	0.17321	0.67321	0.396
Mof_C 	C 	0.5966	0.15185	0.65185	-0.134
Mof_C 	C 	0.55874	0.67321	0.17321	0.396
Mof_C 	C 	0.5966	0.65185	0.15185	-0.134
Mof_C 	C 	0.17321	0.17321	0.05874	0.396
Mof_C 	C 	0.15185	0.15185	0.0966	-0.145
Mof_C 	C 	0.17321	0.67321	0.55874	0.396
Mof_C 	C 	0.15185	0.65185	0.5966	-0.134
Mof_C 	C 	0.67321	0.17321	0.55874	0.396
Mof_C 	C 	0.65185	0.15185	0.5966	-0.134
Mof_C 	C 	0.67321	0.67321	0.05874	0.395
Mof_C 	C 	0.65185	0.65185	0.0966	-0.137
Mof_C 	C 	0.82679	0.17321	0.94126	0.391
Mof_C 	C 	0.84815	0.15185	0.9034	-0.119
Mof_C 	C 	0.82679	0.67321	0.44126	0.395
Mof_C 	C 	0.84815	0.65185	0.4034	-0.125
Mof_C 	C 	0.32679	0.17321	0.44126	0.397
Mof_C 	C 	0.34815	0.15185	0.4034	-0.134
Mof_C 	C 	0.32679	0.67321	0.94126	0.392
Mof_C 	C 	0.34815	0.65185	0.9034	-0.12
Mof_C 	C 	0.82679	0.82679	0.05874	0.394
Mof_C 	C 	0.84815	0.84815	0.0966	-0.126
Mof_C 	C 	0.82679	0.32679	0.55874	0.395
Mof_C 	C 	0.84815	0.34815	0.5966	-0.125
Mof_C 	C 	0.32679	0.82679	0.55874	0.395
Mof_C 	C 	0.34815	0.84815	0.5966	-0.125
Mof_C 	C 	0.32679	0.32679	0.05874	0.396
Mof_C 	C 	0.34815	0.34815	0.0966	-0.137
Mof_C 	C 	0.17321	0.82679	0.94126	0.391
Mof_C 	C 	0.15185	0.84815	0.9034	-0.119
Mof_C 	C 	0.17321	0.32679	0.44126	0.397
Mof_C 	C 	0.15185	0.34815	0.4034	-0.134
Mof_C 	C 	0.67321	0.82679	0.44126	0.395
Mof_C 	C 	0.65185	0.84815	0.4034	-0.125
Mof_C 	C 	0.67321	0.32679	0.94126	0.392
Mof_C 	C 	0.65185	0.34815	0.9034	-0.12
Mof_C 	C 	0.17321	0.94126	0.82679	0.391
Mof_C 	C 	0.15185	0.9034	0.84815	-0.119
Mof_C 	C 	0.17321	0.44126	0.32679	0.397
Mof_C 	C 	0.15185	0.4034	0.34815	-0.134
Mof_C 	C 	0.67321	0.94126	0.32679	0.392
Mof_C 	C 	0.65185	0.9034	0.34815	-0.12
Mof_C 	C 	0.67321	0.44126	0.82679	0.395
Mof_C 	C 	0.65185	0.4034	0.84815	-0.125
Mof_C 	C 	0.17321	0.05874	0.17321	0.396
Mof_C 	C 	0.15185	0.0966	0.15185	-0.145
Mof_C 	C 	0.17321	0.55874	0.67321	0.396
Mof_C 	C 	0.15185	0.5966	0.65185	-0.134
Mof_C 	C 	0.67321	0.05874	0.67321	0.395
Mof_C 	C 	0.65185	0.0966	0.65185	-0.137
Mof_C 	C 	0.67321	0.55874	0.17321	0.396
Mof_C 	C 	0.65185	0.5966	0.15185	-0.134
Mof_C 	C 	0.82679	0.94126	0.17321	0.391
Mof_C 	C 	0.84815	0.9034	0.15185	-0.119
Mof_C 	C 	0.82679	0.44126	0.67321	0.395
Mof_C 	C 	0.84815	0.4034	0.65185	-0.125
Mof_C 	C 	0.32679	0.94126	0.67321	0.392
Mof_C 	C 	0.34815	0.9034	0.65185	-0.12
Mof_C 	C 	0.32679	0.44126	0.17321	0.397
Mof_C 	C 	0.34815	0.4034	0.15185	-0.134
Mof_C 	C 	0.82679	0.05874	0.82679	0.394
Mof_C 	C 	0.84815	0.0966	0.84815	-0.126
Mof_C 	C 	0.82679	0.55874	0.32679	0.395
Mof_C 	C 	0.84815	0.5966	0.34815	-0.125
Mof_C 	C 	0.32679	0.05874	0.32679	0.396
Mof_C 	C 	0.34815	0.0966	0.34815	-0.137
Mof_C 	C 	0.32679	0.55874	0.82679	0.395
Mof_C 	C 	0.34815	0.5966	0.84815	-0.125
Mof_C 	C 	0.11503	0.88497	0.1704	0.076
Mof_H 	H 	0.1029	0.8971	0.195	0.042
Mof_C 	C 	0.11503	0.38497	0.6704	0.078
Mof_H 	H 	0.1029	0.3971	0.695	0.038
Mof_C 	C 	0.61503	0.88497	0.6704	0.072
Mof_H 	H 	0.6029	0.8971	0.695	0.048
Mof_C 	C 	0.61503	0.38497	0.1704	0.078
Mof_H 	H 	0.6029	0.3971	0.195	0.041
Mof_C 	C 	0.88497	0.11503	0.1704	0.076
Mof_H 	H 	0.8971	0.1029	0.195	0.042
Mof_C 	C 	0.88497	0.61503	0.6704	0.072
Mof_H 	H 	0.8971	0.6029	0.695	0.048
Mof_C 	C 	0.38497	0.11503	0.6704	0.078
Mof_H 	H 	0.3971	0.1029	0.695	0.038
Mof_C 	C 	0.38497	0.61503	0.1704	0.078
Mof_H 	H 	0.3971	0.6029	0.195	0.041
Mof_C 	C 	0.88497	0.88497	0.8296	0.066
Mof_H 	H 	0.8971	0.8971	0.805	0.055
Mof_C 	C 	0.88497	0.38497	0.3296	0.072
Mof_H 	H 	0.8971	0.3971	0.305	0.048
Mof_C 	C 	0.38497	0.88497	0.3296	0.072
Mof_H 	H 	0.3971	0.8971	0.305	0.048
Mof_C 	C 	0.38497	0.38497	0.8296	0.073
Mof_H 	H 	0.3971	0.3971	0.805	0.044
Mof_C 	C 	0.11503	0.11503	0.8296	0.077
Mof_H 	H 	0.1029	0.1029	0.805	0.036
Mof_C 	C 	0.11503	0.61503	0.3296	0.078
Mof_H 	H 	0.1029	0.6029	0.305	0.038
Mof_C 	C 	0.61503	0.11503	0.3296	0.078
Mof_H 	H 	0.6029	0.1029	0.305	0.038
Mof_C 	C 	0.61503	0.61503	0.8296	0.073
Mof_H 	H 	0.6029	0.6029	0.805	0.044
Mof_C 	C 	0.1704	0.11503	0.88497	0.076
Mof_H 	H 	0.195	0.1029	0.8971	0.042
Mof_C 	C 	0.1704	0.61503	0.38497	0.078
Mof_H 	H 	0.195	0.6029	0.3971	0.041
Mof_C 	C 	0.6704	0.11503	0.38497	0.078
Mof_H 	H 	0.695	0.1029	0.3971	0.038
Mof_C 	C 	0.6704	0.61503	0.88497	0.072
Mof_H 	H 	0.695	0.6029	0.8971	0.048
Mof_C 	C 	0.1704	0.88497	0.11503	0.076
Mof_H 	H 	0.195	0.8971	0.1029	0.042
Mof_C 	C 	0.1704	0.38497	0.61503	0.078
Mof_H 	H 	0.195	0.3971	0.6029	0.041
Mof_C 	C 	0.6704	0.88497	0.61503	0.072
Mof_H 	H 	0.695	0.8971	0.6029	0.048
Mof_C 	C 	0.6704	0.38497	0.11503	0.078
Mof_H 	H 	0.695	0.3971	0.1029	0.038
Mof_C 	C 	0.8296	0.88497	0.88497	0.066
Mof_H 	H 	0.805	0.8971	0.8971	0.055
Mof_C 	C 	0.8296	0.38497	0.38497	0.073
Mof_H 	H 	0.805	0.3971	0.3971	0.044
Mof_C 	C 	0.3296	0.88497	0.38497	0.072
Mof_H 	H 	0.305	0.8971	0.3971	0.048
Mof_C 	C 	0.3296	0.38497	0.88497	0.072
Mof_H 	H 	0.305	0.3971	0.8971	0.048
Mof_C 	C 	0.8296	0.11503	0.11503	0.077
Mof_H 	H 	0.805	0.1029	0.1029	0.036
Mof_C 	C 	0.8296	0.61503	0.61503	0.073
Mof_H 	H 	0.805	0.6029	0.6029	0.044
Mof_C 	C 	0.3296	0.11503	0.61503	0.078
Mof_H 	H 	0.305	0.1029	0.6029	0.038
Mof_C 	C 	0.3296	0.61503	0.11503	0.078
Mof_H 	H 	0.305	0.6029	0.1029	0.038
Mof_C 	C 	0.88497	0.1704	0.11503	0.076
Mof_H 	H 	0.8971	0.195	0.1029	0.042
Mof_C 	C 	0.88497	0.6704	0.61503	0.072
Mof_H 	H 	0.8971	0.695	0.6029	0.048
Mof_C 	C 	0.38497	0.1704	0.61503	0.078
Mof_H 	H 	0.3971	0.195	0.6029	0.041
Mof_C 	C 	0.38497	0.6704	0.11503	0.078
Mof_H 	H 	0.3971	0.695	0.1029	0.038
Mof_C 	C 	0.11503	0.1704	0.88497	0.076
Mof_H 	H 	0.1029	0.195	0.8971	0.042
Mof_C 	C 	0.11503	0.6704	0.38497	0.078
Mof_H 	H 	0.1029	0.695	0.3971	0.038
Mof_C 	C 	0.61503	0.1704	0.38497	0.078
Mof_H 	H 	0.6029	0.195	0.3971	0.041
Mof_C 	C 	0.61503	0.6704	0.88497	0.072
Mof_H 	H 	0.6029	0.695	0.8971	0.048
Mof_C 	C 	0.88497	0.8296	0.88497	0.066
Mof_H 	H 	0.8971	0.805	0.8971	0.055
Mof_C 	C 	0.88497	0.3296	0.38497	0.072
Mof_H 	H 	0.8971	0.305	0.3971	0.048
Mof_C 	C 	0.38497	0.8296	0.38497	0.073
Mof_H 	H 	0.3971	0.805	0.3971	0.044
Mof_C 	C 	0.38497	0.3296	0.88497	0.072
Mof_H 	H 	0.3971	0.305	0.8971	0.048
Mof_C 	C 	0.11503	0.8296	0.11503	0.077
Mof_H 	H 	0.1029	0.805	0.1029	0.036
Mof_C 	C 	0.11503	0.3296	0.61503	0.078
Mof_H 	H 	0.1029	0.305	0.6029	0.038
Mof_C 	C 	0.61503	0.8296	0.61503	0.073
Mof_H 	H 	0.6029	0.805	0.6029	0.044
Mof_C 	C 	0.61503	0.3296	0.11503	0.078
Mof_H 	H 	0.6029	0.305	0.1029	0.038
Mof_C 	C 	0.88497	0.11503	0.8296	0.072
Mof_H 	H 	0.8971	0.1029	0.805	0.045
Mof_C 	C 	0.88497	0.61503	0.3296	0.072
Mof_H 	H 	0.8971	0.6029	0.305	0.048
Mof_C 	C 	0.38497	0.11503	0.3296	0.078
Mof_H 	H 	0.3971	0.1029	0.305	0.038
Mof_C 	C 	0.38497	0.61503	0.8296	0.073
Mof_H 	H 	0.3971	0.6029	0.805	0.044
Mof_C 	C 	0.11503	0.88497	0.8296	0.072
Mof_H 	H 	0.1029	0.8971	0.805	0.045
Mof_C 	C 	0.11503	0.38497	0.3296	0.078
Mof_H 	H 	0.1029	0.3971	0.305	0.038
Mof_C 	C 	0.61503	0.88497	0.3296	0.072
Mof_H 	H 	0.6029	0.8971	0.305	0.048
Mof_C 	C 	0.61503	0.38497	0.8296	0.073
Mof_H 	H 	0.6029	0.3971	0.805	0.044
Mof_C 	C 	0.88497	0.88497	0.1704	0.07
Mof_H 	H 	0.8971	0.8971	0.195	0.052
Mof_C 	C 	0.88497	0.38497	0.6704	0.072
Mof_H 	H 	0.8971	0.3971	0.695	0.048
Mof_C 	C 	0.38497	0.88497	0.6704	0.072
Mof_H 	H 	0.3971	0.8971	0.695	0.048
Mof_C 	C 	0.38497	0.38497	0.1704	0.078
Mof_H 	H 	0.3971	0.3971	0.195	0.041
Mof_C 	C 	0.11503	0.11503	0.1704	0.082
Mof_H 	H 	0.1029	0.1029	0.195	0.032
Mof_C 	C 	0.11503	0.61503	0.6704	0.078
Mof_H 	H 	0.1029	0.6029	0.695	0.038
Mof_C 	C 	0.61503	0.11503	0.6704	0.078
Mof_H 	H 	0.6029	0.1029	0.695	0.038
Mof_C 	C 	0.61503	0.61503	0.1704	0.078
Mof_H 	H 	0.6029	0.6029	0.195	0.041
Mof_C 	C 	0.11503	0.1704	0.11503	0.082
Mof_H 	H 	0.1029	0.195	0.1029	0.032
Mof_C 	C 	0.11503	0.6704	0.61503	0.078
Mof_H 	H 	0.1029	0.695	0.6029	0.038
Mof_C 	C 	0.61503	0.1704	0.61503	0.078
Mof_H 	H 	0.6029	0.195	0.6029	0.041
Mof_C 	C 	0.61503	0.6704	0.11503	0.078
Mof_H 	H 	0.6029	0.695	0.1029	0.038
Mof_C 	C 	0.88497	0.1704	0.88497	0.07
Mof_H 	H 	0.8971	0.195	0.8971	0.052
Mof_C 	C 	0.88497	0.6704	0.38497	0.072
Mof_H 	H 	0.8971	0.695	0.3971	0.048
Mof_C 	C 	0.38497	0.1704	0.38497	0.078
Mof_H 	H 	0.3971	0.195	0.3971	0.041
Mof_C 	C 	0.38497	0.6704	0.88497	0.072
Mof_H 	H 	0.3971	0.695	0.8971	0.048
Mof_C 	C 	0.88497	0.8296	0.11503	0.072
Mof_H 	H 	0.8971	0.805	0.1029	0.045
Mof_C 	C 	0.88497	0.3296	0.61503	0.072
Mof_H 	H 	0.8971	0.305	0.6029	0.048
Mof_C 	C 	0.38497	0.8296	0.61503	0.073
Mof_H 	H 	0.3971	0.805	0.6029	0.044
Mof_C 	C 	0.38497	0.3296	0.11503	0.078
Mof_H 	H 	0.3971	0.305	0.1029	0.038
Mof_C 	C 	0.11503	0.8296	0.88497	0.072
Mof_H 	H 	0.1029	0.805	0.8971	0.045
Mof_C 	C 	0.11503	0.3296	0.38497	0.078
Mof_H 	H 	0.1029	0.305	0.3971	0.038
Mof_C 	C 	0.61503	0.8296	0.38497	0.073
Mof_H 	H 	0.6029	0.805	0.3971	0.044
Mof_C 	C 	0.61503	0.3296	0.88497	0.072
Mof_H 	H 	0.6029	0.305	0.8971	0.048
Mof_C 	C 	0.1704	0.88497	0.88497	0.07
Mof_H 	H 	0.195	0.8971	0.8971	0.052
Mof_C 	C 	0.1704	0.38497	0.38497	0.078
Mof_H 	H 	0.195	0.3971	0.3971	0.041
Mof_C 	C 	0.6704	0.88497	0.38497	0.072
Mof_H 	H 	0.695	0.8971	0.3971	0.048
Mof_C 	C 	0.6704	0.38497	0.88497	0.072
Mof_H 	H 	0.695	0.3971	0.8971	0.048
Mof_C 	C 	0.1704	0.11503	0.11503	0.082
Mof_H 	H 	0.195	0.1029	0.1029	0.032
Mof_C 	C 	0.1704	0.61503	0.61503	0.078
Mof_H 	H 	0.195	0.6029	0.6029	0.041
Mof_C 	C 	0.6704	0.11503	0.61503	0.078
Mof_H 	H 	0.695	0.1029	0.6029	0.038
Mof_C 	C 	0.6704	0.61503	0.11503	0.078
Mof_H 	H 	0.695	0.6029	0.1029	0.038
Mof_C 	C 	0.8296	0.88497	0.11503	0.072
Mof_H 	H 	0.805	0.8971	0.1029	0.045
Mof_C 	C 	0.8296	0.38497	0.61503	0.073
Mof_H 	H 	0.805	0.3971	0.6029	0.044
Mof_C 	C 	0.3296	0.88497	0.61503	0.072
Mof_H 	H 	0.305	0.8971	0.6029	0.048
Mof_C 	C 	0.3296	0.38497	0.11503	0.078
Mof_H 	H 	0.305	0.3971	0.1029	0.038
Mof_C 	C 	0.8296	0.11503	0.88497	0.072
Mof_H 	H 	0.805	0.1029	0.8971	0.045
Mof_C 	C 	0.8296	0.61503	0.38497	0.073
Mof_H 	H 	0.805	0.6029	0.3971	0.044
Mof_C 	C 	0.3296	0.11503	0.38497	0.078
Mof_H 	H 	0.305	0.1029	0.3971	0.038
Mof_C 	C 	0.3296	0.61503	0.88497	0.072
Mof_H 	H 	0.305	0.6029	0.8971	0.048
_end
