data_functionalizedCrystal
_audit_creation_method	'EQeq! by Chris Wilmer'
_symmetry_space_group_name_H-M	'P1'
_symmetry_Int_Tables_number	1
_symmetry_cell_setting	triclinic
loop_
_symmetry_equiv_pos_as_xyz
  x,y,z
_cell_length_a	10.4385
_cell_length_b	27.184
_cell_length_c	9.3482
_cell_angle_alpha	90
_cell_angle_beta	90
_cell_angle_gamma	90
loop_
_atom_site_label
_atom_site_type_symbol
_atom_site_fract_x
_atom_site_fract_y
_atom_site_fract_z
_atom_site_charge
Mof_C 	C 	0.5003	0.0781	0.0756	0.611
Mof_C 	C 	0.472	0.1303	0.1242	-0.304
Mof_C 	C 	0.5719	0.1634	0.156	0.175
Mof_H 	H 	0.6569	0.1543	0.1428	-0.054
Mof_C 	C 	0.347	0.1456	0.1413	0.147
Mof_H 	H 	0.2804	0.1242	0.1188	-0.053
Mof_C 	C 	0.319	0.1928	0.192	-0.218
Mof_H 	H 	0.2346	0.2028	0.2047	0.072
Mof_C 	C 	0.4208	0.2246	0.2232	0.086
Mof_C 	C 	0.5415	0.2093	0.208	-0.265
Mof_C 	C 	0.714	0.2647	0.118	-1.048
Mof_H 	H 	0.7525	0.2359	0.0761	0.327
Mof_H 	H 	0.78	0.2875	0.1446	0.316
Mof_H 	H 	0.6582	0.2799	0.0491	0.322
Mof_O 	O 	0.6132	0.0669	0.0664	-0.631
Mof_O 	O 	0.4125	0.0518	0.0452	-0.672
Mof_C 	C 	0.9997	0.9219	0.0756	0.573
Mof_C 	C 	0.028	0.8697	0.1242	-0.26
Mof_C 	C 	0.9281	0.8366	0.156	0.151
Mof_H 	H 	0.8431	0.8457	0.1428	-0.041
Mof_C 	C 	0.153	0.8544	0.1413	0.127
Mof_H 	H 	0.2196	0.8758	0.1188	-0.035
Mof_C 	C 	0.181	0.8072	0.192	-0.2
Mof_H 	H 	0.2654	0.7972	0.2047	0.069
Mof_C 	C 	0.0792	0.7754	0.2232	0.081
Mof_C 	C 	0.9585	0.7907	0.208	-0.258
Mof_C 	C 	0.786	0.7353	0.118	-1.055
Mof_H 	H 	0.7475	0.7641	0.0761	0.33
Mof_H 	H 	0.72	0.7125	0.1446	0.319
Mof_H 	H 	0.8418	0.7201	0.0491	0.322
Mof_O 	O 	0.8868	0.9331	0.0664	-0.574
Mof_O 	O 	0.0875	0.9482	0.0452	-0.593
Mof_C 	C 	0.9997	0.5781	0.4244	0.637
Mof_C 	C 	0.028	0.6303	0.3758	-0.318
Mof_C 	C 	0.9281	0.6634	0.344	0.185
Mof_H 	H 	0.8431	0.6543	0.3572	-0.058
Mof_C 	C 	0.153	0.6456	0.3587	0.162
Mof_H 	H 	0.2196	0.6242	0.3812	-0.061
Mof_C 	C 	0.181	0.6928	0.308	-0.232
Mof_H 	H 	0.2654	0.7028	0.2953	0.077
Mof_C 	C 	0.0792	0.7246	0.2768	0.102
Mof_C 	C 	0.9585	0.7093	0.292	-0.279
Mof_C 	C 	0.786	0.7647	0.382	-1.065
Mof_H 	H 	0.7475	0.7359	0.4239	0.333
Mof_H 	H 	0.72	0.7875	0.3554	0.327
Mof_H 	H 	0.8418	0.7799	0.4509	0.331
Mof_O 	O 	0.8868	0.5669	0.4336	-0.657
Mof_O 	O 	0.0875	0.5518	0.4548	-0.697
Mof_C 	C 	0.5003	0.4219	0.4244	0.641
Mof_C 	C 	0.472	0.3697	0.3758	-0.321
Mof_C 	C 	0.5719	0.3366	0.344	0.185
Mof_H 	H 	0.6569	0.3457	0.3572	-0.058
Mof_C 	C 	0.347	0.3544	0.3587	0.161
Mof_H 	H 	0.2804	0.3758	0.3812	-0.06
Mof_C 	C 	0.319	0.3072	0.308	-0.228
Mof_H 	H 	0.2346	0.2972	0.2953	0.076
Mof_C 	C 	0.4208	0.2754	0.2768	0.093
Mof_C 	C 	0.5415	0.2907	0.292	-0.271
Mof_C 	C 	0.714	0.2353	0.382	-1.049
Mof_H 	H 	0.7525	0.2641	0.4239	0.328
Mof_H 	H 	0.78	0.2125	0.3554	0.317
Mof_H 	H 	0.6582	0.2201	0.4509	0.322
Mof_O 	O 	0.6132	0.4331	0.4336	-0.657
Mof_O 	O 	0.4125	0.4482	0.4548	-0.699
Mof_C 	C 	0.4997	0.9219	0.9244	0.595
Mof_C 	C 	0.528	0.8697	0.8758	-0.282
Mof_C 	C 	0.4281	0.8366	0.844	0.167
Mof_H 	H 	0.3431	0.8457	0.8572	-0.046
Mof_C 	C 	0.653	0.8544	0.8587	0.138
Mof_H 	H 	0.7196	0.8758	0.8812	-0.039
Mof_C 	C 	0.681	0.8072	0.808	-0.206
Mof_H 	H 	0.7654	0.7972	0.7953	0.072
Mof_C 	C 	0.5792	0.7754	0.7768	0.081
Mof_C 	C 	0.4585	0.7907	0.792	-0.259
Mof_C 	C 	0.286	0.7353	0.882	-1.054
Mof_H 	H 	0.2475	0.7641	0.9239	0.329
Mof_H 	H 	0.22	0.7125	0.8554	0.318
Mof_H 	H 	0.3418	0.7201	0.9509	0.323
Mof_O 	O 	0.3868	0.9331	0.9336	-0.578
Mof_O 	O 	0.5875	0.9482	0.9548	-0.604
Mof_C 	C 	0.0003	0.0781	0.9244	0.583
Mof_C 	C 	0.972	0.1303	0.8758	-0.277
Mof_C 	C 	0.0719	0.1634	0.844	0.153
Mof_H 	H 	0.1569	0.1543	0.8572	-0.047
Mof_C 	C 	0.847	0.1456	0.8587	0.133
Mof_H 	H 	0.7804	0.1242	0.8812	-0.048
Mof_C 	C 	0.819	0.1928	0.808	-0.21
Mof_H 	H 	0.7346	0.2028	0.7953	0.069
Mof_C 	C 	0.9208	0.2246	0.7768	0.086
Mof_C 	C 	0.0415	0.2093	0.792	-0.264
Mof_C 	C 	0.214	0.2647	0.882	-1.047
Mof_H 	H 	0.2525	0.2359	0.9239	0.326
Mof_H 	H 	0.28	0.2875	0.8554	0.316
Mof_H 	H 	0.1582	0.2799	0.9509	0.32
Mof_O 	O 	0.1132	0.0669	0.9336	-0.625
Mof_O 	O 	0.9125	0.0518	0.9548	-0.658
Mof_C 	C 	0.0003	0.4219	0.5756	0.631
Mof_C 	C 	0.972	0.3697	0.6242	-0.31
Mof_C 	C 	0.0719	0.3366	0.656	0.178
Mof_H 	H 	0.1569	0.3457	0.6428	-0.056
Mof_C 	C 	0.847	0.3544	0.6413	0.157
Mof_H 	H 	0.7804	0.3758	0.6188	-0.059
Mof_C 	C 	0.819	0.3072	0.692	-0.228
Mof_H 	H 	0.7346	0.2972	0.7047	0.075
Mof_C 	C 	0.9208	0.2754	0.7232	0.099
Mof_C 	C 	0.0415	0.2907	0.708	-0.275
Mof_C 	C 	0.214	0.2353	0.618	-1.047
Mof_H 	H 	0.2525	0.2641	0.5761	0.327
Mof_H 	H 	0.28	0.2125	0.6446	0.316
Mof_H 	H 	0.1582	0.2201	0.5491	0.321
Mof_O 	O 	0.1132	0.4331	0.5664	-0.655
Mof_O 	O 	0.9125	0.4482	0.5452	-0.694
Mof_C 	C 	0.4997	0.5781	0.5756	0.641
Mof_C 	C 	0.528	0.6303	0.6242	-0.322
Mof_C 	C 	0.4281	0.6634	0.656	0.187
Mof_H 	H 	0.3431	0.6543	0.6428	-0.059
Mof_C 	C 	0.653	0.6456	0.6413	0.163
Mof_H 	H 	0.7196	0.6242	0.6188	-0.061
Mof_C 	C 	0.681	0.6928	0.692	-0.231
Mof_H 	H 	0.7654	0.7028	0.7047	0.077
Mof_C 	C 	0.5792	0.7246	0.7232	0.097
Mof_C 	C 	0.4585	0.7093	0.708	-0.274
Mof_C 	C 	0.286	0.7647	0.618	-1.065
Mof_H 	H 	0.2475	0.7359	0.5761	0.333
Mof_H 	H 	0.22	0.7875	0.6446	0.326
Mof_H 	H 	0.3418	0.7799	0.5491	0.331
Mof_O 	O 	0.3868	0.5669	0.5664	-0.658
Mof_O 	O 	0.5875	0.5518	0.5452	-0.699
Mof_Eu	Eu	0.75	-7.43466e-35	0.02597	1.651
Mof_Eu	Eu	0.75	0.5	0.47403	1.877
Mof_Eu	Eu	0.25	0	0.97403	1.648
Mof_Eu	Eu	0.25	0.5	0.52597	1.877
Mof_C 	C 	0.639	0.25	0.25	0.568
Mof_C 	C 	0.861	0.75	0.25	0.574
Mof_C 	C 	0.361	0.75	0.75	0.573
Mof_C 	C 	0.139	0.25	0.75	0.567
_end
