data_functionalizedCrystal
_audit_creation_method	'EQeq! by Chris Wilmer'
_symmetry_space_group_name_H-M	'P1'
_symmetry_Int_Tables_number	1
_symmetry_cell_setting	triclinic
loop_
_symmetry_equiv_pos_as_xyz
  x,y,z
_cell_length_a	10.3177
_cell_length_b	10.3177
_cell_length_c	12.6527
_cell_angle_alpha	100.754
_cell_angle_beta	100.754
_cell_angle_gamma	104.73
loop_
_atom_site_label
_atom_site_type_symbol
_atom_site_fract_x
_atom_site_fract_y
_atom_site_fract_z
_atom_site_charge
Mof_Mn	Mn	0.77286	0.37852	0.90147	0.909
Mof_Mn	Mn	0.62148	0.22714	0.59853	0.909
Mof_Mn	Mn	0.22714	0.62148	0.09853	0.909
Mof_Mn	Mn	0.37852	0.77286	0.40147	0.909
Mof_H 	H 	0.6149	0.6729	0.5907	0.02
Mof_H 	H 	0.8277	0.0381	0.8024	0.015
Mof_H 	H 	0.9235	0.9255	0.9215	0.08
Mof_H 	H 	0.8698	0.6882	0.8755	0.01
Mof_H 	H 	0.3271	0.3851	0.9093	0.02
Mof_H 	H 	0.9619	0.1723	0.6976	0.014
Mof_H 	H 	0.0745	0.0765	0.5785	0.08
Mof_H 	H 	0.3118	0.1302	0.6245	0.01
Mof_H 	H 	0.3851	0.3271	0.4093	0.02
Mof_H 	H 	0.1723	0.9619	0.1976	0.015
Mof_H 	H 	0.0765	0.0745	0.0785	0.08
Mof_H 	H 	0.1302	0.3118	0.1245	0.01
Mof_H 	H 	0.6729	0.6149	0.0907	0.02
Mof_H 	H 	0.0381	0.8277	0.3024	0.014
Mof_H 	H 	0.9255	0.9235	0.4215	0.08
Mof_H 	H 	0.6882	0.8698	0.3755	0.01
Mof_C 	C 	0.73691	0.65689	0.7289	-0.156
Mof_C 	C 	0.67825	0.72415	0.657	0.097
Mof_C 	C 	0.71295	0.86685	0.6832	-0.182
Mof_C 	C 	0.8048	0.9422	0.7833	0.086
Mof_C 	C 	0.862	0.8746	0.8543	-0.153
Mof_C 	C 	0.8293	0.7327	0.8273	0.082
Mof_C 	C 	0.70138	0.50242	0.6985	0.371
Mof_C 	C 	0.65092	0.93948	0.6048	0.455
Mof_C 	C 	0.34311	0.26309	0.7711	-0.156
Mof_C 	C 	0.27585	0.32175	0.843	0.098
Mof_C 	C 	0.13315	0.28705	0.8168	-0.183
Mof_C 	C 	0.0578	0.1952	0.7167	0.087
Mof_C 	C 	0.1254	0.138	0.6457	-0.154
Mof_C 	C 	0.2673	0.1707	0.6727	0.083
Mof_C 	C 	0.49758	0.29862	0.8015	0.371
Mof_C 	C 	0.06052	0.34908	0.8952	0.456
Mof_C 	C 	0.26309	0.34311	0.2711	-0.156
Mof_C 	C 	0.32175	0.27585	0.343	0.097
Mof_C 	C 	0.28705	0.13315	0.3168	-0.182
Mof_C 	C 	0.1952	0.0578	0.2167	0.086
Mof_C 	C 	0.138	0.1254	0.1457	-0.153
Mof_C 	C 	0.1707	0.2673	0.1727	0.082
Mof_C 	C 	0.29862	0.49758	0.3015	0.371
Mof_C 	C 	0.34908	0.06052	0.3952	0.455
Mof_C 	C 	0.65689	0.73691	0.2289	-0.156
Mof_C 	C 	0.72415	0.67825	0.157	0.098
Mof_C 	C 	0.86685	0.71295	0.1832	-0.183
Mof_C 	C 	0.9422	0.8048	0.2833	0.087
Mof_C 	C 	0.8746	0.862	0.3543	-0.154
Mof_C 	C 	0.7327	0.8293	0.3273	0.083
Mof_C 	C 	0.50242	0.70138	0.1985	0.371
Mof_C 	C 	0.93948	0.65092	0.1048	0.456
Mof_O 	O 	0.7804	0.44728	0.75	-0.405
Mof_O 	O 	0.59832	0.43406	0.62225	-0.369
Mof_O 	O 	0.55669	0.86819	0.52448	-0.436
Mof_O 	O 	0.70059	0.06727	0.626	-0.424
Mof_O 	O 	0.55272	0.2196	0.75	-0.405
Mof_O 	O 	0.56594	0.40168	0.87775	-0.369
Mof_O 	O 	0.13181	0.44331	0.97552	-0.436
Mof_O 	O 	0.93273	0.29941	0.874	-0.425
Mof_O 	O 	0.2196	0.55272	0.25	-0.405
Mof_O 	O 	0.40168	0.56594	0.37775	-0.369
Mof_O 	O 	0.44331	0.13181	0.47552	-0.436
Mof_O 	O 	0.29941	0.93273	0.374	-0.424
Mof_O 	O 	0.44728	0.7804	0.25	-0.405
Mof_O 	O 	0.43406	0.59832	0.12225	-0.369
Mof_O 	O 	0.86819	0.55669	0.02448	-0.436
Mof_O 	O 	0.06727	0.70059	0.126	-0.425
_end
