data_functionalizedCrystal
_audit_creation_method	'EQeq! by Chris Wilmer'
_symmetry_space_group_name_H-M	'P1'
_symmetry_Int_Tables_number	1
_symmetry_cell_setting	triclinic
loop_
_symmetry_equiv_pos_as_xyz
  x,y,z
_cell_length_a	6.562
_cell_length_b	16.4171
_cell_length_c	13.1717
_cell_angle_alpha	90
_cell_angle_beta	90
_cell_angle_gamma	90.3983
loop_
_atom_site_label
_atom_site_type_symbol
_atom_site_fract_x
_atom_site_fract_y
_atom_site_fract_z
_atom_site_charge
Mof_O 	O 	0.1618	0.1723	0.8466	-1.378
Mof_O 	O 	0.8258	0.6621	0.1686	-1.474
Mof_C 	C 	0.8064	0.0232	0.9533	0.108
Mof_C 	C 	0.9964	0.0659	0.9438	-0.457
Mof_C 	C 	0.9952	0.1355	0.8697	0.929
Mof_C 	C 	0.2001	0.5357	0.0292	0.214
Mof_O 	O 	0.6618	0.6723	0.3466	-1.489
Mof_O 	O 	0.3258	0.1621	0.6686	-1.507
Mof_C 	C 	0.3064	0.5232	0.4533	0.099
Mof_C 	C 	0.4964	0.5659	0.4438	-0.3
Mof_C 	C 	0.4952	0.6355	0.3697	1.086
Mof_C 	C 	0.7001	0.0357	0.5292	0.01
Mof_O 	O 	0.8382	0.3277	0.8466	-1.591
Mof_O 	O 	0.1742	0.8379	0.1686	-1.536
Mof_C 	C 	0.1936	0.4768	0.9533	0.015
Mof_C 	C 	0.0036	0.4341	0.9438	-0.14
Mof_C 	C 	0.0048	0.3645	0.8697	1.233
Mof_C 	C 	0.7999	0.9643	0.0292	-0.095
Mof_O 	O 	0.3382	0.8277	0.3466	-1.489
Mof_O 	O 	0.6742	0.3379	0.6686	-1.509
Mof_C 	C 	0.6936	0.9768	0.4533	0.032
Mof_C 	C 	0.5036	0.9341	0.4438	-0.305
Mof_C 	C 	0.5048	0.8645	0.3697	1.086
Mof_C 	C 	0.2999	0.4643	0.5292	0.094
Mof_O 	O 	0.8382	0.8277	0.1534	-1.591
Mof_O 	O 	0.1742	0.3379	0.8314	-1.536
Mof_C 	C 	0.1936	0.9768	0.0467	0.018
Mof_C 	C 	0.0036	0.9341	0.0562	-0.143
Mof_C 	C 	0.0048	0.8645	0.1303	1.232
Mof_C 	C 	0.7999	0.4643	0.9708	-0.1
Mof_O 	O 	0.3382	0.3277	0.6534	-1.489
Mof_O 	O 	0.6742	0.8379	0.3314	-1.509
Mof_C 	C 	0.6936	0.4768	0.5467	0.025
Mof_C 	C 	0.5036	0.4341	0.5562	-0.303
Mof_C 	C 	0.5048	0.3645	0.6303	1.085
Mof_C 	C 	0.2999	0.9643	0.4708	0.099
Mof_O 	O 	0.1618	0.6723	0.1534	-1.378
Mof_O 	O 	0.8258	0.1621	0.8314	-1.473
Mof_C 	C 	0.8064	0.5232	0.0467	0.111
Mof_C 	C 	0.9964	0.5659	0.0562	-0.458
Mof_C 	C 	0.9952	0.6355	0.1303	0.93
Mof_C 	C 	0.2001	0.0357	0.9708	0.211
Mof_O 	O 	0.6618	0.1723	0.6534	-1.488
Mof_O 	O 	0.3258	0.6621	0.3314	-1.507
Mof_C 	C 	0.3064	0.0232	0.5467	0.093
Mof_C 	C 	0.4964	0.0659	0.5562	-0.298
Mof_C 	C 	0.4952	0.1355	0.6303	1.085
Mof_C 	C 	0.7001	0.5357	0.4708	0.017
Mof_Al	Al	0.25	0.25	0.75	6.432
Mof_Al	Al	0.75	0.25	0.75	6.103
Mof_Al	Al	0.75	0.75	0.25	6.106
Mof_Al	Al	0.25	0.75	0.25	6.433
Mof_F 	F 	9.17104e-19	0.25	0.6905	-2.043
Mof_F 	F 	0.5	0.75	0.1905	-2.128
Mof_F 	F 	-7.50169e-19	0.75	0.3095	-2.044
Mof_F 	F 	0.5	0.25	0.8095	-2.128
_end
