data_functionalizedCrystal
_audit_creation_method	'EQeq! by Chris Wilmer'
_symmetry_space_group_name_H-M	'P1'
_symmetry_Int_Tables_number	1
_symmetry_cell_setting	triclinic
loop_
_symmetry_equiv_pos_as_xyz
  x,y,z
_cell_length_a	9.8456
_cell_length_b	12.0753
_cell_length_c	13.0039
_cell_angle_alpha	91.842
_cell_angle_beta	100.925
_cell_angle_gamma	101.745
loop_
_atom_site_label
_atom_site_type_symbol
_atom_site_fract_x
_atom_site_fract_y
_atom_site_fract_z
_atom_site_charge
Mof_Co	Co	0.46244	0.28429	0.32159	1.117
Mof_Co	Co	0.84019	0.78464	0.82137	1.142
Mof_Co	Co	0.53756	0.71571	0.67841	1.119
Mof_Co	Co	0.15981	0.21536	0.17863	1.138
Mof_Co	Co	0.5	0.5	0.5	1.204
Mof_Co	Co	-0	0	-0	1.153
Mof_H 	H 	0.2372	0.6492	0.3281	0.022
Mof_H 	H 	0.1283	0.7738	0.221	0.077
Mof_H 	H 	0.0843	0.5539	0.9685	0.108
Mof_H 	H 	0.202	0.4385	0.0739	-0.005
Mof_H 	H 	0.3677	0.2734	0.7242	0.08
Mof_H 	H 	0.2401	0.1514	0.8272	0.024
Mof_H 	H 	0.0676	0.9279	0.5778	-0.005
Mof_H 	H 	0.1743	0.0599	0.4698	0.083
Mof_H 	H 	0.8197	0.5958	0.4356	0.006
Mof_H 	H 	0.9552	0.3052	0.5205	0.008
Mof_H 	H 	0.4282	0.8073	0.0099	0.087
Mof_H 	H 	0.6801	0.0738	0.9129	0.101
Mof_H 	H 	0.7628	0.3508	0.6719	0.049
Mof_H 	H 	0.8717	0.2262	0.779	0.044
Mof_H 	H 	0.9157	0.4461	0.0315	0.02
Mof_H 	H 	0.798	0.5615	0.9261	0.057
Mof_H 	H 	0.6323	0.7266	0.2758	0.041
Mof_H 	H 	0.7599	0.8486	0.1728	0.072
Mof_H 	H 	0.9324	0.0721	0.4222	0.095
Mof_H 	H 	0.8257	0.9401	0.5302	0.035
Mof_H 	H 	0.1803	0.4042	0.5644	0.095
Mof_H 	H 	0.0448	0.6948	0.4795	0.093
Mof_H 	H 	0.5718	0.1927	0.9901	-0.003
Mof_H 	H 	0.3199	0.9262	0.0871	0.003
Mof_C 	C 	0.2345	0.5338	0.209	-0.216
Mof_C 	C 	0.2093	0.632	0.2544	0.077
Mof_C 	C 	0.1426	0.7054	0.191	-0.1
Mof_C 	C 	0.0979	0.6766	0.0839	0.002
Mof_C 	C 	0.1182	0.5753	0.0412	-0.17
Mof_C 	C 	0.1871	0.5066	0.1042	0.112
Mof_C 	C 	0.305	0.4551	0.2753	0.526
Mof_C 	C 	0.0269	0.7497	0.0189	0.246
Mof_C 	C 	0.2797	0.1733	0.5831	0.008
Mof_C 	C 	0.3038	0.2054	0.6937	-0.106
Mof_C 	C 	0.2284	0.1312	0.7543	0.074
Mof_C 	C 	0.1384	0.0306	0.7128	-0.216
Mof_C 	C 	0.123	0.9996	0.6073	0.14
Mof_C 	C 	0.1922	0.0777	0.5434	-0.154
Mof_C 	C 	0.3553	0.2517	0.5186	0.257
Mof_C 	C 	0.0627	0.9558	0.7797	0.39
Mof_C 	C 	0.7141	0.3703	0.4289	0.375
Mof_C 	C 	0.894	0.5582	0.4608	0.13
Mof_C 	C 	0.8636	0.4388	0.4686	-0.16
Mof_C 	C 	0.9759	0.3843	0.5118	0.135
Mof_C 	C 	0.6866	0.8679	0.9332	0.267
Mof_C 	C 	0.4603	0.8868	0.0081	-0.172
Mof_C 	C 	0.5782	0.926	0.9626	0.068
Mof_C 	C 	0.6091	0.0434	0.9507	-0.187
Mof_C 	C 	0.7655	0.4662	0.791	-0.131
Mof_C 	C 	0.7907	0.368	0.7456	-0.001
Mof_C 	C 	0.8574	0.2946	0.809	0.007
Mof_C 	C 	0.9021	0.3234	0.9161	-0.135
Mof_C 	C 	0.8818	0.4247	0.9588	0.062
Mof_C 	C 	0.8129	0.4934	0.8958	-0.021
Mof_C 	C 	0.695	0.5449	0.7247	0.495
Mof_C 	C 	0.9731	0.2503	0.9811	0.451
Mof_C 	C 	0.7203	0.8267	0.4169	-0.105
Mof_C 	C 	0.6962	0.7946	0.3063	0.017
Mof_C 	C 	0.7716	0.8688	0.2457	-0.058
Mof_C 	C 	0.8616	0.9694	0.2872	0.007
Mof_C 	C 	0.877	0.0004	0.3927	-0.129
Mof_C 	C 	0.8078	0.9223	0.4566	0.073
Mof_C 	C 	0.6447	0.7483	0.4814	0.304
Mof_C 	C 	0.9373	0.0442	0.2203	0.359
Mof_C 	C 	0.2859	0.6297	0.5711	0.308
Mof_C 	C 	0.106	0.4418	0.5392	-0.173
Mof_C 	C 	0.1364	0.5612	0.5314	0.016
Mof_C 	C 	0.0241	0.6157	0.4882	-0.168
Mof_C 	C 	0.3134	0.1321	0.0668	0.365
Mof_C 	C 	0.5397	0.1132	0.9919	0.159
Mof_C 	C 	0.4218	0.074	0.0374	-0.247
Mof_C 	C 	0.3909	0.9566	0.0493	0.136
Mof_O 	O 	0.3169	0.3722	0.2463	-0.664
Mof_O 	O 	0.3412	0.4871	0.3817	-0.462
Mof_O 	O 	0.03	0.851	0.0585	-0.398
Mof_O 	O 	0.9674	0.7159	0.9252	-0.376
Mof_O 	O 	0.3519	0.2163	0.4114	-0.468
Mof_O 	O 	0.4272	0.3505	0.5576	-0.394
Mof_O 	O 	0.0972	0.9799	0.8783	-0.42
Mof_O 	O 	0.9634	0.8756	0.7358	-0.431
Mof_O 	O 	0.6168	0.4182	0.399	-0.535
Mof_O 	O 	0.6952	0.2641	0.4287	-0.366
Mof_O 	O 	0.7921	0.9204	0.9032	-0.486
Mof_O 	O 	0.653	0.7622	0.9336	-0.343
Mof_O 	O 	0.6831	0.6278	0.7537	-0.651
Mof_O 	O 	0.6588	0.5129	0.6183	-0.455
Mof_O 	O 	0.97	0.149	0.9415	-0.414
Mof_O 	O 	0.0326	0.2841	0.0748	-0.514
Mof_O 	O 	0.6481	0.7837	0.5886	-0.467
Mof_O 	O 	0.5728	0.6495	0.4424	-0.399
Mof_O 	O 	0.9028	0.0201	0.1217	-0.439
Mof_O 	O 	0.0366	0.1244	0.2642	-0.484
Mof_O 	O 	0.3832	0.5818	0.601	-0.517
Mof_O 	O 	0.3048	0.7359	0.5713	-0.344
Mof_O 	O 	0.2079	0.0796	0.0968	-0.56
Mof_O 	O 	0.347	0.2378	0.0664	-0.39
_end
