data_functionalizedCrystal
_audit_creation_method	'EQeq! by Chris Wilmer'
_symmetry_space_group_name_H-M	'P1'
_symmetry_Int_Tables_number	1
_symmetry_cell_setting	triclinic
loop_
_symmetry_equiv_pos_as_xyz
  x,y,z
_cell_length_a	30.242
_cell_length_b	30.242
_cell_length_c	13.406
_cell_angle_alpha	90
_cell_angle_beta	90
_cell_angle_gamma	120
loop_
_atom_site_label
_atom_site_type_symbol
_atom_site_fract_x
_atom_site_fract_y
_atom_site_fract_z
_atom_site_charge
Mof_O 	O 	0.2545	0.5824	0.3939	-0.678
Mof_C 	C 	0.204	0.4809	0.1588	0.01
Mof_H 	H 	0.1717	0.47	0.131	0.013
Mof_C 	C 	0.2186	0.5152	0.2371	0.012
Mof_H 	H 	0.1971	0.5268	0.2615	0.03
Mof_C 	C 	0.1087	0.3522	0.0574	0.294
Mof_C 	C 	0.02654	0.3416	0.982	-0.042
Mof_H 	H 	0.0448	0.3692	0.9383	0.048
Mof_O 	O 	0.136	0.3428	0.1144	-0.267
Mof_C 	C 	0.02668	0.2848	0.1108	-0.018
Mof_H 	H 	0.0451	0.2748	0.1524	0.055
Mof_C 	C 	0.0518	0.3267	0.0473	-0.107
Mof_O 	O 	0.4176	0.6721	0.3939	-0.677
Mof_C 	C 	0.5191	0.7231	0.1588	0.011
Mof_H 	H 	0.53	0.7017	0.131	0.014
Mof_C 	C 	0.4848	0.7034	0.2371	0.013
Mof_H 	H 	0.4732	0.6703	0.2615	0.031
Mof_C 	C 	0.6478	0.7565	0.0574	0.295
Mof_C 	C 	0.6584	0.68494	0.982	-0.041
Mof_H 	H 	0.6308	0.6756	0.9383	0.049
Mof_O 	O 	0.6572	0.7932	0.1144	-0.266
Mof_C 	C 	0.7152	0.74188	0.1108	-0.017
Mof_H 	H 	0.7252	0.7703	0.1524	0.056
Mof_C 	C 	0.6733	0.7251	0.0473	-0.106
Mof_O 	O 	0.3279	0.7455	0.3939	-0.677
Mof_C 	C 	0.2769	0.796	0.1588	0.011
Mof_H 	H 	0.2983	0.8283	0.131	0.014
Mof_C 	C 	0.2966	0.7814	0.2371	0.013
Mof_H 	H 	0.3297	0.8029	0.2615	0.031
Mof_C 	C 	0.2435	0.8913	0.0574	0.295
Mof_C 	C 	0.31506	0.97346	0.982	-0.041
Mof_H 	H 	0.3244	0.9552	0.9383	0.049
Mof_O 	O 	0.2068	0.864	0.1144	-0.266
Mof_C 	C 	0.25812	0.97332	0.1108	-0.017
Mof_H 	H 	0.2297	0.9549	0.1524	0.056
Mof_C 	C 	0.2749	0.9482	0.0473	-0.105
Mof_O 	O 	0.7455	0.4176	0.3939	-0.677
Mof_C 	C 	0.796	0.5191	0.1588	0.011
Mof_H 	H 	0.8283	0.53	0.131	0.014
Mof_C 	C 	0.7814	0.4848	0.2371	0.013
Mof_H 	H 	0.8029	0.4732	0.2615	0.031
Mof_C 	C 	0.8913	0.6478	0.0574	0.295
Mof_C 	C 	0.97346	0.6584	0.982	-0.041
Mof_H 	H 	0.9552	0.6308	0.9383	0.049
Mof_O 	O 	0.864	0.6572	0.1144	-0.266
Mof_C 	C 	0.97332	0.7152	0.1108	-0.017
Mof_H 	H 	0.9549	0.7252	0.1524	0.056
Mof_C 	C 	0.9482	0.6733	0.0473	-0.106
Mof_O 	O 	0.5824	0.3279	0.3939	-0.677
Mof_C 	C 	0.4809	0.2769	0.1588	0.011
Mof_H 	H 	0.47	0.2983	0.131	0.014
Mof_C 	C 	0.5152	0.2966	0.2371	0.013
Mof_H 	H 	0.5268	0.3297	0.2615	0.031
Mof_C 	C 	0.3522	0.2435	0.0574	0.295
Mof_C 	C 	0.3416	0.31506	0.982	-0.041
Mof_H 	H 	0.3692	0.3244	0.9383	0.049
Mof_O 	O 	0.3428	0.2068	0.1144	-0.266
Mof_C 	C 	0.2848	0.25812	0.1108	-0.017
Mof_H 	H 	0.2748	0.2297	0.1524	0.056
Mof_C 	C 	0.3267	0.2749	0.0473	-0.106
Mof_O 	O 	0.6721	0.2545	0.3939	-0.677
Mof_C 	C 	0.7231	0.204	0.1588	0.011
Mof_H 	H 	0.7017	0.1717	0.131	0.014
Mof_C 	C 	0.7034	0.2186	0.2371	0.013
Mof_H 	H 	0.6703	0.1971	0.2615	0.031
Mof_C 	C 	0.7565	0.1087	0.0574	0.295
Mof_C 	C 	0.68494	0.02654	0.982	-0.041
Mof_H 	H 	0.6756	0.0448	0.9383	0.049
Mof_O 	O 	0.7932	0.136	0.1144	-0.266
Mof_C 	C 	0.74188	0.02668	0.1108	-0.017
Mof_H 	H 	0.7703	0.0451	0.1524	0.056
Mof_C 	C 	0.7251	0.0518	0.0473	-0.105
Mof_O 	O 	0.5824	0.2545	0.6061	-0.676
Mof_C 	C 	0.4809	0.204	0.8412	0.012
Mof_H 	H 	0.47	0.1717	0.869	0.02
Mof_C 	C 	0.5152	0.2186	0.7629	0.015
Mof_H 	H 	0.5268	0.1971	0.7385	0.032
Mof_C 	C 	0.3522	0.1087	0.9426	0.301
Mof_C 	C 	0.3416	0.02654	0.018	0.034
Mof_H 	H 	0.3692	0.0448	0.0617	0.03
Mof_O 	O 	0.3428	0.136	0.8856	-0.261
Mof_C 	C 	0.2848	0.02668	0.8892	-0.03
Mof_H 	H 	0.2748	0.0451	0.8476	0.063
Mof_C 	C 	0.3267	0.0518	0.9527	-0.035
Mof_O 	O 	0.6721	0.4176	0.6061	-0.676
Mof_C 	C 	0.7231	0.5191	0.8412	0.012
Mof_H 	H 	0.7017	0.53	0.869	0.02
Mof_C 	C 	0.7034	0.4848	0.7629	0.015
Mof_H 	H 	0.6703	0.4732	0.7385	0.032
Mof_C 	C 	0.7565	0.6478	0.9426	0.301
Mof_C 	C 	0.68494	0.6584	0.018	0.034
Mof_H 	H 	0.6756	0.6308	0.0617	0.03
Mof_O 	O 	0.7932	0.6572	0.8856	-0.261
Mof_C 	C 	0.74188	0.7152	0.8892	-0.03
Mof_H 	H 	0.7703	0.7252	0.8476	0.063
Mof_C 	C 	0.7251	0.6733	0.9527	-0.035
Mof_O 	O 	0.7455	0.3279	0.6061	-0.676
Mof_C 	C 	0.796	0.2769	0.8412	0.012
Mof_H 	H 	0.8283	0.2983	0.869	0.02
Mof_C 	C 	0.7814	0.2966	0.7629	0.015
Mof_H 	H 	0.8029	0.3297	0.7385	0.032
Mof_C 	C 	0.8913	0.2435	0.9426	0.301
Mof_C 	C 	0.97346	0.31506	0.018	0.034
Mof_H 	H 	0.9552	0.3244	0.0617	0.03
Mof_O 	O 	0.864	0.2068	0.8856	-0.261
Mof_C 	C 	0.97332	0.25812	0.8892	-0.03
Mof_H 	H 	0.9549	0.2297	0.8476	0.063
Mof_C 	C 	0.9482	0.2749	0.9527	-0.035
Mof_O 	O 	0.4176	0.7455	0.6061	-0.676
Mof_C 	C 	0.5191	0.796	0.8412	0.012
Mof_H 	H 	0.53	0.8283	0.869	0.02
Mof_C 	C 	0.4848	0.7814	0.7629	0.015
Mof_H 	H 	0.4732	0.8029	0.7385	0.032
Mof_C 	C 	0.6478	0.8913	0.9426	0.301
Mof_C 	C 	0.6584	0.97346	0.018	0.034
Mof_H 	H 	0.6308	0.9552	0.0617	0.03
Mof_O 	O 	0.6572	0.864	0.8856	-0.261
Mof_C 	C 	0.7152	0.97332	0.8892	-0.03
Mof_H 	H 	0.7252	0.9549	0.8476	0.063
Mof_C 	C 	0.6733	0.9482	0.9527	-0.035
Mof_O 	O 	0.3279	0.5824	0.6061	-0.676
Mof_C 	C 	0.2769	0.4809	0.8412	0.012
Mof_H 	H 	0.2983	0.47	0.869	0.02
Mof_C 	C 	0.2966	0.5152	0.7629	0.015
Mof_H 	H 	0.3297	0.5268	0.7385	0.032
Mof_C 	C 	0.2435	0.3522	0.9426	0.301
Mof_C 	C 	0.31506	0.3416	0.018	0.034
Mof_H 	H 	0.3244	0.3692	0.0617	0.03
Mof_O 	O 	0.2068	0.3428	0.8856	-0.261
Mof_C 	C 	0.25812	0.2848	0.8892	-0.03
Mof_H 	H 	0.2297	0.2748	0.8476	0.063
Mof_C 	C 	0.2749	0.3267	0.9527	-0.035
Mof_O 	O 	0.2545	0.6721	0.6061	-0.676
Mof_C 	C 	0.204	0.7231	0.8412	0.012
Mof_H 	H 	0.1717	0.7017	0.869	0.02
Mof_C 	C 	0.2186	0.7034	0.7629	0.015
Mof_H 	H 	0.1971	0.6703	0.7385	0.032
Mof_C 	C 	0.1087	0.7565	0.9426	0.301
Mof_C 	C 	0.02654	0.68494	0.018	0.034
Mof_H 	H 	0.0448	0.6756	0.0617	0.03
Mof_O 	O 	0.136	0.7932	0.8856	-0.261
Mof_C 	C 	0.02668	0.74188	0.8892	-0.03
Mof_H 	H 	0.0451	0.7703	0.8476	0.063
Mof_C 	C 	0.0518	0.7251	0.9527	-0.035
Mof_O 	O 	0.7455	0.4176	0.6061	-0.676
Mof_C 	C 	0.796	0.5191	0.8412	0.012
Mof_H 	H 	0.8283	0.53	0.869	0.02
Mof_C 	C 	0.7814	0.4848	0.7629	0.015
Mof_H 	H 	0.8029	0.4732	0.7385	0.032
Mof_C 	C 	0.8913	0.6478	0.9426	0.301
Mof_C 	C 	0.97346	0.6584	0.018	0.034
Mof_H 	H 	0.9552	0.6308	0.0617	0.03
Mof_O 	O 	0.864	0.6572	0.8856	-0.261
Mof_C 	C 	0.97332	0.7152	0.8892	-0.03
Mof_H 	H 	0.9549	0.7252	0.8476	0.063
Mof_C 	C 	0.9482	0.6733	0.9527	-0.035
Mof_O 	O 	0.5824	0.3279	0.6061	-0.676
Mof_C 	C 	0.4809	0.2769	0.8412	0.012
Mof_H 	H 	0.47	0.2983	0.869	0.02
Mof_C 	C 	0.5152	0.2966	0.7629	0.015
Mof_H 	H 	0.5268	0.3297	0.7385	0.032
Mof_C 	C 	0.3522	0.2435	0.9426	0.301
Mof_C 	C 	0.3416	0.31506	0.018	0.034
Mof_H 	H 	0.3692	0.3244	0.0617	0.03
Mof_O 	O 	0.3428	0.2068	0.8856	-0.261
Mof_C 	C 	0.2848	0.25812	0.8892	-0.03
Mof_H 	H 	0.2748	0.2297	0.8476	0.063
Mof_C 	C 	0.3267	0.2749	0.9527	-0.035
Mof_O 	O 	0.6721	0.2545	0.6061	-0.676
Mof_C 	C 	0.7231	0.204	0.8412	0.012
Mof_H 	H 	0.7017	0.1717	0.869	0.02
Mof_C 	C 	0.7034	0.2186	0.7629	0.015
Mof_H 	H 	0.6703	0.1971	0.7385	0.032
Mof_C 	C 	0.7565	0.1087	0.9426	0.301
Mof_C 	C 	0.68494	0.02654	0.018	0.034
Mof_H 	H 	0.6756	0.0448	0.0617	0.03
Mof_O 	O 	0.7932	0.136	0.8856	-0.261
Mof_C 	C 	0.74188	0.02668	0.8892	-0.03
Mof_H 	H 	0.7703	0.0451	0.8476	0.063
Mof_C 	C 	0.7251	0.0518	0.9527	-0.035
Mof_O 	O 	0.2545	0.5824	0.6061	-0.676
Mof_C 	C 	0.204	0.4809	0.8412	0.012
Mof_H 	H 	0.1717	0.47	0.869	0.02
Mof_C 	C 	0.2186	0.5152	0.7629	0.015
Mof_H 	H 	0.1971	0.5268	0.7385	0.032
Mof_C 	C 	0.1087	0.3522	0.9426	0.301
Mof_C 	C 	0.02654	0.3416	0.018	0.034
Mof_H 	H 	0.0448	0.3692	0.0617	0.03
Mof_O 	O 	0.136	0.3428	0.8856	-0.261
Mof_C 	C 	0.02668	0.2848	0.8892	-0.03
Mof_H 	H 	0.0451	0.2748	0.8476	0.063
Mof_C 	C 	0.0518	0.3267	0.9527	-0.035
Mof_O 	O 	0.4176	0.6721	0.6061	-0.676
Mof_C 	C 	0.5191	0.7231	0.8412	0.012
Mof_H 	H 	0.53	0.7017	0.869	0.02
Mof_C 	C 	0.4848	0.7034	0.7629	0.015
Mof_H 	H 	0.4732	0.6703	0.7385	0.032
Mof_C 	C 	0.6478	0.7565	0.9426	0.301
Mof_C 	C 	0.6584	0.68494	0.018	0.034
Mof_H 	H 	0.6308	0.6756	0.0617	0.03
Mof_O 	O 	0.6572	0.7932	0.8856	-0.261
Mof_C 	C 	0.7152	0.74188	0.8892	-0.03
Mof_H 	H 	0.7252	0.7703	0.8476	0.063
Mof_C 	C 	0.6733	0.7251	0.9527	-0.035
Mof_O 	O 	0.3279	0.7455	0.6061	-0.676
Mof_C 	C 	0.2769	0.796	0.8412	0.012
Mof_H 	H 	0.2983	0.8283	0.869	0.02
Mof_C 	C 	0.2966	0.7814	0.7629	0.015
Mof_H 	H 	0.3297	0.8029	0.7385	0.032
Mof_C 	C 	0.2435	0.8913	0.9426	0.301
Mof_C 	C 	0.31506	0.97346	0.018	0.034
Mof_H 	H 	0.3244	0.9552	0.0617	0.03
Mof_O 	O 	0.2068	0.864	0.8856	-0.261
Mof_C 	C 	0.25812	0.97332	0.8892	-0.03
Mof_H 	H 	0.2297	0.9549	0.8476	0.063
Mof_C 	C 	0.2749	0.9482	0.9527	-0.035
Mof_O 	O 	0.4176	0.7455	0.3939	-0.677
Mof_C 	C 	0.5191	0.796	0.1588	0.011
Mof_H 	H 	0.53	0.8283	0.131	0.014
Mof_C 	C 	0.4848	0.7814	0.2371	0.013
Mof_H 	H 	0.4732	0.8029	0.2615	0.031
Mof_C 	C 	0.6478	0.8913	0.0574	0.295
Mof_C 	C 	0.6584	0.97346	0.982	-0.041
Mof_H 	H 	0.6308	0.9552	0.9383	0.049
Mof_O 	O 	0.6572	0.864	0.1144	-0.266
Mof_C 	C 	0.7152	0.97332	0.1108	-0.017
Mof_H 	H 	0.7252	0.9549	0.1524	0.056
Mof_C 	C 	0.6733	0.9482	0.0473	-0.106
Mof_O 	O 	0.3279	0.5824	0.3939	-0.677
Mof_C 	C 	0.2769	0.4809	0.1588	0.011
Mof_H 	H 	0.2983	0.47	0.131	0.014
Mof_C 	C 	0.2966	0.5152	0.2371	0.013
Mof_H 	H 	0.3297	0.5268	0.2615	0.031
Mof_C 	C 	0.2435	0.3522	0.0574	0.295
Mof_C 	C 	0.31506	0.3416	0.982	-0.041
Mof_H 	H 	0.3244	0.3692	0.9383	0.049
Mof_O 	O 	0.2068	0.3428	0.1144	-0.266
Mof_C 	C 	0.25812	0.2848	0.1108	-0.017
Mof_H 	H 	0.2297	0.2748	0.1524	0.056
Mof_C 	C 	0.2749	0.3267	0.0473	-0.106
Mof_O 	O 	0.2545	0.6721	0.3939	-0.677
Mof_C 	C 	0.204	0.7231	0.1588	0.011
Mof_H 	H 	0.1717	0.7017	0.131	0.014
Mof_C 	C 	0.2186	0.7034	0.2371	0.013
Mof_H 	H 	0.1971	0.6703	0.2615	0.031
Mof_C 	C 	0.1087	0.7565	0.0574	0.295
Mof_C 	C 	0.02654	0.68494	0.982	-0.041
Mof_H 	H 	0.0448	0.6756	0.9383	0.049
Mof_O 	O 	0.136	0.7932	0.1144	-0.266
Mof_C 	C 	0.02668	0.74188	0.1108	-0.017
Mof_H 	H 	0.0451	0.7703	0.1524	0.056
Mof_C 	C 	0.0518	0.7251	0.0473	-0.105
Mof_O 	O 	0.5824	0.2545	0.3939	-0.677
Mof_C 	C 	0.4809	0.204	0.1588	0.011
Mof_H 	H 	0.47	0.1717	0.131	0.014
Mof_C 	C 	0.5152	0.2186	0.2371	0.013
Mof_H 	H 	0.5268	0.1971	0.2615	0.031
Mof_C 	C 	0.3522	0.1087	0.0574	0.295
Mof_C 	C 	0.3416	0.02654	0.982	-0.041
Mof_H 	H 	0.3692	0.0448	0.9383	0.049
Mof_O 	O 	0.3428	0.136	0.1144	-0.266
Mof_C 	C 	0.2848	0.02668	0.1108	-0.017
Mof_H 	H 	0.2748	0.0451	0.1524	0.056
Mof_C 	C 	0.3267	0.0518	0.0473	-0.106
Mof_O 	O 	0.6721	0.4176	0.3939	-0.677
Mof_C 	C 	0.7231	0.5191	0.1588	0.011
Mof_H 	H 	0.7017	0.53	0.131	0.014
Mof_C 	C 	0.7034	0.4848	0.2371	0.013
Mof_H 	H 	0.6703	0.4732	0.2615	0.031
Mof_C 	C 	0.7565	0.6478	0.0574	0.295
Mof_C 	C 	0.68494	0.6584	0.982	-0.041
Mof_H 	H 	0.6756	0.6308	0.9383	0.049
Mof_O 	O 	0.7932	0.6572	0.1144	-0.266
Mof_C 	C 	0.74188	0.7152	0.1108	-0.017
Mof_H 	H 	0.7703	0.7252	0.1524	0.056
Mof_C 	C 	0.7251	0.6733	0.0473	-0.106
Mof_O 	O 	0.7455	0.3279	0.3939	-0.677
Mof_C 	C 	0.796	0.2769	0.1588	0.011
Mof_H 	H 	0.8283	0.2983	0.131	0.014
Mof_C 	C 	0.7814	0.2966	0.2371	0.013
Mof_H 	H 	0.8029	0.3297	0.2615	0.031
Mof_C 	C 	0.8913	0.2435	0.0574	0.295
Mof_C 	C 	0.97346	0.31506	0.982	-0.041
Mof_H 	H 	0.9552	0.3244	0.9383	0.049
Mof_O 	O 	0.864	0.2068	0.1144	-0.266
Mof_C 	C 	0.97332	0.25812	0.1108	-0.017
Mof_H 	H 	0.9549	0.2297	0.1524	0.056
Mof_C 	C 	0.9482	0.2749	0.0473	-0.105
Mof_Zn	Zn	0.20631	0.41262	-0	1.23
Mof_Zn	Zn	0.58738	0.79369	-0	1.23
Mof_Zn	Zn	0.20631	0.79369	-0	1.23
Mof_Zn	Zn	0.79369	0.58738	-0	1.23
Mof_Zn	Zn	0.41262	0.20631	-0	1.23
Mof_Zn	Zn	0.79369	0.20631	-0	1.23
Mof_Cr	Cr	0.26023	0.63011	0.5	2.109
Mof_Cr	Cr	0.36989	0.63011	0.5	2.109
Mof_Cr	Cr	0.36989	0.73977	0.5	2.109
Mof_Cr	Cr	0.73977	0.36989	0.5	2.109
Mof_Cr	Cr	0.63011	0.36989	0.5	2.109
Mof_Cr	Cr	0.63011	0.26023	0.5	2.109
Mof_C 	C 	0.2657	0.5314	0.2772	-0.167
Mof_N 	N 	0.23085	0.4617	0.119	-0.231
Mof_C 	C 	0.2839	0.5678	0.3612	0.591
Mof_C 	C 	0.4686	0.7343	0.2772	-0.167
Mof_N 	N 	0.5383	0.76915	0.119	-0.231
Mof_C 	C 	0.4322	0.7161	0.3612	0.591
Mof_C 	C 	0.2657	0.7343	0.2772	-0.167
Mof_N 	N 	0.23085	0.76915	0.119	-0.231
Mof_C 	C 	0.2839	0.7161	0.3612	0.591
Mof_C 	C 	0.7343	0.4686	0.2772	-0.167
Mof_N 	N 	0.76915	0.5383	0.119	-0.231
Mof_C 	C 	0.7161	0.4322	0.3612	0.591
Mof_C 	C 	0.5314	0.2657	0.2772	-0.167
Mof_N 	N 	0.4617	0.23085	0.119	-0.231
Mof_C 	C 	0.5678	0.2839	0.3612	0.591
Mof_C 	C 	0.7343	0.2657	0.2772	-0.167
Mof_N 	N 	0.76915	0.23085	0.119	-0.231
Mof_C 	C 	0.7161	0.2839	0.3612	0.591
Mof_C 	C 	0.5314	0.2657	0.7228	-0.167
Mof_N 	N 	0.4617	0.23085	0.881	-0.225
Mof_C 	C 	0.5678	0.2839	0.6388	0.592
Mof_C 	C 	0.7343	0.4686	0.7228	-0.167
Mof_N 	N 	0.76915	0.5383	0.881	-0.225
Mof_C 	C 	0.7161	0.4322	0.6388	0.592
Mof_C 	C 	0.7343	0.2657	0.7228	-0.167
Mof_N 	N 	0.76915	0.23085	0.881	-0.225
Mof_C 	C 	0.7161	0.2839	0.6388	0.592
Mof_C 	C 	0.4686	0.7343	0.7228	-0.167
Mof_N 	N 	0.5383	0.76915	0.881	-0.225
Mof_C 	C 	0.4322	0.7161	0.6388	0.592
Mof_C 	C 	0.2657	0.5314	0.7228	-0.167
Mof_N 	N 	0.23085	0.4617	0.881	-0.225
Mof_C 	C 	0.2839	0.5678	0.6388	0.592
Mof_C 	C 	0.2657	0.7343	0.7228	-0.167
Mof_N 	N 	0.23085	0.76915	0.881	-0.225
Mof_C 	C 	0.2839	0.7161	0.6388	0.592
Mof_O 	O 	0.134	0.3881	-0	-0.543
Mof_O 	O 	0.6119	0.7459	-0	-0.543
Mof_O 	O 	0.2541	0.866	-0	-0.543
Mof_O 	O 	0.866	0.6119	-0	-0.543
Mof_O 	O 	0.3881	0.2541	-0	-0.543
Mof_O 	O 	0.7459	0.134	-0	-0.543
Mof_O 	O 	0.3881	0.134	-0	-0.543
Mof_O 	O 	0.7459	0.6119	-0	-0.543
Mof_O 	O 	0.866	0.2541	-0	-0.543
Mof_O 	O 	0.6119	0.866	-0	-0.543
Mof_O 	O 	0.2541	0.3881	-0	-0.543
Mof_O 	O 	0.134	0.7459	-0	-0.543
Mof_O 	O 	0.33333	0.66667	0.5	-1.136
Mof_O 	O 	0.66667	0.33333	0.5	-1.136
_end
