data_functionalizedCrystal
_audit_creation_method	'EQeq! by Chris Wilmer'
_symmetry_space_group_name_H-M	'P1'
_symmetry_Int_Tables_number	1
_symmetry_cell_setting	triclinic
loop_
_symmetry_equiv_pos_as_xyz
  x,y,z
_cell_length_a	24.03
_cell_length_b	24.03
_cell_length_c	12.815
_cell_angle_alpha	90
_cell_angle_beta	90
_cell_angle_gamma	120
loop_
_atom_site_label
_atom_site_type_symbol
_atom_site_fract_x
_atom_site_fract_y
_atom_site_fract_z
_atom_site_charge
Mof_O 	O 	0.28	0.5815	0.3127	-0.355
Mof_N 	N 	0.2174	0.5442	0.2948	-0.083
Mof_C 	C 	0.1923	0.48	0.2913	0.124
Mof_H 	H 	0.2185	0.4625	0.3037	0.001
Mof_C 	C 	0.1277	0.4398	0.2693	-0.244
Mof_H 	H 	0.1114	0.3958	0.2629	0.118
Mof_C 	C 	0.0862	0.4657	0.2565	0.278
Mof_C 	C 	0.1157	0.5321	0.2654	-0.247
Mof_H 	H 	0.09	0.5509	0.2606	0.116
Mof_C 	C 	0.1815	0.5723	0.281	0.12
Mof_H 	H 	0.1998	0.6168	0.2819	-0.007
Mof_C 	C 	0.0212	0.4286	0.2024	-0.234
Mof_C 	C 	0.0185	0.4257	0.2999	-0.28
Mof_O 	O 	0.94667	0.91483	0.64603	-0.31
Mof_N 	N 	0.88407	0.87753	0.62813	-0.061
Mof_C 	C 	0.85897	0.81333	0.62463	0.065
Mof_H 	H 	0.88517	0.79583	0.63703	0.025
Mof_C 	C 	0.79437	0.77313	0.60263	-0.131
Mof_H 	H 	0.77807	0.72913	0.59623	0.078
Mof_C 	C 	0.75287	0.79903	0.58983	0.08
Mof_C 	C 	0.78237	0.86543	0.59873	-0.127
Mof_H 	H 	0.75667	0.88423	0.59393	0.079
Mof_C 	C 	0.84817	0.90563	0.61433	0.061
Mof_H 	H 	0.86647	0.95013	0.61523	0.027
Mof_C 	C 	0.68787	0.76193	0.53573	0.012
Mof_C 	C 	0.68517	0.75903	0.63323	-0.047
Mof_O 	O 	0.61333	0.24817	0.97937	-0.356
Mof_N 	N 	0.55073	0.21087	0.96147	-0.062
Mof_C 	C 	0.52563	0.14667	0.95797	0.071
Mof_H 	H 	0.55183	0.12917	0.97037	0.018
Mof_C 	C 	0.46103	0.10647	0.93597	-0.145
Mof_H 	H 	0.44473	0.06247	0.92957	0.077
Mof_C 	C 	0.41953	0.13237	0.92317	0.106
Mof_C 	C 	0.44903	0.19877	0.93207	-0.143
Mof_H 	H 	0.42333	0.21757	0.92727	0.082
Mof_C 	C 	0.51483	0.23897	0.94767	0.067
Mof_H 	H 	0.53313	0.28347	0.94857	0.012
Mof_C 	C 	0.35453	0.09527	0.86907	-0.025
Mof_C 	C 	0.35183	0.09237	0.96657	-0.081
Mof_O 	O 	0.4185	0.6985	0.3127	-0.357
Mof_N 	N 	0.4558	0.6732	0.2948	-0.059
Mof_C 	C 	0.52	0.7123	0.2913	0.063
Mof_H 	H 	0.5375	0.756	0.3037	0.023
Mof_C 	C 	0.5602	0.6879	0.2693	-0.13
Mof_H 	H 	0.6042	0.7156	0.2629	0.078
Mof_C 	C 	0.5343	0.6205	0.2565	0.079
Mof_C 	C 	0.4679	0.5836	0.2654	-0.127
Mof_H 	H 	0.4491	0.5391	0.2606	0.076
Mof_C 	C 	0.4277	0.6092	0.281	0.058
Mof_H 	H 	0.3832	0.583	0.2819	0.015
Mof_C 	C 	0.5714	0.5926	0.2024	0.01
Mof_C 	C 	0.5743	0.5928	0.2999	-0.046
Mof_O 	O 	0.08517	0.03183	0.64603	-0.348
Mof_N 	N 	0.12247	0.00653	0.62813	-0.096
Mof_C 	C 	0.18667	0.04563	0.62463	0.102
Mof_H 	H 	0.20417	0.08933	0.63703	0.008
Mof_C 	C 	0.22687	0.02123	0.60263	-0.223
Mof_H 	H 	0.27087	0.04893	0.59623	0.102
Mof_C 	C 	0.20097	0.95383	0.58983	0.173
Mof_C 	C 	0.13457	0.91693	0.59873	-0.191
Mof_H 	H 	0.11577	0.87243	0.59393	0.095
Mof_C 	C 	0.09437	0.94253	0.61433	0.131
Mof_H 	H 	0.04987	0.91633	0.61523	-0.011
Mof_C 	C 	0.23807	0.92593	0.53573	-0.029
Mof_C 	C 	0.24097	0.92613	0.63323	-0.082
Mof_O 	O 	0.75183	0.36517	0.97937	-0.356
Mof_N 	N 	0.78913	0.33987	0.96147	-0.056
Mof_C 	C 	0.85333	0.37897	0.95797	0.056
Mof_H 	H 	0.87083	0.42267	0.97037	0.026
Mof_C 	C 	0.89353	0.35457	0.93597	-0.115
Mof_H 	H 	0.93753	0.38227	0.92957	0.078
Mof_C 	C 	0.86763	0.28717	0.92317	0.05
Mof_C 	C 	0.80123	0.25027	0.93207	-0.11
Mof_H 	H 	0.78243	0.20577	0.92727	0.068
Mof_C 	C 	0.76103	0.27587	0.94767	0.049
Mof_H 	H 	0.71653	0.24967	0.94857	0.018
Mof_C 	C 	0.90473	0.25927	0.86907	0.047
Mof_C 	C 	0.90763	0.25947	0.96657	-0.008
Mof_O 	O 	0.3015	0.72	0.3127	-0.358
Mof_N 	N 	0.3268	0.7826	0.2948	-0.036
Mof_C 	C 	0.2877	0.8077	0.2913	0.002
Mof_H 	H 	0.244	0.7815	0.3037	0.043
Mof_C 	C 	0.3121	0.8723	0.2693	-0.014
Mof_H 	H 	0.2844	0.8886	0.2629	0.036
Mof_C 	C 	0.3795	0.9138	0.2565	-0.126
Mof_C 	C 	0.4164	0.8843	0.2654	-0.004
Mof_H 	H 	0.4609	0.91	0.2606	0.034
Mof_C 	C 	0.3908	0.8185	0.281	-0.006
Mof_H 	H 	0.417	0.8002	0.2819	0.039
Mof_C 	C 	0.4074	0.9788	0.2024	0.255
Mof_C 	C 	0.4072	0.9815	0.2999	0.202
Mof_O 	O 	0.96817	0.05333	0.64603	-0.332
Mof_N 	N 	0.99347	0.11593	0.62813	-0.026
Mof_C 	C 	0.95437	0.14103	0.62463	0.026
Mof_H 	H 	0.91067	0.11483	0.63703	0.033
Mof_C 	C 	0.97877	0.20563	0.60263	-0.037
Mof_H 	H 	0.95107	0.22193	0.59623	0.053
Mof_C 	C 	0.04617	0.24713	0.58983	-0.015
Mof_C 	C 	0.08307	0.21763	0.59873	-0.064
Mof_H 	H 	0.12757	0.24333	0.59393	0.054
Mof_C 	C 	0.05747	0.15183	0.61433	-0.013
Mof_H 	H 	0.08367	0.13353	0.61523	0.038
Mof_C 	C 	0.07407	0.31213	0.53573	0.047
Mof_C 	C 	0.07387	0.31483	0.63323	-0.009
Mof_O 	O 	0.63483	0.38667	0.97937	-0.356
Mof_N 	N 	0.66013	0.44927	0.96147	-0.059
Mof_C 	C 	0.62103	0.47437	0.95797	0.064
Mof_H 	H 	0.57733	0.44817	0.97037	0.022
Mof_C 	C 	0.64543	0.53897	0.93597	-0.131
Mof_H 	H 	0.61773	0.55527	0.92957	0.078
Mof_C 	C 	0.71283	0.58047	0.92317	0.079
Mof_C 	C 	0.74973	0.55097	0.93207	-0.128
Mof_H 	H 	0.79423	0.57667	0.92727	0.077
Mof_C 	C 	0.72413	0.48517	0.94767	0.059
Mof_H 	H 	0.75033	0.46687	0.94857	0.016
Mof_C 	C 	0.74073	0.64547	0.86907	0.012
Mof_C 	C 	0.74053	0.64817	0.96657	-0.048
Mof_O 	O 	0.5815	0.28	0.1873	-0.354
Mof_N 	N 	0.5442	0.2174	0.2052	-0.083
Mof_C 	C 	0.48	0.1923	0.2087	0.125
Mof_H 	H 	0.4625	0.2185	0.1963	0
Mof_C 	C 	0.4398	0.1277	0.2307	-0.247
Mof_H 	H 	0.3958	0.1114	0.2371	0.119
Mof_C 	C 	0.4657	0.0862	0.2435	0.284
Mof_C 	C 	0.5321	0.1157	0.2346	-0.25
Mof_H 	H 	0.5509	0.09	0.2394	0.117
Mof_C 	C 	0.5723	0.1815	0.219	0.122
Mof_H 	H 	0.6168	0.1998	0.2181	-0.008
Mof_C 	C 	0.4286	0.0212	0.2976	-0.238
Mof_C 	C 	0.4257	0.0185	0.2001	-0.291
Mof_O 	O 	0.24817	0.61333	0.52063	-0.357
Mof_N 	N 	0.21087	0.55073	0.53853	-0.063
Mof_C 	C 	0.14667	0.52563	0.54203	0.071
Mof_H 	H 	0.12917	0.55183	0.52963	0.018
Mof_C 	C 	0.10647	0.46103	0.56403	-0.146
Mof_H 	H 	0.06247	0.44473	0.57043	0.077
Mof_C 	C 	0.13237	0.41953	0.57683	0.107
Mof_C 	C 	0.19877	0.44903	0.56793	-0.144
Mof_H 	H 	0.21757	0.42333	0.57273	0.082
Mof_C 	C 	0.23897	0.51483	0.55233	0.067
Mof_H 	H 	0.28347	0.53313	0.55143	0.012
Mof_C 	C 	0.09527	0.35453	0.63093	-0.027
Mof_C 	C 	0.09237	0.35183	0.53343	-0.082
Mof_O 	O 	0.91483	0.94667	0.85397	-0.31
Mof_N 	N 	0.87753	0.88407	0.87187	-0.061
Mof_C 	C 	0.81333	0.85897	0.87537	0.065
Mof_H 	H 	0.79583	0.88517	0.86297	0.025
Mof_C 	C 	0.77313	0.79437	0.89737	-0.131
Mof_H 	H 	0.72913	0.77807	0.90377	0.078
Mof_C 	C 	0.79903	0.75287	0.91017	0.08
Mof_C 	C 	0.86543	0.78237	0.90127	-0.127
Mof_H 	H 	0.88423	0.75667	0.90607	0.079
Mof_C 	C 	0.90563	0.84817	0.88567	0.061
Mof_H 	H 	0.95013	0.86647	0.88477	0.027
Mof_C 	C 	0.76193	0.68787	0.96427	0.012
Mof_C 	C 	0.75903	0.68517	0.86677	-0.047
Mof_O 	O 	0.6985	0.4185	0.1873	-0.357
Mof_N 	N 	0.6732	0.4558	0.2052	-0.059
Mof_C 	C 	0.7123	0.52	0.2087	0.063
Mof_H 	H 	0.756	0.5375	0.1963	0.022
Mof_C 	C 	0.6879	0.5602	0.2307	-0.13
Mof_H 	H 	0.7156	0.6042	0.2371	0.078
Mof_C 	C 	0.6205	0.5343	0.2435	0.079
Mof_C 	C 	0.5836	0.4679	0.2346	-0.127
Mof_H 	H 	0.5391	0.4491	0.2394	0.076
Mof_C 	C 	0.6092	0.4277	0.219	0.058
Mof_H 	H 	0.583	0.3832	0.2181	0.015
Mof_C 	C 	0.5926	0.5714	0.2976	0.01
Mof_C 	C 	0.5928	0.5743	0.2001	-0.046
Mof_O 	O 	0.36517	0.75183	0.52063	-0.356
Mof_N 	N 	0.33987	0.78913	0.53853	-0.056
Mof_C 	C 	0.37897	0.85333	0.54203	0.056
Mof_H 	H 	0.42267	0.87083	0.52963	0.026
Mof_C 	C 	0.35457	0.89353	0.56403	-0.116
Mof_H 	H 	0.38227	0.93753	0.57043	0.078
Mof_C 	C 	0.28717	0.86763	0.57683	0.051
Mof_C 	C 	0.25027	0.80123	0.56793	-0.11
Mof_H 	H 	0.20577	0.78243	0.57273	0.068
Mof_C 	C 	0.27587	0.76103	0.55233	0.049
Mof_H 	H 	0.24967	0.71653	0.55143	0.018
Mof_C 	C 	0.25927	0.90473	0.63093	0.046
Mof_C 	C 	0.25947	0.90763	0.53343	-0.008
Mof_O 	O 	0.03183	0.08517	0.85397	-0.348
Mof_N 	N 	0.00653	0.12247	0.87187	-0.096
Mof_C 	C 	0.04563	0.18667	0.87537	0.103
Mof_H 	H 	0.08933	0.20417	0.86297	0.007
Mof_C 	C 	0.02123	0.22687	0.89737	-0.225
Mof_H 	H 	0.04893	0.27087	0.90377	0.103
Mof_C 	C 	0.95383	0.20097	0.91017	0.175
Mof_C 	C 	0.91693	0.13457	0.90127	-0.193
Mof_H 	H 	0.87243	0.11577	0.90607	0.096
Mof_C 	C 	0.94253	0.09437	0.88567	0.133
Mof_H 	H 	0.91633	0.04987	0.88477	-0.011
Mof_C 	C 	0.92593	0.23807	0.96427	-0.03
Mof_C 	C 	0.92613	0.24097	0.86677	-0.082
Mof_O 	O 	0.72	0.3015	0.1873	-0.358
Mof_N 	N 	0.7826	0.3268	0.2052	-0.037
Mof_C 	C 	0.8077	0.2877	0.2087	0.004
Mof_H 	H 	0.7815	0.244	0.1963	0.042
Mof_C 	C 	0.8723	0.3121	0.2307	-0.018
Mof_H 	H 	0.8886	0.2844	0.2371	0.037
Mof_C 	C 	0.9138	0.3795	0.2435	-0.12
Mof_C 	C 	0.8843	0.4164	0.2346	-0.008
Mof_H 	H 	0.91	0.4609	0.2394	0.035
Mof_C 	C 	0.8185	0.3908	0.219	-0.004
Mof_H 	H 	0.8002	0.417	0.2181	0.038
Mof_C 	C 	0.9788	0.4074	0.2976	0.245
Mof_C 	C 	0.9815	0.4072	0.2001	0.198
Mof_O 	O 	0.38667	0.63483	0.52063	-0.356
Mof_N 	N 	0.44927	0.66013	0.53853	-0.059
Mof_C 	C 	0.47437	0.62103	0.54203	0.064
Mof_H 	H 	0.44817	0.57733	0.52963	0.022
Mof_C 	C 	0.53897	0.64543	0.56403	-0.131
Mof_H 	H 	0.55527	0.61773	0.57043	0.078
Mof_C 	C 	0.58047	0.71283	0.57683	0.079
Mof_C 	C 	0.55097	0.74973	0.56793	-0.128
Mof_H 	H 	0.57667	0.79423	0.57273	0.077
Mof_C 	C 	0.48517	0.72413	0.55233	0.059
Mof_H 	H 	0.46687	0.75033	0.55143	0.016
Mof_C 	C 	0.64547	0.74073	0.63093	0.011
Mof_C 	C 	0.64817	0.74053	0.53343	-0.047
Mof_O 	O 	0.05333	0.96817	0.85397	-0.333
Mof_N 	N 	0.11593	0.99347	0.87187	-0.027
Mof_C 	C 	0.14103	0.95437	0.87537	0.027
Mof_H 	H 	0.11483	0.91067	0.86297	0.033
Mof_C 	C 	0.20563	0.97877	0.89737	-0.041
Mof_H 	H 	0.22193	0.95107	0.90377	0.054
Mof_C 	C 	0.24713	0.04617	0.91017	-0.011
Mof_C 	C 	0.21763	0.08307	0.90127	-0.067
Mof_H 	H 	0.24333	0.12757	0.90607	0.054
Mof_C 	C 	0.15183	0.05747	0.88567	-0.01
Mof_H 	H 	0.13353	0.08367	0.88477	0.037
Mof_C 	C 	0.31213	0.07407	0.96427	0.047
Mof_C 	C 	0.31483	0.07387	0.86677	-0.011
Mof_Er	Er	0.66667	0.33333	0.08333	1.906
Mof_Er	Er	-3.93907e-33	0	0.75	1.727
Mof_Er	Er	0.33333	0.66667	0.41667	1.909
Mof_O 	O 	0.72	0.4185	0.6873	-0.359
Mof_N 	N 	0.7826	0.4558	0.7052	-0.037
Mof_C 	C 	0.8077	0.52	0.7087	0.004
Mof_H 	H 	0.7815	0.5375	0.6963	0.043
Mof_C 	C 	0.8723	0.5602	0.7307	-0.019
Mof_H 	H 	0.8886	0.6042	0.7371	0.038
Mof_C 	C 	0.9138	0.5343	0.7435	-0.118
Mof_C 	C 	0.8843	0.4679	0.7346	-0.009
Mof_H 	H 	0.91	0.4491	0.7394	0.036
Mof_C 	C 	0.8185	0.4277	0.719	-0.003
Mof_H 	H 	0.8002	0.3832	0.7181	0.038
Mof_C 	C 	0.9788	0.5714	0.7976	0.245
Mof_C 	C 	0.9815	0.5743	0.7001	0.192
Mof_O 	O 	0.38667	0.75183	0.02063	-0.355
Mof_N 	N 	0.44927	0.78913	0.03853	-0.056
Mof_C 	C 	0.47437	0.85333	0.04203	0.057
Mof_H 	H 	0.44817	0.87083	0.02963	0.026
Mof_C 	C 	0.53897	0.89353	0.06403	-0.118
Mof_H 	H 	0.55527	0.93753	0.07043	0.079
Mof_C 	C 	0.58047	0.86763	0.07683	0.054
Mof_C 	C 	0.55097	0.80123	0.06793	-0.113
Mof_H 	H 	0.57667	0.78243	0.07273	0.07
Mof_C 	C 	0.48517	0.76103	0.05233	0.051
Mof_H 	H 	0.46687	0.71653	0.05143	0.018
Mof_C 	C 	0.64547	0.90473	0.13093	0.043
Mof_C 	C 	0.64817	0.90763	0.03343	-0.015
Mof_O 	O 	0.05333	0.08517	0.35397	-0.353
Mof_N 	N 	0.11593	0.12247	0.37187	-0.061
Mof_C 	C 	0.14103	0.18667	0.37537	0.064
Mof_H 	H 	0.11483	0.20417	0.36297	0.018
Mof_C 	C 	0.20563	0.22687	0.39737	-0.131
Mof_H 	H 	0.22193	0.27087	0.40377	0.078
Mof_C 	C 	0.24713	0.20097	0.41017	0.08
Mof_C 	C 	0.21763	0.13457	0.40127	-0.129
Mof_H 	H 	0.24333	0.11577	0.40607	0.073
Mof_C 	C 	0.15183	0.09437	0.38567	0.059
Mof_H 	H 	0.13353	0.04987	0.38477	0.008
Mof_C 	C 	0.31213	0.23807	0.46427	0.008
Mof_C 	C 	0.31483	0.24097	0.36677	-0.046
Mof_O 	O 	0.5815	0.3015	0.6873	-0.356
Mof_N 	N 	0.5442	0.3268	0.7052	-0.059
Mof_C 	C 	0.48	0.2877	0.7087	0.064
Mof_H 	H 	0.4625	0.244	0.6963	0.021
Mof_C 	C 	0.4398	0.3121	0.7307	-0.131
Mof_H 	H 	0.3958	0.2844	0.7371	0.078
Mof_C 	C 	0.4657	0.3795	0.7435	0.079
Mof_C 	C 	0.5321	0.4164	0.7346	-0.127
Mof_H 	H 	0.5509	0.4609	0.7394	0.076
Mof_C 	C 	0.5723	0.3908	0.719	0.058
Mof_H 	H 	0.6168	0.417	0.7181	0.016
Mof_C 	C 	0.4286	0.4074	0.7976	0.01
Mof_C 	C 	0.4257	0.4072	0.7001	-0.045
Mof_O 	O 	0.24817	0.63483	0.02063	-0.356
Mof_N 	N 	0.21087	0.66013	0.03853	-0.062
Mof_C 	C 	0.14667	0.62103	0.04203	0.07
Mof_H 	H 	0.12917	0.57733	0.02963	0.019
Mof_C 	C 	0.10647	0.64543	0.06403	-0.143
Mof_H 	H 	0.06247	0.61773	0.07043	0.076
Mof_C 	C 	0.13237	0.71283	0.07683	0.102
Mof_C 	C 	0.19877	0.74973	0.06793	-0.141
Mof_H 	H 	0.21757	0.79423	0.07273	0.083
Mof_C 	C 	0.23897	0.72413	0.05233	0.066
Mof_H 	H 	0.28347	0.75033	0.05143	0.014
Mof_C 	C 	0.09527	0.74073	0.13093	-0.019
Mof_C 	C 	0.09237	0.74053	0.03343	-0.078
Mof_O 	O 	0.91483	0.96817	0.35397	-0.314
Mof_N 	N 	0.87753	0.99347	0.37187	-0.031
Mof_C 	C 	0.81333	0.95437	0.37537	0.032
Mof_H 	H 	0.79583	0.91067	0.36297	0.035
Mof_C 	C 	0.77313	0.97877	0.39737	-0.05
Mof_H 	H 	0.72913	0.95107	0.40377	0.057
Mof_C 	C 	0.79903	0.04617	0.41017	-0.002
Mof_C 	C 	0.86543	0.08307	0.40127	-0.072
Mof_H 	H 	0.88423	0.12757	0.40607	0.06
Mof_C 	C 	0.90563	0.05747	0.38567	-0.001
Mof_H 	H 	0.95013	0.08367	0.38477	0.046
Mof_C 	C 	0.76193	0.07407	0.46427	0.044
Mof_C 	C 	0.75903	0.07387	0.36677	-0.016
Mof_O 	O 	0.6985	0.28	0.6873	-0.355
Mof_N 	N 	0.6732	0.2174	0.7052	-0.081
Mof_C 	C 	0.7123	0.1923	0.7087	0.121
Mof_H 	H 	0.756	0.2185	0.6963	0.002
Mof_C 	C 	0.6879	0.1277	0.7307	-0.239
Mof_H 	H 	0.7156	0.1114	0.7371	0.117
Mof_C 	C 	0.6205	0.0862	0.7435	0.269
Mof_C 	C 	0.5836	0.1157	0.7346	-0.242
Mof_H 	H 	0.5391	0.09	0.7394	0.114
Mof_C 	C 	0.6092	0.1815	0.719	0.118
Mof_H 	H 	0.583	0.1998	0.7181	-0.006
Mof_C 	C 	0.5926	0.0212	0.7976	-0.224
Mof_C 	C 	0.5928	0.0185	0.7001	-0.271
Mof_O 	O 	0.36517	0.61333	0.02063	-0.356
Mof_N 	N 	0.33987	0.55073	0.03853	-0.059
Mof_C 	C 	0.37897	0.52563	0.04203	0.063
Mof_H 	H 	0.42267	0.55183	0.02963	0.022
Mof_C 	C 	0.35457	0.46103	0.06403	-0.13
Mof_H 	H 	0.38227	0.44473	0.07043	0.078
Mof_C 	C 	0.28717	0.41953	0.07683	0.078
Mof_C 	C 	0.25027	0.44903	0.06793	-0.127
Mof_H 	H 	0.20577	0.42333	0.07273	0.074
Mof_C 	C 	0.27587	0.51483	0.05233	0.058
Mof_H 	H 	0.24967	0.53313	0.05143	0.015
Mof_C 	C 	0.25927	0.35453	0.13093	0.009
Mof_C 	C 	0.25947	0.35183	0.03343	-0.044
Mof_O 	O 	0.03183	0.94667	0.35397	-0.324
Mof_N 	N 	0.00653	0.88407	0.37187	-0.091
Mof_C 	C 	0.04563	0.85897	0.37537	0.098
Mof_H 	H 	0.08933	0.88517	0.36297	0.013
Mof_C 	C 	0.02123	0.79437	0.39737	-0.211
Mof_H 	H 	0.04893	0.77807	0.40377	0.099
Mof_C 	C 	0.95383	0.75287	0.41017	0.16
Mof_C 	C 	0.91693	0.78237	0.40127	-0.182
Mof_H 	H 	0.87243	0.75667	0.40607	0.095
Mof_C 	C 	0.94253	0.84817	0.38567	0.121
Mof_H 	H 	0.91633	0.86647	0.38477	0.002
Mof_C 	C 	0.92593	0.68787	0.46427	-0.022
Mof_C 	C 	0.92613	0.68517	0.36677	-0.077
Mof_O 	O 	0.4185	0.72	0.8127	-0.358
Mof_N 	N 	0.4558	0.7826	0.7948	-0.037
Mof_C 	C 	0.52	0.8077	0.7913	0.006
Mof_H 	H 	0.5375	0.7815	0.8037	0.042
Mof_C 	C 	0.5602	0.8723	0.7693	-0.022
Mof_H 	H 	0.6042	0.8886	0.7629	0.039
Mof_C 	C 	0.5343	0.9138	0.7565	-0.112
Mof_C 	C 	0.4679	0.8843	0.7654	-0.013
Mof_H 	H 	0.4491	0.91	0.7606	0.037
Mof_C 	C 	0.4277	0.8185	0.781	-0.001
Mof_H 	H 	0.3832	0.8002	0.7819	0.037
Mof_C 	C 	0.5714	0.9788	0.7024	0.235
Mof_C 	C 	0.5743	0.9815	0.7999	0.188
Mof_O 	O 	0.08517	0.05333	0.14603	-0.353
Mof_N 	N 	0.12247	0.11593	0.12813	-0.061
Mof_C 	C 	0.18667	0.14103	0.12463	0.064
Mof_H 	H 	0.20417	0.11483	0.13703	0.018
Mof_C 	C 	0.22687	0.20563	0.10263	-0.131
Mof_H 	H 	0.27087	0.22193	0.09623	0.078
Mof_C 	C 	0.20097	0.24713	0.08983	0.08
Mof_C 	C 	0.13457	0.21763	0.09873	-0.129
Mof_H 	H 	0.11577	0.24333	0.09393	0.073
Mof_C 	C 	0.09437	0.15183	0.11433	0.059
Mof_H 	H 	0.04987	0.13353	0.11523	0.008
Mof_C 	C 	0.23807	0.31213	0.03573	0.008
Mof_C 	C 	0.24097	0.31483	0.13323	-0.046
Mof_O 	O 	0.75183	0.38667	0.47937	-0.356
Mof_N 	N 	0.78913	0.44927	0.46147	-0.056
Mof_C 	C 	0.85333	0.47437	0.45797	0.057
Mof_H 	H 	0.87083	0.44817	0.47037	0.026
Mof_C 	C 	0.89353	0.53897	0.43597	-0.118
Mof_H 	H 	0.93753	0.55527	0.42957	0.079
Mof_C 	C 	0.86763	0.58047	0.42317	0.055
Mof_C 	C 	0.80123	0.55097	0.43207	-0.113
Mof_H 	H 	0.78243	0.57667	0.42727	0.07
Mof_C 	C 	0.76103	0.48517	0.44767	0.051
Mof_H 	H 	0.71653	0.46687	0.44857	0.018
Mof_C 	C 	0.90473	0.64547	0.36907	0.042
Mof_C 	C 	0.90763	0.64817	0.46657	-0.015
Mof_O 	O 	0.3015	0.5815	0.8127	-0.356
Mof_N 	N 	0.3268	0.5442	0.7948	-0.059
Mof_C 	C 	0.2877	0.48	0.7913	0.064
Mof_H 	H 	0.244	0.4625	0.8037	0.021
Mof_C 	C 	0.3121	0.4398	0.7693	-0.131
Mof_H 	H 	0.2844	0.3958	0.7629	0.078
Mof_C 	C 	0.3795	0.4657	0.7565	0.079
Mof_C 	C 	0.4164	0.5321	0.7654	-0.127
Mof_H 	H 	0.4609	0.5509	0.7606	0.076
Mof_C 	C 	0.3908	0.5723	0.781	0.058
Mof_H 	H 	0.417	0.6168	0.7819	0.015
Mof_C 	C 	0.4074	0.4286	0.7024	0.01
Mof_C 	C 	0.4072	0.4257	0.7999	-0.046
Mof_O 	O 	0.96817	0.91483	0.14603	-0.314
Mof_N 	N 	0.99347	0.87753	0.12813	-0.033
Mof_C 	C 	0.95437	0.81333	0.12463	0.033
Mof_H 	H 	0.91067	0.79583	0.13703	0.034
Mof_C 	C 	0.97877	0.77313	0.10263	-0.054
Mof_H 	H 	0.95107	0.72913	0.09623	0.057
Mof_C 	C 	0.04617	0.79903	0.08983	0.002
Mof_C 	C 	0.08307	0.86543	0.09873	-0.074
Mof_H 	H 	0.12757	0.88423	0.09393	0.061
Mof_C 	C 	0.05747	0.90563	0.11433	0.002
Mof_H 	H 	0.08367	0.95013	0.11523	0.045
Mof_C 	C 	0.07407	0.76193	0.03573	0.043
Mof_C 	C 	0.07387	0.75903	0.13323	-0.018
Mof_O 	O 	0.63483	0.24817	0.47937	-0.357
Mof_N 	N 	0.66013	0.21087	0.46147	-0.062
Mof_C 	C 	0.62103	0.14667	0.45797	0.07
Mof_H 	H 	0.57733	0.12917	0.47037	0.018
Mof_C 	C 	0.64543	0.10647	0.43597	-0.144
Mof_H 	H 	0.61773	0.06247	0.42957	0.076
Mof_C 	C 	0.71283	0.13237	0.42317	0.103
Mof_C 	C 	0.74973	0.19877	0.43207	-0.142
Mof_H 	H 	0.79423	0.21757	0.42727	0.083
Mof_C 	C 	0.72413	0.23897	0.44767	0.066
Mof_H 	H 	0.75033	0.28347	0.44857	0.013
Mof_C 	C 	0.74073	0.09527	0.36907	-0.021
Mof_C 	C 	0.74053	0.09237	0.46657	-0.079
Mof_O 	O 	0.28	0.6985	0.8127	-0.354
Mof_N 	N 	0.2174	0.6732	0.7948	-0.082
Mof_C 	C 	0.1923	0.7123	0.7913	0.123
Mof_H 	H 	0.2185	0.756	0.8037	0.002
Mof_C 	C 	0.1277	0.6879	0.7693	-0.243
Mof_H 	H 	0.1114	0.7156	0.7629	0.118
Mof_C 	C 	0.0862	0.6205	0.7565	0.275
Mof_C 	C 	0.1157	0.5836	0.7654	-0.246
Mof_H 	H 	0.09	0.5391	0.7606	0.115
Mof_C 	C 	0.1815	0.6092	0.781	0.119
Mof_H 	H 	0.1998	0.583	0.7819	-0.007
Mof_C 	C 	0.0212	0.5926	0.7024	-0.228
Mof_C 	C 	0.0185	0.5928	0.7999	-0.281
Mof_O 	O 	0.94667	0.03183	0.14603	-0.325
Mof_N 	N 	0.88407	0.00653	0.12813	-0.092
Mof_C 	C 	0.85897	0.04563	0.12463	0.098
Mof_H 	H 	0.88517	0.08933	0.13703	0.013
Mof_C 	C 	0.79437	0.02123	0.10263	-0.213
Mof_H 	H 	0.77807	0.04893	0.09623	0.099
Mof_C 	C 	0.75287	0.95383	0.08983	0.162
Mof_C 	C 	0.78237	0.91693	0.09873	-0.183
Mof_H 	H 	0.75667	0.87243	0.09393	0.095
Mof_C 	C 	0.84817	0.94253	0.11433	0.123
Mof_H 	H 	0.86647	0.91633	0.11523	0.001
Mof_C 	C 	0.68787	0.92593	0.03573	-0.023
Mof_C 	C 	0.68517	0.92613	0.13323	-0.078
Mof_O 	O 	0.61333	0.36517	0.47937	-0.356
Mof_N 	N 	0.55073	0.33987	0.46147	-0.059
Mof_C 	C 	0.52563	0.37897	0.45797	0.063
Mof_H 	H 	0.55183	0.42267	0.47037	0.022
Mof_C 	C 	0.46103	0.35457	0.43597	-0.13
Mof_H 	H 	0.44473	0.38227	0.42957	0.078
Mof_C 	C 	0.41953	0.28717	0.42317	0.078
Mof_C 	C 	0.44903	0.25027	0.43207	-0.127
Mof_H 	H 	0.42333	0.20577	0.42727	0.074
Mof_C 	C 	0.51483	0.27587	0.44767	0.058
Mof_H 	H 	0.53313	0.24967	0.44857	0.015
Mof_C 	C 	0.35453	0.25927	0.36907	0.009
Mof_C 	C 	0.35183	0.25947	0.46657	-0.044
Mof_Er	Er	0.33333	0.66667	0.91667	1.906
Mof_Er	Er	-0	-1.96953e-33	0.25	1.727
Mof_Er	Er	0.66667	0.33333	0.58333	1.909
_end
