data_functionalizedCrystal
_audit_creation_method	'EQeq! by Chris Wilmer'
_symmetry_space_group_name_H-M	'P1'
_symmetry_Int_Tables_number	1
_symmetry_cell_setting	triclinic
loop_
_symmetry_equiv_pos_as_xyz
  x,y,z
_cell_length_a	10.4692
_cell_length_b	11.2307
_cell_length_c	12.7358
_cell_angle_alpha	101.237
_cell_angle_beta	110.087
_cell_angle_gamma	99.626
loop_
_atom_site_label
_atom_site_type_symbol
_atom_site_fract_x
_atom_site_fract_y
_atom_site_fract_z
_atom_site_charge
Mof_Eu	Eu	0.39408	0.45062	0.32462	2.327
Mof_O 	O 	0.3474	0.498	0.4939	-0.653
Mof_O 	O 	0.3793	0.5658	0.6771	-0.518
Mof_O 	O 	0.4292	0.2771	0.4037	-0.543
Mof_O 	O 	0.4996	0.3281	0.5968	-0.577
Mof_O 	O 	0.1637	0.2932	0.2344	-0.461
Mof_O 	O 	0.3177	0.2625	0.1584	-0.473
Mof_O 	O 	0.2068	0.5615	0.2611	-0.169
Mof_C 	C 	0.2986	0.5278	0.5698	0.496
Mof_C 	C 	0.1442	0.5144	0.5346	-0.229
Mof_C 	C 	0.09	0.5604	0.6159	0.452
Mof_H 	H 	0.1504	0.601	0.6946	-0.629
Mof_C 	C 	0.0554	0.4548	0.4212	-0.164
Mof_H 	H 	0.0936	0.4233	0.3671	0.101
Mof_C 	C 	0.469	0.2531	0.4994	0.575
Mof_C 	C 	0.4834	0.1203	0.4978	-0.321
Mof_C 	C 	0.4873	0.0401	0.3998	0.929
Mof_H 	H 	0.4795	0.0674	0.3323	-1.243
Mof_C 	C 	0.4973	0.0795	0.5965	-0.36
Mof_H 	H 	0.4961	0.1347	0.6628	0.171
Mof_C 	C 	0.2001	0.2275	0.1646	0.496
Mof_C 	C 	0.0961	0.1098	0.0792	-0.485
Mof_C 	C 	0.1375	0.0292	0.0066	0.449
Mof_H 	H 	0.2316	0.0481	0.0114	-0.98
Mof_C 	C 	0.9602	0.08	0.0736	0.655
Mof_H 	H 	0.9326	0.1337	0.1245	-1.205
Mof_C 	C 	0.1929	0.6602	0.2647	0.366
Mof_H 	H 	0.2608	0.7231	0.3309	-0.088
Mof_C 	C 	0.103	0.8372	0.2177	-0.029
Mof_C 	C 	0.986	0.622	0.0873	0.172
Mof_N 	N 	0.169	0.6225	0.7296	0.534
Mof_H 	H 	0.2612	0.6361	0.7565	-0.025
Mof_H 	H 	0.1279	0.649	0.7762	-0.08
Mof_N 	N 	0.4782	0.077	0.2938	1.184
Mof_H 	H 	0.4825	0.0239	0.2351	-0.271
Mof_H 	H 	0.4684	0.1522	0.2888	-0.207
Mof_N 	N 	0.276	0.0534	0.0101	0.999
Mof_H 	H 	0.339	0.1213	0.0593	-0.144
Mof_H 	H 	0.2983	0.0006	0.9631	-0.188
Mof_N 	N 	0.0889	0.84	0.8543	1.227
Mof_H 	H 	0.0316	0.7694	0.8047	-0.209
Mof_H 	H 	0.1762	0.8618	0.86	-0.269
Mof_N 	N 	0.098	0.7028	0.1925	-0.045
Mof_C 	C 	0.8086	0.373	0.7833	-0.069
Mof_C 	C 	0.898	0.2099	0.854	0.027
Mof_C 	C 	0.937	0.588	0.124	-0.102
Mof_H 	H 	0.7218	0.3135	0.7617	-0.027
Mof_N 	N 	0.9241	0.3378	0.837	-0.149
Mof_O 	O 	0.8006	0.4656	0.76	-0.248
Mof_Eu	Eu	0.60592	0.54938	0.67538	2.327
Mof_O 	O 	0.6526	0.502	0.5061	-0.653
Mof_O 	O 	0.6207	0.4342	0.3229	-0.518
Mof_O 	O 	0.5708	0.7229	0.5963	-0.543
Mof_O 	O 	0.5004	0.6719	0.4032	-0.577
Mof_O 	O 	0.8363	0.7068	0.7656	-0.461
Mof_O 	O 	0.6823	0.7375	0.8416	-0.473
Mof_O 	O 	0.7932	0.4385	0.7389	-0.169
Mof_C 	C 	0.7014	0.4722	0.4302	0.496
Mof_C 	C 	0.8558	0.4856	0.4654	-0.229
Mof_C 	C 	0.91	0.4396	0.3841	0.452
Mof_H 	H 	0.8496	0.399	0.3054	-0.629
Mof_C 	C 	0.9446	0.5452	0.5788	-0.164
Mof_H 	H 	0.9064	0.5767	0.6329	0.101
Mof_C 	C 	0.531	0.7469	0.5006	0.575
Mof_C 	C 	0.5166	0.8797	0.5022	-0.321
Mof_C 	C 	0.5127	0.9599	0.6002	0.929
Mof_H 	H 	0.5205	0.9326	0.6677	-1.243
Mof_C 	C 	0.5027	0.9205	0.4035	-0.36
Mof_H 	H 	0.5039	0.8653	0.3372	0.171
Mof_C 	C 	0.7999	0.7725	0.8354	0.496
Mof_C 	C 	0.9039	0.8902	0.9208	-0.485
Mof_C 	C 	0.8625	0.9708	0.9934	0.449
Mof_H 	H 	0.7684	0.9519	0.9886	-0.98
Mof_C 	C 	0.0398	0.92	0.9264	0.655
Mof_H 	H 	0.0674	0.8663	0.8755	-1.205
Mof_C 	C 	0.8071	0.3398	0.7353	0.366
Mof_H 	H 	0.7392	0.2769	0.6691	-0.088
Mof_C 	C 	0.897	0.1628	0.7823	-0.029
Mof_C 	C 	0.014	0.378	0.9127	0.172
Mof_N 	N 	0.831	0.3775	0.2704	0.534
Mof_H 	H 	0.7388	0.3639	0.2435	-0.025
Mof_H 	H 	0.8721	0.351	0.2238	-0.08
Mof_N 	N 	0.5218	0.923	0.7062	1.184
Mof_H 	H 	0.5175	0.9761	0.7649	-0.271
Mof_H 	H 	0.5316	0.8478	0.7112	-0.207
Mof_N 	N 	0.724	0.9466	0.9899	0.999
Mof_H 	H 	0.661	0.8787	0.9407	-0.144
Mof_H 	H 	0.7017	0.9994	0.0369	-0.188
Mof_N 	N 	0.9111	0.16	0.1457	1.227
Mof_H 	H 	0.9684	0.2306	0.1953	-0.209
Mof_H 	H 	0.8238	0.1382	0.14	-0.269
Mof_N 	N 	0.902	0.2972	0.8075	-0.045
Mof_C 	C 	0.1914	0.627	0.2167	-0.069
Mof_C 	C 	0.102	0.7901	0.146	0.027
Mof_C 	C 	0.063	0.412	0.876	-0.102
Mof_H 	H 	0.2782	0.6865	0.2383	-0.027
Mof_N 	N 	0.0759	0.6622	0.163	-0.149
Mof_O 	O 	0.1994	0.5344	0.24	-0.248
_end
