# CIF file generated by openbabel 3.1.0, see https://openbabel.org
data_I
_chemical_name_common 'image0'
_cell_length_a 29.106
_cell_length_b 29.106
_cell_length_c 23.417
_cell_angle_alpha 90
_cell_angle_beta 90
_cell_angle_gamma 120
_space_group_name_H-M_alt 'P 1'
_space_group_name_Hall 'P 1'
loop_
    _symmetry_equiv_pos_as_xyz
    x,y,z
loop_
    _atom_site_label
    _atom_site_type_symbol
    _atom_site_fract_x
    _atom_site_fract_y
    _atom_site_fract_z
    _atom_site_occupancy
    O1       O        0.43417    0.71387    0.98300    1.000
    O2       O        0.39681    0.62572    0.97310    1.000
    C1       C        0.43360    0.67030    0.98830    1.000
    C2       C        0.48230    0.67260    0.01430    1.000
    C3       C        0.52930    0.71930    0.02100    1.000
    H1       H        0.53100    0.75190    0.01220    1.000
    C4       C        0.57480    0.71940    0.04080    1.000
    H2       H        0.60700    0.75220    0.04500    1.000
    C5       C        0.57370    0.67320    0.05420    1.000
    C6       C        0.52480    0.62640    0.05220    1.000
    H3       H        0.52210    0.59420    0.06500    1.000
    C7       C        0.48000    0.62600    0.03170    1.000
    H4       H        0.44740    0.59350    0.02960    1.000
    C8       C        0.62250    0.67170    0.06980    1.000
    C9       C        0.62190    0.62330    0.06870    1.000
    H5       H        0.59050    0.59170    0.05800    1.000
    C10      C        0.71340    0.56840    0.08670    1.000
    H6       H        0.74650    0.60050    0.08910    1.000
    C11      C        0.71170    0.52010    0.08660    1.000
    H7       H        0.74420    0.51990    0.08910    1.000
    O3       O        0.10084    0.04720    0.31633    1.000
    O4       O        0.06348    0.95905    0.30643    1.000
    C12      C        0.10027    0.00363    0.32163    1.000
    C13      C        0.14897    0.00593    0.34763    1.000
    C14      C        0.19597    0.05263    0.35433    1.000
    H8       H        0.19767    0.08523    0.34553    1.000
    C15      C        0.24147    0.05273    0.37413    1.000
    H9       H        0.27367    0.08553    0.37833    1.000
    C16      C        0.24037    0.00653    0.38753    1.000
    C17      C        0.19147    0.95973    0.38553    1.000
    H10      H        0.18877    0.92753    0.39833    1.000
    C18      C        0.14667    0.95933    0.36503    1.000
    H11      H        0.11407    0.92683    0.36293    1.000
    C19      C        0.28917    0.00503    0.40313    1.000
    C20      C        0.28857    0.95663    0.40203    1.000
    H12      H        0.25717    0.92503    0.39133    1.000
    C21      C        0.38007    0.90173    0.42003    1.000
    H13      H        0.41317    0.93383    0.42243    1.000
    C22      C        0.37837    0.85343    0.41993    1.000
    H14      H        0.41087    0.85323    0.42243    1.000
    O5       O        0.76750    0.38054    0.64967    1.000
    O6       O        0.73014    0.29239    0.63977    1.000
    C23      C        0.76693    0.33697    0.65497    1.000
    C24      C        0.81563    0.33927    0.68097    1.000
    C25      C        0.86263    0.38597    0.68767    1.000
    H15      H        0.86433    0.41857    0.67887    1.000
    C26      C        0.90813    0.38607    0.70747    1.000
    H16      H        0.94033    0.41887    0.71167    1.000
    C27      C        0.90703    0.33987    0.72087    1.000
    C28      C        0.85813    0.29307    0.71887    1.000
    H17      H        0.85543    0.26087    0.73167    1.000
    C29      C        0.81333    0.29267    0.69837    1.000
    H18      H        0.78073    0.26017    0.69627    1.000
    C30      C        0.95583    0.33837    0.73647    1.000
    C31      C        0.95523    0.28997    0.73537    1.000
    H19      H        0.92383    0.25837    0.72467    1.000
    C32      C        0.04673    0.23507    0.75337    1.000
    H20      H        0.07983    0.26717    0.75577    1.000
    C33      C        0.04503    0.18677    0.75327    1.000
    H21      H        0.07753    0.18657    0.75577    1.000
    O7       O        0.28613    0.72030    0.98300    1.000
    O8       O        0.37428    0.77109    0.97310    1.000
    C34      C        0.32970    0.76330    0.98830    1.000
    C35      C        0.32740    0.80970    0.01430    1.000
    C36      C        0.28070    0.81000    0.02100    1.000
    H22      H        0.24810    0.77910    0.01220    1.000
    C37      C        0.28060    0.85540    0.04080    1.000
    H23      H        0.24780    0.85480    0.04500    1.000
    C38      C        0.32680    0.90050    0.05420    1.000
    C39      C        0.37360    0.89840    0.05220    1.000
    H24      H        0.40580    0.92790    0.06500    1.000
    C40      C        0.37400    0.85400    0.03170    1.000
    H25      H        0.40650    0.85390    0.02960    1.000
    C41      C        0.32830    0.95080    0.06980    1.000
    C42      C        0.37670    0.99860    0.06870    1.000
    H26      H        0.40830    0.99880    0.05800    1.000
    C43      C        0.43160    0.14500    0.08670    1.000
    H27      H        0.39950    0.14600    0.08910    1.000
    C44      C        0.47990    0.19160    0.08660    1.000
    H28      H        0.48010    0.22430    0.08910    1.000
    O9       O        0.95280    0.05363    0.31633    1.000
    O10      O        0.04095    0.10442    0.30643    1.000
    C45      C        0.99637    0.09663    0.32163    1.000
    C46      C        0.99407    0.14303    0.34763    1.000
    C47      C        0.94737    0.14333    0.35433    1.000
    H29      H        0.91477    0.11243    0.34553    1.000
    C48      C        0.94727    0.18873    0.37413    1.000
    H30      H        0.91447    0.18813    0.37833    1.000
    C49      C        0.99347    0.23383    0.38753    1.000
    C50      C        0.04027    0.23173    0.38553    1.000
    H31      H        0.07247    0.26123    0.39833    1.000
    C51      C        0.04067    0.18733    0.36503    1.000
    H32      H        0.07317    0.18723    0.36293    1.000
    C52      C        0.99497    0.28413    0.40313    1.000
    C53      C        0.04337    0.33193    0.40203    1.000
    H33      H        0.07497    0.33213    0.39133    1.000
    C54      C        0.09827    0.47833    0.42003    1.000
    H34      H        0.06617    0.47933    0.42243    1.000
    C55      C        0.14657    0.52493    0.41993    1.000
    H35      H        0.14677    0.55763    0.42243    1.000
    O11      O        0.61946    0.38697    0.64967    1.000
    O12      O        0.70761    0.43776    0.63977    1.000
    C56      C        0.66303    0.42997    0.65497    1.000
    C57      C        0.66073    0.47637    0.68097    1.000
    C58      C        0.61403    0.47667    0.68767    1.000
    H36      H        0.58143    0.44577    0.67887    1.000
    C59      C        0.61393    0.52207    0.70747    1.000
    H37      H        0.58113    0.52147    0.71167    1.000
    C60      C        0.66013    0.56717    0.72087    1.000
    C61      C        0.70693    0.56507    0.71887    1.000
    H38      H        0.73913    0.59457    0.73167    1.000
    C62      C        0.70733    0.52067    0.69837    1.000
    H39      H        0.73983    0.52057    0.69627    1.000
    C63      C        0.66163    0.61747    0.73647    1.000
    C64      C        0.71003    0.66527    0.73537    1.000
    H40      H        0.74163    0.66547    0.72467    1.000
    C65      C        0.76493    0.81167    0.75337    1.000
    H41      H        0.73283    0.81267    0.75577    1.000
    C66      C        0.81323    0.85827    0.75327    1.000
    H42      H        0.81343    0.89097    0.75577    1.000
    O13      O        0.27970    0.56583    0.98300    1.000
    O14      O        0.22891    0.60319    0.97310    1.000
    C67      C        0.23670    0.56640    0.98830    1.000
    C68      C        0.19030    0.51770    0.01430    1.000
    C69      C        0.19000    0.47070    0.02100    1.000
    H43      H        0.22090    0.46900    0.01220    1.000
    C70      C        0.14460    0.42520    0.04080    1.000
    H44      H        0.14520    0.39300    0.04500    1.000
    C71      C        0.09950    0.42630    0.05420    1.000
    C72      C        0.10160    0.47520    0.05220    1.000
    H45      H        0.07210    0.47790    0.06500    1.000
    C73      C        0.14600    0.52000    0.03170    1.000
    H46      H        0.14610    0.55260    0.02960    1.000
    C74      C        0.04920    0.37750    0.06980    1.000
    C75      C        0.00140    0.37810    0.06870    1.000
    H47      H        0.00120    0.40950    0.05800    1.000
    C76      C        0.85500    0.28660    0.08670    1.000
    H48      H        0.85400    0.25350    0.08910    1.000
    C77      C        0.80840    0.28830    0.08660    1.000
    H49      H        0.77570    0.25580    0.08910    1.000
    O15      O        0.94637    0.89916    0.31633    1.000
    O16      O        0.89558    0.93652    0.30643    1.000
    C78      C        0.90337    0.89973    0.32163    1.000
    C79      C        0.85697    0.85103    0.34763    1.000
    C80      C        0.85667    0.80403    0.35433    1.000
    H50      H        0.88757    0.80233    0.34553    1.000
    C81      C        0.81127    0.75853    0.37413    1.000
    H51      H        0.81187    0.72633    0.37833    1.000
    C82      C        0.76617    0.75963    0.38753    1.000
    C83      C        0.76827    0.80853    0.38553    1.000
    H52      H        0.73877    0.81123    0.39833    1.000
    C84      C        0.81267    0.85333    0.36503    1.000
    H53      H        0.81277    0.88593    0.36293    1.000
    C85      C        0.71587    0.71083    0.40313    1.000
    C86      C        0.66807    0.71143    0.40203    1.000
    H54      H        0.66787    0.74283    0.39133    1.000
    C87      C        0.52167    0.61993    0.42003    1.000
    H55      H        0.52067    0.58683    0.42243    1.000
    C88      C        0.47507    0.62163    0.41993    1.000
    H56      H        0.44237    0.58913    0.42243    1.000
    O17      O        0.61303    0.23250    0.64967    1.000
    O18      O        0.56224    0.26986    0.63977    1.000
    C89      C        0.57003    0.23307    0.65497    1.000
    C90      C        0.52363    0.18437    0.68097    1.000
    C91      C        0.52333    0.13737    0.68767    1.000
    H57      H        0.55423    0.13567    0.67887    1.000
    C92      C        0.47793    0.09187    0.70747    1.000
    H58      H        0.47853    0.05967    0.71167    1.000
    C93      C        0.43283    0.09297    0.72087    1.000
    C94      C        0.43493    0.14187    0.71887    1.000
    H59      H        0.40543    0.14457    0.73167    1.000
    C95      C        0.47933    0.18667    0.69837    1.000
    H60      H        0.47943    0.21927    0.69627    1.000
    C96      C        0.38253    0.04417    0.73647    1.000
    C97      C        0.33473    0.04477    0.73537    1.000
    H61      H        0.33453    0.07617    0.72467    1.000
    C98      C        0.18833    0.95327    0.75337    1.000
    H62      H        0.18733    0.92017    0.75577    1.000
    C99      C        0.14173    0.95497    0.75327    1.000
    H63      H        0.10903    0.92247    0.75577    1.000
    O19      O        0.71387    0.43417    0.51700    1.000
    O20      O        0.62572    0.39681    0.52690    1.000
    C100     C        0.67030    0.43360    0.51170    1.000
    C101     C        0.67260    0.48230    0.48570    1.000
    C102     C        0.71930    0.52930    0.47900    1.000
    H64      H        0.75190    0.53100    0.48780    1.000
    C103     C        0.71940    0.57480    0.45920    1.000
    H65      H        0.75220    0.60700    0.45500    1.000
    C104     C        0.67320    0.57370    0.44580    1.000
    C105     C        0.62640    0.52480    0.44780    1.000
    H66      H        0.59420    0.52210    0.43500    1.000
    C106     C        0.62600    0.48000    0.46830    1.000
    H67      H        0.59350    0.44740    0.47040    1.000
    C107     C        0.67170    0.62250    0.43020    1.000
    C108     C        0.62330    0.62190    0.43130    1.000
    H68      H        0.59170    0.59050    0.44200    1.000
    C109     C        0.56840    0.71340    0.41330    1.000
    H69      H        0.60050    0.74650    0.41090    1.000
    C110     C        0.52010    0.71170    0.41340    1.000
    H70      H        0.51990    0.74420    0.41090    1.000
    O21      O        0.38054    0.76750    0.85033    1.000
    O22      O        0.29239    0.73014    0.86023    1.000
    C111     C        0.33697    0.76693    0.84503    1.000
    C112     C        0.33927    0.81563    0.81903    1.000
    C113     C        0.38597    0.86263    0.81233    1.000
    H71      H        0.41857    0.86433    0.82113    1.000
    C114     C        0.38607    0.90813    0.79253    1.000
    H72      H        0.41887    0.94033    0.78833    1.000
    C115     C        0.33987    0.90703    0.77913    1.000
    C116     C        0.29307    0.85813    0.78113    1.000
    H73      H        0.26087    0.85543    0.76833    1.000
    C117     C        0.29267    0.81333    0.80163    1.000
    H74      H        0.26017    0.78073    0.80373    1.000
    C118     C        0.33837    0.95583    0.76353    1.000
    C119     C        0.28997    0.95523    0.76463    1.000
    H75      H        0.25837    0.92383    0.77533    1.000
    C120     C        0.23507    0.04673    0.74663    1.000
    H76      H        0.26717    0.07983    0.74423    1.000
    C121     C        0.18677    0.04503    0.74673    1.000
    H77      H        0.18657    0.07753    0.74423    1.000
    O23      O        0.04720    0.10084    0.18367    1.000
    O24      O        0.95905    0.06348    0.19357    1.000
    C122     C        0.00363    0.10027    0.17837    1.000
    C123     C        0.00593    0.14897    0.15237    1.000
    C124     C        0.05263    0.19597    0.14567    1.000
    H78      H        0.08523    0.19767    0.15447    1.000
    C125     C        0.05273    0.24147    0.12587    1.000
    H79      H        0.08553    0.27367    0.12167    1.000
    C126     C        0.00653    0.24037    0.11247    1.000
    C127     C        0.95973    0.19147    0.11447    1.000
    H80      H        0.92753    0.18877    0.10167    1.000
    C128     C        0.95933    0.14667    0.13497    1.000
    H81      H        0.92683    0.11407    0.13707    1.000
    C129     C        0.00503    0.28917    0.09687    1.000
    C130     C        0.95663    0.28857    0.09797    1.000
    H82      H        0.92503    0.25717    0.10867    1.000
    C131     C        0.90173    0.38007    0.07997    1.000
    H83      H        0.93383    0.41317    0.07757    1.000
    C132     C        0.85343    0.37837    0.08007    1.000
    H84      H        0.85323    0.41087    0.07757    1.000
    O25      O        0.72030    0.28613    0.51700    1.000
    O26      O        0.77109    0.37428    0.52690    1.000
    C133     C        0.76330    0.32970    0.51170    1.000
    C134     C        0.80970    0.32740    0.48570    1.000
    C135     C        0.81000    0.28070    0.47900    1.000
    H85      H        0.77910    0.24810    0.48780    1.000
    C136     C        0.85540    0.28060    0.45920    1.000
    H86      H        0.85480    0.24780    0.45500    1.000
    C137     C        0.90050    0.32680    0.44580    1.000
    C138     C        0.89840    0.37360    0.44780    1.000
    H87      H        0.92790    0.40580    0.43500    1.000
    C139     C        0.85400    0.37400    0.46830    1.000
    H88      H        0.85390    0.40650    0.47040    1.000
    C140     C        0.95080    0.32830    0.43020    1.000
    C141     C        0.99860    0.37670    0.43130    1.000
    H89      H        0.99880    0.40830    0.44200    1.000
    C142     C        0.14500    0.43160    0.41330    1.000
    H90      H        0.14600    0.39950    0.41090    1.000
    C143     C        0.19160    0.47990    0.41340    1.000
    H91      H        0.22430    0.48010    0.41090    1.000
    O27      O        0.38697    0.61946    0.85033    1.000
    O28      O        0.43776    0.70761    0.86023    1.000
    C144     C        0.42997    0.66303    0.84503    1.000
    C145     C        0.47637    0.66073    0.81903    1.000
    C146     C        0.47667    0.61403    0.81233    1.000
    H92      H        0.44577    0.58143    0.82113    1.000
    C147     C        0.52207    0.61393    0.79253    1.000
    H93      H        0.52147    0.58113    0.78833    1.000
    C148     C        0.56717    0.66013    0.77913    1.000
    C149     C        0.56507    0.70693    0.78113    1.000
    H94      H        0.59457    0.73913    0.76833    1.000
    C150     C        0.52067    0.70733    0.80163    1.000
    H95      H        0.52057    0.73983    0.80373    1.000
    C151     C        0.61747    0.66163    0.76353    1.000
    C152     C        0.66527    0.71003    0.76463    1.000
    H96      H        0.66547    0.74163    0.77533    1.000
    C153     C        0.81167    0.76493    0.74663    1.000
    H97      H        0.81267    0.73283    0.74423    1.000
    C154     C        0.85827    0.81323    0.74673    1.000
    H98      H        0.89097    0.81343    0.74423    1.000
    O29      O        0.05363    0.95280    0.18367    1.000
    O30      O        0.10442    0.04095    0.19357    1.000
    C155     C        0.09663    0.99637    0.17837    1.000
    C156     C        0.14303    0.99407    0.15237    1.000
    C157     C        0.14333    0.94737    0.14567    1.000
    H99      H        0.11243    0.91477    0.15447    1.000
    C158     C        0.18873    0.94727    0.12587    1.000
    H100     H        0.18813    0.91447    0.12167    1.000
    C159     C        0.23383    0.99347    0.11247    1.000
    C160     C        0.23173    0.04027    0.11447    1.000
    H101     H        0.26123    0.07247    0.10167    1.000
    C161     C        0.18733    0.04067    0.13497    1.000
    H102     H        0.18723    0.07317    0.13707    1.000
    C162     C        0.28413    0.99497    0.09687    1.000
    C163     C        0.33193    0.04337    0.09797    1.000
    H103     H        0.33213    0.07497    0.10867    1.000
    C164     C        0.47833    0.09827    0.07997    1.000
    H104     H        0.47933    0.06617    0.07757    1.000
    C165     C        0.52493    0.14657    0.08007    1.000
    H105     H        0.55763    0.14677    0.07757    1.000
    O31      O        0.56583    0.27970    0.51700    1.000
    O32      O        0.60319    0.22891    0.52690    1.000
    C166     C        0.56640    0.23670    0.51170    1.000
    C167     C        0.51770    0.19030    0.48570    1.000
    C168     C        0.47070    0.19000    0.47900    1.000
    H106     H        0.46900    0.22090    0.48780    1.000
    C169     C        0.42520    0.14460    0.45920    1.000
    H107     H        0.39300    0.14520    0.45500    1.000
    C170     C        0.42630    0.09950    0.44580    1.000
    C171     C        0.47520    0.10160    0.44780    1.000
    H108     H        0.47790    0.07210    0.43500    1.000
    C172     C        0.52000    0.14600    0.46830    1.000
    H109     H        0.55260    0.14610    0.47040    1.000
    C173     C        0.37750    0.04920    0.43020    1.000
    C174     C        0.37810    0.00140    0.43130    1.000
    H110     H        0.40950    0.00120    0.44200    1.000
    C175     C        0.28660    0.85500    0.41330    1.000
    H111     H        0.25350    0.85400    0.41090    1.000
    C176     C        0.28830    0.80840    0.41340    1.000
    H112     H        0.25580    0.77570    0.41090    1.000
    O33      O        0.23250    0.61303    0.85033    1.000
    O34      O        0.26986    0.56224    0.86023    1.000
    C177     C        0.23307    0.57003    0.84503    1.000
    C178     C        0.18437    0.52363    0.81903    1.000
    C179     C        0.13737    0.52333    0.81233    1.000
    H113     H        0.13567    0.55423    0.82113    1.000
    C180     C        0.09187    0.47793    0.79253    1.000
    H114     H        0.05967    0.47853    0.78833    1.000
    C181     C        0.09297    0.43283    0.77913    1.000
    C182     C        0.14187    0.43493    0.78113    1.000
    H115     H        0.14457    0.40543    0.76833    1.000
    C183     C        0.18667    0.47933    0.80163    1.000
    H116     H        0.21927    0.47943    0.80373    1.000
    C184     C        0.04417    0.38253    0.76353    1.000
    C185     C        0.04477    0.33473    0.76463    1.000
    H117     H        0.07617    0.33453    0.77533    1.000
    C186     C        0.95327    0.18833    0.74663    1.000
    H118     H        0.92017    0.18733    0.74423    1.000
    C187     C        0.95497    0.14173    0.74673    1.000
    H119     H        0.92247    0.10903    0.74423    1.000
    O35      O        0.89916    0.94637    0.18367    1.000
    O36      O        0.93652    0.89558    0.19357    1.000
    C188     C        0.89973    0.90337    0.17837    1.000
    C189     C        0.85103    0.85697    0.15237    1.000
    C190     C        0.80403    0.85667    0.14567    1.000
    H120     H        0.80233    0.88757    0.15447    1.000
    C191     C        0.75853    0.81127    0.12587    1.000
    H121     H        0.72633    0.81187    0.12167    1.000
    C192     C        0.75963    0.76617    0.11247    1.000
    C193     C        0.80853    0.76827    0.11447    1.000
    H122     H        0.81123    0.73877    0.10167    1.000
    C194     C        0.85333    0.81267    0.13497    1.000
    H123     H        0.88593    0.81277    0.13707    1.000
    C195     C        0.71083    0.71587    0.09687    1.000
    C196     C        0.71143    0.66807    0.09797    1.000
    H124     H        0.74283    0.66787    0.10867    1.000
    C197     C        0.61993    0.52167    0.07997    1.000
    H125     H        0.58683    0.52067    0.07757    1.000
    C198     C        0.62163    0.47507    0.08007    1.000
    H126     H        0.58913    0.44237    0.07757    1.000
    O37      O        0.56583    0.28613    0.01700    1.000
    O38      O        0.60319    0.37428    0.02690    1.000
    C199     C        0.56640    0.32970    0.01170    1.000
    C200     C        0.51770    0.32740    0.98570    1.000
    C201     C        0.47070    0.28070    0.97900    1.000
    H127     H        0.46900    0.24810    0.98780    1.000
    C202     C        0.42520    0.28060    0.95920    1.000
    H128     H        0.39300    0.24780    0.95500    1.000
    C203     C        0.42630    0.32680    0.94580    1.000
    C204     C        0.47520    0.37360    0.94780    1.000
    H129     H        0.47790    0.40580    0.93500    1.000
    C205     C        0.52000    0.37400    0.96830    1.000
    H130     H        0.55260    0.40650    0.97040    1.000
    C206     C        0.37750    0.32830    0.93020    1.000
    C207     C        0.37810    0.37670    0.93130    1.000
    H131     H        0.40950    0.40830    0.94200    1.000
    C208     C        0.28660    0.43160    0.91330    1.000
    H132     H        0.25350    0.39950    0.91090    1.000
    C209     C        0.28830    0.47990    0.91340    1.000
    H133     H        0.25580    0.48010    0.91090    1.000
    O39      O        0.23250    0.61946    0.35033    1.000
    O40      O        0.26986    0.70761    0.36023    1.000
    C210     C        0.23307    0.66303    0.34503    1.000
    C211     C        0.18437    0.66073    0.31903    1.000
    C212     C        0.13737    0.61403    0.31233    1.000
    H134     H        0.13567    0.58143    0.32113    1.000
    C213     C        0.09187    0.61393    0.29253    1.000
    H135     H        0.05967    0.58113    0.28833    1.000
    C214     C        0.09297    0.66013    0.27913    1.000
    C215     C        0.14187    0.70693    0.28113    1.000
    H136     H        0.14457    0.73913    0.26833    1.000
    C216     C        0.18667    0.70733    0.30163    1.000
    H137     H        0.21927    0.73983    0.30373    1.000
    C217     C        0.04417    0.66163    0.26353    1.000
    C218     C        0.04477    0.71003    0.26463    1.000
    H138     H        0.07617    0.74163    0.27533    1.000
    C219     C        0.95327    0.76493    0.24663    1.000
    H139     H        0.92017    0.73283    0.24423    1.000
    C220     C        0.95497    0.81323    0.24673    1.000
    H140     H        0.92247    0.81343    0.24423    1.000
    O41      O        0.89916    0.95280    0.68367    1.000
    O42      O        0.93652    0.04095    0.69357    1.000
    C221     C        0.89973    0.99637    0.67837    1.000
    C222     C        0.85103    0.99407    0.65237    1.000
    C223     C        0.80403    0.94737    0.64567    1.000
    H141     H        0.80233    0.91477    0.65447    1.000
    C224     C        0.75853    0.94727    0.62587    1.000
    H142     H        0.72633    0.91447    0.62167    1.000
    C225     C        0.75963    0.99347    0.61247    1.000
    C226     C        0.80853    0.04027    0.61447    1.000
    H143     H        0.81123    0.07247    0.60167    1.000
    C227     C        0.85333    0.04067    0.63497    1.000
    H144     H        0.88593    0.07317    0.63707    1.000
    C228     C        0.71083    0.99497    0.59687    1.000
    C229     C        0.71143    0.04337    0.59797    1.000
    H145     H        0.74283    0.07497    0.60867    1.000
    C230     C        0.61993    0.09827    0.57997    1.000
    H146     H        0.58683    0.06617    0.57757    1.000
    C231     C        0.62163    0.14657    0.58007    1.000
    H147     H        0.58913    0.14677    0.57757    1.000
    O43      O        0.71387    0.27970    0.01700    1.000
    O44      O        0.62572    0.22891    0.02690    1.000
    C232     C        0.67030    0.23670    0.01170    1.000
    C233     C        0.67260    0.19030    0.98570    1.000
    C234     C        0.71930    0.19000    0.97900    1.000
    H148     H        0.75190    0.22090    0.98780    1.000
    C235     C        0.71940    0.14460    0.95920    1.000
    H149     H        0.75220    0.14520    0.95500    1.000
    C236     C        0.67320    0.09950    0.94580    1.000
    C237     C        0.62640    0.10160    0.94780    1.000
    H150     H        0.59420    0.07210    0.93500    1.000
    C238     C        0.62600    0.14600    0.96830    1.000
    H151     H        0.59350    0.14610    0.97040    1.000
    C239     C        0.67170    0.04920    0.93020    1.000
    C240     C        0.62330    0.00140    0.93130    1.000
    H152     H        0.59170    0.00120    0.94200    1.000
    C241     C        0.56840    0.85500    0.91330    1.000
    H153     H        0.60050    0.85400    0.91090    1.000
    C242     C        0.52010    0.80840    0.91340    1.000
    H154     H        0.51990    0.77570    0.91090    1.000
    O45      O        0.38054    0.61303    0.35033    1.000
    O46      O        0.29239    0.56224    0.36023    1.000
    C243     C        0.33697    0.57003    0.34503    1.000
    C244     C        0.33927    0.52363    0.31903    1.000
    C245     C        0.38597    0.52333    0.31233    1.000
    H155     H        0.41857    0.55423    0.32113    1.000
    C246     C        0.38607    0.47793    0.29253    1.000
    H156     H        0.41887    0.47853    0.28833    1.000
    C247     C        0.33987    0.43283    0.27913    1.000
    C248     C        0.29307    0.43493    0.28113    1.000
    H157     H        0.26087    0.40543    0.26833    1.000
    C249     C        0.29267    0.47933    0.30163    1.000
    H158     H        0.26017    0.47943    0.30373    1.000
    C250     C        0.33837    0.38253    0.26353    1.000
    C251     C        0.28997    0.33473    0.26463    1.000
    H159     H        0.25837    0.33453    0.27533    1.000
    C252     C        0.23507    0.18833    0.24663    1.000
    H160     H        0.26717    0.18733    0.24423    1.000
    C253     C        0.18677    0.14173    0.24673    1.000
    H161     H        0.18657    0.10903    0.24423    1.000
    O47      O        0.04720    0.94637    0.68367    1.000
    O48      O        0.95905    0.89558    0.69357    1.000
    C254     C        0.00363    0.90337    0.67837    1.000
    C255     C        0.00593    0.85697    0.65237    1.000
    C256     C        0.05263    0.85667    0.64567    1.000
    H162     H        0.08523    0.88757    0.65447    1.000
    C257     C        0.05273    0.81127    0.62587    1.000
    H163     H        0.08553    0.81187    0.62167    1.000
    C258     C        0.00653    0.76617    0.61247    1.000
    C259     C        0.95973    0.76827    0.61447    1.000
    H164     H        0.92753    0.73877    0.60167    1.000
    C260     C        0.95933    0.81267    0.63497    1.000
    H165     H        0.92683    0.81277    0.63707    1.000
    C261     C        0.00503    0.71587    0.59687    1.000
    C262     C        0.95663    0.66807    0.59797    1.000
    H166     H        0.92503    0.66787    0.60867    1.000
    C263     C        0.90173    0.52167    0.57997    1.000
    H167     H        0.93383    0.52067    0.57757    1.000
    C264     C        0.85343    0.47507    0.58007    1.000
    H168     H        0.85323    0.44237    0.57757    1.000
    O49      O        0.72030    0.43417    0.01700    1.000
    O50      O        0.77109    0.39681    0.02690    1.000
    C265     C        0.76330    0.43360    0.01170    1.000
    C266     C        0.80970    0.48230    0.98570    1.000
    C267     C        0.81000    0.52930    0.97900    1.000
    H169     H        0.77910    0.53100    0.98780    1.000
    C268     C        0.85540    0.57480    0.95920    1.000
    H170     H        0.85480    0.60700    0.95500    1.000
    C269     C        0.90050    0.57370    0.94580    1.000
    C270     C        0.89840    0.52480    0.94780    1.000
    H171     H        0.92790    0.52210    0.93500    1.000
    C271     C        0.85400    0.48000    0.96830    1.000
    H172     H        0.85390    0.44740    0.97040    1.000
    C272     C        0.95080    0.62250    0.93020    1.000
    C273     C        0.99860    0.62190    0.93130    1.000
    H173     H        0.99880    0.59050    0.94200    1.000
    C274     C        0.14500    0.71340    0.91330    1.000
    H174     H        0.14600    0.74650    0.91090    1.000
    C275     C        0.19160    0.71170    0.91340    1.000
    H175     H        0.22430    0.74420    0.91090    1.000
    O51      O        0.38697    0.76750    0.35033    1.000
    O52      O        0.43776    0.73014    0.36023    1.000
    C276     C        0.42997    0.76693    0.34503    1.000
    C277     C        0.47637    0.81563    0.31903    1.000
    C278     C        0.47667    0.86263    0.31233    1.000
    H176     H        0.44577    0.86433    0.32113    1.000
    C279     C        0.52207    0.90813    0.29253    1.000
    H177     H        0.52147    0.94033    0.28833    1.000
    C280     C        0.56717    0.90703    0.27913    1.000
    C281     C        0.56507    0.85813    0.28113    1.000
    H178     H        0.59457    0.85543    0.26833    1.000
    C282     C        0.52067    0.81333    0.30163    1.000
    H179     H        0.52057    0.78073    0.30373    1.000
    C283     C        0.61747    0.95583    0.26353    1.000
    C284     C        0.66527    0.95523    0.26463    1.000
    H180     H        0.66547    0.92383    0.27533    1.000
    C285     C        0.81167    0.04673    0.24663    1.000
    H181     H        0.81267    0.07983    0.24423    1.000
    C286     C        0.85827    0.04503    0.24673    1.000
    H182     H        0.89097    0.07753    0.24423    1.000
    O53      O        0.05363    0.10084    0.68367    1.000
    O54      O        0.10442    0.06348    0.69357    1.000
    C287     C        0.09663    0.10027    0.67837    1.000
    C288     C        0.14303    0.14897    0.65237    1.000
    C289     C        0.14333    0.19597    0.64567    1.000
    H183     H        0.11243    0.19767    0.65447    1.000
    C290     C        0.18873    0.24147    0.62587    1.000
    H184     H        0.18813    0.27367    0.62167    1.000
    C291     C        0.23383    0.24037    0.61247    1.000
    C292     C        0.23173    0.19147    0.61447    1.000
    H185     H        0.26123    0.18877    0.60167    1.000
    C293     C        0.18733    0.14667    0.63497    1.000
    H186     H        0.18723    0.11407    0.63707    1.000
    C294     C        0.28413    0.28917    0.59687    1.000
    C295     C        0.33193    0.28857    0.59797    1.000
    H187     H        0.33213    0.25717    0.60867    1.000
    C296     C        0.47833    0.38007    0.57997    1.000
    H188     H        0.47933    0.41317    0.57757    1.000
    C297     C        0.52493    0.37837    0.58007    1.000
    H189     H        0.55763    0.41087    0.57757    1.000
    O55      O        0.28613    0.56583    0.48300    1.000
    O56      O        0.37428    0.60319    0.47310    1.000
    C298     C        0.32970    0.56640    0.48830    1.000
    C299     C        0.32740    0.51770    0.51430    1.000
    C300     C        0.28070    0.47070    0.52100    1.000
    H190     H        0.24810    0.46900    0.51220    1.000
    C301     C        0.28060    0.42520    0.54080    1.000
    H191     H        0.24780    0.39300    0.54500    1.000
    C302     C        0.32680    0.42630    0.55420    1.000
    C303     C        0.37360    0.47520    0.55220    1.000
    H192     H        0.40580    0.47790    0.56500    1.000
    C304     C        0.37400    0.52000    0.53170    1.000
    H193     H        0.40650    0.55260    0.52960    1.000
    C305     C        0.32830    0.37750    0.56980    1.000
    C306     C        0.37670    0.37810    0.56870    1.000
    H194     H        0.40830    0.40950    0.55800    1.000
    C307     C        0.43160    0.28660    0.58670    1.000
    H195     H        0.39950    0.25350    0.58910    1.000
    C308     C        0.47990    0.28830    0.58660    1.000
    H196     H        0.48010    0.25580    0.58910    1.000
    O57      O        0.95280    0.89916    0.81633    1.000
    O58      O        0.04095    0.93652    0.80643    1.000
    C309     C        0.99637    0.89973    0.82163    1.000
    C310     C        0.99407    0.85103    0.84763    1.000
    C311     C        0.94737    0.80403    0.85433    1.000
    H197     H        0.91477    0.80233    0.84553    1.000
    C312     C        0.94727    0.75853    0.87413    1.000
    H198     H        0.91447    0.72633    0.87833    1.000
    C313     C        0.99347    0.75963    0.88753    1.000
    C314     C        0.04027    0.80853    0.88553    1.000
    H199     H        0.07247    0.81123    0.89833    1.000
    C315     C        0.04067    0.85333    0.86503    1.000
    H200     H        0.07317    0.88593    0.86293    1.000
    C316     C        0.99497    0.71083    0.90313    1.000
    C317     C        0.04337    0.71143    0.90203    1.000
    H201     H        0.07497    0.74283    0.89133    1.000
    C318     C        0.09827    0.61993    0.92003    1.000
    H202     H        0.06617    0.58683    0.92243    1.000
    C319     C        0.14657    0.62163    0.91993    1.000
    H203     H        0.14677    0.58913    0.92243    1.000
    O59      O        0.61946    0.23250    0.14967    1.000
    O60      O        0.70761    0.26986    0.13977    1.000
    C320     C        0.66303    0.23307    0.15497    1.000
    C321     C        0.66073    0.18437    0.18097    1.000
    C322     C        0.61403    0.13737    0.18767    1.000
    H204     H        0.58143    0.13567    0.17887    1.000
    C323     C        0.61393    0.09187    0.20747    1.000
    H205     H        0.58113    0.05967    0.21167    1.000
    C324     C        0.66013    0.09297    0.22087    1.000
    C325     C        0.70693    0.14187    0.21887    1.000
    H206     H        0.73913    0.14457    0.23167    1.000
    C326     C        0.70733    0.18667    0.19837    1.000
    H207     H        0.73983    0.21927    0.19627    1.000
    C327     C        0.66163    0.04417    0.23647    1.000
    C328     C        0.71003    0.04477    0.23537    1.000
    H208     H        0.74163    0.07617    0.22467    1.000
    C329     C        0.76493    0.95327    0.25337    1.000
    H209     H        0.73283    0.92017    0.25577    1.000
    C330     C        0.81323    0.95497    0.25327    1.000
    H210     H        0.81343    0.92247    0.25577    1.000
    O61      O        0.27970    0.71387    0.48300    1.000
    O62      O        0.22891    0.62572    0.47310    1.000
    C331     C        0.23670    0.67030    0.48830    1.000
    C332     C        0.19030    0.67260    0.51430    1.000
    C333     C        0.19000    0.71930    0.52100    1.000
    H211     H        0.22090    0.75190    0.51220    1.000
    C334     C        0.14460    0.71940    0.54080    1.000
    H212     H        0.14520    0.75220    0.54500    1.000
    C335     C        0.09950    0.67320    0.55420    1.000
    C336     C        0.10160    0.62640    0.55220    1.000
    H213     H        0.07210    0.59420    0.56500    1.000
    C337     C        0.14600    0.62600    0.53170    1.000
    H214     H        0.14610    0.59350    0.52960    1.000
    C338     C        0.04920    0.67170    0.56980    1.000
    C339     C        0.00140    0.62330    0.56870    1.000
    H215     H        0.00120    0.59170    0.55800    1.000
    C340     C        0.85500    0.56840    0.58670    1.000
    H216     H        0.85400    0.60050    0.58910    1.000
    C341     C        0.80840    0.52010    0.58660    1.000
    H217     H        0.77570    0.51990    0.58910    1.000
    O63      O        0.94637    0.04720    0.81633    1.000
    O64      O        0.89558    0.95905    0.80643    1.000
    C342     C        0.90337    0.00363    0.82163    1.000
    C343     C        0.85697    0.00593    0.84763    1.000
    C344     C        0.85667    0.05263    0.85433    1.000
    H218     H        0.88757    0.08523    0.84553    1.000
    C345     C        0.81127    0.05273    0.87413    1.000
    H219     H        0.81187    0.08553    0.87833    1.000
    C346     C        0.76617    0.00653    0.88753    1.000
    C347     C        0.76827    0.95973    0.88553    1.000
    H220     H        0.73877    0.92753    0.89833    1.000
    C348     C        0.81267    0.95933    0.86503    1.000
    H221     H        0.81277    0.92683    0.86293    1.000
    C349     C        0.71587    0.00503    0.90313    1.000
    C350     C        0.66807    0.95663    0.90203    1.000
    H222     H        0.66787    0.92503    0.89133    1.000
    C351     C        0.52167    0.90173    0.92003    1.000
    H223     H        0.52067    0.93383    0.92243    1.000
    C352     C        0.47507    0.85343    0.91993    1.000
    H224     H        0.44237    0.85323    0.92243    1.000
    O65      O        0.61303    0.38054    0.14967    1.000
    O66      O        0.56224    0.29239    0.13977    1.000
    C353     C        0.57003    0.33697    0.15497    1.000
    C354     C        0.52363    0.33927    0.18097    1.000
    C355     C        0.52333    0.38597    0.18767    1.000
    H225     H        0.55423    0.41857    0.17887    1.000
    C356     C        0.47793    0.38607    0.20747    1.000
    H226     H        0.47853    0.41887    0.21167    1.000
    C357     C        0.43283    0.33987    0.22087    1.000
    C358     C        0.43493    0.29307    0.21887    1.000
    H227     H        0.40543    0.26087    0.23167    1.000
    C359     C        0.47933    0.29267    0.19837    1.000
    H228     H        0.47943    0.26017    0.19627    1.000
    C360     C        0.38253    0.33837    0.23647    1.000
    C361     C        0.33473    0.28997    0.23537    1.000
    H229     H        0.33453    0.25837    0.22467    1.000
    C362     C        0.18833    0.23507    0.25337    1.000
    H230     H        0.18733    0.26717    0.25577    1.000
    C363     C        0.14173    0.18677    0.25327    1.000
    H231     H        0.10903    0.18657    0.25577    1.000
    O67      O        0.43417    0.72030    0.48300    1.000
    O68      O        0.39681    0.77109    0.47310    1.000
    C364     C        0.43360    0.76330    0.48830    1.000
    C365     C        0.48230    0.80970    0.51430    1.000
    C366     C        0.52930    0.81000    0.52100    1.000
    H232     H        0.53100    0.77910    0.51220    1.000
    C367     C        0.57480    0.85540    0.54080    1.000
    H233     H        0.60700    0.85480    0.54500    1.000
    C368     C        0.57370    0.90050    0.55420    1.000
    C369     C        0.52480    0.89840    0.55220    1.000
    H234     H        0.52210    0.92790    0.56500    1.000
    C370     C        0.48000    0.85400    0.53170    1.000
    H235     H        0.44740    0.85390    0.52960    1.000
    C371     C        0.62250    0.95080    0.56980    1.000
    C372     C        0.62190    0.99860    0.56870    1.000
    H236     H        0.59050    0.99880    0.55800    1.000
    C373     C        0.71340    0.14500    0.58670    1.000
    H237     H        0.74650    0.14600    0.58910    1.000
    C374     C        0.71170    0.19160    0.58660    1.000
    H238     H        0.74420    0.22430    0.58910    1.000
    O69      O        0.10084    0.05363    0.81633    1.000
    O70      O        0.06348    0.10442    0.80643    1.000
    C375     C        0.10027    0.09663    0.82163    1.000
    C376     C        0.14897    0.14303    0.84763    1.000
    C377     C        0.19597    0.14333    0.85433    1.000
    H239     H        0.19767    0.11243    0.84553    1.000
    C378     C        0.24147    0.18873    0.87413    1.000
    H240     H        0.27367    0.18813    0.87833    1.000
    C379     C        0.24037    0.23383    0.88753    1.000
    C380     C        0.19147    0.23173    0.88553    1.000
    H241     H        0.18877    0.26123    0.89833    1.000
    C381     C        0.14667    0.18733    0.86503    1.000
    H242     H        0.11407    0.18723    0.86293    1.000
    C382     C        0.28917    0.28413    0.90313    1.000
    C383     C        0.28857    0.33193    0.90203    1.000
    H243     H        0.25717    0.33213    0.89133    1.000
    C384     C        0.38007    0.47833    0.92003    1.000
    H244     H        0.41317    0.47933    0.92243    1.000
    C385     C        0.37837    0.52493    0.91993    1.000
    H245     H        0.41087    0.55763    0.92243    1.000
    O71      O        0.76750    0.38697    0.14967    1.000
    O72      O        0.73014    0.43776    0.13977    1.000
    C386     C        0.76693    0.42997    0.15497    1.000
    C387     C        0.81563    0.47637    0.18097    1.000
    C388     C        0.86263    0.47667    0.18767    1.000
    H246     H        0.86433    0.44577    0.17887    1.000
    C389     C        0.90813    0.52207    0.20747    1.000
    H247     H        0.94033    0.52147    0.21167    1.000
    C390     C        0.90703    0.56717    0.22087    1.000
    C391     C        0.85813    0.56507    0.21887    1.000
    H248     H        0.85543    0.59457    0.23167    1.000
    C392     C        0.81333    0.52067    0.19837    1.000
    H249     H        0.78073    0.52057    0.19627    1.000
    C393     C        0.95583    0.61747    0.23647    1.000
    C394     C        0.95523    0.66527    0.23537    1.000
    H250     H        0.92383    0.66547    0.22467    1.000
    C395     C        0.04673    0.81167    0.25337    1.000
    H251     H        0.07983    0.81267    0.25577    1.000
    C396     C        0.04503    0.85827    0.25327    1.000
    H252     H        0.07753    0.89097    0.25577    1.000
    Ni1      Ni       0.66667    0.40218    0.08333    1.000
    N1       N        0.66667    0.47388    0.08333    1.000
    N2       N        0.66667    0.71768    0.08333    1.000
    C397     C        0.66667    0.62138    0.08333    1.000
    C398     C        0.66667    0.56978    0.08333    1.000
    Ni2      Ni       0.59782    0.26448    0.08333    1.000
    N3       N        0.52612    0.19278    0.08333    1.000
    N4       N        0.28232    0.94898    0.08333    1.000
    C399     C        0.37862    0.04528    0.08333    1.000
    C400     C        0.43022    0.09688    0.08333    1.000
    Ni3      Ni       0.73552    0.33333    0.08333    1.000
    N5       N        0.80722    0.33333    0.08333    1.000
    N6       N        0.05102    0.33333    0.08333    1.000
    C401     C        0.95472    0.33333    0.08333    1.000
    C402     C        0.90312    0.33333    0.08333    1.000
    Ni4      Ni       0.40218    0.66667    0.41667    1.000
    N7       N        0.47388    0.66667    0.41667    1.000
    N8       N        0.71768    0.66667    0.41667    1.000
    C403     C        0.62138    0.66667    0.41667    1.000
    C404     C        0.56978    0.66667    0.41667    1.000
    Ni5      Ni       0.06885    0.00000    0.75000    1.000
    N9       N        0.14055    0.00000    0.75000    1.000
    N10      N        0.38435    0.00000    0.75000    1.000
    C405     C        0.28805    0.00000    0.75000    1.000
    C406     C        0.23645    0.00000    0.75000    1.000
    Ni6      Ni       0.26448    0.59782    0.41667    1.000
    N11      N        0.19278    0.52612    0.41667    1.000
    N12      N        0.94898    0.28232    0.41667    1.000
    C407     C        0.04528    0.37862    0.41667    1.000
    C408     C        0.09688    0.43022    0.41667    1.000
    Ni7      Ni       0.93115    0.93115    0.75000    1.000
    N13      N        0.85945    0.85945    0.75000    1.000
    N14      N        0.61565    0.61565    0.75000    1.000
    C409     C        0.71195    0.71195    0.75000    1.000
    C410     C        0.76355    0.76355    0.75000    1.000
    Ni8      Ni       0.33333    0.73552    0.41667    1.000
    N15      N        0.33333    0.80722    0.41667    1.000
    N16      N        0.33333    0.05102    0.41667    1.000
    C411     C        0.33333    0.95472    0.41667    1.000
    C412     C        0.33333    0.90312    0.41667    1.000
    Ni9      Ni       0.00000    0.06885    0.75000    1.000
    N17      N        0.00000    0.14055    0.75000    1.000
    N18      N        0.00000    0.38435    0.75000    1.000
    C413     C        0.00000    0.28805    0.75000    1.000
    C414     C        0.00000    0.23645    0.75000    1.000
    Ni10     Ni       0.33333    0.59782    0.91667    1.000
    N19      N        0.33333    0.52612    0.91667    1.000
    N20      N        0.33333    0.28232    0.91667    1.000
    C415     C        0.33333    0.37862    0.91667    1.000
    C416     C        0.33333    0.43022    0.91667    1.000
    Ni11     Ni       0.00000    0.93115    0.25000    1.000
    N21      N        0.00000    0.85945    0.25000    1.000
    N22      N        0.00000    0.61565    0.25000    1.000
    C417     C        0.00000    0.71195    0.25000    1.000
    C418     C        0.00000    0.76355    0.25000    1.000
    Ni12     Ni       0.40218    0.73552    0.91667    1.000
    N23      N        0.47388    0.80722    0.91667    1.000
    N24      N        0.71768    0.05102    0.91667    1.000
    C419     C        0.62138    0.95472    0.91667    1.000
    C420     C        0.56978    0.90312    0.91667    1.000
    Ni13     Ni       0.06885    0.06885    0.25000    1.000
    N25      N        0.14055    0.14055    0.25000    1.000
    N26      N        0.38435    0.38435    0.25000    1.000
    C421     C        0.28805    0.28805    0.25000    1.000
    C422     C        0.23645    0.23645    0.25000    1.000
    Ni14     Ni       0.26448    0.66667    0.91667    1.000
    N27      N        0.19278    0.66667    0.91667    1.000
    N28      N        0.94898    0.66667    0.91667    1.000
    C423     C        0.04528    0.66667    0.91667    1.000
    C424     C        0.09688    0.66667    0.91667    1.000
    Ni15     Ni       0.93115    0.00000    0.25000    1.000
    N29      N        0.85945    0.00000    0.25000    1.000
    N30      N        0.61565    0.00000    0.25000    1.000
    C425     C        0.71195    0.00000    0.25000    1.000
    C426     C        0.76355    0.00000    0.25000    1.000
    Ni16     Ni       0.59782    0.33333    0.58333    1.000
    N31      N        0.52612    0.33333    0.58333    1.000
    N32      N        0.28232    0.33333    0.58333    1.000
    C427     C        0.37862    0.33333    0.58333    1.000
    C428     C        0.43022    0.33333    0.58333    1.000
    Ni17     Ni       0.73552    0.40218    0.58333    1.000
    N33      N        0.80722    0.47388    0.58333    1.000
    N34      N        0.05102    0.71768    0.58333    1.000
    C429     C        0.95472    0.62138    0.58333    1.000
    C430     C        0.90312    0.56978    0.58333    1.000
    Ni18     Ni       0.66667    0.26448    0.58333    1.000
    N35      N        0.66667    0.19278    0.58333    1.000
    N36      N        0.66667    0.94898    0.58333    1.000
    C431     C        0.66667    0.04528    0.58333    1.000
    C432     C        0.66667    0.09688    0.58333    1.000
    O73      O        0.66667    0.33333    0.08333    1.000
    O74      O        0.00000    0.00000    0.75000    1.000
    O75      O        0.33333    0.66667    0.41667    1.000
    O76      O        0.33333    0.66667    0.91667    1.000
    O77      O        0.00000    0.00000    0.25000    1.000
    O78      O        0.66667    0.33333    0.58333    1.000
    H253     H        0.66667    0.33333    0.12600    1.000
    H254     H        0.33333    0.66667    0.45933    1.000
    H255     H        0.00000    0.00000    0.79267    1.000
    H256     H        0.33333    0.66667    0.37400    1.000
    H257     H        0.00000    0.00000    0.70733    1.000
    H258     H        0.66667    0.33333    0.04067    1.000
    H259     H        0.33333    0.66667    0.87400    1.000
    H260     H        0.00000    0.00000    0.20733    1.000
    H261     H        0.66667    0.33333    0.54067    1.000
    H262     H        0.66667    0.33333    0.62600    1.000
    H263     H        0.33333    0.66667    0.95933    1.000
    H264     H        0.00000    0.00000    0.29267    1.000
