# CIF file generated by openbabel 3.1.0, see https://openbabel.org
data_I
_chemical_name_common 'image0'
_cell_length_a 45.5419
_cell_length_b 45.5419
_cell_length_c 45.5419
_cell_angle_alpha 90
_cell_angle_beta 90
_cell_angle_gamma 90
_space_group_name_H-M_alt 'P 1'
_space_group_name_Hall 'P 1'
loop_
    _symmetry_equiv_pos_as_xyz
    x,y,z
loop_
    _atom_site_label
    _atom_site_type_symbol
    _atom_site_fract_x
    _atom_site_fract_y
    _atom_site_fract_z
    _atom_site_occupancy
    O1       O        0.79585    0.01584    0.02295    1.000
    O2       O        0.69470    0.98169    0.44439    1.000
    O3       O        0.84413    0.01392    0.02906    1.000
    O4       O        0.64637    0.98458    0.44960    1.000
    O5       O        0.94472    0.00970    0.14893    1.000
    O6       O        0.52464    0.01111    0.34708    1.000
    O7       O        0.94310    0.01446    0.19737    1.000
    O8       O        0.52197    0.01798    0.29892    1.000
    N1       N        0.81064    0.03302    0.16020    1.000
    N2       N        0.65874    0.00397    0.31312    1.000
    C1       C        0.69571    0.00208    0.24050    1.000
    C2       C        0.67520    0.99711    0.26276    1.000
    H1       H        0.65629    0.98341    0.25837    1.000
    C3       C        0.78642    0.02394    0.08348    1.000
    H2       H        0.76703    0.02523    0.06982    1.000
    C4       C        0.69238    0.98425    0.38428    1.000
    H3       H        0.71345    0.97968    0.39424    1.000
    C5       C        0.78356    0.02999    0.11353    1.000
    H4       H        0.76250    0.03592    0.12273    1.000
    C6       C        0.69148    0.99021    0.35409    1.000
    H5       H        0.71142    0.98976    0.34126    1.000
    C7       C        0.80858    0.02823    0.13099    1.000
    C8       C        0.66439    0.99679    0.34144    1.000
    C9       C        0.83548    0.02075    0.11925    1.000
    C10      C        0.63900    0.99632    0.35789    1.000
    C11      C        0.83897    0.01428    0.08955    1.000
    H6       H        0.86028    0.00817    0.08102    1.000
    C12      C        0.63915    0.99058    0.38793    1.000
    H7       H        0.61892    0.99113    0.40036    1.000
    C13      C        0.81397    0.01598    0.07121    1.000
    C14      C        0.66644    0.98479    0.40154    1.000
    C15      C        0.81782    0.01412    0.03964    1.000
    C16      C        0.66944    0.98366    0.43321    1.000
    C17      C        0.93006    0.01146    0.17310    1.000
    C18      C        0.53706    0.01474    0.32186    1.000
    C19      C        0.89850    0.01382    0.17172    1.000
    C20      C        0.56878    0.01459    0.31938    1.000
    C21      C        0.88473    0.01324    0.14388    1.000
    H8       H        0.89655    0.00684    0.12429    1.000
    C22      C        0.58647    0.00650    0.34354    1.000
    H9       H        0.57717    0.00276    0.36508    1.000
    C23      C        0.85508    0.02065    0.14234    1.000
    C24      C        0.61651    0.00327    0.33893    1.000
    C25      C        0.83917    0.02830    0.16693    1.000
    C26      C        0.62927    0.00782    0.31184    1.000
    C27      C        0.85212    0.02907    0.19461    1.000
    H10      H        0.83960    0.03469    0.21398    1.000
    C28      C        0.61246    0.01645    0.28776    1.000
    H11      H        0.62230    0.02080    0.26662    1.000
    C29      C        0.88198    0.02197    0.19686    1.000
    H12      H        0.89205    0.02238    0.21838    1.000
    C30      C        0.58205    0.01958    0.29163    1.000
    H13      H        0.56892    0.02612    0.27295    1.000
    C31      C        0.78700    0.03122    0.18015    1.000
    C32      C        0.67936    0.00927    0.29068    1.000
    C33      C        0.78261    0.05267    0.20164    1.000
    H14      H        0.79654    0.07190    0.20230    1.000
    C34      C        0.70402    0.02685    0.29595    1.000
    H15      H        0.70738    0.03666    0.31732    1.000
    C35      C        0.76066    0.04910    0.22272    1.000
    H16      H        0.75773    0.06607    0.23906    1.000
    C36      C        0.72472    0.03152    0.27391    1.000
    H17      H        0.74406    0.04427    0.27911    1.000
    C37      C        0.74308    0.02367    0.22293    1.000
    C38      C        0.72094    0.01907    0.24591    1.000
    C39      C        0.76887    0.00645    0.17943    1.000
    C40      C        0.74719    0.00259    0.20073    1.000
    H18      H        0.73266    0.98224    0.20023    1.000
    H19      H        0.77185    0.98940    0.16138    1.000
    H20      H        0.69207    0.99235    0.21774    1.000
    Cu1      Cu       0.85130    0.01498    0.98964    1.000
    Cu2      Cu       0.79715    0.01699    0.98241    1.000
    O9       O        0.70415    0.98416    0.52295    1.000
    O10      O        0.80530    0.01831    0.94439    1.000
    O11      O        0.65587    0.98608    0.52906    1.000
    O12      O        0.85363    0.01542    0.94960    1.000
    O13      O        0.55528    0.99030    0.64893    1.000
    O14      O        0.97536    0.98889    0.84708    1.000
    O15      O        0.55690    0.98554    0.69737    1.000
    O16      O        0.97803    0.98202    0.79892    1.000
    N3       N        0.68936    0.96698    0.66020    1.000
    N4       N        0.84126    0.99603    0.81312    1.000
    C41      C        0.80429    0.99792    0.74050    1.000
    C42      C        0.82480    0.00289    0.76276    1.000
    H21      H        0.84371    0.01659    0.75837    1.000
    C43      C        0.71358    0.97606    0.58348    1.000
    H22      H        0.73297    0.97477    0.56982    1.000
    C44      C        0.80762    0.01575    0.88428    1.000
    H23      H        0.78655    0.02032    0.89424    1.000
    C45      C        0.71644    0.97001    0.61353    1.000
    H24      H        0.73750    0.96408    0.62273    1.000
    C46      C        0.80852    0.00979    0.85409    1.000
    H25      H        0.78858    0.01024    0.84126    1.000
    C47      C        0.69142    0.97177    0.63099    1.000
    C48      C        0.83561    0.00321    0.84144    1.000
    C49      C        0.66452    0.97925    0.61925    1.000
    C50      C        0.86100    0.00368    0.85789    1.000
    C51      C        0.66103    0.98572    0.58955    1.000
    H26      H        0.63972    0.99183    0.58102    1.000
    C52      C        0.86085    0.00942    0.88793    1.000
    H27      H        0.88108    0.00887    0.90036    1.000
    C53      C        0.68603    0.98402    0.57121    1.000
    C54      C        0.83356    0.01521    0.90154    1.000
    C55      C        0.68218    0.98588    0.53964    1.000
    C56      C        0.83056    0.01634    0.93321    1.000
    C57      C        0.56994    0.98854    0.67310    1.000
    C58      C        0.96294    0.98526    0.82186    1.000
    C59      C        0.60150    0.98618    0.67172    1.000
    C60      C        0.93122    0.98541    0.81938    1.000
    C61      C        0.61527    0.98676    0.64388    1.000
    H28      H        0.60345    0.99316    0.62429    1.000
    C62      C        0.91353    0.99350    0.84354    1.000
    H29      H        0.92283    0.99724    0.86508    1.000
    C63      C        0.64492    0.97935    0.64234    1.000
    C64      C        0.88349    0.99673    0.83893    1.000
    C65      C        0.66083    0.97170    0.66693    1.000
    C66      C        0.87073    0.99218    0.81184    1.000
    C67      C        0.64788    0.97093    0.69461    1.000
    H30      H        0.66040    0.96531    0.71398    1.000
    C68      C        0.88754    0.98355    0.78776    1.000
    H31      H        0.87770    0.97920    0.76662    1.000
    C69      C        0.61802    0.97803    0.69686    1.000
    H32      H        0.60795    0.97762    0.71838    1.000
    C70      C        0.91795    0.98042    0.79163    1.000
    H33      H        0.93108    0.97388    0.77295    1.000
    C71      C        0.71300    0.96878    0.68015    1.000
    C72      C        0.82064    0.99073    0.79068    1.000
    C73      C        0.71739    0.94733    0.70164    1.000
    H34      H        0.70346    0.92810    0.70230    1.000
    C74      C        0.79598    0.97315    0.79595    1.000
    H35      H        0.79262    0.96334    0.81732    1.000
    C75      C        0.73934    0.95090    0.72272    1.000
    H36      H        0.74227    0.93393    0.73906    1.000
    C76      C        0.77528    0.96848    0.77391    1.000
    H37      H        0.75594    0.95573    0.77911    1.000
    C77      C        0.75692    0.97633    0.72293    1.000
    C78      C        0.77906    0.98093    0.74591    1.000
    C79      C        0.73113    0.99355    0.67943    1.000
    C80      C        0.75281    0.99741    0.70073    1.000
    H38      H        0.76734    0.01776    0.70023    1.000
    H39      H        0.72815    0.01060    0.66138    1.000
    H40      H        0.80793    0.00765    0.71774    1.000
    Cu3      Cu       0.64870    0.98502    0.48964    1.000
    Cu4      Cu       0.70285    0.98301    0.48241    1.000
    O17      O        0.20415    0.51584    0.47705    1.000
    O18      O        0.30530    0.48169    0.05561    1.000
    O19      O        0.15587    0.51392    0.47094    1.000
    O20      O        0.35363    0.48458    0.05040    1.000
    O21      O        0.05528    0.50970    0.35107    1.000
    O22      O        0.47536    0.51111    0.15292    1.000
    O23      O        0.05690    0.51446    0.30263    1.000
    O24      O        0.47803    0.51798    0.20108    1.000
    N5       N        0.18936    0.53302    0.33980    1.000
    N6       N        0.34126    0.50397    0.18688    1.000
    C81      C        0.30429    0.50208    0.25950    1.000
    C82      C        0.32480    0.49711    0.23724    1.000
    H41      H        0.34371    0.48341    0.24163    1.000
    C83      C        0.21358    0.52394    0.41652    1.000
    H42      H        0.23297    0.52523    0.43018    1.000
    C84      C        0.30762    0.48425    0.11572    1.000
    H43      H        0.28655    0.47968    0.10576    1.000
    C85      C        0.21644    0.52999    0.38647    1.000
    H44      H        0.23750    0.53592    0.37727    1.000
    C86      C        0.30852    0.49021    0.14591    1.000
    H45      H        0.28858    0.48976    0.15874    1.000
    C87      C        0.19142    0.52823    0.36901    1.000
    C88      C        0.33561    0.49679    0.15856    1.000
    C89      C        0.16452    0.52075    0.38075    1.000
    C90      C        0.36100    0.49632    0.14211    1.000
    C91      C        0.16103    0.51428    0.41045    1.000
    H46      H        0.13972    0.50817    0.41898    1.000
    C92      C        0.36085    0.49058    0.11207    1.000
    H47      H        0.38108    0.49113    0.09964    1.000
    C93      C        0.18603    0.51598    0.42879    1.000
    C94      C        0.33356    0.48479    0.09846    1.000
    C95      C        0.18218    0.51412    0.46036    1.000
    C96      C        0.33056    0.48366    0.06679    1.000
    C97      C        0.06994    0.51146    0.32690    1.000
    C98      C        0.46294    0.51474    0.17814    1.000
    C99      C        0.10150    0.51382    0.32828    1.000
    C100     C        0.43122    0.51459    0.18062    1.000
    C101     C        0.11527    0.51324    0.35612    1.000
    H48      H        0.10345    0.50684    0.37571    1.000
    C102     C        0.41353    0.50650    0.15646    1.000
    H49      H        0.42283    0.50276    0.13492    1.000
    C103     C        0.14492    0.52065    0.35766    1.000
    C104     C        0.38349    0.50327    0.16107    1.000
    C105     C        0.16083    0.52830    0.33307    1.000
    C106     C        0.37073    0.50782    0.18816    1.000
    C107     C        0.14788    0.52907    0.30539    1.000
    H50      H        0.16040    0.53469    0.28602    1.000
    C108     C        0.38754    0.51645    0.21224    1.000
    H51      H        0.37770    0.52080    0.23338    1.000
    C109     C        0.11802    0.52197    0.30314    1.000
    H52      H        0.10795    0.52238    0.28162    1.000
    C110     C        0.41795    0.51958    0.20837    1.000
    H53      H        0.43108    0.52612    0.22705    1.000
    C111     C        0.21300    0.53122    0.31985    1.000
    C112     C        0.32064    0.50927    0.20932    1.000
    C113     C        0.21739    0.55267    0.29836    1.000
    H54      H        0.20346    0.57190    0.29770    1.000
    C114     C        0.29598    0.52685    0.20405    1.000
    H55      H        0.29262    0.53666    0.18268    1.000
    C115     C        0.23934    0.54910    0.27728    1.000
    H56      H        0.24227    0.56607    0.26094    1.000
    C116     C        0.27528    0.53152    0.22609    1.000
    H57      H        0.25594    0.54427    0.22089    1.000
    C117     C        0.25692    0.52367    0.27707    1.000
    C118     C        0.27906    0.51907    0.25409    1.000
    C119     C        0.23113    0.50645    0.32057    1.000
    C120     C        0.25281    0.50259    0.29927    1.000
    H58      H        0.26734    0.48224    0.29977    1.000
    H59      H        0.22815    0.48940    0.33862    1.000
    H60      H        0.30793    0.49235    0.28226    1.000
    Cu5      Cu       0.14870    0.51498    0.51036    1.000
    Cu6      Cu       0.20285    0.51699    0.51759    1.000
    O25      O        0.29585    0.48416    0.97705    1.000
    O26      O        0.19470    0.51831    0.55561    1.000
    O27      O        0.34413    0.48608    0.97094    1.000
    O28      O        0.14637    0.51542    0.55040    1.000
    O29      O        0.44472    0.49030    0.85107    1.000
    O30      O        0.02464    0.48889    0.65292    1.000
    O31      O        0.44310    0.48554    0.80263    1.000
    O32      O        0.02197    0.48202    0.70108    1.000
    N7       N        0.31064    0.46698    0.83980    1.000
    N8       N        0.15874    0.49603    0.68688    1.000
    C121     C        0.19571    0.49792    0.75950    1.000
    C122     C        0.17520    0.50289    0.73724    1.000
    H61      H        0.15629    0.51659    0.74163    1.000
    C123     C        0.28642    0.47606    0.91652    1.000
    H62      H        0.26703    0.47477    0.93018    1.000
    C124     C        0.19238    0.51575    0.61572    1.000
    H63      H        0.21345    0.52032    0.60576    1.000
    C125     C        0.28356    0.47001    0.88647    1.000
    H64      H        0.26250    0.46408    0.87727    1.000
    C126     C        0.19148    0.50979    0.64591    1.000
    H65      H        0.21142    0.51024    0.65874    1.000
    C127     C        0.30858    0.47177    0.86901    1.000
    C128     C        0.16439    0.50321    0.65856    1.000
    C129     C        0.33548    0.47925    0.88075    1.000
    C130     C        0.13900    0.50368    0.64211    1.000
    C131     C        0.33897    0.48572    0.91045    1.000
    H66      H        0.36028    0.49183    0.91898    1.000
    C132     C        0.13915    0.50942    0.61207    1.000
    H67      H        0.11892    0.50887    0.59964    1.000
    C133     C        0.31397    0.48402    0.92879    1.000
    C134     C        0.16644    0.51521    0.59846    1.000
    C135     C        0.31782    0.48588    0.96036    1.000
    C136     C        0.16944    0.51634    0.56679    1.000
    C137     C        0.43006    0.48854    0.82690    1.000
    C138     C        0.03706    0.48526    0.67814    1.000
    C139     C        0.39850    0.48618    0.82828    1.000
    C140     C        0.06878    0.48541    0.68062    1.000
    C141     C        0.38473    0.48676    0.85612    1.000
    H68      H        0.39655    0.49316    0.87571    1.000
    C142     C        0.08647    0.49350    0.65646    1.000
    H69      H        0.07717    0.49724    0.63492    1.000
    C143     C        0.35508    0.47935    0.85766    1.000
    C144     C        0.11651    0.49673    0.66107    1.000
    C145     C        0.33917    0.47170    0.83307    1.000
    C146     C        0.12927    0.49218    0.68816    1.000
    C147     C        0.35212    0.47093    0.80539    1.000
    H70      H        0.33960    0.46531    0.78602    1.000
    C148     C        0.11246    0.48355    0.71224    1.000
    H71      H        0.12230    0.47920    0.73338    1.000
    C149     C        0.38198    0.47803    0.80314    1.000
    H72      H        0.39205    0.47762    0.78162    1.000
    C150     C        0.08205    0.48042    0.70837    1.000
    H73      H        0.06892    0.47388    0.72705    1.000
    C151     C        0.28700    0.46878    0.81985    1.000
    C152     C        0.17936    0.49073    0.70932    1.000
    C153     C        0.28261    0.44733    0.79836    1.000
    H74      H        0.29654    0.42810    0.79770    1.000
    C154     C        0.20402    0.47315    0.70405    1.000
    H75      H        0.20738    0.46334    0.68268    1.000
    C155     C        0.26066    0.45090    0.77728    1.000
    H76      H        0.25773    0.43393    0.76094    1.000
    C156     C        0.22472    0.46848    0.72609    1.000
    H77      H        0.24406    0.45573    0.72089    1.000
    C157     C        0.24308    0.47633    0.77707    1.000
    C158     C        0.22094    0.48093    0.75409    1.000
    C159     C        0.26887    0.49355    0.82057    1.000
    C160     C        0.24719    0.49741    0.79927    1.000
    H78      H        0.23266    0.51776    0.79977    1.000
    H79      H        0.27185    0.51060    0.83862    1.000
    H80      H        0.19207    0.50765    0.78226    1.000
    Cu7      Cu       0.35130    0.48502    0.01036    1.000
    Cu8      Cu       0.29715    0.48301    0.01759    1.000
    O33      O        0.02295    0.79585    0.01584    1.000
    O34      O        0.44439    0.69470    0.98169    1.000
    O35      O        0.02906    0.84413    0.01392    1.000
    O36      O        0.44960    0.64637    0.98458    1.000
    O37      O        0.14893    0.94472    0.00970    1.000
    O38      O        0.34708    0.52464    0.01111    1.000
    O39      O        0.19737    0.94310    0.01446    1.000
    O40      O        0.29892    0.52197    0.01798    1.000
    N9       N        0.16020    0.81064    0.03302    1.000
    N10      N        0.31312    0.65874    0.00397    1.000
    C161     C        0.24050    0.69571    0.00208    1.000
    C162     C        0.26276    0.67520    0.99711    1.000
    H81      H        0.25837    0.65629    0.98341    1.000
    C163     C        0.08348    0.78642    0.02394    1.000
    H82      H        0.06982    0.76703    0.02523    1.000
    C164     C        0.38428    0.69238    0.98425    1.000
    H83      H        0.39424    0.71345    0.97968    1.000
    C165     C        0.11353    0.78356    0.02999    1.000
    H84      H        0.12273    0.76250    0.03592    1.000
    C166     C        0.35409    0.69148    0.99021    1.000
    H85      H        0.34126    0.71142    0.98976    1.000
    C167     C        0.13099    0.80858    0.02823    1.000
    C168     C        0.34144    0.66439    0.99679    1.000
    C169     C        0.11925    0.83548    0.02075    1.000
    C170     C        0.35789    0.63900    0.99632    1.000
    C171     C        0.08955    0.83897    0.01428    1.000
    H86      H        0.08102    0.86028    0.00817    1.000
    C172     C        0.38793    0.63915    0.99058    1.000
    H87      H        0.40036    0.61892    0.99113    1.000
    C173     C        0.07121    0.81397    0.01598    1.000
    C174     C        0.40154    0.66644    0.98479    1.000
    C175     C        0.03964    0.81782    0.01412    1.000
    C176     C        0.43321    0.66944    0.98366    1.000
    C177     C        0.17310    0.93006    0.01146    1.000
    C178     C        0.32186    0.53706    0.01474    1.000
    C179     C        0.17172    0.89850    0.01382    1.000
    C180     C        0.31938    0.56878    0.01459    1.000
    C181     C        0.14388    0.88473    0.01324    1.000
    H88      H        0.12429    0.89655    0.00684    1.000
    C182     C        0.34354    0.58647    0.00650    1.000
    H89      H        0.36508    0.57717    0.00276    1.000
    C183     C        0.14234    0.85508    0.02065    1.000
    C184     C        0.33893    0.61651    0.00327    1.000
    C185     C        0.16693    0.83917    0.02830    1.000
    C186     C        0.31184    0.62927    0.00782    1.000
    C187     C        0.19461    0.85212    0.02907    1.000
    H90      H        0.21398    0.83960    0.03469    1.000
    C188     C        0.28776    0.61246    0.01645    1.000
    H91      H        0.26662    0.62230    0.02080    1.000
    C189     C        0.19686    0.88198    0.02197    1.000
    H92      H        0.21838    0.89205    0.02238    1.000
    C190     C        0.29163    0.58205    0.01958    1.000
    H93      H        0.27295    0.56892    0.02612    1.000
    C191     C        0.18015    0.78700    0.03122    1.000
    C192     C        0.29068    0.67936    0.00927    1.000
    C193     C        0.20164    0.78261    0.05267    1.000
    H94      H        0.20230    0.79654    0.07190    1.000
    C194     C        0.29595    0.70402    0.02685    1.000
    H95      H        0.31732    0.70738    0.03666    1.000
    C195     C        0.22272    0.76066    0.04910    1.000
    H96      H        0.23906    0.75773    0.06607    1.000
    C196     C        0.27391    0.72472    0.03152    1.000
    H97      H        0.27911    0.74406    0.04427    1.000
    C197     C        0.22293    0.74308    0.02367    1.000
    C198     C        0.24591    0.72094    0.01907    1.000
    C199     C        0.17943    0.76887    0.00645    1.000
    C200     C        0.20073    0.74719    0.00259    1.000
    H98      H        0.20023    0.73266    0.98224    1.000
    H99      H        0.16138    0.77185    0.98940    1.000
    H100     H        0.21774    0.69207    0.99235    1.000
    Cu9      Cu       0.98964    0.85130    0.01498    1.000
    Cu10     Cu       0.98241    0.79715    0.01699    1.000
    O41      O        0.52295    0.70415    0.98416    1.000
    O42      O        0.94439    0.80530    0.01831    1.000
    O43      O        0.52906    0.65587    0.98608    1.000
    O44      O        0.94960    0.85363    0.01542    1.000
    O45      O        0.64893    0.55528    0.99030    1.000
    O46      O        0.84708    0.97536    0.98889    1.000
    O47      O        0.69737    0.55690    0.98554    1.000
    O48      O        0.79892    0.97803    0.98202    1.000
    N11      N        0.66020    0.68936    0.96698    1.000
    N12      N        0.81312    0.84126    0.99603    1.000
    C201     C        0.74050    0.80429    0.99792    1.000
    C202     C        0.76276    0.82480    0.00289    1.000
    H101     H        0.75837    0.84371    0.01659    1.000
    C203     C        0.58348    0.71358    0.97606    1.000
    H102     H        0.56982    0.73297    0.97477    1.000
    C204     C        0.88428    0.80762    0.01575    1.000
    H103     H        0.89424    0.78655    0.02032    1.000
    C205     C        0.61353    0.71644    0.97001    1.000
    H104     H        0.62273    0.73750    0.96408    1.000
    C206     C        0.85409    0.80852    0.00979    1.000
    H105     H        0.84126    0.78858    0.01024    1.000
    C207     C        0.63099    0.69142    0.97177    1.000
    C208     C        0.84144    0.83561    0.00321    1.000
    C209     C        0.61925    0.66452    0.97925    1.000
    C210     C        0.85789    0.86100    0.00368    1.000
    C211     C        0.58955    0.66103    0.98572    1.000
    H106     H        0.58102    0.63972    0.99183    1.000
    C212     C        0.88793    0.86085    0.00942    1.000
    H107     H        0.90036    0.88108    0.00887    1.000
    C213     C        0.57121    0.68603    0.98402    1.000
    C214     C        0.90154    0.83356    0.01521    1.000
    C215     C        0.53964    0.68218    0.98588    1.000
    C216     C        0.93321    0.83056    0.01634    1.000
    C217     C        0.67310    0.56994    0.98854    1.000
    C218     C        0.82186    0.96294    0.98526    1.000
    C219     C        0.67172    0.60150    0.98618    1.000
    C220     C        0.81938    0.93122    0.98541    1.000
    C221     C        0.64388    0.61527    0.98676    1.000
    H108     H        0.62429    0.60345    0.99316    1.000
    C222     C        0.84354    0.91353    0.99350    1.000
    H109     H        0.86508    0.92283    0.99724    1.000
    C223     C        0.64234    0.64492    0.97935    1.000
    C224     C        0.83893    0.88349    0.99673    1.000
    C225     C        0.66693    0.66083    0.97170    1.000
    C226     C        0.81184    0.87073    0.99218    1.000
    C227     C        0.69461    0.64788    0.97093    1.000
    H110     H        0.71398    0.66040    0.96531    1.000
    C228     C        0.78776    0.88754    0.98355    1.000
    H111     H        0.76662    0.87770    0.97920    1.000
    C229     C        0.69686    0.61802    0.97803    1.000
    H112     H        0.71838    0.60795    0.97762    1.000
    C230     C        0.79163    0.91795    0.98042    1.000
    H113     H        0.77295    0.93108    0.97388    1.000
    C231     C        0.68015    0.71300    0.96878    1.000
    C232     C        0.79068    0.82064    0.99073    1.000
    C233     C        0.70164    0.71739    0.94733    1.000
    H114     H        0.70230    0.70346    0.92810    1.000
    C234     C        0.79595    0.79598    0.97315    1.000
    H115     H        0.81732    0.79262    0.96334    1.000
    C235     C        0.72272    0.73934    0.95090    1.000
    H116     H        0.73906    0.74227    0.93393    1.000
    C236     C        0.77391    0.77528    0.96848    1.000
    H117     H        0.77911    0.75594    0.95573    1.000
    C237     C        0.72293    0.75692    0.97633    1.000
    C238     C        0.74591    0.77906    0.98093    1.000
    C239     C        0.67943    0.73113    0.99355    1.000
    C240     C        0.70073    0.75281    0.99741    1.000
    H118     H        0.70023    0.76734    0.01776    1.000
    H119     H        0.66138    0.72815    0.01060    1.000
    H120     H        0.71774    0.80793    0.00765    1.000
    Cu11     Cu       0.48964    0.64870    0.98502    1.000
    Cu12     Cu       0.48241    0.70285    0.98301    1.000
    O49      O        0.47705    0.20415    0.51584    1.000
    O50      O        0.05561    0.30530    0.48169    1.000
    O51      O        0.47094    0.15587    0.51392    1.000
    O52      O        0.05040    0.35363    0.48458    1.000
    O53      O        0.35107    0.05528    0.50970    1.000
    O54      O        0.15292    0.47536    0.51111    1.000
    O55      O        0.30263    0.05690    0.51446    1.000
    O56      O        0.20108    0.47803    0.51798    1.000
    N13      N        0.33980    0.18936    0.53302    1.000
    N14      N        0.18688    0.34126    0.50397    1.000
    C241     C        0.25950    0.30429    0.50208    1.000
    C242     C        0.23724    0.32480    0.49711    1.000
    H121     H        0.24163    0.34371    0.48341    1.000
    C243     C        0.41652    0.21358    0.52394    1.000
    H122     H        0.43018    0.23297    0.52523    1.000
    C244     C        0.11572    0.30762    0.48425    1.000
    H123     H        0.10576    0.28655    0.47968    1.000
    C245     C        0.38647    0.21644    0.52999    1.000
    H124     H        0.37727    0.23750    0.53592    1.000
    C246     C        0.14591    0.30852    0.49021    1.000
    H125     H        0.15874    0.28858    0.48976    1.000
    C247     C        0.36901    0.19142    0.52823    1.000
    C248     C        0.15856    0.33561    0.49679    1.000
    C249     C        0.38075    0.16452    0.52075    1.000
    C250     C        0.14211    0.36100    0.49632    1.000
    C251     C        0.41045    0.16103    0.51428    1.000
    H126     H        0.41898    0.13972    0.50817    1.000
    C252     C        0.11207    0.36085    0.49058    1.000
    H127     H        0.09964    0.38108    0.49113    1.000
    C253     C        0.42879    0.18603    0.51598    1.000
    C254     C        0.09846    0.33356    0.48479    1.000
    C255     C        0.46036    0.18218    0.51412    1.000
    C256     C        0.06679    0.33056    0.48366    1.000
    C257     C        0.32690    0.06994    0.51146    1.000
    C258     C        0.17814    0.46294    0.51474    1.000
    C259     C        0.32828    0.10150    0.51382    1.000
    C260     C        0.18062    0.43122    0.51459    1.000
    C261     C        0.35612    0.11527    0.51324    1.000
    H128     H        0.37571    0.10345    0.50684    1.000
    C262     C        0.15646    0.41353    0.50650    1.000
    H129     H        0.13492    0.42283    0.50276    1.000
    C263     C        0.35766    0.14492    0.52065    1.000
    C264     C        0.16107    0.38349    0.50327    1.000
    C265     C        0.33307    0.16083    0.52830    1.000
    C266     C        0.18816    0.37073    0.50782    1.000
    C267     C        0.30539    0.14788    0.52907    1.000
    H130     H        0.28602    0.16040    0.53469    1.000
    C268     C        0.21224    0.38754    0.51645    1.000
    H131     H        0.23338    0.37770    0.52080    1.000
    C269     C        0.30314    0.11802    0.52197    1.000
    H132     H        0.28162    0.10795    0.52238    1.000
    C270     C        0.20837    0.41795    0.51958    1.000
    H133     H        0.22705    0.43108    0.52612    1.000
    C271     C        0.31985    0.21300    0.53122    1.000
    C272     C        0.20932    0.32064    0.50927    1.000
    C273     C        0.29836    0.21739    0.55267    1.000
    H134     H        0.29770    0.20346    0.57190    1.000
    C274     C        0.20405    0.29598    0.52685    1.000
    H135     H        0.18268    0.29262    0.53666    1.000
    C275     C        0.27728    0.23934    0.54910    1.000
    H136     H        0.26094    0.24227    0.56607    1.000
    C276     C        0.22609    0.27528    0.53152    1.000
    H137     H        0.22089    0.25594    0.54427    1.000
    C277     C        0.27707    0.25692    0.52367    1.000
    C278     C        0.25409    0.27906    0.51907    1.000
    C279     C        0.32057    0.23113    0.50645    1.000
    C280     C        0.29927    0.25281    0.50259    1.000
    H138     H        0.29977    0.26734    0.48224    1.000
    H139     H        0.33862    0.22815    0.48940    1.000
    H140     H        0.28226    0.30793    0.49235    1.000
    Cu13     Cu       0.51036    0.14870    0.51498    1.000
    Cu14     Cu       0.51759    0.20285    0.51699    1.000
    O57      O        0.97705    0.29585    0.48416    1.000
    O58      O        0.55561    0.19470    0.51831    1.000
    O59      O        0.97094    0.34413    0.48608    1.000
    O60      O        0.55040    0.14637    0.51542    1.000
    O61      O        0.85107    0.44472    0.49030    1.000
    O62      O        0.65292    0.02464    0.48889    1.000
    O63      O        0.80263    0.44310    0.48554    1.000
    O64      O        0.70108    0.02197    0.48202    1.000
    N15      N        0.83980    0.31064    0.46698    1.000
    N16      N        0.68688    0.15874    0.49603    1.000
    C281     C        0.75950    0.19571    0.49792    1.000
    C282     C        0.73724    0.17520    0.50289    1.000
    H141     H        0.74163    0.15629    0.51659    1.000
    C283     C        0.91652    0.28642    0.47606    1.000
    H142     H        0.93018    0.26703    0.47477    1.000
    C284     C        0.61572    0.19238    0.51575    1.000
    H143     H        0.60576    0.21345    0.52032    1.000
    C285     C        0.88647    0.28356    0.47001    1.000
    H144     H        0.87727    0.26250    0.46408    1.000
    C286     C        0.64591    0.19148    0.50979    1.000
    H145     H        0.65874    0.21142    0.51024    1.000
    C287     C        0.86901    0.30858    0.47177    1.000
    C288     C        0.65856    0.16439    0.50321    1.000
    C289     C        0.88075    0.33548    0.47925    1.000
    C290     C        0.64211    0.13900    0.50368    1.000
    C291     C        0.91045    0.33897    0.48572    1.000
    H146     H        0.91898    0.36028    0.49183    1.000
    C292     C        0.61207    0.13915    0.50942    1.000
    H147     H        0.59964    0.11892    0.50887    1.000
    C293     C        0.92879    0.31397    0.48402    1.000
    C294     C        0.59846    0.16644    0.51521    1.000
    C295     C        0.96036    0.31782    0.48588    1.000
    C296     C        0.56679    0.16944    0.51634    1.000
    C297     C        0.82690    0.43006    0.48854    1.000
    C298     C        0.67814    0.03706    0.48526    1.000
    C299     C        0.82828    0.39850    0.48618    1.000
    C300     C        0.68062    0.06878    0.48541    1.000
    C301     C        0.85612    0.38473    0.48676    1.000
    H148     H        0.87571    0.39655    0.49316    1.000
    C302     C        0.65646    0.08647    0.49350    1.000
    H149     H        0.63492    0.07717    0.49724    1.000
    C303     C        0.85766    0.35508    0.47935    1.000
    C304     C        0.66107    0.11651    0.49673    1.000
    C305     C        0.83307    0.33917    0.47170    1.000
    C306     C        0.68816    0.12927    0.49218    1.000
    C307     C        0.80539    0.35212    0.47093    1.000
    H150     H        0.78602    0.33960    0.46531    1.000
    C308     C        0.71224    0.11246    0.48355    1.000
    H151     H        0.73338    0.12230    0.47920    1.000
    C309     C        0.80314    0.38198    0.47803    1.000
    H152     H        0.78162    0.39205    0.47762    1.000
    C310     C        0.70837    0.08205    0.48042    1.000
    H153     H        0.72705    0.06892    0.47388    1.000
    C311     C        0.81985    0.28700    0.46878    1.000
    C312     C        0.70932    0.17936    0.49073    1.000
    C313     C        0.79836    0.28261    0.44733    1.000
    H154     H        0.79770    0.29654    0.42810    1.000
    C314     C        0.70405    0.20402    0.47315    1.000
    H155     H        0.68268    0.20738    0.46334    1.000
    C315     C        0.77728    0.26066    0.45090    1.000
    H156     H        0.76094    0.25773    0.43393    1.000
    C316     C        0.72609    0.22472    0.46848    1.000
    H157     H        0.72089    0.24406    0.45573    1.000
    C317     C        0.77707    0.24308    0.47633    1.000
    C318     C        0.75409    0.22094    0.48093    1.000
    C319     C        0.82057    0.26887    0.49355    1.000
    C320     C        0.79927    0.24719    0.49741    1.000
    H158     H        0.79977    0.23266    0.51776    1.000
    H159     H        0.83862    0.27185    0.51060    1.000
    H160     H        0.78226    0.19207    0.50765    1.000
    Cu15     Cu       0.01036    0.35130    0.48502    1.000
    Cu16     Cu       0.01759    0.29715    0.48301    1.000
    O65      O        0.01584    0.02295    0.79585    1.000
    O66      O        0.98169    0.44439    0.69470    1.000
    O67      O        0.01392    0.02906    0.84413    1.000
    O68      O        0.98458    0.44960    0.64637    1.000
    O69      O        0.00970    0.14893    0.94472    1.000
    O70      O        0.01111    0.34708    0.52464    1.000
    O71      O        0.01446    0.19737    0.94310    1.000
    O72      O        0.01798    0.29892    0.52197    1.000
    N17      N        0.03302    0.16020    0.81064    1.000
    N18      N        0.00397    0.31312    0.65874    1.000
    C321     C        0.00208    0.24050    0.69571    1.000
    C322     C        0.99711    0.26276    0.67520    1.000
    H161     H        0.98341    0.25837    0.65629    1.000
    C323     C        0.02394    0.08348    0.78642    1.000
    H162     H        0.02523    0.06982    0.76703    1.000
    C324     C        0.98425    0.38428    0.69238    1.000
    H163     H        0.97968    0.39424    0.71345    1.000
    C325     C        0.02999    0.11353    0.78356    1.000
    H164     H        0.03592    0.12273    0.76250    1.000
    C326     C        0.99021    0.35409    0.69148    1.000
    H165     H        0.98976    0.34126    0.71142    1.000
    C327     C        0.02823    0.13099    0.80858    1.000
    C328     C        0.99679    0.34144    0.66439    1.000
    C329     C        0.02075    0.11925    0.83548    1.000
    C330     C        0.99632    0.35789    0.63900    1.000
    C331     C        0.01428    0.08955    0.83897    1.000
    H166     H        0.00817    0.08102    0.86028    1.000
    C332     C        0.99058    0.38793    0.63915    1.000
    H167     H        0.99113    0.40036    0.61892    1.000
    C333     C        0.01598    0.07121    0.81397    1.000
    C334     C        0.98479    0.40154    0.66644    1.000
    C335     C        0.01412    0.03964    0.81782    1.000
    C336     C        0.98366    0.43321    0.66944    1.000
    C337     C        0.01146    0.17310    0.93006    1.000
    C338     C        0.01474    0.32186    0.53706    1.000
    C339     C        0.01382    0.17172    0.89850    1.000
    C340     C        0.01459    0.31938    0.56878    1.000
    C341     C        0.01324    0.14388    0.88473    1.000
    H168     H        0.00684    0.12429    0.89655    1.000
    C342     C        0.00650    0.34354    0.58647    1.000
    H169     H        0.00276    0.36508    0.57717    1.000
    C343     C        0.02065    0.14234    0.85508    1.000
    C344     C        0.00327    0.33893    0.61651    1.000
    C345     C        0.02830    0.16693    0.83917    1.000
    C346     C        0.00782    0.31184    0.62927    1.000
    C347     C        0.02907    0.19461    0.85212    1.000
    H170     H        0.03469    0.21398    0.83960    1.000
    C348     C        0.01645    0.28776    0.61246    1.000
    H171     H        0.02080    0.26662    0.62230    1.000
    C349     C        0.02197    0.19686    0.88198    1.000
    H172     H        0.02238    0.21838    0.89205    1.000
    C350     C        0.01958    0.29163    0.58205    1.000
    H173     H        0.02612    0.27295    0.56892    1.000
    C351     C        0.03122    0.18015    0.78700    1.000
    C352     C        0.00927    0.29068    0.67936    1.000
    C353     C        0.05267    0.20164    0.78261    1.000
    H174     H        0.07190    0.20230    0.79654    1.000
    C354     C        0.02685    0.29595    0.70402    1.000
    H175     H        0.03666    0.31732    0.70738    1.000
    C355     C        0.04910    0.22272    0.76066    1.000
    H176     H        0.06607    0.23906    0.75773    1.000
    C356     C        0.03152    0.27391    0.72472    1.000
    H177     H        0.04427    0.27911    0.74406    1.000
    C357     C        0.02367    0.22293    0.74308    1.000
    C358     C        0.01907    0.24591    0.72094    1.000
    C359     C        0.00645    0.17943    0.76887    1.000
    C360     C        0.00259    0.20073    0.74719    1.000
    H178     H        0.98224    0.20023    0.73266    1.000
    H179     H        0.98940    0.16138    0.77185    1.000
    H180     H        0.99235    0.21774    0.69207    1.000
    Cu17     Cu       0.01498    0.98964    0.85130    1.000
    Cu18     Cu       0.01699    0.98241    0.79715    1.000
    O73      O        0.98416    0.52295    0.70415    1.000
    O74      O        0.01831    0.94439    0.80530    1.000
    O75      O        0.98608    0.52906    0.65587    1.000
    O76      O        0.01542    0.94960    0.85363    1.000
    O77      O        0.99030    0.64893    0.55528    1.000
    O78      O        0.98889    0.84708    0.97536    1.000
    O79      O        0.98554    0.69737    0.55690    1.000
    O80      O        0.98202    0.79892    0.97803    1.000
    N19      N        0.96698    0.66020    0.68936    1.000
    N20      N        0.99603    0.81312    0.84126    1.000
    C361     C        0.99792    0.74050    0.80429    1.000
    C362     C        0.00289    0.76276    0.82480    1.000
    H181     H        0.01659    0.75837    0.84371    1.000
    C363     C        0.97606    0.58348    0.71358    1.000
    H182     H        0.97477    0.56982    0.73297    1.000
    C364     C        0.01575    0.88428    0.80762    1.000
    H183     H        0.02032    0.89424    0.78655    1.000
    C365     C        0.97001    0.61353    0.71644    1.000
    H184     H        0.96408    0.62273    0.73750    1.000
    C366     C        0.00979    0.85409    0.80852    1.000
    H185     H        0.01024    0.84126    0.78858    1.000
    C367     C        0.97177    0.63099    0.69142    1.000
    C368     C        0.00321    0.84144    0.83561    1.000
    C369     C        0.97925    0.61925    0.66452    1.000
    C370     C        0.00368    0.85789    0.86100    1.000
    C371     C        0.98572    0.58955    0.66103    1.000
    H186     H        0.99183    0.58102    0.63972    1.000
    C372     C        0.00942    0.88793    0.86085    1.000
    H187     H        0.00887    0.90036    0.88108    1.000
    C373     C        0.98402    0.57121    0.68603    1.000
    C374     C        0.01521    0.90154    0.83356    1.000
    C375     C        0.98588    0.53964    0.68218    1.000
    C376     C        0.01634    0.93321    0.83056    1.000
    C377     C        0.98854    0.67310    0.56994    1.000
    C378     C        0.98526    0.82186    0.96294    1.000
    C379     C        0.98618    0.67172    0.60150    1.000
    C380     C        0.98541    0.81938    0.93122    1.000
    C381     C        0.98676    0.64388    0.61527    1.000
    H188     H        0.99316    0.62429    0.60345    1.000
    C382     C        0.99350    0.84354    0.91353    1.000
    H189     H        0.99724    0.86508    0.92283    1.000
    C383     C        0.97935    0.64234    0.64492    1.000
    C384     C        0.99673    0.83893    0.88349    1.000
    C385     C        0.97170    0.66693    0.66083    1.000
    C386     C        0.99218    0.81184    0.87073    1.000
    C387     C        0.97093    0.69461    0.64788    1.000
    H190     H        0.96531    0.71398    0.66040    1.000
    C388     C        0.98355    0.78776    0.88754    1.000
    H191     H        0.97920    0.76662    0.87770    1.000
    C389     C        0.97803    0.69686    0.61802    1.000
    H192     H        0.97762    0.71838    0.60795    1.000
    C390     C        0.98042    0.79163    0.91795    1.000
    H193     H        0.97388    0.77295    0.93108    1.000
    C391     C        0.96878    0.68015    0.71300    1.000
    C392     C        0.99073    0.79068    0.82064    1.000
    C393     C        0.94733    0.70164    0.71739    1.000
    H194     H        0.92810    0.70230    0.70346    1.000
    C394     C        0.97315    0.79595    0.79598    1.000
    H195     H        0.96334    0.81732    0.79262    1.000
    C395     C        0.95090    0.72272    0.73934    1.000
    H196     H        0.93393    0.73906    0.74227    1.000
    C396     C        0.96848    0.77391    0.77528    1.000
    H197     H        0.95573    0.77911    0.75594    1.000
    C397     C        0.97633    0.72293    0.75692    1.000
    C398     C        0.98093    0.74591    0.77906    1.000
    C399     C        0.99355    0.67943    0.73113    1.000
    C400     C        0.99741    0.70073    0.75281    1.000
    H198     H        0.01776    0.70023    0.76734    1.000
    H199     H        0.01060    0.66138    0.72815    1.000
    H200     H        0.00765    0.71774    0.80793    1.000
    Cu19     Cu       0.98502    0.48964    0.64870    1.000
    Cu20     Cu       0.98301    0.48241    0.70285    1.000
    O81      O        0.51584    0.47705    0.20415    1.000
    O82      O        0.48169    0.05561    0.30530    1.000
    O83      O        0.51392    0.47094    0.15587    1.000
    O84      O        0.48458    0.05040    0.35363    1.000
    O85      O        0.50970    0.35107    0.05528    1.000
    O86      O        0.51111    0.15292    0.47536    1.000
    O87      O        0.51446    0.30263    0.05690    1.000
    O88      O        0.51798    0.20108    0.47803    1.000
    N21      N        0.53302    0.33980    0.18936    1.000
    N22      N        0.50397    0.18688    0.34126    1.000
    C401     C        0.50208    0.25950    0.30429    1.000
    C402     C        0.49711    0.23724    0.32480    1.000
    H201     H        0.48341    0.24163    0.34371    1.000
    C403     C        0.52394    0.41652    0.21358    1.000
    H202     H        0.52523    0.43018    0.23297    1.000
    C404     C        0.48425    0.11572    0.30762    1.000
    H203     H        0.47968    0.10576    0.28655    1.000
    C405     C        0.52999    0.38647    0.21644    1.000
    H204     H        0.53592    0.37727    0.23750    1.000
    C406     C        0.49021    0.14591    0.30852    1.000
    H205     H        0.48976    0.15874    0.28858    1.000
    C407     C        0.52823    0.36901    0.19142    1.000
    C408     C        0.49679    0.15856    0.33561    1.000
    C409     C        0.52075    0.38075    0.16452    1.000
    C410     C        0.49632    0.14211    0.36100    1.000
    C411     C        0.51428    0.41045    0.16103    1.000
    H206     H        0.50817    0.41898    0.13972    1.000
    C412     C        0.49058    0.11207    0.36085    1.000
    H207     H        0.49113    0.09964    0.38108    1.000
    C413     C        0.51598    0.42879    0.18603    1.000
    C414     C        0.48479    0.09846    0.33356    1.000
    C415     C        0.51412    0.46036    0.18218    1.000
    C416     C        0.48366    0.06679    0.33056    1.000
    C417     C        0.51146    0.32690    0.06994    1.000
    C418     C        0.51474    0.17814    0.46294    1.000
    C419     C        0.51382    0.32828    0.10150    1.000
    C420     C        0.51459    0.18062    0.43122    1.000
    C421     C        0.51324    0.35612    0.11527    1.000
    H208     H        0.50684    0.37571    0.10345    1.000
    C422     C        0.50650    0.15646    0.41353    1.000
    H209     H        0.50276    0.13492    0.42283    1.000
    C423     C        0.52065    0.35766    0.14492    1.000
    C424     C        0.50327    0.16107    0.38349    1.000
    C425     C        0.52830    0.33307    0.16083    1.000
    C426     C        0.50782    0.18816    0.37073    1.000
    C427     C        0.52907    0.30539    0.14788    1.000
    H210     H        0.53469    0.28602    0.16040    1.000
    C428     C        0.51645    0.21224    0.38754    1.000
    H211     H        0.52080    0.23338    0.37770    1.000
    C429     C        0.52197    0.30314    0.11802    1.000
    H212     H        0.52238    0.28162    0.10795    1.000
    C430     C        0.51958    0.20837    0.41795    1.000
    H213     H        0.52612    0.22705    0.43108    1.000
    C431     C        0.53122    0.31985    0.21300    1.000
    C432     C        0.50927    0.20932    0.32064    1.000
    C433     C        0.55267    0.29836    0.21739    1.000
    H214     H        0.57190    0.29770    0.20346    1.000
    C434     C        0.52685    0.20405    0.29598    1.000
    H215     H        0.53666    0.18268    0.29262    1.000
    C435     C        0.54910    0.27728    0.23934    1.000
    H216     H        0.56607    0.26094    0.24227    1.000
    C436     C        0.53152    0.22609    0.27528    1.000
    H217     H        0.54427    0.22089    0.25594    1.000
    C437     C        0.52367    0.27707    0.25692    1.000
    C438     C        0.51907    0.25409    0.27906    1.000
    C439     C        0.50645    0.32057    0.23113    1.000
    C440     C        0.50259    0.29927    0.25281    1.000
    H218     H        0.48224    0.29977    0.26734    1.000
    H219     H        0.48940    0.33862    0.22815    1.000
    H220     H        0.49235    0.28226    0.30793    1.000
    Cu21     Cu       0.51498    0.51036    0.14870    1.000
    Cu22     Cu       0.51699    0.51759    0.20285    1.000
    O89      O        0.48416    0.97705    0.29585    1.000
    O90      O        0.51831    0.55561    0.19470    1.000
    O91      O        0.48608    0.97094    0.34413    1.000
    O92      O        0.51542    0.55040    0.14637    1.000
    O93      O        0.49030    0.85107    0.44472    1.000
    O94      O        0.48889    0.65292    0.02464    1.000
    O95      O        0.48554    0.80263    0.44310    1.000
    O96      O        0.48202    0.70108    0.02197    1.000
    N23      N        0.46698    0.83980    0.31064    1.000
    N24      N        0.49603    0.68688    0.15874    1.000
    C441     C        0.49792    0.75950    0.19571    1.000
    C442     C        0.50289    0.73724    0.17520    1.000
    H221     H        0.51659    0.74163    0.15629    1.000
    C443     C        0.47606    0.91652    0.28642    1.000
    H222     H        0.47477    0.93018    0.26703    1.000
    C444     C        0.51575    0.61572    0.19238    1.000
    H223     H        0.52032    0.60576    0.21345    1.000
    C445     C        0.47001    0.88647    0.28356    1.000
    H224     H        0.46408    0.87727    0.26250    1.000
    C446     C        0.50979    0.64591    0.19148    1.000
    H225     H        0.51024    0.65874    0.21142    1.000
    C447     C        0.47177    0.86901    0.30858    1.000
    C448     C        0.50321    0.65856    0.16439    1.000
    C449     C        0.47925    0.88075    0.33548    1.000
    C450     C        0.50368    0.64211    0.13900    1.000
    C451     C        0.48572    0.91045    0.33897    1.000
    H226     H        0.49183    0.91898    0.36028    1.000
    C452     C        0.50942    0.61207    0.13915    1.000
    H227     H        0.50887    0.59964    0.11892    1.000
    C453     C        0.48402    0.92879    0.31397    1.000
    C454     C        0.51521    0.59846    0.16644    1.000
    C455     C        0.48588    0.96036    0.31782    1.000
    C456     C        0.51634    0.56679    0.16944    1.000
    C457     C        0.48854    0.82690    0.43006    1.000
    C458     C        0.48526    0.67814    0.03706    1.000
    C459     C        0.48618    0.82828    0.39850    1.000
    C460     C        0.48541    0.68062    0.06878    1.000
    C461     C        0.48676    0.85612    0.38473    1.000
    H228     H        0.49316    0.87571    0.39655    1.000
    C462     C        0.49350    0.65646    0.08647    1.000
    H229     H        0.49724    0.63492    0.07717    1.000
    C463     C        0.47935    0.85766    0.35508    1.000
    C464     C        0.49673    0.66107    0.11651    1.000
    C465     C        0.47170    0.83307    0.33917    1.000
    C466     C        0.49218    0.68816    0.12927    1.000
    C467     C        0.47093    0.80539    0.35212    1.000
    H230     H        0.46531    0.78602    0.33960    1.000
    C468     C        0.48355    0.71224    0.11246    1.000
    H231     H        0.47920    0.73338    0.12230    1.000
    C469     C        0.47803    0.80314    0.38198    1.000
    H232     H        0.47762    0.78162    0.39205    1.000
    C470     C        0.48042    0.70837    0.08205    1.000
    H233     H        0.47388    0.72705    0.06892    1.000
    C471     C        0.46878    0.81985    0.28700    1.000
    C472     C        0.49073    0.70932    0.17936    1.000
    C473     C        0.44733    0.79836    0.28261    1.000
    H234     H        0.42810    0.79770    0.29654    1.000
    C474     C        0.47315    0.70405    0.20402    1.000
    H235     H        0.46334    0.68268    0.20738    1.000
    C475     C        0.45090    0.77728    0.26066    1.000
    H236     H        0.43393    0.76094    0.25773    1.000
    C476     C        0.46848    0.72609    0.22472    1.000
    H237     H        0.45573    0.72089    0.24406    1.000
    C477     C        0.47633    0.77707    0.24308    1.000
    C478     C        0.48093    0.75409    0.22094    1.000
    C479     C        0.49355    0.82057    0.26887    1.000
    C480     C        0.49741    0.79927    0.24719    1.000
    H238     H        0.51776    0.79977    0.23266    1.000
    H239     H        0.51060    0.83862    0.27185    1.000
    H240     H        0.50765    0.78226    0.19207    1.000
    Cu23     Cu       0.48502    0.01036    0.35130    1.000
    Cu24     Cu       0.48301    0.01759    0.29715    1.000
    O97      O        0.20415    0.98416    0.97705    1.000
    O98      O        0.30530    0.01831    0.55561    1.000
    O99      O        0.15587    0.98608    0.97094    1.000
    O100     O        0.35363    0.01542    0.55040    1.000
    O101     O        0.05528    0.99030    0.85107    1.000
    O102     O        0.47536    0.98889    0.65292    1.000
    O103     O        0.05690    0.98554    0.80263    1.000
    O104     O        0.47803    0.98202    0.70108    1.000
    N25      N        0.18936    0.96698    0.83980    1.000
    N26      N        0.34126    0.99603    0.68688    1.000
    C481     C        0.30429    0.99792    0.75950    1.000
    C482     C        0.32480    0.00289    0.73724    1.000
    H241     H        0.34371    0.01659    0.74163    1.000
    C483     C        0.21358    0.97606    0.91652    1.000
    H242     H        0.23297    0.97477    0.93018    1.000
    C484     C        0.30762    0.01575    0.61572    1.000
    H243     H        0.28655    0.02032    0.60576    1.000
    C485     C        0.21644    0.97001    0.88647    1.000
    H244     H        0.23750    0.96408    0.87727    1.000
    C486     C        0.30852    0.00979    0.64591    1.000
    H245     H        0.28858    0.01024    0.65874    1.000
    C487     C        0.19142    0.97177    0.86901    1.000
    C488     C        0.33561    0.00321    0.65856    1.000
    C489     C        0.16452    0.97925    0.88075    1.000
    C490     C        0.36100    0.00368    0.64211    1.000
    C491     C        0.16103    0.98572    0.91045    1.000
    H246     H        0.13972    0.99183    0.91898    1.000
    C492     C        0.36085    0.00942    0.61207    1.000
    H247     H        0.38108    0.00887    0.59964    1.000
    C493     C        0.18603    0.98402    0.92879    1.000
    C494     C        0.33356    0.01521    0.59846    1.000
    C495     C        0.18218    0.98588    0.96036    1.000
    C496     C        0.33056    0.01634    0.56679    1.000
    C497     C        0.06994    0.98854    0.82690    1.000
    C498     C        0.46294    0.98526    0.67814    1.000
    C499     C        0.10150    0.98618    0.82828    1.000
    C500     C        0.43122    0.98541    0.68062    1.000
    C501     C        0.11527    0.98676    0.85612    1.000
    H248     H        0.10345    0.99316    0.87571    1.000
    C502     C        0.41353    0.99350    0.65646    1.000
    H249     H        0.42283    0.99724    0.63492    1.000
    C503     C        0.14492    0.97935    0.85766    1.000
    C504     C        0.38349    0.99673    0.66107    1.000
    C505     C        0.16083    0.97170    0.83307    1.000
    C506     C        0.37073    0.99218    0.68816    1.000
    C507     C        0.14788    0.97093    0.80539    1.000
    H250     H        0.16040    0.96531    0.78602    1.000
    C508     C        0.38754    0.98355    0.71224    1.000
    H251     H        0.37770    0.97920    0.73338    1.000
    C509     C        0.11802    0.97803    0.80314    1.000
    H252     H        0.10795    0.97762    0.78162    1.000
    C510     C        0.41795    0.98042    0.70837    1.000
    H253     H        0.43108    0.97388    0.72705    1.000
    C511     C        0.21300    0.96878    0.81985    1.000
    C512     C        0.32064    0.99073    0.70932    1.000
    C513     C        0.21739    0.94733    0.79836    1.000
    H254     H        0.20346    0.92810    0.79770    1.000
    C514     C        0.29598    0.97315    0.70405    1.000
    H255     H        0.29262    0.96334    0.68268    1.000
    C515     C        0.23934    0.95090    0.77728    1.000
    H256     H        0.24227    0.93393    0.76094    1.000
    C516     C        0.27528    0.96848    0.72609    1.000
    H257     H        0.25594    0.95573    0.72089    1.000
    C517     C        0.25692    0.97633    0.77707    1.000
    C518     C        0.27906    0.98093    0.75409    1.000
    C519     C        0.23113    0.99355    0.82057    1.000
    C520     C        0.25281    0.99741    0.79927    1.000
    H258     H        0.26734    0.01776    0.79977    1.000
    H259     H        0.22815    0.01060    0.83862    1.000
    H260     H        0.30793    0.00765    0.78226    1.000
    Cu25     Cu       0.14870    0.98502    0.01036    1.000
    Cu26     Cu       0.20285    0.98301    0.01759    1.000
    O105     O        0.29585    0.01584    0.47705    1.000
    O106     O        0.19470    0.98169    0.05561    1.000
    O107     O        0.34413    0.01392    0.47094    1.000
    O108     O        0.14637    0.98458    0.05040    1.000
    O109     O        0.44472    0.00970    0.35107    1.000
    O110     O        0.02464    0.01111    0.15292    1.000
    O111     O        0.44310    0.01446    0.30263    1.000
    O112     O        0.02197    0.01798    0.20108    1.000
    N27      N        0.31064    0.03302    0.33980    1.000
    N28      N        0.15874    0.00397    0.18688    1.000
    C521     C        0.19571    0.00208    0.25950    1.000
    C522     C        0.17520    0.99711    0.23724    1.000
    H261     H        0.15629    0.98341    0.24163    1.000
    C523     C        0.28642    0.02394    0.41652    1.000
    H262     H        0.26703    0.02523    0.43018    1.000
    C524     C        0.19238    0.98425    0.11572    1.000
    H263     H        0.21345    0.97968    0.10576    1.000
    C525     C        0.28356    0.02999    0.38647    1.000
    H264     H        0.26250    0.03592    0.37727    1.000
    C526     C        0.19148    0.99021    0.14591    1.000
    H265     H        0.21142    0.98976    0.15874    1.000
    C527     C        0.30858    0.02823    0.36901    1.000
    C528     C        0.16439    0.99679    0.15856    1.000
    C529     C        0.33548    0.02075    0.38075    1.000
    C530     C        0.13900    0.99632    0.14211    1.000
    C531     C        0.33897    0.01428    0.41045    1.000
    H266     H        0.36028    0.00817    0.41898    1.000
    C532     C        0.13915    0.99058    0.11207    1.000
    H267     H        0.11892    0.99113    0.09964    1.000
    C533     C        0.31397    0.01598    0.42879    1.000
    C534     C        0.16644    0.98479    0.09846    1.000
    C535     C        0.31782    0.01412    0.46036    1.000
    C536     C        0.16944    0.98366    0.06679    1.000
    C537     C        0.43006    0.01146    0.32690    1.000
    C538     C        0.03706    0.01474    0.17814    1.000
    C539     C        0.39850    0.01382    0.32828    1.000
    C540     C        0.06878    0.01459    0.18062    1.000
    C541     C        0.38473    0.01324    0.35612    1.000
    H268     H        0.39655    0.00684    0.37571    1.000
    C542     C        0.08647    0.00650    0.15646    1.000
    H269     H        0.07717    0.00276    0.13492    1.000
    C543     C        0.35508    0.02065    0.35766    1.000
    C544     C        0.11651    0.00327    0.16107    1.000
    C545     C        0.33917    0.02830    0.33307    1.000
    C546     C        0.12927    0.00782    0.18816    1.000
    C547     C        0.35212    0.02907    0.30539    1.000
    H270     H        0.33960    0.03469    0.28602    1.000
    C548     C        0.11246    0.01645    0.21224    1.000
    H271     H        0.12230    0.02080    0.23338    1.000
    C549     C        0.38198    0.02197    0.30314    1.000
    H272     H        0.39205    0.02238    0.28162    1.000
    C550     C        0.08205    0.01958    0.20837    1.000
    H273     H        0.06892    0.02612    0.22705    1.000
    C551     C        0.28700    0.03122    0.31985    1.000
    C552     C        0.17936    0.00927    0.20932    1.000
    C553     C        0.28261    0.05267    0.29836    1.000
    H274     H        0.29654    0.07190    0.29770    1.000
    C554     C        0.20402    0.02685    0.20405    1.000
    H275     H        0.20738    0.03666    0.18268    1.000
    C555     C        0.26066    0.04910    0.27728    1.000
    H276     H        0.25773    0.06607    0.26094    1.000
    C556     C        0.22472    0.03152    0.22609    1.000
    H277     H        0.24406    0.04427    0.22089    1.000
    C557     C        0.24308    0.02367    0.27707    1.000
    C558     C        0.22094    0.01907    0.25409    1.000
    C559     C        0.26887    0.00645    0.32057    1.000
    C560     C        0.24719    0.00259    0.29927    1.000
    H278     H        0.23266    0.98224    0.29977    1.000
    H279     H        0.27185    0.98940    0.33862    1.000
    H280     H        0.19207    0.99235    0.28226    1.000
    Cu27     Cu       0.35130    0.01498    0.51036    1.000
    Cu28     Cu       0.29715    0.01699    0.51759    1.000
    O113     O        0.79585    0.48416    0.52295    1.000
    O114     O        0.69470    0.51831    0.94439    1.000
    O115     O        0.84413    0.48608    0.52906    1.000
    O116     O        0.64637    0.51542    0.94960    1.000
    O117     O        0.94472    0.49030    0.64893    1.000
    O118     O        0.52464    0.48889    0.84708    1.000
    O119     O        0.94310    0.48554    0.69737    1.000
    O120     O        0.52197    0.48202    0.79892    1.000
    N29      N        0.81064    0.46698    0.66020    1.000
    N30      N        0.65874    0.49603    0.81312    1.000
    C561     C        0.69571    0.49792    0.74050    1.000
    C562     C        0.67520    0.50289    0.76276    1.000
    H281     H        0.65629    0.51659    0.75837    1.000
    C563     C        0.78642    0.47606    0.58348    1.000
    H282     H        0.76703    0.47477    0.56982    1.000
    C564     C        0.69238    0.51575    0.88428    1.000
    H283     H        0.71345    0.52032    0.89424    1.000
    C565     C        0.78356    0.47001    0.61353    1.000
    H284     H        0.76250    0.46408    0.62273    1.000
    C566     C        0.69148    0.50979    0.85409    1.000
    H285     H        0.71142    0.51024    0.84126    1.000
    C567     C        0.80858    0.47177    0.63099    1.000
    C568     C        0.66439    0.50321    0.84144    1.000
    C569     C        0.83548    0.47925    0.61925    1.000
    C570     C        0.63900    0.50368    0.85789    1.000
    C571     C        0.83897    0.48572    0.58955    1.000
    H286     H        0.86028    0.49183    0.58102    1.000
    C572     C        0.63915    0.50942    0.88793    1.000
    H287     H        0.61892    0.50887    0.90036    1.000
    C573     C        0.81397    0.48402    0.57121    1.000
    C574     C        0.66644    0.51521    0.90154    1.000
    C575     C        0.81782    0.48588    0.53964    1.000
    C576     C        0.66944    0.51634    0.93321    1.000
    C577     C        0.93006    0.48854    0.67310    1.000
    C578     C        0.53706    0.48526    0.82186    1.000
    C579     C        0.89850    0.48618    0.67172    1.000
    C580     C        0.56878    0.48541    0.81938    1.000
    C581     C        0.88473    0.48676    0.64388    1.000
    H288     H        0.89655    0.49316    0.62429    1.000
    C582     C        0.58647    0.49350    0.84354    1.000
    H289     H        0.57717    0.49724    0.86508    1.000
    C583     C        0.85508    0.47935    0.64234    1.000
    C584     C        0.61651    0.49673    0.83893    1.000
    C585     C        0.83917    0.47170    0.66693    1.000
    C586     C        0.62927    0.49218    0.81184    1.000
    C587     C        0.85212    0.47093    0.69461    1.000
    H290     H        0.83960    0.46531    0.71398    1.000
    C588     C        0.61246    0.48355    0.78776    1.000
    H291     H        0.62230    0.47920    0.76662    1.000
    C589     C        0.88198    0.47803    0.69686    1.000
    H292     H        0.89205    0.47762    0.71838    1.000
    C590     C        0.58205    0.48042    0.79163    1.000
    H293     H        0.56892    0.47388    0.77295    1.000
    C591     C        0.78700    0.46878    0.68015    1.000
    C592     C        0.67936    0.49073    0.79068    1.000
    C593     C        0.78261    0.44733    0.70164    1.000
    H294     H        0.79654    0.42810    0.70230    1.000
    C594     C        0.70402    0.47315    0.79595    1.000
    H295     H        0.70738    0.46334    0.81732    1.000
    C595     C        0.76066    0.45090    0.72272    1.000
    H296     H        0.75773    0.43393    0.73906    1.000
    C596     C        0.72472    0.46848    0.77391    1.000
    H297     H        0.74406    0.45573    0.77911    1.000
    C597     C        0.74308    0.47633    0.72293    1.000
    C598     C        0.72094    0.48093    0.74591    1.000
    C599     C        0.76887    0.49355    0.67943    1.000
    C600     C        0.74719    0.49741    0.70073    1.000
    H298     H        0.73266    0.51776    0.70023    1.000
    H299     H        0.77185    0.51060    0.66138    1.000
    H300     H        0.69207    0.50765    0.71774    1.000
    Cu29     Cu       0.85130    0.48502    0.48964    1.000
    Cu30     Cu       0.79715    0.48301    0.48241    1.000
    O121     O        0.70415    0.51584    0.02295    1.000
    O122     O        0.80530    0.48169    0.44439    1.000
    O123     O        0.65587    0.51392    0.02906    1.000
    O124     O        0.85363    0.48458    0.44960    1.000
    O125     O        0.55528    0.50970    0.14893    1.000
    O126     O        0.97536    0.51111    0.34708    1.000
    O127     O        0.55690    0.51446    0.19737    1.000
    O128     O        0.97803    0.51798    0.29892    1.000
    N31      N        0.68936    0.53302    0.16020    1.000
    N32      N        0.84126    0.50397    0.31312    1.000
    C601     C        0.80429    0.50208    0.24050    1.000
    C602     C        0.82480    0.49711    0.26276    1.000
    H301     H        0.84371    0.48341    0.25837    1.000
    C603     C        0.71358    0.52394    0.08348    1.000
    H302     H        0.73297    0.52523    0.06982    1.000
    C604     C        0.80762    0.48425    0.38428    1.000
    H303     H        0.78655    0.47968    0.39424    1.000
    C605     C        0.71644    0.52999    0.11353    1.000
    H304     H        0.73750    0.53592    0.12273    1.000
    C606     C        0.80852    0.49021    0.35409    1.000
    H305     H        0.78858    0.48976    0.34126    1.000
    C607     C        0.69142    0.52823    0.13099    1.000
    C608     C        0.83561    0.49679    0.34144    1.000
    C609     C        0.66452    0.52075    0.11925    1.000
    C610     C        0.86100    0.49632    0.35789    1.000
    C611     C        0.66103    0.51428    0.08955    1.000
    H306     H        0.63972    0.50817    0.08102    1.000
    C612     C        0.86085    0.49058    0.38793    1.000
    H307     H        0.88108    0.49113    0.40036    1.000
    C613     C        0.68603    0.51598    0.07121    1.000
    C614     C        0.83356    0.48479    0.40154    1.000
    C615     C        0.68218    0.51412    0.03964    1.000
    C616     C        0.83056    0.48366    0.43321    1.000
    C617     C        0.56994    0.51146    0.17310    1.000
    C618     C        0.96294    0.51474    0.32186    1.000
    C619     C        0.60150    0.51382    0.17172    1.000
    C620     C        0.93122    0.51459    0.31938    1.000
    C621     C        0.61527    0.51324    0.14388    1.000
    H308     H        0.60345    0.50684    0.12429    1.000
    C622     C        0.91353    0.50650    0.34354    1.000
    H309     H        0.92283    0.50276    0.36508    1.000
    C623     C        0.64492    0.52065    0.14234    1.000
    C624     C        0.88349    0.50327    0.33893    1.000
    C625     C        0.66083    0.52830    0.16693    1.000
    C626     C        0.87073    0.50782    0.31184    1.000
    C627     C        0.64788    0.52907    0.19461    1.000
    H310     H        0.66040    0.53469    0.21398    1.000
    C628     C        0.88754    0.51645    0.28776    1.000
    H311     H        0.87770    0.52080    0.26662    1.000
    C629     C        0.61802    0.52197    0.19686    1.000
    H312     H        0.60795    0.52238    0.21838    1.000
    C630     C        0.91795    0.51958    0.29163    1.000
    H313     H        0.93108    0.52612    0.27295    1.000
    C631     C        0.71300    0.53122    0.18015    1.000
    C632     C        0.82064    0.50927    0.29068    1.000
    C633     C        0.71739    0.55267    0.20164    1.000
    H314     H        0.70346    0.57190    0.20230    1.000
    C634     C        0.79598    0.52685    0.29595    1.000
    H315     H        0.79262    0.53666    0.31732    1.000
    C635     C        0.73934    0.54910    0.22272    1.000
    H316     H        0.74227    0.56607    0.23906    1.000
    C636     C        0.77528    0.53152    0.27391    1.000
    H317     H        0.75594    0.54427    0.27911    1.000
    C637     C        0.75692    0.52367    0.22293    1.000
    C638     C        0.77906    0.51907    0.24591    1.000
    C639     C        0.73113    0.50645    0.17943    1.000
    C640     C        0.75281    0.50259    0.20073    1.000
    H318     H        0.76734    0.48224    0.20023    1.000
    H319     H        0.72815    0.48940    0.16138    1.000
    H320     H        0.80793    0.49235    0.21774    1.000
    Cu31     Cu       0.64870    0.51498    0.98964    1.000
    Cu32     Cu       0.70285    0.51699    0.98241    1.000
    O129     O        0.97705    0.20415    0.98416    1.000
    O130     O        0.55561    0.30530    0.01831    1.000
    O131     O        0.97094    0.15587    0.98608    1.000
    O132     O        0.55040    0.35363    0.01542    1.000
    O133     O        0.85107    0.05528    0.99030    1.000
    O134     O        0.65292    0.47536    0.98889    1.000
    O135     O        0.80263    0.05690    0.98554    1.000
    O136     O        0.70108    0.47803    0.98202    1.000
    N33      N        0.83980    0.18936    0.96698    1.000
    N34      N        0.68688    0.34126    0.99603    1.000
    C641     C        0.75950    0.30429    0.99792    1.000
    C642     C        0.73724    0.32480    0.00289    1.000
    H321     H        0.74163    0.34371    0.01659    1.000
    C643     C        0.91652    0.21358    0.97606    1.000
    H322     H        0.93018    0.23297    0.97477    1.000
    C644     C        0.61572    0.30762    0.01575    1.000
    H323     H        0.60576    0.28655    0.02032    1.000
    C645     C        0.88647    0.21644    0.97001    1.000
    H324     H        0.87727    0.23750    0.96408    1.000
    C646     C        0.64591    0.30852    0.00979    1.000
    H325     H        0.65874    0.28858    0.01024    1.000
    C647     C        0.86901    0.19142    0.97177    1.000
    C648     C        0.65856    0.33561    0.00321    1.000
    C649     C        0.88075    0.16452    0.97925    1.000
    C650     C        0.64211    0.36100    0.00368    1.000
    C651     C        0.91045    0.16103    0.98572    1.000
    H326     H        0.91898    0.13972    0.99183    1.000
    C652     C        0.61207    0.36085    0.00942    1.000
    H327     H        0.59964    0.38108    0.00887    1.000
    C653     C        0.92879    0.18603    0.98402    1.000
    C654     C        0.59846    0.33356    0.01521    1.000
    C655     C        0.96036    0.18218    0.98588    1.000
    C656     C        0.56679    0.33056    0.01634    1.000
    C657     C        0.82690    0.06994    0.98854    1.000
    C658     C        0.67814    0.46294    0.98526    1.000
    C659     C        0.82828    0.10150    0.98618    1.000
    C660     C        0.68062    0.43122    0.98541    1.000
    C661     C        0.85612    0.11527    0.98676    1.000
    H328     H        0.87571    0.10345    0.99316    1.000
    C662     C        0.65646    0.41353    0.99350    1.000
    H329     H        0.63492    0.42283    0.99724    1.000
    C663     C        0.85766    0.14492    0.97935    1.000
    C664     C        0.66107    0.38349    0.99673    1.000
    C665     C        0.83307    0.16083    0.97170    1.000
    C666     C        0.68816    0.37073    0.99218    1.000
    C667     C        0.80539    0.14788    0.97093    1.000
    H330     H        0.78602    0.16040    0.96531    1.000
    C668     C        0.71224    0.38754    0.98355    1.000
    H331     H        0.73338    0.37770    0.97920    1.000
    C669     C        0.80314    0.11802    0.97803    1.000
    H332     H        0.78162    0.10795    0.97762    1.000
    C670     C        0.70837    0.41795    0.98042    1.000
    H333     H        0.72705    0.43108    0.97388    1.000
    C671     C        0.81985    0.21300    0.96878    1.000
    C672     C        0.70932    0.32064    0.99073    1.000
    C673     C        0.79836    0.21739    0.94733    1.000
    H334     H        0.79770    0.20346    0.92810    1.000
    C674     C        0.70405    0.29598    0.97315    1.000
    H335     H        0.68268    0.29262    0.96334    1.000
    C675     C        0.77728    0.23934    0.95090    1.000
    H336     H        0.76094    0.24227    0.93393    1.000
    C676     C        0.72609    0.27528    0.96848    1.000
    H337     H        0.72089    0.25594    0.95573    1.000
    C677     C        0.77707    0.25692    0.97633    1.000
    C678     C        0.75409    0.27906    0.98093    1.000
    C679     C        0.82057    0.23113    0.99355    1.000
    C680     C        0.79927    0.25281    0.99741    1.000
    H338     H        0.79977    0.26734    0.01776    1.000
    H339     H        0.83862    0.22815    0.01060    1.000
    H340     H        0.78226    0.30793    0.00765    1.000
    Cu33     Cu       0.01036    0.14870    0.98502    1.000
    Cu34     Cu       0.01759    0.20285    0.98301    1.000
    O137     O        0.47705    0.29585    0.01584    1.000
    O138     O        0.05561    0.19470    0.98169    1.000
    O139     O        0.47094    0.34413    0.01392    1.000
    O140     O        0.05040    0.14637    0.98458    1.000
    O141     O        0.35107    0.44472    0.00970    1.000
    O142     O        0.15292    0.02464    0.01111    1.000
    O143     O        0.30263    0.44310    0.01446    1.000
    O144     O        0.20108    0.02197    0.01798    1.000
    N35      N        0.33980    0.31064    0.03302    1.000
    N36      N        0.18688    0.15874    0.00397    1.000
    C681     C        0.25950    0.19571    0.00208    1.000
    C682     C        0.23724    0.17520    0.99711    1.000
    H341     H        0.24163    0.15629    0.98341    1.000
    C683     C        0.41652    0.28642    0.02394    1.000
    H342     H        0.43018    0.26703    0.02523    1.000
    C684     C        0.11572    0.19238    0.98425    1.000
    H343     H        0.10576    0.21345    0.97968    1.000
    C685     C        0.38647    0.28356    0.02999    1.000
    H344     H        0.37727    0.26250    0.03592    1.000
    C686     C        0.14591    0.19148    0.99021    1.000
    H345     H        0.15874    0.21142    0.98976    1.000
    C687     C        0.36901    0.30858    0.02823    1.000
    C688     C        0.15856    0.16439    0.99679    1.000
    C689     C        0.38075    0.33548    0.02075    1.000
    C690     C        0.14211    0.13900    0.99632    1.000
    C691     C        0.41045    0.33897    0.01428    1.000
    H346     H        0.41898    0.36028    0.00817    1.000
    C692     C        0.11207    0.13915    0.99058    1.000
    H347     H        0.09964    0.11892    0.99113    1.000
    C693     C        0.42879    0.31397    0.01598    1.000
    C694     C        0.09846    0.16644    0.98479    1.000
    C695     C        0.46036    0.31782    0.01412    1.000
    C696     C        0.06679    0.16944    0.98366    1.000
    C697     C        0.32690    0.43006    0.01146    1.000
    C698     C        0.17814    0.03706    0.01474    1.000
    C699     C        0.32828    0.39850    0.01382    1.000
    C700     C        0.18062    0.06878    0.01459    1.000
    C701     C        0.35612    0.38473    0.01324    1.000
    H348     H        0.37571    0.39655    0.00684    1.000
    C702     C        0.15646    0.08647    0.00650    1.000
    H349     H        0.13492    0.07717    0.00276    1.000
    C703     C        0.35766    0.35508    0.02065    1.000
    C704     C        0.16107    0.11651    0.00327    1.000
    C705     C        0.33307    0.33917    0.02830    1.000
    C706     C        0.18816    0.12927    0.00782    1.000
    C707     C        0.30539    0.35212    0.02907    1.000
    H350     H        0.28602    0.33960    0.03469    1.000
    C708     C        0.21224    0.11246    0.01645    1.000
    H351     H        0.23338    0.12230    0.02080    1.000
    C709     C        0.30314    0.38198    0.02197    1.000
    H352     H        0.28162    0.39205    0.02238    1.000
    C710     C        0.20837    0.08205    0.01958    1.000
    H353     H        0.22705    0.06892    0.02612    1.000
    C711     C        0.31985    0.28700    0.03122    1.000
    C712     C        0.20932    0.17936    0.00927    1.000
    C713     C        0.29836    0.28261    0.05267    1.000
    H354     H        0.29770    0.29654    0.07190    1.000
    C714     C        0.20405    0.20402    0.02685    1.000
    H355     H        0.18268    0.20738    0.03666    1.000
    C715     C        0.27728    0.26066    0.04910    1.000
    H356     H        0.26094    0.25773    0.06607    1.000
    C716     C        0.22609    0.22472    0.03152    1.000
    H357     H        0.22089    0.24406    0.04427    1.000
    C717     C        0.27707    0.24308    0.02367    1.000
    C718     C        0.25409    0.22094    0.01907    1.000
    C719     C        0.32057    0.26887    0.00645    1.000
    C720     C        0.29927    0.24719    0.00259    1.000
    H358     H        0.29977    0.23266    0.98224    1.000
    H359     H        0.33862    0.27185    0.98940    1.000
    H360     H        0.28226    0.19207    0.99235    1.000
    Cu35     Cu       0.51036    0.35130    0.01498    1.000
    Cu36     Cu       0.51759    0.29715    0.01699    1.000
    O145     O        0.52295    0.79585    0.48416    1.000
    O146     O        0.94439    0.69470    0.51831    1.000
    O147     O        0.52906    0.84413    0.48608    1.000
    O148     O        0.94960    0.64637    0.51542    1.000
    O149     O        0.64893    0.94472    0.49030    1.000
    O150     O        0.84708    0.52464    0.48889    1.000
    O151     O        0.69737    0.94310    0.48554    1.000
    O152     O        0.79892    0.52197    0.48202    1.000
    N37      N        0.66020    0.81064    0.46698    1.000
    N38      N        0.81312    0.65874    0.49603    1.000
    C721     C        0.74050    0.69571    0.49792    1.000
    C722     C        0.76276    0.67520    0.50289    1.000
    H361     H        0.75837    0.65629    0.51659    1.000
    C723     C        0.58348    0.78642    0.47606    1.000
    H362     H        0.56982    0.76703    0.47477    1.000
    C724     C        0.88428    0.69238    0.51575    1.000
    H363     H        0.89424    0.71345    0.52032    1.000
    C725     C        0.61353    0.78356    0.47001    1.000
    H364     H        0.62273    0.76250    0.46408    1.000
    C726     C        0.85409    0.69148    0.50979    1.000
    H365     H        0.84126    0.71142    0.51024    1.000
    C727     C        0.63099    0.80858    0.47177    1.000
    C728     C        0.84144    0.66439    0.50321    1.000
    C729     C        0.61925    0.83548    0.47925    1.000
    C730     C        0.85789    0.63900    0.50368    1.000
    C731     C        0.58955    0.83897    0.48572    1.000
    H366     H        0.58102    0.86028    0.49183    1.000
    C732     C        0.88793    0.63915    0.50942    1.000
    H367     H        0.90036    0.61892    0.50887    1.000
    C733     C        0.57121    0.81397    0.48402    1.000
    C734     C        0.90154    0.66644    0.51521    1.000
    C735     C        0.53964    0.81782    0.48588    1.000
    C736     C        0.93321    0.66944    0.51634    1.000
    C737     C        0.67310    0.93006    0.48854    1.000
    C738     C        0.82186    0.53706    0.48526    1.000
    C739     C        0.67172    0.89850    0.48618    1.000
    C740     C        0.81938    0.56878    0.48541    1.000
    C741     C        0.64388    0.88473    0.48676    1.000
    H368     H        0.62429    0.89655    0.49316    1.000
    C742     C        0.84354    0.58647    0.49350    1.000
    H369     H        0.86508    0.57717    0.49724    1.000
    C743     C        0.64234    0.85508    0.47935    1.000
    C744     C        0.83893    0.61651    0.49673    1.000
    C745     C        0.66693    0.83917    0.47170    1.000
    C746     C        0.81184    0.62927    0.49218    1.000
    C747     C        0.69461    0.85212    0.47093    1.000
    H370     H        0.71398    0.83960    0.46531    1.000
    C748     C        0.78776    0.61246    0.48355    1.000
    H371     H        0.76662    0.62230    0.47920    1.000
    C749     C        0.69686    0.88198    0.47803    1.000
    H372     H        0.71838    0.89205    0.47762    1.000
    C750     C        0.79163    0.58205    0.48042    1.000
    H373     H        0.77295    0.56892    0.47388    1.000
    C751     C        0.68015    0.78700    0.46878    1.000
    C752     C        0.79068    0.67936    0.49073    1.000
    C753     C        0.70164    0.78261    0.44733    1.000
    H374     H        0.70230    0.79654    0.42810    1.000
    C754     C        0.79595    0.70402    0.47315    1.000
    H375     H        0.81732    0.70738    0.46334    1.000
    C755     C        0.72272    0.76066    0.45090    1.000
    H376     H        0.73906    0.75773    0.43393    1.000
    C756     C        0.77391    0.72472    0.46848    1.000
    H377     H        0.77911    0.74406    0.45573    1.000
    C757     C        0.72293    0.74308    0.47633    1.000
    C758     C        0.74591    0.72094    0.48093    1.000
    C759     C        0.67943    0.76887    0.49355    1.000
    C760     C        0.70073    0.74719    0.49741    1.000
    H378     H        0.70023    0.73266    0.51776    1.000
    H379     H        0.66138    0.77185    0.51060    1.000
    H380     H        0.71774    0.69207    0.50765    1.000
    Cu37     Cu       0.48964    0.85130    0.48502    1.000
    Cu38     Cu       0.48241    0.79715    0.48301    1.000
    O153     O        0.02295    0.70415    0.51584    1.000
    O154     O        0.44439    0.80530    0.48169    1.000
    O155     O        0.02906    0.65587    0.51392    1.000
    O156     O        0.44960    0.85363    0.48458    1.000
    O157     O        0.14893    0.55528    0.50970    1.000
    O158     O        0.34708    0.97536    0.51111    1.000
    O159     O        0.19737    0.55690    0.51446    1.000
    O160     O        0.29892    0.97803    0.51798    1.000
    N39      N        0.16020    0.68936    0.53302    1.000
    N40      N        0.31312    0.84126    0.50397    1.000
    C761     C        0.24050    0.80429    0.50208    1.000
    C762     C        0.26276    0.82480    0.49711    1.000
    H381     H        0.25837    0.84371    0.48341    1.000
    C763     C        0.08348    0.71358    0.52394    1.000
    H382     H        0.06982    0.73297    0.52523    1.000
    C764     C        0.38428    0.80762    0.48425    1.000
    H383     H        0.39424    0.78655    0.47968    1.000
    C765     C        0.11353    0.71644    0.52999    1.000
    H384     H        0.12273    0.73750    0.53592    1.000
    C766     C        0.35409    0.80852    0.49021    1.000
    H385     H        0.34126    0.78858    0.48976    1.000
    C767     C        0.13099    0.69142    0.52823    1.000
    C768     C        0.34144    0.83561    0.49679    1.000
    C769     C        0.11925    0.66452    0.52075    1.000
    C770     C        0.35789    0.86100    0.49632    1.000
    C771     C        0.08955    0.66103    0.51428    1.000
    H386     H        0.08102    0.63972    0.50817    1.000
    C772     C        0.38793    0.86085    0.49058    1.000
    H387     H        0.40036    0.88108    0.49113    1.000
    C773     C        0.07121    0.68603    0.51598    1.000
    C774     C        0.40154    0.83356    0.48479    1.000
    C775     C        0.03964    0.68218    0.51412    1.000
    C776     C        0.43321    0.83056    0.48366    1.000
    C777     C        0.17310    0.56994    0.51146    1.000
    C778     C        0.32186    0.96294    0.51474    1.000
    C779     C        0.17172    0.60150    0.51382    1.000
    C780     C        0.31938    0.93122    0.51459    1.000
    C781     C        0.14388    0.61527    0.51324    1.000
    H388     H        0.12429    0.60345    0.50684    1.000
    C782     C        0.34354    0.91353    0.50650    1.000
    H389     H        0.36508    0.92283    0.50276    1.000
    C783     C        0.14234    0.64492    0.52065    1.000
    C784     C        0.33893    0.88349    0.50327    1.000
    C785     C        0.16693    0.66083    0.52830    1.000
    C786     C        0.31184    0.87073    0.50782    1.000
    C787     C        0.19461    0.64788    0.52907    1.000
    H390     H        0.21398    0.66040    0.53469    1.000
    C788     C        0.28776    0.88754    0.51645    1.000
    H391     H        0.26662    0.87770    0.52080    1.000
    C789     C        0.19686    0.61802    0.52197    1.000
    H392     H        0.21838    0.60795    0.52238    1.000
    C790     C        0.29163    0.91795    0.51958    1.000
    H393     H        0.27295    0.93108    0.52612    1.000
    C791     C        0.18015    0.71300    0.53122    1.000
    C792     C        0.29068    0.82064    0.50927    1.000
    C793     C        0.20164    0.71739    0.55267    1.000
    H394     H        0.20230    0.70346    0.57190    1.000
    C794     C        0.29595    0.79598    0.52685    1.000
    H395     H        0.31732    0.79262    0.53666    1.000
    C795     C        0.22272    0.73934    0.54910    1.000
    H396     H        0.23906    0.74227    0.56607    1.000
    C796     C        0.27391    0.77528    0.53152    1.000
    H397     H        0.27911    0.75594    0.54427    1.000
    C797     C        0.22293    0.75692    0.52367    1.000
    C798     C        0.24591    0.77906    0.51907    1.000
    C799     C        0.17943    0.73113    0.50645    1.000
    C800     C        0.20073    0.75281    0.50259    1.000
    H398     H        0.20023    0.76734    0.48224    1.000
    H399     H        0.16138    0.72815    0.48940    1.000
    H400     H        0.21774    0.80793    0.49235    1.000
    Cu39     Cu       0.98964    0.64870    0.51498    1.000
    Cu40     Cu       0.98241    0.70285    0.51699    1.000
    O161     O        0.98416    0.97705    0.20415    1.000
    O162     O        0.01831    0.55561    0.30530    1.000
    O163     O        0.98608    0.97094    0.15587    1.000
    O164     O        0.01542    0.55040    0.35363    1.000
    O165     O        0.99030    0.85107    0.05528    1.000
    O166     O        0.98889    0.65292    0.47536    1.000
    O167     O        0.98554    0.80263    0.05690    1.000
    O168     O        0.98202    0.70108    0.47803    1.000
    N41      N        0.96698    0.83980    0.18936    1.000
    N42      N        0.99603    0.68688    0.34126    1.000
    C801     C        0.99792    0.75950    0.30429    1.000
    C802     C        0.00289    0.73724    0.32480    1.000
    H401     H        0.01659    0.74163    0.34371    1.000
    C803     C        0.97606    0.91652    0.21358    1.000
    H402     H        0.97477    0.93018    0.23297    1.000
    C804     C        0.01575    0.61572    0.30762    1.000
    H403     H        0.02032    0.60576    0.28655    1.000
    C805     C        0.97001    0.88647    0.21644    1.000
    H404     H        0.96408    0.87727    0.23750    1.000
    C806     C        0.00979    0.64591    0.30852    1.000
    H405     H        0.01024    0.65874    0.28858    1.000
    C807     C        0.97177    0.86901    0.19142    1.000
    C808     C        0.00321    0.65856    0.33561    1.000
    C809     C        0.97925    0.88075    0.16452    1.000
    C810     C        0.00368    0.64211    0.36100    1.000
    C811     C        0.98572    0.91045    0.16103    1.000
    H406     H        0.99183    0.91898    0.13972    1.000
    C812     C        0.00942    0.61207    0.36085    1.000
    H407     H        0.00887    0.59964    0.38108    1.000
    C813     C        0.98402    0.92879    0.18603    1.000
    C814     C        0.01521    0.59846    0.33356    1.000
    C815     C        0.98588    0.96036    0.18218    1.000
    C816     C        0.01634    0.56679    0.33056    1.000
    C817     C        0.98854    0.82690    0.06994    1.000
    C818     C        0.98526    0.67814    0.46294    1.000
    C819     C        0.98618    0.82828    0.10150    1.000
    C820     C        0.98541    0.68062    0.43122    1.000
    C821     C        0.98676    0.85612    0.11527    1.000
    H408     H        0.99316    0.87571    0.10345    1.000
    C822     C        0.99350    0.65646    0.41353    1.000
    H409     H        0.99724    0.63492    0.42283    1.000
    C823     C        0.97935    0.85766    0.14492    1.000
    C824     C        0.99673    0.66107    0.38349    1.000
    C825     C        0.97170    0.83307    0.16083    1.000
    C826     C        0.99218    0.68816    0.37073    1.000
    C827     C        0.97093    0.80539    0.14788    1.000
    H410     H        0.96531    0.78602    0.16040    1.000
    C828     C        0.98355    0.71224    0.38754    1.000
    H411     H        0.97920    0.73338    0.37770    1.000
    C829     C        0.97803    0.80314    0.11802    1.000
    H412     H        0.97762    0.78162    0.10795    1.000
    C830     C        0.98042    0.70837    0.41795    1.000
    H413     H        0.97388    0.72705    0.43108    1.000
    C831     C        0.96878    0.81985    0.21300    1.000
    C832     C        0.99073    0.70932    0.32064    1.000
    C833     C        0.94733    0.79836    0.21739    1.000
    H414     H        0.92810    0.79770    0.20346    1.000
    C834     C        0.97315    0.70405    0.29598    1.000
    H415     H        0.96334    0.68268    0.29262    1.000
    C835     C        0.95090    0.77728    0.23934    1.000
    H416     H        0.93393    0.76094    0.24227    1.000
    C836     C        0.96848    0.72609    0.27528    1.000
    H417     H        0.95573    0.72089    0.25594    1.000
    C837     C        0.97633    0.77707    0.25692    1.000
    C838     C        0.98093    0.75409    0.27906    1.000
    C839     C        0.99355    0.82057    0.23113    1.000
    C840     C        0.99741    0.79927    0.25281    1.000
    H418     H        0.01776    0.79977    0.26734    1.000
    H419     H        0.01060    0.83862    0.22815    1.000
    H420     H        0.00765    0.78226    0.30793    1.000
    Cu41     Cu       0.98502    0.01036    0.14870    1.000
    Cu42     Cu       0.98301    0.01759    0.20285    1.000
    O169     O        0.01584    0.47705    0.29585    1.000
    O170     O        0.98169    0.05561    0.19470    1.000
    O171     O        0.01392    0.47094    0.34413    1.000
    O172     O        0.98458    0.05040    0.14637    1.000
    O173     O        0.00970    0.35107    0.44472    1.000
    O174     O        0.01111    0.15292    0.02464    1.000
    O175     O        0.01446    0.30263    0.44310    1.000
    O176     O        0.01798    0.20108    0.02197    1.000
    N43      N        0.03302    0.33980    0.31064    1.000
    N44      N        0.00397    0.18688    0.15874    1.000
    C841     C        0.00208    0.25950    0.19571    1.000
    C842     C        0.99711    0.23724    0.17520    1.000
    H421     H        0.98341    0.24163    0.15629    1.000
    C843     C        0.02394    0.41652    0.28642    1.000
    H422     H        0.02523    0.43018    0.26703    1.000
    C844     C        0.98425    0.11572    0.19238    1.000
    H423     H        0.97968    0.10576    0.21345    1.000
    C845     C        0.02999    0.38647    0.28356    1.000
    H424     H        0.03592    0.37727    0.26250    1.000
    C846     C        0.99021    0.14591    0.19148    1.000
    H425     H        0.98976    0.15874    0.21142    1.000
    C847     C        0.02823    0.36901    0.30858    1.000
    C848     C        0.99679    0.15856    0.16439    1.000
    C849     C        0.02075    0.38075    0.33548    1.000
    C850     C        0.99632    0.14211    0.13900    1.000
    C851     C        0.01428    0.41045    0.33897    1.000
    H426     H        0.00817    0.41898    0.36028    1.000
    C852     C        0.99058    0.11207    0.13915    1.000
    H427     H        0.99113    0.09964    0.11892    1.000
    C853     C        0.01598    0.42879    0.31397    1.000
    C854     C        0.98479    0.09846    0.16644    1.000
    C855     C        0.01412    0.46036    0.31782    1.000
    C856     C        0.98366    0.06679    0.16944    1.000
    C857     C        0.01146    0.32690    0.43006    1.000
    C858     C        0.01474    0.17814    0.03706    1.000
    C859     C        0.01382    0.32828    0.39850    1.000
    C860     C        0.01459    0.18062    0.06878    1.000
    C861     C        0.01324    0.35612    0.38473    1.000
    H428     H        0.00684    0.37571    0.39655    1.000
    C862     C        0.00650    0.15646    0.08647    1.000
    H429     H        0.00276    0.13492    0.07717    1.000
    C863     C        0.02065    0.35766    0.35508    1.000
    C864     C        0.00327    0.16107    0.11651    1.000
    C865     C        0.02830    0.33307    0.33917    1.000
    C866     C        0.00782    0.18816    0.12927    1.000
    C867     C        0.02907    0.30539    0.35212    1.000
    H430     H        0.03469    0.28602    0.33960    1.000
    C868     C        0.01645    0.21224    0.11246    1.000
    H431     H        0.02080    0.23338    0.12230    1.000
    C869     C        0.02197    0.30314    0.38198    1.000
    H432     H        0.02238    0.28162    0.39205    1.000
    C870     C        0.01958    0.20837    0.08205    1.000
    H433     H        0.02612    0.22705    0.06892    1.000
    C871     C        0.03122    0.31985    0.28700    1.000
    C872     C        0.00927    0.20932    0.17936    1.000
    C873     C        0.05267    0.29836    0.28261    1.000
    H434     H        0.07190    0.29770    0.29654    1.000
    C874     C        0.02685    0.20405    0.20402    1.000
    H435     H        0.03666    0.18268    0.20738    1.000
    C875     C        0.04910    0.27728    0.26066    1.000
    H436     H        0.06607    0.26094    0.25773    1.000
    C876     C        0.03152    0.22609    0.22472    1.000
    H437     H        0.04427    0.22089    0.24406    1.000
    C877     C        0.02367    0.27707    0.24308    1.000
    C878     C        0.01907    0.25409    0.22094    1.000
    C879     C        0.00645    0.32057    0.26887    1.000
    C880     C        0.00259    0.29927    0.24719    1.000
    H438     H        0.98224    0.29977    0.23266    1.000
    H439     H        0.98940    0.33862    0.27185    1.000
    H440     H        0.99235    0.28226    0.19207    1.000
    Cu43     Cu       0.01498    0.51036    0.35130    1.000
    Cu44     Cu       0.01699    0.51759    0.29715    1.000
    O177     O        0.48416    0.52295    0.79585    1.000
    O178     O        0.51831    0.94439    0.69470    1.000
    O179     O        0.48608    0.52906    0.84413    1.000
    O180     O        0.51542    0.94960    0.64637    1.000
    O181     O        0.49030    0.64893    0.94472    1.000
    O182     O        0.48889    0.84708    0.52464    1.000
    O183     O        0.48554    0.69737    0.94310    1.000
    O184     O        0.48202    0.79892    0.52197    1.000
    N45      N        0.46698    0.66020    0.81064    1.000
    N46      N        0.49603    0.81312    0.65874    1.000
    C881     C        0.49792    0.74050    0.69571    1.000
    C882     C        0.50289    0.76276    0.67520    1.000
    H441     H        0.51659    0.75837    0.65629    1.000
    C883     C        0.47606    0.58348    0.78642    1.000
    H442     H        0.47477    0.56982    0.76703    1.000
    C884     C        0.51575    0.88428    0.69238    1.000
    H443     H        0.52032    0.89424    0.71345    1.000
    C885     C        0.47001    0.61353    0.78356    1.000
    H444     H        0.46408    0.62273    0.76250    1.000
    C886     C        0.50979    0.85409    0.69148    1.000
    H445     H        0.51024    0.84126    0.71142    1.000
    C887     C        0.47177    0.63099    0.80858    1.000
    C888     C        0.50321    0.84144    0.66439    1.000
    C889     C        0.47925    0.61925    0.83548    1.000
    C890     C        0.50368    0.85789    0.63900    1.000
    C891     C        0.48572    0.58955    0.83897    1.000
    H446     H        0.49183    0.58102    0.86028    1.000
    C892     C        0.50942    0.88793    0.63915    1.000
    H447     H        0.50887    0.90036    0.61892    1.000
    C893     C        0.48402    0.57121    0.81397    1.000
    C894     C        0.51521    0.90154    0.66644    1.000
    C895     C        0.48588    0.53964    0.81782    1.000
    C896     C        0.51634    0.93321    0.66944    1.000
    C897     C        0.48854    0.67310    0.93006    1.000
    C898     C        0.48526    0.82186    0.53706    1.000
    C899     C        0.48618    0.67172    0.89850    1.000
    C900     C        0.48541    0.81938    0.56878    1.000
    C901     C        0.48676    0.64388    0.88473    1.000
    H448     H        0.49316    0.62429    0.89655    1.000
    C902     C        0.49350    0.84354    0.58647    1.000
    H449     H        0.49724    0.86508    0.57717    1.000
    C903     C        0.47935    0.64234    0.85508    1.000
    C904     C        0.49673    0.83893    0.61651    1.000
    C905     C        0.47170    0.66693    0.83917    1.000
    C906     C        0.49218    0.81184    0.62927    1.000
    C907     C        0.47093    0.69461    0.85212    1.000
    H450     H        0.46531    0.71398    0.83960    1.000
    C908     C        0.48355    0.78776    0.61246    1.000
    H451     H        0.47920    0.76662    0.62230    1.000
    C909     C        0.47803    0.69686    0.88198    1.000
    H452     H        0.47762    0.71838    0.89205    1.000
    C910     C        0.48042    0.79163    0.58205    1.000
    H453     H        0.47388    0.77295    0.56892    1.000
    C911     C        0.46878    0.68015    0.78700    1.000
    C912     C        0.49073    0.79068    0.67936    1.000
    C913     C        0.44733    0.70164    0.78261    1.000
    H454     H        0.42810    0.70230    0.79654    1.000
    C914     C        0.47315    0.79595    0.70402    1.000
    H455     H        0.46334    0.81732    0.70738    1.000
    C915     C        0.45090    0.72272    0.76066    1.000
    H456     H        0.43393    0.73906    0.75773    1.000
    C916     C        0.46848    0.77391    0.72472    1.000
    H457     H        0.45573    0.77911    0.74406    1.000
    C917     C        0.47633    0.72293    0.74308    1.000
    C918     C        0.48093    0.74591    0.72094    1.000
    C919     C        0.49355    0.67943    0.76887    1.000
    C920     C        0.49741    0.70073    0.74719    1.000
    H458     H        0.51776    0.70023    0.73266    1.000
    H459     H        0.51060    0.66138    0.77185    1.000
    H460     H        0.50765    0.71774    0.69207    1.000
    Cu45     Cu       0.48502    0.48964    0.85130    1.000
    Cu46     Cu       0.48301    0.48241    0.79715    1.000
    O185     O        0.51584    0.02295    0.70415    1.000
    O186     O        0.48169    0.44439    0.80530    1.000
    O187     O        0.51392    0.02906    0.65587    1.000
    O188     O        0.48458    0.44960    0.85363    1.000
    O189     O        0.50970    0.14893    0.55528    1.000
    O190     O        0.51111    0.34708    0.97536    1.000
    O191     O        0.51446    0.19737    0.55690    1.000
    O192     O        0.51798    0.29892    0.97803    1.000
    N47      N        0.53302    0.16020    0.68936    1.000
    N48      N        0.50397    0.31312    0.84126    1.000
    C921     C        0.50208    0.24050    0.80429    1.000
    C922     C        0.49711    0.26276    0.82480    1.000
    H461     H        0.48341    0.25837    0.84371    1.000
    C923     C        0.52394    0.08348    0.71358    1.000
    H462     H        0.52523    0.06982    0.73297    1.000
    C924     C        0.48425    0.38428    0.80762    1.000
    H463     H        0.47968    0.39424    0.78655    1.000
    C925     C        0.52999    0.11353    0.71644    1.000
    H464     H        0.53592    0.12273    0.73750    1.000
    C926     C        0.49021    0.35409    0.80852    1.000
    H465     H        0.48976    0.34126    0.78858    1.000
    C927     C        0.52823    0.13099    0.69142    1.000
    C928     C        0.49679    0.34144    0.83561    1.000
    C929     C        0.52075    0.11925    0.66452    1.000
    C930     C        0.49632    0.35789    0.86100    1.000
    C931     C        0.51428    0.08955    0.66103    1.000
    H466     H        0.50817    0.08102    0.63972    1.000
    C932     C        0.49058    0.38793    0.86085    1.000
    H467     H        0.49113    0.40036    0.88108    1.000
    C933     C        0.51598    0.07121    0.68603    1.000
    C934     C        0.48479    0.40154    0.83356    1.000
    C935     C        0.51412    0.03964    0.68218    1.000
    C936     C        0.48366    0.43321    0.83056    1.000
    C937     C        0.51146    0.17310    0.56994    1.000
    C938     C        0.51474    0.32186    0.96294    1.000
    C939     C        0.51382    0.17172    0.60150    1.000
    C940     C        0.51459    0.31938    0.93122    1.000
    C941     C        0.51324    0.14388    0.61527    1.000
    H468     H        0.50684    0.12429    0.60345    1.000
    C942     C        0.50650    0.34354    0.91353    1.000
    H469     H        0.50276    0.36508    0.92283    1.000
    C943     C        0.52065    0.14234    0.64492    1.000
    C944     C        0.50327    0.33893    0.88349    1.000
    C945     C        0.52830    0.16693    0.66083    1.000
    C946     C        0.50782    0.31184    0.87073    1.000
    C947     C        0.52907    0.19461    0.64788    1.000
    H470     H        0.53469    0.21398    0.66040    1.000
    C948     C        0.51645    0.28776    0.88754    1.000
    H471     H        0.52080    0.26662    0.87770    1.000
    C949     C        0.52197    0.19686    0.61802    1.000
    H472     H        0.52238    0.21838    0.60795    1.000
    C950     C        0.51958    0.29163    0.91795    1.000
    H473     H        0.52612    0.27295    0.93108    1.000
    C951     C        0.53122    0.18015    0.71300    1.000
    C952     C        0.50927    0.29068    0.82064    1.000
    C953     C        0.55267    0.20164    0.71739    1.000
    H474     H        0.57190    0.20230    0.70346    1.000
    C954     C        0.52685    0.29595    0.79598    1.000
    H475     H        0.53666    0.31732    0.79262    1.000
    C955     C        0.54910    0.22272    0.73934    1.000
    H476     H        0.56607    0.23906    0.74227    1.000
    C956     C        0.53152    0.27391    0.77528    1.000
    H477     H        0.54427    0.27911    0.75594    1.000
    C957     C        0.52367    0.22293    0.75692    1.000
    C958     C        0.51907    0.24591    0.77906    1.000
    C959     C        0.50645    0.17943    0.73113    1.000
    C960     C        0.50259    0.20073    0.75281    1.000
    H478     H        0.48224    0.20023    0.76734    1.000
    H479     H        0.48940    0.16138    0.72815    1.000
    H480     H        0.49235    0.21774    0.80793    1.000
    Cu47     Cu       0.51498    0.98964    0.64870    1.000
    Cu48     Cu       0.51699    0.98241    0.70285    1.000
