data_functionalizedCrystal
_audit_creation_method	'EQeq! by Chris Wilmer'
_symmetry_space_group_name_H-M	'P1'
_symmetry_Int_Tables_number	1
_symmetry_cell_setting	triclinic
loop_
_symmetry_equiv_pos_as_xyz
  x,y,z
_cell_length_a	17.6825
_cell_length_b	22.3287
_cell_length_c	28.9229
_cell_angle_alpha	90
_cell_angle_beta	107.429
_cell_angle_gamma	90
loop_
_atom_site_label
_atom_site_type_symbol
_atom_site_fract_x
_atom_site_fract_y
_atom_site_fract_z
_atom_site_charge
Mof_Zn	Zn	0.94857	0.60735	0.15501	1.245
Mof_Zn	Zn	0.84824	0.39724	0.24699	1.262
Mof_Zn	Zn	0.84924	0.54366	0.22122	1.185
Mof_Zn	Zn	0.9457	0.45673	0.17762	1.33
Mof_Zn	Zn	0.44857	0.89265	0.65501	1.255
Mof_Zn	Zn	0.34824	0.10276	0.74699	1.273
Mof_Zn	Zn	0.34924	0.95634	0.72122	1.184
Mof_Zn	Zn	0.4457	0.04327	0.67762	1.37
Mof_B 	B 	0.8229	0.7521	0.0234	-1.189
Mof_B 	B 	0.8733	0.7233	0.9842	1.521
Mof_B 	B 	0.8326	0.6539	0.963	0.913
Mof_B 	B 	0.7553	0.6399	0.9874	-0.758
Mof_B 	B 	0.7477	0.6999	0.0248	1.162
Mof_B 	B 	0.6814	0.6933	0.9669	0.129
Mof_B 	B 	0.7329	0.6643	0.9279	0.643
Mof_B 	B 	0.8082	0.7166	0.9265	-1.339
Mof_B 	B 	0.8023	0.7791	0.9635	1.068
Mof_B 	B 	0.7224	0.7657	0.9884	-0.026
Mof_B 	B 	0.6968	0.8149	0.8498	1.5
Mof_B 	B 	0.6547	0.7455	0.8294	-0.907
Mof_B 	B 	0.5758	0.7324	0.8553	-0.051
Mof_B 	B 	0.5692	0.795	0.8913	-0.113
Mof_B 	B 	0.645	0.8465	0.8887	-0.229
Mof_B 	B 	0.6248	0.8696	0.8281	-0.24
Mof_B 	B 	0.5464	0.858	0.853	0.71
Mof_B 	B 	0.504	0.7885	0.8334	0.451
Mof_B 	B 	0.5571	0.7573	0.7949	1.361
Mof_B 	B 	0.6303	0.8076	0.7924	0.185
Mof_B 	B 	0.7505	0.3569	0.0478	-34.447
Mof_B 	B 	0.7905	0.2868	0.0728	52.981
Mof_B 	B 	0.7335	0.2592	0.1081	4.062
Mof_B 	B 	0.6593	0.3117	0.106	89.744
Mof_B 	B 	0.6686	0.3715	0.0694	26.072
Mof_B 	B 	0.5964	0.3166	0.0469	-64.239
Mof_B 	B 	0.636	0.2469	0.0714	34.304
Mof_B 	B 	0.7186	0.2312	0.0505	-139.829
Mof_B 	B 	0.7272	0.2906	0.0128	101.876
Mof_B 	B 	0.6516	0.3435	0.01	-21.057
Mof_B 	B 	0.5838	0.2567	0.9138	1.978
Mof_B 	B 	0.62	0.1862	0.9393	1.934
Mof_B 	B 	0.5624	0.1624	0.976	3.203
Mof_B 	B 	0.4882	0.2142	0.9731	2.196
Mof_B 	B 	0.501	0.2743	0.934	2.759
Mof_B 	B 	0.4263	0.2176	0.9138	-0.056
Mof_B 	B 	0.4647	0.1517	0.9395	-2
Mof_B 	B 	0.5456	0.1319	0.9178	-1.856
Mof_B 	B 	0.5585	0.1899	0.8793	0.481
Mof_B 	B 	0.4848	0.244	0.8763	-2.752
Mof_B 	B 	0.243	0.5298	0.2462	-0.142
Mof_B 	B 	0.2206	0.4612	0.2144	0.95
Mof_B 	B 	0.201	0.4772	0.1522	-0.017
Mof_B 	B 	0.2109	0.5552	0.1457	0.486
Mof_B 	B 	0.2376	0.5882	0.204	0.427
Mof_B 	B 	0.2938	0.4475	0.1856	0.015
Mof_B 	B 	0.3206	0.4816	0.2451	0.016
Mof_B 	B 	0.3295	0.5579	0.2388	0.625
Mof_B 	B 	0.3095	0.5754	0.1749	-0.116
Mof_B 	B 	0.2879	0.5067	0.1426	0.458
Mof_B 	B 	0.4865	0.4335	0.2288	-0.868
Mof_B 	B 	0.5126	0.5012	0.2613	0.25
Mof_B 	B 	0.5066	0.5592	0.2184	-0.814
Mof_B 	B 	0.4798	0.5275	0.1595	-0.219
Mof_B 	B 	0.4674	0.4496	0.166	0.244
Mof_B 	B 	0.5858	0.4521	0.2585	0.631
Mof_B 	B 	0.5591	0.42	0.2001	0.878
Mof_B 	B 	0.5557	0.4774	0.1584	0.566
Mof_B 	B 	0.5796	0.5447	0.1898	1.47
Mof_B 	B 	0.5989	0.5281	0.2528	1.256
Mof_B 	B 	0.3229	0.7479	0.5234	-1.151
Mof_B 	B 	0.3733	0.7767	0.4842	1.693
Mof_B 	B 	0.3326	0.8461	0.463	0.614
Mof_B 	B 	0.2553	0.8601	0.4874	-0.516
Mof_B 	B 	0.2477	0.8001	0.5248	1.06
Mof_B 	B 	0.1814	0.8067	0.4669	0.039
Mof_B 	B 	0.2329	0.8357	0.4279	0.639
Mof_B 	B 	0.3082	0.7834	0.4265	-1.148
Mof_B 	B 	0.3023	0.7209	0.4635	0.836
Mof_B 	B 	0.2224	0.7343	0.4884	0.096
Mof_B 	B 	0.1968	0.6851	0.3498	1.753
Mof_B 	B 	0.1547	0.7545	0.3294	-0.984
Mof_B 	B 	0.0758	0.7676	0.3553	-0.105
Mof_B 	B 	0.0692	0.705	0.3913	-0.121
Mof_B 	B 	0.145	0.6535	0.3887	-0.321
Mof_B 	B 	0.1248	0.6304	0.3281	-0.302
Mof_B 	B 	0.0464	0.642	0.353	0.734
Mof_B 	B 	0.004	0.7115	0.3334	0.537
Mof_B 	B 	0.0571	0.7427	0.2949	1.489
Mof_B 	B 	0.1303	0.6924	0.2924	0.013
Mof_B 	B 	0.2505	0.1431	0.5478	-41.448
Mof_B 	B 	0.2905	0.2132	0.5728	63.381
Mof_B 	B 	0.2335	0.2408	0.6081	5.048
Mof_B 	B 	0.1593	0.1883	0.606	108.862
Mof_B 	B 	0.1686	0.1285	0.5694	31.17
Mof_B 	B 	0.0964	0.1834	0.5469	-77.398
Mof_B 	B 	0.136	0.2531	0.5714	40.911
Mof_B 	B 	0.2186	0.2688	0.5505	-168.674
Mof_B 	B 	0.2272	0.2094	0.5128	123.466
Mof_B 	B 	0.1516	0.1565	0.51	-25.718
Mof_B 	B 	0.0838	0.2433	0.4138	2.452
Mof_B 	B 	0.12	0.3138	0.4393	2.195
Mof_B 	B 	0.0624	0.3376	0.476	3.67
Mof_B 	B 	0.9882	0.2858	0.4731	2.616
Mof_B 	B 	0.001	0.2257	0.434	3.251
Mof_B 	B 	0.9263	0.2824	0.4138	-0.035
Mof_B 	B 	0.9647	0.3483	0.4395	-2.56
Mof_B 	B 	0.0456	0.3681	0.4178	-2.126
Mof_B 	B 	0.0585	0.3101	0.3793	0.496
Mof_B 	B 	0.9848	0.256	0.3763	-3.471
Mof_B 	B 	0.743	0.9702	0.7462	-0.064
Mof_B 	B 	0.7206	0.0388	0.7144	1.005
Mof_B 	B 	0.701	0.0228	0.6522	-0.125
Mof_B 	B 	0.7109	0.9448	0.6457	0.633
Mof_B 	B 	0.7376	0.9118	0.704	0.264
Mof_B 	B 	0.7938	0.0525	0.6856	0.165
Mof_B 	B 	0.8206	0.0184	0.7451	-0.173
Mof_B 	B 	0.8295	0.9421	0.7388	0.766
Mof_B 	B 	0.8095	0.9246	0.6749	-0.099
Mof_B 	B 	0.7879	0.9933	0.6426	0.396
Mof_B 	B 	0.9865	0.0665	0.7288	-1.018
Mof_B 	B 	0.0126	0.9988	0.7613	0.262
Mof_B 	B 	0.0066	0.9408	0.7184	-1.098
Mof_B 	B 	0.9798	0.9725	0.6595	-0.161
Mof_B 	B 	0.9674	0.0504	0.666	0.253
Mof_B 	B 	0.0858	0.0479	0.7585	0.582
Mof_B 	B 	0.0591	0.08	0.7001	1.062
Mof_B 	B 	0.0557	0.0226	0.6584	0.417
Mof_B 	B 	0.0796	0.9553	0.6898	1.698
Mof_B 	B 	0.0989	0.9719	0.7528	1.356
Mof_H 	H 	0.839	0.774	0.051	0.448
Mof_H 	H 	0.924	0.738	0.991	-0.461
Mof_H 	H 	0.863	0.617	0.959	-0.184
Mof_H 	H 	0.746	0.606	0.002	0.455
Mof_H 	H 	0.728	0.703	0.063	-0.287
Mof_H 	H 	0.6189	0.6817	0.9649	-0.491
Mof_H 	H 	0.824	0.722	0.896	0.484
Mof_H 	H 	0.819	0.82	0.952	-0.346
Mof_H 	H 	0.6825	0.801	0.9995	-0.084
Mof_H 	H 	0.7489	0.828	0.8599	-0.612
Mof_H 	H 	0.684	0.71	0.822	0.263
Mof_H 	H 	0.567	0.67	0.862	-0.123
Mof_H 	H 	0.652	0.878	0.913	-0.004
Mof_H 	H 	0.627	0.901	0.821	0.054
Mof_H 	H 	0.505	0.896	0.859	-0.223
Mof_H 	H 	0.4453	0.788	0.8313	-0.495
Mof_H 	H 	0.544	0.739	0.765	-0.555
Mof_H 	H 	0.64	0.81	0.764	-0.09
Mof_H 	H 	0.8484	0.2785	0.0824	-17.33
Mof_H 	H 	0.7572	0.244	0.1322	-1.914
Mof_H 	H 	0.6487	0.319	0.1277	-48.229
Mof_H 	H 	0.655	0.421	0.076	-5.623
Mof_H 	H 	0.5342	0.324	0.0382	20.025
Mof_H 	H 	0.5965	0.21	0.0735	-10.033
Mof_H 	H 	0.7227	0.193	0.0427	57.894
Mof_H 	H 	0.7476	0.282	0.9906	-44.529
Mof_H 	H 	0.6269	0.362	0.9779	7.544
Mof_H 	H 	0.6121	0.294	0.9061	-1.041
Mof_H 	H 	0.6718	0.176	0.9518	-1.172
Mof_H 	H 	0.584	0.15	0.008	-1.291
Mof_H 	H 	0.476	0.217	0.002	-0.733
Mof_H 	H 	0.4868	0.315	0.9458	-0.652
Mof_H 	H 	0.346	0.228	0.909	-0.03
Mof_H 	H 	0.429	0.123	0.944	0.721
Mof_H 	H 	0.5539	0.086	0.9099	0.476
Mof_H 	H 	0.5705	0.184	0.8475	-0.143
Mof_H 	H 	0.462	0.268	0.848	0.979
Mof_H 	H 	0.231	0.544	0.271	-0.002
Mof_H 	H 	0.19	0.432	0.227	-0.346
Mof_H 	H 	0.1617	0.452	0.1287	0.056
Mof_H 	H 	0.179	0.58	0.113	0.062
Mof_H 	H 	0.2202	0.632	0.2082	-0.122
Mof_H 	H 	0.3125	0.402	0.1795	-0.071
Mof_H 	H 	0.3528	0.459	0.2708	-0.047
Mof_H 	H 	0.369	0.587	0.259	-0.214
Mof_H 	H 	0.3448	0.6	0.1608	0.046
Mof_H 	H 	0.3131	0.4946	0.1101	-0.016
Mof_H 	H 	0.4572	0.409	0.2382	0.318
Mof_H 	H 	0.4937	0.51	0.2897	-0.101
Mof_H 	H 	0.4871	0.604	0.2241	0.244
Mof_H 	H 	0.4475	0.551	0.1305	0.087
Mof_H 	H 	0.4156	0.441	0.1406	-0.124
Mof_H 	H 	0.614	0.434	0.286	-0.292
Mof_H 	H 	0.5827	0.375	0.1937	0.217
Mof_H 	H 	0.562	0.467	0.129	-0.126
Mof_H 	H 	0.5987	0.567	0.1727	-0.66
Mof_H 	H 	0.639	0.54	0.27	-0.657
Mof_H 	H 	0.339	0.726	0.551	0.438
Mof_H 	H 	0.424	0.762	0.491	-0.5
Mof_H 	H 	0.363	0.883	0.459	-0.056
Mof_H 	H 	0.246	0.894	0.502	0.412
Mof_H 	H 	0.228	0.797	0.563	-0.26
Mof_H 	H 	0.1189	0.8183	0.4649	-0.543
Mof_H 	H 	0.324	0.778	0.396	0.438
Mof_H 	H 	0.319	0.68	0.452	-0.264
Mof_H 	H 	0.1825	0.699	0.4995	-0.121
Mof_H 	H 	0.2489	0.672	0.3599	-0.704
Mof_H 	H 	0.184	0.79	0.322	0.293
Mof_H 	H 	0.067	0.83	0.362	-0.122
Mof_H 	H 	0.152	0.622	0.413	0.031
Mof_H 	H 	0.127	0.599	0.321	0.092
Mof_H 	H 	0.005	0.604	0.359	-0.22
Mof_H 	H 	0.9453	0.712	0.3313	-0.584
Mof_H 	H 	0.044	0.761	0.265	-0.598
Mof_H 	H 	0.14	0.69	0.264	-0.017
Mof_H 	H 	0.3484	0.2215	0.5824	-20.694
Mof_H 	H 	0.2572	0.256	0.6322	-2.358
Mof_H 	H 	0.1487	0.181	0.6277	-58.483
Mof_H 	H 	0.155	0.079	0.576	-6.696
Mof_H 	H 	0.0342	0.176	0.5382	24.144
Mof_H 	H 	0.0965	0.29	0.5735	-11.947
Mof_H 	H 	0.2227	0.307	0.5427	69.866
Mof_H 	H 	0.2476	0.218	0.4906	-53.99
Mof_H 	H 	0.1269	0.138	0.4779	9.203
Mof_H 	H 	0.1121	0.206	0.4061	-1.272
Mof_H 	H 	0.1718	0.324	0.4518	-1.362
Mof_H 	H 	0.084	0.35	0.508	-1.446
Mof_H 	H 	0.976	0.283	0.502	-0.843
Mof_H 	H 	0.9868	0.185	0.4458	-0.754
Mof_H 	H 	0.846	0.272	0.409	-0.039
Mof_H 	H 	0.929	0.377	0.444	0.928
Mof_H 	H 	0.0539	0.414	0.4099	0.542
Mof_H 	H 	0.0705	0.316	0.3475	-0.142
Mof_H 	H 	0.962	0.232	0.348	1.234
Mof_H 	H 	0.731	0.956	0.771	-0.041
Mof_H 	H 	0.69	0.068	0.727	-0.359
Mof_H 	H 	0.6617	0.048	0.6287	0.117
Mof_H 	H 	0.679	0.92	0.613	0.062
Mof_H 	H 	0.7202	0.868	0.7082	-0.062
Mof_H 	H 	0.8125	0.098	0.6795	-0.114
Mof_H 	H 	0.8528	0.041	0.7708	0.028
Mof_H 	H 	0.869	0.913	0.759	-0.269
Mof_H 	H 	0.8448	0.9	0.6608	0.049
Mof_H 	H 	0.8131	0.0054	0.6101	0.033
Mof_H 	H 	0.9572	0.091	0.7382	0.387
Mof_H 	H 	0.9937	0.99	0.7897	-0.106
Mof_H 	H 	0.9871	0.896	0.7241	0.327
Mof_H 	H 	0.9475	0.949	0.6305	0.081
Mof_H 	H 	0.9156	0.059	0.6406	-0.123
Mof_H 	H 	0.114	0.066	0.786	-0.27
Mof_H 	H 	0.0827	0.125	0.6937	0.274
Mof_H 	H 	0.062	0.033	0.629	-0.034
Mof_H 	H 	0.0987	0.933	0.6727	-0.754
Mof_H 	H 	0.139	0.96	0.77	-0.725
Mof_C 	C 	0.8951	0.6443	0.0619	0.504
Mof_C 	C 	0.83741	0.6776	0.01941	-0.605
Mof_C 	C 	0.71922	0.7405	0.93082	-0.292
Mof_C 	C 	0.65976	0.7715	0.88676	-0.271
Mof_C 	C 	0.5427	0.8317	0.7969	-0.908
Mof_C 	C 	0.8041	0.3676	0.1479	11.713
Mof_C 	C 	0.74873	0.3341	0.10413	-32.094
Mof_C 	C 	0.63755	0.2683	0.01475	17.385
Mof_C 	C 	0.58122	0.2364	0.97072	-6.923
Mof_C 	C 	0.4666	0.1699	0.8821	1.195
Mof_C 	C 	0.4111	0.1348	0.8399	-0.107
Mof_C 	C 	0.0881	0.5351	0.1849	0.57
Mof_C 	C 	0.17686	0.5258	0.19016	-0.665
Mof_C 	C 	0.35579	0.5095	0.19979	-0.471
Mof_C 	C 	0.44415	0.4999	0.20455	0.164
Mof_C 	C 	0.62107	0.4788	0.21427	-1.37
Mof_C 	C 	0.4869	0.8626	0.7531	0.613
Mof_C 	C 	0.7091	0.4673	0.219	0.779
Mof_C 	C 	0.3951	0.8557	0.5619	0.511
Mof_C 	C 	0.33741	0.8224	0.51941	-0.59
Mof_C 	C 	0.21922	0.7595	0.43082	-0.293
Mof_C 	C 	0.15976	0.7285	0.38676	-0.282
Mof_C 	C 	0.0427	0.6683	0.2969	-0.899
Mof_C 	C 	0.3041	0.1324	0.6479	14.048
Mof_C 	C 	0.24873	0.1659	0.60413	-38.657
Mof_C 	C 	0.13755	0.2317	0.51475	21.029
Mof_C 	C 	0.08122	0.2636	0.47072	-8.264
Mof_C 	C 	0.9666	0.3301	0.3821	1.545
Mof_C 	C 	0.9111	0.3652	0.3399	-0.219
Mof_C 	C 	0.5881	0.9649	0.6849	0.561
Mof_C 	C 	0.67686	0.9742	0.69016	-0.669
Mof_C 	C 	0.85579	0.9905	0.69979	-0.524
Mof_C 	C 	0.94415	0.0001	0.70455	0.276
Mof_C 	C 	0.12107	0.0212	0.71427	-1.427
Mof_C 	C 	0.9869	0.6374	0.2531	0.599
Mof_C 	C 	0.2091	0.0327	0.719	0.82
Mof_O 	O 	0.8864	0.5369	0.15907	-0.358
Mof_O 	O 	0.91187	0.46528	0.23975	-0.697
Mof_O 	O 	0.89369	0.66282	0.10359	-0.423
Mof_O 	O 	0.93504	0.60454	0.05304	-0.08
Mof_O 	O 	0.83665	0.41226	0.13915	-2.587
Mof_O 	O 	0.80758	0.34576	0.18848	-3.602
Mof_O 	O 	0.40605	0.15623	0.79845	-0.237
Mof_O 	O 	0.37682	0.0914	0.84832	-0.189
Mof_O 	O 	0.05764	0.49746	0.20554	-0.47
Mof_O 	O 	0.05656	0.57856	0.15996	-0.422
Mof_O 	O 	0.48274	0.84041	0.71284	-0.526
Mof_O 	O 	0.45264	0.90886	0.76114	-0.584
Mof_O 	O 	0.73881	0.50095	0.19381	-0.518
Mof_O 	O 	0.74137	0.42556	0.24567	-0.506
Mof_O 	O 	0.3864	0.9631	0.65907	-0.289
Mof_O 	O 	0.41187	0.03472	0.73975	-0.685
Mof_O 	O 	0.39369	0.83718	0.60359	-0.402
Mof_O 	O 	0.43504	0.89546	0.55304	-0.003
Mof_O 	O 	0.33665	0.08774	0.63915	-3.005
Mof_O 	O 	0.30758	0.15424	0.68848	-4.237
Mof_O 	O 	0.90605	0.34377	0.29845	-0.228
Mof_O 	O 	0.87682	0.4086	0.34832	-0.166
Mof_O 	O 	0.55764	0.00254	0.70554	-0.452
Mof_O 	O 	0.55656	0.92144	0.65996	-0.413
Mof_O 	O 	0.98274	0.65959	0.21284	-0.535
Mof_O 	O 	0.95264	0.59114	0.26114	-0.583
Mof_O 	O 	0.23881	0.99905	0.69381	-0.523
Mof_O 	O 	0.24137	0.07444	0.74567	-0.494
Mof_Zn	Zn	0.55143	0.10735	0.34499	1.254
Mof_Zn	Zn	0.65176	0.89724	0.25301	1.272
Mof_Zn	Zn	0.65076	0.04366	0.27878	1.183
Mof_Zn	Zn	0.5543	0.95673	0.32238	1.369
Mof_Zn	Zn	0.05143	0.39265	0.84499	1.244
Mof_Zn	Zn	0.15176	0.60276	0.75301	1.261
Mof_Zn	Zn	0.15076	0.45634	0.77878	1.184
Mof_Zn	Zn	0.0543	0.54327	0.82238	1.329
Mof_B 	B 	0.6771	0.2521	0.4766	-1.151
Mof_B 	B 	0.6267	0.2233	0.5158	1.693
Mof_B 	B 	0.6674	0.1539	0.537	0.614
Mof_B 	B 	0.7447	0.1399	0.5126	-0.516
Mof_B 	B 	0.7523	0.1999	0.4752	1.06
Mof_B 	B 	0.8186	0.1933	0.5331	0.039
Mof_B 	B 	0.7671	0.1643	0.5721	0.639
Mof_B 	B 	0.6918	0.2166	0.5735	-1.148
Mof_B 	B 	0.6977	0.2791	0.5365	0.836
Mof_B 	B 	0.7776	0.2657	0.5116	0.096
Mof_B 	B 	0.8032	0.3149	0.6502	1.753
Mof_B 	B 	0.8453	0.2455	0.6706	-0.984
Mof_B 	B 	0.9242	0.2324	0.6447	-0.105
Mof_B 	B 	0.9308	0.295	0.6087	-0.121
Mof_B 	B 	0.855	0.3465	0.6113	-0.321
Mof_B 	B 	0.8752	0.3696	0.6719	-0.302
Mof_B 	B 	0.9536	0.358	0.647	0.734
Mof_B 	B 	0.996	0.2885	0.6666	0.537
Mof_B 	B 	0.9429	0.2573	0.7051	1.489
Mof_B 	B 	0.8697	0.3076	0.7076	0.013
Mof_B 	B 	0.7495	0.8569	0.4522	-41.448
Mof_B 	B 	0.7095	0.7868	0.4272	63.381
Mof_B 	B 	0.7665	0.7592	0.3919	5.048
Mof_B 	B 	0.8407	0.8117	0.394	108.862
Mof_B 	B 	0.8314	0.8715	0.4306	31.17
Mof_B 	B 	0.9036	0.8166	0.4531	-77.398
Mof_B 	B 	0.864	0.7469	0.4286	40.911
Mof_B 	B 	0.7814	0.7312	0.4495	-168.674
Mof_B 	B 	0.7728	0.7906	0.4872	123.466
Mof_B 	B 	0.8484	0.8435	0.49	-25.718
Mof_B 	B 	0.9162	0.7567	0.5862	2.452
Mof_B 	B 	0.88	0.6862	0.5607	2.195
Mof_B 	B 	0.9376	0.6624	0.524	3.67
Mof_B 	B 	0.0118	0.7142	0.5269	2.616
Mof_B 	B 	0.999	0.7743	0.566	3.251
Mof_B 	B 	0.0737	0.7176	0.5862	-0.035
Mof_B 	B 	0.0353	0.6517	0.5605	-2.56
Mof_B 	B 	0.9544	0.6319	0.5822	-2.126
Mof_B 	B 	0.9415	0.6899	0.6207	0.496
Mof_B 	B 	0.0152	0.744	0.6237	-3.471
Mof_B 	B 	0.257	0.0298	0.2538	-0.064
Mof_B 	B 	0.2794	0.9612	0.2856	1.005
Mof_B 	B 	0.299	0.9772	0.3478	-0.125
Mof_B 	B 	0.2891	0.0552	0.3543	0.633
Mof_B 	B 	0.2624	0.0882	0.296	0.264
Mof_B 	B 	0.2062	0.9475	0.3144	0.165
Mof_B 	B 	0.1794	0.9816	0.2549	-0.173
Mof_B 	B 	0.1705	0.0579	0.2612	0.766
Mof_B 	B 	0.1905	0.0754	0.3251	-0.099
Mof_B 	B 	0.2121	0.0067	0.3574	0.396
Mof_B 	B 	0.0135	0.9335	0.2712	-1.018
Mof_B 	B 	0.9874	0.0012	0.2387	0.262
Mof_B 	B 	0.9934	0.0592	0.2816	-1.098
Mof_B 	B 	0.0202	0.0275	0.3405	-0.161
Mof_B 	B 	0.0326	0.9496	0.334	0.253
Mof_B 	B 	0.9142	0.9521	0.2415	0.582
Mof_B 	B 	0.9409	0.92	0.2999	1.062
Mof_B 	B 	0.9443	0.9774	0.3416	0.417
Mof_B 	B 	0.9204	0.0447	0.3102	1.698
Mof_B 	B 	0.9011	0.0281	0.2472	1.356
Mof_B 	B 	0.1771	0.2479	0.9766	-1.189
Mof_B 	B 	0.1267	0.2767	0.0158	1.521
Mof_B 	B 	0.1674	0.3461	0.037	0.913
Mof_B 	B 	0.2447	0.3601	0.0126	-0.758
Mof_B 	B 	0.2523	0.3001	0.9752	1.162
Mof_B 	B 	0.3186	0.3067	0.0331	0.129
Mof_B 	B 	0.2671	0.3357	0.0721	0.643
Mof_B 	B 	0.1918	0.2834	0.0735	-1.339
Mof_B 	B 	0.1977	0.2209	0.0365	1.068
Mof_B 	B 	0.2776	0.2343	0.0116	-0.026
Mof_B 	B 	0.3032	0.1851	0.1502	1.5
Mof_B 	B 	0.3453	0.2545	0.1706	-0.907
Mof_B 	B 	0.4242	0.2676	0.1447	-0.051
Mof_B 	B 	0.4308	0.205	0.1087	-0.113
Mof_B 	B 	0.355	0.1535	0.1113	-0.229
Mof_B 	B 	0.3752	0.1304	0.1719	-0.24
Mof_B 	B 	0.4536	0.142	0.147	0.71
Mof_B 	B 	0.496	0.2115	0.1666	0.451
Mof_B 	B 	0.4429	0.2427	0.2051	1.361
Mof_B 	B 	0.3697	0.1924	0.2076	0.185
Mof_B 	B 	0.2495	0.6431	0.9522	-34.447
Mof_B 	B 	0.2095	0.7132	0.9272	52.981
Mof_B 	B 	0.2665	0.7408	0.8919	4.062
Mof_B 	B 	0.3407	0.6883	0.894	89.744
Mof_B 	B 	0.3314	0.6285	0.9306	26.072
Mof_B 	B 	0.4036	0.6834	0.9531	-64.239
Mof_B 	B 	0.364	0.7531	0.9286	34.304
Mof_B 	B 	0.2814	0.7688	0.9495	-139.829
Mof_B 	B 	0.2728	0.7094	0.9872	101.876
Mof_B 	B 	0.3484	0.6565	0.99	-21.057
Mof_B 	B 	0.4162	0.7433	0.0862	1.978
Mof_B 	B 	0.38	0.8138	0.0607	1.934
Mof_B 	B 	0.4376	0.8376	0.024	3.203
Mof_B 	B 	0.5118	0.7858	0.0269	2.196
Mof_B 	B 	0.499	0.7257	0.066	2.759
Mof_B 	B 	0.5737	0.7824	0.0862	-0.056
Mof_B 	B 	0.5353	0.8483	0.0605	-2
Mof_B 	B 	0.4544	0.8681	0.0822	-1.856
Mof_B 	B 	0.4415	0.8101	0.1207	0.481
Mof_B 	B 	0.5152	0.756	0.1237	-2.752
Mof_B 	B 	0.757	0.4702	0.7538	-0.142
Mof_B 	B 	0.7794	0.5388	0.7856	0.95
Mof_B 	B 	0.799	0.5228	0.8478	-0.017
Mof_B 	B 	0.7891	0.4448	0.8543	0.486
Mof_B 	B 	0.7624	0.4118	0.796	0.427
Mof_B 	B 	0.7062	0.5525	0.8144	0.015
Mof_B 	B 	0.6794	0.5184	0.7549	0.016
Mof_B 	B 	0.6705	0.4421	0.7612	0.625
Mof_B 	B 	0.6905	0.4246	0.8251	-0.116
Mof_B 	B 	0.7121	0.4933	0.8574	0.458
Mof_B 	B 	0.5135	0.5665	0.7712	-0.868
Mof_B 	B 	0.4874	0.4988	0.7387	0.25
Mof_B 	B 	0.4934	0.4408	0.7816	-0.814
Mof_B 	B 	0.5202	0.4725	0.8405	-0.219
Mof_B 	B 	0.5326	0.5504	0.834	0.244
Mof_B 	B 	0.4142	0.5479	0.7415	0.631
Mof_B 	B 	0.4409	0.58	0.7999	0.878
Mof_B 	B 	0.4443	0.5226	0.8416	0.566
Mof_B 	B 	0.4204	0.4553	0.8102	1.47
Mof_B 	B 	0.4011	0.4719	0.7472	1.256
Mof_H 	H 	0.661	0.274	0.449	0.438
Mof_H 	H 	0.576	0.238	0.509	-0.5
Mof_H 	H 	0.637	0.117	0.541	-0.056
Mof_H 	H 	0.754	0.106	0.498	0.412
Mof_H 	H 	0.772	0.203	0.437	-0.26
Mof_H 	H 	0.8811	0.1817	0.5351	-0.543
Mof_H 	H 	0.676	0.222	0.604	0.438
Mof_H 	H 	0.681	0.32	0.548	-0.264
Mof_H 	H 	0.8175	0.301	0.5005	-0.121
Mof_H 	H 	0.7511	0.328	0.6401	-0.704
Mof_H 	H 	0.816	0.21	0.678	0.293
Mof_H 	H 	0.933	0.17	0.638	-0.122
Mof_H 	H 	0.848	0.378	0.587	0.031
Mof_H 	H 	0.873	0.401	0.679	0.092
Mof_H 	H 	0.995	0.396	0.641	-0.22
Mof_H 	H 	0.0547	0.288	0.6687	-0.584
Mof_H 	H 	0.956	0.239	0.735	-0.598
Mof_H 	H 	0.86	0.31	0.736	-0.017
Mof_H 	H 	0.6516	0.7785	0.4176	-20.694
Mof_H 	H 	0.7428	0.744	0.3678	-2.358
Mof_H 	H 	0.8513	0.819	0.3723	-58.483
Mof_H 	H 	0.845	0.921	0.424	-6.696
Mof_H 	H 	0.9658	0.824	0.4618	24.144
Mof_H 	H 	0.9035	0.71	0.4265	-11.947
Mof_H 	H 	0.7773	0.693	0.4573	69.866
Mof_H 	H 	0.7524	0.782	0.5094	-53.99
Mof_H 	H 	0.8731	0.862	0.5221	9.203
Mof_H 	H 	0.8879	0.794	0.5939	-1.272
Mof_H 	H 	0.8282	0.676	0.5482	-1.362
Mof_H 	H 	0.916	0.65	0.492	-1.446
Mof_H 	H 	0.024	0.717	0.498	-0.843
Mof_H 	H 	0.0132	0.815	0.5542	-0.754
Mof_H 	H 	0.154	0.728	0.591	-0.039
Mof_H 	H 	0.071	0.623	0.556	0.928
Mof_H 	H 	0.9461	0.586	0.5901	0.542
Mof_H 	H 	0.9295	0.684	0.6525	-0.142
Mof_H 	H 	0.038	0.768	0.652	1.234
Mof_H 	H 	0.269	0.044	0.229	-0.041
Mof_H 	H 	0.31	0.932	0.273	-0.359
Mof_H 	H 	0.3383	0.952	0.3713	0.117
Mof_H 	H 	0.321	0.08	0.387	0.062
Mof_H 	H 	0.2798	0.132	0.2918	-0.062
Mof_H 	H 	0.1875	0.902	0.3205	-0.114
Mof_H 	H 	0.1472	0.959	0.2292	0.028
Mof_H 	H 	0.131	0.087	0.241	-0.269
Mof_H 	H 	0.1552	0.1	0.3392	0.049
Mof_H 	H 	0.1869	0.9946	0.3899	0.033
Mof_H 	H 	0.0428	0.909	0.2618	0.387
Mof_H 	H 	0.0063	0.01	0.2103	-0.106
Mof_H 	H 	0.0129	0.104	0.2759	0.327
Mof_H 	H 	0.0525	0.051	0.3695	0.081
Mof_H 	H 	0.0844	0.941	0.3594	-0.123
Mof_H 	H 	0.886	0.934	0.214	-0.27
Mof_H 	H 	0.9173	0.875	0.3063	0.274
Mof_H 	H 	0.938	0.967	0.371	-0.034
Mof_H 	H 	0.9013	0.067	0.3273	-0.754
Mof_H 	H 	0.861	0.04	0.23	-0.725
Mof_H 	H 	0.161	0.226	0.949	0.448
Mof_H 	H 	0.076	0.262	0.009	-0.461
Mof_H 	H 	0.137	0.383	0.041	-0.184
Mof_H 	H 	0.254	0.394	0.998	0.455
Mof_H 	H 	0.272	0.297	0.937	-0.287
Mof_H 	H 	0.3811	0.3183	0.0351	-0.491
Mof_H 	H 	0.176	0.278	0.104	0.484
Mof_H 	H 	0.181	0.18	0.048	-0.346
Mof_H 	H 	0.3175	0.199	0.0005	-0.084
Mof_H 	H 	0.2511	0.172	0.1401	-0.612
Mof_H 	H 	0.316	0.29	0.178	0.263
Mof_H 	H 	0.433	0.33	0.138	-0.123
Mof_H 	H 	0.348	0.122	0.087	-0.004
Mof_H 	H 	0.373	0.099	0.179	0.054
Mof_H 	H 	0.495	0.104	0.141	-0.223
Mof_H 	H 	0.5547	0.212	0.1687	-0.495
Mof_H 	H 	0.456	0.261	0.235	-0.555
Mof_H 	H 	0.36	0.19	0.236	-0.09
Mof_H 	H 	0.1516	0.7215	0.9176	-17.33
Mof_H 	H 	0.2428	0.756	0.8678	-1.914
Mof_H 	H 	0.3513	0.681	0.8723	-48.229
Mof_H 	H 	0.345	0.579	0.924	-5.623
Mof_H 	H 	0.4658	0.676	0.9618	20.025
Mof_H 	H 	0.4035	0.79	0.9265	-10.033
Mof_H 	H 	0.2773	0.807	0.9573	57.894
Mof_H 	H 	0.2524	0.718	0.0094	-44.529
Mof_H 	H 	0.3731	0.638	0.0221	7.544
Mof_H 	H 	0.3879	0.706	0.0939	-1.041
Mof_H 	H 	0.3282	0.824	0.0482	-1.172
Mof_H 	H 	0.416	0.85	0.992	-1.291
Mof_H 	H 	0.524	0.783	0.998	-0.733
Mof_H 	H 	0.5132	0.685	0.0542	-0.652
Mof_H 	H 	0.654	0.772	0.091	-0.03
Mof_H 	H 	0.571	0.877	0.056	0.721
Mof_H 	H 	0.4461	0.914	0.0901	0.476
Mof_H 	H 	0.4295	0.816	0.1525	-0.143
Mof_H 	H 	0.538	0.732	0.152	0.979
Mof_H 	H 	0.769	0.456	0.729	-0.002
Mof_H 	H 	0.81	0.568	0.773	-0.346
Mof_H 	H 	0.8383	0.548	0.8713	0.056
Mof_H 	H 	0.821	0.42	0.887	0.062
Mof_H 	H 	0.7798	0.368	0.7918	-0.122
Mof_H 	H 	0.6875	0.598	0.8205	-0.071
Mof_H 	H 	0.6472	0.541	0.7292	-0.047
Mof_H 	H 	0.631	0.413	0.741	-0.214
Mof_H 	H 	0.6552	0.4	0.8392	0.046
Mof_H 	H 	0.6869	0.5054	0.8899	-0.016
Mof_H 	H 	0.5428	0.591	0.7618	0.318
Mof_H 	H 	0.5063	0.49	0.7103	-0.101
Mof_H 	H 	0.5129	0.396	0.7759	0.244
Mof_H 	H 	0.5525	0.449	0.8695	0.087
Mof_H 	H 	0.5844	0.559	0.8594	-0.124
Mof_H 	H 	0.386	0.566	0.714	-0.292
Mof_H 	H 	0.4173	0.625	0.8063	0.217
Mof_H 	H 	0.438	0.533	0.871	-0.126
Mof_H 	H 	0.4013	0.433	0.8273	-0.66
Mof_H 	H 	0.361	0.46	0.73	-0.657
Mof_C 	C 	0.6049	0.1443	0.4381	0.511
Mof_C 	C 	0.66259	0.1776	0.48059	-0.59
Mof_C 	C 	0.78078	0.2405	0.56918	-0.293
Mof_C 	C 	0.84024	0.2715	0.61324	-0.282
Mof_C 	C 	0.9573	0.3317	0.7031	-0.899
Mof_C 	C 	0.6959	0.8676	0.3521	14.048
Mof_C 	C 	0.75127	0.8341	0.39587	-38.657
Mof_C 	C 	0.86245	0.7683	0.48525	21.029
Mof_C 	C 	0.91878	0.7364	0.52928	-8.264
Mof_C 	C 	0.0334	0.6699	0.6179	1.545
Mof_C 	C 	0.0889	0.6348	0.6601	-0.219
Mof_C 	C 	0.4119	0.0351	0.3151	0.561
Mof_C 	C 	0.32314	0.0258	0.30984	-0.669
Mof_C 	C 	0.14421	0.0095	0.30021	-0.524
Mof_C 	C 	0.05585	0.9999	0.29545	0.276
Mof_C 	C 	0.87893	0.9788	0.28573	-1.427
Mof_C 	C 	0.0131	0.3626	0.7469	0.599
Mof_C 	C 	0.7909	0.9673	0.281	0.82
Mof_C 	C 	0.1049	0.3557	0.9381	0.504
Mof_C 	C 	0.16259	0.3224	0.98059	-0.605
Mof_C 	C 	0.28078	0.2595	0.06918	-0.292
Mof_C 	C 	0.34024	0.2285	0.11324	-0.271
Mof_C 	C 	0.4573	0.1683	0.2031	-0.908
Mof_C 	C 	0.1959	0.6324	0.8521	11.713
Mof_C 	C 	0.25127	0.6659	0.89587	-32.094
Mof_C 	C 	0.36245	0.7317	0.98525	17.385
Mof_C 	C 	0.41878	0.7636	0.02928	-6.923
Mof_C 	C 	0.5334	0.8301	0.1179	1.195
Mof_C 	C 	0.5889	0.8652	0.1601	-0.107
Mof_C 	C 	0.9119	0.4649	0.8151	0.57
Mof_C 	C 	0.82314	0.4742	0.80984	-0.665
Mof_C 	C 	0.64421	0.4905	0.80021	-0.471
Mof_C 	C 	0.55585	0.5001	0.79545	0.164
Mof_C 	C 	0.37893	0.5212	0.78573	-1.37
Mof_C 	C 	0.5131	0.1374	0.2469	0.613
Mof_C 	C 	0.2909	0.5327	0.781	0.779
Mof_O 	O 	0.6136	0.0369	0.34093	-0.289
Mof_O 	O 	0.58813	0.96528	0.26025	-0.685
Mof_O 	O 	0.60631	0.16282	0.39641	-0.402
Mof_O 	O 	0.56496	0.10454	0.44696	-0.003
Mof_O 	O 	0.66335	0.91226	0.36085	-3.005
Mof_O 	O 	0.69242	0.84576	0.31152	-4.237
Mof_O 	O 	0.09395	0.65623	0.70155	-0.228
Mof_O 	O 	0.12318	0.5914	0.65168	-0.166
Mof_O 	O 	0.44236	0.99746	0.29446	-0.452
Mof_O 	O 	0.44344	0.07856	0.34004	-0.413
Mof_O 	O 	0.01726	0.34041	0.78716	-0.535
Mof_O 	O 	0.04736	0.40886	0.73886	-0.583
Mof_O 	O 	0.76119	0.00095	0.30619	-0.523
Mof_O 	O 	0.75863	0.92556	0.25433	-0.494
Mof_O 	O 	0.1136	0.4631	0.84093	-0.358
Mof_O 	O 	0.08813	0.53472	0.76025	-0.697
Mof_O 	O 	0.10631	0.33718	0.89641	-0.423
Mof_O 	O 	0.06496	0.39546	0.94696	-0.08
Mof_O 	O 	0.16335	0.58774	0.86085	-2.587
Mof_O 	O 	0.19242	0.65424	0.81152	-3.602
Mof_O 	O 	0.59395	0.84377	0.20155	-0.237
Mof_O 	O 	0.62318	0.9086	0.15168	-0.189
Mof_O 	O 	0.94236	0.50254	0.79446	-0.47
Mof_O 	O 	0.94344	0.42144	0.84004	-0.422
Mof_O 	O 	0.51726	0.15959	0.28716	-0.526
Mof_O 	O 	0.54736	0.09114	0.23886	-0.584
Mof_O 	O 	0.26119	0.49905	0.80619	-0.518
Mof_O 	O 	0.25863	0.57444	0.75433	-0.506
_end
