data_functionalizedCrystal
_audit_creation_method	'EQeq! by Chris Wilmer'
_symmetry_space_group_name_H-M	'P1'
_symmetry_Int_Tables_number	1
_symmetry_cell_setting	triclinic
loop_
_symmetry_equiv_pos_as_xyz
  x,y,z
_cell_length_a	7.4147
_cell_length_b	13.6614
_cell_length_c	13.6614
_cell_angle_alpha	120
_cell_angle_beta	90
_cell_angle_gamma	90
loop_
_atom_site_label
_atom_site_type_symbol
_atom_site_fract_x
_atom_site_fract_y
_atom_site_fract_z
_atom_site_charge
Mof_Pr	Pr	0.34005	0.66667	0.33334	2.742
Mof_Pr	Pr	0.65995	0.33333	0.66666	2.734
Mof_Cu	Cu	-0	0	0.5	1.061
Mof_Cu	Cu	-1.05319e-32	0.5	-0	0.98
Mof_Cu	Cu	-1.05319e-32	0.5	0.5	0.943
Mof_H 	H 	0.8598	0.0292	0.6748	0.283
Mof_H 	H 	0.9524	0.8569	0.6552	1.598
Mof_H 	H 	0.7675	0.8174	0.5477	0.101
Mof_H 	H 	0.6393	0.9326	0.7184	0.156
Mof_H 	H 	0.4942	0.8712	0.6233	0.175
Mof_H 	H 	0.5396	0.9987	0.668	0.123
Mof_H 	H 	0.0047	0.0061	0.7931	-2.519
Mof_H 	H 	0.2014	0.9918	0.7458	-2.819
Mof_H 	H 	0.1143	0.8962	0.7618	-2.835
Mof_H 	H 	0.8598	0.6456	0.9708	0.064
Mof_H 	H 	0.9524	0.7983	0.1431	-0.053
Mof_H 	H 	0.7675	0.7303	0.1826	0.004
Mof_H 	H 	0.6393	0.7858	0.0674	0.146
Mof_H 	H 	0.4942	0.7521	0.1288	0.13
Mof_H 	H 	0.5396	0.6693	0.0013	0.206
Mof_H 	H 	0.0047	0.787	0.9939	0.166
Mof_H 	H 	0.2014	0.754	0.0082	0.207
Mof_H 	H 	0.1143	0.8656	0.1038	0.111
Mof_H 	H 	0.8598	0.3252	0.3544	0.073
Mof_H 	H 	0.9524	0.3448	0.2017	0.611
Mof_H 	H 	0.7675	0.4523	0.2697	0.053
Mof_H 	H 	0.6393	0.2816	0.2142	0.267
Mof_H 	H 	0.4942	0.3767	0.2479	0.241
Mof_H 	H 	0.5396	0.332	0.3307	0.225
Mof_H 	H 	0.0047	0.2069	0.213	-0.835
Mof_H 	H 	0.2014	0.2542	0.246	-0.774
Mof_H 	H 	0.1143	0.2382	0.1344	-0.674
Mof_H 	H 	0.1402	0.9708	0.3252	-0.076
Mof_H 	H 	0.0476	0.1431	0.3448	-0.43
Mof_H 	H 	0.2325	0.1826	0.4523	-0.021
Mof_H 	H 	0.3607	0.0674	0.2816	0.327
Mof_H 	H 	0.5058	0.1288	0.3767	0.251
Mof_H 	H 	0.4604	0.0013	0.332	0.338
Mof_H 	H 	0.9953	0.9939	0.2069	0.868
Mof_H 	H 	0.7986	0.0082	0.2542	1.105
Mof_H 	H 	0.8857	0.1038	0.2382	1.17
Mof_H 	H 	0.1402	0.3544	0.0292	0.137
Mof_H 	H 	0.0476	0.2017	0.8569	1.246
Mof_H 	H 	0.2325	0.2697	0.8174	0.074
Mof_H 	H 	0.3607	0.2142	0.9326	0.34
Mof_H 	H 	0.5058	0.2479	0.8712	0.302
Mof_H 	H 	0.4604	0.3307	0.9987	0.26
Mof_H 	H 	0.9953	0.213	0.0061	-1.846
Mof_H 	H 	0.7986	0.246	0.9918	-1.954
Mof_H 	H 	0.8857	0.1344	0.8962	-1.812
Mof_H 	H 	0.1402	0.6748	0.6456	0.137
Mof_H 	H 	0.0476	0.6552	0.7983	0.559
Mof_H 	H 	0.2325	0.5477	0.7303	0.024
Mof_H 	H 	0.3607	0.7184	0.7858	0.222
Mof_H 	H 	0.5058	0.6233	0.7521	0.192
Mof_H 	H 	0.4604	0.668	0.6693	0.242
Mof_H 	H 	0.9953	0.7931	0.787	-0.807
Mof_H 	H 	0.7986	0.7458	0.754	-0.927
Mof_H 	H 	0.8857	0.7618	0.8656	-0.979
Mof_C 	C 	0.1374	0.82064	0.54501	2.261
Mof_C 	C 	0.0333	0.9098	0.64825	-5.872
Mof_C 	C 	0.7309	0.893	0.5638	-0.257
Mof_C 	C 	0.6851	0.87791	0.44856	0.478
Mof_C 	C 	0.5884	0.9269	0.6511	-0.316
Mof_C 	C 	0.0912	0.953	0.7416	9.615
Mof_C 	C 	0.1374	0.72437	0.17936	0.241
Mof_C 	C 	0.0333	0.73845	0.0902	0.201
Mof_C 	C 	0.7309	0.6708	0.107	0.02
Mof_C 	C 	0.6851	0.57065	0.12209	0.373
Mof_C 	C 	0.5884	0.7242	0.0731	-0.457
Mof_C 	C 	0.0912	0.7886	0.047	-0.564
Mof_C 	C 	0.1374	0.45499	0.27563	0.94
Mof_C 	C 	0.0333	0.35175	0.26155	-1.897
Mof_C 	C 	0.7309	0.4362	0.3292	-0.025
Mof_C 	C 	0.6851	0.55144	0.42935	0.392
Mof_C 	C 	0.5884	0.3489	0.2758	-0.563
Mof_C 	C 	0.0912	0.2584	0.2114	2.922
Mof_C 	C 	0.8626	0.17936	0.45499	-0.329
Mof_C 	C 	0.9667	0.0902	0.35175	1.927
Mof_C 	C 	0.2691	0.107	0.4362	0.198
Mof_C 	C 	0.3149	0.12209	0.55144	0.314
Mof_C 	C 	0.4116	0.0731	0.3489	-0.756
Mof_C 	C 	0.9088	0.047	0.2584	-3.401
Mof_C 	C 	0.8626	0.27563	0.82064	1.716
Mof_C 	C 	0.9667	0.26155	0.9098	-4.224
Mof_C 	C 	0.2691	0.3292	0.893	-0.069
Mof_C 	C 	0.3149	0.42935	0.87791	0.414
Mof_C 	C 	0.4116	0.2758	0.9269	-0.628
Mof_C 	C 	0.9088	0.2114	0.953	6.89
Mof_C 	C 	0.8626	0.54501	0.72437	0.986
Mof_C 	C 	0.9667	0.64825	0.73845	-2.03
Mof_C 	C 	0.2691	0.5638	0.6708	-0.017
Mof_C 	C 	0.3149	0.44856	0.57065	0.392
Mof_C 	C 	0.4116	0.6511	0.7242	-0.529
Mof_C 	C 	0.9088	0.7416	0.7886	3.248
Mof_N 	N 	0.8938	0.96333	0.61292	0.399
Mof_N 	N 	0.8938	0.64959	0.03667	-0.219
Mof_N 	N 	0.8938	0.38708	0.35041	0.032
Mof_N 	N 	0.1062	0.03667	0.38708	-0.362
Mof_N 	N 	0.1062	0.35041	0.96333	0.292
Mof_N 	N 	0.1062	0.61292	0.64959	0.03
Mof_O 	O 	0.2412	0.75571	0.55641	-0.941
Mof_O 	O 	0.1203	0.81903	0.45307	-1.085
Mof_O 	O 	0.7883	0.92156	0.40692	-0.608
Mof_O 	O 	0.5508	0.81948	0.39885	-0.635
Mof_O 	O 	0.2412	0.8007	0.24429	-0.449
Mof_O 	O 	0.1203	0.63404	0.18097	-0.53
Mof_O 	O 	0.7883	0.48536	0.07844	-0.285
Mof_O 	O 	0.5508	0.57937	0.18052	-0.547
Mof_O 	O 	0.2412	0.44359	0.1993	-0.567
Mof_O 	O 	0.1203	0.54693	0.36596	-0.719
Mof_O 	O 	0.7883	0.59308	0.51464	-0.387
Mof_O 	O 	0.5508	0.60115	0.42063	-0.558
Mof_O 	O 	0.7588	0.24429	0.44359	-0.244
Mof_O 	O 	0.8797	0.18097	0.54693	-0.374
Mof_O 	O 	0.2117	0.07844	0.59308	-0.184
Mof_O 	O 	0.4492	0.18052	0.60115	-0.498
Mof_O 	O 	0.7588	0.1993	0.75571	-0.747
Mof_O 	O 	0.8797	0.36596	0.81903	-0.921
Mof_O 	O 	0.2117	0.51464	0.92156	-0.471
Mof_O 	O 	0.4492	0.42063	0.81948	-0.584
Mof_O 	O 	0.7588	0.55641	0.8007	-0.617
Mof_O 	O 	0.8797	0.45307	0.63404	-0.715
Mof_O 	O 	0.2117	0.40692	0.48536	-0.361
Mof_O 	O 	0.4492	0.39885	0.57937	-0.572
_end
