# CIF file generated by openbabel 3.1.0, see https://openbabel.org
data_I
_chemical_name_common 'image0'
_cell_length_a 28.1295
_cell_length_b 15.2305
_cell_length_c 8.7607
_cell_angle_alpha 90
_cell_angle_beta 98.835
_cell_angle_gamma 90
_space_group_name_H-M_alt 'P 1'
_space_group_name_Hall 'P 1'
loop_
    _symmetry_equiv_pos_as_xyz
    x,y,z
loop_
    _atom_site_label
    _atom_site_type_symbol
    _atom_site_fract_x
    _atom_site_fract_y
    _atom_site_fract_z
    _atom_site_occupancy
    La1      La       0.16754    0.01363    0.64202    1.000
    O1       O        0.28678    0.47302    0.60200    1.000
    O2       O        0.24528    0.42920    0.38280    1.000
    O3       O        0.11821    0.97340    0.38950    1.000
    O4       O        0.08153    0.93060    0.16290    1.000
    O5       O        0.16061    0.17468    0.53750    1.000
    O6       O        0.18060    0.16019    0.78810    1.000
    C1       C        0.13347    0.35470    0.56120    1.000
    C2       C        0.01870    0.82230    0.31350    1.000
    C3       C        0.08236    0.93780    0.30590    1.000
    C4       C        0.15587    0.42670    0.51120    1.000
    C5       C        0.24689    0.45200    0.51990    1.000
    C6       C        0.16613    0.20670    0.67160    1.000
    C7       C        0.04051    0.90550    0.38100    1.000
    H1       H        0.05150    0.89650    0.49040    1.000
    H2       H        0.01590    0.95060    0.37120    1.000
    C8       C        0.13230    0.47270    0.38420    1.000
    H3       H        0.14640    0.52350    0.35290    1.000
    C9       C        0.20156    0.46460    0.59260    1.000
    H4       H        0.20740    0.43960    0.69570    1.000
    H5       H        0.19670    0.52710    0.60400    1.000
    C10      C        0.15390    0.30070    0.70180    1.000
    H6       H        0.18280    0.32950    0.75260    1.000
    H7       H        0.13080    0.30110    0.77340    1.000
    C11      C        0.08975    0.32900    0.48300    1.000
    H8       H        0.07460    0.28000    0.51680    1.000
    C12      C        0.01660    0.66560    0.31210    1.000
    H9       H        0.02720    0.61250    0.35740    1.000
    C13      C        0.06780    0.37410    0.35560    1.000
    H10      H        0.03820    0.35540    0.30440    1.000
    C14      C        0.03570    0.74220    0.37510    1.000
    H11      H        0.06010    0.74080    0.45970    1.000
    C15      C        0.08910    0.44600    0.30380    1.000
    H12      H        0.07480    0.47600    0.21630    1.000
    La2      La       0.66754    0.51363    0.64202    1.000
    O7       O        0.78678    0.97302    0.60200    1.000
    O8       O        0.74528    0.92920    0.38280    1.000
    O9       O        0.61821    0.47340    0.38950    1.000
    O10      O        0.58153    0.43060    0.16290    1.000
    O11      O        0.66061    0.67468    0.53750    1.000
    O12      O        0.68060    0.66019    0.78810    1.000
    C16      C        0.63347    0.85470    0.56120    1.000
    C17      C        0.51870    0.32230    0.31350    1.000
    C18      C        0.58236    0.43780    0.30590    1.000
    C19      C        0.65587    0.92670    0.51120    1.000
    C20      C        0.74689    0.95200    0.51990    1.000
    C21      C        0.66613    0.70670    0.67160    1.000
    C22      C        0.54051    0.40550    0.38100    1.000
    H13      H        0.55150    0.39650    0.49040    1.000
    H14      H        0.51590    0.45060    0.37120    1.000
    C23      C        0.63230    0.97270    0.38420    1.000
    H15      H        0.64640    0.02350    0.35290    1.000
    C24      C        0.70156    0.96460    0.59260    1.000
    H16      H        0.70740    0.93960    0.69570    1.000
    H17      H        0.69670    0.02710    0.60400    1.000
    C25      C        0.65390    0.80070    0.70180    1.000
    H18      H        0.68280    0.82950    0.75260    1.000
    H19      H        0.63080    0.80110    0.77340    1.000
    C26      C        0.58975    0.82900    0.48300    1.000
    H20      H        0.57460    0.78000    0.51680    1.000
    C27      C        0.51660    0.16560    0.31210    1.000
    H21      H        0.52720    0.11250    0.35740    1.000
    C28      C        0.56780    0.87410    0.35560    1.000
    H22      H        0.53820    0.85540    0.30440    1.000
    C29      C        0.53570    0.24220    0.37510    1.000
    H23      H        0.56010    0.24080    0.45970    1.000
    C30      C        0.58910    0.94600    0.30380    1.000
    H24      H        0.57480    0.97600    0.21630    1.000
    La3      La       0.83246    0.01363    0.85798    1.000
    O13      O        0.71322    0.47302    0.89800    1.000
    O14      O        0.75472    0.42920    0.11720    1.000
    O15      O        0.88179    0.97340    0.11050    1.000
    O16      O        0.91847    0.93060    0.33710    1.000
    O17      O        0.83939    0.17468    0.96250    1.000
    O18      O        0.81940    0.16019    0.71190    1.000
    C31      C        0.86653    0.35470    0.93880    1.000
    C32      C        0.98130    0.82230    0.18650    1.000
    C33      C        0.91764    0.93780    0.19410    1.000
    C34      C        0.84413    0.42670    0.98880    1.000
    C35      C        0.75311    0.45200    0.98010    1.000
    C36      C        0.83387    0.20670    0.82840    1.000
    C37      C        0.95949    0.90550    0.11900    1.000
    H25      H        0.94850    0.89650    0.00960    1.000
    H26      H        0.98410    0.95060    0.12880    1.000
    C38      C        0.86770    0.47270    0.11580    1.000
    H27      H        0.85360    0.52350    0.14710    1.000
    C39      C        0.79844    0.46460    0.90740    1.000
    H28      H        0.79260    0.43960    0.80430    1.000
    H29      H        0.80330    0.52710    0.89600    1.000
    C40      C        0.84610    0.30070    0.79820    1.000
    H30      H        0.81720    0.32950    0.74740    1.000
    H31      H        0.86920    0.30110    0.72660    1.000
    C41      C        0.91025    0.32900    0.01700    1.000
    H32      H        0.92540    0.28000    0.98320    1.000
    C42      C        0.98340    0.66560    0.18790    1.000
    H33      H        0.97280    0.61250    0.14260    1.000
    C43      C        0.93220    0.37410    0.14440    1.000
    H34      H        0.96180    0.35540    0.19560    1.000
    C44      C        0.96430    0.74220    0.12490    1.000
    H35      H        0.93990    0.74080    0.04030    1.000
    C45      C        0.91090    0.44600    0.19620    1.000
    H36      H        0.92520    0.47600    0.28370    1.000
    La4      La       0.33246    0.51363    0.85798    1.000
    O19      O        0.21322    0.97302    0.89800    1.000
    O20      O        0.25472    0.92920    0.11720    1.000
    O21      O        0.38179    0.47340    0.11050    1.000
    O22      O        0.41847    0.43060    0.33710    1.000
    O23      O        0.33939    0.67468    0.96250    1.000
    O24      O        0.31940    0.66019    0.71190    1.000
    C46      C        0.36653    0.85470    0.93880    1.000
    C47      C        0.48130    0.32230    0.18650    1.000
    C48      C        0.41764    0.43780    0.19410    1.000
    C49      C        0.34413    0.92670    0.98880    1.000
    C50      C        0.25311    0.95200    0.98010    1.000
    C51      C        0.33387    0.70670    0.82840    1.000
    C52      C        0.45949    0.40550    0.11900    1.000
    H37      H        0.44850    0.39650    0.00960    1.000
    H38      H        0.48410    0.45060    0.12880    1.000
    C53      C        0.36770    0.97270    0.11580    1.000
    H39      H        0.35360    0.02350    0.14710    1.000
    C54      C        0.29844    0.96460    0.90740    1.000
    H40      H        0.29260    0.93960    0.80430    1.000
    H41      H        0.30330    0.02710    0.89600    1.000
    C55      C        0.34610    0.80070    0.79820    1.000
    H42      H        0.31720    0.82950    0.74740    1.000
    H43      H        0.36920    0.80110    0.72660    1.000
    C56      C        0.41025    0.82900    0.01700    1.000
    H44      H        0.42540    0.78000    0.98320    1.000
    C57      C        0.48340    0.16560    0.18790    1.000
    H45      H        0.47280    0.11250    0.14260    1.000
    C58      C        0.43220    0.87410    0.14440    1.000
    H46      H        0.46180    0.85540    0.19560    1.000
    C59      C        0.46430    0.24220    0.12490    1.000
    H47      H        0.43990    0.24080    0.04030    1.000
    C60      C        0.41090    0.94600    0.19620    1.000
    H48      H        0.42520    0.97600    0.28370    1.000
    La5      La       0.83246    0.98637    0.35798    1.000
    O25      O        0.71322    0.52698    0.39800    1.000
    O26      O        0.75472    0.57080    0.61720    1.000
    O27      O        0.88179    0.02660    0.61050    1.000
    O28      O        0.91847    0.06940    0.83710    1.000
    O29      O        0.83939    0.82532    0.46250    1.000
    O30      O        0.81940    0.83981    0.21190    1.000
    C61      C        0.86653    0.64530    0.43880    1.000
    C62      C        0.98130    0.17770    0.68650    1.000
    C63      C        0.91764    0.06220    0.69410    1.000
    C64      C        0.84413    0.57330    0.48880    1.000
    C65      C        0.75311    0.54800    0.48010    1.000
    C66      C        0.83387    0.79330    0.32840    1.000
    C67      C        0.95949    0.09450    0.61900    1.000
    H49      H        0.94850    0.10350    0.50960    1.000
    H50      H        0.98410    0.04940    0.62880    1.000
    C68      C        0.86770    0.52730    0.61580    1.000
    H51      H        0.85360    0.47650    0.64710    1.000
    C69      C        0.79844    0.53540    0.40740    1.000
    H52      H        0.79260    0.56040    0.30430    1.000
    H53      H        0.80330    0.47290    0.39600    1.000
    C70      C        0.84610    0.69930    0.29820    1.000
    H54      H        0.81720    0.67050    0.24740    1.000
    H55      H        0.86920    0.69890    0.22660    1.000
    C71      C        0.91025    0.67100    0.51700    1.000
    H56      H        0.92540    0.72000    0.48320    1.000
    C72      C        0.98340    0.33440    0.68790    1.000
    H57      H        0.97280    0.38750    0.64260    1.000
    C73      C        0.93220    0.62590    0.64440    1.000
    H58      H        0.96180    0.64460    0.69560    1.000
    C74      C        0.96430    0.25780    0.62490    1.000
    H59      H        0.93990    0.25920    0.54030    1.000
    C75      C        0.91090    0.55400    0.69620    1.000
    H60      H        0.92520    0.52400    0.78370    1.000
    La6      La       0.33246    0.48637    0.35798    1.000
    O31      O        0.21322    0.02698    0.39800    1.000
    O32      O        0.25472    0.07080    0.61720    1.000
    O33      O        0.38179    0.52660    0.61050    1.000
    O34      O        0.41847    0.56940    0.83710    1.000
    O35      O        0.33939    0.32532    0.46250    1.000
    O36      O        0.31940    0.33981    0.21190    1.000
    C76      C        0.36653    0.14530    0.43880    1.000
    C77      C        0.48130    0.67770    0.68650    1.000
    C78      C        0.41764    0.56220    0.69410    1.000
    C79      C        0.34413    0.07330    0.48880    1.000
    C80      C        0.25311    0.04800    0.48010    1.000
    C81      C        0.33387    0.29330    0.32840    1.000
    C82      C        0.45949    0.59450    0.61900    1.000
    H61      H        0.44850    0.60350    0.50960    1.000
    H62      H        0.48410    0.54940    0.62880    1.000
    C83      C        0.36770    0.02730    0.61580    1.000
    H63      H        0.35360    0.97650    0.64710    1.000
    C84      C        0.29844    0.03540    0.40740    1.000
    H64      H        0.29260    0.06040    0.30430    1.000
    H65      H        0.30330    0.97290    0.39600    1.000
    C85      C        0.34610    0.19930    0.29820    1.000
    H66      H        0.31720    0.17050    0.24740    1.000
    H67      H        0.36920    0.19890    0.22660    1.000
    C86      C        0.41025    0.17100    0.51700    1.000
    H68      H        0.42540    0.22000    0.48320    1.000
    C87      C        0.48340    0.83440    0.68790    1.000
    H69      H        0.47280    0.88750    0.64260    1.000
    C88      C        0.43220    0.12590    0.64440    1.000
    H70      H        0.46180    0.14460    0.69560    1.000
    C89      C        0.46430    0.75780    0.62490    1.000
    H71      H        0.43990    0.75920    0.54030    1.000
    C90      C        0.41090    0.05400    0.69620    1.000
    H72      H        0.42520    0.02400    0.78370    1.000
    La7      La       0.16754    0.98637    0.14202    1.000
    O37      O        0.28678    0.52698    0.10200    1.000
    O38      O        0.24528    0.57080    0.88280    1.000
    O39      O        0.11821    0.02660    0.88950    1.000
    O40      O        0.08153    0.06940    0.66290    1.000
    O41      O        0.16061    0.82532    0.03750    1.000
    O42      O        0.18060    0.83981    0.28810    1.000
    C91      C        0.13347    0.64530    0.06120    1.000
    C92      C        0.01870    0.17770    0.81350    1.000
    C93      C        0.08236    0.06220    0.80590    1.000
    C94      C        0.15587    0.57330    0.01120    1.000
    C95      C        0.24689    0.54800    0.01990    1.000
    C96      C        0.16613    0.79330    0.17160    1.000
    C97      C        0.04051    0.09450    0.88100    1.000
    H73      H        0.05150    0.10350    0.99040    1.000
    H74      H        0.01590    0.04940    0.87120    1.000
    C98      C        0.13230    0.52730    0.88420    1.000
    H75      H        0.14640    0.47650    0.85290    1.000
    C99      C        0.20156    0.53540    0.09260    1.000
    H76      H        0.20740    0.56040    0.19570    1.000
    H77      H        0.19670    0.47290    0.10400    1.000
    C100     C        0.15390    0.69930    0.20180    1.000
    H78      H        0.18280    0.67050    0.25260    1.000
    H79      H        0.13080    0.69890    0.27340    1.000
    C101     C        0.08975    0.67100    0.98300    1.000
    H80      H        0.07460    0.72000    0.01680    1.000
    C102     C        0.01660    0.33440    0.81210    1.000
    H81      H        0.02720    0.38750    0.85740    1.000
    C103     C        0.06780    0.62590    0.85560    1.000
    H82      H        0.03820    0.64460    0.80440    1.000
    C104     C        0.03570    0.25780    0.87510    1.000
    H83      H        0.06010    0.25920    0.95970    1.000
    C105     C        0.08910    0.55400    0.80380    1.000
    H84      H        0.07480    0.52400    0.71630    1.000
    La8      La       0.66754    0.48637    0.14202    1.000
    O43      O        0.78678    0.02698    0.10200    1.000
    O44      O        0.74528    0.07080    0.88280    1.000
    O45      O        0.61821    0.52660    0.88950    1.000
    O46      O        0.58153    0.56940    0.66290    1.000
    O47      O        0.66061    0.32532    0.03750    1.000
    O48      O        0.68060    0.33981    0.28810    1.000
    C106     C        0.63347    0.14530    0.06120    1.000
    C107     C        0.51870    0.67770    0.81350    1.000
    C108     C        0.58236    0.56220    0.80590    1.000
    C109     C        0.65587    0.07330    0.01120    1.000
    C110     C        0.74689    0.04800    0.01990    1.000
    C111     C        0.66613    0.29330    0.17160    1.000
    C112     C        0.54051    0.59450    0.88100    1.000
    H85      H        0.55150    0.60350    0.99040    1.000
    H86      H        0.51590    0.54940    0.87120    1.000
    C113     C        0.63230    0.02730    0.88420    1.000
    H87      H        0.64640    0.97650    0.85290    1.000
    C114     C        0.70156    0.03540    0.09260    1.000
    H88      H        0.70740    0.06040    0.19570    1.000
    H89      H        0.69670    0.97290    0.10400    1.000
    C115     C        0.65390    0.19930    0.20180    1.000
    H90      H        0.68280    0.17050    0.25260    1.000
    H91      H        0.63080    0.19890    0.27340    1.000
    C116     C        0.58975    0.17100    0.98300    1.000
    H92      H        0.57460    0.22000    0.01680    1.000
    C117     C        0.51660    0.83440    0.81210    1.000
    H93      H        0.52720    0.88750    0.85740    1.000
    C118     C        0.56780    0.12590    0.85560    1.000
    H94      H        0.53820    0.14460    0.80440    1.000
    C119     C        0.53570    0.75780    0.87510    1.000
    H95      H        0.56010    0.75920    0.95970    1.000
    C120     C        0.58910    0.05400    0.80380    1.000
    H96      H        0.57480    0.02400    0.71630    1.000
