# CIF file generated by openbabel 3.1.0, see https://openbabel.org
data_I
_chemical_name_common 'image0'
_cell_length_a 27.657
_cell_length_b 19.775
_cell_length_c 9.508
_cell_angle_alpha 90
_cell_angle_beta 90
_cell_angle_gamma 90
_space_group_name_H-M_alt 'P 1'
_space_group_name_Hall 'P 1'
loop_
    _symmetry_equiv_pos_as_xyz
    x,y,z
loop_
    _atom_site_label
    _atom_site_type_symbol
    _atom_site_fract_x
    _atom_site_fract_y
    _atom_site_fract_z
    _atom_site_occupancy
    La1      La       0.13260    0.36204    0.74817    1.000
    S1       S        0.12997    0.25521    0.48922    1.000
    O1       O        0.21722    0.41869    0.66160    1.000
    O2       O        0.21821    0.33567    0.84000    1.000
    O3       O        0.17151    0.28833    0.55770    1.000
    O4       O        0.04296    0.34980    0.77640    1.000
    O5       O        0.13234    0.26320    0.33560    1.000
    O6       O        0.08711    0.28870    0.54800    1.000
    O7       O        0.13648    0.46150    0.90180    1.000
    O8       O        0.12893    0.18237    0.51510    1.000
    O9       O        0.07591    0.45246    0.07990    1.000
    O10      O        0.88232    0.44830    0.56470    1.000
    O11      O        0.94279    0.46910    0.39330    1.000
    O12      O        0.05551    0.33130    0.22800    1.000
    La2      La       0.63260    0.86204    0.74817    1.000
    S2       S        0.62997    0.75521    0.48922    1.000
    O13      O        0.71722    0.91869    0.66160    1.000
    O14      O        0.71821    0.83567    0.84000    1.000
    O15      O        0.67151    0.78833    0.55770    1.000
    O16      O        0.54296    0.84980    0.77640    1.000
    O17      O        0.63234    0.76320    0.33560    1.000
    O18      O        0.58711    0.78870    0.54800    1.000
    O19      O        0.63648    0.96150    0.90180    1.000
    O20      O        0.62893    0.68237    0.51510    1.000
    O21      O        0.57591    0.95246    0.07990    1.000
    O22      O        0.38232    0.94830    0.56470    1.000
    O23      O        0.44279    0.96910    0.39330    1.000
    O24      O        0.55551    0.83130    0.22800    1.000
    La3      La       0.86740    0.13796    0.24817    1.000
    S3       S        0.87003    0.24479    0.98922    1.000
    O25      O        0.78278    0.08131    0.16160    1.000
    O26      O        0.78179    0.16433    0.34000    1.000
    O27      O        0.82849    0.21167    0.05770    1.000
    O28      O        0.95704    0.15020    0.27640    1.000
    O29      O        0.86766    0.23680    0.83560    1.000
    O30      O        0.91289    0.21130    0.04800    1.000
    O31      O        0.86352    0.03850    0.40180    1.000
    O32      O        0.87107    0.31763    0.01510    1.000
    O33      O        0.92409    0.04754    0.57990    1.000
    O34      O        0.11768    0.05170    0.06470    1.000
    O35      O        0.05721    0.03090    0.89330    1.000
    O36      O        0.94449    0.16870    0.72800    1.000
    La4      La       0.36740    0.63796    0.24817    1.000
    S4       S        0.37003    0.74479    0.98922    1.000
    O37      O        0.28278    0.58131    0.16160    1.000
    O38      O        0.28179    0.66433    0.34000    1.000
    O39      O        0.32849    0.71167    0.05770    1.000
    O40      O        0.45704    0.65020    0.27640    1.000
    O41      O        0.36766    0.73680    0.83560    1.000
    O42      O        0.41289    0.71130    0.04800    1.000
    O43      O        0.36352    0.53850    0.40180    1.000
    O44      O        0.37107    0.81763    0.01510    1.000
    O45      O        0.42409    0.54754    0.57990    1.000
    O46      O        0.61768    0.55170    0.06470    1.000
    O47      O        0.55721    0.53090    0.89330    1.000
    O48      O        0.44449    0.66870    0.72800    1.000
    La5      La       0.86740    0.86204    0.75183    1.000
    S5       S        0.87003    0.75521    0.01078    1.000
    O49      O        0.78278    0.91869    0.83840    1.000
    O50      O        0.78179    0.83567    0.66000    1.000
    O51      O        0.82849    0.78833    0.94230    1.000
    O52      O        0.95704    0.84980    0.72360    1.000
    O53      O        0.86766    0.76320    0.16440    1.000
    O54      O        0.91289    0.78870    0.95200    1.000
    O55      O        0.86352    0.96150    0.59820    1.000
    O56      O        0.87107    0.68237    0.98490    1.000
    O57      O        0.92409    0.95246    0.42010    1.000
    O58      O        0.11768    0.94830    0.93530    1.000
    O59      O        0.05721    0.96910    0.10670    1.000
    O60      O        0.94449    0.83130    0.27200    1.000
    La6      La       0.36740    0.36204    0.75183    1.000
    S6       S        0.37003    0.25521    0.01078    1.000
    O61      O        0.28278    0.41869    0.83840    1.000
    O62      O        0.28179    0.33567    0.66000    1.000
    O63      O        0.32849    0.28833    0.94230    1.000
    O64      O        0.45704    0.34980    0.72360    1.000
    O65      O        0.36766    0.26320    0.16440    1.000
    O66      O        0.41289    0.28870    0.95200    1.000
    O67      O        0.36352    0.46150    0.59820    1.000
    O68      O        0.37107    0.18237    0.98490    1.000
    O69      O        0.42409    0.45246    0.42010    1.000
    O70      O        0.61768    0.44830    0.93530    1.000
    O71      O        0.55721    0.46910    0.10670    1.000
    O72      O        0.44449    0.33130    0.27200    1.000
    La7      La       0.13260    0.63796    0.25183    1.000
    S7       S        0.12997    0.74479    0.51078    1.000
    O73      O        0.21722    0.58131    0.33840    1.000
    O74      O        0.21821    0.66433    0.16000    1.000
    O75      O        0.17151    0.71167    0.44230    1.000
    O76      O        0.04296    0.65020    0.22360    1.000
    O77      O        0.13234    0.73680    0.66440    1.000
    O78      O        0.08711    0.71130    0.45200    1.000
    O79      O        0.13648    0.53850    0.09820    1.000
    O80      O        0.12893    0.81763    0.48490    1.000
    O81      O        0.07591    0.54754    0.92010    1.000
    O82      O        0.88232    0.55170    0.43530    1.000
    O83      O        0.94279    0.53090    0.60670    1.000
    O84      O        0.05551    0.66870    0.77200    1.000
    La8      La       0.63260    0.13796    0.25183    1.000
    S8       S        0.62997    0.24479    0.51078    1.000
    O85      O        0.71722    0.08131    0.33840    1.000
    O86      O        0.71821    0.16433    0.16000    1.000
    O87      O        0.67151    0.21167    0.44230    1.000
    O88      O        0.54296    0.15020    0.22360    1.000
    O89      O        0.63234    0.23680    0.66440    1.000
    O90      O        0.58711    0.21130    0.45200    1.000
    O91      O        0.63648    0.03850    0.09820    1.000
    O92      O        0.62893    0.31763    0.48490    1.000
    O93      O        0.57591    0.04754    0.92010    1.000
    O94      O        0.38232    0.05170    0.43530    1.000
    O95      O        0.44279    0.03090    0.60670    1.000
    O96      O        0.55551    0.16870    0.77200    1.000
    La9      La       0.86740    0.63796    0.25183    1.000
    S9       S        0.87003    0.74479    0.51078    1.000
    O97      O        0.78278    0.58131    0.33840    1.000
    O98      O        0.78179    0.66433    0.16000    1.000
    O99      O        0.82849    0.71167    0.44230    1.000
    O100     O        0.95704    0.65020    0.22360    1.000
    O101     O        0.86766    0.73680    0.66440    1.000
    O102     O        0.91289    0.71130    0.45200    1.000
    O103     O        0.86352    0.53850    0.09820    1.000
    O104     O        0.87107    0.81763    0.48490    1.000
    O105     O        0.92409    0.54754    0.92010    1.000
    O106     O        0.11768    0.55170    0.43530    1.000
    O107     O        0.05721    0.53090    0.60670    1.000
    O108     O        0.94449    0.66870    0.77200    1.000
    La10     La       0.36740    0.13796    0.25183    1.000
    S10      S        0.37003    0.24479    0.51078    1.000
    O109     O        0.28278    0.08131    0.33840    1.000
    O110     O        0.28179    0.16433    0.16000    1.000
    O111     O        0.32849    0.21167    0.44230    1.000
    O112     O        0.45704    0.15020    0.22360    1.000
    O113     O        0.36766    0.23680    0.66440    1.000
    O114     O        0.41289    0.21130    0.45200    1.000
    O115     O        0.36352    0.03850    0.09820    1.000
    O116     O        0.37107    0.31763    0.48490    1.000
    O117     O        0.42409    0.04754    0.92010    1.000
    O118     O        0.61768    0.05170    0.43530    1.000
    O119     O        0.55721    0.03090    0.60670    1.000
    O120     O        0.44449    0.16870    0.77200    1.000
    La11     La       0.13260    0.86204    0.75183    1.000
    S11      S        0.12997    0.75521    0.01078    1.000
    O121     O        0.21722    0.91869    0.83840    1.000
    O122     O        0.21821    0.83567    0.66000    1.000
    O123     O        0.17151    0.78833    0.94230    1.000
    O124     O        0.04296    0.84980    0.72360    1.000
    O125     O        0.13234    0.76320    0.16440    1.000
    O126     O        0.08711    0.78870    0.95200    1.000
    O127     O        0.13648    0.96150    0.59820    1.000
    O128     O        0.12893    0.68237    0.98490    1.000
    O129     O        0.07591    0.95246    0.42010    1.000
    O130     O        0.88232    0.94830    0.93530    1.000
    O131     O        0.94279    0.96910    0.10670    1.000
    O132     O        0.05551    0.83130    0.27200    1.000
    La12     La       0.63260    0.36204    0.75183    1.000
    S12      S        0.62997    0.25521    0.01078    1.000
    O133     O        0.71722    0.41869    0.83840    1.000
    O134     O        0.71821    0.33567    0.66000    1.000
    O135     O        0.67151    0.28833    0.94230    1.000
    O136     O        0.54296    0.34980    0.72360    1.000
    O137     O        0.63234    0.26320    0.16440    1.000
    O138     O        0.58711    0.28870    0.95200    1.000
    O139     O        0.63648    0.46150    0.59820    1.000
    O140     O        0.62893    0.18237    0.98490    1.000
    O141     O        0.57591    0.45246    0.42010    1.000
    O142     O        0.38232    0.44830    0.93530    1.000
    O143     O        0.44279    0.46910    0.10670    1.000
    O144     O        0.55551    0.33130    0.27200    1.000
    La13     La       0.13260    0.13796    0.24817    1.000
    S13      S        0.12997    0.24479    0.98922    1.000
    O145     O        0.21722    0.08131    0.16160    1.000
    O146     O        0.21821    0.16433    0.34000    1.000
    O147     O        0.17151    0.21167    0.05770    1.000
    O148     O        0.04296    0.15020    0.27640    1.000
    O149     O        0.13234    0.23680    0.83560    1.000
    O150     O        0.08711    0.21130    0.04800    1.000
    O151     O        0.13648    0.03850    0.40180    1.000
    O152     O        0.12893    0.31763    0.01510    1.000
    O153     O        0.07591    0.04754    0.57990    1.000
    O154     O        0.88232    0.05170    0.06470    1.000
    O155     O        0.94279    0.03090    0.89330    1.000
    O156     O        0.05551    0.16870    0.72800    1.000
    La14     La       0.63260    0.63796    0.24817    1.000
    S14      S        0.62997    0.74479    0.98922    1.000
    O157     O        0.71722    0.58131    0.16160    1.000
    O158     O        0.71821    0.66433    0.34000    1.000
    O159     O        0.67151    0.71167    0.05770    1.000
    O160     O        0.54296    0.65020    0.27640    1.000
    O161     O        0.63234    0.73680    0.83560    1.000
    O162     O        0.58711    0.71130    0.04800    1.000
    O163     O        0.63648    0.53850    0.40180    1.000
    O164     O        0.62893    0.81763    0.01510    1.000
    O165     O        0.57591    0.54754    0.57990    1.000
    O166     O        0.38232    0.55170    0.06470    1.000
    O167     O        0.44279    0.53090    0.89330    1.000
    O168     O        0.55551    0.66870    0.72800    1.000
    La15     La       0.86740    0.36204    0.74817    1.000
    S15      S        0.87003    0.25521    0.48922    1.000
    O169     O        0.78278    0.41869    0.66160    1.000
    O170     O        0.78179    0.33567    0.84000    1.000
    O171     O        0.82849    0.28833    0.55770    1.000
    O172     O        0.95704    0.34980    0.77640    1.000
    O173     O        0.86766    0.26320    0.33560    1.000
    O174     O        0.91289    0.28870    0.54800    1.000
    O175     O        0.86352    0.46150    0.90180    1.000
    O176     O        0.87107    0.18237    0.51510    1.000
    O177     O        0.92409    0.45246    0.07990    1.000
    O178     O        0.11768    0.44830    0.56470    1.000
    O179     O        0.05721    0.46910    0.39330    1.000
    O180     O        0.94449    0.33130    0.22800    1.000
    La16     La       0.36740    0.86204    0.74817    1.000
    S16      S        0.37003    0.75521    0.48922    1.000
    O181     O        0.28278    0.91869    0.66160    1.000
    O182     O        0.28179    0.83567    0.84000    1.000
    O183     O        0.32849    0.78833    0.55770    1.000
    O184     O        0.45704    0.84980    0.77640    1.000
    O185     O        0.36766    0.76320    0.33560    1.000
    O186     O        0.41289    0.78870    0.54800    1.000
    O187     O        0.36352    0.96150    0.90180    1.000
    O188     O        0.37107    0.68237    0.51510    1.000
    O189     O        0.42409    0.95246    0.07990    1.000
    O190     O        0.61768    0.94830    0.56470    1.000
    O191     O        0.55721    0.96910    0.39330    1.000
    O192     O        0.44449    0.83130    0.22800    1.000
    La17     La       0.00000    0.43257    0.21345    1.000
    S17      S        0.00000    0.37545    0.84880    1.000
    Na1      Na       0.00000    0.24225    0.11850    1.000
    O193     O        0.00000    0.35240    0.99520    1.000
    O194     O        0.00000    0.44820    0.84650    1.000
    O195     O        0.00000    0.36110    0.47000    1.000
    La18     La       0.50000    0.93257    0.21345    1.000
    S18      S        0.50000    0.87545    0.84880    1.000
    Na2      Na       0.50000    0.74225    0.11850    1.000
    O196     O        0.50000    0.85240    0.99520    1.000
    O197     O        0.50000    0.94820    0.84650    1.000
    O198     O        0.50000    0.86110    0.47000    1.000
    La19     La       0.00000    0.06743    0.71345    1.000
    S19      S        0.00000    0.12455    0.34880    1.000
    Na3      Na       0.00000    0.25775    0.61850    1.000
    O199     O        0.00000    0.14760    0.49520    1.000
    O200     O        0.00000    0.05180    0.34650    1.000
    O201     O        0.00000    0.13890    0.97000    1.000
    La20     La       0.50000    0.56743    0.71345    1.000
    S20      S        0.50000    0.62455    0.34880    1.000
    Na4      Na       0.50000    0.75775    0.61850    1.000
    O202     O        0.50000    0.64760    0.49520    1.000
    O203     O        0.50000    0.55180    0.34650    1.000
    O204     O        0.50000    0.63890    0.97000    1.000
    La21     La       0.00000    0.93257    0.28655    1.000
    S21      S        0.00000    0.87545    0.65120    1.000
    Na5      Na       0.00000    0.74225    0.38150    1.000
    O205     O        0.00000    0.85240    0.50480    1.000
    O206     O        0.00000    0.94820    0.65350    1.000
    O207     O        0.00000    0.86110    0.03000    1.000
    La22     La       0.50000    0.43257    0.28655    1.000
    S22      S        0.50000    0.37545    0.65120    1.000
    Na6      Na       0.50000    0.24225    0.38150    1.000
    O208     O        0.50000    0.35240    0.50480    1.000
    O209     O        0.50000    0.44820    0.65350    1.000
    O210     O        0.50000    0.36110    0.03000    1.000
    La23     La       0.00000    0.56743    0.78655    1.000
    S23      S        0.00000    0.62455    0.15120    1.000
    Na7      Na       0.00000    0.75775    0.88150    1.000
    O211     O        0.00000    0.64760    0.00480    1.000
    O212     O        0.00000    0.55180    0.15350    1.000
    O213     O        0.00000    0.63890    0.53000    1.000
    La24     La       0.50000    0.06743    0.78655    1.000
    S24      S        0.50000    0.12455    0.15120    1.000
    Na8      Na       0.50000    0.25775    0.88150    1.000
    O214     O        0.50000    0.14760    0.00480    1.000
    O215     O        0.50000    0.05180    0.15350    1.000
    O216     O        0.50000    0.13890    0.53000    1.000
    S25      S        0.10522    0.50000    0.00000    1.000
    S26      S        0.60522    0.00000    0.00000    1.000
    S27      S        0.89478    0.00000    0.50000    1.000
    S28      S        0.39478    0.50000    0.50000    1.000
    S29      S        0.89478    0.50000    0.00000    1.000
    S30      S        0.39478    0.00000    0.00000    1.000
    S31      S        0.10522    0.00000    0.50000    1.000
    S32      S        0.60522    0.50000    0.50000    1.000
    S33      S        0.25000    0.37681    0.75000    1.000
    S34      S        0.75000    0.12319    0.25000    1.000
    S35      S        0.75000    0.87681    0.75000    1.000
    S36      S        0.25000    0.62319    0.25000    1.000
    S37      S        0.75000    0.62319    0.25000    1.000
    S38      S        0.25000    0.12319    0.25000    1.000
    S39      S        0.25000    0.87681    0.75000    1.000
    S40      S        0.75000    0.37681    0.75000    1.000
    S41      S        0.91273    0.50000    0.50000    1.000
    S42      S        0.41273    0.00000    0.50000    1.000
    S43      S        0.08727    0.00000    0.00000    1.000
    S44      S        0.58727    0.50000    0.00000    1.000
    S45      S        0.08727    0.50000    0.50000    1.000
    S46      S        0.58727    0.00000    0.50000    1.000
    S47      S        0.91273    0.00000    0.00000    1.000
    S48      S        0.41273    0.50000    0.00000    1.000
