data_functionalizedCrystal
_audit_creation_method	'EQeq! by Chris Wilmer'
_symmetry_space_group_name_H-M	'P1'
_symmetry_Int_Tables_number	1
_symmetry_cell_setting	triclinic
loop_
_symmetry_equiv_pos_as_xyz
  x,y,z
_cell_length_a	10.0714
_cell_length_b	11.1963
_cell_length_c	18.942
_cell_angle_alpha	99.9866
_cell_angle_beta	90
_cell_angle_gamma	116.729
loop_
_atom_site_label
_atom_site_type_symbol
_atom_site_fract_x
_atom_site_fract_y
_atom_site_fract_z
_atom_site_charge
Mof_Cd	Cd	0.45623	0.81026	0.97412	0.502
Mof_Cd	Cd	0.64597	0.18974	0.52588	0.487
Mof_Cd	Cd	0.54377	0.18974	0.02588	0.465
Mof_Cd	Cd	0.35403	0.81026	0.47412	0.483
Mof_Cd	Cd	0.5	0.5	-0	0.419
Mof_Cd	Cd	-4.55622e-17	0.5	0.5	0.43
Mof_H 	H 	0.3357	0.3476	0.8437	0.02
Mof_H 	H 	0.2028	0.154	0.7574	0.088
Mof_H 	H 	0.8291	0.1254	0.6411	0.058
Mof_H 	H 	0.0438	0.3598	0.6596	0.089
Mof_H 	H 	0.1835	0.0486	0.6301	0.07
Mof_H 	H 	0.1716	0.5486	0.7489	0.027
Mof_H 	H 	0.7969	0.7824	0.5168	0.068
Mof_H 	H 	0.9881	0.6524	0.6563	0.03
Mof_H 	H 	0.0488	0.846	0.7426	0.065
Mof_H 	H 	0.7037	0.8746	0.8589	0.063
Mof_H 	H 	0.684	0.6402	0.8404	0.087
Mof_H 	H 	0.1349	0.9514	0.8699	0.072
Mof_H 	H 	0.623	0.4514	0.7511	0.035
Mof_H 	H 	0.0145	0.2176	0.9832	0.056
Mof_H 	H 	0.6643	0.6524	0.1563	0.018
Mof_H 	H 	0.7972	0.846	0.2426	0.088
Mof_H 	H 	0.1709	0.8746	0.3589	0.061
Mof_H 	H 	0.9562	0.6402	0.3404	0.093
Mof_H 	H 	0.8165	0.9514	0.3699	0.06
Mof_H 	H 	0.8284	0.4514	0.2511	0.029
Mof_H 	H 	0.2031	0.2176	0.4832	0.061
Mof_H 	H 	0.0119	0.3476	0.3437	0.011
Mof_H 	H 	0.9512	0.154	0.2574	0.099
Mof_H 	H 	0.2963	0.1254	0.1411	0.059
Mof_H 	H 	0.316	0.3598	0.1596	0.092
Mof_H 	H 	0.8651	0.0486	0.1301	0.063
Mof_H 	H 	0.377	0.5486	0.2489	0.025
Mof_H 	H 	0.9855	0.7824	0.0168	0.076
Mof_C 	C 	0.2748	0.3498	0.8075	0.068
Mof_C 	C 	0.0701	0.814	0.5363	0.289
Mof_C 	C 	0.1958	0.2334	0.7552	-0.135
Mof_C 	C 	0.8722	0.0696	0.6231	-0.02
Mof_C 	C 	0.7882	0.9478	0.5743	-0.055
Mof_C 	C 	0.1001	0.3556	0.6972	-0.135
Mof_C 	C 	0.1075	0.2344	0.7003	0.086
Mof_C 	C 	0.0844	0.0238	0.6167	-0.046
Mof_C 	C 	0.9995	0.9026	0.5682	-0.034
Mof_C 	C 	0.0214	0.1078	0.6451	-0.012
Mof_C 	C 	0.1779	0.4688	0.7507	0.067
Mof_C 	C 	0.2646	0.4678	0.8068	-0.127
Mof_C 	C 	0.3439	0.59	0.8648	0.341
Mof_C 	C 	0.8532	0.8646	0.5482	-0.008
Mof_C 	C 	0.6309	0.9104	0.5484	0.308
Mof_C 	C 	0.925	0.6502	0.6925	0.044
Mof_C 	C 	0.2561	0.186	0.9637	0.314
Mof_C 	C 	0.9624	0.7666	0.7448	-0.094
Mof_C 	C 	0.8026	0.9304	0.8769	-0.038
Mof_C 	C 	0.8404	0.0522	0.9257	-0.051
Mof_C 	C 	0.7445	0.6444	0.8028	-0.114
Mof_C 	C 	0.8731	0.7656	0.7997	0.064
Mof_C 	C 	0.0606	0.9762	0.8833	-0.057
Mof_C 	C 	0.0969	0.0974	0.9318	-0.055
Mof_C 	C 	0.9136	0.8922	0.8549	0.018
Mof_C 	C 	0.7091	0.5312	0.7493	0.052
Mof_C 	C 	0.7968	0.5322	0.6932	-0.111
Mof_C 	C 	0.7539	0.41	0.6352	0.337
Mof_C 	C 	0.9886	0.1354	0.9518	0.023
Mof_C 	C 	0.7205	0.0896	0.9516	0.309
Mof_C 	C 	0.7252	0.6502	0.1925	0.071
Mof_C 	C 	0.9299	0.186	0.4637	0.335
Mof_C 	C 	0.8042	0.7666	0.2448	-0.135
Mof_C 	C 	0.1278	0.9304	0.3769	-0.039
Mof_C 	C 	0.2118	0.0522	0.4257	-0.055
Mof_C 	C 	0.8999	0.6444	0.3028	-0.134
Mof_C 	C 	0.8925	0.7656	0.2997	0.088
Mof_C 	C 	0.9156	0.9762	0.3833	-0.016
Mof_C 	C 	0.0005	0.0974	0.4318	-0.079
Mof_C 	C 	0.9786	0.8922	0.3549	-0.004
Mof_C 	C 	0.8221	0.5312	0.2493	0.069
Mof_C 	C 	0.7354	0.5322	0.1932	-0.129
Mof_C 	C 	0.6561	0.41	0.1352	0.344
Mof_C 	C 	0.1468	0.1354	0.4518	0.01
Mof_C 	C 	0.3691	0.0896	0.4516	0.308
Mof_C 	C 	0.075	0.3498	0.3075	0.084
Mof_C 	C 	0.7439	0.814	0.0363	0.309
Mof_C 	C 	0.0376	0.2334	0.2552	-0.159
Mof_C 	C 	0.1974	0.0696	0.1231	-0.03
Mof_C 	C 	0.1596	0.9478	0.0743	-0.051
Mof_C 	C 	0.2555	0.3556	0.1972	-0.145
Mof_C 	C 	0.1269	0.2344	0.2003	0.097
Mof_C 	C 	0.9394	0.0238	0.1167	-0.032
Mof_C 	C 	0.9031	0.9026	0.0682	-0.044
Mof_C 	C 	0.0864	0.1078	0.1451	-0.018
Mof_C 	C 	0.2909	0.4688	0.2507	0.076
Mof_C 	C 	0.2032	0.4678	0.3068	-0.138
Mof_C 	C 	0.2461	0.59	0.3648	0.346
Mof_C 	C 	0.0114	0.8646	0.0482	-0.03
Mof_C 	C 	0.2795	0.9104	0.0484	0.304
Mof_O 	O 	0.4022	0.5838	0.9205	-0.313
Mof_O 	O 	0.3496	0.7006	0.8571	-0.272
Mof_O 	O 	0.5575	0.796	0.5087	-0.271
Mof_O 	O 	0.5786	0.9924	0.5668	-0.281
Mof_O 	O 	0.9841	0.6938	0.5079	-0.28
Mof_O 	O 	0.2102	0.8694	0.5416	-0.286
Mof_O 	O 	0.8184	0.4162	0.5795	-0.316
Mof_O 	O 	0.649	0.2994	0.6429	-0.27
Mof_O 	O 	0.7615	0.204	0.9913	-0.256
Mof_O 	O 	0.5862	0.0076	0.9332	-0.273
Mof_O 	O 	0.2903	0.3062	0.9921	-0.282
Mof_O 	O 	0.3408	0.1306	0.9584	-0.278
Mof_O 	O 	0.5978	0.4162	0.0795	-0.323
Mof_O 	O 	0.6504	0.2994	0.1429	-0.273
Mof_O 	O 	0.4425	0.204	0.4913	-0.271
Mof_O 	O 	0.4214	0.0076	0.4332	-0.279
Mof_O 	O 	0.0159	0.3062	0.4921	-0.303
Mof_O 	O 	0.7898	0.1306	0.4584	-0.294
Mof_O 	O 	0.1816	0.5838	0.4205	-0.322
Mof_O 	O 	0.351	0.7006	0.3571	-0.274
Mof_O 	O 	0.2385	0.796	0.0087	-0.283
Mof_O 	O 	0.4138	0.9924	0.0668	-0.284
Mof_O 	O 	0.7097	0.6938	0.0079	-0.298
Mof_O 	O 	0.6592	0.8694	0.0416	-0.298
_end
