data_functionalizedCrystal
_audit_creation_method	'EQeq! by Chris Wilmer'
_symmetry_space_group_name_H-M	'P1'
_symmetry_Int_Tables_number	1
_symmetry_cell_setting	triclinic
loop_
_symmetry_equiv_pos_as_xyz
  x,y,z
_cell_length_a	10.39
_cell_length_b	11.803
_cell_length_c	11.934
_cell_angle_alpha	82.967
_cell_angle_beta	81.366
_cell_angle_gamma	87.884
loop_
_atom_site_label
_atom_site_type_symbol
_atom_site_fract_x
_atom_site_fract_y
_atom_site_fract_z
_atom_site_charge
Mof_Eu	Eu	0.98046	0.23992	0.07532	2.294
Mof_P 	P 	0.70541	0.2765	0.31429	0.498
Mof_P 	P 	0.11627	0.50548	0.11598	0.486
Mof_P 	P 	0.84736	0.96613	0.10555	0.499
Mof_O 	O 	0.8004	0.2587	0.2111	-0.517
Mof_O 	O 	0.5666	0.2422	0.2996	-0.462
Mof_H 	H 	0.5534	0.1763	0.3287	0.266
Mof_O 	O 	0.7441	0.219	0.425	-0.256
Mof_O 	O 	0.8199	0.4697	0.3281	-0.336
Mof_H 	H 	0.8173	0.5394	0.3263	0.222
Mof_O 	O 	0.0783	0.6248	0.0725	-0.479
Mof_O 	O 	0.0095	0.4201	0.1514	-0.451
Mof_O 	O 	0.1942	0.5137	0.2187	-0.431
Mof_H 	H 	0.1985	0.4505	0.2553	0.247
Mof_O 	O 	0.2027	0.3298	0.0091	-0.563
Mof_H 	H 	0.2434	0.3129	0.9459	0.26
Mof_O 	O 	0.8956	0.8523	0.0701	-0.501
Mof_O 	O 	0.9453	0.0421	0.1383	-0.513
Mof_O 	O 	0.7339	0.942	0.2082	-0.448
Mof_H 	H 	0.757	0.959	0.2667	0.262
Mof_O 	O 	0.8007	0.1643	0.9886	-0.553
Mof_H 	H 	0.7592	0.2117	0.9471	0.271
Mof_C 	C 	0.6953	0.4306	0.3185	-0.003
Mof_H 	H 	0.6715	0.4663	0.2457	0.037
Mof_C 	C 	0.5943	0.467	0.4134	0.038
Mof_C 	C 	0.4728	0.503	0.3902	-0.058
Mof_H 	H 	0.4539	0.5052	0.3162	0.064
Mof_C 	C 	0.6219	0.464	0.5248	-0.055
Mof_H 	H 	0.7038	0.4399	0.5418	0.076
Mof_C 	C 	0.227	0.4483	0.0003	0.048
Mof_H 	H 	0.2026	0.4839	0.9277	-0.007
Mof_C 	C 	0.3691	0.4735	0.0002	0.006
Mof_C 	C 	0.4148	0.5825	0.9586	-0.048
Mof_H 	H 	0.3584	0.6387	0.9314	0.041
Mof_C 	C 	0.454	0.3927	0.042	-0.049
Mof_H 	H 	0.4239	0.3203	0.0713	0.054
Mof_C 	C 	0.7749	0.0458	0.9872	0.057
Mof_H 	H 	0.8205	0.0222	0.9155	-0.001
Mof_C 	C 	0.6316	0.0237	0.9928	0.014
Mof_C 	C 	0.5393	0.0792	0.0641	-0.06
Mof_H 	H 	0.5652	0.1325	0.1072	0.064
Mof_C 	C 	0.5912	0.9444	0.9286	-0.04
Mof_H 	H 	0.6526	0.907	0.8803	0.025
Mof_Eu	Eu	0.01954	0.76008	0.92468	2.295
Mof_P 	P 	0.29459	0.7235	0.68571	0.499
Mof_P 	P 	0.88373	0.49452	0.88402	0.487
Mof_P 	P 	0.15264	0.03387	0.89445	0.5
Mof_O 	O 	0.1996	0.7413	0.7889	-0.517
Mof_O 	O 	0.4334	0.7578	0.7004	-0.462
Mof_H 	H 	0.4466	0.8237	0.6713	0.266
Mof_O 	O 	0.2559	0.781	0.575	-0.256
Mof_O 	O 	0.1801	0.5303	0.6719	-0.336
Mof_H 	H 	0.1827	0.4606	0.6737	0.222
Mof_O 	O 	0.9217	0.3752	0.9275	-0.479
Mof_O 	O 	0.9905	0.5799	0.8486	-0.451
Mof_O 	O 	0.8058	0.4863	0.7813	-0.431
Mof_H 	H 	0.8015	0.5495	0.7447	0.247
Mof_O 	O 	0.7973	0.6702	0.9909	-0.563
Mof_H 	H 	0.7566	0.6871	0.0541	0.26
Mof_O 	O 	0.1044	0.1477	0.9299	-0.501
Mof_O 	O 	0.0547	0.9579	0.8617	-0.513
Mof_O 	O 	0.2661	0.058	0.7918	-0.448
Mof_H 	H 	0.243	0.041	0.7333	0.262
Mof_O 	O 	0.1993	0.8357	0.0114	-0.553
Mof_H 	H 	0.2408	0.7883	0.0529	0.271
Mof_C 	C 	0.3047	0.5694	0.6815	-0.003
Mof_H 	H 	0.3285	0.5337	0.7543	0.037
Mof_C 	C 	0.4057	0.533	0.5866	0.038
Mof_C 	C 	0.5272	0.497	0.6098	-0.058
Mof_H 	H 	0.5461	0.4948	0.6838	0.064
Mof_C 	C 	0.3781	0.536	0.4752	-0.055
Mof_H 	H 	0.2962	0.5601	0.4582	0.076
Mof_C 	C 	0.773	0.5517	0.9997	0.048
Mof_H 	H 	0.7974	0.5161	0.0723	-0.007
Mof_C 	C 	0.6309	0.5265	0.9998	0.006
Mof_C 	C 	0.5852	0.4175	0.0414	-0.048
Mof_H 	H 	0.6416	0.3613	0.0686	0.041
Mof_C 	C 	0.546	0.6073	0.958	-0.049
Mof_H 	H 	0.5761	0.6797	0.9287	0.054
Mof_C 	C 	0.2251	0.9542	0.0128	0.057
Mof_H 	H 	0.1795	0.9778	0.0845	-0.001
Mof_C 	C 	0.3684	0.9763	0.0072	0.014
Mof_C 	C 	0.4607	0.9208	0.9359	-0.06
Mof_H 	H 	0.4348	0.8675	0.8928	0.064
Mof_C 	C 	0.4088	0.0556	0.0714	-0.04
Mof_H 	H 	0.3474	0.093	0.1197	0.025
_end
