data_functionalizedCrystal
_audit_creation_method	'EQeq! by Chris Wilmer'
_symmetry_space_group_name_H-M	'P1'
_symmetry_Int_Tables_number	1
_symmetry_cell_setting	triclinic
loop_
_symmetry_equiv_pos_as_xyz
  x,y,z
_cell_length_a	13.8474
_cell_length_b	32.653
_cell_length_c	18.5343
_cell_angle_alpha	101.242
_cell_angle_beta	90
_cell_angle_gamma	90
loop_
_atom_site_label
_atom_site_type_symbol
_atom_site_fract_x
_atom_site_fract_y
_atom_site_fract_z
_atom_site_charge
Mof_Cu	Cu	0.33685	0.70809	0.30902	0.918
Mof_Cu	Cu	0.67492	0.70395	0.56259	0.918
Mof_Cu	Cu	0.00351	0.49331	0.75374	0.937
Mof_Cu	Cu	0.17105	0.80121	0.4927	0.898
Mof_Cu	Cu	0.82442	0.80729	0.73756	0.898
Mof_Cu	Cu	0.83685	0.79191	0.19098	0.918
Mof_Cu	Cu	0.17492	0.79605	0.93741	0.921
Mof_Cu	Cu	0.50351	0.00669	0.74626	0.937
Mof_Cu	Cu	0.67105	0.69879	0.0073	0.888
Mof_Cu	Cu	0.32442	0.69271	0.76244	0.898
Mof_Cu	Cu	0.66315	0.29191	0.69098	0.919
Mof_Cu	Cu	0.32508	0.29605	0.43741	0.919
Mof_Cu	Cu	0.99649	0.50669	0.24626	0.948
Mof_Cu	Cu	0.82895	0.19879	0.5073	0.898
Mof_Cu	Cu	0.17558	0.19271	0.26244	0.897
Mof_Cu	Cu	0.16315	0.20809	0.80902	0.919
Mof_Cu	Cu	0.82508	0.20395	0.06259	0.916
Mof_Cu	Cu	0.49649	0.99331	0.25374	0.951
Mof_Cu	Cu	0.32895	0.30121	0.9927	0.908
Mof_Cu	Cu	0.67558	0.30729	0.23756	0.897
Mof_Cu	Cu	1.53556e-32	0.5	0.5	0.941
Mof_Cu	Cu	0.5	0	-0	0.929
Mof_Cu	Cu	0.5	6.91555e-18	0.5	0.937
Mof_Cu	Cu	-0	0.5	-0	0.931
Mof_H 	H 	0.9126	0.5986	0.3969	0.308
Mof_H 	H 	0.9926	0.5933	0.3347	0.283
Mof_H 	H 	0.0073	0.6263	0.4088	0.297
Mof_H 	H 	0.3091	0.5495	0.5131	0.289
Mof_H 	H 	0.3149	0.5435	0.4263	0.285
Mof_H 	H 	0.306	0.5041	0.4639	0.293
Mof_H 	H 	0.2431	0.6269	0.4912	0.121
Mof_H 	H 	0.1685	0.5711	0.2866	0.136
Mof_H 	H 	0.2503	0.6234	0.2433	-0.031
Mof_H 	H 	0.3233	0.6771	0.4439	-0.003
Mof_H 	H 	0.2871	0.777	0.2182	0.051
Mof_H 	H 	0.3782	0.8261	0.1737	0.047
Mof_H 	H 	0.6303	0.824	0.4329	0.045
Mof_H 	H 	0.7241	0.7768	0.4798	0.052
Mof_H 	H 	0.6914	0.6757	0.7013	-0.007
Mof_H 	H 	0.7547	0.6187	0.5014	-0.031
Mof_H 	H 	0.8332	0.5656	0.545	0.138
Mof_H 	H 	0.7632	0.6239	0.7502	0.121
Mof_H 	H 	0.6967	0.5032	0.7343	0.292
Mof_H 	H 	0.6884	0.5377	0.6852	0.281
Mof_H 	H 	0.6982	0.5512	0.7718	0.286
Mof_H 	H 	0.0934	0.591	0.6486	0.318
Mof_H 	H 	0.0037	0.6212	0.6685	0.317
Mof_H 	H 	0.0075	0.5898	0.5917	0.3
Mof_H 	H 	0.2228	0.7253	0.5665	0.046
Mof_H 	H 	0.1355	0.6706	0.5963	0.031
Mof_H 	H 	0.1776	0.8162	0.3406	-0.01
Mof_H 	H 	0.2625	0.8836	0.5285	-0.055
Mof_H 	H 	0.249	0.8626	0.277	0.132
Mof_H 	H 	0.3376	0.931	0.4678	0.152
Mof_H 	H 	0.1897	0.9821	0.269	0.3
Mof_H 	H 	0.1814	0.9527	0.3272	0.29
Mof_H 	H 	0.1897	0.933	0.2423	0.294
Mof_H 	H 	0.5753	0.8854	0.3407	0.331
Mof_H 	H 	0.4751	0.8721	0.3704	0.322
Mof_H 	H 	0.5366	0.9084	0.4185	0.305
Mof_H 	H 	0.2759	0.7722	0.6954	0.044
Mof_H 	H 	0.3695	0.823	0.6571	0.034
Mof_H 	H 	0.8225	0.8244	0.5865	-0.018
Mof_H 	H 	0.7501	0.8704	0.5233	0.133
Mof_H 	H 	0.7329	0.889	0.7739	-0.053
Mof_H 	H 	0.6598	0.9372	0.715	0.151
Mof_H 	H 	0.8099	0.9451	0.4944	0.295
Mof_H 	H 	0.814	0.9625	0.5803	0.293
Mof_H 	H 	0.8059	0.9939	0.5253	0.302
Mof_H 	H 	0.4757	0.9095	0.6643	0.3
Mof_H 	H 	0.5189	0.8747	0.6009	0.315
Mof_H 	H 	0.4173	0.895	0.5902	0.315
Mof_H 	H 	0.4126	0.9014	0.1031	0.329
Mof_H 	H 	0.4926	0.9067	0.1653	0.305
Mof_H 	H 	0.5073	0.8737	0.0912	0.325
Mof_H 	H 	0.8091	0.9505	0.9869	0.346
Mof_H 	H 	0.8149	0.9565	0.0737	0.324
Mof_H 	H 	0.806	0.9959	0.0361	0.333
Mof_H 	H 	0.7431	0.8731	0.0088	0.117
Mof_H 	H 	0.6685	0.9289	0.2134	0.143
Mof_H 	H 	0.7503	0.8766	0.2567	-0.03
Mof_H 	H 	0.8233	0.8229	0.0561	-0.011
Mof_H 	H 	0.7871	0.723	0.2818	0.053
Mof_H 	H 	0.8782	0.6739	0.3263	0.046
Mof_H 	H 	0.1303	0.676	0.0671	0.039
Mof_H 	H 	0.2241	0.7232	0.0202	0.053
Mof_H 	H 	0.1914	0.8243	0.7987	-0.007
Mof_H 	H 	0.2547	0.8813	0.9986	-0.024
Mof_H 	H 	0.3332	0.9344	0.955	0.144
Mof_H 	H 	0.2632	0.8761	0.7498	0.118
Mof_H 	H 	0.1967	0.9968	0.7657	0.296
Mof_H 	H 	0.1884	0.9623	0.8148	0.284
Mof_H 	H 	0.1982	0.9488	0.7282	0.285
Mof_H 	H 	0.5934	0.909	0.8514	0.313
Mof_H 	H 	0.5037	0.8788	0.8315	0.311
Mof_H 	H 	0.5075	0.9102	0.9083	0.3
Mof_H 	H 	0.7228	0.7747	0.9335	0.048
Mof_H 	H 	0.6355	0.8294	0.9037	0.036
Mof_H 	H 	0.6776	0.6838	0.1594	-0.008
Mof_H 	H 	0.7625	0.6164	0.9715	-0.02
Mof_H 	H 	0.749	0.6374	0.223	0.131
Mof_H 	H 	0.8376	0.569	0.0322	0.134
Mof_H 	H 	0.6897	0.5179	0.231	0.295
Mof_H 	H 	0.6814	0.5473	0.1728	0.286
Mof_H 	H 	0.6897	0.567	0.2577	0.295
Mof_H 	H 	0.0753	0.6146	0.1593	0.347
Mof_H 	H 	0.9751	0.6279	0.1296	0.344
Mof_H 	H 	0.0366	0.5916	0.0815	0.316
Mof_H 	H 	0.7759	0.7278	0.8046	0.043
Mof_H 	H 	0.8695	0.677	0.8429	0.038
Mof_H 	H 	0.3225	0.6756	0.9135	-0.012
Mof_H 	H 	0.2501	0.6296	0.9767	0.136
Mof_H 	H 	0.2329	0.611	0.7261	-0.054
Mof_H 	H 	0.1598	0.5628	0.785	0.143
Mof_H 	H 	0.3099	0.5549	0.0056	0.242
Mof_H 	H 	0.314	0.5375	0.9197	0.256
Mof_H 	H 	0.3059	0.5061	0.9747	0.266
Mof_H 	H 	0.9757	0.5905	0.8357	0.27
Mof_H 	H 	0.0189	0.6253	0.8991	0.276
Mof_H 	H 	0.9173	0.605	0.9098	0.286
Mof_H 	H 	0.0874	0.4014	0.6031	0.359
Mof_H 	H 	0.0074	0.4067	0.6653	0.328
Mof_H 	H 	0.9927	0.3737	0.5912	0.364
Mof_H 	H 	0.6909	0.4505	0.4869	0.295
Mof_H 	H 	0.6851	0.4565	0.5737	0.292
Mof_H 	H 	0.694	0.4959	0.5361	0.299
Mof_H 	H 	0.7569	0.3731	0.5088	0.125
Mof_H 	H 	0.8315	0.4289	0.7134	0.141
Mof_H 	H 	0.7497	0.3766	0.7567	-0.03
Mof_H 	H 	0.6767	0.3229	0.5561	-0.005
Mof_H 	H 	0.7129	0.223	0.7818	0.053
Mof_H 	H 	0.6218	0.1739	0.8263	0.048
Mof_H 	H 	0.3697	0.176	0.5671	0.045
Mof_H 	H 	0.2759	0.2232	0.5202	0.051
Mof_H 	H 	0.3086	0.3243	0.2987	-0.006
Mof_H 	H 	0.2453	0.3813	0.4986	-0.031
Mof_H 	H 	0.1668	0.4344	0.455	0.135
Mof_H 	H 	0.2368	0.3761	0.2498	0.116
Mof_H 	H 	0.3033	0.4968	0.2657	0.285
Mof_H 	H 	0.3116	0.4623	0.3148	0.275
Mof_H 	H 	0.3018	0.4488	0.2282	0.278
Mof_H 	H 	0.9066	0.409	0.3514	0.298
Mof_H 	H 	0.9963	0.3788	0.3315	0.302
Mof_H 	H 	0.9925	0.4102	0.4083	0.286
Mof_H 	H 	0.7772	0.2747	0.4335	0.044
Mof_H 	H 	0.8645	0.3294	0.4037	0.034
Mof_H 	H 	0.8224	0.1838	0.6594	-0.008
Mof_H 	H 	0.7375	0.1164	0.4715	-0.055
Mof_H 	H 	0.751	0.1374	0.723	0.134
Mof_H 	H 	0.6624	0.069	0.5322	0.146
Mof_H 	H 	0.8103	0.0179	0.731	0.293
Mof_H 	H 	0.8186	0.0473	0.6728	0.285
Mof_H 	H 	0.8103	0.067	0.7577	0.296
Mof_H 	H 	0.4247	0.1146	0.6593	0.331
Mof_H 	H 	0.5249	0.1279	0.6296	0.322
Mof_H 	H 	0.4634	0.0916	0.5815	0.304
Mof_H 	H 	0.7241	0.2278	0.3046	0.045
Mof_H 	H 	0.6305	0.177	0.3429	0.034
Mof_H 	H 	0.1775	0.1756	0.4135	-0.018
Mof_H 	H 	0.2499	0.1296	0.4767	0.131
Mof_H 	H 	0.2671	0.111	0.2261	-0.057
Mof_H 	H 	0.3402	0.0628	0.285	0.143
Mof_H 	H 	0.1901	0.0549	0.5056	0.28
Mof_H 	H 	0.186	0.0375	0.4197	0.275
Mof_H 	H 	0.1941	0.0061	0.4747	0.28
Mof_H 	H 	0.5243	0.0905	0.3357	0.299
Mof_H 	H 	0.4811	0.1253	0.3991	0.315
Mof_H 	H 	0.5827	0.105	0.4098	0.314
Mof_H 	H 	0.5874	0.0986	0.8969	0.335
Mof_H 	H 	0.5074	0.0933	0.8347	0.304
Mof_H 	H 	0.4927	0.1263	0.9088	0.333
Mof_H 	H 	0.1909	0.0495	0.0131	0.243
Mof_H 	H 	0.1851	0.0435	0.9263	0.256
Mof_H 	H 	0.194	0.0041	0.9639	0.262
Mof_H 	H 	0.2569	0.1269	0.9912	0.128
Mof_H 	H 	0.3315	0.0711	0.7866	0.134
Mof_H 	H 	0.2497	0.1234	0.7433	-0.031
Mof_H 	H 	0.1767	0.1771	0.9439	0.001
Mof_H 	H 	0.2129	0.277	0.7182	0.051
Mof_H 	H 	0.1218	0.3261	0.6737	0.049
Mof_H 	H 	0.8697	0.324	0.9329	0.052
Mof_H 	H 	0.7759	0.2768	0.9798	0.048
Mof_H 	H 	0.8086	0.1757	0.2013	-0.006
Mof_H 	H 	0.7453	0.1187	0.0014	-0.038
Mof_H 	H 	0.6668	0.0656	0.045	0.13
Mof_H 	H 	0.7368	0.1239	0.2502	0.118
Mof_H 	H 	0.8033	0.0032	0.2343	0.28
Mof_H 	H 	0.8116	0.0377	0.1852	0.271
Mof_H 	H 	0.8018	0.0512	0.2718	0.278
Mof_H 	H 	0.4066	0.091	0.1486	0.302
Mof_H 	H 	0.4963	0.1212	0.1685	0.306
Mof_H 	H 	0.4925	0.0898	0.0917	0.285
Mof_H 	H 	0.2772	0.2253	0.0665	0.043
Mof_H 	H 	0.3645	0.1706	0.0963	0.03
Mof_H 	H 	0.3224	0.3162	0.8406	-0.01
Mof_H 	H 	0.2375	0.3836	0.0285	-0.084
Mof_H 	H 	0.251	0.3626	0.777	0.134
Mof_H 	H 	0.1624	0.431	0.9678	0.16
Mof_H 	H 	0.3103	0.4821	0.769	0.295
Mof_H 	H 	0.3186	0.4527	0.8272	0.287
Mof_H 	H 	0.3103	0.433	0.7423	0.293
Mof_H 	H 	0.9247	0.3854	0.8407	0.305
Mof_H 	H 	0.0249	0.3721	0.8704	0.286
Mof_H 	H 	0.9634	0.4084	0.9185	0.286
Mof_H 	H 	0.2241	0.2722	0.1954	0.045
Mof_H 	H 	0.1305	0.323	0.1571	0.032
Mof_H 	H 	0.6775	0.3244	0.0865	-0.024
Mof_H 	H 	0.7499	0.3704	0.0233	0.127
Mof_H 	H 	0.7671	0.389	0.2739	-0.056
Mof_H 	H 	0.8402	0.4372	0.215	0.15
Mof_H 	H 	0.6901	0.4451	0.9944	0.338
Mof_H 	H 	0.686	0.4625	0.0803	0.313
Mof_H 	H 	0.6941	0.4939	0.0253	0.318
Mof_H 	H 	0.0243	0.4095	0.1643	0.317
Mof_H 	H 	0.9811	0.3747	0.1009	0.338
Mof_H 	H 	0.0827	0.395	0.0902	0.331
Mof_C 	C 	0.9814	0.59901	0.3874	-0.878
Mof_C 	C 	0.0307	0.56622	0.421	0.465
Mof_C 	C 	0.1325	0.56346	0.426	-0.445
Mof_C 	C 	0.1793	0.53545	0.4632	0.505
Mof_C 	C 	0.2867	0.5329	0.467	-0.918
Mof_C 	C 	0.1927	0.5941	0.3944	0.269
Mof_C 	C 	0.2421	0.62593	0.4402	-0.273
Mof_C 	C 	0.1979	0.59299	0.3199	-0.291
Mof_C 	C 	0.2469	0.62448	0.2943	0.146
Mof_C 	C 	0.2897	0.65605	0.4117	0.143
Mof_C 	C 	0.5345	0.71825	0.304	0.296
Mof_C 	C 	0.4936	0.75198	0.2677	-0.021
Mof_C 	C 	0.3545	0.77777	0.2246	0.02
Mof_C 	C 	0.4095	0.80753	0.1989	0.006
Mof_C 	C 	0.5468	0.78312	0.2432	-0.002
Mof_C 	C 	0.6536	0.79007	0.2543	0.319
Mof_C 	C 	0.3535	0.77148	0.4776	0.337
Mof_C 	C 	0.4615	0.77311	0.485	-0.017
Mof_C 	C 	0.5171	0.74457	0.514	-0.015
Mof_C 	C 	0.5994	0.8038	0.4546	0.008
Mof_C 	C 	0.6564	0.77542	0.4819	0.017
Mof_C 	C 	0.4774	0.71036	0.55	0.294
Mof_C 	C 	0.7219	0.65353	0.6694	0.15
Mof_C 	C 	0.7596	0.62025	0.5524	0.151
Mof_C 	C 	0.8066	0.58831	0.5781	-0.293
Mof_C 	C 	0.7657	0.62293	0.6992	-0.282
Mof_C 	C 	0.8137	0.59063	0.6536	0.28
Mof_C 	C 	0.7177	0.5308	0.7289	-0.908
Mof_C 	C 	0.8255	0.53127	0.7217	0.513
Mof_C 	C 	0.8724	0.55928	0.6838	-0.466
Mof_C 	C 	0.9736	0.56084	0.6771	0.521
Mof_C 	C 	0.0241	0.59362	0.6435	-0.962
Mof_C 	C 	0.98	0.77798	0.4647	0.326
Mof_C 	C 	0.0212	0.74554	0.5038	-0.05
Mof_C 	C 	0.1569	0.7226	0.5546	0.016
Mof_C 	C 	0.104	0.6899	0.5728	0.013
Mof_C 	C 	0.9682	0.71307	0.5229	0.023
Mof_C 	C 	0.8622	0.70511	0.5071	0.315
Mof_C 	C 	0.2115	0.83938	0.3668	0.149
Mof_C 	C 	0.2614	0.8787	0.4768	0.162
Mof_C 	C 	0.2549	0.86694	0.3284	-0.291
Mof_C 	C 	0.307	0.90728	0.4404	-0.315
Mof_C 	C 	0.3068	0.90068	0.3655	0.293
Mof_C 	C 	0.2102	0.9558	0.2809	-0.928
Mof_C 	C 	0.318	0.95536	0.2875	0.514
Mof_C 	C 	0.3654	0.92894	0.3275	-0.465
Mof_C 	C 	0.4671	0.92691	0.3329	0.507
Mof_C 	C 	0.5181	0.89538	0.3688	-0.956
Mof_C 	C 	0.6445	0.77444	0.7213	0.347
Mof_C 	C 	0.5173	0.7131	0.7874	0.297
Mof_C 	C 	0.4789	0.74526	0.7465	-0.019
Mof_C 	C 	0.5355	0.77539	0.7223	-0.018
Mof_C 	C 	0.3431	0.77249	0.7028	0.02
Mof_C 	C 	0.3996	0.80309	0.68	0.009
Mof_C 	C 	0.7871	0.84695	0.6129	0.162
Mof_C 	C 	0.7438	0.87452	0.5747	-0.299
Mof_C 	C 	0.735	0.88475	0.7223	0.168
Mof_C 	C 	0.6905	0.91373	0.6871	-0.318
Mof_C 	C 	0.6914	0.90815	0.6124	0.298
Mof_C 	C 	0.7866	0.9667	0.5342	-0.928
Mof_C 	C 	0.6789	0.96469	0.5379	0.518
Mof_C 	C 	0.6321	0.93644	0.5754	-0.466
Mof_C 	C 	0.5304	0.93344	0.5789	0.499
Mof_C 	C 	0.4812	0.90021	0.6115	-0.942
Mof_C 	C 	0.4814	0.90099	0.1126	-0.967
Mof_C 	C 	0.5307	0.93378	0.079	0.514
Mof_C 	C 	0.6325	0.93654	0.074	-0.48
Mof_C 	C 	0.6793	0.96455	0.0368	0.551
Mof_C 	C 	0.7867	0.9671	0.033	-1.047
Mof_C 	C 	0.6927	0.9059	0.1056	0.283
Mof_C 	C 	0.7421	0.87407	0.0598	-0.285
Mof_C 	C 	0.6979	0.90701	0.1801	-0.3
Mof_C 	C 	0.7469	0.87552	0.2057	0.151
Mof_C 	C 	0.7897	0.84395	0.0883	0.147
Mof_C 	C 	0.0345	0.78175	0.196	0.275
Mof_C 	C 	0.9936	0.74802	0.2323	0
Mof_C 	C 	0.8545	0.72223	0.2754	0.018
Mof_C 	C 	0.9095	0.69247	0.3011	0.017
Mof_C 	C 	0.0468	0.71688	0.2568	-0.016
Mof_C 	C 	0.1536	0.70993	0.2457	0.323
Mof_C 	C 	0.8535	0.72852	0.0224	0.306
Mof_C 	C 	0.9615	0.72689	0.015	-0.012
Mof_C 	C 	0.0171	0.75543	0.986	-0.023
Mof_C 	C 	0.0994	0.6962	0.0454	0.014
Mof_C 	C 	0.1564	0.72458	0.0181	-0.008
Mof_C 	C 	0.9774	0.78964	0.95	0.323
Mof_C 	C 	0.2219	0.84647	0.8306	0.148
Mof_C 	C 	0.2596	0.87975	0.9476	0.15
Mof_C 	C 	0.3066	0.91169	0.9219	-0.289
Mof_C 	C 	0.2657	0.87707	0.8008	-0.279
Mof_C 	C 	0.3137	0.90937	0.8464	0.274
Mof_C 	C 	0.2177	0.9692	0.7711	-0.906
Mof_C 	C 	0.3255	0.96873	0.7783	0.509
Mof_C 	C 	0.3724	0.94072	0.8162	-0.454
Mof_C 	C 	0.4736	0.93916	0.8229	0.491
Mof_C 	C 	0.5241	0.90638	0.8565	-0.929
Mof_C 	C 	0.48	0.72202	0.0353	0.275
Mof_C 	C 	0.5212	0.75446	0.9962	0.004
Mof_C 	C 	0.6569	0.7774	0.9454	0.025
Mof_C 	C 	0.604	0.8101	0.9272	0.012
Mof_C 	C 	0.4682	0.78693	0.9771	-0.013
Mof_C 	C 	0.3622	0.79489	0.9929	0.353
Mof_C 	C 	0.7115	0.66062	0.1332	0.143
Mof_C 	C 	0.7614	0.6213	0.0232	0.109
Mof_C 	C 	0.7549	0.63306	0.1716	-0.284
Mof_C 	C 	0.807	0.59272	0.0596	-0.289
Mof_C 	C 	0.8068	0.59932	0.1345	0.283
Mof_C 	C 	0.7102	0.5442	0.2191	-0.926
Mof_C 	C 	0.818	0.54464	0.2125	0.515
Mof_C 	C 	0.8654	0.57106	0.1725	-0.474
Mof_C 	C 	0.9671	0.57309	0.1671	0.538
Mof_C 	C 	0.0181	0.60462	0.1312	-1.019
Mof_C 	C 	0.1445	0.72556	0.7787	0.356
Mof_C 	C 	0.0173	0.7869	0.7126	0.266
Mof_C 	C 	0.9789	0.75474	0.7535	0.014
Mof_C 	C 	0.0355	0.72461	0.7777	-0.047
Mof_C 	C 	0.8431	0.72751	0.7972	0.025
Mof_C 	C 	0.8996	0.69691	0.82	0.008
Mof_C 	C 	0.2871	0.65305	0.8871	0.157
Mof_C 	C 	0.2438	0.62548	0.9253	-0.286
Mof_C 	C 	0.235	0.61525	0.7777	0.161
Mof_C 	C 	0.1905	0.58627	0.8129	-0.307
Mof_C 	C 	0.1914	0.59185	0.8876	0.281
Mof_C 	C 	0.2866	0.5333	0.9658	-0.808
Mof_C 	C 	0.1789	0.53531	0.9621	0.472
Mof_C 	C 	0.1321	0.56356	0.9246	-0.427
Mof_C 	C 	0.0304	0.56656	0.9211	0.436
Mof_C 	C 	0.9812	0.59979	0.8885	-0.826
Mof_C 	C 	0.0186	0.40099	0.6126	-1.062
Mof_C 	C 	0.9693	0.43378	0.579	0.559
Mof_C 	C 	0.8675	0.43654	0.574	-0.484
Mof_C 	C 	0.8207	0.46455	0.5368	0.525
Mof_C 	C 	0.7133	0.4671	0.533	-0.939
Mof_C 	C 	0.8073	0.4059	0.6056	0.287
Mof_C 	C 	0.7579	0.37407	0.5598	-0.285
Mof_C 	C 	0.8021	0.40701	0.6801	-0.301
Mof_C 	C 	0.7531	0.37552	0.7057	0.152
Mof_C 	C 	0.7103	0.34395	0.5883	0.15
Mof_C 	C 	0.4655	0.28175	0.696	0.296
Mof_C 	C 	0.5064	0.24802	0.7323	-0.021
Mof_C 	C 	0.6455	0.22223	0.7754	0.019
Mof_C 	C 	0.5905	0.19247	0.8011	0.009
Mof_C 	C 	0.4532	0.21688	0.7568	-0.001
Mof_C 	C 	0.3464	0.20993	0.7457	0.319
Mof_C 	C 	0.6465	0.22852	0.5224	0.337
Mof_C 	C 	0.5385	0.22689	0.515	-0.017
Mof_C 	C 	0.4829	0.25543	0.486	-0.015
Mof_C 	C 	0.4006	0.1962	0.5454	0.008
Mof_C 	C 	0.3436	0.22458	0.5181	0.017
Mof_C 	C 	0.5226	0.28964	0.45	0.294
Mof_C 	C 	0.2781	0.34647	0.3306	0.145
Mof_C 	C 	0.2404	0.37975	0.4476	0.146
Mof_C 	C 	0.1934	0.41169	0.4219	-0.288
Mof_C 	C 	0.2343	0.37707	0.3008	-0.275
Mof_C 	C 	0.1863	0.40937	0.3464	0.267
Mof_C 	C 	0.2823	0.4692	0.2711	-0.89
Mof_C 	C 	0.1745	0.46873	0.2783	0.498
Mof_C 	C 	0.1276	0.44072	0.3162	-0.445
Mof_C 	C 	0.0264	0.43916	0.3229	0.46
Mof_C 	C 	0.9759	0.40638	0.3565	-0.888
Mof_C 	C 	0.02	0.22202	0.5353	0.27
Mof_C 	C 	0.9788	0.25446	0.4962	0.006
Mof_C 	C 	0.8431	0.2774	0.4454	0.024
Mof_C 	C 	0.896	0.3101	0.4272	0.008
Mof_C 	C 	0.0318	0.28693	0.4771	-0.03
Mof_C 	C 	0.1378	0.29489	0.4929	0.329
Mof_C 	C 	0.7885	0.16062	0.6332	0.149
Mof_C 	C 	0.7386	0.1213	0.5232	0.161
Mof_C 	C 	0.7451	0.13306	0.6716	-0.29
Mof_C 	C 	0.693	0.09272	0.5596	-0.315
Mof_C 	C 	0.6932	0.09932	0.6345	0.291
Mof_C 	C 	0.7898	0.0442	0.7191	-0.924
Mof_C 	C 	0.682	0.04464	0.7125	0.51
Mof_C 	C 	0.6346	0.07106	0.6725	-0.468
Mof_C 	C 	0.5329	0.07309	0.6671	0.507
Mof_C 	C 	0.4819	0.10462	0.6312	-0.957
Mof_C 	C 	0.3555	0.22556	0.2787	0.348
Mof_C 	C 	0.4827	0.2869	0.2126	0.297
Mof_C 	C 	0.5211	0.25474	0.2535	-0.019
Mof_C 	C 	0.4645	0.22461	0.2777	-0.018
Mof_C 	C 	0.6569	0.22751	0.2972	0.02
Mof_C 	C 	0.6004	0.19691	0.32	0.01
Mof_C 	C 	0.2129	0.15305	0.3871	0.159
Mof_C 	C 	0.2562	0.12548	0.4253	-0.298
Mof_C 	C 	0.265	0.11525	0.2777	0.164
Mof_C 	C 	0.3095	0.08627	0.3129	-0.317
Mof_C 	C 	0.3086	0.09185	0.3876	0.294
Mof_C 	C 	0.2134	0.0333	0.4658	-0.897
Mof_C 	C 	0.3211	0.03531	0.4621	0.505
Mof_C 	C 	0.3679	0.06356	0.4246	-0.466
Mof_C 	C 	0.4696	0.06656	0.4211	0.498
Mof_C 	C 	0.5188	0.09979	0.3885	-0.942
Mof_C 	C 	0.5186	0.09901	0.8874	-0.966
Mof_C 	C 	0.4693	0.06622	0.921	0.505
Mof_C 	C 	0.3675	0.06346	0.926	-0.447
Mof_C 	C 	0.3207	0.03545	0.9632	0.481
Mof_C 	C 	0.2133	0.0329	0.967	-0.82
Mof_C 	C 	0.3073	0.0941	0.8944	0.271
Mof_C 	C 	0.2579	0.12593	0.9402	-0.272
Mof_C 	C 	0.3021	0.09299	0.8199	-0.292
Mof_C 	C 	0.2531	0.12448	0.7943	0.146
Mof_C 	C 	0.2103	0.15605	0.9117	0.145
Mof_C 	C 	0.9655	0.21825	0.804	0.327
Mof_C 	C 	0.0064	0.25198	0.7677	-0.049
Mof_C 	C 	0.1455	0.27777	0.7246	0.022
Mof_C 	C 	0.0905	0.30753	0.6989	-0.004
Mof_C 	C 	0.9532	0.28312	0.7432	0.018
Mof_C 	C 	0.8464	0.29007	0.7543	0.313
Mof_C 	C 	0.1465	0.27148	0.9776	0.364
Mof_C 	C 	0.0385	0.27311	0.985	-0.023
Mof_C 	C 	0.9829	0.24457	0.014	-0.015
Mof_C 	C 	0.9006	0.3038	0.9546	0.002
Mof_C 	C 	0.8436	0.27542	0.9819	0.049
Mof_C 	C 	0.0226	0.21036	0.05	0.278
Mof_C 	C 	0.7781	0.15353	0.1694	0.146
Mof_C 	C 	0.7404	0.12025	0.0524	0.146
Mof_C 	C 	0.6934	0.08831	0.0781	-0.292
Mof_C 	C 	0.7343	0.12293	0.1992	-0.277
Mof_C 	C 	0.6863	0.09063	0.1536	0.271
Mof_C 	C 	0.7823	0.0308	0.2289	-0.888
Mof_C 	C 	0.6745	0.03127	0.2217	0.5
Mof_C 	C 	0.6276	0.05928	0.1838	-0.455
Mof_C 	C 	0.5264	0.06084	0.1771	0.484
Mof_C 	C 	0.4759	0.09362	0.1435	-0.913
Mof_C 	C 	0.52	0.27798	0.9647	0.322
Mof_C 	C 	0.4788	0.24554	0.0038	-0.048
Mof_C 	C 	0.3431	0.2226	0.0546	0.016
Mof_C 	C 	0.396	0.1899	0.0728	0.009
Mof_C 	C 	0.5318	0.21307	0.0229	0.005
Mof_C 	C 	0.6378	0.20511	0.0071	0.288
Mof_C 	C 	0.2885	0.33938	0.8668	0.152
Mof_C 	C 	0.2386	0.3787	0.9768	0.206
Mof_C 	C 	0.2451	0.36694	0.8284	-0.294
Mof_C 	C 	0.193	0.40728	0.9404	-0.334
Mof_C 	C 	0.1932	0.40068	0.8655	0.296
Mof_C 	C 	0.2898	0.4558	0.7809	-0.919
Mof_C 	C 	0.182	0.45536	0.7875	0.503
Mof_C 	C 	0.1346	0.42894	0.8275	-0.45
Mof_C 	C 	0.0329	0.42691	0.8329	0.458
Mof_C 	C 	0.9819	0.39538	0.8688	-0.86
Mof_C 	C 	0.8555	0.27444	0.2213	0.341
Mof_C 	C 	0.9827	0.2131	0.2874	0.32
Mof_C 	C 	0.0211	0.24526	0.2465	-0.042
Mof_C 	C 	0.9645	0.27539	0.2223	0.002
Mof_C 	C 	0.1569	0.27249	0.2028	0.017
Mof_C 	C 	0.1004	0.30309	0.18	0.011
Mof_C 	C 	0.7129	0.34695	0.1129	0.162
Mof_C 	C 	0.7562	0.37452	0.0747	-0.309
Mof_C 	C 	0.765	0.38475	0.2223	0.169
Mof_C 	C 	0.8095	0.41373	0.1871	-0.325
Mof_C 	C 	0.8086	0.40815	0.1124	0.307
Mof_C 	C 	0.7134	0.4667	0.0342	-1.024
Mof_C 	C 	0.8211	0.46469	0.0379	0.549
Mof_C 	C 	0.8679	0.43644	0.0754	-0.497
Mof_C 	C 	0.9696	0.43344	0.0789	0.538
Mof_C 	C 	0.0188	0.40021	0.1115	-1.013
Mof_N 	N 	0.2898	0.65658	0.3401	-0.245
Mof_N 	N 	0.3977	0.75046	0.2583	-0.184
Mof_N 	N 	0.5041	0.8108	0.2085	-0.104
Mof_N 	N 	0.5043	0.80401	0.4573	-0.105
Mof_N 	N 	0.613	0.74612	0.5112	-0.183
Mof_N 	N 	0.7206	0.65333	0.5978	-0.246
Mof_N 	N 	0.1149	0.74995	0.5204	-0.182
Mof_N 	N 	0.0106	0.68501	0.5582	-0.116
Mof_N 	N 	0.2169	0.84501	0.4405	-0.257
Mof_N 	N 	0.3838	0.74371	0.7348	-0.186
Mof_N 	N 	0.4946	0.80492	0.6899	-0.105
Mof_N 	N 	0.7804	0.8512	0.6851	-0.261
Mof_N 	N 	0.7898	0.84342	0.1599	-0.247
Mof_N 	N 	0.8977	0.74954	0.2417	-0.185
Mof_N 	N 	0.0041	0.6892	0.2915	-0.108
Mof_N 	N 	0.0043	0.69599	0.0427	-0.115
Mof_N 	N 	0.113	0.75388	0.9888	-0.169
Mof_N 	N 	0.2206	0.84667	0.9022	-0.245
Mof_N 	N 	0.6149	0.75005	0.9796	-0.185
Mof_N 	N 	0.5106	0.81499	0.9418	-0.101
Mof_N 	N 	0.7169	0.65499	0.0595	-0.249
Mof_N 	N 	0.8838	0.75629	0.7652	-0.191
Mof_N 	N 	0.9946	0.69508	0.8101	-0.091
Mof_N 	N 	0.2804	0.6488	0.8149	-0.258
Mof_N 	N 	0.7102	0.34342	0.6599	-0.247
Mof_N 	N 	0.6023	0.24954	0.7417	-0.183
Mof_N 	N 	0.4959	0.1892	0.7915	-0.103
Mof_N 	N 	0.4957	0.19599	0.5427	-0.105
Mof_N 	N 	0.387	0.25388	0.4888	-0.183
Mof_N 	N 	0.2794	0.34667	0.4022	-0.245
Mof_N 	N 	0.8851	0.25005	0.4796	-0.192
Mof_N 	N 	0.9894	0.31499	0.4418	-0.096
Mof_N 	N 	0.7831	0.15499	0.5595	-0.256
Mof_N 	N 	0.6162	0.25629	0.2652	-0.186
Mof_N 	N 	0.5054	0.19508	0.3101	-0.105
Mof_N 	N 	0.2196	0.1488	0.3149	-0.261
Mof_N 	N 	0.2102	0.15658	0.8401	-0.244
Mof_N 	N 	0.1023	0.25046	0.7583	-0.18
Mof_N 	N 	0.9959	0.3108	0.7085	-0.099
Mof_N 	N 	0.9957	0.30401	0.9573	-0.091
Mof_N 	N 	0.887	0.24612	0.0112	-0.199
Mof_N 	N 	0.7794	0.15333	0.0978	-0.247
Mof_N 	N 	0.3851	0.24995	0.0204	-0.189
Mof_N 	N 	0.4894	0.18501	0.0582	-0.11
Mof_N 	N 	0.2831	0.34501	0.9405	-0.262
Mof_N 	N 	0.1162	0.24371	0.2348	-0.183
Mof_N 	N 	0.0054	0.30492	0.1899	-0.115
Mof_N 	N 	0.7196	0.3512	0.1851	-0.262
Mof_O 	O 	0.1347	0.50985	0.4964	-0.453
Mof_O 	O 	0.9717	0.54267	0.4474	-0.442
Mof_O 	O 	0.4719	0.69391	0.3234	-0.372
Mof_O 	O 	0.6226	0.71579	0.3113	-0.243
Mof_O 	O 	0.7053	0.77215	0.2012	-0.376
Mof_O 	O 	0.6819	0.81455	0.3093	-0.293
Mof_O 	O 	0.3182	0.75059	0.42119	-0.373
Mof_O 	O 	0.3048	0.79462	0.52778	-0.39
Mof_O 	O 	0.3892	0.70685	0.55628	-0.258
Mof_O 	O 	0.5406	0.68763	0.573	-0.377
Mof_O 	O 	0.0322	0.53541	0.6997	-0.473
Mof_O 	O 	0.8696	0.50497	0.7525	-0.455
Mof_O 	O 	0.0411	0.80458	0.4514	-0.389
Mof_O 	O 	0.8939	0.77704	0.4483	-0.246
Mof_O 	O 	0.807	0.72411	0.5561	-0.375
Mof_O 	O 	0.8385	0.67912	0.452	-0.289
Mof_O 	O 	0.3618	0.98117	0.2541	-0.449
Mof_O 	O 	0.5256	0.95092	0.3067	-0.461
Mof_O 	O 	0.6842	0.74996	0.6718	-0.376
Mof_O 	O 	0.6884	0.80072	0.7691	-0.392
Mof_O 	O 	0.6037	0.71342	0.80368	-0.256
Mof_O 	O 	0.4549	0.68737	0.8018	-0.38
Mof_O 	O 	0.6352	0.99041	0.5053	-0.45
Mof_O 	O 	0.4719	0.95733	0.5522	-0.458
Mof_O 	O 	0.6347	0.99015	0.0036	-0.463
Mof_O 	O 	0.4717	0.95733	0.0526	-0.464
Mof_O 	O 	0.9719	0.80609	0.1766	-0.362
Mof_O 	O 	0.1226	0.78421	0.1887	-0.24
Mof_O 	O 	0.2053	0.72785	0.2988	-0.377
Mof_O 	O 	0.1819	0.68545	0.1907	-0.297
Mof_O 	O 	0.8182	0.74941	0.07881	-0.368
Mof_O 	O 	0.8048	0.70538	0.97222	-0.362
Mof_O 	O 	0.8892	0.79315	0.94372	-0.255
Mof_O 	O 	0.0406	0.81237	0.927	-0.39
Mof_O 	O 	0.5322	0.96459	0.8003	-0.449
Mof_O 	O 	0.3696	0.99503	0.7475	-0.448
Mof_O 	O 	0.5411	0.69542	0.0486	-0.376
Mof_O 	O 	0.3939	0.72296	0.0517	-0.242
Mof_O 	O 	0.307	0.77589	0.9439	-0.382
Mof_O 	O 	0.3385	0.82088	0.048	-0.318
Mof_O 	O 	0.8618	0.51883	0.2459	-0.454
Mof_O 	O 	0.0256	0.54908	0.1933	-0.481
Mof_O 	O 	0.1842	0.75004	0.8282	-0.379
Mof_O 	O 	0.1884	0.69928	0.7309	-0.396
Mof_O 	O 	0.1037	0.78658	0.69632	-0.251
Mof_O 	O 	0.9549	0.81263	0.6982	-0.365
Mof_O 	O 	0.1352	0.50959	0.9947	-0.438
Mof_O 	O 	0.9719	0.54267	0.9478	-0.425
Mof_O 	O 	0.8653	0.49015	0.5036	-0.456
Mof_O 	O 	0.0283	0.45733	0.5526	-0.482
Mof_O 	O 	0.5281	0.30609	0.6766	-0.371
Mof_O 	O 	0.3774	0.28421	0.6887	-0.243
Mof_O 	O 	0.2947	0.22785	0.7988	-0.374
Mof_O 	O 	0.3181	0.18545	0.6907	-0.294
Mof_O 	O 	0.6818	0.24941	0.57881	-0.373
Mof_O 	O 	0.6952	0.20538	0.47222	-0.39
Mof_O 	O 	0.6108	0.29315	0.44372	-0.258
Mof_O 	O 	0.4594	0.31237	0.427	-0.377
Mof_O 	O 	0.9678	0.46459	0.3003	-0.444
Mof_O 	O 	0.1304	0.49503	0.2475	-0.458
Mof_O 	O 	0.9589	0.19542	0.5486	-0.362
Mof_O 	O 	0.1061	0.22296	0.5517	-0.235
Mof_O 	O 	0.193	0.27589	0.4439	-0.381
Mof_O 	O 	0.1615	0.32088	0.548	-0.299
Mof_O 	O 	0.6382	0.01883	0.7459	-0.459
Mof_O 	O 	0.4744	0.04908	0.6933	-0.469
Mof_O 	O 	0.3158	0.25004	0.3282	-0.377
Mof_O 	O 	0.3116	0.19928	0.2309	-0.394
Mof_O 	O 	0.3963	0.28658	0.19632	-0.258
Mof_O 	O 	0.5451	0.31263	0.1982	-0.383
Mof_O 	O 	0.3648	0.00959	0.4947	-0.463
Mof_O 	O 	0.5281	0.04267	0.4478	-0.468
Mof_O 	O 	0.3653	0.00985	0.9964	-0.442
Mof_O 	O 	0.5283	0.04267	0.9474	-0.453
Mof_O 	O 	0.0281	0.19391	0.8234	-0.385
Mof_O 	O 	0.8774	0.21579	0.8113	-0.247
Mof_O 	O 	0.7947	0.27215	0.7012	-0.373
Mof_O 	O 	0.8181	0.31455	0.8093	-0.289
Mof_O 	O 	0.1818	0.25059	0.92119	-0.377
Mof_O 	O 	0.1952	0.29462	0.02778	-0.413
Mof_O 	O 	0.1108	0.20685	0.05628	-0.263
Mof_O 	O 	0.9594	0.18763	0.073	-0.372
Mof_O 	O 	0.4678	0.03541	0.1997	-0.465
Mof_O 	O 	0.6304	0.00497	0.2525	-0.465
Mof_O 	O 	0.4589	0.30458	0.9514	-0.375
Mof_O 	O 	0.6061	0.27704	0.9483	-0.238
Mof_O 	O 	0.693	0.22411	0.0561	-0.374
Mof_O 	O 	0.6615	0.17912	0.952	-0.266
Mof_O 	O 	0.1382	0.48117	0.7541	-0.452
Mof_O 	O 	0.9744	0.45092	0.8067	-0.441
Mof_O 	O 	0.8158	0.24996	0.1718	-0.376
Mof_O 	O 	0.8116	0.30072	0.2691	-0.391
Mof_O 	O 	0.8963	0.21342	0.30368	-0.262
Mof_O 	O 	0.0451	0.18737	0.3018	-0.394
Mof_O 	O 	0.8648	0.49041	0.0053	-0.475
Mof_O 	O 	0.0281	0.45733	0.0522	-0.487
_end
