data_functionalizedCrystal
_audit_creation_method	'EQeq! by Chris Wilmer'
_symmetry_space_group_name_H-M	'P1'
_symmetry_Int_Tables_number	1
_symmetry_cell_setting	triclinic
loop_
_symmetry_equiv_pos_as_xyz
  x,y,z
_cell_length_a	28.267
_cell_length_b	23.525
_cell_length_c	22.9753
_cell_angle_alpha	74.8635
_cell_angle_beta	53.4531
_cell_angle_gamma	51.6835
loop_
_atom_site_label
_atom_site_type_symbol
_atom_site_fract_x
_atom_site_fract_y
_atom_site_fract_z
_atom_site_charge
Mof_O 	O 	0.40711	0.76944	0.50586	-0.882
Mof_O 	O 	0.51462	0.68948	0.4261	-0.837
Mof_O 	O 	0.32097	0.49933	0.23398	-0.866
Mof_O 	O 	0.21327	0.57232	0.31864	-0.846
Mof_C 	C 	0.44867	0.71788	0.45449	0.499
Mof_C 	C 	0.42295	0.69352	0.43092	-0.118
Mof_C 	C 	0.34762	0.72986	0.46482	0.03
Mof_H 	H 	0.30675	0.77672	0.50839	0.033
Mof_C 	C 	0.32376	0.7069	0.44275	-0.071
Mof_H 	H 	0.26527	0.73816	0.46967	0.042
Mof_C 	C 	0.37422	0.64617	0.38605	0.019
Mof_C 	C 	0.44983	0.60971	0.35267	-0.06
Mof_H 	H 	0.4915	0.56205	0.30995	0.048
Mof_C 	C 	0.47344	0.63309	0.3746	0.045
Mof_H 	H 	0.53164	0.60341	0.34779	0.052
Mof_C 	C 	0.34863	0.62145	0.36154	0.025
Mof_C 	C 	0.39366	0.58371	0.28964	-0.07
Mof_H 	H 	0.44557	0.57517	0.24948	0.046
Mof_C 	C 	0.37164	0.55893	0.26687	0.034
Mof_H 	H 	0.40858	0.53012	0.21113	0.035
Mof_C 	C 	0.30216	0.57323	0.31414	-0.118
Mof_C 	C 	0.25576	0.61284	0.38529	0.034
Mof_H 	H 	0.2018	0.62523	0.42343	0.031
Mof_C 	C 	0.27876	0.63568	0.40885	-0.072
Mof_H 	H 	0.24158	0.66383	0.46481	0.044
Mof_C 	C 	0.27838	0.54778	0.28881	0.493
Mof_O 	O 	0.6986	0.52051	0.09552	-0.846
Mof_O 	O 	0.62065	0.56936	0.20394	-0.879
Mof_O 	O 	0.8091	0.993	0.39568	-0.832
Mof_O 	O 	0.89427	0.93866	0.28896	-0.857
Mof_C 	C 	0.67215	0.50899	0.16068	0.491
Mof_C 	C 	0.69785	0.43407	0.18401	-0.124
Mof_C 	C 	0.75228	0.36862	0.13247	0.03
Mof_H 	H 	0.77658	0.37135	0.07446	0.028
Mof_C 	C 	0.77515	0.29895	0.15487	-0.074
Mof_H 	H 	0.8153	0.25135	0.11253	0.038
Mof_C 	C 	0.7456	0.29131	0.23	0.025
Mof_C 	C 	0.6916	0.35761	0.28111	-0.074
Mof_H 	H 	0.66751	0.35683	0.3392	0.045
Mof_C 	C 	0.66788	0.42707	0.25866	0.03
Mof_H 	H 	0.62624	0.47562	0.3003	0.031
Mof_C 	C 	0.77032	0.2158	0.25494	0.012
Mof_C 	C 	0.83721	0.14896	0.20602	-0.07
Mof_H 	H 	0.87368	0.14934	0.14929	0.036
Mof_C 	C 	0.85965	0.07975	0.22947	0.019
Mof_H 	H 	0.91118	0.03044	0.18987	0.027
Mof_C 	C 	0.81684	0.07407	0.30302	-0.111
Mof_C 	C 	0.75081	0.1399	0.35192	0.032
Mof_H 	H 	0.71688	0.13751	0.40874	0.063
Mof_C 	C 	0.72756	0.20898	0.3286	-0.054
Mof_H 	H 	0.67511	0.25681	0.3691	0.049
Mof_C 	C 	0.84047	0.00073	0.32946	0.459
Mof_N 	N 	0.88816	0.47636	0.97478	-0.153
Mof_C 	C 	0.88607	0.43301	0.94193	-0.087
Mof_C 	C 	0.8815	0.53964	0.93823	-0.078
Mof_N 	N 	0.70252	0.54432	0.2931	-0.166
Mof_C 	C 	0.69029	0.50944	0.35862	-0.075
Mof_C 	C 	0.77559	0.4927	0.22771	-0.082
Mof_O 	O 	0.76152	0.41023	0.81982	-0.885
Mof_O 	O 	0.69197	0.51628	0.87226	-0.834
Mof_O 	O 	0.49359	0.32291	0.44811	-0.871
Mof_O 	O 	0.5747	0.21446	0.39899	-0.843
Mof_C 	C 	0.7155	0.45084	0.88119	0.496
Mof_C 	C 	0.69191	0.42474	0.95458	-0.109
Mof_C 	C 	0.71186	0.35285	0.96057	0.043
Mof_H 	H 	0.74484	0.31486	0.91172	0.029
Mof_C 	C 	0.68915	0.32895	0.02949	-0.089
Mof_H 	H 	0.70505	0.27367	0.03021	0.042
Mof_C 	C 	0.64617	0.37564	0.09567	0.018
Mof_C 	C 	0.62656	0.44787	0.08866	-0.054
Mof_H 	H 	0.59483	0.48674	0.13598	0.046
Mof_C 	C 	0.6487	0.47168	0.01985	0.023
Mof_H 	H 	0.63258	0.52709	0.01728	0.059
Mof_C 	C 	0.62171	0.34983	0.17074	0.024
Mof_C 	C 	0.56254	0.40053	0.23757	-0.068
Mof_H 	H 	0.53353	0.45845	0.23726	0.044
Mof_C 	C 	0.53869	0.37794	0.30679	0.033
Mof_H 	H 	0.49281	0.41961	0.35583	0.039
Mof_C 	C 	0.57314	0.30309	0.31297	-0.116
Mof_C 	C 	0.63307	0.25166	0.247	0.032
Mof_H 	H 	0.66215	0.19345	0.24901	0.032
Mof_C 	C 	0.65689	0.27441	0.17747	-0.071
Mof_H 	H 	0.70411	0.23212	0.12924	0.039
Mof_C 	C 	0.54679	0.27967	0.38771	0.492
Mof_O 	O 	0.51692	0.70196	0.19559	-0.838
Mof_O 	O 	0.56488	0.62798	0.11301	-0.887
Mof_O 	O 	0.99082	0.81217	0.30987	-0.849
Mof_O 	O 	0.93655	0.89528	0.38788	-0.874
Mof_C 	C 	0.5049	0.67811	0.1665	0.493
Mof_C 	C 	0.42997	0.70505	0.19151	-0.124
Mof_C 	C 	0.36499	0.75522	0.25718	0.031
Mof_H 	H 	0.36803	0.77607	0.29077	0.035
Mof_C 	C 	0.29557	0.77732	0.28172	-0.072
Mof_H 	H 	0.24828	0.81352	0.33405	0.043
Mof_C 	C 	0.28781	0.75151	0.24074	0.025
Mof_C 	C 	0.35338	0.70267	0.17378	-0.075
Mof_H 	H 	0.35191	0.6819	0.13855	0.043
Mof_C 	C 	0.42276	0.67929	0.15038	0.028
Mof_H 	H 	0.47126	0.64032	0.09978	0.03
Mof_C 	C 	0.21281	0.77467	0.26728	0.015
Mof_C 	C 	0.14562	0.84008	0.31809	-0.068
Mof_H 	H 	0.14558	0.8762	0.33911	0.042
Mof_C 	C 	0.07673	0.86148	0.34171	0.024
Mof_H 	H 	0.0271	0.91197	0.38048	0.036
Mof_C 	C 	0.0718	0.81918	0.31487	-0.109
Mof_C 	C 	0.1381	0.75417	0.26471	0.033
Mof_H 	H 	0.13634	0.72024	0.24339	0.059
Mof_C 	C 	0.20694	0.73189	0.24189	-0.057
Mof_H 	H 	0.25544	0.68027	0.20466	0.049
Mof_C 	C 	0.9986	0.84249	0.33807	0.479
Mof_N 	N 	0.4842	0.89582	0.1522	-0.16
Mof_C 	C 	0.43711	0.8935	0.22929	-0.088
Mof_C 	C 	0.54778	0.88431	0.13771	-0.079
Mof_N 	N 	0.55004	0.69297	0.95266	-0.115
Mof_C 	C 	0.51179	0.68008	0.94062	-0.074
Mof_C 	C 	0.50084	0.76799	0.99134	-0.05
Mof_O 	O 	0.49909	0.8169	0.41251	-0.878
Mof_O 	O 	0.42071	0.86913	0.51998	-0.839
Mof_O 	O 	0.22878	0.44538	0.32638	-0.867
Mof_O 	O 	0.31207	0.39563	0.21853	-0.846
Mof_C 	C 	0.44821	0.87828	0.45401	0.495
Mof_C 	C 	0.42434	0.95191	0.42829	-0.112
Mof_C 	C 	0.45374	0.9575	0.35329	0.037
Mof_H 	H 	0.49361	0.90836	0.31273	0.03
Mof_C 	C 	0.43163	0.02645	0.3295	-0.083
Mof_H 	H 	0.45464	0.02734	0.27155	0.039
Mof_C 	C 	0.3798	0.09292	0.37955	0.022
Mof_C 	C 	0.35081	0.08651	0.45474	-0.059
Mof_H 	H 	0.31204	0.13448	0.49604	0.047
Mof_C 	C 	0.37229	0.01772	0.47845	0.034
Mof_H 	H 	0.34868	0.0158	0.53642	0.047
Mof_C 	C 	0.35555	0.16788	0.35407	0.024
Mof_C 	C 	0.28657	0.23365	0.40191	-0.067
Mof_H 	H 	0.24852	0.23149	0.45643	0.044
Mof_C 	C 	0.26377	0.3031	0.37958	0.033
Mof_H 	H 	0.21025	0.35153	0.41871	0.038
Mof_C 	C 	0.30813	0.31005	0.30744	-0.117
Mof_C 	C 	0.37639	0.24472	0.25864	0.032
Mof_H 	H 	0.41226	0.24731	0.2026	0.031
Mof_C 	C 	0.39994	0.17525	0.28156	-0.071
Mof_H 	H 	0.45367	0.12745	0.24206	0.041
Mof_C 	C 	0.28283	0.38471	0.28367	0.494
Mof_O 	O 	0.087	0.19358	0.69925	-0.842
Mof_O 	O 	0.19559	0.10998	0.62612	-0.875
Mof_O 	O 	0.38755	0.30683	0.81243	-0.848
Mof_O 	O 	0.28074	0.38514	0.89531	-0.872
Mof_C 	C 	0.152	0.16413	0.67562	0.488
Mof_C 	C 	0.1749	0.1894	0.70248	-0.121
Mof_C 	C 	0.12375	0.25442	0.75364	0.031
Mof_H 	H 	0.06619	0.28759	0.77502	0.036
Mof_C 	C 	0.14619	0.27894	0.77629	-0.071
Mof_H 	H 	0.10444	0.33086	0.81326	0.044
Mof_C 	C 	0.2208	0.23842	0.75021	0.025
Mof_C 	C 	0.27128	0.17197	0.70047	-0.073
Mof_H 	H 	0.32876	0.13667	0.67955	0.044
Mof_C 	C 	0.24894	0.14871	0.67658	0.028
Mof_H 	H 	0.29015	0.09816	0.63766	0.03
Mof_C 	C 	0.24592	0.26469	0.77407	0.017
Mof_C 	C 	0.19628	0.31741	0.83826	-0.07
Mof_H 	H 	0.13871	0.34031	0.8731	0.044
Mof_C 	C 	0.22004	0.34084	0.86007	0.028
Mof_H 	H 	0.17989	0.38126	0.90946	0.032
Mof_C 	C 	0.29457	0.31187	0.81953	-0.121
Mof_C 	C 	0.34407	0.25957	0.75606	0.037
Mof_H 	H 	0.40153	0.23622	0.72385	0.058
Mof_C 	C 	0.32052	0.23706	0.7332	-0.057
Mof_H 	H 	0.36165	0.19824	0.68259	0.049
Mof_C 	C 	0.32124	0.33512	0.84277	0.491
Mof_N 	N 	0.93768	0.25082	0.88165	-0.16
Mof_C 	C 	0.90468	0.31479	0.85035	-0.075
Mof_C 	C 	0.88831	0.23007	0.93107	-0.09
Mof_N 	N 	0.28809	0.95977	0.70635	-0.161
Mof_C 	C 	0.35329	0.9424	0.69395	-0.076
Mof_C 	C 	0.22248	0.00407	0.7792	-0.103
Mof_O 	O 	0.81404	0.50113	0.77396	-0.877
Mof_O 	O 	0.86574	0.42287	0.69284	-0.843
Mof_O 	O 	0.44259	0.23185	0.50069	-0.864
Mof_O 	O 	0.3922	0.31358	0.57732	-0.847
Mof_C 	C 	0.87523	0.45017	0.72193	0.496
Mof_C 	C 	0.94895	0.42633	0.69757	-0.13
Mof_C 	C 	0.95467	0.45531	0.73779	0.015
Mof_H 	H 	0.90563	0.49467	0.78802	0.034
Mof_C 	C 	0.0236	0.43353	0.71442	-0.057
Mof_H 	H 	0.02458	0.45619	0.74864	0.041
Mof_C 	C 	0.08994	0.38239	0.64919	0.018
Mof_C 	C 	0.08338	0.3539	0.60912	-0.062
Mof_H 	H 	0.13122	0.31575	0.55819	0.048
Mof_C 	C 	0.01459	0.3751	0.63304	0.058
Mof_H 	H 	0.0125	0.352	0.60036	0.049
Mof_C 	C 	0.16495	0.3582	0.62379	0.026
Mof_C 	C 	0.23083	0.2896	0.57837	-0.068
Mof_H 	H 	0.22877	0.25187	0.56335	0.045
Mof_C 	C 	0.3003	0.26669	0.55419	0.033
Mof_H 	H 	0.34879	0.21344	0.51961	0.037
Mof_C 	C 	0.30714	0.31054	0.57594	-0.116
Mof_C 	C 	0.24172	0.37847	0.62244	0.033
Mof_H 	H 	0.2442	0.41399	0.64067	0.032
Mof_C 	C 	0.17226	0.40214	0.64528	-0.071
Mof_H 	H 	0.12441	0.45559	0.6794	0.044
Mof_C 	C 	0.3817	0.28511	0.55088	0.492
Mof_O 	O 	0.18901	0.09304	0.51984	-0.847
Mof_O 	O 	0.10428	0.20134	0.56829	-0.873
Mof_O 	O 	0.30222	0.39341	0.99272	-0.824
Mof_O 	O 	0.37921	0.28649	0.93862	-0.852
Mof_C 	C 	0.15909	0.15807	0.50814	0.489
Mof_C 	C 	0.18458	0.18123	0.43319	-0.123
Mof_C 	C 	0.24998	0.13025	0.36816	0.03
Mof_H 	H 	0.28343	0.07274	0.37113	0.03
Mof_C 	C 	0.27444	0.1528	0.2986	-0.073
Mof_H 	H 	0.32655	0.1112	0.25143	0.04
Mof_C 	C 	0.23359	0.22734	0.29064	0.025
Mof_C 	C 	0.16701	0.27772	0.35634	-0.073
Mof_H 	H 	0.13163	0.33516	0.35499	0.047
Mof_C 	C 	0.1437	0.25528	0.42579	0.029
Mof_H 	H 	0.09296	0.2964	0.47404	0.034
Mof_C 	C 	0.25965	0.25244	0.21536	0.013
Mof_C 	C 	0.31155	0.20283	0.14826	-0.069
Mof_H 	H 	0.33387	0.14539	0.14834	0.037
Mof_C 	C 	0.33482	0.22646	0.07918	0.019
Mof_H 	H 	0.37452	0.18633	0.02961	0.026
Mof_C 	C 	0.30655	0.30082	0.07394	-0.11
Mof_C 	C 	0.25488	0.3504	0.14009	0.029
Mof_H 	H 	0.23182	0.40788	0.13806	0.06
Mof_C 	C 	0.23253	0.3269	0.20909	-0.054
Mof_H 	H 	0.19421	0.36789	0.25737	0.05
Mof_C 	C 	0.32987	0.32718	0.0006	0.447
Mof_N 	N 	0.25186	0.95044	0.41615	-0.156
Mof_C 	C 	0.31343	0.91198	0.42242	-0.08
Mof_C 	C 	0.21656	0.91384	0.44739	-0.088
Mof_N 	N 	0.95523	0.29412	0.54593	-0.162
Mof_C 	C 	0.93681	0.36001	0.51158	-0.076
Mof_C 	C 	0.99922	0.22914	0.49377	-0.117
Mof_O 	O 	0.58615	0.22875	0.50245	-0.88
Mof_O 	O 	0.47863	0.31195	0.57829	-0.84
Mof_O 	O 	0.67195	0.50291	0.77081	-0.866
Mof_O 	O 	0.77987	0.42804	0.68734	-0.848
Mof_C 	C 	0.54443	0.28205	0.55198	0.5
Mof_C 	C 	0.5699	0.30666	0.57562	-0.12
Mof_C 	C 	0.64474	0.26625	0.54705	0.029
Mof_H 	H 	0.68529	0.21577	0.50802	0.032
Mof_C 	C 	0.66842	0.28986	0.5687	-0.072
Mof_H 	H 	0.72625	0.25558	0.5463	0.04
Mof_C 	C 	0.61837	0.35541	0.61939	0.02
Mof_C 	C 	0.54336	0.39562	0.6475	-0.061
Mof_H 	H 	0.50218	0.44678	0.68529	0.047
Mof_C 	C 	0.51977	0.37155	0.62636	0.046
Mof_H 	H 	0.46194	0.40437	0.64919	0.048
Mof_C 	C 	0.6437	0.38096	0.64349	0.024
Mof_C 	C 	0.59559	0.42635	0.71209	-0.067
Mof_H 	H 	0.54079	0.44132	0.74984	0.045
Mof_C 	C 	0.61797	0.4506	0.7349	0.032
Mof_H 	H 	0.5787	0.48504	0.78821	0.038
Mof_C 	C 	0.69034	0.4291	0.69085	-0.115
Mof_C 	C 	0.73928	0.38275	0.62285	0.032
Mof_H 	H 	0.79548	0.36467	0.58722	0.031
Mof_C 	C 	0.71637	0.35972	0.59935	-0.071
Mof_H 	H 	0.75603	0.32564	0.54587	0.042
Mof_C 	C 	0.71446	0.45392	0.71642	0.49
Mof_O 	O 	0.2975	0.48306	0.90996	-0.838
Mof_O 	O 	0.37148	0.43474	0.80137	-0.875
Mof_O 	O 	0.18497	0.00963	0.60971	-0.849
Mof_O 	O 	0.10143	0.06417	0.7166	-0.864
Mof_C 	C 	0.32175	0.49484	0.8449	0.487
Mof_C 	C 	0.29537	0.56981	0.82193	-0.12
Mof_C 	C 	0.2452	0.63462	0.873	0.031
Mof_H 	H 	0.2245	0.6313	0.93041	0.039
Mof_C 	C 	0.22267	0.70424	0.85058	-0.071
Mof_H 	H 	0.18628	0.75145	0.89201	0.045
Mof_C 	C 	0.24811	0.71234	0.77616	0.026
Mof_C 	C 	0.29724	0.64688	0.72567	-0.073
Mof_H 	H 	0.31765	0.64855	0.6683	0.046
Mof_C 	C 	0.32088	0.57738	0.74795	0.028
Mof_H 	H 	0.35922	0.52926	0.7068	0.031
Mof_C 	C 	0.22407	0.78757	0.75125	0.015
Mof_C 	C 	0.15834	0.85454	0.80052	-0.066
Mof_H 	H 	0.12262	0.85423	0.85763	0.045
Mof_C 	C 	0.13616	0.92361	0.77684	0.024
Mof_H 	H 	0.08537	0.97311	0.81661	0.04
Mof_C 	C 	0.17805	0.92885	0.70275	-0.107
Mof_C 	C 	0.2432	0.86276	0.65366	0.034
Mof_H 	H 	0.27663	0.86482	0.59658	0.06
Mof_C 	C 	0.26623	0.79382	0.67721	-0.055
Mof_H 	H 	0.31794	0.74551	0.63669	0.051
Mof_C 	C 	0.15444	0.00205	0.67608	0.477
Mof_N 	N 	0.10594	0.5276	0.02967	-0.169
Mof_C 	C 	0.11081	0.56913	0.06099	-0.086
Mof_C 	C 	0.1116	0.46475	0.06659	-0.078
Mof_N 	N 	0.29096	0.4569	0.71087	-0.165
Mof_C 	C 	0.30301	0.49129	0.64505	-0.076
Mof_C 	C 	0.21814	0.50891	0.77626	-0.084
Mof_O 	O 	0.2272	0.59037	0.18584	-0.881
Mof_O 	O 	0.30707	0.48284	0.13349	-0.843
Mof_O 	O 	0.49867	0.67582	0.55699	-0.867
Mof_O 	O 	0.42391	0.78376	0.60696	-0.847
Mof_C 	C 	0.27868	0.54882	0.12443	0.499
Mof_C 	C 	0.3031	0.57447	0.05081	-0.133
Mof_C 	C 	0.26598	0.64973	0.0455	0.013
Mof_H 	H 	0.2185	0.69065	0.09492	0.034
Mof_C 	C 	0.28898	0.67347	0.97655	-0.054
Mof_H 	H 	0.25686	0.73187	0.97622	0.042
Mof_C 	C 	0.35095	0.62297	0.90968	0.017
Mof_C 	C 	0.38819	0.54747	0.91588	-0.062
Mof_H 	H 	0.43671	0.50564	0.8677	0.048
Mof_C 	C 	0.36453	0.52392	0.98474	0.062
Mof_H 	H 	0.39498	0.46568	0.98643	0.051
Mof_C 	C 	0.37611	0.64832	0.8346	0.026
Mof_C 	C 	0.41857	0.60119	0.76919	-0.069
Mof_H 	H 	0.4312	0.5474	0.77164	0.045
Mof_C 	C 	0.44291	0.62335	0.69966	0.034
Mof_H 	H 	0.47523	0.58481	0.65153	0.036
Mof_C 	C 	0.42409	0.69472	0.69231	-0.117
Mof_C 	C 	0.38036	0.74289	0.75724	0.034
Mof_H 	H 	0.36446	0.79831	0.75429	0.032
Mof_C 	C 	0.35757	0.72003	0.82672	-0.072
Mof_H 	H 	0.32592	0.75896	0.87406	0.046
Mof_C 	C 	0.44937	0.71851	0.6177	0.493
Mof_O 	O 	0.47727	0.30448	0.80782	-0.844
Mof_O 	O 	0.42945	0.37635	0.89225	-0.873
Mof_O 	O 	0.00427	0.19017	0.69447	-0.83
Mof_O 	O 	0.05951	0.10604	0.6168	-0.851
Mof_C 	C 	0.4894	0.32756	0.83748	0.489
Mof_C 	C 	0.56458	0.30071	0.81176	-0.122
Mof_C 	C 	0.62944	0.24943	0.74669	0.031
Mof_H 	H 	0.6261	0.2283	0.7137	0.033
Mof_C 	C 	0.69929	0.22623	0.722	-0.073
Mof_H 	H 	0.7465	0.1889	0.67024	0.041
Mof_C 	C 	0.70757	0.25224	0.76217	0.025
Mof_C 	C 	0.64211	0.30235	0.82846	-0.073
Mof_H 	H 	0.64397	0.32315	0.86326	0.047
Mof_C 	C 	0.5724	0.32651	0.85211	0.029
Mof_H 	H 	0.52429	0.36558	0.90264	0.034
Mof_C 	C 	0.78291	0.22806	0.73564	0.014
Mof_C 	C 	0.84982	0.16151	0.6864	-0.069
Mof_H 	H 	0.84937	0.12514	0.66645	0.038
Mof_C 	C 	0.91892	0.13945	0.66312	0.021
Mof_H 	H 	0.96839	0.08799	0.62572	0.028
Mof_C 	C 	0.92415	0.1824	0.6887	-0.112
Mof_C 	C 	0.85812	0.24848	0.73714	0.035
Mof_H 	H 	0.86021	0.28298	0.75714	0.057
Mof_C 	C 	0.78925	0.27123	0.75967	-0.056
Mof_H 	H 	0.74099	0.32361	0.79556	0.055
Mof_C 	C 	0.99716	0.15914	0.66612	0.454
Mof_N 	N 	0.54731	0.1232	0.79179	-0.161
Mof_C 	C 	0.56272	0.13812	0.71865	-0.082
Mof_C 	C 	0.50183	0.09741	0.82792	-0.081
Mof_N 	N 	0.45235	0.29461	0.04079	-0.173
Mof_C 	C 	0.48769	0.30646	0.05883	-0.075
Mof_C 	C 	0.50413	0.22231	0.99538	-0.05
Mof_O 	O 	0.49458	0.18283	0.59356	-0.882
Mof_O 	O 	0.57096	0.13049	0.48612	-0.838
Mof_O 	O 	0.767	0.55477	0.67992	-0.87
Mof_O 	O 	0.67885	0.60429	0.78695	-0.839
Mof_C 	C 	0.54423	0.12148	0.55212	0.499
Mof_C 	C 	0.56788	0.04796	0.57789	-0.127
Mof_C 	C 	0.53444	0.04275	0.65318	0.019
Mof_H 	H 	0.49096	0.09223	0.69413	0.032
Mof_C 	C 	0.55673	0.97381	0.6769	-0.06
Mof_H 	H 	0.52997	0.97353	0.73533	0.041
Mof_C 	C 	0.613	0.90688	0.62635	0.018
Mof_C 	C 	0.64587	0.91297	0.55081	-0.062
Mof_H 	H 	0.68819	0.86473	0.5089	0.048
Mof_C 	C 	0.62399	0.98185	0.52731	0.055
Mof_H 	H 	0.65082	0.98358	0.46906	0.054
Mof_C 	C 	0.63752	0.83189	0.65177	0.026
Mof_C 	C 	0.70799	0.76657	0.60505	-0.068
Mof_H 	H 	0.74698	0.76893	0.5514	0.045
Mof_C 	C 	0.73094	0.69716	0.62743	0.032
Mof_H 	H 	0.78558	0.64909	0.58922	0.037
Mof_C 	C 	0.68515	0.68982	0.69846	-0.114
Mof_C 	C 	0.61534	0.75464	0.74616	0.033
Mof_H 	H 	0.57837	0.75167	0.80134	0.038
Mof_C 	C 	0.59169	0.82402	0.72315	-0.07
Mof_H 	H 	0.53673	0.87126	0.7617	0.045
Mof_C 	C 	0.71052	0.61525	0.72223	0.492
Mof_O 	O 	0.90726	0.80843	0.30767	-0.849
Mof_O 	O 	0.79901	0.89334	0.37946	-0.872
Mof_O 	O 	0.6066	0.69613	0.19383	-0.848
Mof_O 	O 	0.71345	0.619	0.11004	-0.881
Mof_C 	C 	0.84223	0.83837	0.33108	0.489
Mof_C 	C 	0.81903	0.8129	0.30489	-0.123
Mof_C 	C 	0.87009	0.74804	0.25357	0.03
Mof_H 	H 	0.9277	0.71493	0.23192	0.029
Mof_C 	C 	0.84754	0.72371	0.23091	-0.073
Mof_H 	H 	0.88934	0.67195	0.1937	0.039
Mof_C 	C 	0.77286	0.76422	0.25721	0.024
Mof_C 	C 	0.72243	0.83036	0.30736	-0.073
Mof_H 	H 	0.66488	0.86565	0.32861	0.047
Mof_C 	C 	0.7449	0.85341	0.33126	0.029
Mof_H 	H 	0.70368	0.90371	0.37049	0.034
Mof_C 	C 	0.74767	0.73829	0.23305	0.016
Mof_C 	C 	0.79755	0.68493	0.16929	-0.072
Mof_H 	H 	0.85529	0.66132	0.13497	0.037
Mof_C 	C 	0.7739	0.66168	0.14717	0.026
Mof_H 	H 	0.81426	0.6207	0.09818	0.025
Mof_C 	C 	0.69925	0.69149	0.18689	-0.123
Mof_C 	C 	0.64941	0.74465	0.24974	0.036
Mof_H 	H 	0.59172	0.76907	0.28094	0.061
Mof_C 	C 	0.67285	0.76688	0.27304	-0.058
Mof_H 	H 	0.63138	0.80635	0.32322	0.05
Mof_C 	C 	0.67283	0.66832	0.16327	0.489
Mof_N 	N 	0.04179	0.75733	0.12637	-0.156
Mof_C 	C 	0.08114	0.69641	0.15547	-0.078
Mof_C 	C 	0.08465	0.78431	0.07368	-0.087
Mof_N 	N 	0.76918	0.022	0.20925	-0.161
Mof_C 	C 	0.71244	0.03044	0.2861	-0.107
Mof_C 	C 	0.83378	0.94488	0.17953	-0.077
Mof_O 	O 	0.1797	0.49842	0.23192	-0.879
Mof_O 	O 	0.12778	0.57677	0.31311	-0.838
Mof_O 	O 	0.55127	0.76839	0.50402	-0.867
Mof_O 	O 	0.60158	0.68531	0.42903	-0.847
Mof_C 	C 	0.11843	0.54941	0.28393	0.495
Mof_C 	C 	0.04469	0.57352	0.30812	-0.111
Mof_C 	C 	0.03887	0.54503	0.26761	0.038
Mof_H 	H 	0.08789	0.50583	0.21727	0.03
Mof_C 	C 	0.9699	0.56707	0.29087	-0.085
Mof_H 	H 	0.96891	0.54473	0.2564	0.04
Mof_C 	C 	0.9036	0.61794	0.35631	0.022
Mof_C 	C 	0.91025	0.64609	0.39656	-0.06
Mof_H 	H 	0.86247	0.68409	0.4476	0.047
Mof_C 	C 	0.97908	0.62472	0.3727	0.032
Mof_H 	H 	0.98117	0.64767	0.40554	0.047
Mof_C 	C 	0.8286	0.64208	0.38172	0.024
Mof_C 	C 	0.76248	0.71009	0.42824	-0.067
Mof_H 	H 	0.76413	0.74742	0.44459	0.045
Mof_C 	C 	0.69314	0.73286	0.45218	0.033
Mof_H 	H 	0.64446	0.78564	0.48761	0.038
Mof_C 	C 	0.68659	0.68938	0.4294	-0.117
Mof_C 	C 	0.75218	0.62203	0.38201	0.032
Mof_H 	H 	0.74991	0.58681	0.363	0.031
Mof_C 	C 	0.82154	0.59855	0.3592	-0.071
Mof_H 	H 	0.86952	0.5455	0.32433	0.041
Mof_C 	C 	0.61211	0.71456	0.45455	0.494
Mof_O 	O 	0.80735	0.91025	0.4858	-0.839
Mof_O 	O 	0.88948	0.8016	0.43725	-0.877
Mof_O 	O 	0.69134	0.60956	0.01231	-0.848
Mof_O 	O 	0.61757	0.71634	0.06555	-0.876
Mof_C 	C 	0.83578	0.8451	0.4974	0.487
Mof_C 	C 	0.8098	0.82186	0.57217	-0.121
Mof_C 	C 	0.74408	0.87274	0.63714	0.031
Mof_H 	H 	0.71066	0.93033	0.63424	0.037
Mof_C 	C 	0.71945	0.84994	0.70653	-0.072
Mof_H 	H 	0.66726	0.89133	0.75385	0.045
Mof_C 	C 	0.76038	0.77532	0.71423	0.026
Mof_C 	C 	0.82694	0.725	0.6486	-0.074
Mof_H 	H 	0.86208	0.66748	0.65002	0.044
Mof_C 	C 	0.85044	0.74766	0.57933	0.028
Mof_H 	H 	0.9012	0.70665	0.53099	0.03
Mof_C 	C 	0.73453	0.7501	0.78929	0.015
Mof_C 	C 	0.6848	0.7992	0.85611	-0.066
Mof_H 	H 	0.66407	0.85621	0.85574	0.043
Mof_C 	C 	0.6619	0.77553	0.92509	0.023
Mof_H 	H 	0.62382	0.81527	0.97445	0.036
Mof_C 	C 	0.68838	0.70159	0.93047	-0.101
Mof_C 	C 	0.73774	0.65249	0.86454	0.032
Mof_H 	H 	0.75919	0.59538	0.86669	0.066
Mof_C 	C 	0.75983	0.6761	0.79558	-0.054
Mof_H 	H 	0.79648	0.63569	0.74733	0.049
Mof_C 	C 	0.66531	0.67549	0.00389	0.473
Mof_N 	N 	0.83027	0.02978	0.53297	-0.166
Mof_C 	C 	0.75167	0.06439	0.57514	-0.086
Mof_C 	C 	0.85223	0.06565	0.46969	-0.076
Mof_N 	N 	0.03911	0.70875	0.45907	-0.16
Mof_C 	C 	0.05585	0.64344	0.49436	-0.077
Mof_C 	C 	0.99475	0.7741	0.51099	-0.106
Mof_In	In	0.4897	0.75722	0.49521	4.594
Mof_In	In	0.75377	0.49264	0.7605	4.597
Mof_In	In	0.50403	0.24223	0.5107	4.599
Mof_In	In	0.23965	0.50753	0.24533	4.593
Mof_In	In	0.62874	0.63245	0.12384	4.604
Mof_In	In	0.1158	0.12112	0.63132	4.595
Mof_In	In	0.36577	0.3714	0.88122	4.594
Mof_In	In	0.8792	0.88153	0.37412	4.599
Mof_H 	H 	0.84484	0.49483	0.03059	0.084
Mof_H 	H 	0.88788	0.3873	0.97258	0.048
Mof_H 	H 	0.93432	0.40891	0.88369	0.04
Mof_H 	H 	0.83457	0.46753	0.94457	0.078
Mof_H 	H 	0.92784	0.52117	0.87905	0.036
Mof_H 	H 	0.88295	0.57186	0.96413	0.046
Mof_H 	H 	0.8286	0.57633	0.94345	0.063
Mof_H 	H 	0.66252	0.56209	0.28556	0.101
Mof_H 	H 	0.69424	0.46112	0.35225	0.043
Mof_H 	H 	0.63444	0.54922	0.40745	0.073
Mof_H 	H 	0.73119	0.4915	0.36883	0.046
Mof_H 	H 	0.78311	0.51955	0.17842	0.046
Mof_H 	H 	0.78213	0.44337	0.21877	0.042
Mof_H 	H 	0.81911	0.47537	0.23334	0.038
Mof_H 	H 	0.50244	0.85481	0.11851	0.091
Mof_H 	H 	0.46891	0.84097	0.24483	0.075
Mof_H 	H 	0.39198	0.89759	0.23788	0.045
Mof_H 	H 	0.41224	0.94046	0.26578	0.044
Mof_H 	H 	0.58221	0.88722	0.07925	0.039
Mof_H 	H 	0.58221	0.82933	0.14826	0.06
Mof_H 	H 	0.52972	0.9275	0.17271	0.04
Mof_H 	H 	0.56452	0.65674	0.98638	0.107
Mof_H 	H 	0.54881	0.62228	0.9136	0.075
Mof_H 	H 	0.49649	0.71668	0.90389	0.055
Mof_H 	H 	0.46156	0.68957	0.99351	0.047
Mof_H 	H 	0.45068	0.77822	0.04495	0.028
Mof_H 	H 	0.48498	0.80841	0.95684	0.044
Mof_H 	H 	0.52967	0.77626	0.00226	0.034
Mof_H 	H 	0.98711	0.20648	0.83913	0.095
Mof_H 	H 	0.85201	0.3628	0.89454	0.049
Mof_H 	H 	0.89435	0.30221	0.81747	0.072
Mof_H 	H 	0.9428	0.32981	0.81342	0.055
Mof_H 	H 	0.91449	0.1813	0.9539	0.042
Mof_H 	H 	0.87657	0.21571	0.90096	0.052
Mof_H 	H 	0.83587	0.27568	0.97773	0.052
Mof_H 	H 	0.28047	0.98893	0.66613	0.105
Mof_H 	H 	0.40224	0.90964	0.63814	0.074
Mof_H 	H 	0.36372	0.90961	0.73489	0.049
Mof_H 	H 	0.34635	0.99354	0.69777	0.047
Mof_H 	H 	0.22827	0.97294	0.82297	0.054
Mof_H 	H 	0.17348	0.018	0.78691	0.054
Mof_H 	H 	0.21296	0.05632	0.78516	0.049
Mof_H 	H 	0.21302	0.00449	0.44422	0.093
Mof_H 	H 	0.3374	0.94233	0.40117	0.058
Mof_H 	H 	0.35716	0.85549	0.38972	0.052
Mof_H 	H 	0.29467	0.90881	0.48074	0.08
Mof_H 	H 	0.256	0.85704	0.41684	0.044
Mof_H 	H 	0.16942	0.94455	0.44302	0.045
Mof_H 	H 	0.19542	0.9121	0.50649	0.058
Mof_H 	H 	0.98492	0.28614	0.56406	0.097
Mof_H 	H 	0.90316	0.37098	0.49393	0.046
Mof_H 	H 	0.98751	0.35362	0.46313	0.039
Mof_H 	H 	0.9045	0.40841	0.55163	0.071
Mof_H 	H 	0.96757	0.23534	0.47584	0.045
Mof_H 	H 	0.01381	0.17964	0.52039	0.066
Mof_H 	H 	0.05111	0.22015	0.44483	0.059
Mof_H 	H 	0.05548	0.56221	0.03591	0.068
Mof_H 	H 	0.11033	0.6141	0.02961	0.042
Mof_H 	H 	0.16271	0.53308	0.05774	0.072
Mof_H 	H 	0.0631	0.59402	0.11934	0.044
Mof_H 	H 	0.16526	0.4264	0.05984	0.057
Mof_H 	H 	0.1075	0.43423	0.04219	0.038
Mof_H 	H 	0.06624	0.48357	0.12611	0.04
Mof_H 	H 	0.29497	0.41146	0.70418	0.104
Mof_H 	H 	0.29932	0.53967	0.65065	0.044
Mof_H 	H 	0.26184	0.50908	0.63535	0.047
Mof_H 	H 	0.3587	0.45124	0.59622	0.073
Mof_H 	H 	0.21073	0.48241	0.82572	0.05
Mof_H 	H 	0.1743	0.52627	0.77116	0.043
Mof_H 	H 	0.21199	0.55819	0.78451	0.046
Mof_H 	H 	0.597	0.08296	0.78664	0.069
Mof_H 	H 	0.51101	0.17746	0.72169	0.079
Mof_H 	H 	0.59792	0.08628	0.68139	0.046
Mof_H 	H 	0.59212	0.16308	0.69477	0.057
Mof_H 	H 	0.48947	0.08812	0.88387	0.044
Mof_H 	H 	0.53139	0.04459	0.79617	0.037
Mof_H 	H 	0.44876	0.13905	0.83361	0.055
Mof_H 	H 	0.40766	0.29787	0.08944	0.102
Mof_H 	H 	0.5354	0.30341	0.00799	0.037
Mof_H 	H 	0.50667	0.26478	0.09098	0.044
Mof_H 	H 	0.44786	0.36184	0.09249	0.072
Mof_H 	H 	0.47689	0.21508	0.98081	0.047
Mof_H 	H 	0.52282	0.17786	0.02587	0.024
Mof_H 	H 	0.55263	0.21699	0.94345	0.041
Mof_H 	H 	0.03186	0.73939	0.10031	0.071
Mof_H 	H 	0.13446	0.64949	0.11047	0.047
Mof_H 	H 	0.04755	0.67708	0.19563	0.065
Mof_H 	H 	0.09153	0.7144	0.18418	0.08
Mof_H 	H 	0.05388	0.83031	0.05224	0.04
Mof_H 	H 	0.13808	0.73993	0.02648	0.038
Mof_H 	H 	0.09475	0.80499	0.10054	0.05
Mof_H 	H 	0.78482	0.05364	0.20594	0.076
Mof_H 	H 	0.7336	0.01141	0.32063	0.07
Mof_H 	H 	0.69325	0.99913	0.29071	0.062
Mof_H 	H 	0.66438	0.08923	0.30774	0.08
Mof_H 	H 	0.87603	0.93972	0.12124	0.037
Mof_H 	H 	0.81878	0.91009	0.18161	0.043
Mof_H 	H 	0.85839	0.92425	0.21086	0.053
Mof_H 	H 	0.84145	0.03401	0.567	0.067
Mof_H 	H 	0.73659	0.03534	0.62188	0.042
Mof_H 	H 	0.73792	0.06142	0.54016	0.073
Mof_H 	H 	0.7186	0.12286	0.59772	0.043
Mof_H 	H 	0.84176	0.06127	0.43206	0.057
Mof_H 	H 	0.91191	0.03868	0.43856	0.037
Mof_H 	H 	0.82179	0.12457	0.48809	0.037
Mof_H 	H 	0.08827	0.70068	0.41461	0.104
Mof_H 	H 	0.0886	0.59472	0.45444	0.075
Mof_H 	H 	0.00448	0.6506	0.54198	0.048
Mof_H 	H 	0.08836	0.63248	0.51357	0.048
Mof_H 	H 	0.94221	0.78387	0.55921	0.047
Mof_H 	H 	0.98135	0.82319	0.48369	0.051
Mof_H 	H 	0.02558	0.7678	0.53013	0.054
Mof_H 	H 	0.43337	0.33547	0.01221	0.097
Mof_H 	H 	0.74774	0.04053	0.17809	0.067
Mof_H 	H 	0.86031	0.97418	0.5146	0.101
Mof_H 	H 	0.69812	0.5898	0.30051	0.103
Mof_H 	H 	0.51958	0.17126	0.82417	0.099
Mof_H 	H 	0.33127	0.43915	0.71792	0.102
Mof_H 	H 	0.01025	0.7168	0.43976	0.106
Mof_H 	H 	0.99154	0.80043	0.16961	0.09
Mof_H 	H 	0.4537	0.94715	0.14022	0.069
Mof_H 	H 	0.90672	0.30139	0.59111	0.102
Mof_H 	H 	0.94842	0.26341	0.911	0.071
Mof_H 	H 	0.93804	0.44311	0.96961	0.068
Mof_H 	H 	0.14854	0.50878	0.97363	0.105
Mof_H 	H 	0.29595	0.91086	0.70251	0.104
Mof_H 	H 	0.27124	0.95135	0.36066	0.072
_end
