data_functionalizedCrystal
_audit_creation_method	'EQeq! by Chris Wilmer'
_symmetry_space_group_name_H-M	'P1'
_symmetry_Int_Tables_number	1
_symmetry_cell_setting	triclinic
loop_
_symmetry_equiv_pos_as_xyz
  x,y,z
_cell_length_a	10.4759
_cell_length_b	33.017
_cell_length_c	28.548
_cell_angle_alpha	90
_cell_angle_beta	97.288
_cell_angle_gamma	90
loop_
_atom_site_label
_atom_site_type_symbol
_atom_site_fract_x
_atom_site_fract_y
_atom_site_fract_z
_atom_site_charge
Mof_O 	O 	0.842	0.30347	0.74169	-0.278
Mof_O 	O 	0.0157	0.34083	0.75512	-0.315
Mof_C 	C 	0.9296	0.319	0.7692	0.34
Mof_C 	C 	0.9336	0.3125	0.8211	-0.179
Mof_C 	C 	0.0203	0.3356	0.8543	0.239
Mof_C 	C 	0.0182	0.3321	0.903	-0.072
Mof_Cd	Cd	0.09464	0.41282	0.19676	0.421
Mof_Cd	Cd	0.91729	0.34489	0.6749	0.422
Mof_N 	N 	0.9883	0.46439	0.22549	-0.143
Mof_N 	N 	0.9051	0.50422	0.2752	-0.105
Mof_N 	N 	0.2454	0.53396	0.30935	-0.101
Mof_N 	N 	0.1559	0.59389	0.30566	-0.141
Mof_N 	N 	0.0248	0.29104	0.65116	-0.141
Mof_N 	N 	0.1408	0.23531	0.65674	-0.098
Mof_N 	N 	0.8392	0.19278	0.67221	-0.098
Mof_N 	N 	0.9614	0.14187	0.69801	-0.141
Mof_O 	O 	0.2623	0.37608	0.23437	-0.301
Mof_O 	O 	0.1614	0.40008	0.29159	-0.304
Mof_O 	O 	0.8165	0.36554	0.59037	-0.299
Mof_O 	O 	0.7333	0.31888	0.63103	-0.289
Mof_O 	O 	0.2632	0.39713	0.37597	-0.451
Mof_H 	H 	0.2059	0.3983	0.3536	0.29
Mof_O 	O 	0.6823	0.39354	0.51648	-0.44
Mof_H 	H 	0.738	0.3924	0.5394	0.288
Mof_O 	O 	0.005	0.43379	0.12249	-0.3
Mof_O 	O 	0.1462	0.3863	0.11475	-0.307
Mof_O 	O 	0.1618	0.35573	0.034	-0.444
Mof_H 	H 	0.1702	0.3578	0.0628	0.286
Mof_O 	O 	0.1028	0.36105	0.83772	-0.45
Mof_H 	H 	0.0931	0.3602	0.8088	0.293
Mof_C 	C 	0.2578	0.384	0.2763	0.338
Mof_C 	C 	0.7307	0.33898	0.5944	0.337
Mof_C 	C 	0.4841	0.36247	0.2973	0.028
Mof_H 	H 	0.4849	0.3568	0.2655	0.038
Mof_C 	C 	0.3736	0.37507	0.3123	-0.181
Mof_C 	C 	0.3708	0.38289	0.3611	0.237
Mof_C 	C 	0.4803	0.37894	0.3937	-0.076
Mof_C 	C 	0.5947	0.3659	0.3771	0.063
Mof_C 	C 	0.5956	0.3578	0.328	-0.032
Mof_C 	C 	0.7138	0.3456	0.3115	-0.029
Mof_H 	H 	0.7137	0.3376	0.2802	0.047
Mof_C 	C 	0.8283	0.3458	0.342	-0.069
Mof_H 	H 	0.9063	0.341	0.3306	0.058
Mof_C 	C 	0.8247	0.3533	0.3893	0.016
Mof_H 	H 	0.9	0.3509	0.4101	0.03
Mof_C 	C 	0.7141	0.364	0.4062	-0.114
Mof_H 	H 	0.717	0.3703	0.4381	0.094
Mof_C 	C 	0.4735	0.39118	0.4444	-0.092
Mof_H 	H 	0.3886	0.4023	0.4464	0.088
Mof_H 	H 	0.5353	0.4128	0.4524	0.087
Mof_C 	C 	0.5453	0.3	0.5551	0.024
Mof_H 	H 	0.5635	0.2808	0.5789	0.036
Mof_C 	C 	0.6243	0.3333	0.5547	-0.177
Mof_C 	C 	0.6021	0.36136	0.51702	0.236
Mof_C 	C 	0.4994	0.35739	0.4823	-0.077
Mof_C 	C 	0.4143	0.3252	0.4841	0.063
Mof_C 	C 	0.4401	0.2942	0.5215	-0.027
Mof_C 	C 	0.3514	0.2624	0.5239	-0.026
Mof_H 	H 	0.3673	0.2434	0.5479	0.048
Mof_C 	C 	0.2439	0.2585	0.4925	-0.068
Mof_H 	H 	0.1881	0.2368	0.4946	0.062
Mof_C 	C 	0.2183	0.2868	0.4575	0.013
Mof_H 	H 	0.1439	0.2839	0.4362	0.031
Mof_C 	C 	0.2986	0.3196	0.4523	-0.108
Mof_H 	H 	0.2769	0.3381	0.4281	0.091
Mof_C 	C 	0.0627	0.4116	0.098	0.347
Mof_C 	C 	0.9483	0.44386	0.0264	0.012
Mof_H 	H 	0.9133	0.4618	0.0463	0.045
Mof_C 	C 	0.0282	0.41392	0.0458	-0.163
Mof_C 	C 	0.0824	0.385	0.0147	0.22
Mof_C 	C 	0.0548	0.3876	0.9655	-0.057
Mof_C 	C 	0.9723	0.4201	0.9462	0.046
Mof_C 	C 	0.9171	0.44854	0.9773	-0.013
Mof_C 	C 	0.8344	0.4813	0.9585	-0.04
Mof_H 	H 	0.7987	0.4993	0.9784	0.051
Mof_C 	C 	0.81	0.4851	0.9091	-0.052
Mof_H 	H 	0.7559	0.5056	0.8959	0.055
Mof_C 	C 	0.8653	0.4589	0.8797	0.005
Mof_H 	H 	0.8484	0.4625	0.8472	0.03
Mof_C 	C 	0.9432	0.4281	0.8966	-0.096
Mof_H 	H 	0.9791	0.4116	0.8753	0.084
Mof_C 	C 	0.1125	0.3585	0.9352	-0.102
Mof_H 	H 	0.1694	0.3408	0.9553	0.088
Mof_H 	H 	0.165	0.3735	0.9156	0.091
Mof_C 	C 	0.8543	0.2857	0.8384	0.029
Mof_H 	H 	0.7987	0.2703	0.8175	0.034
Mof_C 	C 	0.8537	0.2805	0.8883	-0.031
Mof_C 	C 	0.9354	0.3043	0.9193	0.061
Mof_C 	C 	0.9313	0.2977	0.9691	-0.111
Mof_H 	H 	0.9851	0.3128	0.9909	0.086
Mof_C 	C 	0.8502	0.2699	0.9848	0.018
Mof_H 	H 	0.8494	0.2665	0.0171	0.023
Mof_C 	C 	0.7709	0.2473	0.9541	-0.072
Mof_H 	H 	0.7162	0.2283	0.965	0.061
Mof_C 	C 	0.7725	0.2529	0.9055	-0.025
Mof_H 	H 	0.7173	0.2377	0.8843	0.046
Mof_C 	C 	0.9728	0.4717	0.2698	0.091
Mof_H 	H 	0.0067	0.4553	0.2948	0.019
Mof_C 	C 	0.8741	0.5195	0.2318	-0.004
Mof_H 	H 	0.8257	0.5427	0.224	0.043
Mof_C 	C 	0.9258	0.49506	0.2016	0.012
Mof_H 	H 	0.9193	0.4988	0.1691	0.042
Mof_C 	C 	0.869	0.5207	0.318	-0.128
Mof_H 	H 	0.8902	0.5493	0.3195	0.076
Mof_H 	H 	0.9189	0.5075	0.3447	0.076
Mof_C 	C 	0.7301	0.5158	0.3222	0.072
Mof_C 	C 	0.6756	0.4805	0.3272	-0.064
Mof_H 	H 	0.7291	0.4579	0.3305	0.063
Mof_C 	C 	0.5442	0.474	0.328	-0.088
Mof_H 	H 	0.5126	0.4478	0.3297	0.068
Mof_C 	C 	0.465	0.50526	0.3265	0.087
Mof_C 	C 	0.5209	0.5414	0.3203	-0.079
Mof_H 	H 	0.469	0.5643	0.318	0.072
Mof_C 	C 	0.6493	0.5463	0.317	-0.069
Mof_H 	H 	0.6799	0.572	0.3109	0.058
Mof_C 	C 	0.3233	0.49932	0.3292	-0.149
Mof_H 	H 	0.2944	0.4749	0.3122	0.089
Mof_H 	H 	0.3101	0.4957	0.362	0.088
Mof_C 	C 	0.2124	0.56683	0.3338	0.084
Mof_H 	H 	0.2282	0.5695	0.3664	0.018
Mof_C 	C 	0.154	0.57691	0.2605	0.008
Mof_H 	H 	0.118	0.5893	0.2326	0.038
Mof_C 	C 	0.2097	0.54117	0.2627	-0.003
Mof_H 	H 	0.222	0.5243	0.2376	0.037
Mof_C 	C 	0.0952	0.26588	0.6801	0.088
Mof_H 	H 	0.1107	0.2692	0.7127	0.014
Mof_C 	C 	0.0235	0.27478	0.6071	0.02
Mof_H 	H 	0.9804	0.2856	0.5794	0.03
Mof_C 	C 	0.0945	0.24056	0.6099	-0.014
Mof_H 	H 	0.1093	0.2238	0.585	0.045
Mof_C 	C 	0.2225	0.20221	0.6781	-0.152
Mof_H 	H 	0.1887	0.1765	0.6655	0.103
Mof_H 	H 	0.2197	0.202	0.712	0.092
Mof_C 	C 	0.3594	0.20648	0.6688	0.088
Mof_C 	C 	0.4136	0.1795	0.6415	-0.084
Mof_H 	H 	0.3644	0.1579	0.6285	0.076
Mof_C 	C 	0.5371	0.1829	0.6325	-0.066
Mof_H 	H 	0.5698	0.1638	0.6133	0.06
Mof_C 	C 	0.6153	0.21394	0.651	0.077
Mof_C 	C 	0.5622	0.2409	0.6795	-0.077
Mof_H 	H 	0.6123	0.2621	0.6931	0.081
Mof_C 	C 	0.4361	0.2374	0.6886	-0.073
Mof_H 	H 	0.4029	0.256	0.7083	0.065
Mof_C 	C 	0.751	0.2181	0.6417	-0.142
Mof_H 	H 	0.7567	0.211	0.609	0.078
Mof_H 	H 	0.7771	0.2462	0.6461	0.099
Mof_C 	C 	0.8852	0.15693	0.6619	0.091
Mof_H 	H 	0.8663	0.1441	0.6329	0.012
Mof_C 	C 	0.9637	0.17004	0.7319	0.021
Mof_H 	H 	0.0115	0.1679	0.7615	0.033
Mof_C 	C 	0.8895	0.20113	0.7178	-0.019
Mof_H 	H 	0.8744	0.224	0.7352	0.054
Mof_O 	O 	0.158	0.80347	0.75831	-0.277
Mof_O 	O 	0.9843	0.84083	0.74488	-0.313
Mof_C 	C 	0.0704	0.819	0.7308	0.339
Mof_C 	C 	0.0664	0.8125	0.6789	-0.179
Mof_C 	C 	0.9797	0.8356	0.6457	0.239
Mof_C 	C 	0.9818	0.8321	0.597	-0.071
Mof_Cd	Cd	0.90536	0.91282	0.30324	0.421
Mof_Cd	Cd	0.08271	0.84489	0.8251	0.422
Mof_N 	N 	0.0117	0.96439	0.27451	-0.143
Mof_N 	N 	0.0949	0.00422	0.2248	-0.105
Mof_N 	N 	0.7546	0.03396	0.19065	-0.101
Mof_N 	N 	0.8441	0.09389	0.19434	-0.141
Mof_N 	N 	0.9752	0.79104	0.84884	-0.141
Mof_N 	N 	0.8592	0.73531	0.84326	-0.098
Mof_N 	N 	0.1608	0.69278	0.82779	-0.098
Mof_N 	N 	0.0386	0.64187	0.80199	-0.141
Mof_O 	O 	0.7377	0.87608	0.26563	-0.301
Mof_O 	O 	0.8386	0.90008	0.20841	-0.304
Mof_O 	O 	0.1835	0.86554	0.90963	-0.299
Mof_O 	O 	0.2667	0.81888	0.86897	-0.289
Mof_O 	O 	0.7368	0.89713	0.12403	-0.451
Mof_H 	H 	0.7941	0.8983	0.1464	0.29
Mof_O 	O 	0.3177	0.89354	0.98352	-0.44
Mof_H 	H 	0.262	0.8924	0.9606	0.288
Mof_O 	O 	0.995	0.93379	0.37751	-0.3
Mof_O 	O 	0.8538	0.8863	0.38525	-0.307
Mof_O 	O 	0.8382	0.85573	0.466	-0.443
Mof_H 	H 	0.8298	0.8578	0.4372	0.286
Mof_O 	O 	0.8972	0.86105	0.66228	-0.45
Mof_H 	H 	0.9069	0.8602	0.6912	0.293
Mof_C 	C 	0.7422	0.884	0.2237	0.338
Mof_C 	C 	0.2693	0.83898	0.9056	0.337
Mof_C 	C 	0.5159	0.86247	0.2027	0.028
Mof_H 	H 	0.5151	0.8568	0.2345	0.038
Mof_C 	C 	0.6264	0.87507	0.1877	-0.181
Mof_C 	C 	0.6292	0.88289	0.1389	0.237
Mof_C 	C 	0.5197	0.87894	0.1063	-0.076
Mof_C 	C 	0.4053	0.8659	0.1229	0.063
Mof_C 	C 	0.4044	0.8578	0.172	-0.032
Mof_C 	C 	0.2862	0.8456	0.1885	-0.029
Mof_H 	H 	0.2863	0.8376	0.2198	0.047
Mof_C 	C 	0.1717	0.8458	0.158	-0.069
Mof_H 	H 	0.0937	0.841	0.1694	0.058
Mof_C 	C 	0.1753	0.8533	0.1107	0.016
Mof_H 	H 	0.1	0.8509	0.0899	0.03
Mof_C 	C 	0.2859	0.864	0.0938	-0.114
Mof_H 	H 	0.283	0.8703	0.0619	0.094
Mof_C 	C 	0.5265	0.89118	0.0556	-0.091
Mof_H 	H 	0.6114	0.9023	0.0536	0.088
Mof_H 	H 	0.4647	0.9128	0.0476	0.087
Mof_C 	C 	0.4547	0.8	0.9449	0.024
Mof_H 	H 	0.4365	0.7808	0.9211	0.036
Mof_C 	C 	0.3757	0.8333	0.9453	-0.177
Mof_C 	C 	0.3979	0.86136	0.98298	0.236
Mof_C 	C 	0.5006	0.85739	0.0177	-0.077
Mof_C 	C 	0.5857	0.8252	0.0159	0.063
Mof_C 	C 	0.5599	0.7942	0.9785	-0.027
Mof_C 	C 	0.6486	0.7624	0.9761	-0.026
Mof_H 	H 	0.6327	0.7434	0.9521	0.048
Mof_C 	C 	0.7561	0.7585	0.0075	-0.068
Mof_H 	H 	0.8119	0.7368	0.0054	0.062
Mof_C 	C 	0.7817	0.7868	0.0425	0.013
Mof_H 	H 	0.8561	0.7839	0.0638	0.031
Mof_C 	C 	0.7014	0.8196	0.0477	-0.108
Mof_H 	H 	0.7231	0.8381	0.0719	0.091
Mof_C 	C 	0.9373	0.9116	0.402	0.347
Mof_C 	C 	0.0517	0.94386	0.4736	0.012
Mof_H 	H 	0.0867	0.9618	0.4537	0.045
Mof_C 	C 	0.9718	0.91392	0.4542	-0.163
Mof_C 	C 	0.9176	0.885	0.4853	0.219
Mof_C 	C 	0.9452	0.8876	0.5345	-0.056
Mof_C 	C 	0.0277	0.9201	0.5538	0.046
Mof_C 	C 	0.0829	0.94854	0.5227	-0.013
Mof_C 	C 	0.1656	0.9813	0.5415	-0.04
Mof_H 	H 	0.2013	0.9993	0.5216	0.051
Mof_C 	C 	0.19	0.9851	0.5909	-0.052
Mof_H 	H 	0.2441	0.0056	0.6041	0.055
Mof_C 	C 	0.1347	0.9589	0.6203	0.005
Mof_H 	H 	0.1516	0.9625	0.6528	0.03
Mof_C 	C 	0.0568	0.9281	0.6034	-0.096
Mof_H 	H 	0.0209	0.9116	0.6247	0.084
Mof_C 	C 	0.8875	0.8585	0.5648	-0.102
Mof_H 	H 	0.8306	0.8408	0.5447	0.088
Mof_H 	H 	0.835	0.8735	0.5844	0.091
Mof_C 	C 	0.1457	0.7857	0.6616	0.029
Mof_H 	H 	0.2013	0.7703	0.6825	0.034
Mof_C 	C 	0.1463	0.7805	0.6117	-0.031
Mof_C 	C 	0.0646	0.8043	0.5807	0.061
Mof_C 	C 	0.0687	0.7977	0.5309	-0.111
Mof_H 	H 	0.0149	0.8128	0.5091	0.086
Mof_C 	C 	0.1498	0.7699	0.5152	0.017
Mof_H 	H 	0.1506	0.7665	0.4829	0.023
Mof_C 	C 	0.2291	0.7473	0.5459	-0.072
Mof_H 	H 	0.2838	0.7283	0.535	0.061
Mof_C 	C 	0.2275	0.7529	0.5945	-0.025
Mof_H 	H 	0.2827	0.7377	0.6157	0.046
Mof_C 	C 	0.0272	0.9717	0.2302	0.09
Mof_H 	H 	0.9933	0.9553	0.2052	0.019
Mof_C 	C 	0.1259	0.0195	0.2682	-0.004
Mof_H 	H 	0.1743	0.0427	0.276	0.043
Mof_C 	C 	0.0742	0.99506	0.2984	0.012
Mof_H 	H 	0.0807	0.9988	0.3309	0.042
Mof_C 	C 	0.131	0.0207	0.182	-0.128
Mof_H 	H 	0.1098	0.0493	0.1805	0.076
Mof_H 	H 	0.0811	0.0075	0.1553	0.076
Mof_C 	C 	0.2699	0.0158	0.1778	0.072
Mof_C 	C 	0.3244	0.9805	0.1728	-0.064
Mof_H 	H 	0.2709	0.9579	0.1695	0.063
Mof_C 	C 	0.4558	0.974	0.172	-0.088
Mof_H 	H 	0.4874	0.9478	0.1703	0.068
Mof_C 	C 	0.535	0.00526	0.1735	0.087
Mof_C 	C 	0.4791	0.0414	0.1797	-0.078
Mof_H 	H 	0.531	0.0643	0.182	0.072
Mof_C 	C 	0.3507	0.0463	0.183	-0.07
Mof_H 	H 	0.3201	0.072	0.1891	0.059
Mof_C 	C 	0.6767	0.99932	0.1708	-0.149
Mof_H 	H 	0.7056	0.9749	0.1878	0.088
Mof_H 	H 	0.6899	0.9957	0.138	0.088
Mof_C 	C 	0.7876	0.06683	0.1662	0.084
Mof_H 	H 	0.7718	0.0695	0.1336	0.018
Mof_C 	C 	0.846	0.07691	0.2395	0.008
Mof_H 	H 	0.882	0.0893	0.2674	0.038
Mof_C 	C 	0.7903	0.04117	0.2373	-0.003
Mof_H 	H 	0.778	0.0243	0.2624	0.037
Mof_C 	C 	0.9048	0.76588	0.8199	0.088
Mof_H 	H 	0.8893	0.7692	0.7873	0.014
Mof_C 	C 	0.9765	0.77478	0.8929	0.02
Mof_H 	H 	0.0196	0.7856	0.9206	0.03
Mof_C 	C 	0.9055	0.74056	0.8901	-0.014
Mof_H 	H 	0.8907	0.7238	0.915	0.045
Mof_C 	C 	0.7775	0.70221	0.8219	-0.152
Mof_H 	H 	0.8113	0.6765	0.8345	0.103
Mof_H 	H 	0.7803	0.702	0.788	0.092
Mof_C 	C 	0.6406	0.70648	0.8312	0.088
Mof_C 	C 	0.5864	0.6795	0.8585	-0.084
Mof_H 	H 	0.6356	0.6579	0.8715	0.076
Mof_C 	C 	0.4629	0.6829	0.8675	-0.066
Mof_H 	H 	0.4302	0.6638	0.8867	0.06
Mof_C 	C 	0.3847	0.71394	0.849	0.077
Mof_C 	C 	0.4378	0.7409	0.8205	-0.077
Mof_H 	H 	0.3877	0.7621	0.8069	0.081
Mof_C 	C 	0.5639	0.7374	0.8114	-0.073
Mof_H 	H 	0.5971	0.756	0.7917	0.065
Mof_C 	C 	0.249	0.7181	0.8583	-0.142
Mof_H 	H 	0.2433	0.711	0.891	0.078
Mof_H 	H 	0.2229	0.7462	0.8539	0.099
Mof_C 	C 	0.1148	0.65693	0.8381	0.091
Mof_H 	H 	0.1337	0.6441	0.8671	0.012
Mof_C 	C 	0.0363	0.67004	0.7681	0.021
Mof_H 	H 	0.9885	0.6679	0.7385	0.033
Mof_C 	C 	0.1105	0.70113	0.7822	-0.019
Mof_H 	H 	0.1256	0.724	0.7648	0.054
Mof_O 	O 	0.158	0.69653	0.25831	-0.277
Mof_O 	O 	0.9843	0.65917	0.24488	-0.314
Mof_C 	C 	0.0704	0.681	0.2308	0.34
Mof_C 	C 	0.0664	0.6875	0.1789	-0.179
Mof_C 	C 	0.9797	0.6644	0.1457	0.239
Mof_C 	C 	0.9818	0.6679	0.097	-0.072
Mof_Cd	Cd	0.90536	0.58718	0.80324	0.421
Mof_Cd	Cd	0.08271	0.65511	0.3251	0.422
Mof_N 	N 	0.0117	0.53561	0.77451	-0.143
Mof_N 	N 	0.0949	0.49578	0.7248	-0.105
Mof_N 	N 	0.7546	0.46604	0.69065	-0.101
Mof_N 	N 	0.8441	0.40611	0.69434	-0.141
Mof_N 	N 	0.9752	0.70896	0.34884	-0.141
Mof_N 	N 	0.8592	0.76469	0.34326	-0.098
Mof_N 	N 	0.1608	0.80722	0.32779	-0.098
Mof_N 	N 	0.0386	0.85813	0.30199	-0.141
Mof_O 	O 	0.7377	0.62392	0.76563	-0.301
Mof_O 	O 	0.8386	0.59992	0.70841	-0.304
Mof_O 	O 	0.1835	0.63446	0.40963	-0.299
Mof_O 	O 	0.2667	0.68112	0.36897	-0.289
Mof_O 	O 	0.7368	0.60287	0.62403	-0.451
Mof_H 	H 	0.7941	0.6017	0.6464	0.29
Mof_O 	O 	0.3177	0.60646	0.48352	-0.44
Mof_H 	H 	0.262	0.6076	0.4606	0.288
Mof_O 	O 	0.995	0.56621	0.87751	-0.3
Mof_O 	O 	0.8538	0.6137	0.88525	-0.307
Mof_O 	O 	0.8382	0.64427	0.966	-0.444
Mof_H 	H 	0.8298	0.6422	0.9372	0.286
Mof_O 	O 	0.8972	0.63895	0.16228	-0.45
Mof_H 	H 	0.9069	0.6398	0.1912	0.293
Mof_C 	C 	0.7422	0.616	0.7237	0.338
Mof_C 	C 	0.2693	0.66102	0.4056	0.337
Mof_C 	C 	0.5159	0.63753	0.7027	0.028
Mof_H 	H 	0.5151	0.6432	0.7345	0.038
Mof_C 	C 	0.6264	0.62493	0.6877	-0.181
Mof_C 	C 	0.6292	0.61711	0.6389	0.237
Mof_C 	C 	0.5197	0.62106	0.6063	-0.076
Mof_C 	C 	0.4053	0.6341	0.6229	0.063
Mof_C 	C 	0.4044	0.6422	0.672	-0.032
Mof_C 	C 	0.2862	0.6544	0.6885	-0.029
Mof_H 	H 	0.2863	0.6624	0.7198	0.047
Mof_C 	C 	0.1717	0.6542	0.658	-0.069
Mof_H 	H 	0.0937	0.659	0.6694	0.058
Mof_C 	C 	0.1753	0.6467	0.6107	0.016
Mof_H 	H 	0.1	0.6491	0.5899	0.03
Mof_C 	C 	0.2859	0.636	0.5938	-0.114
Mof_H 	H 	0.283	0.6297	0.5619	0.094
Mof_C 	C 	0.5265	0.60882	0.5556	-0.092
Mof_H 	H 	0.6114	0.5977	0.5536	0.088
Mof_H 	H 	0.4647	0.5872	0.5476	0.087
Mof_C 	C 	0.4547	0.7	0.4449	0.024
Mof_H 	H 	0.4365	0.7192	0.4211	0.036
Mof_C 	C 	0.3757	0.6667	0.4453	-0.177
Mof_C 	C 	0.3979	0.63864	0.48298	0.236
Mof_C 	C 	0.5006	0.64261	0.5177	-0.077
Mof_C 	C 	0.5857	0.6748	0.5159	0.063
Mof_C 	C 	0.5599	0.7058	0.4785	-0.027
Mof_C 	C 	0.6486	0.7376	0.4761	-0.026
Mof_H 	H 	0.6327	0.7566	0.4521	0.048
Mof_C 	C 	0.7561	0.7415	0.5075	-0.068
Mof_H 	H 	0.8119	0.7632	0.5054	0.062
Mof_C 	C 	0.7817	0.7132	0.5425	0.013
Mof_H 	H 	0.8561	0.7161	0.5638	0.031
Mof_C 	C 	0.7014	0.6804	0.5477	-0.108
Mof_H 	H 	0.7231	0.6619	0.5719	0.091
Mof_C 	C 	0.9373	0.5884	0.902	0.347
Mof_C 	C 	0.0517	0.55614	0.9736	0.012
Mof_H 	H 	0.0867	0.5382	0.9537	0.045
Mof_C 	C 	0.9718	0.58608	0.9542	-0.163
Mof_C 	C 	0.9176	0.615	0.9853	0.22
Mof_C 	C 	0.9452	0.6124	0.0345	-0.057
Mof_C 	C 	0.0277	0.5799	0.0538	0.046
Mof_C 	C 	0.0829	0.55146	0.0227	-0.013
Mof_C 	C 	0.1656	0.5187	0.0415	-0.04
Mof_H 	H 	0.2013	0.5007	0.0216	0.051
Mof_C 	C 	0.19	0.5149	0.0909	-0.052
Mof_H 	H 	0.2441	0.4944	0.1041	0.055
Mof_C 	C 	0.1347	0.5411	0.1203	0.005
Mof_H 	H 	0.1516	0.5375	0.1528	0.03
Mof_C 	C 	0.0568	0.5719	0.1034	-0.096
Mof_H 	H 	0.0209	0.5884	0.1247	0.084
Mof_C 	C 	0.8875	0.6415	0.0648	-0.102
Mof_H 	H 	0.8306	0.6592	0.0447	0.088
Mof_H 	H 	0.835	0.6265	0.0844	0.091
Mof_C 	C 	0.1457	0.7143	0.1616	0.029
Mof_H 	H 	0.2013	0.7297	0.1825	0.034
Mof_C 	C 	0.1463	0.7195	0.1117	-0.031
Mof_C 	C 	0.0646	0.6957	0.0807	0.061
Mof_C 	C 	0.0687	0.7023	0.0309	-0.111
Mof_H 	H 	0.0149	0.6872	0.0091	0.086
Mof_C 	C 	0.1498	0.7301	0.0152	0.018
Mof_H 	H 	0.1506	0.7335	0.9829	0.023
Mof_C 	C 	0.2291	0.7527	0.0459	-0.072
Mof_H 	H 	0.2838	0.7717	0.035	0.061
Mof_C 	C 	0.2275	0.7471	0.0945	-0.025
Mof_H 	H 	0.2827	0.7623	0.1157	0.046
Mof_C 	C 	0.0272	0.5283	0.7302	0.091
Mof_H 	H 	0.9933	0.5447	0.7052	0.019
Mof_C 	C 	0.1259	0.4805	0.7682	-0.004
Mof_H 	H 	0.1743	0.4573	0.776	0.043
Mof_C 	C 	0.0742	0.50494	0.7984	0.012
Mof_H 	H 	0.0807	0.5012	0.8309	0.042
Mof_C 	C 	0.131	0.4793	0.682	-0.128
Mof_H 	H 	0.1098	0.4507	0.6805	0.076
Mof_H 	H 	0.0811	0.4925	0.6553	0.076
Mof_C 	C 	0.2699	0.4842	0.6778	0.072
Mof_C 	C 	0.3244	0.5195	0.6728	-0.064
Mof_H 	H 	0.2709	0.5421	0.6695	0.063
Mof_C 	C 	0.4558	0.526	0.672	-0.088
Mof_H 	H 	0.4874	0.5522	0.6703	0.068
Mof_C 	C 	0.535	0.49474	0.6735	0.087
Mof_C 	C 	0.4791	0.4586	0.6797	-0.079
Mof_H 	H 	0.531	0.4357	0.682	0.072
Mof_C 	C 	0.3507	0.4537	0.683	-0.069
Mof_H 	H 	0.3201	0.428	0.6891	0.058
Mof_C 	C 	0.6767	0.50068	0.6708	-0.149
Mof_H 	H 	0.7056	0.5251	0.6878	0.089
Mof_H 	H 	0.6899	0.5043	0.638	0.088
Mof_C 	C 	0.7876	0.43317	0.6662	0.084
Mof_H 	H 	0.7718	0.4305	0.6336	0.018
Mof_C 	C 	0.846	0.42309	0.7395	0.008
Mof_H 	H 	0.882	0.4107	0.7674	0.038
Mof_C 	C 	0.7903	0.45883	0.7373	-0.003
Mof_H 	H 	0.778	0.4757	0.7624	0.037
Mof_C 	C 	0.9048	0.73412	0.3199	0.088
Mof_H 	H 	0.8893	0.7308	0.2873	0.014
Mof_C 	C 	0.9765	0.72522	0.3929	0.02
Mof_H 	H 	0.0196	0.7144	0.4206	0.03
Mof_C 	C 	0.9055	0.75944	0.3901	-0.014
Mof_H 	H 	0.8907	0.7762	0.415	0.045
Mof_C 	C 	0.7775	0.79779	0.3219	-0.152
Mof_H 	H 	0.8113	0.8235	0.3345	0.103
Mof_H 	H 	0.7803	0.798	0.288	0.092
Mof_C 	C 	0.6406	0.79352	0.3312	0.088
Mof_C 	C 	0.5864	0.8205	0.3585	-0.084
Mof_H 	H 	0.6356	0.8421	0.3715	0.076
Mof_C 	C 	0.4629	0.8171	0.3675	-0.066
Mof_H 	H 	0.4302	0.8362	0.3867	0.06
Mof_C 	C 	0.3847	0.78606	0.349	0.077
Mof_C 	C 	0.4378	0.7591	0.3205	-0.077
Mof_H 	H 	0.3877	0.7379	0.3069	0.081
Mof_C 	C 	0.5639	0.7626	0.3114	-0.073
Mof_H 	H 	0.5971	0.744	0.2917	0.065
Mof_C 	C 	0.249	0.7819	0.3583	-0.142
Mof_H 	H 	0.2433	0.789	0.391	0.078
Mof_H 	H 	0.2229	0.7538	0.3539	0.099
Mof_C 	C 	0.1148	0.84307	0.3381	0.091
Mof_H 	H 	0.1337	0.8559	0.3671	0.012
Mof_C 	C 	0.0363	0.82996	0.2681	0.021
Mof_H 	H 	0.9885	0.8321	0.2385	0.033
Mof_C 	C 	0.1105	0.79887	0.2822	-0.019
Mof_H 	H 	0.1256	0.776	0.2648	0.054
Mof_O 	O 	0.842	0.19653	0.24169	-0.277
Mof_O 	O 	0.0157	0.15917	0.25512	-0.313
Mof_C 	C 	0.9296	0.181	0.2692	0.339
Mof_C 	C 	0.9336	0.1875	0.3211	-0.179
Mof_C 	C 	0.0203	0.1644	0.3543	0.239
Mof_C 	C 	0.0182	0.1679	0.403	-0.071
Mof_Cd	Cd	0.09464	0.08718	0.69676	0.421
Mof_Cd	Cd	0.91729	0.15511	0.1749	0.422
Mof_N 	N 	0.9883	0.03561	0.72549	-0.143
Mof_N 	N 	0.9051	0.99578	0.7752	-0.105
Mof_N 	N 	0.2454	0.96604	0.80935	-0.101
Mof_N 	N 	0.1559	0.90611	0.80566	-0.141
Mof_N 	N 	0.0248	0.20896	0.15116	-0.141
Mof_N 	N 	0.1408	0.26469	0.15674	-0.098
Mof_N 	N 	0.8392	0.30722	0.17221	-0.098
Mof_N 	N 	0.9614	0.35813	0.19801	-0.141
Mof_O 	O 	0.2623	0.12392	0.73437	-0.301
Mof_O 	O 	0.1614	0.09992	0.79159	-0.304
Mof_O 	O 	0.8165	0.13446	0.09037	-0.299
Mof_O 	O 	0.7333	0.18112	0.13103	-0.289
Mof_O 	O 	0.2632	0.10287	0.87597	-0.451
Mof_H 	H 	0.2059	0.1017	0.8536	0.29
Mof_O 	O 	0.6823	0.10646	0.01648	-0.44
Mof_H 	H 	0.738	0.1076	0.0394	0.288
Mof_O 	O 	0.005	0.06621	0.62249	-0.3
Mof_O 	O 	0.1462	0.1137	0.61475	-0.307
Mof_O 	O 	0.1618	0.14427	0.534	-0.443
Mof_H 	H 	0.1702	0.1422	0.5628	0.286
Mof_O 	O 	0.1028	0.13895	0.33772	-0.45
Mof_H 	H 	0.0931	0.1398	0.3088	0.293
Mof_C 	C 	0.2578	0.116	0.7763	0.338
Mof_C 	C 	0.7307	0.16102	0.0944	0.337
Mof_C 	C 	0.4841	0.13753	0.7973	0.028
Mof_H 	H 	0.4849	0.1432	0.7655	0.038
Mof_C 	C 	0.3736	0.12493	0.8123	-0.181
Mof_C 	C 	0.3708	0.11711	0.8611	0.237
Mof_C 	C 	0.4803	0.12106	0.8937	-0.076
Mof_C 	C 	0.5947	0.1341	0.8771	0.063
Mof_C 	C 	0.5956	0.1422	0.828	-0.032
Mof_C 	C 	0.7138	0.1544	0.8115	-0.029
Mof_H 	H 	0.7137	0.1624	0.7802	0.047
Mof_C 	C 	0.8283	0.1542	0.842	-0.069
Mof_H 	H 	0.9063	0.159	0.8306	0.058
Mof_C 	C 	0.8247	0.1467	0.8893	0.016
Mof_H 	H 	0.9	0.1491	0.9101	0.03
Mof_C 	C 	0.7141	0.136	0.9062	-0.114
Mof_H 	H 	0.717	0.1297	0.9381	0.094
Mof_C 	C 	0.4735	0.10882	0.9444	-0.091
Mof_H 	H 	0.3886	0.0977	0.9464	0.088
Mof_H 	H 	0.5353	0.0872	0.9524	0.087
Mof_C 	C 	0.5453	0.2	0.0551	0.024
Mof_H 	H 	0.5635	0.2192	0.0789	0.036
Mof_C 	C 	0.6243	0.1667	0.0547	-0.177
Mof_C 	C 	0.6021	0.13864	0.01702	0.236
Mof_C 	C 	0.4994	0.14261	0.9823	-0.077
Mof_C 	C 	0.4143	0.1748	0.9841	0.063
Mof_C 	C 	0.4401	0.2058	0.0215	-0.027
Mof_C 	C 	0.3514	0.2376	0.0239	-0.026
Mof_H 	H 	0.3673	0.2566	0.0479	0.048
Mof_C 	C 	0.2439	0.2415	0.9925	-0.068
Mof_H 	H 	0.1881	0.2632	0.9946	0.062
Mof_C 	C 	0.2183	0.2132	0.9575	0.013
Mof_H 	H 	0.1439	0.2161	0.9362	0.031
Mof_C 	C 	0.2986	0.1804	0.9523	-0.108
Mof_H 	H 	0.2769	0.1619	0.9281	0.091
Mof_C 	C 	0.0627	0.0884	0.598	0.347
Mof_C 	C 	0.9483	0.05614	0.5264	0.012
Mof_H 	H 	0.9133	0.0382	0.5463	0.045
Mof_C 	C 	0.0282	0.08608	0.5458	-0.163
Mof_C 	C 	0.0824	0.115	0.5147	0.219
Mof_C 	C 	0.0548	0.1124	0.4655	-0.056
Mof_C 	C 	0.9723	0.0799	0.4462	0.046
Mof_C 	C 	0.9171	0.05146	0.4773	-0.013
Mof_C 	C 	0.8344	0.0187	0.4585	-0.04
Mof_H 	H 	0.7987	0.0007	0.4784	0.051
Mof_C 	C 	0.81	0.0149	0.4091	-0.052
Mof_H 	H 	0.7559	0.9944	0.3959	0.055
Mof_C 	C 	0.8653	0.0411	0.3797	0.005
Mof_H 	H 	0.8484	0.0375	0.3472	0.03
Mof_C 	C 	0.9432	0.0719	0.3966	-0.096
Mof_H 	H 	0.9791	0.0884	0.3753	0.084
Mof_C 	C 	0.1125	0.1415	0.4352	-0.102
Mof_H 	H 	0.1694	0.1592	0.4553	0.088
Mof_H 	H 	0.165	0.1265	0.4156	0.091
Mof_C 	C 	0.8543	0.2143	0.3384	0.029
Mof_H 	H 	0.7987	0.2297	0.3175	0.034
Mof_C 	C 	0.8537	0.2195	0.3883	-0.031
Mof_C 	C 	0.9354	0.1957	0.4193	0.061
Mof_C 	C 	0.9313	0.2023	0.4691	-0.111
Mof_H 	H 	0.9851	0.1872	0.4909	0.086
Mof_C 	C 	0.8502	0.2301	0.4848	0.017
Mof_H 	H 	0.8494	0.2335	0.5171	0.023
Mof_C 	C 	0.7709	0.2527	0.4541	-0.072
Mof_H 	H 	0.7162	0.2717	0.465	0.061
Mof_C 	C 	0.7725	0.2471	0.4055	-0.025
Mof_H 	H 	0.7173	0.2623	0.3843	0.046
Mof_C 	C 	0.9728	0.0283	0.7698	0.09
Mof_H 	H 	0.0067	0.0447	0.7948	0.019
Mof_C 	C 	0.8741	0.9805	0.7318	-0.004
Mof_H 	H 	0.8257	0.9573	0.724	0.043
Mof_C 	C 	0.9258	0.00494	0.7016	0.012
Mof_H 	H 	0.9193	0.0012	0.6691	0.042
Mof_C 	C 	0.869	0.9793	0.818	-0.128
Mof_H 	H 	0.8902	0.9507	0.8195	0.076
Mof_H 	H 	0.9189	0.9925	0.8447	0.076
Mof_C 	C 	0.7301	0.9842	0.8222	0.072
Mof_C 	C 	0.6756	0.0195	0.8272	-0.064
Mof_H 	H 	0.7291	0.0421	0.8305	0.063
Mof_C 	C 	0.5442	0.026	0.828	-0.088
Mof_H 	H 	0.5126	0.0522	0.8297	0.068
Mof_C 	C 	0.465	0.99474	0.8265	0.087
Mof_C 	C 	0.5209	0.9586	0.8203	-0.078
Mof_H 	H 	0.469	0.9357	0.818	0.072
Mof_C 	C 	0.6493	0.9537	0.817	-0.07
Mof_H 	H 	0.6799	0.928	0.8109	0.059
Mof_C 	C 	0.3233	0.00068	0.8292	-0.149
Mof_H 	H 	0.2944	0.0251	0.8122	0.088
Mof_H 	H 	0.3101	0.0043	0.862	0.088
Mof_C 	C 	0.2124	0.93317	0.8338	0.084
Mof_H 	H 	0.2282	0.9305	0.8664	0.018
Mof_C 	C 	0.154	0.92309	0.7605	0.008
Mof_H 	H 	0.118	0.9107	0.7326	0.038
Mof_C 	C 	0.2097	0.95883	0.7627	-0.003
Mof_H 	H 	0.222	0.9757	0.7376	0.037
Mof_C 	C 	0.0952	0.23412	0.1801	0.088
Mof_H 	H 	0.1107	0.2308	0.2127	0.014
Mof_C 	C 	0.0235	0.22522	0.1071	0.02
Mof_H 	H 	0.9804	0.2144	0.0794	0.03
Mof_C 	C 	0.0945	0.25944	0.1099	-0.014
Mof_H 	H 	0.1093	0.2762	0.085	0.045
Mof_C 	C 	0.2225	0.29779	0.1781	-0.152
Mof_H 	H 	0.1887	0.3235	0.1655	0.103
Mof_H 	H 	0.2197	0.298	0.212	0.092
Mof_C 	C 	0.3594	0.29352	0.1688	0.088
Mof_C 	C 	0.4136	0.3205	0.1415	-0.084
Mof_H 	H 	0.3644	0.3421	0.1285	0.076
Mof_C 	C 	0.5371	0.3171	0.1325	-0.066
Mof_H 	H 	0.5698	0.3362	0.1133	0.06
Mof_C 	C 	0.6153	0.28606	0.151	0.077
Mof_C 	C 	0.5622	0.2591	0.1795	-0.077
Mof_H 	H 	0.6123	0.2379	0.1931	0.081
Mof_C 	C 	0.4361	0.2626	0.1886	-0.073
Mof_H 	H 	0.4029	0.244	0.2083	0.065
Mof_C 	C 	0.751	0.2819	0.1417	-0.142
Mof_H 	H 	0.7567	0.289	0.109	0.078
Mof_H 	H 	0.7771	0.2538	0.1461	0.099
Mof_C 	C 	0.8852	0.34307	0.1619	0.091
Mof_H 	H 	0.8663	0.3559	0.1329	0.012
Mof_C 	C 	0.9637	0.32996	0.2319	0.021
Mof_H 	H 	0.0115	0.3321	0.2615	0.033
Mof_C 	C 	0.8895	0.29887	0.2178	-0.019
Mof_H 	H 	0.8744	0.276	0.2352	0.054
_end
