data_functionalizedCrystal
_audit_creation_method	'EQeq! by Chris Wilmer'
_symmetry_space_group_name_H-M	'P1'
_symmetry_Int_Tables_number	1
_symmetry_cell_setting	triclinic
loop_
_symmetry_equiv_pos_as_xyz
  x,y,z
_cell_length_a	18.7846
_cell_length_b	18.7846
_cell_length_c	37.823
_cell_angle_alpha	90
_cell_angle_beta	90
_cell_angle_gamma	120
loop_
_atom_site_label
_atom_site_type_symbol
_atom_site_fract_x
_atom_site_fract_y
_atom_site_fract_z
_atom_site_charge
Mof_C 	C 	0.1206	0.4277	0.80968	0.343
Mof_O 	O 	0.1506	0.44535	0.84004	-0.394
Mof_O 	O 	0.1107	0.3677	0.79143	-0.396
Mof_C 	C 	0.0939	0.4832	0.79334	-0.024
Mof_C 	C 	0.0549	0.4637	0.76076	-0.106
Mof_H 	H 	0.0418	0.4142	0.7499	0.107
Mof_C 	C 	0.9678	0.5303	0.6919	0.091
Mof_C 	C 	0.9152	0.5181	0.60093	0.103
Mof_H 	H 	0.9147	0.5547	0.5845	0.012
Mof_C 	C 	0.9413	0.4996	0.6546	0.098
Mof_C 	C 	0.9212	0.5485	0.632	-0.039
Mof_H 	H 	0.9141	0.5923	0.6384	0.068
Mof_C 	C 	0.9397	0.5145	0.6411	-0.17
Mof_H 	H 	0.9508	0.5517	0.6594	0.072
Mof_O 	O 	0.9361	0.5838	0.7066	-0.167
Mof_C 	C 	0.78727	0.76103	0.14301	0.343
Mof_O 	O 	0.81727	0.77868	0.17337	-0.394
Mof_O 	O 	0.77737	0.70103	0.12476	-0.396
Mof_C 	C 	0.76057	0.81653	0.12667	-0.024
Mof_C 	C 	0.72157	0.79703	0.09409	-0.106
Mof_H 	H 	0.70847	0.74753	0.08323	0.107
Mof_C 	C 	0.63447	0.86363	0.02523	0.091
Mof_C 	C 	0.58187	0.85143	0.93426	0.103
Mof_H 	H 	0.58137	0.88803	0.91783	0.012
Mof_C 	C 	0.60797	0.83293	0.98793	0.098
Mof_C 	C 	0.58787	0.88183	0.96533	-0.039
Mof_H 	H 	0.58077	0.92563	0.97173	0.068
Mof_C 	C 	0.60637	0.84783	0.97443	-0.17
Mof_H 	H 	0.61747	0.88503	0.99273	0.072
Mof_O 	O 	0.60277	0.91713	0.03993	-0.167
Mof_C 	C 	0.45393	0.09437	0.47635	0.343
Mof_O 	O 	0.48393	0.11202	0.50671	-0.394
Mof_O 	O 	0.44403	0.03437	0.4581	-0.396
Mof_C 	C 	0.42723	0.14987	0.46001	-0.024
Mof_C 	C 	0.38823	0.13037	0.42743	-0.106
Mof_H 	H 	0.37513	0.08087	0.41657	0.107
Mof_C 	C 	0.30113	0.19697	0.35857	0.091
Mof_C 	C 	0.24853	0.18477	0.2676	0.103
Mof_H 	H 	0.24803	0.22137	0.25117	0.012
Mof_C 	C 	0.27463	0.16627	0.32127	0.098
Mof_C 	C 	0.25453	0.21517	0.29867	-0.038
Mof_H 	H 	0.24743	0.25897	0.30507	0.069
Mof_C 	C 	0.27303	0.18117	0.30777	-0.169
Mof_H 	H 	0.28413	0.21837	0.32607	0.073
Mof_O 	O 	0.26943	0.25047	0.37327	-0.166
Mof_C 	C 	0.5723	0.6929	0.80968	0.344
Mof_O 	O 	0.55465	0.70525	0.84004	-0.393
Mof_O 	O 	0.6323	0.743	0.79143	-0.395
Mof_C 	C 	0.5168	0.6107	0.79334	-0.023
Mof_C 	C 	0.5363	0.5912	0.76076	-0.105
Mof_H 	H 	0.5858	0.6276	0.7499	0.108
Mof_C 	C 	0.4697	0.4375	0.6919	0.092
Mof_C 	C 	0.4819	0.3971	0.60093	0.104
Mof_H 	H 	0.4453	0.36	0.5845	0.013
Mof_C 	C 	0.5004	0.4417	0.6546	0.099
Mof_C 	C 	0.4515	0.3727	0.632	-0.038
Mof_H 	H 	0.4077	0.3218	0.6384	0.069
Mof_C 	C 	0.4855	0.4252	0.6411	-0.169
Mof_H 	H 	0.4483	0.3991	0.6594	0.073
Mof_O 	O 	0.4162	0.3523	0.7066	-0.166
Mof_C 	C 	0.23897	0.02623	0.14301	0.344
Mof_O 	O 	0.22132	0.03858	0.17337	-0.393
Mof_O 	O 	0.29897	0.07633	0.12476	-0.395
Mof_C 	C 	0.18347	0.94403	0.12667	-0.023
Mof_C 	C 	0.20297	0.92453	0.09409	-0.105
Mof_H 	H 	0.25247	0.96093	0.08323	0.108
Mof_C 	C 	0.13637	0.77083	0.02523	0.092
Mof_C 	C 	0.14857	0.73043	0.93426	0.104
Mof_H 	H 	0.11197	0.69333	0.91783	0.013
Mof_C 	C 	0.16707	0.77503	0.98793	0.099
Mof_C 	C 	0.11817	0.70603	0.96533	-0.037
Mof_H 	H 	0.07437	0.65513	0.97173	0.069
Mof_C 	C 	0.15217	0.75853	0.97443	-0.169
Mof_H 	H 	0.11497	0.73243	0.99273	0.073
Mof_O 	O 	0.08287	0.68563	0.03993	-0.166
Mof_C 	C 	0.90563	0.35957	0.47635	0.344
Mof_O 	O 	0.88798	0.37192	0.50671	-0.393
Mof_O 	O 	0.96563	0.40967	0.4581	-0.395
Mof_C 	C 	0.85013	0.27737	0.46001	-0.023
Mof_C 	C 	0.86963	0.25787	0.42743	-0.105
Mof_H 	H 	0.91913	0.29427	0.41657	0.108
Mof_C 	C 	0.80303	0.10417	0.35857	0.092
Mof_C 	C 	0.81523	0.06377	0.2676	0.104
Mof_H 	H 	0.77863	0.02667	0.25117	0.013
Mof_C 	C 	0.83373	0.10837	0.32127	0.099
Mof_C 	C 	0.78483	0.03937	0.29867	-0.038
Mof_H 	H 	0.74103	0.98847	0.30507	0.069
Mof_C 	C 	0.81883	0.09187	0.30777	-0.169
Mof_H 	H 	0.78163	0.06577	0.32607	0.073
Mof_O 	O 	0.74953	0.01897	0.37327	-0.166
Mof_C 	C 	0.3071	0.8794	0.80968	0.344
Mof_O 	O 	0.29475	0.8494	0.84004	-0.393
Mof_O 	O 	0.257	0.8893	0.79143	-0.395
Mof_C 	C 	0.3893	0.9061	0.79334	-0.023
Mof_C 	C 	0.4088	0.9451	0.76076	-0.105
Mof_H 	H 	0.3724	0.9582	0.7499	0.108
Mof_C 	C 	0.5625	0.0322	0.6919	0.092
Mof_C 	C 	0.6029	0.0848	0.60093	0.104
Mof_H 	H 	0.64	0.0853	0.5845	0.013
Mof_C 	C 	0.5583	0.0587	0.6546	0.099
Mof_C 	C 	0.6273	0.0788	0.632	-0.038
Mof_H 	H 	0.6782	0.0859	0.6384	0.069
Mof_C 	C 	0.5748	0.0603	0.6411	-0.169
Mof_H 	H 	0.6009	0.0492	0.6594	0.073
Mof_O 	O 	0.6477	0.0639	0.7066	-0.166
Mof_C 	C 	0.97377	0.21273	0.14301	0.344
Mof_O 	O 	0.96142	0.18273	0.17337	-0.393
Mof_O 	O 	0.92367	0.22263	0.12476	-0.395
Mof_C 	C 	0.05597	0.23943	0.12667	-0.023
Mof_C 	C 	0.07547	0.27843	0.09409	-0.105
Mof_H 	H 	0.03907	0.29153	0.08323	0.108
Mof_C 	C 	0.22917	0.36553	0.02523	0.092
Mof_C 	C 	0.26957	0.41813	0.93426	0.104
Mof_H 	H 	0.30667	0.41863	0.91783	0.013
Mof_C 	C 	0.22497	0.39203	0.98793	0.099
Mof_C 	C 	0.29397	0.41213	0.96533	-0.038
Mof_H 	H 	0.34487	0.41923	0.97173	0.069
Mof_C 	C 	0.24147	0.39363	0.97443	-0.169
Mof_H 	H 	0.26757	0.38253	0.99273	0.073
Mof_O 	O 	0.31437	0.39723	0.03993	-0.166
Mof_C 	C 	0.64043	0.54607	0.47635	0.344
Mof_O 	O 	0.62808	0.51607	0.50671	-0.393
Mof_O 	O 	0.59033	0.55597	0.4581	-0.395
Mof_C 	C 	0.72263	0.57277	0.46001	-0.023
Mof_C 	C 	0.74213	0.61177	0.42743	-0.105
Mof_H 	H 	0.70573	0.62487	0.41657	0.108
Mof_C 	C 	0.89583	0.69887	0.35857	0.092
Mof_C 	C 	0.93623	0.75147	0.2676	0.104
Mof_H 	H 	0.97333	0.75197	0.25117	0.013
Mof_C 	C 	0.89163	0.72537	0.32127	0.099
Mof_C 	C 	0.96063	0.74547	0.29867	-0.037
Mof_H 	H 	0.01153	0.75257	0.30507	0.068
Mof_C 	C 	0.90813	0.72697	0.30777	-0.169
Mof_H 	H 	0.93423	0.71587	0.32607	0.073
Mof_O 	O 	0.98103	0.73057	0.37327	-0.166
Mof_C 	C 	0.4277	0.1206	0.19032	0.344
Mof_O 	O 	0.44535	0.1506	0.15996	-0.393
Mof_O 	O 	0.3677	0.1107	0.20857	-0.395
Mof_C 	C 	0.4832	0.0939	0.20666	-0.023
Mof_C 	C 	0.4637	0.0549	0.23924	-0.105
Mof_H 	H 	0.4142	0.0418	0.2501	0.108
Mof_C 	C 	0.5303	0.9678	0.3081	0.092
Mof_C 	C 	0.5181	0.9152	0.39907	0.104
Mof_H 	H 	0.5547	0.9147	0.4155	0.013
Mof_C 	C 	0.4996	0.9413	0.3454	0.099
Mof_C 	C 	0.5485	0.9212	0.368	-0.038
Mof_H 	H 	0.5923	0.9141	0.3616	0.069
Mof_C 	C 	0.5145	0.9397	0.3589	-0.169
Mof_H 	H 	0.5517	0.9508	0.3406	0.073
Mof_O 	O 	0.5838	0.9361	0.2934	-0.166
Mof_C 	C 	0.09437	0.45393	0.52365	0.344
Mof_O 	O 	0.11202	0.48393	0.49329	-0.393
Mof_O 	O 	0.03437	0.44403	0.5419	-0.395
Mof_C 	C 	0.14987	0.42723	0.53999	-0.023
Mof_C 	C 	0.13037	0.38823	0.57257	-0.105
Mof_H 	H 	0.08087	0.37513	0.58343	0.108
Mof_C 	C 	0.19697	0.30113	0.64143	0.092
Mof_C 	C 	0.18477	0.24853	0.7324	0.104
Mof_H 	H 	0.22137	0.24803	0.74883	0.013
Mof_C 	C 	0.16627	0.27463	0.67873	0.099
Mof_C 	C 	0.21517	0.25453	0.70133	-0.038
Mof_H 	H 	0.25897	0.24743	0.69493	0.069
Mof_C 	C 	0.18117	0.27303	0.69223	-0.169
Mof_H 	H 	0.21837	0.28413	0.67393	0.073
Mof_O 	O 	0.25047	0.26943	0.62673	-0.166
Mof_C 	C 	0.76103	0.78727	0.85699	0.344
Mof_O 	O 	0.77868	0.81727	0.82663	-0.393
Mof_O 	O 	0.70103	0.77737	0.87524	-0.395
Mof_C 	C 	0.81653	0.76057	0.87333	-0.023
Mof_C 	C 	0.79703	0.72157	0.90591	-0.105
Mof_H 	H 	0.74753	0.70847	0.91677	0.108
Mof_C 	C 	0.86363	0.63447	0.97477	0.092
Mof_C 	C 	0.85143	0.58187	0.06574	0.104
Mof_H 	H 	0.88803	0.58137	0.08217	0.013
Mof_C 	C 	0.83293	0.60797	0.01207	0.099
Mof_C 	C 	0.88183	0.58787	0.03467	-0.038
Mof_H 	H 	0.92563	0.58077	0.02827	0.069
Mof_C 	C 	0.84783	0.60637	0.02557	-0.169
Mof_H 	H 	0.88503	0.61747	0.00727	0.073
Mof_O 	O 	0.91713	0.60277	0.96007	-0.166
Mof_C 	C 	0.6929	0.5723	0.19032	0.344
Mof_O 	O 	0.70525	0.55465	0.15996	-0.393
Mof_O 	O 	0.743	0.6323	0.20857	-0.395
Mof_C 	C 	0.6107	0.5168	0.20666	-0.023
Mof_C 	C 	0.5912	0.5363	0.23924	-0.105
Mof_H 	H 	0.6276	0.5858	0.2501	0.108
Mof_C 	C 	0.4375	0.4697	0.3081	0.092
Mof_C 	C 	0.3971	0.4819	0.39907	0.104
Mof_H 	H 	0.36	0.4453	0.4155	0.013
Mof_C 	C 	0.4417	0.5004	0.3454	0.099
Mof_C 	C 	0.3727	0.4515	0.368	-0.038
Mof_H 	H 	0.3218	0.4077	0.3616	0.069
Mof_C 	C 	0.4252	0.4855	0.3589	-0.169
Mof_H 	H 	0.3991	0.4483	0.3406	0.073
Mof_O 	O 	0.3523	0.4162	0.2934	-0.166
Mof_C 	C 	0.35957	0.90563	0.52365	0.344
Mof_O 	O 	0.37192	0.88798	0.49329	-0.393
Mof_O 	O 	0.40967	0.96563	0.5419	-0.395
Mof_C 	C 	0.27737	0.85013	0.53999	-0.023
Mof_C 	C 	0.25787	0.86963	0.57257	-0.105
Mof_H 	H 	0.29427	0.91913	0.58343	0.108
Mof_C 	C 	0.10417	0.80303	0.64143	0.092
Mof_C 	C 	0.06377	0.81523	0.7324	0.104
Mof_H 	H 	0.02667	0.77863	0.74883	0.013
Mof_C 	C 	0.10837	0.83373	0.67873	0.099
Mof_C 	C 	0.03937	0.78483	0.70133	-0.038
Mof_H 	H 	0.98847	0.74103	0.69493	0.069
Mof_C 	C 	0.09187	0.81883	0.69223	-0.169
Mof_H 	H 	0.06577	0.78163	0.67393	0.073
Mof_O 	O 	0.01897	0.74953	0.62673	-0.166
Mof_C 	C 	0.02623	0.23897	0.85699	0.344
Mof_O 	O 	0.03858	0.22132	0.82663	-0.393
Mof_O 	O 	0.07633	0.29897	0.87524	-0.395
Mof_C 	C 	0.94403	0.18347	0.87333	-0.023
Mof_C 	C 	0.92453	0.20297	0.90591	-0.105
Mof_H 	H 	0.96093	0.25247	0.91677	0.108
Mof_C 	C 	0.77083	0.13637	0.97477	0.092
Mof_C 	C 	0.73043	0.14857	0.06574	0.104
Mof_H 	H 	0.69333	0.11197	0.08217	0.013
Mof_C 	C 	0.77503	0.16707	0.01207	0.099
Mof_C 	C 	0.70603	0.11817	0.03467	-0.037
Mof_H 	H 	0.65513	0.07437	0.02827	0.069
Mof_C 	C 	0.75853	0.15217	0.02557	-0.169
Mof_H 	H 	0.73243	0.11497	0.00727	0.073
Mof_O 	O 	0.68563	0.08287	0.96007	-0.166
Mof_C 	C 	0.8794	0.3071	0.19032	0.344
Mof_O 	O 	0.8494	0.29475	0.15996	-0.393
Mof_O 	O 	0.8893	0.257	0.20857	-0.395
Mof_C 	C 	0.9061	0.3893	0.20666	-0.023
Mof_C 	C 	0.9451	0.4088	0.23924	-0.105
Mof_H 	H 	0.9582	0.3724	0.2501	0.108
Mof_C 	C 	0.0322	0.5625	0.3081	0.092
Mof_C 	C 	0.0848	0.6029	0.39907	0.104
Mof_H 	H 	0.0853	0.64	0.4155	0.013
Mof_C 	C 	0.0587	0.5583	0.3454	0.099
Mof_C 	C 	0.0788	0.6273	0.368	-0.038
Mof_H 	H 	0.0859	0.6782	0.3616	0.069
Mof_C 	C 	0.0603	0.5748	0.3589	-0.169
Mof_H 	H 	0.0492	0.6009	0.3406	0.073
Mof_O 	O 	0.0639	0.6477	0.2934	-0.166
Mof_C 	C 	0.54607	0.64043	0.52365	0.344
Mof_O 	O 	0.51607	0.62808	0.49329	-0.393
Mof_O 	O 	0.55597	0.59033	0.5419	-0.395
Mof_C 	C 	0.57277	0.72263	0.53999	-0.023
Mof_C 	C 	0.61177	0.74213	0.57257	-0.105
Mof_H 	H 	0.62487	0.70573	0.58343	0.108
Mof_C 	C 	0.69887	0.89583	0.64143	0.092
Mof_C 	C 	0.75147	0.93623	0.7324	0.104
Mof_H 	H 	0.75197	0.97333	0.74883	0.013
Mof_C 	C 	0.72537	0.89163	0.67873	0.099
Mof_C 	C 	0.74547	0.96063	0.70133	-0.037
Mof_H 	H 	0.75257	0.01153	0.69493	0.068
Mof_C 	C 	0.72697	0.90813	0.69223	-0.169
Mof_H 	H 	0.71587	0.93423	0.67393	0.073
Mof_O 	O 	0.73057	0.98103	0.62673	-0.166
Mof_C 	C 	0.21273	0.97377	0.85699	0.344
Mof_O 	O 	0.18273	0.96142	0.82663	-0.393
Mof_O 	O 	0.22263	0.92367	0.87524	-0.395
Mof_C 	C 	0.23943	0.05597	0.87333	-0.023
Mof_C 	C 	0.27843	0.07547	0.90591	-0.105
Mof_H 	H 	0.29153	0.03907	0.91677	0.108
Mof_C 	C 	0.36553	0.22917	0.97477	0.092
Mof_C 	C 	0.41813	0.26957	0.06574	0.104
Mof_H 	H 	0.41863	0.30667	0.08217	0.013
Mof_C 	C 	0.39203	0.22497	0.01207	0.099
Mof_C 	C 	0.41213	0.29397	0.03467	-0.038
Mof_H 	H 	0.41923	0.34487	0.02827	0.069
Mof_C 	C 	0.39363	0.24147	0.02557	-0.169
Mof_H 	H 	0.38253	0.26757	0.00727	0.073
Mof_O 	O 	0.39723	0.31437	0.96007	-0.166
Mof_C 	C 	0.8794	0.5723	0.19032	0.344
Mof_O 	O 	0.8494	0.55465	0.15996	-0.393
Mof_O 	O 	0.8893	0.6323	0.20857	-0.395
Mof_C 	C 	0.9061	0.5168	0.20666	-0.023
Mof_C 	C 	0.9451	0.5363	0.23924	-0.105
Mof_H 	H 	0.9582	0.5858	0.2501	0.108
Mof_C 	C 	0.0322	0.4697	0.3081	0.092
Mof_C 	C 	0.0848	0.4819	0.39907	0.104
Mof_H 	H 	0.0853	0.4453	0.4155	0.013
Mof_C 	C 	0.0587	0.5004	0.3454	0.099
Mof_C 	C 	0.0788	0.4515	0.368	-0.038
Mof_H 	H 	0.0859	0.4077	0.3616	0.069
Mof_C 	C 	0.0603	0.4855	0.3589	-0.169
Mof_H 	H 	0.0492	0.4483	0.3406	0.073
Mof_O 	O 	0.0639	0.4162	0.2934	-0.166
Mof_C 	C 	0.54607	0.90563	0.52365	0.344
Mof_O 	O 	0.51607	0.88798	0.49329	-0.393
Mof_O 	O 	0.55597	0.96563	0.5419	-0.395
Mof_C 	C 	0.57277	0.85013	0.53999	-0.023
Mof_C 	C 	0.61177	0.86963	0.57257	-0.105
Mof_H 	H 	0.62487	0.91913	0.58343	0.108
Mof_C 	C 	0.69887	0.80303	0.64143	0.092
Mof_C 	C 	0.75147	0.81523	0.7324	0.104
Mof_H 	H 	0.75197	0.77863	0.74883	0.013
Mof_C 	C 	0.72537	0.83373	0.67873	0.099
Mof_C 	C 	0.74547	0.78483	0.70133	-0.038
Mof_H 	H 	0.75257	0.74103	0.69493	0.069
Mof_C 	C 	0.72697	0.81883	0.69223	-0.169
Mof_H 	H 	0.71587	0.78163	0.67393	0.073
Mof_O 	O 	0.73057	0.74953	0.62673	-0.166
Mof_C 	C 	0.21273	0.23897	0.85699	0.344
Mof_O 	O 	0.18273	0.22132	0.82663	-0.393
Mof_O 	O 	0.22263	0.29897	0.87524	-0.395
Mof_C 	C 	0.23943	0.18347	0.87333	-0.023
Mof_C 	C 	0.27843	0.20297	0.90591	-0.105
Mof_H 	H 	0.29153	0.25247	0.91677	0.108
Mof_C 	C 	0.36553	0.13637	0.97477	0.092
Mof_C 	C 	0.41813	0.14857	0.06574	0.104
Mof_H 	H 	0.41863	0.11197	0.08217	0.013
Mof_C 	C 	0.39203	0.16707	0.01207	0.099
Mof_C 	C 	0.41213	0.11817	0.03467	-0.038
Mof_H 	H 	0.41923	0.07437	0.02827	0.069
Mof_C 	C 	0.39363	0.15217	0.02557	-0.169
Mof_H 	H 	0.38253	0.11497	0.00727	0.073
Mof_O 	O 	0.39723	0.08287	0.96007	-0.166
Mof_C 	C 	0.4277	0.3071	0.19032	0.344
Mof_O 	O 	0.44535	0.29475	0.15996	-0.393
Mof_O 	O 	0.3677	0.257	0.20857	-0.395
Mof_C 	C 	0.4832	0.3893	0.20666	-0.023
Mof_C 	C 	0.4637	0.4088	0.23924	-0.105
Mof_H 	H 	0.4142	0.3724	0.2501	0.108
Mof_C 	C 	0.5303	0.5625	0.3081	0.092
Mof_C 	C 	0.5181	0.6029	0.39907	0.104
Mof_H 	H 	0.5547	0.64	0.4155	0.013
Mof_C 	C 	0.4996	0.5583	0.3454	0.099
Mof_C 	C 	0.5485	0.6273	0.368	-0.038
Mof_H 	H 	0.5923	0.6782	0.3616	0.069
Mof_C 	C 	0.5145	0.5748	0.3589	-0.169
Mof_H 	H 	0.5517	0.6009	0.3406	0.073
Mof_O 	O 	0.5838	0.6477	0.2934	-0.166
Mof_C 	C 	0.09437	0.64043	0.52365	0.344
Mof_O 	O 	0.11202	0.62808	0.49329	-0.393
Mof_O 	O 	0.03437	0.59033	0.5419	-0.395
Mof_C 	C 	0.14987	0.72263	0.53999	-0.023
Mof_C 	C 	0.13037	0.74213	0.57257	-0.105
Mof_H 	H 	0.08087	0.70573	0.58343	0.108
Mof_C 	C 	0.19697	0.89583	0.64143	0.092
Mof_C 	C 	0.18477	0.93623	0.7324	0.104
Mof_H 	H 	0.22137	0.97333	0.74883	0.013
Mof_C 	C 	0.16627	0.89163	0.67873	0.099
Mof_C 	C 	0.21517	0.96063	0.70133	-0.038
Mof_H 	H 	0.25897	0.01153	0.69493	0.069
Mof_C 	C 	0.18117	0.90813	0.69223	-0.169
Mof_H 	H 	0.21837	0.93423	0.67393	0.073
Mof_O 	O 	0.25047	0.98103	0.62673	-0.166
Mof_C 	C 	0.76103	0.97377	0.85699	0.344
Mof_O 	O 	0.77868	0.96142	0.82663	-0.393
Mof_O 	O 	0.70103	0.92367	0.87524	-0.395
Mof_C 	C 	0.81653	0.05597	0.87333	-0.023
Mof_C 	C 	0.79703	0.07547	0.90591	-0.105
Mof_H 	H 	0.74753	0.03907	0.91677	0.108
Mof_C 	C 	0.86363	0.22917	0.97477	0.092
Mof_C 	C 	0.85143	0.26957	0.06574	0.104
Mof_H 	H 	0.88803	0.30667	0.08217	0.013
Mof_C 	C 	0.83293	0.22497	0.01207	0.099
Mof_C 	C 	0.88183	0.29397	0.03467	-0.037
Mof_H 	H 	0.92563	0.34487	0.02827	0.069
Mof_C 	C 	0.84783	0.24147	0.02557	-0.169
Mof_H 	H 	0.88503	0.26757	0.00727	0.073
Mof_O 	O 	0.91713	0.31437	0.96007	-0.166
Mof_C 	C 	0.6929	0.1206	0.19032	0.344
Mof_O 	O 	0.70525	0.1506	0.15996	-0.393
Mof_O 	O 	0.743	0.1107	0.20857	-0.395
Mof_C 	C 	0.6107	0.0939	0.20666	-0.023
Mof_C 	C 	0.5912	0.0549	0.23924	-0.105
Mof_H 	H 	0.6276	0.0418	0.2501	0.108
Mof_C 	C 	0.4375	0.9678	0.3081	0.092
Mof_C 	C 	0.3971	0.9152	0.39907	0.104
Mof_H 	H 	0.36	0.9147	0.4155	0.013
Mof_C 	C 	0.4417	0.9413	0.3454	0.099
Mof_C 	C 	0.3727	0.9212	0.368	-0.038
Mof_H 	H 	0.3218	0.9141	0.3616	0.069
Mof_C 	C 	0.4252	0.9397	0.3589	-0.169
Mof_H 	H 	0.3991	0.9508	0.3406	0.073
Mof_O 	O 	0.3523	0.9361	0.2934	-0.166
Mof_C 	C 	0.35957	0.45393	0.52365	0.344
Mof_O 	O 	0.37192	0.48393	0.49329	-0.393
Mof_O 	O 	0.40967	0.44403	0.5419	-0.395
Mof_C 	C 	0.27737	0.42723	0.53999	-0.023
Mof_C 	C 	0.25787	0.38823	0.57257	-0.105
Mof_H 	H 	0.29427	0.37513	0.58343	0.108
Mof_C 	C 	0.10417	0.30113	0.64143	0.092
Mof_C 	C 	0.06377	0.24853	0.7324	0.104
Mof_H 	H 	0.02667	0.24803	0.74883	0.013
Mof_C 	C 	0.10837	0.27463	0.67873	0.099
Mof_C 	C 	0.03937	0.25453	0.70133	-0.037
Mof_H 	H 	0.98847	0.24743	0.69493	0.068
Mof_C 	C 	0.09187	0.27303	0.69223	-0.169
Mof_H 	H 	0.06577	0.28413	0.67393	0.073
Mof_O 	O 	0.01897	0.26943	0.62673	-0.166
Mof_C 	C 	0.02623	0.78727	0.85699	0.344
Mof_O 	O 	0.03858	0.81727	0.82663	-0.393
Mof_O 	O 	0.07633	0.77737	0.87524	-0.395
Mof_C 	C 	0.94403	0.76057	0.87333	-0.023
Mof_C 	C 	0.92453	0.72157	0.90591	-0.105
Mof_H 	H 	0.96093	0.70847	0.91677	0.108
Mof_C 	C 	0.77083	0.63447	0.97477	0.092
Mof_C 	C 	0.73043	0.58187	0.06574	0.104
Mof_H 	H 	0.69333	0.58137	0.08217	0.013
Mof_C 	C 	0.77503	0.60797	0.01207	0.099
Mof_C 	C 	0.70603	0.58787	0.03467	-0.038
Mof_H 	H 	0.65513	0.58077	0.02827	0.069
Mof_C 	C 	0.75853	0.60637	0.02557	-0.169
Mof_H 	H 	0.73243	0.61747	0.00727	0.073
Mof_O 	O 	0.68563	0.60277	0.96007	-0.166
Mof_C 	C 	0.5723	0.8794	0.80968	0.344
Mof_O 	O 	0.55465	0.8494	0.84004	-0.393
Mof_O 	O 	0.6323	0.8893	0.79143	-0.395
Mof_C 	C 	0.5168	0.9061	0.79334	-0.023
Mof_C 	C 	0.5363	0.9451	0.76076	-0.105
Mof_H 	H 	0.5858	0.9582	0.7499	0.108
Mof_C 	C 	0.4697	0.0322	0.6919	0.092
Mof_C 	C 	0.4819	0.0848	0.60093	0.104
Mof_H 	H 	0.4453	0.0853	0.5845	0.013
Mof_C 	C 	0.5004	0.0587	0.6546	0.099
Mof_C 	C 	0.4515	0.0788	0.632	-0.038
Mof_H 	H 	0.4077	0.0859	0.6384	0.069
Mof_C 	C 	0.4855	0.0603	0.6411	-0.169
Mof_H 	H 	0.4483	0.0492	0.6594	0.073
Mof_O 	O 	0.4162	0.0639	0.7066	-0.166
Mof_C 	C 	0.23897	0.21273	0.14301	0.344
Mof_O 	O 	0.22132	0.18273	0.17337	-0.393
Mof_O 	O 	0.29897	0.22263	0.12476	-0.395
Mof_C 	C 	0.18347	0.23943	0.12667	-0.023
Mof_C 	C 	0.20297	0.27843	0.09409	-0.105
Mof_H 	H 	0.25247	0.29153	0.08323	0.108
Mof_C 	C 	0.13637	0.36553	0.02523	0.092
Mof_C 	C 	0.14857	0.41813	0.93426	0.104
Mof_H 	H 	0.11197	0.41863	0.91783	0.013
Mof_C 	C 	0.16707	0.39203	0.98793	0.099
Mof_C 	C 	0.11817	0.41213	0.96533	-0.038
Mof_H 	H 	0.07437	0.41923	0.97173	0.069
Mof_C 	C 	0.15217	0.39363	0.97443	-0.169
Mof_H 	H 	0.11497	0.38253	0.99273	0.073
Mof_O 	O 	0.08287	0.39723	0.03993	-0.166
Mof_C 	C 	0.90563	0.54607	0.47635	0.344
Mof_O 	O 	0.88798	0.51607	0.50671	-0.393
Mof_O 	O 	0.96563	0.55597	0.4581	-0.395
Mof_C 	C 	0.85013	0.57277	0.46001	-0.023
Mof_C 	C 	0.86963	0.61177	0.42743	-0.105
Mof_H 	H 	0.91913	0.62487	0.41657	0.108
Mof_C 	C 	0.80303	0.69887	0.35857	0.092
Mof_C 	C 	0.81523	0.75147	0.2676	0.104
Mof_H 	H 	0.77863	0.75197	0.25117	0.013
Mof_C 	C 	0.83373	0.72537	0.32127	0.099
Mof_C 	C 	0.78483	0.74547	0.29867	-0.038
Mof_H 	H 	0.74103	0.75257	0.30507	0.069
Mof_C 	C 	0.81883	0.72697	0.30777	-0.169
Mof_H 	H 	0.78163	0.71587	0.32607	0.073
Mof_O 	O 	0.74953	0.73057	0.37327	-0.166
Mof_C 	C 	0.3071	0.4277	0.80968	0.344
Mof_O 	O 	0.29475	0.44535	0.84004	-0.393
Mof_O 	O 	0.257	0.3677	0.79143	-0.395
Mof_C 	C 	0.3893	0.4832	0.79334	-0.023
Mof_C 	C 	0.4088	0.4637	0.76076	-0.105
Mof_H 	H 	0.3724	0.4142	0.7499	0.108
Mof_C 	C 	0.5625	0.5303	0.6919	0.092
Mof_C 	C 	0.6029	0.5181	0.60093	0.104
Mof_H 	H 	0.64	0.5547	0.5845	0.013
Mof_C 	C 	0.5583	0.4996	0.6546	0.099
Mof_C 	C 	0.6273	0.5485	0.632	-0.038
Mof_H 	H 	0.6782	0.5923	0.6384	0.069
Mof_C 	C 	0.5748	0.5145	0.6411	-0.169
Mof_H 	H 	0.6009	0.5517	0.6594	0.073
Mof_O 	O 	0.6477	0.5838	0.7066	-0.166
Mof_C 	C 	0.97377	0.76103	0.14301	0.344
Mof_O 	O 	0.96142	0.77868	0.17337	-0.393
Mof_O 	O 	0.92367	0.70103	0.12476	-0.395
Mof_C 	C 	0.05597	0.81653	0.12667	-0.023
Mof_C 	C 	0.07547	0.79703	0.09409	-0.105
Mof_H 	H 	0.03907	0.74753	0.08323	0.108
Mof_C 	C 	0.22917	0.86363	0.02523	0.092
Mof_C 	C 	0.26957	0.85143	0.93426	0.104
Mof_H 	H 	0.30667	0.88803	0.91783	0.013
Mof_C 	C 	0.22497	0.83293	0.98793	0.099
Mof_C 	C 	0.29397	0.88183	0.96533	-0.037
Mof_H 	H 	0.34487	0.92563	0.97173	0.069
Mof_C 	C 	0.24147	0.84783	0.97443	-0.169
Mof_H 	H 	0.26757	0.88503	0.99273	0.073
Mof_O 	O 	0.31437	0.91713	0.03993	-0.166
Mof_C 	C 	0.64043	0.09437	0.47635	0.344
Mof_O 	O 	0.62808	0.11202	0.50671	-0.393
Mof_O 	O 	0.59033	0.03437	0.4581	-0.395
Mof_C 	C 	0.72263	0.14987	0.46001	-0.023
Mof_C 	C 	0.74213	0.13037	0.42743	-0.105
Mof_H 	H 	0.70573	0.08087	0.41657	0.108
Mof_C 	C 	0.89583	0.19697	0.35857	0.092
Mof_C 	C 	0.93623	0.18477	0.2676	0.104
Mof_H 	H 	0.97333	0.22137	0.25117	0.013
Mof_C 	C 	0.89163	0.16627	0.32127	0.099
Mof_C 	C 	0.96063	0.21517	0.29867	-0.038
Mof_H 	H 	0.01153	0.25897	0.30507	0.069
Mof_C 	C 	0.90813	0.18117	0.30777	-0.169
Mof_H 	H 	0.93423	0.21837	0.32607	0.073
Mof_O 	O 	0.98103	0.25047	0.37327	-0.166
Mof_C 	C 	0.1206	0.6929	0.80968	0.344
Mof_O 	O 	0.1506	0.70525	0.84004	-0.393
Mof_O 	O 	0.1107	0.743	0.79143	-0.395
Mof_C 	C 	0.0939	0.6107	0.79334	-0.023
Mof_C 	C 	0.0549	0.5912	0.76076	-0.105
Mof_H 	H 	0.0418	0.6276	0.7499	0.108
Mof_C 	C 	0.9678	0.4375	0.6919	0.092
Mof_C 	C 	0.9152	0.3971	0.60093	0.104
Mof_H 	H 	0.9147	0.36	0.5845	0.013
Mof_C 	C 	0.9413	0.4417	0.6546	0.099
Mof_C 	C 	0.9212	0.3727	0.632	-0.038
Mof_H 	H 	0.9141	0.3218	0.6384	0.069
Mof_C 	C 	0.9397	0.4252	0.6411	-0.169
Mof_H 	H 	0.9508	0.3991	0.6594	0.073
Mof_O 	O 	0.9361	0.3523	0.7066	-0.166
Mof_C 	C 	0.78727	0.02623	0.14301	0.344
Mof_O 	O 	0.81727	0.03858	0.17337	-0.393
Mof_O 	O 	0.77737	0.07633	0.12476	-0.395
Mof_C 	C 	0.76057	0.94403	0.12667	-0.023
Mof_C 	C 	0.72157	0.92453	0.09409	-0.105
Mof_H 	H 	0.70847	0.96093	0.08323	0.108
Mof_C 	C 	0.63447	0.77083	0.02523	0.092
Mof_C 	C 	0.58187	0.73043	0.93426	0.104
Mof_H 	H 	0.58137	0.69333	0.91783	0.013
Mof_C 	C 	0.60797	0.77503	0.98793	0.099
Mof_C 	C 	0.58787	0.70603	0.96533	-0.038
Mof_H 	H 	0.58077	0.65513	0.97173	0.069
Mof_C 	C 	0.60637	0.75853	0.97443	-0.169
Mof_H 	H 	0.61747	0.73243	0.99273	0.073
Mof_O 	O 	0.60277	0.68563	0.03993	-0.166
Mof_C 	C 	0.45393	0.35957	0.47635	0.344
Mof_O 	O 	0.48393	0.37192	0.50671	-0.393
Mof_O 	O 	0.44403	0.40967	0.4581	-0.395
Mof_C 	C 	0.42723	0.27737	0.46001	-0.023
Mof_C 	C 	0.38823	0.25787	0.42743	-0.105
Mof_H 	H 	0.37513	0.29427	0.41657	0.108
Mof_C 	C 	0.30113	0.10417	0.35857	0.092
Mof_C 	C 	0.24853	0.06377	0.2676	0.104
Mof_H 	H 	0.24803	0.02667	0.25117	0.013
Mof_C 	C 	0.27463	0.10837	0.32127	0.099
Mof_C 	C 	0.25453	0.03937	0.29867	-0.037
Mof_H 	H 	0.24743	0.98847	0.30507	0.068
Mof_C 	C 	0.27303	0.09187	0.30777	-0.169
Mof_H 	H 	0.28413	0.06577	0.32607	0.073
Mof_O 	O 	0.26943	0.01897	0.37327	-0.166
Mof_Cu	Cu	0.14379	0.28758	0.80407	0.925
Mof_Cu	Cu	0.81046	0.62091	0.1374	0.925
Mof_Cu	Cu	0.47712	0.95425	0.47073	0.925
Mof_Cu	Cu	0.71242	0.85621	0.80407	0.925
Mof_Cu	Cu	0.37909	0.18954	0.1374	0.925
Mof_Cu	Cu	0.04575	0.52288	0.47073	0.925
Mof_Cu	Cu	0.14379	0.85621	0.80407	0.925
Mof_Cu	Cu	0.81046	0.18954	0.1374	0.925
Mof_Cu	Cu	0.47712	0.52288	0.47073	0.925
Mof_Cu	Cu	0.28758	0.14379	0.19593	0.925
Mof_Cu	Cu	0.95425	0.47712	0.52927	0.925
Mof_Cu	Cu	0.62091	0.81046	0.8626	0.925
Mof_Cu	Cu	0.85621	0.71242	0.19593	0.925
Mof_Cu	Cu	0.52288	0.04575	0.52927	0.925
Mof_Cu	Cu	0.18954	0.37909	0.8626	0.925
Mof_Cu	Cu	0.85621	0.14379	0.19593	0.925
Mof_Cu	Cu	0.52288	0.47712	0.52927	0.925
Mof_Cu	Cu	0.18954	0.81046	0.8626	0.925
Mof_N 	N 	0.9096	0.4548	0.58358	-0.193
Mof_C 	C 	0.1123	0.55615	0.80986	-0.025
Mof_H 	H 	0.1369	0.56845	0.832	0.078
Mof_C 	C 	0.0355	0.51775	0.7442	0.15
Mof_N 	N 	0.999	0.4995	0.71059	-0.159
Mof_N 	N 	0.57627	0.78813	0.91691	-0.193
Mof_C 	C 	0.77897	0.88948	0.14319	-0.025
Mof_H 	H 	0.80357	0.90178	0.16533	0.078
Mof_C 	C 	0.70217	0.85108	0.07753	0.15
Mof_N 	N 	0.66567	0.83283	0.04392	-0.159
Mof_N 	N 	0.24293	0.12147	0.25025	-0.193
Mof_C 	C 	0.44563	0.22282	0.47653	-0.025
Mof_H 	H 	0.47023	0.23512	0.49867	0.078
Mof_C 	C 	0.36883	0.18442	0.41087	0.15
Mof_N 	N 	0.33233	0.16617	0.37726	-0.159
Mof_N 	N 	0.5452	0.4548	0.58358	-0.193
Mof_C 	C 	0.44385	0.55615	0.80986	-0.025
Mof_H 	H 	0.43155	0.56845	0.832	0.078
Mof_C 	C 	0.48225	0.51775	0.7442	0.15
Mof_N 	N 	0.5005	0.4995	0.71059	-0.159
Mof_N 	N 	0.21187	0.78813	0.91691	-0.193
Mof_C 	C 	0.11052	0.88948	0.14319	-0.025
Mof_H 	H 	0.09822	0.90178	0.16533	0.078
Mof_C 	C 	0.14892	0.85108	0.07753	0.15
Mof_N 	N 	0.16717	0.83283	0.04392	-0.159
Mof_N 	N 	0.87853	0.12147	0.25025	-0.193
Mof_C 	C 	0.77718	0.22282	0.47653	-0.025
Mof_H 	H 	0.76488	0.23512	0.49867	0.078
Mof_C 	C 	0.81558	0.18442	0.41087	0.15
Mof_N 	N 	0.83383	0.16617	0.37726	-0.159
Mof_N 	N 	0.5452	0.0904	0.58358	-0.193
Mof_C 	C 	0.44385	0.8877	0.80986	-0.025
Mof_H 	H 	0.43155	0.8631	0.832	0.078
Mof_C 	C 	0.48225	0.9645	0.7442	0.15
Mof_N 	N 	0.5005	0.001	0.71059	-0.159
Mof_N 	N 	0.21187	0.42373	0.91691	-0.193
Mof_C 	C 	0.11052	0.22103	0.14319	-0.025
Mof_H 	H 	0.09822	0.19643	0.16533	0.078
Mof_C 	C 	0.14892	0.29783	0.07753	0.15
Mof_N 	N 	0.16717	0.33433	0.04392	-0.159
Mof_N 	N 	0.87853	0.75707	0.25025	-0.193
Mof_C 	C 	0.77718	0.55437	0.47653	-0.025
Mof_H 	H 	0.76488	0.52977	0.49867	0.078
Mof_C 	C 	0.81558	0.63117	0.41087	0.15
Mof_N 	N 	0.83383	0.66767	0.37726	-0.159
Mof_N 	N 	0.4548	0.9096	0.41642	-0.193
Mof_C 	C 	0.55615	0.1123	0.19014	-0.025
Mof_H 	H 	0.56845	0.1369	0.168	0.078
Mof_C 	C 	0.51775	0.0355	0.2558	0.15
Mof_N 	N 	0.4995	0.999	0.28941	-0.159
Mof_N 	N 	0.12147	0.24293	0.74975	-0.193
Mof_C 	C 	0.22282	0.44563	0.52347	-0.025
Mof_H 	H 	0.23512	0.47023	0.50133	0.078
Mof_C 	C 	0.18442	0.36883	0.58913	0.15
Mof_N 	N 	0.16617	0.33233	0.62274	-0.159
Mof_N 	N 	0.78813	0.57627	0.08309	-0.193
Mof_C 	C 	0.88948	0.77897	0.85681	-0.025
Mof_H 	H 	0.90178	0.80357	0.83467	0.078
Mof_C 	C 	0.85108	0.70217	0.92247	0.15
Mof_N 	N 	0.83283	0.66567	0.95608	-0.159
Mof_N 	N 	0.4548	0.5452	0.41642	-0.193
Mof_C 	C 	0.55615	0.44385	0.19014	-0.025
Mof_H 	H 	0.56845	0.43155	0.168	0.078
Mof_C 	C 	0.51775	0.48225	0.2558	0.15
Mof_N 	N 	0.4995	0.5005	0.28941	-0.159
Mof_N 	N 	0.12147	0.87853	0.74975	-0.193
Mof_C 	C 	0.22282	0.77718	0.52347	-0.025
Mof_H 	H 	0.23512	0.76488	0.50133	0.078
Mof_C 	C 	0.18442	0.81558	0.58913	0.15
Mof_N 	N 	0.16617	0.83383	0.62274	-0.159
Mof_N 	N 	0.78813	0.21187	0.08309	-0.193
Mof_C 	C 	0.88948	0.11052	0.85681	-0.025
Mof_H 	H 	0.90178	0.09822	0.83467	0.078
Mof_C 	C 	0.85108	0.14892	0.92247	0.15
Mof_N 	N 	0.83283	0.16717	0.95608	-0.159
Mof_N 	N 	0.0904	0.5452	0.41642	-0.193
Mof_C 	C 	0.8877	0.44385	0.19014	-0.025
Mof_H 	H 	0.8631	0.43155	0.168	0.078
Mof_C 	C 	0.9645	0.48225	0.2558	0.15
Mof_N 	N 	0.001	0.5005	0.28941	-0.159
Mof_N 	N 	0.75707	0.87853	0.74975	-0.193
Mof_C 	C 	0.55437	0.77718	0.52347	-0.025
Mof_H 	H 	0.52977	0.76488	0.50133	0.078
Mof_C 	C 	0.63117	0.81558	0.58913	0.15
Mof_N 	N 	0.66767	0.83383	0.62274	-0.159
Mof_N 	N 	0.42373	0.21187	0.08309	-0.193
Mof_C 	C 	0.22103	0.11052	0.85681	-0.025
Mof_H 	H 	0.19643	0.09822	0.83467	0.078
Mof_C 	C 	0.29783	0.14892	0.92247	0.15
Mof_N 	N 	0.33433	0.16717	0.95608	-0.159
_end
