# CIF file generated by openbabel 3.1.0, see https://openbabel.org
data_I
_chemical_name_common 'image0'
_cell_length_a 9.3376
_cell_length_b 9.3376
_cell_length_c 6.991
_cell_angle_alpha 90
_cell_angle_beta 90
_cell_angle_gamma 120
_space_group_name_H-M_alt 'P 1'
_space_group_name_Hall 'P 1'
loop_
    _symmetry_equiv_pos_as_xyz
    x,y,z
loop_
    _atom_site_label
    _atom_site_type_symbol
    _atom_site_fract_x
    _atom_site_fract_y
    _atom_site_fract_z
    _atom_site_occupancy
    Al1      Al       0.47881    0.83784    0.94382    1.000
    O1       O        0.27030    0.69870    0.04040    1.000
    H1       H        0.19360    0.64110    0.95830    1.000
    O2       O        0.57260    0.72150    0.04070    1.000
    O3       O        0.43440    0.46720    0.83070    1.000
    Al2      Al       0.16216    0.64097    0.27715    1.000
    O4       O        0.30130    0.57160    0.37373    1.000
    H2       H        0.35890    0.55250    0.29163    1.000
    O5       O        0.27850    0.85110    0.37403    1.000
    O6       O        0.53280    0.96720    0.16403    1.000
    Al3      Al       0.35903    0.52119    0.61049    1.000
    O7       O        0.42840    0.72970    0.70707    1.000
    H3       H        0.44750    0.80640    0.62497    1.000
    O8       O        0.14890    0.42740    0.70737    1.000
    O9       O        0.03280    0.56560    0.49737    1.000
    Al4      Al       0.83784    0.47881    0.05618    1.000
    O10      O        0.69870    0.27030    0.95960    1.000
    H4       H        0.64110    0.19360    0.04170    1.000
    O11      O        0.72150    0.57260    0.95930    1.000
    O12      O        0.46720    0.43440    0.16930    1.000
    Al5      Al       0.64097    0.16216    0.72285    1.000
    O13      O        0.57160    0.30130    0.62627    1.000
    H5       H        0.55250    0.35890    0.70837    1.000
    O14      O        0.85110    0.27850    0.62597    1.000
    O15      O        0.96720    0.53280    0.83597    1.000
    Al6      Al       0.52119    0.35903    0.38951    1.000
    O16      O        0.72970    0.42840    0.29293    1.000
    H6       H        0.80640    0.44750    0.37503    1.000
    O17      O        0.42740    0.14890    0.29263    1.000
    O18      O        0.56560    0.03280    0.50263    1.000
    P1       P        0.55071    0.55071    0.00000    1.000
    P2       P        0.44929    0.00000    0.33333    1.000
    P3       P        0.00000    0.44929    0.66667    1.000
    F1       F        0.68210    0.00000    0.83333    1.000
    F2       F        0.43190    0.00000    0.83333    1.000
    F3       F        0.00000    0.68210    0.16667    1.000
    F4       F        0.00000    0.43190    0.16667    1.000
    F5       F        0.31790    0.31790    0.50000    1.000
    F6       F        0.56810    0.56810    0.50000    1.000
