data_functionalizedCrystal
_audit_creation_method	'EQeq! by Chris Wilmer'
_symmetry_space_group_name_H-M	'P1'
_symmetry_Int_Tables_number	1
_symmetry_cell_setting	triclinic
loop_
_symmetry_equiv_pos_as_xyz
  x,y,z
_cell_length_a	10.3363
_cell_length_b	11.2395
_cell_length_c	11.7729
_cell_angle_alpha	91.931
_cell_angle_beta	108.443
_cell_angle_gamma	109.729
loop_
_atom_site_label
_atom_site_type_symbol
_atom_site_fract_x
_atom_site_fract_y
_atom_site_fract_z
_atom_site_charge
Mof_C 	C 	0.311	0.759	0.8418	0.335
Mof_C 	C 	0.408	0.884	0.9229	-0.077
Mof_C 	C 	0.3762	0.9228	0.0194	-0.072
Mof_H 	H 	0.2924	0.8715	0.0329	0.081
Mof_C 	C 	0.5326	0.962	0.9021	0.095
Mof_C 	C 	0.7945	0.501	0.5815	0.446
Mof_C 	C 	0.6428	0.5004	0.5407	-0.141
Mof_C 	C 	0.6039	0.5788	0.6057	0.104
Mof_C 	C 	0.5371	0.4205	0.4362	-0.052
Mof_H 	H 	0.5614	0.3653	0.3935	0.052
Mof_C 	C 	0.0268	0.7528	0.5002	0.509
Mof_C 	C 	0.0158	0.8806	0.5019	-0.151
Mof_C 	C 	0.9918	0.9343	0.3948	-0.042
Mof_H 	H 	0.9886	0.891	0.3247	0.061
Mof_C 	C 	0.0271	0.9502	0.6085	0.114
Mof_C 	C 	0.9821	0.4363	0.912	0.1
Mof_H 	H 	0.9375	0.496	0.8939	0.021
Mof_C 	C 	0.0474	0.2905	0.0035	0.075
Mof_C 	C 	0.1013	0.3225	0.9095	0.059
Mof_C 	C 	0.1869	0.2559	0.8917	-0.087
Mof_H 	H 	0.2273	0.2722	0.831	0.037
Mof_C 	C 	0.212	0.1653	0.964	-0.032
Mof_H 	H 	0.2687	0.1197	0.953	0.051
Mof_C 	C 	0.15	0.146	0.054	-0.012
Mof_H 	H 	0.1688	0.0851	0.101	0.053
Mof_C 	C 	0.062	0.2038	0.0837	-0.09
Mof_H 	H 	0.0225	0.1878	0.1447	0.1
Mof_N 	N 	0.572	0.946	0.7962	-0.097
Mof_N 	N 	0.7073	0.665	0.7146	-0.102
Mof_N 	N 	0.04	0.901	0.722	-0.107
Mof_N 	N 	0.0633	0.4136	0.8499	-0.263
Mof_N 	N 	0.9699	0.3667	0.0024	-0.129
Mof_O 	O 	0.1951	0.6952	0.8593	-0.439
Mof_O 	O 	0.3438	0.7201	0.7582	-0.438
Mof_O 	O 	0.8702	0.5295	0.691	-0.466
Mof_O 	O 	0.8428	0.469	0.5028	-0.641
Mof_O 	O 	0.9873	0.6857	0.3996	-0.574
Mof_O 	O 	0.07	0.7163	0.6011	-0.518
Mof_Eu	Eu	0.10605	0.53368	0.67894	2.235
Mof_C 	C 	0.689	0.241	0.1582	0.336
Mof_C 	C 	0.592	0.116	0.0771	-0.076
Mof_C 	C 	0.6238	0.0772	0.9806	-0.071
Mof_H 	H 	0.7076	0.1285	0.9671	0.082
Mof_C 	C 	0.4674	0.038	0.0979	0.095
Mof_C 	C 	0.2055	0.499	0.4185	0.446
Mof_C 	C 	0.3572	0.4996	0.4593	-0.141
Mof_C 	C 	0.3961	0.4212	0.3943	0.104
Mof_C 	C 	0.4629	0.5795	0.5638	-0.052
Mof_H 	H 	0.4386	0.6347	0.6065	0.052
Mof_C 	C 	0.9732	0.2472	0.4998	0.509
Mof_C 	C 	0.9842	0.1194	0.4981	-0.151
Mof_C 	C 	0.0082	0.0657	0.6052	-0.042
Mof_H 	H 	0.0114	0.109	0.6753	0.061
Mof_C 	C 	0.9729	0.0498	0.3915	0.114
Mof_C 	C 	0.0179	0.5637	0.088	0.1
Mof_H 	H 	0.0625	0.504	0.1061	0.021
Mof_C 	C 	0.9526	0.7095	0.9965	0.075
Mof_C 	C 	0.8987	0.6775	0.0905	0.059
Mof_C 	C 	0.8131	0.7441	0.1083	-0.087
Mof_H 	H 	0.7727	0.7278	0.169	0.037
Mof_C 	C 	0.788	0.8347	0.036	-0.032
Mof_H 	H 	0.7313	0.8803	0.047	0.051
Mof_C 	C 	0.85	0.854	0.946	-0.012
Mof_H 	H 	0.8312	0.9149	0.899	0.053
Mof_C 	C 	0.938	0.7962	0.9163	-0.09
Mof_H 	H 	0.9775	0.8122	0.8553	0.1
Mof_N 	N 	0.428	0.054	0.2038	-0.097
Mof_N 	N 	0.2927	0.335	0.2854	-0.102
Mof_N 	N 	0.96	0.099	0.278	-0.107
Mof_N 	N 	0.9367	0.5864	0.1501	-0.263
Mof_N 	N 	0.0301	0.6333	0.9976	-0.129
Mof_O 	O 	0.8049	0.3048	0.1407	-0.439
Mof_O 	O 	0.6562	0.2799	0.2418	-0.438
Mof_O 	O 	0.1298	0.4705	0.309	-0.466
Mof_O 	O 	0.1572	0.531	0.4972	-0.641
Mof_O 	O 	0.0127	0.3143	0.6004	-0.574
Mof_O 	O 	0.93	0.2837	0.3989	-0.518
Mof_Eu	Eu	0.89395	0.46632	0.32106	2.235
_end
