data_functionalizedCrystal
_audit_creation_method	'EQeq! by Chris Wilmer'
_symmetry_space_group_name_H-M	'P1'
_symmetry_Int_Tables_number	1
_symmetry_cell_setting	triclinic
loop_
_symmetry_equiv_pos_as_xyz
  x,y,z
_cell_length_a	23.6108
_cell_length_b	15.7288
_cell_length_c	16.1612
_cell_angle_alpha	90
_cell_angle_beta	124.291
_cell_angle_gamma	90
loop_
_atom_site_label
_atom_site_type_symbol
_atom_site_fract_x
_atom_site_fract_y
_atom_site_fract_z
_atom_site_charge
Mof_Sm	Sm	0.81046	0.82814	0.12169	2.116
Mof_C 	C 	0.0983	0.7234	0.5303	-0.094
Mof_C 	C 	0.0844	0.6884	0.5964	-0.097
Mof_H 	H 	0.1201	0.6626	0.6569	0.092
Mof_C 	C 	0.0187	0.6912	0.5735	0.183
Mof_C 	C 	0.9657	0.7277	0.4857	-0.121
Mof_H 	H 	0.9208	0.7297	0.4713	0.112
Mof_C 	C 	0.979	0.7616	0.4182	-0.035
Mof_C 	C 	0.0449	0.7581	0.4395	0.007
Mof_H 	H 	0.0535	0.7792	0.3926	0.015
Mof_C 	C 	0.0456	0.5952	0.7018	0.188
Mof_C 	C 	0.0999	0.6102	0.8001	-0.02
Mof_C 	C 	0.1409	0.5446	0.8604	0.043
Mof_H 	H 	0.1775	0.5558	0.9278	0.039
Mof_C 	C 	0.1293	0.4627	0.8239	-0.177
Mof_C 	C 	0.0739	0.4468	0.7267	0.108
Mof_H 	H 	0.0646	0.3904	0.7015	0.007
Mof_C 	C 	0.032	0.5127	0.6662	-0.197
Mof_H 	H 	0.9939	0.5011	0.6	0.11
Mof_C 	C 	0.1705	0.7223	0.559	0.433
Mof_C 	C 	0.1771	0.3909	0.8877	0.496
Mof_C 	C 	0.9208	0.7977	0.321	0.296
Mof_N 	N 	0.1161	0.6959	0.8433	0.014
Mof_O 	O 	0.18694	0.7615	0.5078	-0.623
Mof_O 	O 	0.21358	0.6816	0.6364	-0.489
Mof_O 	O 	0.0937	0.7572	0.7876	-0.109
Mof_O 	O 	0.1524	0.7022	0.9344	-0.116
Mof_O 	O 	0.22096	0.4077	0.9789	-0.554
Mof_O 	O 	0.16829	0.3221	0.8442	-0.523
Mof_O 	O 	0.86215	0.8005	0.3046	-0.412
Mof_O 	O 	0.93235	0.8227	0.2575	-0.467
Mof_O 	O 	0.00225	0.6584	0.6369	-0.225
Mof_Sm	Sm	0.31046	0.32814	0.12169	2.122
Mof_C 	C 	0.5983	0.2234	0.5303	-0.095
Mof_C 	C 	0.5844	0.1884	0.5964	-0.098
Mof_H 	H 	0.6201	0.1626	0.6569	0.091
Mof_C 	C 	0.5187	0.1912	0.5735	0.182
Mof_C 	C 	0.4657	0.2277	0.4857	-0.122
Mof_H 	H 	0.4208	0.2297	0.4713	0.112
Mof_C 	C 	0.479	0.2616	0.4182	-0.034
Mof_C 	C 	0.5449	0.2581	0.4395	0.006
Mof_H 	H 	0.5535	0.2792	0.3926	0.015
Mof_C 	C 	0.5456	0.0952	0.7018	0.187
Mof_C 	C 	0.5999	0.1102	0.8001	-0.019
Mof_C 	C 	0.6409	0.0446	0.8604	0.041
Mof_H 	H 	0.6775	0.0558	0.9278	0.039
Mof_C 	C 	0.6293	0.9627	0.8239	-0.174
Mof_C 	C 	0.5739	0.9468	0.7267	0.108
Mof_H 	H 	0.5646	0.8904	0.7015	0.007
Mof_C 	C 	0.532	0.0127	0.6662	-0.197
Mof_H 	H 	0.4939	0.0011	0.6	0.11
Mof_C 	C 	0.6705	0.2223	0.559	0.433
Mof_C 	C 	0.6771	0.8909	0.8877	0.495
Mof_C 	C 	0.4208	0.2977	0.321	0.295
Mof_N 	N 	0.6161	0.1959	0.8433	0.014
Mof_O 	O 	0.68694	0.2615	0.5078	-0.623
Mof_O 	O 	0.71358	0.1816	0.6364	-0.489
Mof_O 	O 	0.5937	0.2572	0.7876	-0.11
Mof_O 	O 	0.6524	0.2022	0.9344	-0.116
Mof_O 	O 	0.72096	0.9077	0.9789	-0.551
Mof_O 	O 	0.66829	0.8221	0.8442	-0.522
Mof_O 	O 	0.36215	0.3005	0.3046	-0.413
Mof_O 	O 	0.43235	0.3227	0.2575	-0.467
Mof_O 	O 	0.50225	0.1584	0.6369	-0.225
Mof_Sm	Sm	0.18954	0.82814	0.37831	2.12
Mof_C 	C 	0.9017	0.7234	0.9697	-0.088
Mof_C 	C 	0.9156	0.6884	0.9036	-0.102
Mof_H 	H 	0.8799	0.6626	0.8431	0.092
Mof_C 	C 	0.9813	0.6912	0.9265	0.186
Mof_C 	C 	0.0343	0.7277	0.0143	-0.127
Mof_H 	H 	0.0792	0.7297	0.0287	0.113
Mof_C 	C 	0.021	0.7616	0.0818	-0.029
Mof_C 	C 	0.9551	0.7581	0.0605	-0.003
Mof_H 	H 	0.9465	0.7792	0.1074	0.017
Mof_C 	C 	0.9544	0.5952	0.7982	0.186
Mof_C 	C 	0.9001	0.6102	0.6999	-0.019
Mof_C 	C 	0.8591	0.5446	0.6396	0.043
Mof_H 	H 	0.8225	0.5558	0.5722	0.039
Mof_C 	C 	0.8707	0.4627	0.6761	-0.176
Mof_C 	C 	0.9261	0.4468	0.7733	0.106
Mof_H 	H 	0.9354	0.3904	0.7985	0.008
Mof_C 	C 	0.968	0.5127	0.8338	-0.193
Mof_H 	H 	0.0061	0.5011	0.9	0.107
Mof_C 	C 	0.8295	0.7223	0.941	0.431
Mof_C 	C 	0.8229	0.3909	0.6123	0.496
Mof_C 	C 	0.0792	0.7977	0.179	0.294
Mof_N 	N 	0.8839	0.6959	0.6567	0.014
Mof_O 	O 	0.81306	0.7615	0.9922	-0.621
Mof_O 	O 	0.78642	0.6816	0.8636	-0.488
Mof_O 	O 	0.9063	0.7572	0.7124	-0.109
Mof_O 	O 	0.8476	0.7022	0.5656	-0.116
Mof_O 	O 	0.77904	0.4077	0.5211	-0.553
Mof_O 	O 	0.83171	0.3221	0.6558	-0.523
Mof_O 	O 	0.13785	0.8005	0.1954	-0.412
Mof_O 	O 	0.06765	0.8227	0.2425	-0.466
Mof_O 	O 	0.99775	0.6584	0.8631	-0.225
Mof_Sm	Sm	0.68954	0.32814	0.37831	2.12
Mof_C 	C 	0.4017	0.2234	0.9697	-0.098
Mof_C 	C 	0.4156	0.1884	0.9036	-0.095
Mof_H 	H 	0.3799	0.1626	0.8431	0.09
Mof_C 	C 	0.4813	0.1912	0.9265	0.179
Mof_C 	C 	0.5343	0.2277	0.0143	-0.118
Mof_H 	H 	0.5792	0.2297	0.0287	0.111
Mof_C 	C 	0.521	0.2616	0.0818	-0.037
Mof_C 	C 	0.4551	0.2581	0.0605	0.01
Mof_H 	H 	0.4465	0.2792	0.1074	0.014
Mof_C 	C 	0.4544	0.0952	0.7982	0.188
Mof_C 	C 	0.4001	0.1102	0.6999	-0.02
Mof_C 	C 	0.3591	0.0446	0.6396	0.042
Mof_H 	H 	0.3225	0.0558	0.5722	0.039
Mof_C 	C 	0.3707	0.9627	0.6761	-0.176
Mof_C 	C 	0.4261	0.9468	0.7733	0.111
Mof_H 	H 	0.4354	0.8904	0.7985	0.006
Mof_C 	C 	0.468	0.0127	0.8338	-0.198
Mof_H 	H 	0.5061	0.0011	0.9	0.11
Mof_C 	C 	0.3295	0.2223	0.941	0.434
Mof_C 	C 	0.3229	0.8909	0.6123	0.496
Mof_C 	C 	0.5792	0.2977	0.179	0.296
Mof_N 	N 	0.3839	0.1959	0.6567	0.014
Mof_O 	O 	0.31306	0.2615	0.9922	-0.624
Mof_O 	O 	0.28642	0.1816	0.8636	-0.489
Mof_O 	O 	0.4063	0.2572	0.7124	-0.11
Mof_O 	O 	0.3476	0.2022	0.5656	-0.116
Mof_O 	O 	0.27904	0.9077	0.5211	-0.553
Mof_O 	O 	0.33171	0.8221	0.6558	-0.523
Mof_O 	O 	0.63785	0.3005	0.1954	-0.413
Mof_O 	O 	0.56765	0.3227	0.2425	-0.467
Mof_O 	O 	0.49775	0.1584	0.8631	-0.224
Mof_Sm	Sm	0.18954	0.17186	0.87831	2.115
Mof_C 	C 	0.9017	0.2766	0.4697	-0.095
Mof_C 	C 	0.9156	0.3116	0.4036	-0.098
Mof_H 	H 	0.8799	0.3374	0.3431	0.091
Mof_C 	C 	0.9813	0.3088	0.4265	0.182
Mof_C 	C 	0.0343	0.2723	0.5143	-0.122
Mof_H 	H 	0.0792	0.2703	0.5287	0.112
Mof_C 	C 	0.021	0.2384	0.5818	-0.035
Mof_C 	C 	0.9551	0.2419	0.5605	0.007
Mof_H 	H 	0.9465	0.2208	0.6074	0.015
Mof_C 	C 	0.9544	0.4048	0.2982	0.188
Mof_C 	C 	0.9001	0.3898	0.1999	-0.02
Mof_C 	C 	0.8591	0.4554	0.1396	0.043
Mof_H 	H 	0.8225	0.4442	0.0722	0.039
Mof_C 	C 	0.8707	0.5373	0.1761	-0.177
Mof_C 	C 	0.9261	0.5532	0.2733	0.108
Mof_H 	H 	0.9354	0.6096	0.2985	0.007
Mof_C 	C 	0.968	0.4873	0.3338	-0.197
Mof_H 	H 	0.0061	0.4989	0.4	0.11
Mof_C 	C 	0.8295	0.2777	0.441	0.433
Mof_C 	C 	0.8229	0.6091	0.1123	0.496
Mof_C 	C 	0.0792	0.2023	0.679	0.296
Mof_N 	N 	0.8839	0.3041	0.1567	0.014
Mof_O 	O 	0.81306	0.2385	0.4922	-0.623
Mof_O 	O 	0.78642	0.3184	0.3636	-0.489
Mof_O 	O 	0.9063	0.2428	0.2124	-0.109
Mof_O 	O 	0.8476	0.2978	0.0656	-0.116
Mof_O 	O 	0.77904	0.5923	0.0211	-0.554
Mof_O 	O 	0.83171	0.6779	0.1558	-0.523
Mof_O 	O 	0.13785	0.1995	0.6954	-0.412
Mof_O 	O 	0.06765	0.1773	0.7425	-0.467
Mof_O 	O 	0.99775	0.3416	0.3631	-0.225
Mof_Sm	Sm	0.68954	0.67186	0.87831	2.122
Mof_C 	C 	0.4017	0.7766	0.4697	-0.095
Mof_C 	C 	0.4156	0.8116	0.4036	-0.098
Mof_H 	H 	0.3799	0.8374	0.3431	0.091
Mof_C 	C 	0.4813	0.8088	0.4265	0.182
Mof_C 	C 	0.5343	0.7723	0.5143	-0.122
Mof_H 	H 	0.5792	0.7703	0.5287	0.112
Mof_C 	C 	0.521	0.7384	0.5818	-0.034
Mof_C 	C 	0.4551	0.7419	0.5605	0.006
Mof_H 	H 	0.4465	0.7208	0.6074	0.015
Mof_C 	C 	0.4544	0.9048	0.2982	0.187
Mof_C 	C 	0.4001	0.8898	0.1999	-0.019
Mof_C 	C 	0.3591	0.9554	0.1396	0.041
Mof_H 	H 	0.3225	0.9442	0.0722	0.039
Mof_C 	C 	0.3707	0.0373	0.1761	-0.174
Mof_C 	C 	0.4261	0.0532	0.2733	0.108
Mof_H 	H 	0.4354	0.1096	0.2985	0.007
Mof_C 	C 	0.468	0.9873	0.3338	-0.197
Mof_H 	H 	0.5061	0.9989	0.4	0.11
Mof_C 	C 	0.3295	0.7777	0.441	0.433
Mof_C 	C 	0.3229	0.1091	0.1123	0.495
Mof_C 	C 	0.5792	0.7023	0.679	0.295
Mof_N 	N 	0.3839	0.8041	0.1567	0.014
Mof_O 	O 	0.31306	0.7385	0.4922	-0.623
Mof_O 	O 	0.28642	0.8184	0.3636	-0.489
Mof_O 	O 	0.4063	0.7428	0.2124	-0.11
Mof_O 	O 	0.3476	0.7978	0.0656	-0.116
Mof_O 	O 	0.27904	0.0923	0.0211	-0.551
Mof_O 	O 	0.33171	0.1779	0.1558	-0.522
Mof_O 	O 	0.63785	0.6995	0.6954	-0.413
Mof_O 	O 	0.56765	0.6773	0.7425	-0.467
Mof_O 	O 	0.49775	0.8416	0.3631	-0.225
Mof_Sm	Sm	0.81046	0.17186	0.62169	2.12
Mof_C 	C 	0.0983	0.2766	0.0303	-0.088
Mof_C 	C 	0.0844	0.3116	0.0964	-0.102
Mof_H 	H 	0.1201	0.3374	0.1569	0.092
Mof_C 	C 	0.0187	0.3088	0.0735	0.186
Mof_C 	C 	0.9657	0.2723	0.9857	-0.127
Mof_H 	H 	0.9208	0.2703	0.9713	0.113
Mof_C 	C 	0.979	0.2384	0.9182	-0.029
Mof_C 	C 	0.0449	0.2419	0.9395	-0.003
Mof_H 	H 	0.0535	0.2208	0.8926	0.017
Mof_C 	C 	0.0456	0.4048	0.2018	0.186
Mof_C 	C 	0.0999	0.3898	0.3001	-0.019
Mof_C 	C 	0.1409	0.4554	0.3604	0.043
Mof_H 	H 	0.1775	0.4442	0.4278	0.039
Mof_C 	C 	0.1293	0.5373	0.3239	-0.176
Mof_C 	C 	0.0739	0.5532	0.2267	0.106
Mof_H 	H 	0.0646	0.6096	0.2015	0.008
Mof_C 	C 	0.032	0.4873	0.1662	-0.193
Mof_H 	H 	0.9939	0.4989	0.1	0.107
Mof_C 	C 	0.1705	0.2777	0.059	0.431
Mof_C 	C 	0.1771	0.6091	0.3877	0.496
Mof_C 	C 	0.9208	0.2023	0.821	0.294
Mof_N 	N 	0.1161	0.3041	0.3433	0.014
Mof_O 	O 	0.18694	0.2385	0.0078	-0.621
Mof_O 	O 	0.21358	0.3184	0.1364	-0.488
Mof_O 	O 	0.0937	0.2428	0.2876	-0.109
Mof_O 	O 	0.1524	0.2978	0.4344	-0.116
Mof_O 	O 	0.22096	0.5923	0.4789	-0.553
Mof_O 	O 	0.16829	0.6779	0.3442	-0.523
Mof_O 	O 	0.86215	0.1995	0.8046	-0.412
Mof_O 	O 	0.93235	0.1773	0.7575	-0.466
Mof_O 	O 	0.00225	0.3416	0.1369	-0.225
Mof_Sm	Sm	0.31046	0.67186	0.62169	2.12
Mof_C 	C 	0.5983	0.7766	0.0303	-0.098
Mof_C 	C 	0.5844	0.8116	0.0964	-0.095
Mof_H 	H 	0.6201	0.8374	0.1569	0.09
Mof_C 	C 	0.5187	0.8088	0.0735	0.179
Mof_C 	C 	0.4657	0.7723	0.9857	-0.118
Mof_H 	H 	0.4208	0.7703	0.9713	0.111
Mof_C 	C 	0.479	0.7384	0.9182	-0.037
Mof_C 	C 	0.5449	0.7419	0.9395	0.01
Mof_H 	H 	0.5535	0.7208	0.8926	0.014
Mof_C 	C 	0.5456	0.9048	0.2018	0.188
Mof_C 	C 	0.5999	0.8898	0.3001	-0.02
Mof_C 	C 	0.6409	0.9554	0.3604	0.042
Mof_H 	H 	0.6775	0.9442	0.4278	0.039
Mof_C 	C 	0.6293	0.0373	0.3239	-0.176
Mof_C 	C 	0.5739	0.0532	0.2267	0.111
Mof_H 	H 	0.5646	0.1096	0.2015	0.006
Mof_C 	C 	0.532	0.9873	0.1662	-0.198
Mof_H 	H 	0.4939	0.9989	0.1	0.11
Mof_C 	C 	0.6705	0.7777	0.059	0.434
Mof_C 	C 	0.6771	0.1091	0.3877	0.496
Mof_C 	C 	0.4208	0.7023	0.821	0.296
Mof_N 	N 	0.6161	0.8041	0.3433	0.014
Mof_O 	O 	0.68694	0.7385	0.0078	-0.624
Mof_O 	O 	0.71358	0.8184	0.1364	-0.489
Mof_O 	O 	0.5937	0.7428	0.2876	-0.11
Mof_O 	O 	0.6524	0.7978	0.4344	-0.116
Mof_O 	O 	0.72096	0.0923	0.4789	-0.553
Mof_O 	O 	0.66829	0.1779	0.3442	-0.523
Mof_O 	O 	0.36215	0.6995	0.8046	-0.413
Mof_O 	O 	0.43235	0.6773	0.7575	-0.467
Mof_O 	O 	0.50225	0.8416	0.1369	-0.224
_end
