# CIF file generated by openbabel 3.1.0, see https://openbabel.org
data_I
_chemical_name_common 'image0'
_cell_length_a 34.5619
_cell_length_b 34.5619
_cell_length_c 8.3343
_cell_angle_alpha 90
_cell_angle_beta 90
_cell_angle_gamma 120
_space_group_name_H-M_alt 'P 1'
_space_group_name_Hall 'P 1'
loop_
    _symmetry_equiv_pos_as_xyz
    x,y,z
loop_
    _atom_site_label
    _atom_site_type_symbol
    _atom_site_fract_x
    _atom_site_fract_y
    _atom_site_fract_z
    _atom_site_occupancy
    Ag1      Ag       0.80738    0.15060    0.83647    1.000
    O1       O        0.00200    0.32394    0.01960    1.000
    N1       N        0.86756    0.19000    0.98140    1.000
    N2       N        0.95121    0.40832    0.93960    1.000
    C1       C        0.89270    0.23500    0.96940    1.000
    H1       H        0.88300    0.25050    0.90120    1.000
    C2       C        0.93220    0.25890    0.05410    1.000
    C3       C        0.94600    0.23670    0.15770    1.000
    H2       H        0.97330    0.25250    0.21510    1.000
    C4       C        0.91890    0.19090    0.17510    1.000
    H3       H        0.92670    0.17480    0.24800    1.000
    C5       C        0.88040    0.16910    0.08440    1.000
    H4       H        0.86210    0.13760    0.09600    1.000
    C6       C        0.96200    0.30850    0.03070    1.000
    C7       C        0.96500    0.37840    0.94430    1.000
    H5       H        0.99210    0.38540    0.89120    1.000
    C8       C        0.94180    0.33760    0.02300    1.000
    C9       C        0.90210    0.32720    0.10090    1.000
    H6       H        0.88540    0.29970    0.15630    1.000
    C10      C        0.88760    0.35730    0.09640    1.000
    H7       H        0.86070    0.35100    0.14930    1.000
    C11      C        0.91210    0.39710    0.01480    1.000
    H8       H        0.90110    0.41740    0.01100    1.000
    Ag2      Ag       0.84940    0.65678    0.83647    1.000
    O2       O        0.67606    0.67806    0.01960    1.000
    N3       N        0.81000    0.67756    0.98140    1.000
    N4       N        0.59168    0.54289    0.93960    1.000
    C12      C        0.76500    0.65770    0.96940    1.000
    H9       H        0.74950    0.63250    0.90120    1.000
    C13      C        0.74110    0.67330    0.05410    1.000
    C14      C        0.76330    0.70930    0.15770    1.000
    H10      H        0.74750    0.72080    0.21510    1.000
    C15      C        0.80910    0.72800    0.17510    1.000
    H11      H        0.82520    0.75190    0.24800    1.000
    C16      C        0.83090    0.71130    0.08440    1.000
    H12      H        0.86240    0.72450    0.09600    1.000
    C17      C        0.69150    0.65350    0.03070    1.000
    C18      C        0.62160    0.58660    0.94430    1.000
    H13      H        0.61460    0.60670    0.89120    1.000
    C19      C        0.66240    0.60420    0.02300    1.000
    C20      C        0.67280    0.57490    0.10090    1.000
    H14      H        0.70030    0.58570    0.15630    1.000
    C21      C        0.64270    0.53030    0.09640    1.000
    H15      H        0.64900    0.50970    0.14930    1.000
    C22      C        0.60290    0.51500    0.01480    1.000
    H16      H        0.58260    0.48370    0.01100    1.000
    Ag3      Ag       0.34322    0.19262    0.83647    1.000
    O3       O        0.32194    0.99800    0.01960    1.000
    N5       N        0.32244    0.13244    0.98140    1.000
    N6       N        0.45711    0.04879    0.93960    1.000
    C23      C        0.34230    0.10730    0.96940    1.000
    H17      H        0.36750    0.11700    0.90120    1.000
    C24      C        0.32670    0.06780    0.05410    1.000
    C25      C        0.29070    0.05400    0.15770    1.000
    H18      H        0.27920    0.02670    0.21510    1.000
    C26      C        0.27200    0.08110    0.17510    1.000
    H19      H        0.24810    0.07330    0.24800    1.000
    C27      C        0.28870    0.11960    0.08440    1.000
    H20      H        0.27550    0.13790    0.09600    1.000
    C28      C        0.34650    0.03800    0.03070    1.000
    C29      C        0.41340    0.03500    0.94430    1.000
    H21      H        0.39330    0.00790    0.89120    1.000
    C30      C        0.39580    0.05820    0.02300    1.000
    C31      C        0.42510    0.09790    0.10090    1.000
    H22      H        0.41430    0.11460    0.15630    1.000
    C32      C        0.46970    0.11240    0.09640    1.000
    H23      H        0.49030    0.13930    0.14930    1.000
    C33      C        0.48500    0.08790    0.01480    1.000
    H24      H        0.51630    0.09890    0.01100    1.000
    Ag4      Ag       0.52596    0.51606    0.83020    1.000
    O4       O        0.33133    0.34273    0.64707    1.000
    N7       N        0.46577    0.47667    0.68527    1.000
    N8       N        0.38212    0.25835    0.72707    1.000
    C34      C        0.44063    0.43167    0.69727    1.000
    H25      H        0.45033    0.41617    0.76547    1.000
    C35      C        0.40113    0.40777    0.61257    1.000
    C36      C        0.38733    0.42997    0.50897    1.000
    H26      H        0.36003    0.41417    0.45157    1.000
    C37      C        0.41443    0.47577    0.49157    1.000
    H27      H        0.40663    0.49187    0.41867    1.000
    C38      C        0.45293    0.49757    0.58227    1.000
    H28      H        0.47123    0.52907    0.57067    1.000
    C39      C        0.37133    0.35817    0.63597    1.000
    C40      C        0.36833    0.28827    0.72237    1.000
    H29      H        0.34123    0.28127    0.77547    1.000
    C41      C        0.39153    0.32907    0.64367    1.000
    C42      C        0.43123    0.33947    0.56577    1.000
    H30      H        0.44793    0.36697    0.51037    1.000
    C43      C        0.44573    0.30937    0.57027    1.000
    H31      H        0.47263    0.31567    0.51737    1.000
    C44      C        0.42123    0.26957    0.65187    1.000
    H32      H        0.43223    0.24927    0.65567    1.000
    Ag5      Ag       0.48394    0.00989    0.83020    1.000
    O5       O        0.65727    0.98861    0.64707    1.000
    N9       N        0.52333    0.98911    0.68527    1.000
    N10      N        0.74165    0.12378    0.72707    1.000
    C45      C        0.56833    0.00897    0.69727    1.000
    H33      H        0.58383    0.03417    0.76547    1.000
    C46      C        0.59223    0.99337    0.61257    1.000
    C47      C        0.57003    0.95737    0.50897    1.000
    H34      H        0.58583    0.94587    0.45157    1.000
    C48      C        0.52423    0.93867    0.49157    1.000
    H35      H        0.50813    0.91477    0.41867    1.000
    C49      C        0.50243    0.95537    0.58227    1.000
    H36      H        0.47093    0.94217    0.57067    1.000
    C50      C        0.64183    0.01317    0.63597    1.000
    C51      C        0.71173    0.08007    0.72237    1.000
    H37      H        0.71873    0.05997    0.77547    1.000
    C52      C        0.67093    0.06247    0.64367    1.000
    C53      C        0.66053    0.09177    0.56577    1.000
    H38      H        0.63303    0.08097    0.51037    1.000
    C54      C        0.69063    0.13637    0.57027    1.000
    H39      H        0.68433    0.15697    0.51737    1.000
    C55      C        0.73043    0.15167    0.65187    1.000
    H40      H        0.75073    0.18297    0.65567    1.000
    Ag6      Ag       0.99011    0.47404    0.83020    1.000
    O6       O        0.01139    0.66867    0.64707    1.000
    N11      N        0.01089    0.53423    0.68527    1.000
    N12      N        0.87622    0.61788    0.72707    1.000
    C56      C        0.99103    0.55937    0.69727    1.000
    H41      H        0.96583    0.54967    0.76547    1.000
    C57      C        0.00663    0.59887    0.61257    1.000
    C58      C        0.04263    0.61267    0.50897    1.000
    H42      H        0.05413    0.63997    0.45157    1.000
    C59      C        0.06133    0.58557    0.49157    1.000
    H43      H        0.08523    0.59337    0.41867    1.000
    C60      C        0.04463    0.54707    0.58227    1.000
    H44      H        0.05783    0.52877    0.57067    1.000
    C61      C        0.98683    0.62867    0.63597    1.000
    C62      C        0.91993    0.63167    0.72237    1.000
    H45      H        0.94003    0.65877    0.77547    1.000
    C63      C        0.93753    0.60847    0.64367    1.000
    C64      C        0.90823    0.56877    0.56577    1.000
    H46      H        0.91903    0.55207    0.51037    1.000
    C65      C        0.86363    0.55427    0.57027    1.000
    H47      H        0.84303    0.52737    0.51737    1.000
    C66      C        0.84833    0.57877    0.65187    1.000
    H48      H        0.81703    0.56777    0.65567    1.000
    Ag7      Ag       0.47404    0.48394    0.16980    1.000
    O7       O        0.66867    0.65727    0.35293    1.000
    N13      N        0.53423    0.52333    0.31473    1.000
    N14      N        0.61788    0.74165    0.27293    1.000
    C67      C        0.55937    0.56833    0.30273    1.000
    H49      H        0.54967    0.58383    0.23453    1.000
    C68      C        0.59887    0.59223    0.38743    1.000
    C69      C        0.61267    0.57003    0.49103    1.000
    H50      H        0.63997    0.58583    0.54843    1.000
    C70      C        0.58557    0.52423    0.50843    1.000
    H51      H        0.59337    0.50813    0.58133    1.000
    C71      C        0.54707    0.50243    0.41773    1.000
    H52      H        0.52877    0.47093    0.42933    1.000
    C72      C        0.62867    0.64183    0.36403    1.000
    C73      C        0.63167    0.71173    0.27763    1.000
    H53      H        0.65877    0.71873    0.22453    1.000
    C74      C        0.60847    0.67093    0.35633    1.000
    C75      C        0.56877    0.66053    0.43423    1.000
    H54      H        0.55207    0.63303    0.48963    1.000
    C76      C        0.55427    0.69063    0.42973    1.000
    H55      H        0.52737    0.68433    0.48263    1.000
    C77      C        0.57877    0.73043    0.34813    1.000
    H56      H        0.56777    0.75073    0.34433    1.000
    Ag8      Ag       0.51606    0.99011    0.16980    1.000
    O8       O        0.34273    0.01139    0.35293    1.000
    N15      N        0.47667    0.01089    0.31473    1.000
    N16      N        0.25835    0.87622    0.27293    1.000
    C78      C        0.43167    0.99103    0.30273    1.000
    H57      H        0.41617    0.96583    0.23453    1.000
    C79      C        0.40777    0.00663    0.38743    1.000
    C80      C        0.42997    0.04263    0.49103    1.000
    H58      H        0.41417    0.05413    0.54843    1.000
    C81      C        0.47577    0.06133    0.50843    1.000
    H59      H        0.49187    0.08523    0.58133    1.000
    C82      C        0.49757    0.04463    0.41773    1.000
    H60      H        0.52907    0.05783    0.42933    1.000
    C83      C        0.35817    0.98683    0.36403    1.000
    C84      C        0.28827    0.91993    0.27763    1.000
    H61      H        0.28127    0.94003    0.22453    1.000
    C85      C        0.32907    0.93753    0.35633    1.000
    C86      C        0.33947    0.90823    0.43423    1.000
    H62      H        0.36697    0.91903    0.48963    1.000
    C87      C        0.30937    0.86363    0.42973    1.000
    H63      H        0.31567    0.84303    0.48263    1.000
    C88      C        0.26957    0.84833    0.34813    1.000
    H64      H        0.24927    0.81703    0.34433    1.000
    Ag9      Ag       0.00989    0.52596    0.16980    1.000
    O9       O        0.98861    0.33133    0.35293    1.000
    N17      N        0.98911    0.46577    0.31473    1.000
    N18      N        0.12378    0.38212    0.27293    1.000
    C89      C        0.00897    0.44063    0.30273    1.000
    H65      H        0.03417    0.45033    0.23453    1.000
    C90      C        0.99337    0.40113    0.38743    1.000
    C91      C        0.95737    0.38733    0.49103    1.000
    H66      H        0.94587    0.36003    0.54843    1.000
    C92      C        0.93867    0.41443    0.50843    1.000
    H67      H        0.91477    0.40663    0.58133    1.000
    C93      C        0.95537    0.45293    0.41773    1.000
    H68      H        0.94217    0.47123    0.42933    1.000
    C94      C        0.01317    0.37133    0.36403    1.000
    C95      C        0.08007    0.36833    0.27763    1.000
    H69      H        0.05997    0.34123    0.22453    1.000
    C96      C        0.06247    0.39153    0.35633    1.000
    C97      C        0.09177    0.43123    0.43423    1.000
    H70      H        0.08097    0.44793    0.48963    1.000
    C98      C        0.13637    0.44573    0.42973    1.000
    H71      H        0.15697    0.47263    0.48263    1.000
    C99      C        0.15167    0.42123    0.34813    1.000
    H72      H        0.18297    0.43223    0.34433    1.000
    Ag10     Ag       0.19262    0.84940    0.16353    1.000
    O10      O        0.99800    0.67606    0.98040    1.000
    N19      N        0.13244    0.81000    0.01860    1.000
    N20      N        0.04879    0.59168    0.06040    1.000
    C100     C        0.10730    0.76500    0.03060    1.000
    H73      H        0.11700    0.74950    0.09880    1.000
    C101     C        0.06780    0.74110    0.94590    1.000
    C102     C        0.05400    0.76330    0.84230    1.000
    H74      H        0.02670    0.74750    0.78490    1.000
    C103     C        0.08110    0.80910    0.82490    1.000
    H75      H        0.07330    0.82520    0.75200    1.000
    C104     C        0.11960    0.83090    0.91560    1.000
    H76      H        0.13790    0.86240    0.90400    1.000
    C105     C        0.03800    0.69150    0.96930    1.000
    C106     C        0.03500    0.62160    0.05570    1.000
    H77      H        0.00790    0.61460    0.10880    1.000
    C107     C        0.05820    0.66240    0.97700    1.000
    C108     C        0.09790    0.67280    0.89910    1.000
    H78      H        0.11460    0.70030    0.84370    1.000
    C109     C        0.11240    0.64270    0.90360    1.000
    H79      H        0.13930    0.64900    0.85070    1.000
    C110     C        0.08790    0.60290    0.98520    1.000
    H80      H        0.09890    0.58260    0.98900    1.000
    Ag11     Ag       0.15060    0.34322    0.16353    1.000
    O11      O        0.32394    0.32194    0.98040    1.000
    N21      N        0.19000    0.32244    0.01860    1.000
    N22      N        0.40832    0.45711    0.06040    1.000
    C111     C        0.23500    0.34230    0.03060    1.000
    H81      H        0.25050    0.36750    0.09880    1.000
    C112     C        0.25890    0.32670    0.94590    1.000
    C113     C        0.23670    0.29070    0.84230    1.000
    H82      H        0.25250    0.27920    0.78490    1.000
    C114     C        0.19090    0.27200    0.82490    1.000
    H83      H        0.17480    0.24810    0.75200    1.000
    C115     C        0.16910    0.28870    0.91560    1.000
    H84      H        0.13760    0.27550    0.90400    1.000
    C116     C        0.30850    0.34650    0.96930    1.000
    C117     C        0.37840    0.41340    0.05570    1.000
    H85      H        0.38540    0.39330    0.10880    1.000
    C118     C        0.33760    0.39580    0.97700    1.000
    C119     C        0.32720    0.42510    0.89910    1.000
    H86      H        0.29970    0.41430    0.84370    1.000
    C120     C        0.35730    0.46970    0.90360    1.000
    H87      H        0.35100    0.49030    0.85070    1.000
    C121     C        0.39710    0.48500    0.98520    1.000
    H88      H        0.41740    0.51630    0.98900    1.000
    Ag12     Ag       0.65678    0.80738    0.16353    1.000
    O12      O        0.67806    0.00200    0.98040    1.000
    N23      N        0.67756    0.86756    0.01860    1.000
    N24      N        0.54289    0.95121    0.06040    1.000
    C122     C        0.65770    0.89270    0.03060    1.000
    H89      H        0.63250    0.88300    0.09880    1.000
    C123     C        0.67330    0.93220    0.94590    1.000
    C124     C        0.70930    0.94600    0.84230    1.000
    H90      H        0.72080    0.97330    0.78490    1.000
    C125     C        0.72800    0.91890    0.82490    1.000
    H91      H        0.75190    0.92670    0.75200    1.000
    C126     C        0.71130    0.88040    0.91560    1.000
    H92      H        0.72450    0.86210    0.90400    1.000
    C127     C        0.65350    0.96200    0.96930    1.000
    C128     C        0.58660    0.96500    0.05570    1.000
    H93      H        0.60670    0.99210    0.10880    1.000
    C129     C        0.60420    0.94180    0.97700    1.000
    C130     C        0.57490    0.90210    0.89910    1.000
    H94      H        0.58570    0.88540    0.84370    1.000
    C131     C        0.53030    0.88760    0.90360    1.000
    H95      H        0.50970    0.86070    0.85070    1.000
    C132     C        0.51500    0.91210    0.98520    1.000
    H96      H        0.48370    0.90110    0.98900    1.000
    Ag13     Ag       0.14071    0.81727    0.50314    1.000
    O13      O        0.33533    0.99061    0.68627    1.000
    N25      N        0.20089    0.85667    0.64807    1.000
    N26      N        0.28454    0.07499    0.60627    1.000
    C133     C        0.22603    0.90167    0.63607    1.000
    H97      H        0.21633    0.91717    0.56787    1.000
    C134     C        0.26553    0.92557    0.72077    1.000
    C135     C        0.27933    0.90337    0.82437    1.000
    H98      H        0.30663    0.91917    0.88177    1.000
    C136     C        0.25223    0.85757    0.84177    1.000
    H99      H        0.26003    0.84147    0.91467    1.000
    C137     C        0.21373    0.83577    0.75107    1.000
    H100     H        0.19543    0.80427    0.76267    1.000
    C138     C        0.29533    0.97517    0.69737    1.000
    C139     C        0.29833    0.04507    0.61097    1.000
    H101     H        0.32543    0.05207    0.55787    1.000
    C140     C        0.27513    0.00427    0.68967    1.000
    C141     C        0.23543    0.99387    0.76757    1.000
    H102     H        0.21873    0.96637    0.82297    1.000
    C142     C        0.22093    0.02397    0.76307    1.000
    H103     H        0.19403    0.01767    0.81597    1.000
    C143     C        0.24543    0.06377    0.68147    1.000
    H104     H        0.23443    0.08407    0.67767    1.000
    Ag14     Ag       0.18273    0.32344    0.50314    1.000
    O14      O        0.00939    0.34473    0.68627    1.000
    N27      N        0.14333    0.34423    0.64807    1.000
    N28      N        0.92501    0.20956    0.60627    1.000
    C144     C        0.09833    0.32437    0.63607    1.000
    H105     H        0.08283    0.29917    0.56787    1.000
    C145     C        0.07443    0.33997    0.72077    1.000
    C146     C        0.09663    0.37597    0.82437    1.000
    H106     H        0.08083    0.38747    0.88177    1.000
    C147     C        0.14243    0.39467    0.84177    1.000
    H107     H        0.15853    0.41857    0.91467    1.000
    C148     C        0.16423    0.37797    0.75107    1.000
    H108     H        0.19573    0.39117    0.76267    1.000
    C149     C        0.02483    0.32017    0.69737    1.000
    C150     C        0.95493    0.25327    0.61097    1.000
    H109     H        0.94793    0.27337    0.55787    1.000
    C151     C        0.99573    0.27087    0.68967    1.000
    C152     C        0.00613    0.24157    0.76757    1.000
    H110     H        0.03363    0.25237    0.82297    1.000
    C153     C        0.97603    0.19697    0.76307    1.000
    H111     H        0.98233    0.17637    0.81597    1.000
    C154     C        0.93623    0.18167    0.68147    1.000
    H112     H        0.91593    0.15037    0.67767    1.000
    Ag15     Ag       0.67656    0.85929    0.50314    1.000
    O15      O        0.65527    0.66467    0.68627    1.000
    N29      N        0.65577    0.79911    0.64807    1.000
    N30      N        0.79044    0.71546    0.60627    1.000
    C155     C        0.67563    0.77397    0.63607    1.000
    H113     H        0.70083    0.78367    0.56787    1.000
    C156     C        0.66003    0.73447    0.72077    1.000
    C157     C        0.62403    0.72067    0.82437    1.000
    H114     H        0.61253    0.69337    0.88177    1.000
    C158     C        0.60533    0.74777    0.84177    1.000
    H115     H        0.58143    0.73997    0.91467    1.000
    C159     C        0.62203    0.78627    0.75107    1.000
    H116     H        0.60883    0.80457    0.76267    1.000
    C160     C        0.67983    0.70467    0.69737    1.000
    C161     C        0.74673    0.70167    0.61097    1.000
    H117     H        0.72663    0.67457    0.55787    1.000
    C162     C        0.72913    0.72487    0.68967    1.000
    C163     C        0.75843    0.76457    0.76757    1.000
    H118     H        0.74763    0.78127    0.82297    1.000
    C164     C        0.80303    0.77907    0.76307    1.000
    H119     H        0.82363    0.80597    0.81597    1.000
    C165     C        0.81833    0.75457    0.68147    1.000
    H120     H        0.84963    0.76557    0.67767    1.000
    Ag16     Ag       0.85929    0.18273    0.49686    1.000
    O16      O        0.66467    0.00939    0.31373    1.000
    N31      N        0.79911    0.14333    0.35193    1.000
    N32      N        0.71546    0.92501    0.39373    1.000
    C166     C        0.77397    0.09833    0.36393    1.000
    H121     H        0.78367    0.08283    0.43213    1.000
    C167     C        0.73447    0.07443    0.27923    1.000
    C168     C        0.72067    0.09663    0.17563    1.000
    H122     H        0.69337    0.08083    0.11823    1.000
    C169     C        0.74777    0.14243    0.15823    1.000
    H123     H        0.73997    0.15853    0.08533    1.000
    C170     C        0.78627    0.16423    0.24893    1.000
    H124     H        0.80457    0.19573    0.23733    1.000
    C171     C        0.70467    0.02483    0.30263    1.000
    C172     C        0.70167    0.95493    0.38903    1.000
    H125     H        0.67457    0.94793    0.44213    1.000
    C173     C        0.72487    0.99573    0.31033    1.000
    C174     C        0.76457    0.00613    0.23243    1.000
    H126     H        0.78127    0.03363    0.17703    1.000
    C175     C        0.77907    0.97603    0.23693    1.000
    H127     H        0.80597    0.98233    0.18403    1.000
    C176     C        0.75457    0.93623    0.31853    1.000
    H128     H        0.76557    0.91593    0.32233    1.000
    Ag17     Ag       0.81727    0.67656    0.49686    1.000
    O17      O        0.99061    0.65527    0.31373    1.000
    N33      N        0.85667    0.65577    0.35193    1.000
    N34      N        0.07499    0.79044    0.39373    1.000
    C177     C        0.90167    0.67563    0.36393    1.000
    H129     H        0.91717    0.70083    0.43213    1.000
    C178     C        0.92557    0.66003    0.27923    1.000
    C179     C        0.90337    0.62403    0.17563    1.000
    H130     H        0.91917    0.61253    0.11823    1.000
    C180     C        0.85757    0.60533    0.15823    1.000
    H131     H        0.84147    0.58143    0.08533    1.000
    C181     C        0.83577    0.62203    0.24893    1.000
    H132     H        0.80427    0.60883    0.23733    1.000
    C182     C        0.97517    0.67983    0.30263    1.000
    C183     C        0.04507    0.74673    0.38903    1.000
    H133     H        0.05207    0.72663    0.44213    1.000
    C184     C        0.00427    0.72913    0.31033    1.000
    C185     C        0.99387    0.75843    0.23243    1.000
    H134     H        0.96637    0.74763    0.17703    1.000
    C186     C        0.02397    0.80303    0.23693    1.000
    H135     H        0.01767    0.82363    0.18403    1.000
    C187     C        0.06377    0.81833    0.31853    1.000
    H136     H        0.08407    0.84963    0.32233    1.000
    Ag18     Ag       0.32344    0.14071    0.49686    1.000
    O18      O        0.34473    0.33533    0.31373    1.000
    N35      N        0.34423    0.20089    0.35193    1.000
    N36      N        0.20956    0.28454    0.39373    1.000
    C188     C        0.32437    0.22603    0.36393    1.000
    H137     H        0.29917    0.21633    0.43213    1.000
    C189     C        0.33997    0.26553    0.27923    1.000
    C190     C        0.37597    0.27933    0.17563    1.000
    H138     H        0.38747    0.30663    0.11823    1.000
    C191     C        0.39467    0.25223    0.15823    1.000
    H139     H        0.41857    0.26003    0.08533    1.000
    C192     C        0.37797    0.21373    0.24893    1.000
    H140     H        0.39117    0.19543    0.23733    1.000
    C193     C        0.32017    0.29533    0.30263    1.000
    C194     C        0.25327    0.29833    0.38903    1.000
    H141     H        0.27337    0.32543    0.44213    1.000
    C195     C        0.27087    0.27513    0.31033    1.000
    C196     C        0.24157    0.23543    0.23243    1.000
    H142     H        0.25237    0.21873    0.17703    1.000
    C197     C        0.19697    0.22093    0.23693    1.000
    H143     H        0.17637    0.19403    0.18403    1.000
    C198     C        0.18167    0.24543    0.31853    1.000
    H144     H        0.15037    0.23443    0.32233    1.000
