# CIF file generated by openbabel 3.1.0, see https://openbabel.org
data_I
_chemical_name_common 'WITKIV_clean'
_cell_length_a 34.0011
_cell_length_b 34.0011
_cell_length_c 54.9595
_cell_angle_alpha 71.9812
_cell_angle_beta 71.9812
_cell_angle_gamma 60
_space_group_name_H-M_alt 'P 1'
_space_group_name_Hall 'P 1'
loop_
    _symmetry_equiv_pos_as_xyz
    x,y,z
loop_
    _atom_site_label
    _atom_site_type_symbol
    _atom_site_fract_x
    _atom_site_fract_y
    _atom_site_fract_z
    _atom_site_occupancy
    Zn1      Zn       0.78871    0.89602    0.47180    1.000
    Zn2      Zn       0.38348    0.38348    0.84956    1.000
    Zn3      Zn       0.60398    0.71129    0.02820    1.000
    Zn4      Zn       0.01798    0.16393    0.50615    1.000
    Zn5      Zn       0.57582    0.07751    0.71680    1.000
    Zn6      Zn       0.88348    0.88348    0.34956    1.000
    Zn7      Zn       0.68806    0.98202    0.49385    1.000
    Zn8      Zn       0.92418    0.87013    0.78320    1.000
    Zn9      Zn       0.28871    0.34347    0.97180    1.000
    Zn10     Zn       0.21129    0.10398    0.52820    1.000
    Zn11     Zn       0.42418    0.92249    0.28320    1.000
    Zn12     Zn       0.81194    0.66393    0.00615    1.000
    Zn13     Zn       0.14033    0.14033    0.57901    1.000
    Zn14     Zn       0.42249    0.92418    0.78320    1.000
    Zn15     Zn       0.61652    0.61652    0.15044    1.000
    Zn16     Zn       0.71129    0.65653    0.02820    1.000
    Zn17     Zn       0.39602    0.28871    0.97180    1.000
    Zn18     Zn       0.62987    0.57582    0.71680    1.000
    Zn19     Zn       0.89602    0.84347    0.47180    1.000
    Zn20     Zn       0.87013    0.42249    0.78320    1.000
    Zn21     Zn       0.48202    0.18806    0.99385    1.000
    Zn22     Zn       0.85967    0.85967    0.42099    1.000
    Zn23     Zn       0.37013    0.42418    0.28320    1.000
    Zn24     Zn       0.66393    0.51798    0.00615    1.000
    Zn25     Zn       0.12987    0.57751    0.21680    1.000
    Zn26     Zn       0.65653    0.60398    0.02820    1.000
    Zn27     Zn       0.07751    0.62987    0.71680    1.000
    Zn28     Zn       0.34347    0.39602    0.97180    1.000
    Zn29     Zn       0.64033    0.64033    0.07901    1.000
    Zn30     Zn       0.31194    0.01798    0.50615    1.000
    Zn31     Zn       0.51798    0.81194    0.00615    1.000
    Zn32     Zn       0.18806    0.33607    0.99385    1.000
    Zn33     Zn       0.11652    0.11652    0.65044    1.000
    Zn34     Zn       0.10398    0.15653    0.52820    1.000
    Zn35     Zn       0.84347    0.78871    0.47180    1.000
    Zn36     Zn       0.33607    0.48202    0.99385    1.000
    Zn37     Zn       0.35967    0.35967    0.92099    1.000
    Zn38     Zn       0.16393    0.31194    0.50615    1.000
    Zn39     Zn       0.15653    0.21129    0.52820    1.000
    Zn40     Zn       0.98202    0.83607    0.49385    1.000
    Zn41     Zn       0.57751    0.07582    0.21680    1.000
    Zn42     Zn       0.07582    0.12987    0.21680    1.000
    Zn43     Zn       0.92249    0.37013    0.28320    1.000
    Zn44     Zn       0.83607    0.68806    0.49385    1.000
    P1       P        0.28980    0.23960    0.14190    1.000
    P2       P        0.85556    0.34846    0.62402    1.000
    P3       P        0.21020    0.17130    0.35810    1.000
    P4       P        0.84791    0.13761    0.42227    1.000
    P5       P        0.15154    0.64444    0.87598    1.000
    P6       P        0.15209    0.86239    0.57773    1.000
    P7       P        0.60291    0.41571    0.88297    1.000
    P8       P        0.90159    0.39709    0.11703    1.000
    P9       P        0.40779    0.15209    0.57773    1.000
    P10      P        0.10291    0.59841    0.38297    1.000
    P11      P        0.71020    0.76040    0.85810    1.000
    P12      P        0.78980    0.82870    0.64190    1.000
    P13      P        0.17130    0.26040    0.35810    1.000
    P14      P        0.09221    0.63761    0.92227    1.000
    P15      P        0.32870    0.28980    0.14190    1.000
    P16      P        0.23960    0.32870    0.14190    1.000
    P17      P        0.90779    0.36239    0.07773    1.000
    P18      P        0.82870    0.73960    0.64190    1.000
    P19      P        0.32804    0.15154    0.87598    1.000
    P20      P        0.36239    0.65209    0.07773    1.000
    P21      P        0.67130    0.71020    0.85810    1.000
    P22      P        0.89709    0.40159    0.61703    1.000
    P23      P        0.73960    0.78980    0.64190    1.000
    P24      P        0.76040    0.67130    0.85810    1.000
    P25      P        0.35556    0.67196    0.12402    1.000
    P26      P        0.41571    0.09841    0.88297    1.000
    P27      P        0.64444    0.32804    0.87598    1.000
    P28      P        0.13761    0.59221    0.42227    1.000
    P29      P        0.82804    0.14444    0.37598    1.000
    P30      P        0.17196    0.85556    0.62402    1.000
    P31      P        0.34791    0.09221    0.92227    1.000
    P32      P        0.67196    0.84846    0.12402    1.000
    P33      P        0.84846    0.35556    0.12402    1.000
    P34      P        0.59221    0.84791    0.42227    1.000
    P35      P        0.26040    0.21020    0.35810    1.000
    P36      P        0.86239    0.40779    0.57773    1.000
    P37      P        0.59841    0.91571    0.38297    1.000
    P38      P        0.09841    0.60291    0.88297    1.000
    P39      P        0.08429    0.89709    0.61703    1.000
    P40      P        0.65209    0.90779    0.07773    1.000
    P41      P        0.39709    0.58429    0.11703    1.000
    P42      P        0.34846    0.17196    0.62402    1.000
    P43      P        0.63761    0.34791    0.92227    1.000
    P44      P        0.91571    0.10291    0.38297    1.000
    P45      P        0.65154    0.82804    0.37598    1.000
    P46      P        0.58429    0.90159    0.11703    1.000
    P47      P        0.14444    0.65154    0.37598    1.000
    P48      P        0.40159    0.08429    0.61703    1.000
    H1       H        0.08320    0.36970    0.33050    1.000
    H2       H        0.17060    0.50980    0.47660    1.000
    H3       H        0.62660    0.94200    0.20310    1.000
    H4       H        0.15700    0.82940    0.52340    1.000
    H5       H        0.69490    0.41080    0.90400    1.000
    H6       H        0.36090    0.77760    0.09570    1.000
    H7       H        0.73850    0.84380    0.37760    1.000
    H8       H        0.26530    0.68240    0.11490    1.000
    H9       H        0.43290    0.14440    0.92110    1.000
    H10      H        0.21830    0.11430    0.18660    1.000
    H11      H        0.77760    0.76580    0.09570    1.000
    H12      H        0.26840    0.14910    0.41570    1.000
    H13      H        0.28290    0.48350    0.90790    1.000
    H14      H        0.41680    0.28340    0.16950    1.000
    H15      H        0.06220    0.27200    0.39500    1.000
    H16      H        0.78340    0.91680    0.66950    1.000
    H17      H        0.82940    0.49020    0.52340    1.000
    H18      H        0.35560    0.06710    0.57890    1.000
    H19      H        0.51540    0.67060    0.04050    1.000
    H20      H        0.08050    0.30790    0.08010    1.000
    H21      H        0.78170    0.88570    0.81340    1.000
    H22      H        0.76020    0.59140    0.79270    1.000
    H23      H        0.27080    0.06220    0.39500    1.000
    H24      H        0.94470    0.95540    0.34700    1.000
    H25      H        0.82570    0.98350    0.40790    1.000
    H26      H        0.43490    0.69770    0.05370    1.000
    H27      H        0.41690    0.97660    0.18000    1.000
    H28      H        0.19210    0.41950    0.41990    1.000
    H29      H        0.78230    0.55790    0.07500    1.000
    H30      H        0.88570    0.51920    0.81340    1.000
    H31      H        0.04010    0.73850    0.37760    1.000
    H32      H        0.05770    0.56730    0.47390    1.000
    H33      H        0.53300    0.01850    0.86020    1.000
    H34      H        0.01850    0.58830    0.86020    1.000
    H35      H        0.10030    0.82810    0.50630    1.000
    H36      H        0.83600    0.85600    0.54170    1.000
    H37      H        0.97820    0.60600    0.48770    1.000
    H38      H        0.49020    0.15700    0.52340    1.000
    H39      H        0.19490    0.49030    0.40400    1.000
    H40      H        0.71660    0.86970    0.83050    1.000
    H41      H        0.06510    0.68630    0.44630    1.000
    H42      H        0.67430    0.71710    0.09210    1.000
    H43      H        0.52040    0.45450    0.84280    1.000
    H44      H        0.47370    0.09860    0.78460    1.000
    H45      H        0.73420    0.72240    0.40430    1.000
    H46      H        0.98350    0.78290    0.40790    1.000
    H47      H        0.37340    0.05800    0.79690    1.000
    H48      H        0.06260    0.73470    0.88510    1.000
    H49      H        0.76580    0.36090    0.09570    1.000
    H50      H        0.28340    0.13030    0.16950    1.000
    H51      H        0.44470    0.25290    0.84700    1.000
    H52      H        0.43780    0.22920    0.10500    1.000
    H53      H        0.09140    0.26020    0.29270    1.000
    H54      H        0.14400    0.23370    0.45830    1.000
    H55      H        0.64910    0.76840    0.91570    1.000
    H56      H        0.29820    0.91710    0.56690    1.000
    H57      H        0.78220    0.70180    0.43310    1.000
    H58      H        0.32810    0.60030    0.00630    1.000
    H59      H        0.86090    0.26580    0.59570    1.000
    H60      H        0.23420    0.63910    0.90430    1.000
    H61      H        0.91710    0.21780    0.56690    1.000
    H62      H        0.81760    0.23470    0.38510    1.000
    H63      H        0.20800    0.25280    0.19140    1.000
    H64      H        0.08480    0.05790    0.57500    1.000
    H65      H        0.80230    0.06510    0.44630    1.000
    H66      H        0.64400    0.66400    0.95830    1.000
    H67      H        0.41080    0.99030    0.90400    1.000
    H68      H        0.49030    0.91080    0.40400    1.000
    H69      H        0.95990    0.26150    0.62240    1.000
    H70      H        0.01920    0.38570    0.31340    1.000
    H71      H        0.66450    0.87240    0.18780    1.000
    H72      H        0.93780    0.72800    0.60500    1.000
    H73      H        0.52630    0.90140    0.21540    1.000
    H74      H        0.14910    0.16680    0.41570    1.000
    H75      H        0.39970    0.93470    0.99370    1.000
    H76      H        0.87240    0.27530    0.18780    1.000
    H77      H        0.23370    0.16400    0.45830    1.000
    H78      H        0.82810    0.56530    0.50630    1.000
    H79      H        0.29200    0.15220    0.30860    1.000
    H80      H        0.35090    0.23160    0.08430    1.000
    H81      H        0.56260    0.81760    0.38510    1.000
    H82      H        0.34300    0.00980    0.97660    1.000
    H83      H        0.23850    0.54010    0.87760    1.000
    H84      H        0.82940    0.98460    0.45950    1.000
    H85      H        0.99030    0.69490    0.90400    1.000
    H86      H        0.41170    0.46700    0.13980    1.000
    H87      H        0.27760    0.86090    0.59570    1.000
    H88      H        0.26150    0.15620    0.62240    1.000
    H89      H        0.91680    0.63030    0.66950    1.000
    H90      H        0.56220    0.77080    0.89500    1.000
    H91      H        0.85090    0.83320    0.58430    1.000
    H92      H        0.64430    0.90860    0.70730    1.000
    H93      H        0.04550    0.97960    0.65720    1.000
    H94      H        0.64310    0.47370    0.78460    1.000
    H95      H        0.80790    0.58050    0.58010    1.000
    H96      H        0.84300    0.17060    0.47660    1.000
    H97      H        0.63910    0.22240    0.90430    1.000
    H98      H        0.45450    0.18230    0.84280    1.000
    H99      H        0.21780    0.29820    0.56690    1.000
    H100     H        0.91950    0.69210    0.91990    1.000
    H101     H        0.90460    0.34490    0.17490    1.000
    H102     H        0.15510    0.59540    0.32510    1.000
    H103     H        0.90110    0.05770    0.47390    1.000
    H104     H        0.06710    0.99840    0.57890    1.000
    H105     H        0.65700    0.99020    0.02340    1.000
    H106     H        0.30790    0.53150    0.08010    1.000
    H107     H        0.26020    0.35570    0.29270    1.000
    H108     H        0.74720    0.65220    0.80860    1.000
    H109     H        0.76630    0.83600    0.54170    1.000
    H110     H        0.22830    0.62660    0.20310    1.000
    H111     H        0.76840    0.66680    0.91570    1.000
    H112     H        0.08290    0.78220    0.43310    1.000
    H113     H        0.41520    0.21770    0.92500    1.000
    H114     H        0.98150    0.41170    0.13980    1.000
    H115     H        0.54550    0.81770    0.15720    1.000
    H116     H        0.71770    0.91520    0.42500    1.000
    H117     H        0.43270    0.09890    0.52610    1.000
    H118     H        0.35570    0.09140    0.29270    1.000
    H119     H        0.76530    0.43740    0.61490    1.000
    H120     H        0.93470    0.67190    0.99370    1.000
    H121     H        0.65250    0.00690    0.12960    1.000
    H122     H        0.72470    0.33550    0.81220    1.000
    H123     H        0.05530    0.04460    0.65300    1.000
    H124     H        0.05790    0.28230    0.57500    1.000
    H125     H        0.23980    0.40860    0.20730    1.000
    H126     H        0.90860    0.73980    0.70730    1.000
    H127     H        0.49840    0.56710    0.07890    1.000
    H128     H        0.24710    0.05530    0.65300    1.000
    H129     H        0.84490    0.40460    0.67490    1.000
    H130     H        0.58050    0.03150    0.58010    1.000
    H131     H        0.64440    0.93290    0.42110    1.000
    H132     H        0.24460    0.28270    0.43850    1.000
    H133     H        0.85690    0.40140    0.71540    1.000
    H134     H        0.69770    0.81370    0.05370    1.000
    H135     H        0.97660    0.42650    0.18000    1.000
    H136     H        0.24720    0.29200    0.30860    1.000
    H137     H        0.36970    0.21660    0.33050    1.000
    H138     H        0.55770    0.40110    0.97390    1.000
    H139     H        0.73470    0.31760    0.88510    1.000
    H140     H        0.97960    0.31770    0.65720    1.000
    H141     H        0.84380    0.04010    0.37760    1.000
    H142     H        0.46850    0.91950    0.91990    1.000
    H143     H        0.27530    0.66450    0.18780    1.000
    H144     H        0.19770    0.93490    0.55370    1.000
    H145     H        0.54460    0.55530    0.15300    1.000
    H146     H        0.57560    0.90460    0.17490    1.000
    H147     H        0.22470    0.62760    0.31220    1.000
    H148     H        0.72800    0.72920    0.60500    1.000
    H149     H        0.71780    0.41710    0.06690    1.000
    H150     H        0.57350    0.58310    0.82000    1.000
    H151     H        0.78900    0.34750    0.87040    1.000
    H152     H        0.22240    0.23420    0.90430    1.000
    H153     H        0.91520    0.94210    0.42500    1.000
    H154     H        0.93740    0.26530    0.11490    1.000
    H155     H        0.35690    0.52630    0.21540    1.000
    H156     H        0.00160    0.64440    0.42110    1.000
    H157     H        0.49310    0.84750    0.37040    1.000
    H158     H        0.77080    0.77200    0.89500    1.000
    H159     H        0.71830    0.98080    0.68660    1.000
    H160     H        0.41950    0.96850    0.41990    1.000
    H161     H        0.50690    0.15250    0.62960    1.000
    H162     H        0.35600    0.33600    0.04170    1.000
    H163     H        0.12760    0.72470    0.81220    1.000
    H164     H        0.03150    0.80790    0.58010    1.000
    H165     H        0.40140    0.02630    0.71540    1.000
    H166     H        0.59140    0.85570    0.79270    1.000
    H167     H        0.72830    0.44200    0.70310    1.000
    H168     H        0.58830    0.53300    0.86020    1.000
    H169     H        0.15220    0.24720    0.30860    1.000
    H170     H        0.57190    0.89400    0.01230    1.000
    H171     H        0.07560    0.84490    0.67490    1.000
    H172     H        0.28230    0.08480    0.57500    1.000
    H173     H        0.89970    0.17190    0.49370    1.000
    H174     H        0.08920    0.80510    0.59600    1.000
    H175     H        0.30230    0.18630    0.94630    1.000
    H176     H        0.38570    0.28170    0.31340    1.000
    H177     H        0.14440    0.50160    0.92110    1.000
    H178     H        0.63030    0.78340    0.66950    1.000
    H179     H        0.08310    0.07350    0.32000    1.000
    H180     H        0.50980    0.84300    0.47660    1.000
    H181     H        0.01540    0.27350    0.54050    1.000
    H182     H        0.40110    0.06730    0.97390    1.000
    H183     H        0.55790    0.58480    0.07500    1.000
    H184     H        0.77200    0.56220    0.89500    1.000
    H185     H        0.75290    0.94470    0.34700    1.000
    H186     H        0.98080    0.61430    0.68660    1.000
    H187     H        0.31770    0.04550    0.65720    1.000
    H188     H        0.04460    0.24710    0.65300    1.000
    H189     H        0.91170    0.48150    0.63980    1.000
    H190     H        0.76150    0.45990    0.12240    1.000
    H191     H        0.13910    0.73420    0.40430    1.000
    H192     H        0.39400    0.07190    0.51230    1.000
    H193     H        0.68630    0.80230    0.44630    1.000
    H194     H        0.21770    0.44210    0.92500    1.000
    H195     H        0.48460    0.32940    0.95950    1.000
    H196     H        0.52340    0.08310    0.32000    1.000
    H197     H        0.65510    0.42440    0.82510    1.000
    H198     H        0.66400    0.73370    0.95830    1.000
    H199     H        0.06730    0.55770    0.97390    1.000
    H200     H        0.77350    0.51540    0.04050    1.000
    H201     H        0.99840    0.35560    0.57890    1.000
    H202     H        0.15250    0.71100    0.62960    1.000
    H203     H        0.65220    0.79200    0.80860    1.000
    H204     H        0.61430    0.71830    0.68660    1.000
    H205     H        0.11430    0.48080    0.18660    1.000
    H206     H        0.52180    0.57190    0.01230    1.000
    H207     H        0.50160    0.43290    0.92110    1.000
    H208     H        0.46700    0.98150    0.13980    1.000
    H209     H        0.20180    0.28220    0.93310    1.000
    H210     H        0.40460    0.07560    0.67490    1.000
    H211     H        0.27200    0.27080    0.39500    1.000
    H212     H        0.51850    0.03300    0.36020    1.000
    H213     H        0.79200    0.74720    0.80860    1.000
    H214     H        0.99310    0.78900    0.87040    1.000
    H215     H        0.17190    0.43470    0.49370    1.000
    H216     H        0.15620    0.95990    0.62240    1.000
    H217     H        0.73980    0.64430    0.70730    1.000
    H218     H        0.56510    0.30230    0.94630    1.000
    H219     H        0.75280    0.70800    0.69140    1.000
    H220     H        0.69210    0.46850    0.91990    1.000
    H221     H        0.97370    0.14310    0.28460    1.000
    H222     H        0.77170    0.37340    0.79690    1.000
    H223     H        0.67060    0.34300    0.97660    1.000
    H224     H        0.87340    0.27170    0.29690    1.000
    H225     H        0.74460    0.53420    0.93850    1.000
    H226     H        0.00690    0.21100    0.12960    1.000
    H227     H        0.12660    0.72830    0.70310    1.000
    H228     H        0.28220    0.58290    0.93310    1.000
    H229     H        0.03420    0.24460    0.43850    1.000
    H230     H        0.47820    0.42810    0.98770    1.000
    H231     H        0.92650    0.47660    0.68000    1.000
    H232     H        0.56730    0.90110    0.47390    1.000
    H233     H        0.14310    0.59860    0.28460    1.000
    H234     H        0.08830    0.51850    0.36020    1.000
    H235     H        0.34490    0.57560    0.17490    1.000
    H236     H        0.00980    0.67060    0.97660    1.000
    H237     H        0.25280    0.34780    0.19140    1.000
    H238     H        0.68240    0.93740    0.11490    1.000
    H239     H        0.95540    0.75290    0.34700    1.000
    H240     H        0.30510    0.58920    0.09600    1.000
    H241     H        0.47960    0.54550    0.15720    1.000
    H242     H        0.16680    0.26840    0.41570    1.000
    H243     H        0.34750    0.99310    0.87040    1.000
    H244     H        0.78290    0.82570    0.40790    1.000
    H245     H        0.41710    0.79820    0.06690    1.000
    H246     H        0.09890    0.94230    0.52610    1.000
    H247     H        0.23470    0.56260    0.38510    1.000
    H248     H        0.70180    0.08290    0.43310    1.000
    H249     H        0.42650    0.41690    0.18000    1.000
    H250     H        0.93290    0.00160    0.42110    1.000
    H251     H        0.01650    0.21710    0.59210    1.000
    H252     H        0.02040    0.68230    0.34280    1.000
    H253     H        0.32940    0.22650    0.95950    1.000
    H254     H        0.94230    0.43270    0.52610    1.000
    H255     H        0.05800    0.77170    0.79690    1.000
    H256     H        0.53420    0.78270    0.93850    1.000
    H257     H        0.31760    0.06260    0.88510    1.000
    H258     H        0.34380    0.23850    0.87760    1.000
    H259     H        0.72920    0.93780    0.60500    1.000
    H260     H        0.91080    0.19490    0.40400    1.000
    H261     H        0.06530    0.32810    0.00630    1.000
    H262     H        0.44210    0.41520    0.92500    1.000
    H263     H        0.95450    0.02040    0.34280    1.000
    H264     H        0.51920    0.78170    0.81340    1.000
    H265     H        0.14430    0.23980    0.20730    1.000
    H266     H        0.83320    0.73160    0.58430    1.000
    H267     H        0.16400    0.14400    0.45830    1.000
    H268     H        0.62760    0.83550    0.31220    1.000
    H269     H        0.58480    0.78230    0.07500    1.000
    H270     H        0.28270    0.03420    0.43850    1.000
    H271     H        0.71710    0.51650    0.09210    1.000
    H272     H        0.67190    0.39970    0.99370    1.000
    H273     H        0.73370    0.64400    0.95830    1.000
    H274     H        0.45540    0.44470    0.84700    1.000
    H275     H        0.21710    0.17430    0.59210    1.000
    H276     H        0.03300    0.08830    0.36020    1.000
    H277     H        0.17060    0.01540    0.54050    1.000
    H278     H        0.92440    0.15510    0.32510    1.000
    H279     H        0.94200    0.22830    0.20310    1.000
    H280     H        0.33600    0.26630    0.04170    1.000
    H281     H        0.89400    0.52180    0.01230    1.000
    H282     H        0.48350    0.32570    0.90790    1.000
    H283     H        0.42810    0.10600    0.98770    1.000
    H284     H        0.18230    0.52040    0.84280    1.000
    H285     H        0.00970    0.30510    0.09600    1.000
    H286     H        0.72240    0.13910    0.40430    1.000
    H287     H        0.40860    0.14430    0.20730    1.000
    H288     H        0.18240    0.76530    0.61490    1.000
    H289     H        0.25290    0.45540    0.84700    1.000
    H290     H        0.22650    0.48460    0.95950    1.000
    H291     H        0.75540    0.71730    0.56150    1.000
    H292     H        0.96700    0.91170    0.63980    1.000
    H293     H        0.65620    0.76150    0.12240    1.000
    H294     H        0.28900    0.49310    0.37040    1.000
    H295     H        0.77530    0.37240    0.68780    1.000
    H296     H        0.71100    0.50690    0.62960    1.000
    H297     H        0.17430    0.01650    0.59210    1.000
    H298     H        0.37240    0.16450    0.68780    1.000
    H299     H        0.43740    0.18240    0.61490    1.000
    H300     H        0.99020    0.32940    0.02340    1.000
    H301     H        0.32570    0.28290    0.90790    1.000
    H302     H        0.85600    0.76630    0.54170    1.000
    H303     H        0.22920    0.22800    0.10500    1.000
    H304     H        0.55530    0.74710    0.15300    1.000
    H305     H        0.55800    0.87340    0.29690    1.000
    H306     H        0.42440    0.09540    0.82510    1.000
    H307     H        0.16450    0.77530    0.68780    1.000
    H308     H        0.31370    0.19770    0.55370    1.000
    H309     H        0.79820    0.71780    0.06690    1.000
    H310     H        0.86970    0.58320    0.83050    1.000
    H311     H        0.44200    0.12660    0.70310    1.000
    H312     H        0.10600    0.47820    0.98770    1.000
    H313     H        0.78270    0.74460    0.93850    1.000
    H314     H        0.81770    0.47960    0.15720    1.000
    H315     H        0.46580    0.21730    0.06150    1.000
    H316     H        0.98460    0.72650    0.45950    1.000
    H317     H        0.81370    0.43490    0.05370    1.000
    H318     H        0.56710    0.85560    0.07890    1.000
    H319     H        0.60030    0.06530    0.00630    1.000
    H320     H        0.26630    0.35600    0.04170    1.000
    H321     H        0.73160    0.85090    0.58430    1.000
    H322     H        0.74710    0.54460    0.15300    1.000
    H323     H        0.44230    0.59890    0.02610    1.000
    H324     H        0.58290    0.20180    0.93310    1.000
    H325     H        0.51650    0.67430    0.09210    1.000
    H326     H        0.58310    0.02340    0.82000    1.000
    H327     H        0.09860    0.64310    0.78460    1.000
    H328     H        0.02180    0.39400    0.51230    1.000
    H329     H        0.90140    0.35690    0.21540    1.000
    H330     H        0.91690    0.92650    0.68000    1.000
    H331     H        0.21660    0.08320    0.33050    1.000
    H332     H        0.70800    0.84780    0.69140    1.000
    H333     H        0.58920    0.00970    0.09600    1.000
    H334     H        0.07190    0.02180    0.51230    1.000
    H335     H        0.85570    0.76020    0.79270    1.000
    H336     H        0.22800    0.43780    0.10500    1.000
    H337     H        0.45990    0.65620    0.12240    1.000
    H338     H        0.68230    0.95450    0.34280    1.000
    H339     H        0.93270    0.44230    0.02610    1.000
    H340     H        0.59540    0.92440    0.32510    1.000
    H341     H        0.25540    0.46580    0.06150    1.000
    H342     H        0.84780    0.75280    0.69140    1.000
    H343     H        0.84750    0.28900    0.37040    1.000
    H344     H        0.85560    0.49840    0.07890    1.000
    H345     H        0.93490    0.31370    0.55370    1.000
    H346     H        0.92810    0.97820    0.48770    1.000
    H347     H        0.96850    0.19210    0.41990    1.000
    H348     H        0.59890    0.93270    0.02610    1.000
    H349     H        0.83550    0.22470    0.31220    1.000
    H350     H        0.48150    0.96700    0.63980    1.000
    H351     H        0.50970    0.08920    0.59600    1.000
    H352     H        0.02340    0.57350    0.82000    1.000
    H353     H        0.02630    0.85690    0.71540    1.000
    H354     H        0.96580    0.75540    0.56150    1.000
    H355     H        0.23160    0.33320    0.08430    1.000
    H356     H        0.71730    0.96580    0.56150    1.000
    H357     H        0.53150    0.08050    0.08010    1.000
    H358     H        0.80510    0.50970    0.59600    1.000
    H359     H        0.94210    0.71770    0.42500    1.000
    H360     H        0.13030    0.41680    0.16950    1.000
    H361     H        0.09540    0.65510    0.82510    1.000
    H362     H        0.27350    0.17060    0.54050    1.000
    H363     H        0.21730    0.25540    0.06150    1.000
    H364     H        0.72650    0.82940    0.45950    1.000
    H365     H        0.27170    0.55800    0.29690    1.000
    H366     H        0.28170    0.01920    0.31340    1.000
    H367     H        0.32940    0.65700    0.02340    1.000
    H368     H        0.60600    0.92810    0.48770    1.000
    H369     H        0.26580    0.27760    0.59570    1.000
    H370     H        0.47660    0.91690    0.68000    1.000
    H371     H        0.07350    0.52340    0.32000    1.000
    H372     H        0.48080    0.21830    0.18660    1.000
    H373     H        0.33550    0.12760    0.81220    1.000
    H374     H        0.59860    0.97370    0.28460    1.000
    H375     H        0.58320    0.71660    0.83050    1.000
    H376     H        0.34780    0.20800    0.19140    1.000
    H377     H        0.43470    0.89970    0.49370    1.000
    H378     H        0.56530    0.10030    0.50630    1.000
    H379     H        0.54010    0.34380    0.87760    1.000
    H380     H        0.33320    0.35090    0.08430    1.000
    H381     H        0.18630    0.56510    0.94630    1.000
    H382     H        0.21100    0.65250    0.12960    1.000
    H383     H        0.66680    0.64910    0.91570    1.000
    H384     H        0.67060    0.77350    0.04050    1.000
    C1       C        0.83108    0.52458    0.02616    1.000
    C2       C        0.71386    0.48106    0.66722    1.000
    C3       C        0.75034    0.80624    0.82138    1.000
    C4       C        0.95731    0.40061    0.52877    1.000
    C5       C        0.75698    0.74798    0.93376    1.000
    C6       C        0.34819    0.24479    0.32303    1.000
    C7       C        0.45784    0.42334    0.90868    1.000
    C8       C        0.22529    0.38699    0.09783    1.000
    C9       C        0.07457    0.05397    0.61409    1.000
    C10      C        0.37774    0.09684    0.52088    1.000
    C11      C        0.85901    0.73701    0.57977    1.000
    C12      C        0.13950    0.58030    0.32390    1.000
    C13      C        0.43987    0.92307    0.95749    1.000
    C14      C        0.18288    0.50478    0.44006    1.000
    C15      C        0.46651    0.44001    0.86167    1.000
    C16      C        0.40848    0.44858    0.17916    1.000
    C17      C        0.12226    0.49546    0.97912    1.000
    C18      C        0.89212    0.25582    0.59504    1.000
    C19      C        0.50518    0.74698    0.05616    1.000
    C20      C        0.90955    0.18945    0.42185    1.000
    C21      C        0.17582    0.45172    0.19764    1.000
    C22      C        0.39637    0.43587    0.22569    1.000
    C23      C        0.44681    0.90221    0.47597    1.000
    C24      C        0.44858    0.96378    0.17916    1.000
    C25      C        0.43587    0.94207    0.22569    1.000
    C26      C        0.04851    0.74641    0.38927    1.000
    C27      C        0.17235    0.95255    0.54545    1.000
    C28      C        0.63902    0.94112    0.18564    1.000
    C29      C        0.00389    0.68899    0.35933    1.000
    C30      C        0.28986    0.07666    0.59132    1.000
    C31      C        0.97542    0.66892    0.47384    1.000
    C32      C        0.69376    0.74966    0.67862    1.000
    C33      C        0.68496    0.74256    0.94552    1.000
    C34      C        0.71591    0.95441    0.68717    1.000
    C35      C        0.18419    0.95149    0.61073    1.000
    C36      C        0.21386    0.63786    0.16722    1.000
    C37      C        0.45255    0.67235    0.04545    1.000
    C38      C        0.91601    0.65181    0.67697    1.000
    C39      C        0.82518    0.82418    0.80236    1.000
    C40      C        0.19168    0.24698    0.55616    1.000
    C41      C        0.21578    0.23758    0.57626    1.000
    C42      C        0.67035    0.82765    0.45455    1.000
    C43      C        0.65612    0.80562    0.03774    1.000
    C44      C        0.88182    0.97542    0.47384    1.000
    C45      C        0.27298    0.51478    0.90706    1.000
    C46      C        0.96720    0.88860    0.70130    1.000
    C47      C        0.15181    0.41601    0.17697    1.000
    C48      C        0.67181    0.93881    0.13257    1.000
    C49      C        0.08873    0.23553    0.45161    1.000
    C50      C        0.90316    0.99546    0.47912    1.000
    C51      C        0.28849    0.41169    0.88843    1.000
    C52      C        0.11301    0.27471    0.40217    1.000
    C53      C        0.42543    0.24263    0.88591    1.000
    C54      C        0.11990    0.32390    0.03180    1.000
    C55      C        0.54370    0.91970    0.17610    1.000
    C56      C        0.24256    0.18496    0.44552    1.000
    C57      C        0.40316    0.12226    0.97912    1.000
    C58      C        0.92334    0.95784    0.40868    1.000
    C59      C        0.52310    0.11800    0.67730    1.000
    C60      C        0.54851    0.31581    0.88927    1.000
    C61      C        0.27453    0.29043    0.31001    1.000
    C62      C        0.41169    0.41139    0.88843    1.000
    C63      C        0.57457    0.75737    0.11409    1.000
    C64      C        0.61818    0.83108    0.02616    1.000
    C65      C        0.94681    0.67501    0.97597    1.000
    C66      C        0.77587    0.91127    0.54839    1.000
    C67      C        0.68945    0.40955    0.92185    1.000
    C68      C        0.55319    0.09779    0.52403    1.000
    C69      C        0.87796    0.69376    0.67862    1.000
    C70      C        0.66691    0.93361    0.40637    1.000
    C71      C        0.16003    0.76383    0.67601    1.000
    C72      C        0.92543    0.94603    0.38591    1.000
    C73      C        0.36696    0.01026    0.29342    1.000
    C74      C        0.75521    0.91601    0.67697    1.000
    C75      C        0.45172    0.17482    0.19764    1.000
    C76      C        0.09939    0.54269    0.97123    1.000
    C77      C        0.68288    0.37228    0.94006    1.000
    C78      C        0.32518    0.04828    0.30236    1.000
    C79      C        0.50454    0.59684    0.02088    1.000
    C80      C        0.15612    0.00052    0.53774    1.000
    C81      C        0.49522    0.12772    0.55994    1.000
    C82      C        0.72424    0.32664    0.84868    1.000
    C83      C        0.66892    0.88182    0.47384    1.000
    C84      C        0.44779    0.18899    0.85933    1.000
    C85      C        0.25744    0.37304    0.05448    1.000
    C86      C        0.95630    0.13950    0.32390    1.000
    C87      C        0.28409    0.04559    0.31283    1.000
    C88      C        0.26710    0.28620    0.02250    1.000
    C89      C        0.67189    0.91079    0.69953    1.000
    C90      C        0.31712    0.62772    0.05994    1.000
    C91      C        0.21779    0.41079    0.19953    1.000
    C92      C        0.57580    0.73290    0.97750    1.000
    C93      C        0.56128    0.75698    0.93376    1.000
    C94      C        0.40013    0.16003    0.67601    1.000
    C95      C        0.62503    0.79043    0.81001    1.000
    C96      C        0.37614    0.15064    0.54068    1.000
    C97      C        0.34936    0.12386    0.95932    1.000
    C98      C        0.82811    0.78221    0.80047    1.000
    C99      C        0.35901    0.32421    0.07977    1.000
    C100     C        0.99948    0.69438    0.46226    1.000
    C101     C        0.91841    0.36691    0.20037    1.000
    C102     C        0.32449    0.63219    0.03453    1.000
    C103     C        0.40079    0.47859    0.15513    1.000
    C104     C        0.72480    0.48020    0.64130    1.000
    C105     C        0.55636    0.06256    0.06882    1.000
    C106     C        0.07739    0.26599    0.40823    1.000
    C107     C        0.73422    0.44112    0.68564    1.000
    C108     C        0.78849    0.91139    0.38843    1.000
    C109     C        0.57666    0.78986    0.09132    1.000
    C110     C        0.97690    0.81840    0.82270    1.000
    C111     C        0.04828    0.32418    0.30236    1.000
    C112     C        0.12386    0.56746    0.95932    1.000
    C113     C        0.40955    0.97915    0.92185    1.000
    C114     C        0.27520    0.51980    0.35870    1.000
    C115     C        0.01431    0.86691    0.70037    1.000
    C116     C        0.23758    0.97038    0.57626    1.000
    C117     C        0.51026    0.86696    0.79342    1.000
    C118     C        0.76819    0.53349    0.13833    1.000
    C119     C        0.02141    0.09921    0.34487    1.000
    C120     C        0.74966    0.87796    0.67862    1.000
    C121     C        0.32390    0.52440    0.03180    1.000
    C122     C        0.87774    0.50454    0.02088    1.000
    C123     C        0.18899    0.50389    0.85933    1.000
    C124     C        0.38860    0.46720    0.20130    1.000
    C125     C        0.47038    0.73758    0.07626    1.000
    C126     C        0.72547    0.70957    0.68999    1.000
    C127     C        0.08861    0.08831    0.61157    1.000
    C128     C        0.41139    0.28849    0.88843    1.000
    C129     C        0.11331    0.95731    0.52877    1.000
    C130     C        0.22702    0.19482    0.59294    1.000
    C131     C        0.11800    0.68160    0.67730    1.000
    C132     C        0.73290    0.71380    0.97750    1.000
    C133     C        0.00052    0.30562    0.53774    1.000
    C134     C        0.55142    0.03622    0.82084    1.000
    C135     C        0.08399    0.34819    0.32303    1.000
    C136     C        0.59921    0.52141    0.84487    1.000
    C137     C        0.62270    0.47510    0.84550    1.000
    C138     C        0.14251    0.45441    0.18717    1.000
    C139     C        0.99611    0.31101    0.64067    1.000
    C140     C        0.41601    0.25521    0.17697    1.000
    C141     C        0.74798    0.56128    0.93376    1.000
    C142     C        0.05221    0.99611    0.64067    1.000
    C143     C        0.88010    0.67610    0.96820    1.000
    C144     C        0.89956    0.27576    0.15132    1.000
    C145     C        0.03349    0.26819    0.63833    1.000
    C146     C        0.51646    0.44546    0.88132    1.000
    C147     C        0.58861    0.71151    0.11157    1.000
    C148     C        0.52962    0.26242    0.92374    1.000
    C149     C        0.42546    0.76916    0.07752    1.000
    C150     C        0.15370    0.72480    0.64130    1.000
    C151     C        0.27587    0.26447    0.04839    1.000
    C152     C        0.23701    0.35901    0.07977    1.000
    C153     C        0.46378    0.94858    0.67916    1.000
    C154     C        0.36691    0.51431    0.20037    1.000
    C155     C        0.56746    0.34936    0.95932    1.000
    C156     C        0.22413    0.08873    0.45161    1.000
    C157     C        0.82421    0.85901    0.57977    1.000
    C158     C        0.08159    0.63309    0.79963    1.000
    C159     C        0.31504    0.25744    0.05448    1.000
    C160     C        0.44112    0.13902    0.68564    1.000
    C161     C        0.30624    0.25034    0.32138    1.000
    C162     C        0.15676    0.51646    0.88132    1.000
    C163     C        0.11140    0.55710    0.29870    1.000
    C164     C        0.37497    0.20957    0.18999    1.000
    C165     C        0.42420    0.26710    0.02250    1.000
    C166     C        0.24263    0.44603    0.88591    1.000
    C167     C        0.47542    0.38182    0.97384    1.000
    C168     C        0.55454    0.84324    0.11868    1.000
    C169     C        0.47859    0.96549    0.15513    1.000
    C170     C        0.98020    0.22480    0.14130    1.000
    C171     C        0.23401    0.42261    0.09177    1.000
    C172     C        0.74641    0.81581    0.38927    1.000
    C173     C        0.55221    0.81101    0.14067    1.000
    C174     C        0.04269    0.59939    0.47123    1.000
    C175     C        0.25302    0.30832    0.94384    1.000
    C176     C        0.86098    0.26578    0.31436    1.000
    C177     C        0.74698    0.69168    0.05616    1.000
    C178     C        0.72786    0.42546    0.07752    1.000
    C179     C        0.56256    0.05636    0.56882    1.000
    C180     C        0.48569    0.08159    0.79963    1.000
    C181     C        0.62386    0.84936    0.45932    1.000
    C182     C        0.61140    0.53280    0.79870    1.000
    C183     C        0.43881    0.17181    0.63257    1.000
    C184     C        0.37304    0.31504    0.05448    1.000
    C185     C        0.09779    0.82499    0.52403    1.000
    C186     C        0.47690    0.88200    0.32270    1.000
    C187     C        0.91139    0.91169    0.38843    1.000
    C188     C        0.23617    0.59987    0.32399    1.000
    C189     C        0.98106    0.21386    0.16722    1.000
    C190     C        0.17551    0.49121    0.46547    1.000
    C191     C        0.74839    0.76599    0.90823    1.000
    C192     C        0.72529    0.78989    0.59783    1.000
    C193     C        0.19445    0.42595    0.97975    1.000
    C194     C        0.43744    0.94364    0.43118    1.000
    C195     C        0.75302    0.99482    0.44384    1.000
    C196     C        0.84324    0.48354    0.11868    1.000
    C197     C        0.59987    0.83997    0.32399    1.000
    C198     C        0.07454    0.77214    0.42248    1.000
    C199     C        0.07693    0.32043    0.04251    1.000
    C200     C        0.04216    0.28986    0.59132    1.000
    C201     C        0.75161    0.92261    0.59177    1.000
    C202     C        0.90221    0.17501    0.47597    1.000
    C203     C        0.32765    0.17035    0.95455    1.000
    C204     C        0.71011    0.77471    0.90217    1.000
    C205     C        0.39985    0.19445    0.97975    1.000
    C206     C        0.61800    0.02310    0.17730    1.000
    C207     C        0.69438    0.84388    0.46226    1.000
    C208     C        0.21151    0.08861    0.61157    1.000
    C209     C        0.55710    0.03280    0.29870    1.000
    C210     C        0.98569    0.13309    0.29963    1.000
    C211     C        0.25521    0.15181    0.17697    1.000
    C212     C        0.81581    0.04851    0.38927    1.000
    C213     C        0.50052    0.65612    0.03774    1.000
    C214     C        0.87228    0.18288    0.44006    1.000
    C215     C        0.27471    0.21011    0.40217    1.000
    C216     C        0.67582    0.67482    0.69764    1.000
    C217     C        0.32421    0.23701    0.07977    1.000
    C218     C        0.26819    0.05999    0.63833    1.000
    C219     C        0.98354    0.34324    0.61868    1.000
    C220     C        0.95441    0.64251    0.68717    1.000
    C221     C        0.31055    0.59045    0.07815    1.000
    C222     C        0.44207    0.93587    0.72569    1.000
    C223     C        0.28221    0.32811    0.30047    1.000
    C224     C        0.27576    0.67336    0.15132    1.000
    C225     C        0.33309    0.06639    0.59363    1.000
    C226     C        0.42334    0.21014    0.90868    1.000
    C227     C        0.54745    0.32765    0.95455    1.000
    C228     C        0.67501    0.40221    0.97597    1.000
    C229     C        0.02458    0.33108    0.52616    1.000
    C230     C        0.25161    0.23401    0.09177    1.000
    C231     C        0.05454    0.98354    0.61868    1.000
    C232     C        0.32936    0.36696    0.29342    1.000
    C233     C        0.91169    0.78849    0.38843    1.000
    C234     C        0.41970    0.04370    0.67610    1.000
    C235     C        0.18496    0.12696    0.44552    1.000
    C236     C        0.05319    0.32499    0.02403    1.000
    C237     C        0.84819    0.58399    0.82303    1.000
    C238     C        0.82499    0.55319    0.52403    1.000
    C239     C        0.82819    0.24319    0.36743    1.000
    C240     C        0.56119    0.82819    0.36743    1.000
    C241     C        0.37730    0.52490    0.15450    1.000
    C242     C        0.92420    0.78620    0.52250    1.000
    C243     C        0.38200    0.97690    0.82270    1.000
    C244     C        0.67235    0.82965    0.04545    1.000
    C245     C        0.44330    0.02490    0.65450    1.000
    C246     C        0.25034    0.12204    0.32138    1.000
    C247     C        0.36098    0.05888    0.81436    1.000
    C248     C        0.38669    0.09939    0.97123    1.000
    C249     C        0.78614    0.36214    0.83278    1.000
    C250     C        0.81504    0.87304    0.55448    1.000
    C251     C        0.36781    0.99121    0.96547    1.000
    C252     C        0.73701    0.82421    0.57977    1.000
    C253     C        0.22480    0.65370    0.14130    1.000
    C254     C        0.78422    0.76242    0.42374    1.000
    C255     C        0.01894    0.78614    0.83278    1.000
    C256     C        0.97915    0.68945    0.92185    1.000
    C257     C        0.25582    0.25702    0.59504    1.000
    C258     C        0.83309    0.50689    0.09363    1.000
    C259     C        0.76916    0.72786    0.07752    1.000
    C260     C        0.36214    0.01894    0.83278    1.000
    C261     C        0.77453    0.62503    0.81001    1.000
    C262     C        0.74256    0.62696    0.94552    1.000
    C263     C        0.55670    0.97510    0.34550    1.000
    C264     C        0.59779    0.05319    0.02403    1.000
    C265     C        0.85749    0.54559    0.81283    1.000
    C266     C        0.77471    0.61301    0.90217    1.000
    C267     C        0.48974    0.13304    0.20658    1.000
    C268     C        0.24966    0.19376    0.17862    1.000
    C269     C        0.23290    0.07580    0.47750    1.000
    C270     C        0.88669    0.04269    0.47123    1.000
    C271     C        0.03451    0.59921    0.84487    1.000
    C272     C        0.04370    0.86050    0.67610    1.000
    C273     C        0.81226    0.56256    0.56882    1.000
    C274     C        0.54828    0.82518    0.80236    1.000
    C275     C        0.44364    0.93744    0.93118    1.000
    C276     C        0.78986    0.54216    0.09132    1.000
    C277     C        0.30555    0.10015    0.52025    1.000
    C278     C        0.44603    0.42543    0.88591    1.000
    C279     C        0.03280    0.11140    0.29870    1.000
    C280     C        0.13304    0.17064    0.20658    1.000
    C281     C        0.48522    0.69482    0.09294    1.000
    C282     C        0.39956    0.17336    0.65132    1.000
    C283     C        0.19376    0.37796    0.17862    1.000
    C284     C        0.28989    0.22529    0.09783    1.000
    C285     C        0.02440    0.82390    0.53180    1.000
    C286     C        0.82043    0.57693    0.54251    1.000
    C287     C        0.30518    0.27298    0.90706    1.000
    C288     C        0.24418    0.60788    0.90496    1.000
    C289     C        0.25702    0.89212    0.59504    1.000
    C290     C        0.10788    0.74418    0.40496    1.000
    C291     C        0.76578    0.36098    0.81436    1.000
    C292     C        0.37228    0.00478    0.94006    1.000
    C293     C        0.63304    0.98974    0.70658    1.000
    C294     C        0.68899    0.94779    0.35933    1.000
    C295     C        0.61331    0.90061    0.02877    1.000
    C296     C        0.24302    0.25202    0.06624    1.000
    C297     C        0.71380    0.57580    0.97750    1.000
    C298     C        0.25359    0.18419    0.61073    1.000
    C299     C        0.86050    0.41970    0.67610    1.000
    C300     C        0.60015    0.80555    0.02025    1.000
    C301     C        0.02962    0.78422    0.42374    1.000
    C302     C        0.09684    0.00454    0.52088    1.000
    C303     C        0.75582    0.39212    0.09504    1.000
    C304     C        0.24798    0.25698    0.43376    1.000
    C305     C        0.02490    0.87730    0.65450    1.000
    C306     C        0.00478    0.68288    0.94006    1.000
    C307     C        0.89637    0.44207    0.72569    1.000
    C308     C        0.48106    0.13786    0.66722    1.000
    C309     C        0.67482    0.95172    0.69764    1.000
    C310     C        0.24698    0.00518    0.55616    1.000
    C311     C        0.49311    0.43361    0.90637    1.000
    C312     C        0.71014    0.92334    0.40868    1.000
    C313     C        0.59045    0.02085    0.07815    1.000
    C314     C        0.18945    0.47915    0.42185    1.000
    C315     C        0.39212    0.75702    0.09504    1.000
    C316     C        0.00689    0.33309    0.59363    1.000
    C317     C        0.23422    0.63902    0.18564    1.000
    C318     C        0.01478    0.77298    0.40706    1.000
    C319     C        0.87730    0.44330    0.65450    1.000
    C320     C        0.25698    0.06128    0.43376    1.000
    C321     C        0.17957    0.42307    0.45749    1.000
    C322     C        0.34388    0.19438    0.96226    1.000
    C323     C        0.40221    0.94681    0.97597    1.000
    C324     C        0.10044    0.72424    0.84868    1.000
    C325     C        0.63786    0.98106    0.16722    1.000
    C326     C        0.75744    0.81504    0.55448    1.000
    C327     C        0.75737    0.55397    0.11409    1.000
    C328     C        0.52490    0.94330    0.15450    1.000
    C329     C        0.12204    0.30624    0.32138    1.000
    C330     C        0.38182    0.16892    0.97384    1.000
    C331     C        0.84388    0.99948    0.46226    1.000
    C332     C        0.17579    0.14099    0.42023    1.000
    C333     C        0.53280    0.05710    0.79870    1.000
    C334     C        0.94858    0.90848    0.67916    1.000
    C335     C        0.32965    0.17235    0.54545    1.000
    C336     C        0.93361    0.99311    0.40637    1.000
    C337     C        0.67610    0.47560    0.96820    1.000
    C338     C        0.06256    0.31226    0.06882    1.000
    C339     C        0.49546    0.40316    0.97912    1.000
    C340     C        0.00454    0.37774    0.52088    1.000
    C341     C        0.08921    0.28221    0.30047    1.000
    C342     C        0.67551    0.36781    0.96547    1.000
    C343     C        0.51894    0.86214    0.33278    1.000
    C344     C        0.43361    0.16691    0.90637    1.000
    C345     C        0.54559    0.78409    0.81283    1.000
    C346     C        0.31226    0.55636    0.06882    1.000
    C347     C        0.74302    0.93872    0.56624    1.000
    C348     C        0.75359    0.45149    0.11073    1.000
    C349     C        0.81840    0.38200    0.82270    1.000
    C350     C        0.78989    0.88699    0.59783    1.000
    C351     C        0.77520    0.34630    0.85870    1.000
    C352     C        0.26299    0.17579    0.42023    1.000
    C353     C        0.98974    0.67064    0.70658    1.000
    C354     C        0.07666    0.04216    0.59132    1.000
    C355     C        0.58921    0.82811    0.80047    1.000
    C356     C        0.75681    0.43881    0.63257    1.000
    C357     C        0.92261    0.73401    0.59177    1.000
    C358     C        0.24298    0.24418    0.90496    1.000
    C359     C        0.86691    0.41841    0.70037    1.000
    C360     C        0.71578    0.47038    0.07626    1.000
    C361     C        0.17189    0.21779    0.19953    1.000
    C362     C        0.23152    0.59462    0.88864    1.000
    C363     C        0.00518    0.19168    0.55616    1.000
    C364     C        0.12503    0.27453    0.31001    1.000
    C365     C        0.97560    0.17610    0.46820    1.000
    C366     C        0.25202    0.43872    0.06624    1.000
    C367     C        0.81712    0.49522    0.55994    1.000
    C368     C        0.99121    0.67551    0.96547    1.000
    C369     C        0.17482    0.17582    0.19764    1.000
    C370     C        0.28422    0.52962    0.92374    1.000
    C371     C        0.47510    0.05670    0.84550    1.000
    C372     C        0.34324    0.05454    0.61868    1.000
    C373     C        0.62226    0.90316    0.47912    1.000
    C374     C        0.34630    0.01980    0.85870    1.000
    C375     C        0.82664    0.22424    0.34868    1.000
    C376     C        0.01026    0.32936    0.29342    1.000
    C377     C        0.72413    0.73553    0.95161    1.000
    C378     C        0.59462    0.28522    0.88864    1.000
    C379     C        0.69445    0.89985    0.47975    1.000
    C380     C        0.14099    0.26299    0.42023    1.000
    C381     C        0.91970    0.36050    0.17610    1.000
    C382     C        0.60363    0.56413    0.77431    1.000
    C383     C        0.06639    0.00689    0.59363    1.000
    C384     C        0.21591    0.14251    0.18717    1.000
    C385     C        0.80518    0.01478    0.40706    1.000
    C386     C        0.23553    0.22413    0.45161    1.000
    C387     C        0.28620    0.42420    0.02250    1.000
    C388     C        0.41841    0.01431    0.70037    1.000
    C389     C        0.54216    0.57666    0.09132    1.000
    C390     C        0.26447    0.41127    0.04839    1.000
    C391     C        0.86214    0.28614    0.33278    1.000
    C392     C        0.51980    0.84630    0.35870    1.000
    C393     C        0.09152    0.53622    0.32084    1.000
    C394     C        0.82765    0.04745    0.45455    1.000
    C395     C        0.35749    0.28409    0.31283    1.000
    C396     C        0.25737    0.07457    0.61409    1.000
    C397     C        0.58399    0.74479    0.82303    1.000
    C398     C        0.45731    0.61331    0.02877    1.000
    C399     C        0.05670    0.62270    0.84550    1.000
    C400     C        0.81055    0.52085    0.57815    1.000
    C401     C        0.68774    0.44364    0.93118    1.000
    C402     C        0.49611    0.55221    0.14067    1.000
    C403     C        0.09921    0.53451    0.34487    1.000
    C404     C        0.05888    0.76578    0.81436    1.000
    C405     C        0.90538    0.26848    0.61136    1.000
    C406     C        0.08030    0.63950    0.82390    1.000
    C407     C        0.57693    0.06013    0.54251    1.000
    C408     C        0.76848    0.40538    0.11136    1.000
    C409     C        0.58159    0.98569    0.29963    1.000
    C410     C        0.51478    0.30518    0.90706    1.000
    C411     C        0.13786    0.71386    0.66722    1.000
    C412     C        0.91079    0.71779    0.69953    1.000
    C413     C        0.81101    0.49611    0.14067    1.000
    C414     C        0.45630    0.08030    0.82390    1.000
    C415     C        0.24641    0.54851    0.88927    1.000
    C416     C        0.57454    0.23084    0.92248    1.000
    C417     C        0.63309    0.48569    0.79963    1.000
    C418     C        0.01646    0.65676    0.38132    1.000
    C419     C        0.40061    0.11331    0.52877    1.000
    C420     C        0.46720    0.94290    0.20130    1.000
    C421     C        0.17064    0.48974    0.20658    1.000
    C422     C        0.38010    0.97560    0.46820    1.000
    C423     C        0.15064    0.93254    0.54068    1.000
    C424     C        0.06746    0.62386    0.45932    1.000
    C425     C        0.65181    0.75521    0.67697    1.000
    C426     C        0.56639    0.83309    0.09363    1.000
    C427     C        0.78620    0.76710    0.52250    1.000
    C428     C        0.72702    0.48522    0.09294    1.000
    C429     C        0.24839    0.07739    0.40823    1.000
    C430     C        0.05636    0.81226    0.56882    1.000
    C431     C        0.12772    0.81712    0.55994    1.000
    C432     C        0.55888    0.86098    0.31436    1.000
    C433     C        0.79043    0.77453    0.81001    1.000
    C434     C        0.95784    0.71014    0.40868    1.000
    C435     C        0.74298    0.10788    0.40496    1.000
    C436     C        0.87614    0.43254    0.04068    1.000
    C437     C        0.32664    0.10044    0.84868    1.000
    C438     C        0.53451    0.02141    0.34487    1.000
    C439     C        0.68160    0.52310    0.67730    1.000
    C440     C        0.12270    0.55670    0.34550    1.000
    C441     C        0.94207    0.39637    0.22569    1.000
    C442     C        0.02085    0.31055    0.07815    1.000
    C443     C        0.62772    0.99522    0.05994    1.000
    C444     C        0.09045    0.81055    0.57815    1.000
    C445     C        0.99482    0.80832    0.44384    1.000
    C446     C        0.94001    0.96651    0.36167    1.000
    C447     C        0.73401    0.75161    0.59177    1.000
    C448     C        0.77298    0.80518    0.40706    1.000
    C449     C        0.83997    0.23617    0.32399    1.000
    C450     C        0.10015    0.07405    0.52025    1.000
    C451     C        0.21478    0.90538    0.61136    1.000
    C452     C        0.61301    0.71011    0.90217    1.000
    C453     C        0.50689    0.56639    0.09363    1.000
    C454     C        0.11818    0.02458    0.52616    1.000
    C455     C        0.77214    0.73084    0.42248    1.000
    C456     C        0.65064    0.87614    0.04068    1.000
    C457     C        0.76383    0.40013    0.67601    1.000
    C458     C        0.26242    0.28422    0.92374    1.000
    C459     C        0.86696    0.82936    0.79342    1.000
    C460     C        0.63950    0.45630    0.82390    1.000
    C461     C        0.29043    0.12503    0.31001    1.000
    C462     C        0.27214    0.57454    0.92248    1.000
    C463     C        0.94603    0.74263    0.38591    1.000
    C464     C        0.05793    0.60363    0.77431    1.000
    C465     C        0.19482    0.98522    0.59294    1.000
    C466     C        0.06128    0.24798    0.43376    1.000
    C467     C        0.90061    0.45731    0.02877    1.000
    C468     C        0.92595    0.69445    0.47975    1.000
    C469     C        0.67957    0.43987    0.95749    1.000
    C470     C        0.82936    0.51026    0.79342    1.000
    C471     C        0.24479    0.08399    0.32303    1.000
    C472     C        0.07405    0.30555    0.52025    1.000
    C473     C        0.26848    0.21478    0.61136    1.000
    C474     C        0.05710    0.61140    0.79870    1.000
    C475     C        0.05142    0.09152    0.32084    1.000
    C476     C        0.57405    0.60015    0.02025    1.000
    C477     C        0.28522    0.23152    0.88864    1.000
    C478     C        0.31840    0.47690    0.32270    1.000
    C479     C        0.55999    0.76819    0.13833    1.000
    C480     C        0.32499    0.59779    0.02403    1.000
    C481     C        0.92307    0.67957    0.95749    1.000
    C482     C        0.06013    0.82043    0.54251    1.000
    C483     C        0.42595    0.39985    0.97975    1.000
    C484     C        0.95149    0.25359    0.61073    1.000
    C485     C        0.49121    0.86781    0.46547    1.000
    C486     C        0.49482    0.25302    0.94384    1.000
    C487     C        0.26383    0.66003    0.17601    1.000
    C488     C        0.65370    0.98020    0.14130    1.000
    C489     C        0.82390    0.61990    0.53180    1.000
    C490     C        0.36050    0.54370    0.17610    1.000
    C491     C        0.69482    0.72702    0.09294    1.000
    C492     C        0.25681    0.67181    0.13257    1.000
    C493     C        0.87304    0.75744    0.55448    1.000
    C494     C        0.88860    0.44290    0.70130    1.000
    C495     C        0.90848    0.46378    0.67916    1.000
    C496     C        0.44546    0.15676    0.88132    1.000
    C497     C        0.52085    0.09045    0.57815    1.000
    C498     C        0.48020    0.15370    0.64130    1.000
    C499     C        0.93254    0.37614    0.54068    1.000
    C500     C        0.23181    0.46651    0.86167    1.000
    C501     C        0.45441    0.21591    0.18717    1.000
    C502     C        0.93881    0.25681    0.13257    1.000
    C503     C        0.93744    0.68774    0.93118    1.000
    C504     C        0.50879    0.13219    0.53453    1.000
    C505     C        0.97510    0.12270    0.34550    1.000
    C506     C        0.67064    0.63304    0.70658    1.000
    C507     C        0.78221    0.58921    0.80047    1.000
    C508     C        0.97038    0.21578    0.57626    1.000
    C509     C        0.76599    0.57739    0.90823    1.000
    C510     C        0.06119    0.74319    0.86743    1.000
    C511     C        0.84630    0.27520    0.35870    1.000
    C512     C        0.93987    0.17957    0.45749    1.000
    C513     C        0.82418    0.54828    0.80236    1.000
    C514     C        0.90079    0.46549    0.65513    1.000
    C515     C        0.04559    0.35749    0.31283    1.000
    C516     C        0.64251    0.71591    0.68717    1.000
    C517     C        0.56013    0.07693    0.04251    1.000
    C518     C        0.03622    0.59152    0.82084    1.000
    C519     C        0.55793    0.06413    0.27431    1.000
    C520     C        0.78522    0.09462    0.38864    1.000
    C521     C        0.12696    0.24256    0.44552    1.000
    C522     C        0.17610    0.38010    0.46820    1.000
    C523     C        0.16892    0.47542    0.97384    1.000
    C524     C        0.61990    0.02440    0.53180    1.000
    C525     C        0.52458    0.61818    0.02616    1.000
    C526     C        0.13219    0.82449    0.53453    1.000
    C527     C        0.73553    0.58873    0.95161    1.000
    C528     C        0.94330    0.37730    0.15450    1.000
    C529     C        0.57739    0.74839    0.90823    1.000
    C530     C        0.74263    0.92543    0.38591    1.000
    C531     C        0.76299    0.64099    0.92023    1.000
    C532     C        0.09462    0.73152    0.38864    1.000
    C533     C        0.60788    0.24298    0.90496    1.000
    C534     C        0.40538    0.71478    0.11136    1.000
    C535     C        0.95255    0.32965    0.54545    1.000
    C536     C        0.62204    0.75034    0.82138    1.000
    C537     C        0.47915    0.90955    0.42185    1.000
    C538     C        0.96378    0.40848    0.17916    1.000
    C539     C        0.24319    0.56119    0.36743    1.000
    C540     C        0.10363    0.55793    0.27431    1.000
    C541     C        0.53349    0.55999    0.13833    1.000
    C542     C        0.93872    0.75202    0.56624    1.000
    C543     C        0.47560    0.88010    0.96820    1.000
    C544     C        0.71151    0.58831    0.11157    1.000
    C545     C        0.22424    0.60044    0.34868    1.000
    C546     C        0.94290    0.38860    0.20130    1.000
    C547     C        0.67336    0.89956    0.15132    1.000
    C548     C        0.70957    0.87497    0.68999    1.000
    C549     C        0.69168    0.50518    0.05616    1.000
    C550     C        0.50389    0.44779    0.85933    1.000
    C551     C        0.71779    0.67189    0.69953    1.000
    C552     C        0.31581    0.24641    0.88927    1.000
    C553     C        0.92546    0.22786    0.57752    1.000
    C554     C        0.99311    0.66691    0.40637    1.000
    C555     C        0.82449    0.50879    0.53453    1.000
    C556     C        0.96651    0.73181    0.36167    1.000
    C557     C        0.43254    0.65064    0.04068    1.000
    C558     C        0.01980    0.77520    0.85870    1.000
    C559     C        0.06413    0.10363    0.27431    1.000
    C560     C        0.75202    0.74302    0.56624    1.000
    C561     C        0.05999    0.03349    0.63833    1.000
    C562     C        0.77576    0.39956    0.65132    1.000
    C563     C        0.55397    0.57457    0.11409    1.000
    C564     C        0.52141    0.03451    0.84487    1.000
    C565     C        0.52440    0.11990    0.03180    1.000
    C566     C        0.44290    0.96720    0.70130    1.000
    C567     C        0.58030    0.95630    0.32390    1.000
    C568     C        0.64099    0.67579    0.92023    1.000
    C569     C        0.80832    0.75302    0.44384    1.000
    C570     C        0.74319    0.32819    0.86743    1.000
    C571     C        0.17336    0.77576    0.65132    1.000
    C572     C        0.88699    0.72529    0.59783    1.000
    C573     C        0.53622    0.05142    0.32084    1.000
    C574     C        0.75702    0.75582    0.09504    1.000
    C575     C        0.05397    0.25737    0.61409    1.000
    C576     C        0.94779    0.00389    0.35933    1.000
    C577     C        0.07580    0.21380    0.47750    1.000
    C578     C        0.93587    0.89637    0.72569    1.000
    C579     C        0.22547    0.37497    0.18999    1.000
    C580     C        0.45149    0.68419    0.11073    1.000
    C581     C        0.32043    0.56013    0.04251    1.000
    C582     C        0.65676    0.94546    0.38132    1.000
    C583     C        0.97859    0.90079    0.65513    1.000
    C584     C        0.21380    0.23290    0.47750    1.000
    C585     C        0.13902    0.73422    0.68564    1.000
    C586     C        0.71478    0.76848    0.11136    1.000
    C587     C        0.43872    0.24302    0.06624    1.000
    C588     C        0.41079    0.17189    0.19953    1.000
    C589     C        0.16691    0.49311    0.90637    1.000
    C590     C        0.38699    0.28989    0.09783    1.000
    C591     C        0.58873    0.72413    0.95161    1.000
    C592     C        0.99522    0.31712    0.05994    1.000
    C593     C        0.18160    0.61800    0.17730    1.000
    C594     C        0.22786    0.26916    0.57752    1.000
    C595     C        0.26578    0.55888    0.31436    1.000
    C596     C        0.17501    0.44681    0.47597    1.000
    C597     C        0.20957    0.22547    0.18999    1.000
    C598     C        0.44001    0.23181    0.86167    1.000
    C599     C        0.17035    0.54745    0.95455    1.000
    C600     C        0.67579    0.76299    0.92023    1.000
    C601     C        0.31101    0.05221    0.64067    1.000
    C602     C        0.74418    0.74298    0.40496    1.000
    C603     C        0.51431    0.91841    0.20037    1.000
    C604     C        0.73617    0.33997    0.82399    1.000
    C605     C        0.28614    0.51894    0.33278    1.000
    C606     C        0.13309    0.58159    0.29963    1.000
    C607     C        0.87497    0.72547    0.68999    1.000
    C608     C        0.54269    0.38669    0.97123    1.000
    C609     C        0.76242    0.02962    0.42374    1.000
    C610     C        0.59152    0.55142    0.82084    1.000
    C611     C        0.73084    0.07454    0.42248    1.000
    C612     C        0.21014    0.45784    0.90868    1.000
    C613     C        0.82965    0.45255    0.04545    1.000
    C614     C        0.80562    0.50052    0.03774    1.000
    C615     C        0.91127    0.76447    0.54839    1.000
    C616     C        0.48354    0.55454    0.11868    1.000
    C617     C        0.33997    0.09987    0.82399    1.000
    C618     C        0.17181    0.75681    0.63257    1.000
    C619     C        0.42307    0.93987    0.45749    1.000
    C620     C        0.33108    0.11818    0.52616    1.000
    C621     C        0.98522    0.22702    0.59294    1.000
    C622     C        0.95172    0.67582    0.69764    1.000
    C623     C        0.62696    0.68496    0.94552    1.000
    C624     C        0.96549    0.40079    0.15513    1.000
    C625     C        0.30832    0.49482    0.94384    1.000
    C626     C        0.42261    0.25161    0.09177    1.000
    C627     C        0.89985    0.92595    0.47975    1.000
    C628     C        0.99546    0.62226    0.47912    1.000
    C629     C        0.18774    0.43744    0.43118    1.000
    C630     C        0.09987    0.73617    0.82399    1.000
    C631     C        0.58831    0.58861    0.11157    1.000
    C632     C        0.74479    0.84819    0.82303    1.000
    C633     C        0.41127    0.27587    0.04839    1.000
    C634     C        0.56413    0.05793    0.77431    1.000
    C635     C        0.19438    0.49948    0.96226    1.000
    C636     C        0.66003    0.90013    0.17601    1.000
    C637     C        0.90013    0.26383    0.17601    1.000
    C638     C        0.30562    0.15612    0.53774    1.000
    C639     C        0.46549    0.97859    0.65513    1.000
    C640     C        0.94546    0.01646    0.38132    1.000
    C641     C        0.80555    0.57405    0.02025    1.000
    C642     C        0.76447    0.77587    0.54839    1.000
    C643     C        0.23084    0.27214    0.92248    1.000
    C644     C        0.63219    0.00879    0.03453    1.000
    C645     C        0.84936    0.06746    0.45932    1.000
    C646     C        0.32819    0.06119    0.86743    1.000
    C647     C        0.76710    0.92420    0.52250    1.000
    C648     C        0.02310    0.18160    0.17730    1.000
    C649     C        0.80624    0.62204    0.82138    1.000
    C650     C        0.59939    0.88669    0.47123    1.000
    C651     C        0.94112    0.23422    0.18564    1.000
    C652     C        0.08831    0.21151    0.61157    1.000
    C653     C        0.50478    0.87228    0.44006    1.000
    C654     C        0.88200    0.31840    0.32270    1.000
    C655     C        0.73152    0.78522    0.38864    1.000
    C656     C        0.60044    0.82664    0.34868    1.000
    C657     C        0.73758    0.71578    0.07626    1.000
    C658     C        0.94364    0.18774    0.43118    1.000
    C659     C        0.00879    0.32449    0.03453    1.000
    C660     C        0.04745    0.67035    0.45455    1.000
    C661     C        0.26599    0.24839    0.40823    1.000
    C662     C        0.68419    0.75359    0.11073    1.000
    C663     C        0.32418    0.32518    0.30236    1.000
    C664     C        0.32811    0.08921    0.30047    1.000
    C665     C        0.37796    0.24966    0.17862    1.000
    C666     C        0.49948    0.34388    0.96226    1.000
    C667     C        0.78409    0.85749    0.81283    1.000
    C668     C        0.26916    0.92546    0.57752    1.000
    C669     C        0.21011    0.11301    0.40217    1.000
    C670     C        0.73181    0.94001    0.36167    1.000
    C671     C        0.86781    0.17551    0.46547    1.000
    C672     C        0.59684    0.87774    0.02088    1.000
    N1       N        0.71908    0.66248    0.86146    1.000
    N2       N        0.81135    0.15285    0.40505    1.000
    N3       N        0.36157    0.12027    0.63419    1.000
    N4       N        0.24302    0.28092    0.13854    1.000
    N5       N        0.13075    0.65285    0.90505    1.000
    N6       N        0.16248    0.21908    0.36146    1.000
    N7       N        0.31135    0.13075    0.90505    1.000
    N8       N        0.75698    0.71908    0.86146    1.000
    N9       N        0.87973    0.11603    0.36581    1.000
    N10      N        0.21908    0.25698    0.36146    1.000
    N11      N        0.91923    0.39103    0.08811    1.000
    N12      N        0.74302    0.83752    0.63854    1.000
    N13      N        0.36925    0.18865    0.59495    1.000
    N14      N        0.39103    0.60163    0.08811    1.000
    N15      N        0.63843    0.87973    0.36581    1.000
    N16      N        0.15285    0.63075    0.40505    1.000
    N17      N        0.68865    0.86925    0.09495    1.000
    N18      N        0.86157    0.38397    0.13419    1.000
    N19      N        0.86925    0.34715    0.09495    1.000
    N20      N        0.12027    0.88397    0.63419    1.000
    N21      N        0.38397    0.62027    0.13419    1.000
    N22      N        0.78092    0.74302    0.63854    1.000
    N23      N        0.39837    0.08077    0.91189    1.000
    N24      N        0.60897    0.39837    0.91189    1.000
    N25      N        0.10163    0.89103    0.58811    1.000
    N26      N        0.89103    0.41923    0.58811    1.000
    N27      N        0.34715    0.68865    0.09495    1.000
    N28      N        0.61603    0.37973    0.86581    1.000
    N29      N        0.84715    0.36925    0.59495    1.000
    N30      N        0.88397    0.36157    0.63419    1.000
    N31      N        0.62027    0.86157    0.13419    1.000
    N32      N        0.28092    0.33752    0.13854    1.000
    N33      N        0.58077    0.89837    0.41189    1.000
    N34      N        0.11603    0.63843    0.36581    1.000
    N35      N        0.41923    0.10163    0.58811    1.000
    N36      N        0.13843    0.61603    0.86581    1.000
    N37      N        0.65285    0.31135    0.90505    1.000
    N38      N        0.08077    0.60897    0.91189    1.000
    N39      N        0.10897    0.58077    0.41189    1.000
    N40      N        0.83752    0.78092    0.63854    1.000
    N41      N        0.37973    0.13843    0.86581    1.000
    N42      N        0.60163    0.91923    0.08811    1.000
    N43      N        0.89837    0.10897    0.41189    1.000
    N44      N        0.18865    0.84715    0.59495    1.000
    N45      N        0.25698    0.16248    0.36146    1.000
    N46      N        0.66248    0.75698    0.86146    1.000
    N47      N        0.33752    0.24302    0.13854    1.000
    N48      N        0.63075    0.81135    0.40505    1.000
    O1       O        0.22896    0.29256    0.01512    1.000
    O2       O        0.75885    0.59645    0.02685    1.000
    O3       O        0.94452    0.37182    0.13014    1.000
    O4       O        0.15303    0.15303    0.54091    1.000
    O5       O        0.65535    0.56285    0.66065    1.000
    O6       O        0.79622    0.51222    0.78184    1.000
    O7       O        0.46336    0.22896    0.01512    1.000
    O8       O        0.30139    0.39799    0.91213    1.000
    O9       O        0.52104    0.09374    0.70358    1.000
    O10      O        0.43619    0.17289    0.99253    1.000
    O11      O        0.05309    0.61339    0.37943    1.000
    O12      O        0.29622    0.40972    0.28184    1.000
    O13      O        0.95346    0.87326    0.74882    1.000
    O14      O        0.37326    0.45346    0.24882    1.000
    O15      O        0.38477    0.66717    0.04869    1.000
    O16      O        0.99522    0.17392    0.54134    1.000
    O17      O        0.70402    0.79662    0.37064    1.000
    O18      O        0.69355    0.85785    0.14265    1.000
    O19      O        0.72896    0.96336    0.51512    1.000
    O20      O        0.55309    0.45409    0.87943    1.000
    O21      O        0.87182    0.44452    0.63014    1.000
    O22      O        0.34465    0.43715    0.33935    1.000
    O23      O        0.58070    0.67710    0.13020    1.000
    O24      O        0.00478    0.82608    0.45866    1.000
    O25      O        0.38800    0.41930    0.86980    1.000
    O26      O        0.05352    0.87182    0.63014    1.000
    O27      O        0.20101    0.12671    0.37697    1.000
    O28      O        0.06381    0.10161    0.50747    1.000
    O29      O        0.56285    0.12115    0.66065    1.000
    O30      O        0.87329    0.70469    0.62303    1.000
    O31      O        0.80139    0.88849    0.41213    1.000
    O32      O        0.38849    0.30139    0.91213    1.000
    O33      O        0.34078    0.04798    0.92836    1.000
    O34      O        0.90626    0.31836    0.29642    1.000
    O35      O        0.62818    0.44648    0.86986    1.000
    O36      O        0.88849    0.89799    0.41213    1.000
    O37      O        0.63077    0.03327    0.70349    1.000
    O38      O        0.32711    0.06381    0.50747    1.000
    O39      O        0.63117    0.03407    0.50459    1.000
    O40      O        0.20610    0.10500    0.49460    1.000
    O41      O        0.82711    0.60161    0.00747    1.000
    O42      O        0.04591    0.94691    0.62057    1.000
    O43      O        0.32256    0.48246    0.04602    1.000
    O44      O        0.03327    0.63247    0.70349    1.000
    O45      O        0.01222    0.29622    0.28184    1.000
    O46      O        0.88800    0.82290    0.36980    1.000
    O47      O        0.74115    0.88215    0.47315    1.000
    O48      O        0.64896    0.98246    0.54602    1.000
    O49      O        0.18288    0.54798    0.42836    1.000
    O50      O        0.79256    0.72896    0.51512    1.000
    O51      O        0.12671    0.29531    0.37697    1.000
    O52      O        0.17744    0.35104    0.45398    1.000
    O53      O        0.17392    0.28952    0.54134    1.000
    O54      O        0.63247    0.63077    0.70349    1.000
    O55      O        0.59645    0.61785    0.02685    1.000
    O56      O        0.68269    0.55039    0.05193    1.000
    O57      O        0.78952    0.67392    0.04134    1.000
    O58      O        0.50478    0.21048    0.95866    1.000
    O59      O        0.35785    0.19355    0.64265    1.000
    O60      O        0.70610    0.69430    0.99460    1.000
    O61      O        0.12115    0.65535    0.66065    1.000
    O62      O        0.11339    0.55309    0.87943    1.000
    O63      O        0.67744    0.51754    0.95398    1.000
    O64      O        0.98778    0.70378    0.71816    1.000
    O65      O        0.60500    0.70610    0.99460    1.000
    O66      O        0.70432    0.78682    0.66884    1.000
    O67      O        0.10500    0.19430    0.49460    1.000
    O68      O        0.62674    0.54654    0.75118    1.000
    O69      O        0.59028    0.98778    0.71816    1.000
    O70      O        0.79531    0.62671    0.87697    1.000
    O71      O        0.54113    0.11143    0.27371    1.000
    O72      O        0.15535    0.62115    0.16065    1.000
    O73      O        0.08070    0.11200    0.63020    1.000
    O74      O        0.16983    0.36883    0.49541    1.000
    O75      O        0.24115    0.40355    0.97315    1.000
    O76      O        0.78501    0.94961    0.44807    1.000
    O77      O        0.13247    0.53327    0.20349    1.000
    O78      O        0.12872    0.70402    0.37064    1.000
    O79      O        0.89500    0.80570    0.50540    1.000
    O80      O        0.32608    0.50478    0.95866    1.000
    O81      O        0.30570    0.39500    0.00540    1.000
    O82      O        0.36923    0.96673    0.29651    1.000
    O83      O        0.25885    0.11785    0.52685    1.000
    O84      O        0.62872    0.29662    0.87064    1.000
    O85      O        0.96336    0.79256    0.51512    1.000
    O86      O        0.80570    0.79390    0.50540    1.000
    O87      O        0.09028    0.20378    0.21816    1.000
    O88      O        0.85104    0.67744    0.95398    1.000
    O89      O        0.13077    0.13247    0.20349    1.000
    O90      O        0.13117    0.33017    0.00459    1.000
    O91      O        0.37885    0.93715    0.83935    1.000
    O92      O        0.14896    0.32256    0.04602    1.000
    O93      O        0.55039    0.71499    0.05193    1.000
    O94      O        0.53327    0.13077    0.20349    1.000
    O95      O        0.68164    0.52104    0.70358    1.000
    O96      O        0.69861    0.60201    0.08787    1.000
    O97      O        0.07554    0.62674    0.75118    1.000
    O98      O        0.71048    0.00478    0.45866    1.000
    O99      O        0.54798    0.84078    0.42836    1.000
    O100     O        0.42627    0.38857    0.22629    1.000
    O101     O        0.28682    0.20432    0.16884    1.000
    O102     O        0.89937    0.38477    0.04869    1.000
    O103     O        0.90355    0.74115    0.47315    1.000
    O104     O        0.94961    0.81731    0.44807    1.000
    O105     O        0.67710    0.61200    0.13020    1.000
    O106     O        0.64215    0.80645    0.35735    1.000
    O107     O        0.82608    0.71048    0.45866    1.000
    O108     O        0.04113    0.57373    0.77371    1.000
    O109     O        0.03664    0.20744    0.48488    1.000
    O110     O        0.20338    0.87128    0.62936    1.000
    O111     O        0.44691    0.54591    0.12057    1.000
    O112     O        0.87885    0.34465    0.33935    1.000
    O113     O        0.27104    0.03664    0.48488    1.000
    O114     O        0.21048    0.32608    0.95866    1.000
    O115     O        0.69405    0.30645    0.85735    1.000
    O116     O        0.29598    0.20338    0.62936    1.000
    O117     O        0.04654    0.12674    0.25118    1.000
    O118     O        0.18164    0.59374    0.20358    1.000
    O119     O        0.39500    0.29390    0.00540    1.000
    O120     O        0.40355    0.38215    0.97315    1.000
    O121     O        0.57554    0.04654    0.25118    1.000
    O122     O        0.45346    0.92446    0.24882    1.000
    O123     O        0.86923    0.86753    0.79651    1.000
    O124     O        0.61143    0.04113    0.77371    1.000
    O125     O        0.30595    0.69355    0.14265    1.000
    O126     O        0.20432    0.34002    0.16884    1.000
    O127     O        0.14215    0.69405    0.85735    1.000
    O128     O        0.29568    0.21318    0.33116    1.000
    O129     O        0.79899    0.87329    0.62303    1.000
    O130     O        0.39799    0.38849    0.91213    1.000
    O131     O        0.20378    0.48778    0.21816    1.000
    O132     O        0.97896    0.81836    0.79642    1.000
    O133     O        0.69430    0.60500    0.99460    1.000
    O134     O        0.40626    0.97896    0.79642    1.000
    O135     O        0.79598    0.37128    0.12936    1.000
    O136     O        0.82290    0.91930    0.36980    1.000
    O137     O        0.84002    0.70432    0.66884    1.000
    O138     O        0.45409    0.11339    0.87943    1.000
    O139     O        0.38215    0.24115    0.97315    1.000
    O140     O        0.84465    0.37885    0.83935    1.000
    O141     O        0.98246    0.82256    0.54602    1.000
    O142     O        0.29256    0.46336    0.01512    1.000
    O143     O        0.31712    0.65922    0.07164    1.000
    O144     O        0.91930    0.88800    0.36980    1.000
    O145     O        0.10201    0.19861    0.58787    1.000
    O146     O        0.33283    0.10063    0.95131    1.000
    O147     O        0.36883    0.96593    0.49541    1.000
    O148     O        0.78682    0.84002    0.66884    1.000
    O149     O        0.44648    0.05548    0.86986    1.000
    O150     O        0.05039    0.18269    0.55193    1.000
    O151     O        0.37128    0.70338    0.12936    1.000
    O152     O        0.44452    0.05352    0.63014    1.000
    O153     O        0.47896    0.90626    0.29642    1.000
    O154     O        0.70101    0.79531    0.87697    1.000
    O155     O        0.51222    0.90972    0.78184    1.000
    O156     O        0.10063    0.61523    0.95131    1.000
    O157     O        0.53407    0.13117    0.00459    1.000
    O158     O        0.36753    0.36923    0.29651    1.000
    O159     O        0.81836    0.40626    0.79642    1.000
    O160     O        0.95202    0.31712    0.07164    1.000
    O161     O        0.39839    0.43619    0.99253    1.000
    O162     O        0.70338    0.79598    0.12936    1.000
    O163     O        0.41930    0.32290    0.86980    1.000
    O164     O        0.34002    0.28682    0.16884    1.000
    O165     O        0.09374    0.68164    0.70358    1.000
    O166     O        0.56381    0.82711    0.00747    1.000
    O167     O        0.03407    0.83017    0.50459    1.000
    O168     O        0.61339    0.95409    0.37943    1.000
    O169     O        0.12674    0.57554    0.25118    1.000
    O170     O        0.19861    0.11151    0.58787    1.000
    O171     O        0.18269    0.21499    0.55193    1.000
    O172     O        0.04798    0.68288    0.92836    1.000
    O173     O        0.68288    0.34078    0.92836    1.000
    O174     O        0.71499    0.68269    0.05193    1.000
    O175     O        0.31836    0.47896    0.29642    1.000
    O176     O        0.48246    0.14896    0.04602    1.000
    O177     O        0.11523    0.60063    0.45131    1.000
    O178     O        0.66983    0.46593    0.99541    1.000
    O179     O        0.55352    0.94452    0.13014    1.000
    O180     O        0.95409    0.05309    0.37943    1.000
    O181     O        0.28952    0.99522    0.54134    1.000
    O182     O        0.61151    0.69861    0.08787    1.000
    O183     O        0.35104    0.01754    0.45398    1.000
    O184     O        0.01754    0.17744    0.45398    1.000
    O185     O        0.81731    0.78501    0.44807    1.000
    O186     O        0.29531    0.20101    0.37697    1.000
    O187     O        0.37182    0.55352    0.13014    1.000
    O188     O        0.60063    0.83283    0.45131    1.000
    O189     O        0.88857    0.92627    0.72629    1.000
    O190     O        0.31731    0.44961    0.94807    1.000
    O191     O        0.54591    0.88661    0.12057    1.000
    O192     O        0.61200    0.58070    0.13020    1.000
    O193     O        0.33017    0.53407    0.00459    1.000
    O194     O        0.96673    0.36753    0.29651    1.000
    O195     O        0.10161    0.32711    0.50747    1.000
    O196     O        0.45887    0.88857    0.72629    1.000
    O197     O        0.30645    0.14215    0.85735    1.000
    O198     O        0.57373    0.61143    0.77371    1.000
    O199     O        0.65998    0.71318    0.83116    1.000
    O200     O        0.15922    0.81712    0.57164    1.000
    O201     O        0.17289    0.39839    0.99253    1.000
    O202     O        0.53664    0.77104    0.98488    1.000
    O203     O        0.62671    0.70101    0.87697    1.000
    O204     O        0.95887    0.42627    0.22629    1.000
    O205     O        0.60161    0.56381    0.00747    1.000
    O206     O        0.51754    0.85104    0.95398    1.000
    O207     O        0.21499    0.05039    0.55193    1.000
    O208     O        0.11200    0.17710    0.63020    1.000
    O209     O        0.81712    0.45202    0.57164    1.000
    O210     O        0.84078    0.18288    0.42836    1.000
    O211     O        0.86753    0.46673    0.79651    1.000
    O212     O        0.19355    0.80595    0.64265    1.000
    O213     O        0.89839    0.67289    0.49253    1.000
    O214     O        0.20402    0.62872    0.87064    1.000
    O215     O        0.38661    0.04591    0.62057    1.000
    O216     O        0.67289    0.93619    0.49253    1.000
    O217     O        0.84697    0.84697    0.45909    1.000
    O218     O        0.66717    0.89937    0.04869    1.000
    O219     O        0.38857    0.95887    0.22629    1.000
    O220     O        0.83283    0.11523    0.45131    1.000
    O221     O        0.87128    0.29598    0.62936    1.000
    O222     O        0.79662    0.12872    0.37064    1.000
    O223     O        0.62115    0.06285    0.16065    1.000
    O224     O        0.89799    0.80139    0.41213    1.000
    O225     O        0.94648    0.12818    0.36986    1.000
    O226     O        0.61523    0.33283    0.95131    1.000
    O227     O        0.02104    0.18164    0.20358    1.000
    O228     O        0.45202    0.15922    0.57164    1.000
    O229     O        0.92627    0.45887    0.72629    1.000
    O230     O        0.88215    0.90355    0.47315    1.000
    O231     O        0.29390    0.30570    0.00540    1.000
    O232     O        0.65922    0.95202    0.07164    1.000
    O233     O        0.59374    0.02104    0.20358    1.000
    O234     O        0.86883    0.66983    0.99541    1.000
    O235     O        0.93619    0.89839    0.49253    1.000
    O236     O        0.43715    0.87885    0.33935    1.000
    O237     O        0.61785    0.75885    0.02685    1.000
    O238     O        0.42446    0.95346    0.74882    1.000
    O239     O        0.87326    0.42446    0.74882    1.000
    O240     O        0.29899    0.20469    0.12303    1.000
    O241     O        0.79390    0.89500    0.50540    1.000
    O242     O        0.71318    0.79568    0.83116    1.000
    O243     O        0.12818    0.55548    0.36986    1.000
    O244     O        0.11151    0.10201    0.58787    1.000
    O245     O        0.55548    0.94648    0.36986    1.000
    O246     O        0.11785    0.09645    0.52685    1.000
    O247     O        0.83017    0.63117    0.50459    1.000
    O248     O        0.32290    0.38800    0.86980    1.000
    O249     O        0.70378    0.59028    0.71816    1.000
    O250     O        0.46673    0.86923    0.79651    1.000
    O251     O        0.49522    0.78952    0.04134    1.000
    O252     O        0.11143    0.07373    0.27371    1.000
    O253     O        0.93715    0.84465    0.83935    1.000
    O254     O        0.19430    0.20610    0.49460    1.000
    O255     O        0.65303    0.65303    0.04091    1.000
    O256     O        0.28501    0.31731    0.94807    1.000
    O257     O        0.40972    0.01222    0.28184    1.000
    O258     O        0.39937    0.16717    0.54869    1.000
    O259     O        0.07373    0.54113    0.27371    1.000
    O260     O        0.44961    0.28501    0.94807    1.000
    O261     O        0.20469    0.37329    0.12303    1.000
    O262     O        0.77104    0.70744    0.98488    1.000
    O263     O        0.92446    0.37326    0.24882    1.000
    O264     O        0.06285    0.15535    0.16065    1.000
    O265     O        0.34697    0.34697    0.95909    1.000
    O266     O        0.60201    0.61151    0.08787    1.000
    O267     O        0.48778    0.09028    0.21816    1.000
    O268     O        0.79568    0.65998    0.83116    1.000
    O269     O        0.70744    0.53664    0.98488    1.000
    O270     O        0.54654    0.07554    0.75118    1.000
    O271     O        0.21318    0.15998    0.33116    1.000
    O272     O        0.05548    0.62818    0.86986    1.000
    O273     O        0.29662    0.20402    0.87064    1.000
    O274     O        0.16717    0.88477    0.54869    1.000
    O275     O        0.80645    0.19405    0.35735    1.000
    O276     O        0.88477    0.39937    0.54869    1.000
    O277     O        0.37329    0.29899    0.12303    1.000
    O278     O        0.19405    0.64215    0.35735    1.000
    O279     O        0.80595    0.35785    0.64265    1.000
    O280     O        0.70469    0.79899    0.62303    1.000
    O281     O        0.90972    0.79622    0.78184    1.000
    O282     O        0.82256    0.64896    0.54602    1.000
    O283     O        0.15998    0.29568    0.33116    1.000
    O284     O        0.09645    0.25885    0.52685    1.000
    O285     O        0.20744    0.27104    0.48488    1.000
    O286     O        0.67392    0.49522    0.04134    1.000
    O287     O        0.85785    0.30595    0.14265    1.000
    O288     O        0.17710    0.08070    0.63020    1.000
    O289     O        0.88661    0.44691    0.12057    1.000
    O290     O        0.96593    0.16983    0.49541    1.000
    O291     O        0.94691    0.38661    0.62057    1.000
    O292     O        0.46593    0.86883    0.99541    1.000
