data_functionalizedCrystal
_audit_creation_method	'EQeq! by Chris Wilmer'
_symmetry_space_group_name_H-M	'P1'
_symmetry_Int_Tables_number	1
_symmetry_cell_setting	triclinic
loop_
_symmetry_equiv_pos_as_xyz
  x,y,z
_cell_length_a	14.7138
_cell_length_b	14.7138
_cell_length_c	14.7138
_cell_angle_alpha	109.471
_cell_angle_beta	109.471
_cell_angle_gamma	109.471
loop_
_atom_site_label
_atom_site_type_symbol
_atom_site_fract_x
_atom_site_fract_y
_atom_site_fract_z
_atom_site_charge
Mof_Zn	Zn	0.25	0.75	0.5	1.175
Mof_Zn	Zn	0.75	0.25	0.5	1.175
Mof_Zn	Zn	0.5	0.75	0.25	1.175
Mof_Zn	Zn	0.5	0.25	0.75	1.175
Mof_Zn	Zn	0.75	0.5	0.25	1.175
Mof_Zn	Zn	0.25	0.5	0.75	1.175
Mof_H 	H 	0.4224	0.6564	0.5366	-0.007
Mof_H 	H 	0.3104	0.7941	0.2443	0.128
Mof_H 	H 	0.1198	0.8858	0.4634	-0.002
Mof_H 	H 	0.5498	0.0661	0.7557	0.121
Mof_H 	H 	0.8802	0.3436	0.766	-0.011
Mof_H 	H 	0.4502	0.2059	0.5163	0.132
Mof_H 	H 	0.5776	0.1142	0.234	-0.007
Mof_H 	H 	0.6896	0.9339	0.4837	0.111
Mof_H 	H 	0.766	0.8802	0.3436	-0.011
Mof_H 	H 	0.5163	0.4502	0.2059	0.132
Mof_H 	H 	0.234	0.5776	0.1142	-0.007
Mof_H 	H 	0.4837	0.6896	0.9339	0.111
Mof_H 	H 	0.5366	0.4224	0.6564	-0.007
Mof_H 	H 	0.2443	0.3104	0.7941	0.128
Mof_H 	H 	0.4634	0.1198	0.8858	-0.002
Mof_H 	H 	0.7557	0.5498	0.0661	0.121
Mof_H 	H 	0.8858	0.4634	0.1198	-0.002
Mof_H 	H 	0.0661	0.7557	0.5498	0.121
Mof_H 	H 	0.6564	0.5366	0.4224	-0.007
Mof_H 	H 	0.7941	0.2443	0.3104	0.128
Mof_H 	H 	0.1142	0.234	0.5776	-0.007
Mof_H 	H 	0.9339	0.4837	0.6896	0.111
Mof_H 	H 	0.3436	0.766	0.8802	-0.011
Mof_H 	H 	0.2059	0.5163	0.4502	0.132
Mof_H 	H 	0.8858	0.1198	0.4634	-0.002
Mof_H 	H 	0.0661	0.5498	0.7557	0.121
Mof_H 	H 	0.6564	0.4224	0.5366	-0.007
Mof_H 	H 	0.7941	0.3104	0.2443	0.128
Mof_H 	H 	0.1142	0.5776	0.234	-0.007
Mof_H 	H 	0.9339	0.6896	0.4837	0.111
Mof_H 	H 	0.3436	0.8802	0.766	-0.011
Mof_H 	H 	0.2059	0.4502	0.5163	0.132
Mof_H 	H 	0.4224	0.5366	0.6564	-0.007
Mof_H 	H 	0.3104	0.2443	0.7941	0.128
Mof_H 	H 	0.1198	0.4634	0.8858	-0.002
Mof_H 	H 	0.5498	0.7557	0.0661	0.121
Mof_H 	H 	0.8802	0.766	0.3436	-0.011
Mof_H 	H 	0.4502	0.5163	0.2059	0.132
Mof_H 	H 	0.5776	0.234	0.1142	-0.007
Mof_H 	H 	0.6896	0.4837	0.9339	0.111
Mof_H 	H 	0.766	0.3436	0.8802	-0.011
Mof_H 	H 	0.5163	0.2059	0.4502	0.132
Mof_H 	H 	0.234	0.1142	0.5776	-0.007
Mof_H 	H 	0.4837	0.9339	0.6896	0.111
Mof_H 	H 	0.5366	0.6564	0.4224	-0.007
Mof_H 	H 	0.2443	0.7941	0.3104	0.128
Mof_H 	H 	0.4634	0.8858	0.1198	-0.002
Mof_H 	H 	0.7557	0.0661	0.5498	0.121
Mof_H 	H 	0.3701	0.8818	0.3701	0.149
Mof_H 	H 	0.5117	-4.63611e-17	0.6299	0.147
Mof_H 	H 	0.4883	0.1182	0.4883	0.158
Mof_H 	H 	0.6299	0	0.5117	0.147
Mof_H 	H 	0.4883	0.4883	0.1182	0.158
Mof_H 	H 	0.5117	0.6299	-0	0.147
Mof_H 	H 	0.3701	0.3701	0.8818	0.149
Mof_H 	H 	0.6299	0.5117	-0	0.147
Mof_H 	H 	-1.15903e-17	0.6299	0.5117	0.147
Mof_H 	H 	0.8818	0.3701	0.3701	0.149
Mof_H 	H 	-4.63611e-17	0.5117	0.6299	0.147
Mof_H 	H 	0.1182	0.4883	0.4883	0.158
Mof_C 	C 	0.41456	0.68356	0.4728	-0.01
Mof_C 	C 	0.21076	0.94176	0.5272	-0.025
Mof_C 	C 	0.78924	0.31644	0.731	-0.01
Mof_C 	C 	0.58544	0.05824	0.269	0.008
Mof_C 	C 	0.731	0.78924	0.31644	-0.01
Mof_C 	C 	0.269	0.58544	0.05824	0.008
Mof_C 	C 	0.4728	0.41456	0.68356	-0.01
Mof_C 	C 	0.5272	0.21076	0.94176	-0.025
Mof_C 	C 	0.94176	0.5272	0.21076	-0.025
Mof_C 	C 	0.68356	0.4728	0.41456	-0.01
Mof_C 	C 	0.05824	0.269	0.58544	0.008
Mof_C 	C 	0.31644	0.731	0.78924	-0.01
Mof_C 	C 	0.94176	0.21076	0.5272	-0.025
Mof_C 	C 	0.68356	0.41456	0.4728	-0.01
Mof_C 	C 	0.05824	0.58544	0.269	0.008
Mof_C 	C 	0.31644	0.78924	0.731	-0.01
Mof_C 	C 	0.41456	0.4728	0.68356	-0.01
Mof_C 	C 	0.21076	0.5272	0.94176	-0.025
Mof_C 	C 	0.78924	0.731	0.31644	-0.01
Mof_C 	C 	0.58544	0.269	0.05824	0.008
Mof_C 	C 	0.731	0.31644	0.78924	-0.01
Mof_C 	C 	0.269	0.05824	0.58544	0.008
Mof_C 	C 	0.4728	0.68356	0.41456	-0.01
Mof_C 	C 	0.5272	0.94176	0.21076	-0.025
Mof_C 	C 	0.373	0.7568	0.373	0.198
Mof_C 	C 	0.3195	0.8058	0.3195	-0.543
Mof_C 	C 	0.3838	-4.63611e-17	0.627	0.203
Mof_C 	C 	0.4863	-4.63611e-17	0.6805	-0.513
Mof_C 	C 	0.6162	0.2432	0.6162	0.203
Mof_C 	C 	0.5137	0.1942	0.5137	-0.553
Mof_C 	C 	0.627	-2.31806e-17	0.3838	0.203
Mof_C 	C 	0.6805	0	0.4863	-0.513
Mof_C 	C 	0.6162	0.6162	0.2432	0.203
Mof_C 	C 	0.5137	0.5137	0.1942	-0.553
Mof_C 	C 	0.3838	0.627	-0	0.203
Mof_C 	C 	0.4863	0.6805	-0	-0.513
Mof_C 	C 	0.373	0.373	0.7568	0.198
Mof_C 	C 	0.3195	0.3195	0.8058	-0.543
Mof_C 	C 	0.627	0.3838	-0	0.203
Mof_C 	C 	0.6805	0.4863	-0	-0.513
Mof_C 	C 	1.15903e-17	0.627	0.3838	0.203
Mof_C 	C 	2.31806e-17	0.6805	0.4863	-0.513
Mof_C 	C 	0.7568	0.373	0.373	0.198
Mof_C 	C 	0.8058	0.3195	0.3195	-0.543
Mof_C 	C 	-0	0.3838	0.627	0.203
Mof_C 	C 	-4.63611e-17	0.4863	0.6805	-0.513
Mof_C 	C 	0.2432	0.6162	0.6162	0.203
Mof_C 	C 	0.1942	0.5137	0.5137	-0.553
Mof_N 	N 	0.35145	0.72798	0.44533	-0.31
Mof_N 	N 	0.28265	0.90612	0.55467	-0.313
Mof_N 	N 	0.71735	0.27202	0.62347	-0.311
Mof_N 	N 	0.64855	0.09388	0.37653	-0.312
Mof_N 	N 	0.62347	0.71735	0.27202	-0.311
Mof_N 	N 	0.37653	0.64855	0.09388	-0.312
Mof_N 	N 	0.44533	0.35145	0.72798	-0.31
Mof_N 	N 	0.55467	0.28265	0.90612	-0.313
Mof_N 	N 	0.90612	0.55467	0.28265	-0.313
Mof_N 	N 	0.72798	0.44533	0.35145	-0.31
Mof_N 	N 	0.09388	0.37653	0.64855	-0.312
Mof_N 	N 	0.27202	0.62347	0.71735	-0.311
Mof_N 	N 	0.90612	0.28265	0.55467	-0.313
Mof_N 	N 	0.72798	0.35145	0.44533	-0.31
Mof_N 	N 	0.09388	0.64855	0.37653	-0.312
Mof_N 	N 	0.27202	0.71735	0.62347	-0.311
Mof_N 	N 	0.35145	0.44533	0.72798	-0.31
Mof_N 	N 	0.28265	0.55467	0.90612	-0.313
Mof_N 	N 	0.71735	0.62347	0.27202	-0.311
Mof_N 	N 	0.64855	0.37653	0.09388	-0.312
Mof_N 	N 	0.62347	0.27202	0.71735	-0.311
Mof_N 	N 	0.37653	0.09388	0.64855	-0.312
Mof_N 	N 	0.44533	0.72798	0.35145	-0.31
Mof_N 	N 	0.55467	0.90612	0.28265	-0.313
_end
