data_functionalizedCrystal
_audit_creation_method	'EQeq! by Chris Wilmer'
_symmetry_space_group_name_H-M	'P1'
_symmetry_Int_Tables_number	1
_symmetry_cell_setting	triclinic
loop_
_symmetry_equiv_pos_as_xyz
  x,y,z
_cell_length_a	14.0003
_cell_length_b	12.1692
_cell_length_c	14.6711
_cell_angle_alpha	90
_cell_angle_beta	105.867
_cell_angle_gamma	90
loop_
_atom_site_label
_atom_site_type_symbol
_atom_site_fract_x
_atom_site_fract_y
_atom_site_fract_z
_atom_site_charge
Mof_Zn	Zn	0.35037	0.5214	0.65771	1.228
Mof_Zn	Zn	0.19539	0.74271	0.57481	1.209
Mof_O 	O 	0.20978	0.56795	0.59683	-0.539
Mof_O 	O 	0.17537	0.41115	0.51503	-0.281
Mof_O 	O 	0.82363	0.71376	0.1749	-0.461
Mof_O 	O 	0.89639	0.86364	0.25475	-0.475
Mof_O 	O 	0.32892	0.40174	0.75069	-0.425
Mof_O 	O 	0.3914	0.24611	0.82697	-0.412
Mof_O 	O 	0.71226	0.26643	0.52288	-0.437
Mof_O 	O 	0.61254	0.4068	0.45719	-0.452
Mof_N 	N 	0.07964	0.67905	0.46227	-0.229
Mof_N 	N 	0.46331	0.4075	0.65702	-0.223
Mof_C 	C 	0.0804	0.5691	0.45302	-0.001
Mof_C 	C 	0.0147	0.5141	0.379	-0.074
Mof_H 	H 	0.0149	0.4362	0.3756	0.074
Mof_C 	C 	0.9485	0.5756	0.3101	0.052
Mof_H 	H 	0.9025	0.5401	0.2589	0.033
Mof_C 	C 	0.9502	0.6892	0.31682	-0.136
Mof_C 	C 	0.0164	0.7376	0.39546	0.098
Mof_H 	H 	0.0164	0.8153	0.4016	-0.009
Mof_C 	C 	0.1603	0.5083	0.5262	0.301
Mof_C 	C 	0.8835	0.761	0.2426	0.41
Mof_C 	C 	0.4622	0.3166	0.70909	-0.022
Mof_C 	C 	0.5232	0.2276	0.707	-0.058
Mof_H 	H 	0.5231	0.1654	0.746	0.062
Mof_C 	C 	0.5851	0.2306	0.6464	0.031
Mof_H 	H 	0.6268	0.1699	0.6432	0.033
Mof_C 	C 	0.5848	0.3231	0.5913	-0.125
Mof_C 	C 	0.5251	0.411	0.6018	0.081
Mof_H 	H 	0.5284	0.4769	0.568	0.019
Mof_C 	C 	0.388	0.3214	0.76761	0.318
Mof_C 	C 	0.6432	0.3319	0.5182	0.402
Mof_Zn	Zn	0.14963	0.0214	0.84229	1.227
Mof_Zn	Zn	0.30461	0.24271	0.92519	1.209
Mof_O 	O 	0.29022	0.06795	0.90317	-0.538
Mof_O 	O 	0.32463	0.91115	0.98497	-0.27
Mof_O 	O 	0.67637	0.21376	0.3251	-0.46
Mof_O 	O 	0.60361	0.36364	0.24525	-0.473
Mof_O 	O 	0.17108	0.90174	0.74931	-0.422
Mof_O 	O 	0.1086	0.74611	0.67303	-0.41
Mof_O 	O 	0.78774	0.76643	0.97712	-0.437
Mof_O 	O 	0.88746	0.9068	0.04281	-0.459
Mof_N 	N 	0.42036	0.17905	0.03773	-0.228
Mof_N 	N 	0.03669	0.9075	0.84298	-0.22
Mof_C 	C 	0.4196	0.0691	0.04698	0.005
Mof_C 	C 	0.4853	0.0141	0.121	-0.065
Mof_H 	H 	0.4851	0.9362	0.1244	0.068
Mof_C 	C 	0.5515	0.0756	0.1899	0.047
Mof_H 	H 	0.5975	0.0401	0.2411	0.036
Mof_C 	C 	0.5498	0.1892	0.18318	-0.13
Mof_C 	C 	0.4836	0.2376	0.10454	0.094
Mof_H 	H 	0.4836	0.3153	0.0984	-0.008
Mof_C 	C 	0.3397	0.0083	0.9738	0.284
Mof_C 	C 	0.6165	0.261	0.2574	0.409
Mof_C 	C 	0.0378	0.8166	0.79091	-0.017
Mof_C 	C 	0.9768	0.7276	0.793	-0.064
Mof_H 	H 	0.9769	0.6654	0.754	0.064
Mof_C 	C 	0.9149	0.7306	0.8536	0.034
Mof_H 	H 	0.8732	0.6699	0.8568	0.032
Mof_C 	C 	0.9152	0.8231	0.9087	-0.127
Mof_C 	C 	0.9749	0.911	0.8982	0.079
Mof_H 	H 	0.9716	0.9769	0.932	0.021
Mof_C 	C 	0.112	0.8214	0.73239	0.317
Mof_C 	C 	0.8568	0.8319	0.9818	0.409
Mof_Zn	Zn	0.64963	0.4786	0.34229	1.229
Mof_Zn	Zn	0.80461	0.25729	0.42519	1.21
Mof_O 	O 	0.79022	0.43205	0.40317	-0.539
Mof_O 	O 	0.82463	0.58885	0.48497	-0.281
Mof_O 	O 	0.17637	0.28624	0.8251	-0.461
Mof_O 	O 	0.10361	0.13636	0.74525	-0.475
Mof_O 	O 	0.67108	0.59826	0.24931	-0.425
Mof_O 	O 	0.6086	0.75389	0.17303	-0.412
Mof_O 	O 	0.28774	0.73357	0.47712	-0.437
Mof_O 	O 	0.38746	0.5932	0.54281	-0.452
Mof_N 	N 	0.92036	0.32095	0.53773	-0.229
Mof_N 	N 	0.53669	0.5925	0.34298	-0.223
Mof_C 	C 	0.9196	0.4309	0.54698	-0.001
Mof_C 	C 	0.9853	0.4859	0.621	-0.074
Mof_H 	H 	0.9851	0.5638	0.6244	0.074
Mof_C 	C 	0.0515	0.4244	0.6899	0.052
Mof_H 	H 	0.0975	0.4599	0.7411	0.033
Mof_C 	C 	0.0498	0.3108	0.68318	-0.136
Mof_C 	C 	0.9836	0.2624	0.60454	0.098
Mof_H 	H 	0.9836	0.1847	0.5984	-0.009
Mof_C 	C 	0.8397	0.4917	0.4738	0.301
Mof_C 	C 	0.1165	0.239	0.7574	0.41
Mof_C 	C 	0.5378	0.6834	0.29091	-0.022
Mof_C 	C 	0.4768	0.7724	0.293	-0.058
Mof_H 	H 	0.4769	0.8346	0.254	0.062
Mof_C 	C 	0.4149	0.7694	0.3536	0.031
Mof_H 	H 	0.3732	0.8301	0.3568	0.033
Mof_C 	C 	0.4152	0.6769	0.4087	-0.125
Mof_C 	C 	0.4749	0.589	0.3982	0.081
Mof_H 	H 	0.4716	0.5231	0.432	0.019
Mof_C 	C 	0.612	0.6786	0.23239	0.318
Mof_C 	C 	0.3568	0.6681	0.4818	0.402
Mof_Zn	Zn	0.85037	0.9786	0.15771	1.227
Mof_Zn	Zn	0.69539	0.75729	0.07481	1.209
Mof_O 	O 	0.70978	0.93205	0.09683	-0.538
Mof_O 	O 	0.67537	0.08885	0.01503	-0.27
Mof_O 	O 	0.32363	0.78624	0.6749	-0.46
Mof_O 	O 	0.39639	0.63636	0.75475	-0.473
Mof_O 	O 	0.82892	0.09826	0.25069	-0.422
Mof_O 	O 	0.8914	0.25389	0.32697	-0.41
Mof_O 	O 	0.21226	0.23357	0.02288	-0.437
Mof_O 	O 	0.11254	0.0932	0.95719	-0.459
Mof_N 	N 	0.57964	0.82095	0.96227	-0.228
Mof_N 	N 	0.96331	0.0925	0.15702	-0.22
Mof_C 	C 	0.5804	0.9309	0.95302	0.005
Mof_C 	C 	0.5147	0.9859	0.879	-0.065
Mof_H 	H 	0.5149	0.0638	0.8756	0.068
Mof_C 	C 	0.4485	0.9244	0.8101	0.047
Mof_H 	H 	0.4025	0.9599	0.7589	0.036
Mof_C 	C 	0.4502	0.8108	0.81682	-0.13
Mof_C 	C 	0.5164	0.7624	0.89546	0.094
Mof_H 	H 	0.5164	0.6847	0.9016	-0.008
Mof_C 	C 	0.6603	0.9917	0.0262	0.284
Mof_C 	C 	0.3835	0.739	0.7426	0.409
Mof_C 	C 	0.9622	0.1834	0.20909	-0.017
Mof_C 	C 	0.0232	0.2724	0.207	-0.064
Mof_H 	H 	0.0231	0.3346	0.246	0.064
Mof_C 	C 	0.0851	0.2694	0.1464	0.034
Mof_H 	H 	0.1268	0.3301	0.1432	0.032
Mof_C 	C 	0.0848	0.1769	0.0913	-0.127
Mof_C 	C 	0.0251	0.089	0.1018	0.079
Mof_H 	H 	0.0284	0.0231	0.068	0.021
Mof_C 	C 	0.888	0.1786	0.26761	0.317
Mof_C 	C 	0.1432	0.1681	0.0182	0.409
_end
