# CIF file generated by openbabel 3.1.0, see https://openbabel.org
data_I
_chemical_name_common 'image0'
_cell_length_a 22.1266
_cell_length_b 7.2566
_cell_length_c 13.8663
_cell_angle_alpha 90
_cell_angle_beta 90
_cell_angle_gamma 90
_space_group_name_H-M_alt 'P 1'
_space_group_name_Hall 'P 1'
loop_
    _symmetry_equiv_pos_as_xyz
    x,y,z
loop_
    _atom_site_label
    _atom_site_type_symbol
    _atom_site_fract_x
    _atom_site_fract_y
    _atom_site_fract_z
    _atom_site_occupancy
    N1       N        0.56389    0.34500    0.93550    1.000
    C1       C        0.61088    0.60050    0.11240    1.000
    H1       H        0.62160    0.47830    0.12310    1.000
    C2       C        0.69990    0.64610    0.28120    1.000
    C3       C        0.74470    0.64770    0.16460    1.000
    H2       H        0.66630    0.57010    0.29970    1.000
    H3       H        0.74180    0.58580    0.10350    1.000
    N2       N        0.06389    0.84500    0.43550    1.000
    C4       C        0.11088    0.10050    0.61240    1.000
    H4       H        0.12160    0.97830    0.62310    1.000
    C5       C        0.19990    0.14610    0.78120    1.000
    C6       C        0.24470    0.14770    0.66460    1.000
    H5       H        0.16630    0.07010    0.79970    1.000
    H6       H        0.24180    0.08580    0.60350    1.000
    N3       N        0.43611    0.15500    0.93550    1.000
    C7       C        0.38912    0.89950    0.11240    1.000
    H7       H        0.37840    0.02170    0.12310    1.000
    C8       C        0.30010    0.85390    0.28120    1.000
    C9       C        0.25530    0.85230    0.16460    1.000
    H8       H        0.33370    0.92990    0.29970    1.000
    H9       H        0.25820    0.91420    0.10350    1.000
    N4       N        0.93611    0.65500    0.43550    1.000
    C10      C        0.88912    0.39950    0.61240    1.000
    H10      H        0.87840    0.52170    0.62310    1.000
    C11      C        0.80010    0.35390    0.78120    1.000
    C12      C        0.75530    0.35230    0.66460    1.000
    H11      H        0.83370    0.42990    0.79970    1.000
    H12      H        0.75820    0.41420    0.60350    1.000
    N5       N        0.43611    0.84500    0.06450    1.000
    C13      C        0.38912    0.10050    0.88760    1.000
    H13      H        0.37840    0.97830    0.87690    1.000
    C14      C        0.30010    0.14610    0.71880    1.000
    C15      C        0.25530    0.14770    0.83540    1.000
    H14      H        0.33370    0.07010    0.70030    1.000
    H15      H        0.25820    0.08580    0.89650    1.000
    N6       N        0.93611    0.34500    0.56450    1.000
    C16      C        0.88912    0.60050    0.38760    1.000
    H16      H        0.87840    0.47830    0.37690    1.000
    C17      C        0.80010    0.64610    0.21880    1.000
    C18      C        0.75530    0.64770    0.33540    1.000
    H17      H        0.83370    0.57010    0.20030    1.000
    H18      H        0.75820    0.58580    0.39650    1.000
    N7       N        0.56389    0.65500    0.06450    1.000
    C19      C        0.61088    0.39950    0.88760    1.000
    H19      H        0.62160    0.52170    0.87690    1.000
    C20      C        0.69990    0.35390    0.71880    1.000
    C21      C        0.74470    0.35230    0.83540    1.000
    H20      H        0.66630    0.42990    0.70030    1.000
    H21      H        0.74180    0.41420    0.89650    1.000
    N8       N        0.06389    0.15500    0.56450    1.000
    C22      C        0.11088    0.89950    0.38760    1.000
    H22      H        0.12160    0.02170    0.37690    1.000
    C23      C        0.19990    0.85390    0.21880    1.000
    C24      C        0.24470    0.85230    0.33540    1.000
    H23      H        0.16630    0.92990    0.20030    1.000
    H24      H        0.24180    0.91420    0.39650    1.000
    N9       N        0.43611    0.65500    0.06450    1.000
    C25      C        0.38912    0.39950    0.88760    1.000
    H25      H        0.37840    0.52170    0.87690    1.000
    C26      C        0.30010    0.35390    0.71880    1.000
    C27      C        0.25530    0.35230    0.83540    1.000
    H26      H        0.33370    0.42990    0.70030    1.000
    H27      H        0.25820    0.41420    0.89650    1.000
    N10      N        0.93611    0.15500    0.56450    1.000
    C28      C        0.88912    0.89950    0.38760    1.000
    H28      H        0.87840    0.02170    0.37690    1.000
    C29      C        0.80010    0.85390    0.21880    1.000
    C30      C        0.75530    0.85230    0.33540    1.000
    H29      H        0.83370    0.92990    0.20030    1.000
    H30      H        0.75820    0.91420    0.39650    1.000
    N11      N        0.56389    0.84500    0.06450    1.000
    C31      C        0.61088    0.10050    0.88760    1.000
    H31      H        0.62160    0.97830    0.87690    1.000
    C32      C        0.69990    0.14610    0.71880    1.000
    C33      C        0.74470    0.14770    0.83540    1.000
    H32      H        0.66630    0.07010    0.70030    1.000
    H33      H        0.74180    0.08580    0.89650    1.000
    N12      N        0.06389    0.34500    0.56450    1.000
    C34      C        0.11088    0.60050    0.38760    1.000
    H34      H        0.12160    0.47830    0.37690    1.000
    C35      C        0.19990    0.64610    0.21880    1.000
    C36      C        0.24470    0.64770    0.33540    1.000
    H35      H        0.16630    0.57010    0.20030    1.000
    H36      H        0.24180    0.58580    0.39650    1.000
    N13      N        0.56389    0.15500    0.93550    1.000
    C37      C        0.61088    0.89950    0.11240    1.000
    H37      H        0.62160    0.02170    0.12310    1.000
    C38      C        0.69990    0.85390    0.28120    1.000
    C39      C        0.74470    0.85230    0.16460    1.000
    H38      H        0.66630    0.92990    0.29970    1.000
    H39      H        0.74180    0.91420    0.10350    1.000
    N14      N        0.06389    0.65500    0.43550    1.000
    C40      C        0.11088    0.39950    0.61240    1.000
    H40      H        0.12160    0.52170    0.62310    1.000
    C41      C        0.19990    0.35390    0.78120    1.000
    C42      C        0.24470    0.35230    0.66460    1.000
    H41      H        0.16630    0.42990    0.79970    1.000
    H42      H        0.24180    0.41420    0.60350    1.000
    N15      N        0.43611    0.34500    0.93550    1.000
    C43      C        0.38912    0.60050    0.11240    1.000
    H43      H        0.37840    0.47830    0.12310    1.000
    C44      C        0.30010    0.64610    0.28120    1.000
    C45      C        0.25530    0.64770    0.16460    1.000
    H44      H        0.33370    0.57010    0.29970    1.000
    H45      H        0.25820    0.58580    0.10350    1.000
    N16      N        0.93611    0.84500    0.43550    1.000
    C46      C        0.88912    0.10050    0.61240    1.000
    H46      H        0.87840    0.97830    0.62310    1.000
    C47      C        0.80010    0.14610    0.78120    1.000
    C48      C        0.75530    0.14770    0.66460    1.000
    H47      H        0.83370    0.07010    0.79970    1.000
    H48      H        0.75820    0.08580    0.60350    1.000
    Cu1      Cu       0.50000    0.50000    0.00000    1.000
    Cu2      Cu       0.00000    0.00000    0.50000    1.000
    Cu3      Cu       0.50000    0.00000    0.00000    1.000
    Cu4      Cu       0.00000    0.50000    0.50000    1.000
    N17      N        0.64220    0.75000    0.14450    1.000
    C49      C        0.69770    0.75000    0.19810    1.000
    N18      N        0.14220    0.25000    0.64450    1.000
    C50      C        0.19770    0.25000    0.69810    1.000
    N19      N        0.35780    0.75000    0.14450    1.000
    C51      C        0.30230    0.75000    0.19810    1.000
    N20      N        0.85780    0.25000    0.64450    1.000
    C52      C        0.80230    0.25000    0.69810    1.000
    N21      N        0.35780    0.25000    0.85550    1.000
    C53      C        0.30230    0.25000    0.80190    1.000
    N22      N        0.85780    0.75000    0.35550    1.000
    C54      C        0.80230    0.75000    0.30190    1.000
    N23      N        0.64220    0.25000    0.85550    1.000
    C55      C        0.69770    0.25000    0.80190    1.000
    N24      N        0.14220    0.75000    0.35550    1.000
    C56      C        0.19770    0.75000    0.30190    1.000
