# CIF file generated by openbabel 3.1.0, see https://openbabel.org
data_I
_chemical_name_common 'image0'
_cell_length_a 10.578
_cell_length_b 10.578
_cell_length_c 10.578
_cell_angle_alpha 90
_cell_angle_beta 90
_cell_angle_gamma 90
_space_group_name_H-M_alt 'P 1'
_space_group_name_Hall 'P 1'
loop_
    _symmetry_equiv_pos_as_xyz
    x,y,z
loop_
    _atom_site_label
    _atom_site_type_symbol
    _atom_site_fract_x
    _atom_site_fract_y
    _atom_site_fract_z
    _atom_site_occupancy
    N1       N        0.84990    0.95090    0.76180    1.000
    C1       C        0.76860    0.86630    0.68350    1.000
    C2       C        0.97140    0.88480    0.78590    1.000
    H1       H        0.81100    0.84600    0.60500    1.000
    H2       H        0.69000    0.90900    0.67500    1.000
    H3       H        0.01600    0.87700    0.70000    1.000
    H4       H        0.02800    0.94000    0.84200    1.000
    N2       N        0.65010    0.04910    0.26180    1.000
    C3       C        0.73140    0.13370    0.18350    1.000
    C4       C        0.52860    0.11520    0.28590    1.000
    H5       H        0.68900    0.15400    0.10500    1.000
    H6       H        0.81000    0.09100    0.17500    1.000
    H7       H        0.48400    0.12300    0.20000    1.000
    H8       H        0.47200    0.06000    0.34200    1.000
    N3       N        0.15010    0.45090    0.73820    1.000
    C5       C        0.23140    0.36630    0.81650    1.000
    C6       C        0.02860    0.38480    0.71410    1.000
    H9       H        0.18900    0.34600    0.89500    1.000
    H10      H        0.31000    0.40900    0.82500    1.000
    H11      H        0.98400    0.37700    0.80000    1.000
    H12      H        0.97200    0.44000    0.65800    1.000
    N4       N        0.34990    0.54910    0.23820    1.000
    C7       C        0.26860    0.63370    0.31650    1.000
    C8       C        0.47140    0.61520    0.21410    1.000
    H13      H        0.31100    0.65400    0.39500    1.000
    H14      H        0.19000    0.59100    0.32500    1.000
    H15      H        0.51600    0.62300    0.30000    1.000
    H16      H        0.52800    0.56000    0.15800    1.000
    N5       N        0.76180    0.84990    0.95090    1.000
    C9       C        0.68350    0.76860    0.86630    1.000
    C10      C        0.78590    0.97140    0.88480    1.000
    H17      H        0.60500    0.81100    0.84600    1.000
    H18      H        0.67500    0.69000    0.90900    1.000
    H19      H        0.70000    0.01600    0.87700    1.000
    H20      H        0.84200    0.02800    0.94000    1.000
    N6       N        0.26180    0.65010    0.04910    1.000
    C11      C        0.18350    0.73140    0.13370    1.000
    C12      C        0.28590    0.52860    0.11520    1.000
    H21      H        0.10500    0.68900    0.15400    1.000
    H22      H        0.17500    0.81000    0.09100    1.000
    H23      H        0.20000    0.48400    0.12300    1.000
    H24      H        0.34200    0.47200    0.06000    1.000
    N7       N        0.73820    0.15010    0.45090    1.000
    C13      C        0.81650    0.23140    0.36630    1.000
    C14      C        0.71410    0.02860    0.38480    1.000
    H25      H        0.89500    0.18900    0.34600    1.000
    H26      H        0.82500    0.31000    0.40900    1.000
    H27      H        0.80000    0.98400    0.37700    1.000
    H28      H        0.65800    0.97200    0.44000    1.000
    N8       N        0.23820    0.34990    0.54910    1.000
    C15      C        0.31650    0.26860    0.63370    1.000
    C16      C        0.21410    0.47140    0.61520    1.000
    H29      H        0.39500    0.31100    0.65400    1.000
    H30      H        0.32500    0.19000    0.59100    1.000
    H31      H        0.30000    0.51600    0.62300    1.000
    H32      H        0.15800    0.52800    0.56000    1.000
    N9       N        0.95090    0.76180    0.84990    1.000
    C17      C        0.86630    0.68350    0.76860    1.000
    C18      C        0.88480    0.78590    0.97140    1.000
    H33      H        0.84600    0.60500    0.81100    1.000
    H34      H        0.90900    0.67500    0.69000    1.000
    H35      H        0.87700    0.70000    0.01600    1.000
    H36      H        0.94000    0.84200    0.02800    1.000
    N10      N        0.04910    0.26180    0.65010    1.000
    C19      C        0.13370    0.18350    0.73140    1.000
    C20      C        0.11520    0.28590    0.52860    1.000
    H37      H        0.15400    0.10500    0.68900    1.000
    H38      H        0.09100    0.17500    0.81000    1.000
    H39      H        0.12300    0.20000    0.48400    1.000
    H40      H        0.06000    0.34200    0.47200    1.000
    N11      N        0.45090    0.73820    0.15010    1.000
    C21      C        0.36630    0.81650    0.23140    1.000
    C22      C        0.38480    0.71410    0.02860    1.000
    H41      H        0.34600    0.89500    0.18900    1.000
    H42      H        0.40900    0.82500    0.31000    1.000
    H43      H        0.37700    0.80000    0.98400    1.000
    H44      H        0.44000    0.65800    0.97200    1.000
    N12      N        0.54910    0.23820    0.34990    1.000
    C23      C        0.63370    0.31650    0.26860    1.000
    C24      C        0.61520    0.21410    0.47140    1.000
    H45      H        0.65400    0.39500    0.31100    1.000
    H46      H        0.59100    0.32500    0.19000    1.000
    H47      H        0.62300    0.30000    0.51600    1.000
    H48      H        0.56000    0.15800    0.52800    1.000
    Ag1      Ag       0.87008    0.12992    0.62992    1.000
    Ag2      Ag       0.62992    0.87008    0.12992    1.000
    Ag3      Ag       0.12992    0.62992    0.87008    1.000
    Ag4      Ag       0.37008    0.37008    0.37008    1.000
    N13      N        0.74530    0.74530    0.74530    1.000
    N14      N        0.75470    0.25470    0.24530    1.000
    N15      N        0.25470    0.24530    0.75470    1.000
    N16      N        0.24530    0.75470    0.25470    1.000
