data_functionalizedCrystal
_audit_creation_method	'EQeq! by Chris Wilmer'
_symmetry_space_group_name_H-M	'P1'
_symmetry_Int_Tables_number	1
_symmetry_cell_setting	triclinic
loop_
_symmetry_equiv_pos_as_xyz
  x,y,z
_cell_length_a	18.1249
_cell_length_b	12.1064
_cell_length_c	17.7333
_cell_angle_alpha	90
_cell_angle_beta	107.301
_cell_angle_gamma	90
loop_
_atom_site_label
_atom_site_type_symbol
_atom_site_fract_x
_atom_site_fract_y
_atom_site_fract_z
_atom_site_charge
Mof_Co	Co	0.78998	0.15718	0.68643	1.124
Mof_Co	Co	0.66714	0.34578	0.66121	1.156
Mof_Co	Co	0.80626	0.31383	0.83621	1.16
Mof_Na	Na	0.5997	0.0024	0.9945	1.898
Mof_O 	O 	0.7483	0.1339	0.5702	-0.487
Mof_O 	O 	0.6454	0.2336	0.5682	-0.479
Mof_O 	O 	0.4396	0.2944	0.3255	-0.417
Mof_O 	O 	0.4066	0.1526	0.2421	-0.392
Mof_O 	O 	0.6419	0.92	0.2278	-0.5
Mof_O 	O 	0.7138	0.8649	0.3474	-0.487
Mof_O 	O 	0.6707	0.4754	0.7382	-0.488
Mof_O 	O 	0.7432	0.4396	0.8622	-0.564
Mof_O 	O 	0.4069	0.6436	0.7115	-0.447
Mof_O 	O 	0.3891	0.6976	0.8239	-0.495
Mof_O 	O 	0.7137	0.7031	0.0729	-0.484
Mof_O 	O 	0.6192	0.8241	0.0417	-0.689
Mof_O 	O 	0.7284	0.2359	0.7448	-0.873
Mof_O 	O 	0.4762	0.0082	0.9026	-1.383
Mof_H 	H 	0.4648	0.9529	0.8719	0.482
Mof_H 	H 	0.4667	0.0658	0.8761	0.429
Mof_C 	C 	0.6415	0.1341	0.4547	-0.184
Mof_C 	C 	0.5703	0.1815	0.4151	0.105
Mof_H 	H 	0.5489	0.2362	0.4409	0.013
Mof_C 	C 	0.5306	0.15	0.339	-0.192
Mof_C 	C 	0.5599	0.0682	0.3019	0.119
Mof_H 	H 	0.5314	0.0451	0.2502	-0.061
Mof_C 	C 	0.6316	0.0186	0.34	-0.222
Mof_C 	C 	0.6715	0.051	0.4172	0.111
Mof_H 	H 	0.7191	0.0165	0.4443	-0.007
Mof_C 	C 	0.6827	0.1712	0.5378	0.415
Mof_C 	C 	0.4535	0.2022	0.2981	0.358
Mof_C 	C 	0.665	0.928	0.3018	0.414
Mof_C 	C 	0.6407	0.5677	0.841	-0.249
Mof_C 	C 	0.5649	0.5876	0.7972	0.12
Mof_H 	H 	0.5447	0.5544	0.7467	0.001
Mof_C 	C 	0.5175	0.6562	0.8265	-0.204
Mof_C 	C 	0.5464	0.7069	0.8997	0.124
Mof_H 	H 	0.5139	0.7525	0.9198	-0.046
Mof_C 	C 	0.6243	0.6901	0.9439	-0.274
Mof_C 	C 	0.67	0.6178	0.9153	0.164
Mof_H 	H 	0.7214	0.6025	0.9465	-0.117
Mof_C 	C 	0.6885	0.4863	0.8108	0.433
Mof_C 	C 	0.4316	0.6674	0.7846	0.372
Mof_C 	C 	0.6551	0.7405	0.0246	0.419
Mof_H 	H 	0.699	0.204	0.766	0.312
Mof_Co	Co	0.28998	0.65718	0.68643	1.127
Mof_Co	Co	0.16714	0.84578	0.66121	1.159
Mof_Co	Co	0.30626	0.81383	0.83621	1.162
Mof_Na	Na	0.0997	0.5024	0.9945	1.915
Mof_O 	O 	0.2483	0.6339	0.5702	-0.481
Mof_O 	O 	0.1454	0.7336	0.5682	-0.476
Mof_O 	O 	0.9396	0.7944	0.3255	-0.412
Mof_O 	O 	0.9066	0.6526	0.2421	-0.389
Mof_O 	O 	0.1419	0.42	0.2278	-0.498
Mof_O 	O 	0.2138	0.3649	0.3474	-0.486
Mof_O 	O 	0.1707	0.9754	0.7382	-0.488
Mof_O 	O 	0.2432	0.9396	0.8622	-0.563
Mof_O 	O 	0.9069	0.1436	0.7115	-0.454
Mof_O 	O 	0.8891	0.1976	0.8239	-0.497
Mof_O 	O 	0.2137	0.2031	0.0729	-0.489
Mof_O 	O 	0.1192	0.3241	0.0417	-0.697
Mof_O 	O 	0.2284	0.7359	0.7448	-0.873
Mof_O 	O 	0.9762	0.5082	0.9026	-1.345
Mof_H 	H 	0.9648	0.4529	0.8719	0.454
Mof_H 	H 	0.9667	0.5658	0.8761	0.421
Mof_C 	C 	0.1415	0.6341	0.4547	-0.171
Mof_C 	C 	0.0703	0.6815	0.4151	0.095
Mof_H 	H 	0.0489	0.7362	0.4409	0.018
Mof_C 	C 	0.0306	0.65	0.339	-0.176
Mof_C 	C 	0.0599	0.5682	0.3019	0.103
Mof_H 	H 	0.0314	0.5451	0.2502	-0.048
Mof_C 	C 	0.1316	0.5186	0.34	-0.188
Mof_C 	C 	0.1715	0.551	0.4172	0.096
Mof_H 	H 	0.2191	0.5165	0.4443	0.005
Mof_C 	C 	0.1827	0.6712	0.5378	0.412
Mof_C 	C 	0.9535	0.7022	0.2981	0.352
Mof_C 	C 	0.165	0.428	0.3018	0.388
Mof_C 	C 	0.1407	0.0677	0.841	-0.286
Mof_C 	C 	0.0649	0.0876	0.7972	0.14
Mof_H 	H 	0.0447	0.0544	0.7467	-0.014
Mof_C 	C 	0.0175	0.1562	0.8265	-0.226
Mof_C 	C 	0.0464	0.2069	0.8997	0.139
Mof_H 	H 	0.0139	0.2525	0.9198	-0.057
Mof_C 	C 	0.1243	0.1901	0.9439	-0.299
Mof_C 	C 	0.17	0.1178	0.9153	0.184
Mof_H 	H 	0.2214	0.1025	0.9465	-0.13
Mof_C 	C 	0.1885	0.9863	0.8108	0.459
Mof_C 	C 	0.9316	0.1674	0.7846	0.38
Mof_C 	C 	0.1551	0.2405	0.0246	0.432
Mof_H 	H 	0.199	0.704	0.766	0.312
Mof_Co	Co	0.21002	0.15718	0.31357	1.125
Mof_Co	Co	0.33286	0.34578	0.33879	1.157
Mof_Co	Co	0.19374	0.31383	0.16379	1.161
Mof_Na	Na	0.4003	0.0024	0.0055	1.899
Mof_O 	O 	0.2517	0.1339	0.4298	-0.487
Mof_O 	O 	0.3546	0.2336	0.4318	-0.479
Mof_O 	O 	0.5604	0.2944	0.6745	-0.417
Mof_O 	O 	0.5934	0.1526	0.7579	-0.392
Mof_O 	O 	0.3581	0.92	0.7722	-0.5
Mof_O 	O 	0.2862	0.8649	0.6526	-0.487
Mof_O 	O 	0.3293	0.4754	0.2618	-0.488
Mof_O 	O 	0.2568	0.4396	0.1378	-0.564
Mof_O 	O 	0.5931	0.6436	0.2885	-0.447
Mof_O 	O 	0.6109	0.6976	0.1761	-0.495
Mof_O 	O 	0.2863	0.7031	0.9271	-0.484
Mof_O 	O 	0.3808	0.8241	0.9583	-0.689
Mof_O 	O 	0.2716	0.2359	0.2552	-0.873
Mof_O 	O 	0.5238	0.0082	0.0974	-1.383
Mof_H 	H 	0.5352	0.9529	0.1281	0.482
Mof_H 	H 	0.5333	0.0658	0.1239	0.429
Mof_C 	C 	0.3585	0.1341	0.5453	-0.184
Mof_C 	C 	0.4297	0.1815	0.5849	0.105
Mof_H 	H 	0.4511	0.2362	0.5591	0.013
Mof_C 	C 	0.4694	0.15	0.661	-0.192
Mof_C 	C 	0.4401	0.0682	0.6981	0.119
Mof_H 	H 	0.4686	0.0451	0.7498	-0.061
Mof_C 	C 	0.3684	0.0186	0.66	-0.222
Mof_C 	C 	0.3285	0.051	0.5828	0.111
Mof_H 	H 	0.2809	0.0165	0.5557	-0.007
Mof_C 	C 	0.3173	0.1712	0.4622	0.415
Mof_C 	C 	0.5465	0.2022	0.7019	0.358
Mof_C 	C 	0.335	0.928	0.6982	0.414
Mof_C 	C 	0.3593	0.5677	0.159	-0.249
Mof_C 	C 	0.4351	0.5876	0.2028	0.12
Mof_H 	H 	0.4553	0.5544	0.2533	0.001
Mof_C 	C 	0.4825	0.6562	0.1735	-0.204
Mof_C 	C 	0.4536	0.7069	0.1003	0.124
Mof_H 	H 	0.4861	0.7525	0.0802	-0.046
Mof_C 	C 	0.3757	0.6901	0.0561	-0.274
Mof_C 	C 	0.33	0.6178	0.0847	0.164
Mof_H 	H 	0.2786	0.6025	0.0535	-0.117
Mof_C 	C 	0.3115	0.4863	0.1892	0.433
Mof_C 	C 	0.5684	0.6674	0.2154	0.372
Mof_C 	C 	0.3449	0.7405	0.9754	0.419
Mof_H 	H 	0.301	0.204	0.234	0.312
Mof_Co	Co	0.71002	0.65718	0.31357	1.127
Mof_Co	Co	0.83286	0.84578	0.33879	1.159
Mof_Co	Co	0.69374	0.81383	0.16379	1.162
Mof_Na	Na	0.9003	0.5024	0.0055	1.915
Mof_O 	O 	0.7517	0.6339	0.4298	-0.481
Mof_O 	O 	0.8546	0.7336	0.4318	-0.476
Mof_O 	O 	0.0604	0.7944	0.6745	-0.412
Mof_O 	O 	0.0934	0.6526	0.7579	-0.389
Mof_O 	O 	0.8581	0.42	0.7722	-0.498
Mof_O 	O 	0.7862	0.3649	0.6526	-0.486
Mof_O 	O 	0.8293	0.9754	0.2618	-0.488
Mof_O 	O 	0.7568	0.9396	0.1378	-0.563
Mof_O 	O 	0.0931	0.1436	0.2885	-0.454
Mof_O 	O 	0.1109	0.1976	0.1761	-0.497
Mof_O 	O 	0.7863	0.2031	0.9271	-0.489
Mof_O 	O 	0.8808	0.3241	0.9583	-0.697
Mof_O 	O 	0.7716	0.7359	0.2552	-0.873
Mof_O 	O 	0.0238	0.5082	0.0974	-1.345
Mof_H 	H 	0.0352	0.4529	0.1281	0.454
Mof_H 	H 	0.0333	0.5658	0.1239	0.421
Mof_C 	C 	0.8585	0.6341	0.5453	-0.171
Mof_C 	C 	0.9297	0.6815	0.5849	0.095
Mof_H 	H 	0.9511	0.7362	0.5591	0.018
Mof_C 	C 	0.9694	0.65	0.661	-0.176
Mof_C 	C 	0.9401	0.5682	0.6981	0.103
Mof_H 	H 	0.9686	0.5451	0.7498	-0.048
Mof_C 	C 	0.8684	0.5186	0.66	-0.188
Mof_C 	C 	0.8285	0.551	0.5828	0.096
Mof_H 	H 	0.7809	0.5165	0.5557	0.005
Mof_C 	C 	0.8173	0.6712	0.4622	0.412
Mof_C 	C 	0.0465	0.7022	0.7019	0.352
Mof_C 	C 	0.835	0.428	0.6982	0.388
Mof_C 	C 	0.8593	0.0677	0.159	-0.286
Mof_C 	C 	0.9351	0.0876	0.2028	0.14
Mof_H 	H 	0.9553	0.0544	0.2533	-0.014
Mof_C 	C 	0.9825	0.1562	0.1735	-0.226
Mof_C 	C 	0.9536	0.2069	0.1003	0.139
Mof_H 	H 	0.9861	0.2525	0.0802	-0.057
Mof_C 	C 	0.8757	0.1901	0.0561	-0.299
Mof_C 	C 	0.83	0.1178	0.0847	0.184
Mof_H 	H 	0.7786	0.1025	0.0535	-0.13
Mof_C 	C 	0.8115	0.9863	0.1892	0.459
Mof_C 	C 	0.0684	0.1674	0.2154	0.38
Mof_C 	C 	0.8449	0.2405	0.9754	0.432
Mof_H 	H 	0.801	0.704	0.234	0.312
_end
