# CIF file generated by openbabel 3.1.0, see https://openbabel.org
data_I
_chemical_name_common 'image0'
_cell_length_a 13.612
_cell_length_b 9.5753
_cell_length_c 14.022
_cell_angle_alpha 90
_cell_angle_beta 90
_cell_angle_gamma 90
_space_group_name_H-M_alt 'P 1'
_space_group_name_Hall 'P 1'
loop_
    _symmetry_equiv_pos_as_xyz
    x,y,z
loop_
    _atom_site_label
    _atom_site_type_symbol
    _atom_site_fract_x
    _atom_site_fract_y
    _atom_site_fract_z
    _atom_site_occupancy
    V1       V        0.36284    0.80954    0.69760    1.000
    P1       P        0.55923    0.01231    0.72682    1.000
    H1       H        0.64200    0.94400    0.72800    1.000
    P2       P        0.67492    0.86810    0.37891    1.000
    H2       H        0.61700    0.79600    0.32300    1.000
    F1       F        0.44224    0.84550    0.56140    1.000
    O1       O        0.55950    0.13180    0.79787    1.000
    O2       O        0.76600    0.77790    0.39410    1.000
    O3       O        0.47880    0.90920    0.75350    1.000
    O4       O        0.69970    0.00650    0.33430    1.000
    O5       O        0.55420    0.06180    0.62435    1.000
    O6       O        0.62180    0.88590    0.47500    1.000
    V2       V        0.13716    0.19046    0.19760    1.000
    P3       P        0.94077    0.98769    0.22682    1.000
    H3       H        0.85800    0.05600    0.22800    1.000
    P4       P        0.82508    0.13190    0.87891    1.000
    H4       H        0.88300    0.20400    0.82300    1.000
    F2       F        0.05776    0.15450    0.06140    1.000
    O7       O        0.94050    0.86820    0.29787    1.000
    O8       O        0.73400    0.22210    0.89410    1.000
    O9       O        0.02120    0.09080    0.25350    1.000
    O10      O        0.80030    0.99350    0.83430    1.000
    O11      O        0.94580    0.93820    0.12435    1.000
    O12      O        0.87820    0.11410    0.97500    1.000
    V3       V        0.63716    0.30954    0.80240    1.000
    P5       P        0.44077    0.51231    0.77318    1.000
    H5       H        0.35800    0.44400    0.77200    1.000
    P6       P        0.32508    0.36810    0.12109    1.000
    H6       H        0.38300    0.29600    0.17700    1.000
    F3       F        0.55776    0.34550    0.93860    1.000
    O13      O        0.44050    0.63180    0.70213    1.000
    O14      O        0.23400    0.27790    0.10590    1.000
    O15      O        0.52120    0.40920    0.74650    1.000
    O16      O        0.30030    0.50650    0.16570    1.000
    O17      O        0.44580    0.56180    0.87565    1.000
    O18      O        0.37820    0.38590    0.02500    1.000
    V4       V        0.86284    0.69046    0.30240    1.000
    P7       P        0.05923    0.48769    0.27318    1.000
    H7       H        0.14200    0.55600    0.27200    1.000
    P8       P        0.17492    0.63190    0.62109    1.000
    H8       H        0.11700    0.70400    0.67700    1.000
    F4       F        0.94224    0.65450    0.43860    1.000
    O19      O        0.05950    0.36820    0.20213    1.000
    O20      O        0.26600    0.72210    0.60590    1.000
    O21      O        0.97880    0.59080    0.24650    1.000
    O22      O        0.19970    0.49350    0.66570    1.000
    O23      O        0.05420    0.43820    0.37565    1.000
    O24      O        0.12180    0.61410    0.52500    1.000
    V5       V        0.63716    0.19046    0.30240    1.000
    P9       P        0.44077    0.98769    0.27318    1.000
    H9       H        0.35800    0.05600    0.27200    1.000
    P10      P        0.32508    0.13190    0.62109    1.000
    H10      H        0.38300    0.20400    0.67700    1.000
    F5       F        0.55776    0.15450    0.43860    1.000
    O25      O        0.44050    0.86820    0.20213    1.000
    O26      O        0.23400    0.22210    0.60590    1.000
    O27      O        0.52120    0.09080    0.24650    1.000
    O28      O        0.30030    0.99350    0.66570    1.000
    O29      O        0.44580    0.93820    0.37565    1.000
    O30      O        0.37820    0.11410    0.52500    1.000
    V6       V        0.86284    0.80954    0.80240    1.000
    P11      P        0.05923    0.01231    0.77318    1.000
    H11      H        0.14200    0.94400    0.77200    1.000
    P12      P        0.17492    0.86810    0.12109    1.000
    H12      H        0.11700    0.79600    0.17700    1.000
    F6       F        0.94224    0.84550    0.93860    1.000
    O31      O        0.05950    0.13180    0.70213    1.000
    O32      O        0.26600    0.77790    0.10590    1.000
    O33      O        0.97880    0.90920    0.74650    1.000
    O34      O        0.19970    0.00650    0.16570    1.000
    O35      O        0.05420    0.06180    0.87565    1.000
    O36      O        0.12180    0.88590    0.02500    1.000
    V7       V        0.36284    0.69046    0.19760    1.000
    P13      P        0.55923    0.48769    0.22682    1.000
    H13      H        0.64200    0.55600    0.22800    1.000
    P14      P        0.67492    0.63190    0.87891    1.000
    H14      H        0.61700    0.70400    0.82300    1.000
    F7       F        0.44224    0.65450    0.06140    1.000
    O37      O        0.55950    0.36820    0.29787    1.000
    O38      O        0.76600    0.72210    0.89410    1.000
    O39      O        0.47880    0.59080    0.25350    1.000
    O40      O        0.69970    0.49350    0.83430    1.000
    O41      O        0.55420    0.43820    0.12435    1.000
    O42      O        0.62180    0.61410    0.97500    1.000
    V8       V        0.13716    0.30954    0.69760    1.000
    P15      P        0.94077    0.51231    0.72682    1.000
    H15      H        0.85800    0.44400    0.72800    1.000
    P16      P        0.82508    0.36810    0.37891    1.000
    H16      H        0.88300    0.29600    0.32300    1.000
    F8       F        0.05776    0.34550    0.56140    1.000
    O43      O        0.94050    0.63180    0.79787    1.000
    O44      O        0.73400    0.27790    0.39410    1.000
    O45      O        0.02120    0.40920    0.75350    1.000
    O46      O        0.80030    0.50650    0.33430    1.000
    O47      O        0.94580    0.56180    0.62435    1.000
    O48      O        0.87820    0.38590    0.47500    1.000
    V9       V        0.50000    0.00000    0.50000    1.000
    V10      V        0.00000    0.00000    0.00000    1.000
    V11      V        0.50000    0.50000    0.00000    1.000
    V12      V        0.00000    0.50000    0.50000    1.000
