data_functionalizedCrystal
_audit_creation_method	'EQeq! by Chris Wilmer'
_symmetry_space_group_name_H-M	'P1'
_symmetry_Int_Tables_number	1
_symmetry_cell_setting	triclinic
loop_
_symmetry_equiv_pos_as_xyz
  x,y,z
_cell_length_a	9.6896
_cell_length_b	9.6896
_cell_length_c	20.153
_cell_angle_alpha	90
_cell_angle_beta	90
_cell_angle_gamma	120
loop_
_atom_site_label
_atom_site_type_symbol
_atom_site_fract_x
_atom_site_fract_y
_atom_site_fract_z
_atom_site_charge
Mof_Zn	Zn	0.93674	0.5069	0.41598	1.177
Mof_N 	N 	0.3485	0.8315	0.51349	-0.281
Mof_N 	N 	0.409	0.8135	0.45329	-0.155
Mof_N 	N 	0.1429	0.6825	0.44901	-0.323
Mof_N 	N 	0.0882	0.7457	0.55686	-0.283
Mof_H 	H 	0.9874	0.6534	0.5613	0.093
Mof_H 	H 	0.12	0.7847	0.5986	0.105
Mof_N 	N 	0.2168	0.4199	0.28902	-0.326
Mof_N 	N 	0.0315	0.4269	0.35025	-0.273
Mof_N 	N 	0.9629	0.2759	0.3222	-0.139
Mof_N 	N 	0.0593	0.1505	0.2497	-0.255
Mof_H 	H 	0.9581	0.0836	0.229	0.091
Mof_H 	H 	0.1249	0.1648	0.2147	0.083
Mof_C 	C 	0.1902	0.7512	0.5093	0.167
Mof_C 	C 	0.2829	0.7241	0.4178	0.168
Mof_C 	C 	0.2939	0.6781	0.3471	-0.365
Mof_H 	H 	0.2745	0.747	0.3168	0.104
Mof_H 	H 	0.4039	0.7001	0.3391	0.091
Mof_C 	C 	0.181	0.5086	0.3301	0.152
Mof_C 	C 	0.0768	0.2786	0.2861	0.167
Mof_Zn	Zn	0.4931	0.42984	0.74931	1.178
Mof_N 	N 	0.1685	0.517	0.84682	-0.28
Mof_N 	N 	0.1865	0.5955	0.78662	-0.154
Mof_N 	N 	0.3175	0.4604	0.78234	-0.322
Mof_N 	N 	0.2543	0.3425	0.89019	-0.283
Mof_H 	H 	0.3466	0.334	0.89463	0.093
Mof_H 	H 	0.2153	0.3353	0.93193	0.104
Mof_N 	N 	0.5801	0.7969	0.62235	-0.326
Mof_N 	N 	0.5731	0.6046	0.68358	-0.274
Mof_N 	N 	0.7241	0.687	0.65553	-0.137
Mof_N 	N 	0.8495	0.9088	0.58303	-0.257
Mof_H 	H 	0.9164	0.8745	0.56233	0.093
Mof_H 	H 	0.8352	0.9601	0.54803	0.083
Mof_C 	C 	0.2488	0.439	0.84263	0.167
Mof_C 	C 	0.2759	0.5588	0.75113	0.168
Mof_C 	C 	0.3219	0.6158	0.68043	-0.365
Mof_H 	H 	0.253	0.5275	0.65013	0.104
Mof_H 	H 	0.2999	0.7038	0.67243	0.09
Mof_C 	C 	0.4914	0.6724	0.66343	0.151
Mof_C 	C 	0.7214	0.7982	0.61943	0.165
Mof_Zn	Zn	0.57016	0.06326	0.08265	1.177
Mof_N 	N 	0.483	0.6515	0.18016	-0.28
Mof_N 	N 	0.4045	0.591	0.11996	-0.153
Mof_N 	N 	0.5396	0.8571	0.11568	-0.32
Mof_N 	N 	0.6575	0.9118	0.22353	-0.281
Mof_H 	H 	0.666	0.0126	0.22797	0.091
Mof_H 	H 	0.6647	0.88	0.26527	0.105
Mof_N 	N 	0.2031	0.7832	0.95569	-0.325
Mof_N 	N 	0.3954	0.9685	0.01692	-0.269
Mof_N 	N 	0.313	0.0371	0.98887	-0.137
Mof_N 	N 	0.0912	0.9407	0.91637	-0.258
Mof_H 	H 	0.1255	0.0419	0.89567	0.094
Mof_H 	H 	0.0399	0.8751	0.88137	0.082
Mof_C 	C 	0.561	0.8098	0.17597	0.168
Mof_C 	C 	0.4412	0.7171	0.08447	0.166
Mof_C 	C 	0.3842	0.7061	0.01377	-0.354
Mof_H 	H 	0.4725	0.7255	0.98347	0.1
Mof_H 	H 	0.2962	0.5961	0.00577	0.089
Mof_C 	C 	0.3276	0.819	0.99677	0.144
Mof_C 	C 	0.2018	0.9232	0.95277	0.163
Mof_Zn	Zn	0.5069	0.93674	0.58402	1.178
Mof_N 	N 	0.8315	0.3485	0.48651	-0.28
Mof_N 	N 	0.8135	0.409	0.54671	-0.154
Mof_N 	N 	0.6825	0.1429	0.55099	-0.322
Mof_N 	N 	0.7457	0.0882	0.44314	-0.283
Mof_H 	H 	0.6534	0.9874	0.4387	0.093
Mof_H 	H 	0.7847	0.12	0.4014	0.105
Mof_N 	N 	0.4199	0.2168	0.71098	-0.326
Mof_N 	N 	0.4269	0.0315	0.64975	-0.273
Mof_N 	N 	0.2759	0.9629	0.6778	-0.139
Mof_N 	N 	0.1505	0.0593	0.7503	-0.255
Mof_H 	H 	0.0836	0.9581	0.771	0.091
Mof_H 	H 	0.1648	0.1249	0.7853	0.083
Mof_C 	C 	0.7512	0.1902	0.4907	0.167
Mof_C 	C 	0.7241	0.2829	0.5822	0.168
Mof_C 	C 	0.6781	0.2939	0.6529	-0.365
Mof_H 	H 	0.747	0.2745	0.6832	0.104
Mof_H 	H 	0.7001	0.4039	0.6609	0.091
Mof_C 	C 	0.5086	0.181	0.6699	0.152
Mof_C 	C 	0.2786	0.0768	0.7139	0.167
Mof_Zn	Zn	0.42984	0.4931	0.25069	1.178
Mof_N 	N 	0.517	0.1685	0.15318	-0.28
Mof_N 	N 	0.5955	0.1865	0.21338	-0.154
Mof_N 	N 	0.4604	0.3175	0.21766	-0.322
Mof_N 	N 	0.3425	0.2543	0.10981	-0.283
Mof_H 	H 	0.334	0.3466	0.10537	0.093
Mof_H 	H 	0.3353	0.2153	0.06807	0.104
Mof_N 	N 	0.7969	0.5801	0.37765	-0.326
Mof_N 	N 	0.6046	0.5731	0.31642	-0.274
Mof_N 	N 	0.687	0.7241	0.34447	-0.137
Mof_N 	N 	0.9088	0.8495	0.41697	-0.257
Mof_H 	H 	0.8745	0.9164	0.43767	0.093
Mof_H 	H 	0.9601	0.8352	0.45197	0.083
Mof_C 	C 	0.439	0.2488	0.15737	0.167
Mof_C 	C 	0.5588	0.2759	0.24887	0.168
Mof_C 	C 	0.6158	0.3219	0.31957	-0.365
Mof_H 	H 	0.5275	0.253	0.34987	0.104
Mof_H 	H 	0.7038	0.2999	0.32757	0.09
Mof_C 	C 	0.6724	0.4914	0.33657	0.151
Mof_C 	C 	0.7982	0.7214	0.38057	0.165
Mof_Zn	Zn	0.06326	0.57016	0.91735	1.177
Mof_N 	N 	0.6515	0.483	0.81984	-0.28
Mof_N 	N 	0.591	0.4045	0.88004	-0.153
Mof_N 	N 	0.8571	0.5396	0.88432	-0.32
Mof_N 	N 	0.9118	0.6575	0.77647	-0.281
Mof_H 	H 	0.0126	0.666	0.77203	0.091
Mof_H 	H 	0.88	0.6647	0.73473	0.105
Mof_N 	N 	0.7832	0.2031	0.04431	-0.325
Mof_N 	N 	0.9685	0.3954	0.98308	-0.269
Mof_N 	N 	0.0371	0.313	0.01113	-0.137
Mof_N 	N 	0.9407	0.0912	0.08363	-0.258
Mof_H 	H 	0.0419	0.1255	0.10433	0.094
Mof_H 	H 	0.8751	0.0399	0.11863	0.082
Mof_C 	C 	0.8098	0.561	0.82403	0.168
Mof_C 	C 	0.7171	0.4412	0.91553	0.166
Mof_C 	C 	0.7061	0.3842	0.98623	-0.354
Mof_H 	H 	0.7255	0.4725	0.01653	0.1
Mof_H 	H 	0.5961	0.2962	0.99423	0.089
Mof_C 	C 	0.819	0.3276	0.00323	0.144
Mof_C 	C 	0.9232	0.2018	0.04723	0.163
_end
