# CIF file generated by openbabel 3.1.0, see https://openbabel.org
data_I
_chemical_name_common 'image0'
_cell_length_a 28.187
_cell_length_b 14.002
_cell_length_c 27.657
_cell_angle_alpha 90
_cell_angle_beta 116.228
_cell_angle_gamma 90
_space_group_name_H-M_alt 'P 1'
_space_group_name_Hall 'P 1'
loop_
    _symmetry_equiv_pos_as_xyz
    x,y,z
loop_
    _atom_site_label
    _atom_site_type_symbol
    _atom_site_fract_x
    _atom_site_fract_y
    _atom_site_fract_z
    _atom_site_occupancy
    Cd1      Cd       0.19982    0.63155    0.15299    1.000
    Cd2      Cd       0.40450    0.37502    0.04978    1.000
    Cd3      Cd       0.12435    0.46383    0.22083    1.000
    O1       O        0.17927    0.47081    0.14634    1.000
    O2       O        0.34035    0.50180    0.11905    1.000
    O3       O        0.18460    0.37369    0.21237    1.000
    O4       O        0.31795    0.10763    0.27146    1.000
    O5       O        0.38598    0.36840    0.12425    1.000
    O6       O        0.38485    0.11850    0.25161    1.000
    N1       N        0.10859    0.08480    0.11115    1.000
    N2       N        0.21434    0.11500    0.28707    1.000
    N3       N        0.31427    0.38420    0.99197    1.000
    N4       N        0.23037    0.43290    0.95485    1.000
    N5       N        0.19284    0.79320    0.15191    1.000
    N6       N        0.06881    0.96700    0.15102    1.000
    N7       N        0.13586    0.42260    0.93714    1.000
    N8       N        0.20305    0.61310    0.07204    1.000
    N9       N        0.19263    0.55960    0.99217    1.000
    N10      N        0.14890    0.06090    0.21200    1.000
    N11      N        0.08361    0.13460    0.02706    1.000
    N12      N        0.16344    0.55160    0.89225    1.000
    N13      N        0.15704    0.93480    0.15074    1.000
    N14      N        0.98734    0.90810    0.11247    1.000
    N15      N        0.13723    0.57640    0.80465    1.000
    N16      N        0.09590    0.28950    0.94339    1.000
    C1       C        0.22414    0.86260    0.14536    1.000
    H1       H        0.25530    0.85160    0.14250    1.000
    C2       C        0.01123    0.87950    0.16522    1.000
    H2       H        0.99580    0.84160    0.18190    1.000
    C3       C        0.27247    0.27840    0.21360    1.000
    H3       H        0.25520    0.24930    0.23160    1.000
    C4       C        0.32494    0.36690    0.16114    1.000
    C5       C        0.31987    0.24090    0.21799    1.000
    C6       C        0.23478    0.35700    0.92494    1.000
    H4       H        0.20740    0.33020    0.89470    1.000
    C7       C        0.34284    0.15110    0.24974    1.000
    C8       C        0.35338    0.41520    0.13283    1.000
    C9       C        0.20082    0.40460    0.17956    1.000
    C10      C        0.06079    0.91520    0.18914    1.000
    H5       H        0.08510    0.90640    0.22490    1.000
    C11      C        0.02312    0.95880    0.10596    1.000
    H6       H        0.01750    0.98650    0.07330    1.000
    C12      C        0.34585    0.28520    0.19148    1.000
    H7       H        0.37740    0.25990    0.19410    1.000
    C13      C        0.16373    0.52100    0.84634    1.000
    H8       H        0.18110    0.46570    0.84420    1.000
    C14      C        0.05854    0.35390    0.91250    1.000
    H9       H        0.02220    0.34330    0.89680    1.000
    C15      C        0.18272    0.54630    0.03522    1.000
    H10      H        0.16340    0.49490    0.03850    1.000
    C16      C        0.20241    0.94960    0.14378    1.000
    H11      H        0.21540    0.00800    0.13900    1.000
    C17      C        0.27710    0.40360    0.15609    1.000
    H12      H        0.26270    0.45760    0.13510    1.000
    C18      C        0.13370    0.63430    0.87777    1.000
    H13      H        0.12580    0.67310    0.90050    1.000
    C19      C        0.15366    0.83980    0.15504    1.000
    H14      H        0.12650    0.81000    0.15970    1.000
    C20      C        0.09803    0.06140    0.05999    1.000
    H15      H        0.10070    0.99950    0.04920    1.000
    C21      C        0.20135    0.06550    0.24256    1.000
    H16      H        0.22590    0.03680    0.23330    1.000
    C22      C        0.12742    0.11330    0.23943    1.000
    H17      H        0.09170    0.12550    0.22840    1.000
    C23      C        0.11834    0.64860    0.82464    1.000
    H18      H        0.09800    0.69970    0.80470    1.000
    C24      C        0.28582    0.32880    0.94740    1.000
    H19      H        0.29960    0.27970    0.93470    1.000
    C25      C        0.10082    0.18180    0.11014    1.000
    H20      H        0.10480    0.21990    0.13920    1.000
    C26      C        0.27985    0.44440    0.99458    1.000
    H21      H        0.28870    0.49080    0.02130    1.000
    C27      C        0.22300    0.64080    0.00401    1.000
    H22      H        0.23700    0.66880    0.98260    1.000
    C28      C        0.14156    0.33330    0.95700    1.000
    H23      H        0.17420    0.30540    0.97810    1.000
    C29      C        0.08201    0.43520    0.90800    1.000
    H24      H        0.06500    0.48950    0.88880    1.000
    C30      C        0.22880    0.67250    0.05242    1.000
    H25      H        0.24760    0.72680    0.06980    1.000
    C31      C        0.16788    0.14380    0.28543    1.000
    H26      H        0.16440    0.17940    0.31200    1.000
    C32      C        0.08640    0.21160    0.05926    1.000
    H27      H        0.07940    0.27460    0.04760    1.000
    C33      C        0.25078    0.35960    0.18235    1.000
    B1       B        0.18059    0.49210    0.94440    1.000
    B2       B        0.12084    0.01260    0.15664    1.000
    Cd4      Cd       0.69982    0.13155    0.15299    1.000
    Cd5      Cd       0.90450    0.87502    0.04978    1.000
    Cd6      Cd       0.62435    0.96383    0.22083    1.000
    O7       O        0.67927    0.97081    0.14634    1.000
    O8       O        0.84035    0.00180    0.11905    1.000
    O9       O        0.68460    0.87369    0.21237    1.000
    O10      O        0.81795    0.60763    0.27146    1.000
    O11      O        0.88598    0.86840    0.12425    1.000
    O12      O        0.88485    0.61850    0.25161    1.000
    N17      N        0.60859    0.58480    0.11115    1.000
    N18      N        0.71434    0.61500    0.28707    1.000
    N19      N        0.81427    0.88420    0.99197    1.000
    N20      N        0.73037    0.93290    0.95485    1.000
    N21      N        0.69284    0.29320    0.15191    1.000
    N22      N        0.56881    0.46700    0.15102    1.000
    N23      N        0.63586    0.92260    0.93714    1.000
    N24      N        0.70305    0.11310    0.07204    1.000
    N25      N        0.69263    0.05960    0.99217    1.000
    N26      N        0.64890    0.56090    0.21200    1.000
    N27      N        0.58361    0.63460    0.02706    1.000
    N28      N        0.66344    0.05160    0.89225    1.000
    N29      N        0.65704    0.43480    0.15074    1.000
    N30      N        0.48734    0.40810    0.11247    1.000
    N31      N        0.63723    0.07640    0.80465    1.000
    N32      N        0.59590    0.78950    0.94339    1.000
    C34      C        0.72414    0.36260    0.14536    1.000
    H28      H        0.75530    0.35160    0.14250    1.000
    C35      C        0.51123    0.37950    0.16522    1.000
    H29      H        0.49580    0.34160    0.18190    1.000
    C36      C        0.77247    0.77840    0.21360    1.000
    H30      H        0.75520    0.74930    0.23160    1.000
    C37      C        0.82494    0.86690    0.16114    1.000
    C38      C        0.81987    0.74090    0.21799    1.000
    C39      C        0.73478    0.85700    0.92494    1.000
    H31      H        0.70740    0.83020    0.89470    1.000
    C40      C        0.84284    0.65110    0.24974    1.000
    C41      C        0.85338    0.91520    0.13283    1.000
    C42      C        0.70082    0.90460    0.17956    1.000
    C43      C        0.56079    0.41520    0.18914    1.000
    H32      H        0.58510    0.40640    0.22490    1.000
    C44      C        0.52312    0.45880    0.10596    1.000
    H33      H        0.51750    0.48650    0.07330    1.000
    C45      C        0.84585    0.78520    0.19148    1.000
    H34      H        0.87740    0.75990    0.19410    1.000
    C46      C        0.66373    0.02100    0.84634    1.000
    H35      H        0.68110    0.96570    0.84420    1.000
    C47      C        0.55854    0.85390    0.91250    1.000
    H36      H        0.52220    0.84330    0.89680    1.000
    C48      C        0.68272    0.04630    0.03522    1.000
    H37      H        0.66340    0.99490    0.03850    1.000
    C49      C        0.70241    0.44960    0.14378    1.000
    H38      H        0.71540    0.50800    0.13900    1.000
    C50      C        0.77710    0.90360    0.15609    1.000
    H39      H        0.76270    0.95760    0.13510    1.000
    C51      C        0.63370    0.13430    0.87777    1.000
    H40      H        0.62580    0.17310    0.90050    1.000
    C52      C        0.65366    0.33980    0.15504    1.000
    H41      H        0.62650    0.31000    0.15970    1.000
    C53      C        0.59803    0.56140    0.05999    1.000
    H42      H        0.60070    0.49950    0.04920    1.000
    C54      C        0.70135    0.56550    0.24256    1.000
    H43      H        0.72590    0.53680    0.23330    1.000
    C55      C        0.62742    0.61330    0.23943    1.000
    H44      H        0.59170    0.62550    0.22840    1.000
    C56      C        0.61834    0.14860    0.82464    1.000
    H45      H        0.59800    0.19970    0.80470    1.000
    C57      C        0.78582    0.82880    0.94740    1.000
    H46      H        0.79960    0.77970    0.93470    1.000
    C58      C        0.60082    0.68180    0.11014    1.000
    H47      H        0.60480    0.71990    0.13920    1.000
    C59      C        0.77985    0.94440    0.99458    1.000
    H48      H        0.78870    0.99080    0.02130    1.000
    C60      C        0.72300    0.14080    0.00401    1.000
    H49      H        0.73700    0.16880    0.98260    1.000
    C61      C        0.64156    0.83330    0.95700    1.000
    H50      H        0.67420    0.80540    0.97810    1.000
    C62      C        0.58201    0.93520    0.90800    1.000
    H51      H        0.56500    0.98950    0.88880    1.000
    C63      C        0.72880    0.17250    0.05242    1.000
    H52      H        0.74760    0.22680    0.06980    1.000
    C64      C        0.66788    0.64380    0.28543    1.000
    H53      H        0.66440    0.67940    0.31200    1.000
    C65      C        0.58640    0.71160    0.05926    1.000
    H54      H        0.57940    0.77460    0.04760    1.000
    C66      C        0.75078    0.85960    0.18235    1.000
    B3       B        0.68059    0.99210    0.94440    1.000
    B4       B        0.62084    0.51260    0.15664    1.000
    Cd7      Cd       0.80018    0.63155    0.34701    1.000
    Cd8      Cd       0.59550    0.37502    0.45022    1.000
    Cd9      Cd       0.87565    0.46383    0.27917    1.000
    O13      O        0.82073    0.47081    0.35366    1.000
    O14      O        0.65965    0.50180    0.38095    1.000
    O15      O        0.81540    0.37369    0.28763    1.000
    O16      O        0.68205    0.10763    0.22854    1.000
    O17      O        0.61402    0.36840    0.37575    1.000
    O18      O        0.61515    0.11850    0.24839    1.000
    N33      N        0.89141    0.08480    0.38885    1.000
    N34      N        0.78566    0.11500    0.21293    1.000
    N35      N        0.68573    0.38420    0.50803    1.000
    N36      N        0.76963    0.43290    0.54515    1.000
    N37      N        0.80716    0.79320    0.34809    1.000
    N38      N        0.93119    0.96700    0.34898    1.000
    N39      N        0.86414    0.42260    0.56286    1.000
    N40      N        0.79695    0.61310    0.42796    1.000
    N41      N        0.80737    0.55960    0.50783    1.000
    N42      N        0.85110    0.06090    0.28800    1.000
    N43      N        0.91639    0.13460    0.47294    1.000
    N44      N        0.83656    0.55160    0.60775    1.000
    N45      N        0.84296    0.93480    0.34926    1.000
    N46      N        0.01266    0.90810    0.38753    1.000
    N47      N        0.86277    0.57640    0.69535    1.000
    N48      N        0.90410    0.28950    0.55661    1.000
    C67      C        0.77586    0.86260    0.35464    1.000
    H55      H        0.74470    0.85160    0.35750    1.000
    C68      C        0.98877    0.87950    0.33478    1.000
    H56      H        0.00420    0.84160    0.31810    1.000
    C69      C        0.72753    0.27840    0.28640    1.000
    H57      H        0.74480    0.24930    0.26840    1.000
    C70      C        0.67506    0.36690    0.33886    1.000
    C71      C        0.68013    0.24090    0.28201    1.000
    C72      C        0.76522    0.35700    0.57506    1.000
    H58      H        0.79260    0.33020    0.60530    1.000
    C73      C        0.65716    0.15110    0.25026    1.000
    C74      C        0.64662    0.41520    0.36717    1.000
    C75      C        0.79918    0.40460    0.32044    1.000
    C76      C        0.93921    0.91520    0.31086    1.000
    H59      H        0.91490    0.90640    0.27510    1.000
    C77      C        0.97688    0.95880    0.39404    1.000
    H60      H        0.98250    0.98650    0.42670    1.000
    C78      C        0.65415    0.28520    0.30852    1.000
    H61      H        0.62260    0.25990    0.30590    1.000
    C79      C        0.83627    0.52100    0.65366    1.000
    H62      H        0.81890    0.46570    0.65580    1.000
    C80      C        0.94146    0.35390    0.58750    1.000
    H63      H        0.97780    0.34330    0.60320    1.000
    C81      C        0.81728    0.54630    0.46478    1.000
    H64      H        0.83660    0.49490    0.46150    1.000
    C82      C        0.79759    0.94960    0.35622    1.000
    H65      H        0.78460    0.00800    0.36100    1.000
    C83      C        0.72290    0.40360    0.34391    1.000
    H66      H        0.73730    0.45760    0.36490    1.000
    C84      C        0.86630    0.63430    0.62223    1.000
    H67      H        0.87420    0.67310    0.59950    1.000
    C85      C        0.84634    0.83980    0.34496    1.000
    H68      H        0.87350    0.81000    0.34030    1.000
    C86      C        0.90197    0.06140    0.44001    1.000
    H69      H        0.89930    0.99950    0.45080    1.000
    C87      C        0.79865    0.06550    0.25744    1.000
    H70      H        0.77410    0.03680    0.26670    1.000
    C88      C        0.87258    0.11330    0.26057    1.000
    H71      H        0.90830    0.12550    0.27160    1.000
    C89      C        0.88166    0.64860    0.67536    1.000
    H72      H        0.90200    0.69970    0.69530    1.000
    C90      C        0.71418    0.32880    0.55260    1.000
    H73      H        0.70040    0.27970    0.56530    1.000
    C91      C        0.89918    0.18180    0.38986    1.000
    H74      H        0.89520    0.21990    0.36080    1.000
    C92      C        0.72015    0.44440    0.50542    1.000
    H75      H        0.71130    0.49080    0.47870    1.000
    C93      C        0.77700    0.64080    0.49599    1.000
    H76      H        0.76300    0.66880    0.51740    1.000
    C94      C        0.85844    0.33330    0.54300    1.000
    H77      H        0.82580    0.30540    0.52190    1.000
    C95      C        0.91799    0.43520    0.59200    1.000
    H78      H        0.93500    0.48950    0.61120    1.000
    C96      C        0.77120    0.67250    0.44758    1.000
    H79      H        0.75240    0.72680    0.43020    1.000
    C97      C        0.83212    0.14380    0.21457    1.000
    H80      H        0.83560    0.17940    0.18800    1.000
    C98      C        0.91360    0.21160    0.44074    1.000
    H81      H        0.92060    0.27460    0.45240    1.000
    C99      C        0.74922    0.35960    0.31765    1.000
    B5       B        0.81941    0.49210    0.55560    1.000
    B6       B        0.87916    0.01260    0.34336    1.000
    Cd10     Cd       0.30018    0.13155    0.34701    1.000
    Cd11     Cd       0.09550    0.87502    0.45022    1.000
    Cd12     Cd       0.37565    0.96383    0.27917    1.000
    O19      O        0.32073    0.97081    0.35366    1.000
    O20      O        0.15965    0.00180    0.38095    1.000
    O21      O        0.31540    0.87369    0.28763    1.000
    O22      O        0.18205    0.60763    0.22854    1.000
    O23      O        0.11402    0.86840    0.37575    1.000
    O24      O        0.11515    0.61850    0.24839    1.000
    N49      N        0.39141    0.58480    0.38885    1.000
    N50      N        0.28566    0.61500    0.21293    1.000
    N51      N        0.18573    0.88420    0.50803    1.000
    N52      N        0.26963    0.93290    0.54515    1.000
    N53      N        0.30716    0.29320    0.34809    1.000
    N54      N        0.43119    0.46700    0.34898    1.000
    N55      N        0.36414    0.92260    0.56286    1.000
    N56      N        0.29695    0.11310    0.42796    1.000
    N57      N        0.30737    0.05960    0.50783    1.000
    N58      N        0.35110    0.56090    0.28800    1.000
    N59      N        0.41639    0.63460    0.47294    1.000
    N60      N        0.33656    0.05160    0.60775    1.000
    N61      N        0.34296    0.43480    0.34926    1.000
    N62      N        0.51266    0.40810    0.38753    1.000
    N63      N        0.36277    0.07640    0.69535    1.000
    N64      N        0.40410    0.78950    0.55661    1.000
    C100     C        0.27586    0.36260    0.35464    1.000
    H82      H        0.24470    0.35160    0.35750    1.000
    C101     C        0.48877    0.37950    0.33478    1.000
    H83      H        0.50420    0.34160    0.31810    1.000
    C102     C        0.22753    0.77840    0.28640    1.000
    H84      H        0.24480    0.74930    0.26840    1.000
    C103     C        0.17506    0.86690    0.33886    1.000
    C104     C        0.18013    0.74090    0.28201    1.000
    C105     C        0.26522    0.85700    0.57506    1.000
    H85      H        0.29260    0.83020    0.60530    1.000
    C106     C        0.15716    0.65110    0.25026    1.000
    C107     C        0.14662    0.91520    0.36717    1.000
    C108     C        0.29918    0.90460    0.32044    1.000
    C109     C        0.43921    0.41520    0.31086    1.000
    H86      H        0.41490    0.40640    0.27510    1.000
    C110     C        0.47688    0.45880    0.39404    1.000
    H87      H        0.48250    0.48650    0.42670    1.000
    C111     C        0.15415    0.78520    0.30852    1.000
    H88      H        0.12260    0.75990    0.30590    1.000
    C112     C        0.33627    0.02100    0.65366    1.000
    H89      H        0.31890    0.96570    0.65580    1.000
    C113     C        0.44146    0.85390    0.58750    1.000
    H90      H        0.47780    0.84330    0.60320    1.000
    C114     C        0.31728    0.04630    0.46478    1.000
    H91      H        0.33660    0.99490    0.46150    1.000
    C115     C        0.29759    0.44960    0.35622    1.000
    H92      H        0.28460    0.50800    0.36100    1.000
    C116     C        0.22290    0.90360    0.34391    1.000
    H93      H        0.23730    0.95760    0.36490    1.000
    C117     C        0.36630    0.13430    0.62223    1.000
    H94      H        0.37420    0.17310    0.59950    1.000
    C118     C        0.34634    0.33980    0.34496    1.000
    H95      H        0.37350    0.31000    0.34030    1.000
    C119     C        0.40197    0.56140    0.44001    1.000
    H96      H        0.39930    0.49950    0.45080    1.000
    C120     C        0.29865    0.56550    0.25744    1.000
    H97      H        0.27410    0.53680    0.26670    1.000
    C121     C        0.37258    0.61330    0.26057    1.000
    H98      H        0.40830    0.62550    0.27160    1.000
    C122     C        0.38166    0.14860    0.67536    1.000
    H99      H        0.40200    0.19970    0.69530    1.000
    C123     C        0.21418    0.82880    0.55260    1.000
    H100     H        0.20040    0.77970    0.56530    1.000
    C124     C        0.39918    0.68180    0.38986    1.000
    H101     H        0.39520    0.71990    0.36080    1.000
    C125     C        0.22015    0.94440    0.50542    1.000
    H102     H        0.21130    0.99080    0.47870    1.000
    C126     C        0.27700    0.14080    0.49599    1.000
    H103     H        0.26300    0.16880    0.51740    1.000
    C127     C        0.35844    0.83330    0.54300    1.000
    H104     H        0.32580    0.80540    0.52190    1.000
    C128     C        0.41799    0.93520    0.59200    1.000
    H105     H        0.43500    0.98950    0.61120    1.000
    C129     C        0.27120    0.17250    0.44758    1.000
    H106     H        0.25240    0.22680    0.43020    1.000
    C130     C        0.33212    0.64380    0.21457    1.000
    H107     H        0.33560    0.67940    0.18800    1.000
    C131     C        0.41360    0.71160    0.44074    1.000
    H108     H        0.42060    0.77460    0.45240    1.000
    C132     C        0.24922    0.85960    0.31765    1.000
    B7       B        0.31941    0.99210    0.55560    1.000
    B8       B        0.37916    0.51260    0.34336    1.000
    Cd13     Cd       0.80018    0.36845    0.84701    1.000
    Cd14     Cd       0.59550    0.62498    0.95022    1.000
    Cd15     Cd       0.87565    0.53617    0.77917    1.000
    O25      O        0.82073    0.52919    0.85366    1.000
    O26      O        0.65965    0.49820    0.88095    1.000
    O27      O        0.81540    0.62631    0.78763    1.000
    O28      O        0.68205    0.89237    0.72854    1.000
    O29      O        0.61402    0.63160    0.87575    1.000
    O30      O        0.61515    0.88150    0.74839    1.000
    N65      N        0.89141    0.91520    0.88885    1.000
    N66      N        0.78566    0.88500    0.71293    1.000
    N67      N        0.68573    0.61580    0.00803    1.000
    N68      N        0.76963    0.56710    0.04515    1.000
    N69      N        0.80716    0.20680    0.84809    1.000
    N70      N        0.93119    0.03300    0.84898    1.000
    N71      N        0.86414    0.57740    0.06286    1.000
    N72      N        0.79695    0.38690    0.92796    1.000
    N73      N        0.80737    0.44040    0.00783    1.000
    N74      N        0.85110    0.93910    0.78800    1.000
    N75      N        0.91639    0.86540    0.97294    1.000
    N76      N        0.83656    0.44840    0.10775    1.000
    N77      N        0.84296    0.06520    0.84926    1.000
    N78      N        0.01266    0.09190    0.88753    1.000
    N79      N        0.86277    0.42360    0.19535    1.000
    N80      N        0.90410    0.71050    0.05661    1.000
    C133     C        0.77586    0.13740    0.85464    1.000
    H109     H        0.74470    0.14840    0.85750    1.000
    C134     C        0.98877    0.12050    0.83478    1.000
    H110     H        0.00420    0.15840    0.81810    1.000
    C135     C        0.72753    0.72160    0.78640    1.000
    H111     H        0.74480    0.75070    0.76840    1.000
    C136     C        0.67506    0.63310    0.83886    1.000
    C137     C        0.68013    0.75910    0.78201    1.000
    C138     C        0.76522    0.64300    0.07506    1.000
    H112     H        0.79260    0.66980    0.10530    1.000
    C139     C        0.65716    0.84890    0.75026    1.000
    C140     C        0.64662    0.58480    0.86717    1.000
    C141     C        0.79918    0.59540    0.82044    1.000
    C142     C        0.93921    0.08480    0.81086    1.000
    H113     H        0.91490    0.09360    0.77510    1.000
    C143     C        0.97688    0.04120    0.89404    1.000
    H114     H        0.98250    0.01350    0.92670    1.000
    C144     C        0.65415    0.71480    0.80852    1.000
    H115     H        0.62260    0.74010    0.80590    1.000
    C145     C        0.83627    0.47900    0.15366    1.000
    H116     H        0.81890    0.53430    0.15580    1.000
    C146     C        0.94146    0.64610    0.08750    1.000
    H117     H        0.97780    0.65670    0.10320    1.000
    C147     C        0.81728    0.45370    0.96478    1.000
    H118     H        0.83660    0.50510    0.96150    1.000
    C148     C        0.79759    0.05040    0.85622    1.000
    H119     H        0.78460    0.99200    0.86100    1.000
    C149     C        0.72290    0.59640    0.84391    1.000
    H120     H        0.73730    0.54240    0.86490    1.000
    C150     C        0.86630    0.36570    0.12223    1.000
    H121     H        0.87420    0.32690    0.09950    1.000
    C151     C        0.84634    0.16020    0.84496    1.000
    H122     H        0.87350    0.19000    0.84030    1.000
    C152     C        0.90197    0.93860    0.94001    1.000
    H123     H        0.89930    0.00050    0.95080    1.000
    C153     C        0.79865    0.93450    0.75744    1.000
    H124     H        0.77410    0.96320    0.76670    1.000
    C154     C        0.87258    0.88670    0.76057    1.000
    H125     H        0.90830    0.87450    0.77160    1.000
    C155     C        0.88166    0.35140    0.17536    1.000
    H126     H        0.90200    0.30030    0.19530    1.000
    C156     C        0.71418    0.67120    0.05260    1.000
    H127     H        0.70040    0.72030    0.06530    1.000
    C157     C        0.89918    0.81820    0.88986    1.000
    H128     H        0.89520    0.78010    0.86080    1.000
    C158     C        0.72015    0.55560    0.00542    1.000
    H129     H        0.71130    0.50920    0.97870    1.000
    C159     C        0.77700    0.35920    0.99599    1.000
    H130     H        0.76300    0.33120    0.01740    1.000
    C160     C        0.85844    0.66670    0.04300    1.000
    H131     H        0.82580    0.69460    0.02190    1.000
    C161     C        0.91799    0.56480    0.09200    1.000
    H132     H        0.93500    0.51050    0.11120    1.000
    C162     C        0.77120    0.32750    0.94758    1.000
    H133     H        0.75240    0.27320    0.93020    1.000
    C163     C        0.83212    0.85620    0.71457    1.000
    H134     H        0.83560    0.82060    0.68800    1.000
    C164     C        0.91360    0.78840    0.94074    1.000
    H135     H        0.92060    0.72540    0.95240    1.000
    C165     C        0.74922    0.64040    0.81765    1.000
    B9       B        0.81941    0.50790    0.05560    1.000
    B10      B        0.87916    0.98740    0.84336    1.000
    Cd16     Cd       0.30018    0.86845    0.84701    1.000
    Cd17     Cd       0.09550    0.12498    0.95022    1.000
    Cd18     Cd       0.37565    0.03617    0.77917    1.000
    O31      O        0.32073    0.02919    0.85366    1.000
    O32      O        0.15965    0.99820    0.88095    1.000
    O33      O        0.31540    0.12631    0.78763    1.000
    O34      O        0.18205    0.39237    0.72854    1.000
    O35      O        0.11402    0.13160    0.87575    1.000
    O36      O        0.11515    0.38150    0.74839    1.000
    N81      N        0.39141    0.41520    0.88885    1.000
    N82      N        0.28566    0.38500    0.71293    1.000
    N83      N        0.18573    0.11580    0.00803    1.000
    N84      N        0.26963    0.06710    0.04515    1.000
    N85      N        0.30716    0.70680    0.84809    1.000
    N86      N        0.43119    0.53300    0.84898    1.000
    N87      N        0.36414    0.07740    0.06286    1.000
    N88      N        0.29695    0.88690    0.92796    1.000
    N89      N        0.30737    0.94040    0.00783    1.000
    N90      N        0.35110    0.43910    0.78800    1.000
    N91      N        0.41639    0.36540    0.97294    1.000
    N92      N        0.33656    0.94840    0.10775    1.000
    N93      N        0.34296    0.56520    0.84926    1.000
    N94      N        0.51266    0.59190    0.88753    1.000
    N95      N        0.36277    0.92360    0.19535    1.000
    N96      N        0.40410    0.21050    0.05661    1.000
    C166     C        0.27586    0.63740    0.85464    1.000
    H136     H        0.24470    0.64840    0.85750    1.000
    C167     C        0.48877    0.62050    0.83478    1.000
    H137     H        0.50420    0.65840    0.81810    1.000
    C168     C        0.22753    0.22160    0.78640    1.000
    H138     H        0.24480    0.25070    0.76840    1.000
    C169     C        0.17506    0.13310    0.83886    1.000
    C170     C        0.18013    0.25910    0.78201    1.000
    C171     C        0.26522    0.14300    0.07506    1.000
    H139     H        0.29260    0.16980    0.10530    1.000
    C172     C        0.15716    0.34890    0.75026    1.000
    C173     C        0.14662    0.08480    0.86717    1.000
    C174     C        0.29918    0.09540    0.82044    1.000
    C175     C        0.43921    0.58480    0.81086    1.000
    H140     H        0.41490    0.59360    0.77510    1.000
    C176     C        0.47688    0.54120    0.89404    1.000
    H141     H        0.48250    0.51350    0.92670    1.000
    C177     C        0.15415    0.21480    0.80852    1.000
    H142     H        0.12260    0.24010    0.80590    1.000
    C178     C        0.33627    0.97900    0.15366    1.000
    H143     H        0.31890    0.03430    0.15580    1.000
    C179     C        0.44146    0.14610    0.08750    1.000
    H144     H        0.47780    0.15670    0.10320    1.000
    C180     C        0.31728    0.95370    0.96478    1.000
    H145     H        0.33660    0.00510    0.96150    1.000
    C181     C        0.29759    0.55040    0.85622    1.000
    H146     H        0.28460    0.49200    0.86100    1.000
    C182     C        0.22290    0.09640    0.84391    1.000
    H147     H        0.23730    0.04240    0.86490    1.000
    C183     C        0.36630    0.86570    0.12223    1.000
    H148     H        0.37420    0.82690    0.09950    1.000
    C184     C        0.34634    0.66020    0.84496    1.000
    H149     H        0.37350    0.69000    0.84030    1.000
    C185     C        0.40197    0.43860    0.94001    1.000
    H150     H        0.39930    0.50050    0.95080    1.000
    C186     C        0.29865    0.43450    0.75744    1.000
    H151     H        0.27410    0.46320    0.76670    1.000
    C187     C        0.37258    0.38670    0.76057    1.000
    H152     H        0.40830    0.37450    0.77160    1.000
    C188     C        0.38166    0.85140    0.17536    1.000
    H153     H        0.40200    0.80030    0.19530    1.000
    C189     C        0.21418    0.17120    0.05260    1.000
    H154     H        0.20040    0.22030    0.06530    1.000
    C190     C        0.39918    0.31820    0.88986    1.000
    H155     H        0.39520    0.28010    0.86080    1.000
    C191     C        0.22015    0.05560    0.00542    1.000
    H156     H        0.21130    0.00920    0.97870    1.000
    C192     C        0.27700    0.85920    0.99599    1.000
    H157     H        0.26300    0.83120    0.01740    1.000
    C193     C        0.35844    0.16670    0.04300    1.000
    H158     H        0.32580    0.19460    0.02190    1.000
    C194     C        0.41799    0.06480    0.09200    1.000
    H159     H        0.43500    0.01050    0.11120    1.000
    C195     C        0.27120    0.82750    0.94758    1.000
    H160     H        0.25240    0.77320    0.93020    1.000
    C196     C        0.33212    0.35620    0.71457    1.000
    H161     H        0.33560    0.32060    0.68800    1.000
    C197     C        0.41360    0.28840    0.94074    1.000
    H162     H        0.42060    0.22540    0.95240    1.000
    C198     C        0.24922    0.14040    0.81765    1.000
    B11      B        0.31941    0.00790    0.05560    1.000
    B12      B        0.37916    0.48740    0.84336    1.000
    Cd19     Cd       0.19982    0.36845    0.65299    1.000
    Cd20     Cd       0.40450    0.62498    0.54978    1.000
    Cd21     Cd       0.12435    0.53617    0.72083    1.000
    O37      O        0.17927    0.52919    0.64634    1.000
    O38      O        0.34035    0.49820    0.61905    1.000
    O39      O        0.18460    0.62631    0.71237    1.000
    O40      O        0.31795    0.89237    0.77146    1.000
    O41      O        0.38598    0.63160    0.62425    1.000
    O42      O        0.38485    0.88150    0.75161    1.000
    N97      N        0.10859    0.91520    0.61115    1.000
    N98      N        0.21434    0.88500    0.78707    1.000
    N99      N        0.31427    0.61580    0.49197    1.000
    N100     N        0.23037    0.56710    0.45485    1.000
    N101     N        0.19284    0.20680    0.65191    1.000
    N102     N        0.06881    0.03300    0.65102    1.000
    N103     N        0.13586    0.57740    0.43714    1.000
    N104     N        0.20305    0.38690    0.57204    1.000
    N105     N        0.19263    0.44040    0.49217    1.000
    N106     N        0.14890    0.93910    0.71200    1.000
    N107     N        0.08361    0.86540    0.52706    1.000
    N108     N        0.16344    0.44840    0.39225    1.000
    N109     N        0.15704    0.06520    0.65074    1.000
    N110     N        0.98734    0.09190    0.61247    1.000
    N111     N        0.13723    0.42360    0.30465    1.000
    N112     N        0.09590    0.71050    0.44339    1.000
    C199     C        0.22414    0.13740    0.64536    1.000
    H163     H        0.25530    0.14840    0.64250    1.000
    C200     C        0.01123    0.12050    0.66522    1.000
    H164     H        0.99580    0.15840    0.68190    1.000
    C201     C        0.27247    0.72160    0.71360    1.000
    H165     H        0.25520    0.75070    0.73160    1.000
    C202     C        0.32494    0.63310    0.66114    1.000
    C203     C        0.31987    0.75910    0.71799    1.000
    C204     C        0.23478    0.64300    0.42494    1.000
    H166     H        0.20740    0.66980    0.39470    1.000
    C205     C        0.34284    0.84890    0.74974    1.000
    C206     C        0.35338    0.58480    0.63283    1.000
    C207     C        0.20082    0.59540    0.67956    1.000
    C208     C        0.06079    0.08480    0.68914    1.000
    H167     H        0.08510    0.09360    0.72490    1.000
    C209     C        0.02312    0.04120    0.60596    1.000
    H168     H        0.01750    0.01350    0.57330    1.000
    C210     C        0.34585    0.71480    0.69148    1.000
    H169     H        0.37740    0.74010    0.69410    1.000
    C211     C        0.16373    0.47900    0.34634    1.000
    H170     H        0.18110    0.53430    0.34420    1.000
    C212     C        0.05854    0.64610    0.41250    1.000
    H171     H        0.02220    0.65670    0.39680    1.000
    C213     C        0.18272    0.45370    0.53522    1.000
    H172     H        0.16340    0.50510    0.53850    1.000
    C214     C        0.20241    0.05040    0.64378    1.000
    H173     H        0.21540    0.99200    0.63900    1.000
    C215     C        0.27710    0.59640    0.65609    1.000
    H174     H        0.26270    0.54240    0.63510    1.000
    C216     C        0.13370    0.36570    0.37777    1.000
    H175     H        0.12580    0.32690    0.40050    1.000
    C217     C        0.15366    0.16020    0.65504    1.000
    H176     H        0.12650    0.19000    0.65970    1.000
    C218     C        0.09803    0.93860    0.55999    1.000
    H177     H        0.10070    0.00050    0.54920    1.000
    C219     C        0.20135    0.93450    0.74256    1.000
    H178     H        0.22590    0.96320    0.73330    1.000
    C220     C        0.12742    0.88670    0.73943    1.000
    H179     H        0.09170    0.87450    0.72840    1.000
    C221     C        0.11834    0.35140    0.32464    1.000
    H180     H        0.09800    0.30030    0.30470    1.000
    C222     C        0.28582    0.67120    0.44740    1.000
    H181     H        0.29960    0.72030    0.43470    1.000
    C223     C        0.10082    0.81820    0.61014    1.000
    H182     H        0.10480    0.78010    0.63920    1.000
    C224     C        0.27985    0.55560    0.49458    1.000
    H183     H        0.28870    0.50920    0.52130    1.000
    C225     C        0.22300    0.35920    0.50401    1.000
    H184     H        0.23700    0.33120    0.48260    1.000
    C226     C        0.14156    0.66670    0.45700    1.000
    H185     H        0.17420    0.69460    0.47810    1.000
    C227     C        0.08201    0.56480    0.40800    1.000
    H186     H        0.06500    0.51050    0.38880    1.000
    C228     C        0.22880    0.32750    0.55242    1.000
    H187     H        0.24760    0.27320    0.56980    1.000
    C229     C        0.16788    0.85620    0.78543    1.000
    H188     H        0.16440    0.82060    0.81200    1.000
    C230     C        0.08640    0.78840    0.55926    1.000
    H189     H        0.07940    0.72540    0.54760    1.000
    C231     C        0.25078    0.64040    0.68235    1.000
    B13      B        0.18059    0.50790    0.44440    1.000
    B14      B        0.12084    0.98740    0.65664    1.000
    Cd22     Cd       0.69982    0.86845    0.65299    1.000
    Cd23     Cd       0.90450    0.12498    0.54978    1.000
    Cd24     Cd       0.62435    0.03617    0.72083    1.000
    O43      O        0.67927    0.02919    0.64634    1.000
    O44      O        0.84035    0.99820    0.61905    1.000
    O45      O        0.68460    0.12631    0.71237    1.000
    O46      O        0.81795    0.39237    0.77146    1.000
    O47      O        0.88598    0.13160    0.62425    1.000
    O48      O        0.88485    0.38150    0.75161    1.000
    N113     N        0.60859    0.41520    0.61115    1.000
    N114     N        0.71434    0.38500    0.78707    1.000
    N115     N        0.81427    0.11580    0.49197    1.000
    N116     N        0.73037    0.06710    0.45485    1.000
    N117     N        0.69284    0.70680    0.65191    1.000
    N118     N        0.56881    0.53300    0.65102    1.000
    N119     N        0.63586    0.07740    0.43714    1.000
    N120     N        0.70305    0.88690    0.57204    1.000
    N121     N        0.69263    0.94040    0.49217    1.000
    N122     N        0.64890    0.43910    0.71200    1.000
    N123     N        0.58361    0.36540    0.52706    1.000
    N124     N        0.66344    0.94840    0.39225    1.000
    N125     N        0.65704    0.56520    0.65074    1.000
    N126     N        0.48734    0.59190    0.61247    1.000
    N127     N        0.63723    0.92360    0.30465    1.000
    N128     N        0.59590    0.21050    0.44339    1.000
    C232     C        0.72414    0.63740    0.64536    1.000
    H190     H        0.75530    0.64840    0.64250    1.000
    C233     C        0.51123    0.62050    0.66522    1.000
    H191     H        0.49580    0.65840    0.68190    1.000
    C234     C        0.77247    0.22160    0.71360    1.000
    H192     H        0.75520    0.25070    0.73160    1.000
    C235     C        0.82494    0.13310    0.66114    1.000
    C236     C        0.81987    0.25910    0.71799    1.000
    C237     C        0.73478    0.14300    0.42494    1.000
    H193     H        0.70740    0.16980    0.39470    1.000
    C238     C        0.84284    0.34890    0.74974    1.000
    C239     C        0.85338    0.08480    0.63283    1.000
    C240     C        0.70082    0.09540    0.67956    1.000
    C241     C        0.56079    0.58480    0.68914    1.000
    H194     H        0.58510    0.59360    0.72490    1.000
    C242     C        0.52312    0.54120    0.60596    1.000
    H195     H        0.51750    0.51350    0.57330    1.000
    C243     C        0.84585    0.21480    0.69148    1.000
    H196     H        0.87740    0.24010    0.69410    1.000
    C244     C        0.66373    0.97900    0.34634    1.000
    H197     H        0.68110    0.03430    0.34420    1.000
    C245     C        0.55854    0.14610    0.41250    1.000
    H198     H        0.52220    0.15670    0.39680    1.000
    C246     C        0.68272    0.95370    0.53522    1.000
    H199     H        0.66340    0.00510    0.53850    1.000
    C247     C        0.70241    0.55040    0.64378    1.000
    H200     H        0.71540    0.49200    0.63900    1.000
    C248     C        0.77710    0.09640    0.65609    1.000
    H201     H        0.76270    0.04240    0.63510    1.000
    C249     C        0.63370    0.86570    0.37777    1.000
    H202     H        0.62580    0.82690    0.40050    1.000
    C250     C        0.65366    0.66020    0.65504    1.000
    H203     H        0.62650    0.69000    0.65970    1.000
    C251     C        0.59803    0.43860    0.55999    1.000
    H204     H        0.60070    0.50050    0.54920    1.000
    C252     C        0.70135    0.43450    0.74256    1.000
    H205     H        0.72590    0.46320    0.73330    1.000
    C253     C        0.62742    0.38670    0.73943    1.000
    H206     H        0.59170    0.37450    0.72840    1.000
    C254     C        0.61834    0.85140    0.32464    1.000
    H207     H        0.59800    0.80030    0.30470    1.000
    C255     C        0.78582    0.17120    0.44740    1.000
    H208     H        0.79960    0.22030    0.43470    1.000
    C256     C        0.60082    0.31820    0.61014    1.000
    H209     H        0.60480    0.28010    0.63920    1.000
    C257     C        0.77985    0.05560    0.49458    1.000
    H210     H        0.78870    0.00920    0.52130    1.000
    C258     C        0.72300    0.85920    0.50401    1.000
    H211     H        0.73700    0.83120    0.48260    1.000
    C259     C        0.64156    0.16670    0.45700    1.000
    H212     H        0.67420    0.19460    0.47810    1.000
    C260     C        0.58201    0.06480    0.40800    1.000
    H213     H        0.56500    0.01050    0.38880    1.000
    C261     C        0.72880    0.82750    0.55242    1.000
    H214     H        0.74760    0.77320    0.56980    1.000
    C262     C        0.66788    0.35620    0.78543    1.000
    H215     H        0.66440    0.32060    0.81200    1.000
    C263     C        0.58640    0.28840    0.55926    1.000
    H216     H        0.57940    0.22540    0.54760    1.000
    C264     C        0.75078    0.14040    0.68235    1.000
    B15      B        0.68059    0.00790    0.44440    1.000
    B16      B        0.62084    0.48740    0.65664    1.000
