# CIF file generated by openbabel 3.1.0, see https://openbabel.org
data_I
_chemical_name_common 'image0'
_cell_length_a 21.8891
_cell_length_b 9.107
_cell_length_c 32.038
_cell_angle_alpha 90
_cell_angle_beta 124.121
_cell_angle_gamma 90
_space_group_name_H-M_alt 'P 1'
_space_group_name_Hall 'P 1'
loop_
    _symmetry_equiv_pos_as_xyz
    x,y,z
loop_
    _atom_site_label
    _atom_site_type_symbol
    _atom_site_fract_x
    _atom_site_fract_y
    _atom_site_fract_z
    _atom_site_occupancy
    C1       C        0.30740    0.72540    0.34260    1.000
    C2       C        0.57130    0.90770    0.41640    1.000
    O1       O        0.89570    0.91830    0.45130    1.000
    Tb1      Tb       0.98233    0.79816    0.44478    1.000
    O2       O        0.01300    0.05030    0.08260    1.000
    C3       C        0.29570    0.20940    0.39620    1.000
    H1       H        0.30670    0.30990    0.39560    1.000
    O3       O        0.05060    0.56580    0.46250    1.000
    C4       C        0.20170    0.28410    0.41490    1.000
    O4       O        0.09570    0.89460    0.13950    1.000
    C5       C        0.07500    0.28400    0.15530    1.000
    H2       H        0.02950    0.30490    0.12440    1.000
    N1       N        0.35020    0.84050    0.37530    1.000
    O5       O        0.90380    0.12200    0.49310    1.000
    O6       O        0.04730    0.71820    0.40710    1.000
    C6       C        0.06760    0.02290    0.12670    1.000
    C7       C        0.79190    0.98640    0.45340    1.000
    C8       C        0.64710    0.93040    0.42710    1.000
    C9       C        0.11860    0.49120    0.42790    1.000
    C10      C        0.18590    0.26580    0.44980    1.000
    H3       H        0.20410    0.18100    0.47070    1.000
    C11      C        0.31720    0.95330    0.38770    1.000
    C12      C        0.10290    0.14440    0.16530    1.000
    C13      C        0.48150    0.89840    0.43940    1.000
    H4       H        0.47160    0.90740    0.46460    1.000
    C14      C        0.22310    0.49210    0.27490    1.000
    C15      C        0.26620    0.91500    0.39890    1.000
    H5       H        0.25650    0.81440    0.40070    1.000
    C16      C        0.06970    0.60010    0.43180    1.000
    C17      C        0.33270    0.10040    0.38740    1.000
    H6       H        0.36880    0.12820    0.38120    1.000
    C18      C        0.20220    0.23220    0.24900    1.000
    H7       H        0.24460    0.20850    0.28130    1.000
    C19      C        0.69220    0.04860    0.46050    1.000
    H8       H        0.67290    0.10980    0.47450    1.000
    C20      C        0.42450    0.85940    0.38960    1.000
    C21      C        0.17840    0.37320    0.23850    1.000
    C22      C        0.22890    0.02500    0.40750    1.000
    H9       H        0.19350    0.99810    0.41450    1.000
    C23      C        0.11400    0.39740    0.19110    1.000
    H10      H        0.09520    0.49470    0.18230    1.000
    C24      C        0.29680    0.47730    0.31290    1.000
    H11      H        0.32020    0.38560    0.31690    1.000
    C25      C        0.24380    0.17220    0.40580    1.000
    C26      C        0.86840    0.01060    0.46580    1.000
    C27      C        0.14380    0.36710    0.45630    1.000
    H12      H        0.13280    0.34900    0.48060    1.000
    C28      C        0.67720    0.84150    0.40840    1.000
    H13      H        0.64980    0.76070    0.38730    1.000
    C29      C        0.74860    0.87030    0.42050    1.000
    H14      H        0.76810    0.81060    0.40630    1.000
    C30      C        0.13670    0.51350    0.39450    1.000
    H15      H        0.12050    0.60180    0.37550    1.000
    C31      C        0.33750    0.58940    0.34510    1.000
    H16      H        0.38840    0.57330    0.37010    1.000
    C32      C        0.76430    0.07560    0.47280    1.000
    H17      H        0.79280    0.15470    0.49440    1.000
    C33      C        0.19290    0.62980    0.27300    1.000
    H18      H        0.14190    0.64470    0.24810    1.000
    C34      C        0.51360    0.86500    0.36640    1.000
    H19      H        0.52390    0.85210    0.34150    1.000
    C35      C        0.17790    0.41420    0.38600    1.000
    H20      H        0.18920    0.43390    0.36200    1.000
    C36      C        0.23290    0.74660    0.30540    1.000
    H21      H        0.20980    0.83810    0.30220    1.000
    C37      C        0.16530    0.11980    0.21290    1.000
    H22      H        0.18420    0.02280    0.22170    1.000
    C38      C        0.44060    0.84180    0.35380    1.000
    H23      H        0.40260    0.81400    0.32040    1.000
    C39      C        0.55350    0.92400    0.45150    1.000
    H24      H        0.59100    0.95340    0.48490    1.000
    C40      C        0.69260    0.72540    0.15740    1.000
    C41      C        0.42870    0.90770    0.08360    1.000
    O7       O        0.10430    0.91830    0.04870    1.000
    Tb2      Tb       0.01767    0.79816    0.05522    1.000
    O8       O        0.98700    0.05030    0.41740    1.000
    C42      C        0.70430    0.20940    0.10380    1.000
    H25      H        0.69330    0.30990    0.10440    1.000
    O9       O        0.94940    0.56580    0.03750    1.000
    C43      C        0.79830    0.28410    0.08510    1.000
    O10      O        0.90430    0.89460    0.36050    1.000
    C44      C        0.92500    0.28400    0.34470    1.000
    H26      H        0.97050    0.30490    0.37560    1.000
    N2       N        0.64980    0.84050    0.12470    1.000
    O11      O        0.09620    0.12200    0.00690    1.000
    O12      O        0.95270    0.71820    0.09290    1.000
    C45      C        0.93240    0.02290    0.37330    1.000
    C46      C        0.20810    0.98640    0.04660    1.000
    C47      C        0.35290    0.93040    0.07290    1.000
    C48      C        0.88140    0.49120    0.07210    1.000
    C49      C        0.81410    0.26580    0.05020    1.000
    H27      H        0.79590    0.18100    0.02930    1.000
    C50      C        0.68280    0.95330    0.11230    1.000
    C51      C        0.89710    0.14440    0.33470    1.000
    C52      C        0.51850    0.89840    0.06060    1.000
    H28      H        0.52840    0.90740    0.03540    1.000
    C53      C        0.77690    0.49210    0.22510    1.000
    C54      C        0.73380    0.91500    0.10110    1.000
    H29      H        0.74350    0.81440    0.09930    1.000
    C55      C        0.93030    0.60010    0.06820    1.000
    C56      C        0.66730    0.10040    0.11260    1.000
    H30      H        0.63120    0.12820    0.11880    1.000
    C57      C        0.79780    0.23220    0.25100    1.000
    H31      H        0.75540    0.20850    0.21870    1.000
    C58      C        0.30780    0.04860    0.03950    1.000
    H32      H        0.32710    0.10980    0.02550    1.000
    C59      C        0.57550    0.85940    0.11040    1.000
    C60      C        0.82160    0.37320    0.26150    1.000
    C61      C        0.77110    0.02500    0.09250    1.000
    H33      H        0.80650    0.99810    0.08550    1.000
    C62      C        0.88600    0.39740    0.30890    1.000
    H34      H        0.90480    0.49470    0.31770    1.000
    C63      C        0.70320    0.47730    0.18710    1.000
    H35      H        0.67980    0.38560    0.18310    1.000
    C64      C        0.75620    0.17220    0.09420    1.000
    C65      C        0.13160    0.01060    0.03420    1.000
    C66      C        0.85620    0.36710    0.04370    1.000
    H36      H        0.86720    0.34900    0.01940    1.000
    C67      C        0.32280    0.84150    0.09160    1.000
    H37      H        0.35020    0.76070    0.11270    1.000
    C68      C        0.25140    0.87030    0.07950    1.000
    H38      H        0.23190    0.81060    0.09370    1.000
    C69      C        0.86330    0.51350    0.10550    1.000
    H39      H        0.87950    0.60180    0.12450    1.000
    C70      C        0.66250    0.58940    0.15490    1.000
    H40      H        0.61160    0.57330    0.12990    1.000
    C71      C        0.23570    0.07560    0.02720    1.000
    H41      H        0.20720    0.15470    0.00560    1.000
    C72      C        0.80710    0.62980    0.22700    1.000
    H42      H        0.85810    0.64470    0.25190    1.000
    C73      C        0.48640    0.86500    0.13360    1.000
    H43      H        0.47610    0.85210    0.15850    1.000
    C74      C        0.82210    0.41420    0.11400    1.000
    H44      H        0.81080    0.43390    0.13800    1.000
    C75      C        0.76710    0.74660    0.19460    1.000
    H45      H        0.79020    0.83810    0.19780    1.000
    C76      C        0.83470    0.11980    0.28710    1.000
    H46      H        0.81580    0.02280    0.27830    1.000
    C77      C        0.55940    0.84180    0.14620    1.000
    H47      H        0.59740    0.81400    0.17960    1.000
    C78      C        0.44650    0.92400    0.04850    1.000
    H48      H        0.40900    0.95340    0.01510    1.000
    C79      C        0.69260    0.27460    0.65740    1.000
    C80      C        0.42870    0.09230    0.58360    1.000
    O13      O        0.10430    0.08170    0.54870    1.000
    Tb3      Tb       0.01767    0.20184    0.55522    1.000
    O14      O        0.98700    0.94970    0.91740    1.000
    C81      C        0.70430    0.79060    0.60380    1.000
    H49      H        0.69330    0.69010    0.60440    1.000
    O15      O        0.94940    0.43420    0.53750    1.000
    C82      C        0.79830    0.71590    0.58510    1.000
    O16      O        0.90430    0.10540    0.86050    1.000
    C83      C        0.92500    0.71600    0.84470    1.000
    H50      H        0.97050    0.69510    0.87560    1.000
    N3       N        0.64980    0.15950    0.62470    1.000
    O17      O        0.09620    0.87800    0.50690    1.000
    O18      O        0.95270    0.28180    0.59290    1.000
    C84      C        0.93240    0.97710    0.87330    1.000
    C85      C        0.20810    0.01360    0.54660    1.000
    C86      C        0.35290    0.06960    0.57290    1.000
    C87      C        0.88140    0.50880    0.57210    1.000
    C88      C        0.81410    0.73420    0.55020    1.000
    H51      H        0.79590    0.81900    0.52930    1.000
    C89      C        0.68280    0.04670    0.61230    1.000
    C90      C        0.89710    0.85560    0.83470    1.000
    C91      C        0.51850    0.10160    0.56060    1.000
    H52      H        0.52840    0.09260    0.53540    1.000
    C92      C        0.77690    0.50790    0.72510    1.000
    C93      C        0.73380    0.08500    0.60110    1.000
    H53      H        0.74350    0.18560    0.59930    1.000
    C94      C        0.93030    0.39990    0.56820    1.000
    C95      C        0.66730    0.89960    0.61260    1.000
    H54      H        0.63120    0.87180    0.61880    1.000
    C96      C        0.79780    0.76780    0.75100    1.000
    H55      H        0.75540    0.79150    0.71870    1.000
    C97      C        0.30780    0.95140    0.53950    1.000
    H56      H        0.32710    0.89020    0.52550    1.000
    C98      C        0.57550    0.14060    0.61040    1.000
    C99      C        0.82160    0.62680    0.76150    1.000
    C100     C        0.77110    0.97500    0.59250    1.000
    H57      H        0.80650    0.00190    0.58550    1.000
    C101     C        0.88600    0.60260    0.80890    1.000
    H58      H        0.90480    0.50530    0.81770    1.000
    C102     C        0.70320    0.52270    0.68710    1.000
    H59      H        0.67980    0.61440    0.68310    1.000
    C103     C        0.75620    0.82780    0.59420    1.000
    C104     C        0.13160    0.98940    0.53420    1.000
    C105     C        0.85620    0.63290    0.54370    1.000
    H60      H        0.86720    0.65100    0.51940    1.000
    C106     C        0.32280    0.15850    0.59160    1.000
    H61      H        0.35020    0.23930    0.61270    1.000
    C107     C        0.25140    0.12970    0.57950    1.000
    H62      H        0.23190    0.18940    0.59370    1.000
    C108     C        0.86330    0.48650    0.60550    1.000
    H63      H        0.87950    0.39820    0.62450    1.000
    C109     C        0.66250    0.41060    0.65490    1.000
    H64      H        0.61160    0.42670    0.62990    1.000
    C110     C        0.23570    0.92440    0.52720    1.000
    H65      H        0.20720    0.84530    0.50560    1.000
    C111     C        0.80710    0.37020    0.72700    1.000
    H66      H        0.85810    0.35530    0.75190    1.000
    C112     C        0.48640    0.13500    0.63360    1.000
    H67      H        0.47610    0.14790    0.65850    1.000
    C113     C        0.82210    0.58580    0.61400    1.000
    H68      H        0.81080    0.56610    0.63800    1.000
    C114     C        0.76710    0.25340    0.69460    1.000
    H69      H        0.79020    0.16190    0.69780    1.000
    C115     C        0.83470    0.88020    0.78710    1.000
    H70      H        0.81580    0.97720    0.77830    1.000
    C116     C        0.55940    0.15820    0.64620    1.000
    H71      H        0.59740    0.18600    0.67960    1.000
    C117     C        0.44650    0.07600    0.54850    1.000
    H72      H        0.40900    0.04660    0.51510    1.000
    C118     C        0.30740    0.27460    0.84260    1.000
    C119     C        0.57130    0.09230    0.91640    1.000
    O19      O        0.89570    0.08170    0.95130    1.000
    Tb4      Tb       0.98233    0.20184    0.94478    1.000
    O20      O        0.01300    0.94970    0.58260    1.000
    C120     C        0.29570    0.79060    0.89620    1.000
    H73      H        0.30670    0.69010    0.89560    1.000
    O21      O        0.05060    0.43420    0.96250    1.000
    C121     C        0.20170    0.71590    0.91490    1.000
    O22      O        0.09570    0.10540    0.63950    1.000
    C122     C        0.07500    0.71600    0.65530    1.000
    H74      H        0.02950    0.69510    0.62440    1.000
    N4       N        0.35020    0.15950    0.87530    1.000
    O23      O        0.90380    0.87800    0.99310    1.000
    O24      O        0.04730    0.28180    0.90710    1.000
    C123     C        0.06760    0.97710    0.62670    1.000
    C124     C        0.79190    0.01360    0.95340    1.000
    C125     C        0.64710    0.06960    0.92710    1.000
    C126     C        0.11860    0.50880    0.92790    1.000
    C127     C        0.18590    0.73420    0.94980    1.000
    H75      H        0.20410    0.81900    0.97070    1.000
    C128     C        0.31720    0.04670    0.88770    1.000
    C129     C        0.10290    0.85560    0.66530    1.000
    C130     C        0.48150    0.10160    0.93940    1.000
    H76      H        0.47160    0.09260    0.96460    1.000
    C131     C        0.22310    0.50790    0.77490    1.000
    C132     C        0.26620    0.08500    0.89890    1.000
    H77      H        0.25650    0.18560    0.90070    1.000
    C133     C        0.06970    0.39990    0.93180    1.000
    C134     C        0.33270    0.89960    0.88740    1.000
    H78      H        0.36880    0.87180    0.88120    1.000
    C135     C        0.20220    0.76780    0.74900    1.000
    H79      H        0.24460    0.79150    0.78130    1.000
    C136     C        0.69220    0.95140    0.96050    1.000
    H80      H        0.67290    0.89020    0.97450    1.000
    C137     C        0.42450    0.14060    0.88960    1.000
    C138     C        0.17840    0.62680    0.73850    1.000
    C139     C        0.22890    0.97500    0.90750    1.000
    H81      H        0.19350    0.00190    0.91450    1.000
    C140     C        0.11400    0.60260    0.69110    1.000
    H82      H        0.09520    0.50530    0.68230    1.000
    C141     C        0.29680    0.52270    0.81290    1.000
    H83      H        0.32020    0.61440    0.81690    1.000
    C142     C        0.24380    0.82780    0.90580    1.000
    C143     C        0.86840    0.98940    0.96580    1.000
    C144     C        0.14380    0.63290    0.95630    1.000
    H84      H        0.13280    0.65100    0.98060    1.000
    C145     C        0.67720    0.15850    0.90840    1.000
    H85      H        0.64980    0.23930    0.88730    1.000
    C146     C        0.74860    0.12970    0.92050    1.000
    H86      H        0.76810    0.18940    0.90630    1.000
    C147     C        0.13670    0.48650    0.89450    1.000
    H87      H        0.12050    0.39820    0.87550    1.000
    C148     C        0.33750    0.41060    0.84510    1.000
    H88      H        0.38840    0.42670    0.87010    1.000
    C149     C        0.76430    0.92440    0.97280    1.000
    H89      H        0.79280    0.84530    0.99440    1.000
    C150     C        0.19290    0.37020    0.77300    1.000
    H90      H        0.14190    0.35530    0.74810    1.000
    C151     C        0.51360    0.13500    0.86640    1.000
    H91      H        0.52390    0.14790    0.84150    1.000
    C152     C        0.17790    0.58580    0.88600    1.000
    H92      H        0.18920    0.56610    0.86200    1.000
    C153     C        0.23290    0.25340    0.80540    1.000
    H93      H        0.20980    0.16190    0.80220    1.000
    C154     C        0.16530    0.88020    0.71290    1.000
    H94      H        0.18420    0.97720    0.72170    1.000
    C155     C        0.44060    0.15820    0.85380    1.000
    H95      H        0.40260    0.18600    0.82040    1.000
    C156     C        0.55350    0.07600    0.95150    1.000
    H96      H        0.59100    0.04660    0.98490    1.000
