data_functionalizedCrystal
_audit_creation_method	'EQeq! by Chris Wilmer'
_symmetry_space_group_name_H-M	'P1'
_symmetry_Int_Tables_number	1
_symmetry_cell_setting	triclinic
loop_
_symmetry_equiv_pos_as_xyz
  x,y,z
_cell_length_a	9.8862
_cell_length_b	11.3577
_cell_length_c	14.4959
_cell_angle_alpha	91.2516
_cell_angle_beta	90
_cell_angle_gamma	90
loop_
_atom_site_label
_atom_site_type_symbol
_atom_site_fract_x
_atom_site_fract_y
_atom_site_fract_z
_atom_site_charge
Mof_Fe	Fe	0.91859	0.7554	0.13244	0.997
Mof_Fe	Fe	0.89455	0.26052	0.6861	0.965
Mof_Fe	Fe	0.41859	0.7446	0.36756	0.931
Mof_Fe	Fe	0.39455	0.23948	0.8139	0.929
Mof_Fe	Fe	0.08141	0.2446	0.86756	0.848
Mof_Fe	Fe	0.10545	0.73948	0.3139	0.898
Mof_Fe	Fe	0.58141	0.2554	0.63244	0.913
Mof_Fe	Fe	0.60545	0.76052	0.1861	0.932
Mof_Fe	Fe	-0	0.5	-0	0.785
Mof_Fe	Fe	0.5	0	0.5	0.879
Mof_Fe	Fe	-0	0	-0	0.724
Mof_Fe	Fe	0.5	0.5	0.5	0.951
Mof_H 	H 	0.7495	0.8592	0.3686	-0.089
Mof_H 	H 	0.0245	0.474	0.269	-0.086
Mof_H 	H 	0.6166	0.5567	0.0363	-0.08
Mof_H 	H 	0.1749	0.9889	0.2402	-0.129
Mof_H 	H 	0.1668	0.6978	0.9306	-0.101
Mof_H 	H 	0.6998	0.9838	0.9996	0.016
Mof_H 	H 	0.2495	0.6408	0.1314	-0.108
Mof_H 	H 	0.5245	0.026	0.231	-0.194
Mof_H 	H 	0.1166	0.9433	0.4637	-0.098
Mof_H 	H 	0.6749	0.5111	0.2598	-0.11
Mof_H 	H 	0.6668	0.8022	0.5694	-0.082
Mof_H 	H 	0.1998	0.5162	0.5004	-0.105
Mof_H 	H 	0.2505	0.1408	0.6314	-0.116
Mof_H 	H 	0.9755	0.526	0.731	-0.109
Mof_H 	H 	0.3834	0.4433	0.9637	-0.106
Mof_H 	H 	0.8251	0.0111	0.7598	-0.084
Mof_H 	H 	0.8332	0.3022	0.0694	-0.066
Mof_H 	H 	0.3002	0.0162	0.0004	-0.174
Mof_H 	H 	0.7505	0.3592	0.8686	-0.093
Mof_H 	H 	0.4755	0.974	0.769	0.001
Mof_H 	H 	0.8834	0.0567	0.5363	-0.092
Mof_H 	H 	0.3251	0.4889	0.7402	-0.115
Mof_H 	H 	0.3332	0.1978	0.4306	-0.108
Mof_H 	H 	0.8002	0.4838	0.4996	-0.082
Mof_C 	C 	0.8215	0.82865	0.33185	0.486
Mof_C 	C 	0.0075	0.5151	0.2138	0.392
Mof_C 	C 	0.7098	0.5745	0.0446	0.388
Mof_C 	C 	0.1202	0.9582	0.1914	0.576
Mof_C 	C 	0.1095	0.74338	0.96988	0.564
Mof_C 	C 	0.7164	0.92662	0.04512	0.351
Mof_C 	C 	0.3215	0.67135	0.16815	0.49
Mof_C 	C 	0.5075	0.9849	0.2862	0.677
Mof_C 	C 	0.2098	0.9255	0.4554	0.485
Mof_C 	C 	0.6202	0.5418	0.3086	0.503
Mof_C 	C 	0.6095	0.75662	0.53012	0.492
Mof_C 	C 	0.2164	0.57338	0.45488	0.494
Mof_C 	C 	0.1785	0.17135	0.66815	0.493
Mof_C 	C 	0.9925	0.4849	0.7862	0.584
Mof_C 	C 	0.2902	0.4255	0.9554	0.572
Mof_C 	C 	0.8798	0.0418	0.8086	0.392
Mof_C 	C 	0.8905	0.25662	0.03012	0.38
Mof_C 	C 	0.2836	0.07338	0.95488	0.585
Mof_C 	C 	0.6785	0.32865	0.83185	0.488
Mof_C 	C 	0.4925	0.0151	0.7138	0.302
Mof_C 	C 	0.7902	0.0745	0.5446	0.492
Mof_C 	C 	0.3798	0.4582	0.6914	0.503
Mof_C 	C 	0.3905	0.24338	0.46988	0.503
Mof_C 	C 	0.7836	0.42662	0.54512	0.485
Mof_O 	O 	0.79609	0.80854	0.24664	-0.458
Mof_O 	O 	0.93052	0.81223	0.37133	-0.344
Mof_O 	O 	0.00107	0.62633	0.22023	-0.476
Mof_O 	O 	0.99375	0.45524	0.14234	-0.295
Mof_O 	O 	0.7395	0.65181	0.10581	-0.442
Mof_O 	O 	0.79096	0.51991	0.99461	-0.276
Mof_O 	O 	0.07999	0.85241	0.19847	-0.511
Mof_O 	O 	0.09535	0.02458	0.12788	-0.457
Mof_O 	O 	0.0293	0.68709	0.02269	-0.534
Mof_O 	O 	0.11882	0.85078	0.96548	-0.353
Mof_O 	O 	0.83939	0.89632	0.05757	-0.398
Mof_O 	O 	0.61704	0.88876	0.08666	-0.35
Mof_O 	O 	0.29609	0.69146	0.25336	-0.467
Mof_O 	O 	0.43052	0.68777	0.12867	-0.398
Mof_O 	O 	0.50107	0.87367	0.27977	-0.514
Mof_O 	O 	0.49375	0.04476	0.35766	-0.462
Mof_O 	O 	0.2395	0.84819	0.39419	-0.463
Mof_O 	O 	0.29096	0.98009	0.50539	-0.357
Mof_O 	O 	0.57999	0.64759	0.30153	-0.471
Mof_O 	O 	0.59535	0.47542	0.37212	-0.396
Mof_O 	O 	0.5293	0.81291	0.47731	-0.453
Mof_O 	O 	0.61882	0.64922	0.53452	-0.387
Mof_O 	O 	0.33939	0.60368	0.44243	-0.471
Mof_O 	O 	0.11704	0.61124	0.41334	-0.406
Mof_O 	O 	0.20391	0.19146	0.75336	-0.479
Mof_O 	O 	0.06948	0.18777	0.62867	-0.436
Mof_O 	O 	0.99893	0.37367	0.77977	-0.46
Mof_O 	O 	0.00625	0.54476	0.85766	-0.424
Mof_O 	O 	0.2605	0.34819	0.89419	-0.48
Mof_O 	O 	0.20904	0.48009	0.00539	-0.447
Mof_O 	O 	0.92001	0.14759	0.80153	-0.414
Mof_O 	O 	0.90465	0.97542	0.87212	-0.256
Mof_O 	O 	0.9707	0.31291	0.97731	-0.341
Mof_O 	O 	0.88118	0.14922	0.03452	-0.35
Mof_O 	O 	0.16061	0.10368	0.94243	-0.467
Mof_O 	O 	0.38296	0.11124	0.91334	-0.418
Mof_O 	O 	0.70391	0.30854	0.74664	-0.47
Mof_O 	O 	0.56948	0.31223	0.87133	-0.38
Mof_O 	O 	0.49893	0.12633	0.72023	-0.428
Mof_O 	O 	0.50625	0.95524	0.64234	-0.283
Mof_O 	O 	0.7605	0.15181	0.60581	-0.468
Mof_O 	O 	0.70904	0.01991	0.49461	-0.4
Mof_O 	O 	0.42001	0.35241	0.69847	-0.474
Mof_O 	O 	0.40465	0.52458	0.62788	-0.398
Mof_O 	O 	0.4707	0.18709	0.52269	-0.469
Mof_O 	O 	0.38118	0.35078	0.46548	-0.401
Mof_O 	O 	0.66061	0.39632	0.55757	-0.463
Mof_O 	O 	0.88296	0.38876	0.58666	-0.374
_end
