# CIF file generated by openbabel 3.1.0, see https://openbabel.org
data_I
_chemical_name_common 'image0'
_cell_length_a 16.4071
_cell_length_b 11.8075
_cell_length_c 15.2832
_cell_angle_alpha 90
_cell_angle_beta 90
_cell_angle_gamma 90
_space_group_name_H-M_alt 'P 1'
_space_group_name_Hall 'P 1'
loop_
    _symmetry_equiv_pos_as_xyz
    x,y,z
loop_
    _atom_site_label
    _atom_site_type_symbol
    _atom_site_fract_x
    _atom_site_fract_y
    _atom_site_fract_z
    _atom_site_occupancy
    Zn1      Zn       0.09964    0.59755    0.17098    1.000
    O1       O        0.08580    0.34350    0.20800    1.000
    O2       O        0.14840    0.49640    0.25650    1.000
    O3       O        0.30960    0.48020    0.52670    1.000
    O4       O        0.32510    0.32150    0.59370    1.000
    O5       O        0.14540    0.04740    0.43870    1.000
    O6       O        0.06590    0.72250    0.25030    1.000
    C1       C        0.16030    0.33070    0.33680    1.000
    C2       C        0.21310    0.38110    0.40030    1.000
    H1       H        0.22770    0.45670    0.39400    1.000
    C3       C        0.24260    0.32120    0.47000    1.000
    C4       C        0.21630    0.20850    0.48140    1.000
    H2       H        0.23420    0.16780    0.52980    1.000
    C5       C        0.16570    0.15870    0.42340    1.000
    C6       C        0.13890    0.21700    0.34950    1.000
    H3       H        0.10660    0.18020    0.30830    1.000
    C7       C        0.12940    0.39630    0.26370    1.000
    C8       C        0.29810    0.37700    0.53330    1.000
    C9       C        0.07100    0.00690    0.41060    1.000
    C10      C        0.07310    0.91170    0.35590    1.000
    H4       H        0.12250    0.88130    0.33740    1.000
    Zn2      Zn       0.40036    0.40245    0.67098    1.000
    O7       O        0.41420    0.65650    0.70800    1.000
    O8       O        0.35160    0.50360    0.75650    1.000
    O9       O        0.19040    0.51980    0.02670    1.000
    O10      O        0.17490    0.67850    0.09370    1.000
    O11      O        0.35460    0.95260    0.93870    1.000
    O12      O        0.43410    0.27750    0.75030    1.000
    C11      C        0.33970    0.66930    0.83680    1.000
    C12      C        0.28690    0.61890    0.90030    1.000
    H5       H        0.27230    0.54330    0.89400    1.000
    C13      C        0.25740    0.67880    0.97000    1.000
    C14      C        0.28370    0.79150    0.98140    1.000
    H6       H        0.26580    0.83220    0.02980    1.000
    C15      C        0.33430    0.84130    0.92340    1.000
    C16      C        0.36110    0.78300    0.84950    1.000
    H7       H        0.39340    0.81980    0.80830    1.000
    C17      C        0.37060    0.60370    0.76370    1.000
    C18      C        0.20190    0.62300    0.03330    1.000
    C19      C        0.42900    0.99310    0.91060    1.000
    C20      C        0.42690    0.08830    0.85590    1.000
    H8       H        0.37750    0.11870    0.83740    1.000
    Zn3      Zn       0.59964    0.40245    0.67098    1.000
    O13      O        0.58580    0.65650    0.70800    1.000
    O14      O        0.64840    0.50360    0.75650    1.000
    O15      O        0.80960    0.51980    0.02670    1.000
    O16      O        0.82510    0.67850    0.09370    1.000
    O17      O        0.64540    0.95260    0.93870    1.000
    O18      O        0.56590    0.27750    0.75030    1.000
    C21      C        0.66030    0.66930    0.83680    1.000
    C22      C        0.71310    0.61890    0.90030    1.000
    H9       H        0.72770    0.54330    0.89400    1.000
    C23      C        0.74260    0.67880    0.97000    1.000
    C24      C        0.71630    0.79150    0.98140    1.000
    H10      H        0.73420    0.83220    0.02980    1.000
    C25      C        0.66570    0.84130    0.92340    1.000
    C26      C        0.63890    0.78300    0.84950    1.000
    H11      H        0.60660    0.81980    0.80830    1.000
    C27      C        0.62940    0.60370    0.76370    1.000
    C28      C        0.79810    0.62300    0.03330    1.000
    C29      C        0.57100    0.99310    0.91060    1.000
    C30      C        0.57310    0.08830    0.85590    1.000
    H12      H        0.62250    0.11870    0.83740    1.000
    Zn4      Zn       0.90036    0.59755    0.17098    1.000
    O19      O        0.91420    0.34350    0.20800    1.000
    O20      O        0.85160    0.49640    0.25650    1.000
    O21      O        0.69040    0.48020    0.52670    1.000
    O22      O        0.67490    0.32150    0.59370    1.000
    O23      O        0.85460    0.04740    0.43870    1.000
    O24      O        0.93410    0.72250    0.25030    1.000
    C31      C        0.83970    0.33070    0.33680    1.000
    C32      C        0.78690    0.38110    0.40030    1.000
    H13      H        0.77230    0.45670    0.39400    1.000
    C33      C        0.75740    0.32120    0.47000    1.000
    C34      C        0.78370    0.20850    0.48140    1.000
    H14      H        0.76580    0.16780    0.52980    1.000
    C35      C        0.83430    0.15870    0.42340    1.000
    C36      C        0.86110    0.21700    0.34950    1.000
    H15      H        0.89340    0.18020    0.30830    1.000
    C37      C        0.87060    0.39630    0.26370    1.000
    C38      C        0.70190    0.37700    0.53330    1.000
    C39      C        0.92900    0.00690    0.41060    1.000
    C40      C        0.92690    0.91170    0.35590    1.000
    H16      H        0.87750    0.88130    0.33740    1.000
    Zn5      Zn       0.00000    0.35077    0.11828    1.000
    O25      O        0.00000    0.53630    0.11400    1.000
    H17      H        0.00000    0.56020    0.05250    1.000
    C41      C        0.00000    0.05270    0.43650    1.000
    H18      H        0.00000    0.11630    0.47250    1.000
    C42      C        0.00000    0.86430    0.33030    1.000
    C43      C        0.00000    0.75840    0.27230    1.000
    Zn6      Zn       0.50000    0.64923    0.61828    1.000
    O26      O        0.50000    0.46370    0.61400    1.000
    H19      H        0.50000    0.43980    0.55250    1.000
    C44      C        0.50000    0.94730    0.93650    1.000
    H20      H        0.50000    0.88370    0.97250    1.000
    C45      C        0.50000    0.13570    0.83030    1.000
    C46      C        0.50000    0.24160    0.77230    1.000
