data_functionalizedCrystal
_audit_creation_method	'EQeq! by Chris Wilmer'
_symmetry_space_group_name_H-M	'P1'
_symmetry_Int_Tables_number	1
_symmetry_cell_setting	triclinic
loop_
_symmetry_equiv_pos_as_xyz
  x,y,z
_cell_length_a	13.102
_cell_length_b	26.104
_cell_length_c	26.279
_cell_angle_alpha	90
_cell_angle_beta	90
_cell_angle_gamma	93.923
loop_
_atom_site_label
_atom_site_type_symbol
_atom_site_fract_x
_atom_site_fract_y
_atom_site_fract_z
_atom_site_charge
Mof_Tb	Tb	0.52725	0.61657	0.7099	2.202
Mof_Tb	Tb	0.52725	0.11657	0.7901	2.202
Mof_V 	V 	0.8611	0.69547	0.20393	1.741
Mof_V 	V 	0.8789	0.57119	0.19339	1.745
Mof_V 	V 	0.0682	0.6514	0.15427	1.734
Mof_V 	V 	0.0857	0.58174	0.24451	1.75
Mof_V 	V 	0.0674	0.7054	0.25567	1.742
Mof_V 	V 	0.8789	0.6251	0.29492	1.734
Mof_V 	V 	0.8611	0.19547	0.29607	1.742
Mof_V 	V 	0.8789	0.07119	0.30661	1.746
Mof_V 	V 	0.0682	0.1514	0.34573	1.734
Mof_V 	V 	0.0857	0.08174	0.25549	1.749
Mof_V 	V 	0.0674	0.2054	0.24433	1.741
Mof_V 	V 	0.8789	0.1251	0.20508	1.734
Mof_H 	H 	0.9772	0.6707	0.3901	-0.048
Mof_H 	H 	0.0681	0.7103	0.3711	-0.049
Mof_H 	H 	0.2261	0.6762	0.3353	-0.048
Mof_H 	H 	0.2338	0.6156	0.3278	-0.05
Mof_H 	H 	0.0925	0.5545	0.3614	-0.025
Mof_H 	H 	0.9918	0.5781	0.3842	-0.032
Mof_H 	H 	0.1414	0.6937	0.4403	0.037
Mof_H 	H 	0.2389	0.6807	0.4077	0.041
Mof_H 	H 	0.8826	0.5626	0.077	-0.053
Mof_H 	H 	0.9713	0.6036	0.0582	-0.056
Mof_H 	H 	0.9491	0.6998	0.0671	-0.033
Mof_H 	H 	0.847	0.718	0.0927	-0.036
Mof_H 	H 	0.7123	0.6574	0.1184	-0.031
Mof_H 	H 	0.7209	0.5967	0.1154	-0.038
Mof_H 	H 	0.7639	0.704	0.0148	0.052
Mof_H 	H 	0.6713	0.6653	0.0342	0.053
Mof_H 	H 	0.763	0.7233	0.9317	0.055
Mof_H 	H 	0.7176	0.7094	0.8454	0.012
Mof_H 	H 	0.5938	0.5616	0.8775	0.03
Mof_H 	H 	0.6454	0.5835	0.9604	0.054
Mof_H 	H 	0.461	0.6109	0.5219	0.037
Mof_H 	H 	0.3725	0.6344	0.4464	0.063
Mof_H 	H 	0.1494	0.6885	0.5348	0.056
Mof_H 	H 	0.2348	0.6665	0.6107	0.027
Mof_H 	H 	0.413	0.2343	0.8203	0.002
Mof_H 	H 	0.3857	0.3158	0.7939	0.038
Mof_H 	H 	0.6877	0.3433	0.7699	0.062
Mof_H 	H 	0.7108	0.2608	0.7947	0.01
Mof_H 	H 	0.6335	0.5023	0.7312	0.016
Mof_H 	H 	0.6601	0.4191	0.7659	0.031
Mof_H 	H 	0.3612	0.3807	0.7503	0.057
Mof_H 	H 	0.3337	0.4595	0.7225	0.026
Mof_H 	H 	0.286	0.6949	0.7373	-0.015
Mof_H 	H 	0.1118	0.6854	0.7259	0.066
Mof_H 	H 	0.1137	0.5352	0.7591	0.053
Mof_H 	H 	0.2861	0.548	0.7727	-0.005
Mof_H 	H 	0.7772	0.6673	0.7215	0.005
Mof_H 	H 	0.9486	0.6751	0.7477	0.034
Mof_H 	H 	0.9762	0.5317	0.7044	0.048
Mof_H 	H 	0.8091	0.5247	0.6759	0.004
Mof_H 	H 	0.1371	0.6001	0.4379	0.103
Mof_H 	H 	0.8212	0.6131	0.009	0.096
Mof_H 	H 	0.9772	0.1707	0.1099	-0.039
Mof_H 	H 	0.0681	0.2103	0.1289	-0.044
Mof_H 	H 	0.2261	0.1762	0.1647	-0.047
Mof_H 	H 	0.2338	0.1156	0.1722	-0.048
Mof_H 	H 	0.0925	0.0545	0.1386	-0.021
Mof_H 	H 	0.9918	0.0781	0.1158	-0.023
Mof_H 	H 	0.1414	0.1937	0.0597	0.034
Mof_H 	H 	0.2389	0.1807	0.0923	0.04
Mof_H 	H 	0.8826	0.0626	0.423	-0.054
Mof_H 	H 	0.9713	0.1036	0.4418	-0.057
Mof_H 	H 	0.9491	0.1998	0.4329	-0.034
Mof_H 	H 	0.847	0.218	0.4073	-0.037
Mof_H 	H 	0.7123	0.1574	0.3816	-0.031
Mof_H 	H 	0.7209	0.0967	0.3846	-0.038
Mof_H 	H 	0.7639	0.204	0.4852	0.052
Mof_H 	H 	0.6713	0.1653	0.4658	0.054
Mof_H 	H 	0.763	0.2233	0.5683	0.056
Mof_H 	H 	0.7176	0.2094	0.6546	0.012
Mof_H 	H 	0.5938	0.0616	0.6225	0.03
Mof_H 	H 	0.6454	0.0835	0.5396	0.055
Mof_H 	H 	0.461	0.1109	0.9781	0.037
Mof_H 	H 	0.3725	0.1344	0.0536	0.063
Mof_H 	H 	0.1494	0.1885	0.9652	0.055
Mof_H 	H 	0.2348	0.1665	0.8893	0.028
Mof_H 	H 	0.413	0.7343	0.6797	0.002
Mof_H 	H 	0.3857	0.8158	0.7061	0.038
Mof_H 	H 	0.6877	0.8433	0.7301	0.062
Mof_H 	H 	0.7108	0.7608	0.7053	0.01
Mof_H 	H 	0.6335	0.0023	0.7688	0.017
Mof_H 	H 	0.6601	0.9191	0.7341	0.031
Mof_H 	H 	0.3612	0.8807	0.7497	0.057
Mof_H 	H 	0.3337	0.9595	0.7775	0.026
Mof_H 	H 	0.286	0.1949	0.7627	-0.015
Mof_H 	H 	0.1118	0.1854	0.7741	0.065
Mof_H 	H 	0.1137	0.0352	0.7409	0.051
Mof_H 	H 	0.2861	0.048	0.7273	-0.004
Mof_H 	H 	0.7772	0.1673	0.7785	0.004
Mof_H 	H 	0.9486	0.1751	0.7523	0.036
Mof_H 	H 	0.9762	0.0317	0.7956	0.049
Mof_H 	H 	0.8091	0.0247	0.8241	0.004
Mof_H 	H 	0.1371	0.1001	0.0621	0.102
Mof_H 	H 	0.8212	0.1131	0.491	0.094
Mof_C 	C 	0.029	0.6774	0.3632	0.164
Mof_C 	C 	0.1868	0.6437	0.3262	0.189
Mof_C 	C 	0.103	0.6336	0.3627	-0.155
Mof_C 	C 	0.0455	0.5824	0.3577	0.116
Mof_C 	C 	0.192	0.6677	0.4349	-0.041
Mof_C 	C 	0.919	0.5963	0.0847	0.176
Mof_C 	C 	0.8983	0.6919	0.0943	0.126
Mof_C 	C 	0.843	0.6375	0.084	-0.145
Mof_C 	C 	0.7599	0.6298	0.1223	0.138
Mof_C 	C 	0.734	0.668	0.013	-0.078
Mof_C 	C 	0.709	0.653	0.959	0.053
Mof_C 	C 	0.73	0.691	0.9218	-0.108
Mof_C 	C 	0.703	0.6835	0.8702	0.024
Mof_C 	C 	0.654	0.6364	0.8568	-0.097
Mof_C 	C 	0.627	0.594	0.887	0.016
Mof_C 	C 	0.66	0.61	0.936	-0.098
Mof_C 	C 	0.6176	0.6306	0.8048	0.313
Mof_C 	C 	0.413	0.6234	0.6208	0.314
Mof_C 	C 	0.359	0.6357	0.5731	-0.085
Mof_C 	C 	0.398	0.6267	0.5248	0.015
Mof_C 	C 	0.345	0.6408	0.4791	-0.102
Mof_C 	C 	0.255	0.6637	0.4844	0.049
Mof_C 	C 	0.213	0.673	0.5327	-0.102
Mof_C 	C 	0.263	0.6598	0.5783	0.011
Mof_C 	C 	0.4691	0.2568	0.8098	0.038
Mof_C 	C 	0.4534	0.305	0.794	-0.111
Mof_C 	C 	0.5301	0.338	0.7786	0.047
Mof_C 	C 	0.6308	0.321	0.7797	-0.126
Mof_C 	C 	0.644	0.2727	0.795	0.056
Mof_C 	C 	0.5158	0.3922	0.7622	0.032
Mof_C 	C 	0.5774	0.4778	0.7361	0.02
Mof_C 	C 	0.5931	0.4272	0.7565	-0.09
Mof_C 	C 	0.4173	0.4056	0.7477	-0.111
Mof_C 	C 	0.4016	0.4517	0.7306	0.029
Mof_C 	C 	0.2494	0.6629	0.7437	0.082
Mof_C 	C 	0.1472	0.6563	0.7352	-0.145
Mof_C 	C 	0.0921	0.6101	0.7394	0.064
Mof_C 	C 	0.1471	0.5684	0.755	-0.135
Mof_C 	C 	0.2482	0.5765	0.7641	0.066
Mof_C 	C 	0.8188	0.6392	0.7175	0.038
Mof_C 	C 	0.9204	0.644	0.7329	-0.107
Mof_C 	C 	0.9795	0.6027	0.7262	0.037
Mof_C 	C 	0.9364	0.5607	0.7073	-0.122
Mof_C 	C 	0.8367	0.5557	0.6911	0.042
Mof_C 	C 	0.029	0.1774	0.1368	0.144
Mof_C 	C 	0.1868	0.1437	0.1738	0.184
Mof_C 	C 	0.103	0.1336	0.1373	-0.147
Mof_C 	C 	0.0455	0.0824	0.1423	0.097
Mof_C 	C 	0.192	0.1677	0.0651	-0.038
Mof_C 	C 	0.919	0.0963	0.4153	0.176
Mof_C 	C 	0.8983	0.1919	0.4057	0.127
Mof_C 	C 	0.843	0.1375	0.416	-0.146
Mof_C 	C 	0.7599	0.1298	0.3777	0.138
Mof_C 	C 	0.734	0.168	0.487	-0.083
Mof_C 	C 	0.709	0.153	0.541	0.058
Mof_C 	C 	0.73	0.191	0.5782	-0.11
Mof_C 	C 	0.703	0.1835	0.6298	0.026
Mof_C 	C 	0.654	0.1364	0.6432	-0.098
Mof_C 	C 	0.627	0.094	0.613	0.018
Mof_C 	C 	0.66	0.11	0.564	-0.1
Mof_C 	C 	0.6176	0.1306	0.6952	0.313
Mof_C 	C 	0.413	0.1234	0.8792	0.314
Mof_C 	C 	0.359	0.1357	0.9269	-0.084
Mof_C 	C 	0.398	0.1267	0.9752	0.016
Mof_C 	C 	0.345	0.1408	0.0209	-0.102
Mof_C 	C 	0.255	0.1637	0.0156	0.043
Mof_C 	C 	0.213	0.173	0.9673	-0.097
Mof_C 	C 	0.263	0.1598	0.9217	0.009
Mof_C 	C 	0.4691	0.7568	0.6902	0.038
Mof_C 	C 	0.4534	0.805	0.706	-0.111
Mof_C 	C 	0.5301	0.838	0.7214	0.047
Mof_C 	C 	0.6308	0.821	0.7203	-0.126
Mof_C 	C 	0.644	0.7727	0.705	0.056
Mof_C 	C 	0.5158	0.8922	0.7378	0.031
Mof_C 	C 	0.5774	0.9778	0.7639	0.018
Mof_C 	C 	0.5931	0.9272	0.7435	-0.089
Mof_C 	C 	0.4173	0.9056	0.7523	-0.11
Mof_C 	C 	0.4016	0.9517	0.7694	0.029
Mof_C 	C 	0.2494	0.1629	0.7563	0.08
Mof_C 	C 	0.1472	0.1563	0.7648	-0.142
Mof_C 	C 	0.0921	0.1101	0.7606	0.06
Mof_C 	C 	0.1471	0.0684	0.745	-0.133
Mof_C 	C 	0.2482	0.0765	0.7359	0.064
Mof_C 	C 	0.8188	0.1392	0.7825	0.039
Mof_C 	C 	0.9204	0.144	0.7671	-0.109
Mof_C 	C 	0.9795	0.1027	0.7738	0.042
Mof_C 	C 	0.9364	0.0607	0.7927	-0.125
Mof_C 	C 	0.8367	0.0557	0.8089	0.043
Mof_N 	N 	0.146	0.6283	0.4196	-0.154
Mof_N 	N 	0.8	0.6364	0.0301	-0.144
Mof_N 	N 	0.7793	0.5958	0.6973	-0.055
Mof_N 	N 	0.5655	0.2409	0.8106	-0.065
Mof_N 	N 	0.297	0.6226	0.7614	-0.074
Mof_N 	N 	0.4802	0.4893	0.7241	-0.043
Mof_N 	N 	0.146	0.1283	0.0804	-0.156
Mof_N 	N 	0.8	0.1364	0.4699	-0.143
Mof_N 	N 	0.7793	0.0958	0.8027	-0.055
Mof_N 	N 	0.5655	0.7409	0.6894	-0.065
Mof_N 	N 	0.297	0.1226	0.7386	-0.074
Mof_N 	N 	0.4802	0.9893	0.7759	-0.043
Mof_O 	O 	0.9802	0.6813	0.3158	-0.691
Mof_O 	O 	0.9989	0.5814	0.3061	-0.674
Mof_O 	O 	0.1476	0.6473	0.2767	-0.691
Mof_O 	O 	0.8017	0.6718	0.2636	-0.782
Mof_O 	O 	0.9542	0.7387	0.2347	-0.788
Mof_O 	O 	0.8236	0.5708	0.2546	-0.793
Mof_O 	O 	0.9741	0.6374	0.2245	-1.049
Mof_O 	O 	0.1237	0.7049	0.1938	-0.793
Mof_O 	O 	0.9927	0.5384	0.2135	-0.781
Mof_O 	O 	0.1422	0.6044	0.1859	-0.805
Mof_O 	O 	0.7968	0.6298	0.1739	-0.68
Mof_O 	O 	0.9492	0.6958	0.1427	-0.685
Mof_O 	O 	0.9655	0.5944	0.1326	-0.684
Mof_O 	O 	0.6109	0.6666	0.7744	-0.461
Mof_O 	O 	0.596	0.5834	0.7869	-0.426
Mof_O 	O 	0.377	0.6357	0.6638	-0.443
Mof_O 	O 	0.4995	0.6047	0.6184	-0.413
Mof_O 	O 	0.6825	0.5911	0.6819	-0.364
Mof_O 	O 	0.5823	0.1951	0.8293	-0.34
Mof_O 	O 	0.3992	0.6286	0.7705	-0.346
Mof_O 	O 	0.4611	0.533	0.7033	-0.37
Mof_O 	O 	0.9802	0.1813	0.1842	-0.684
Mof_O 	O 	0.9989	0.0814	0.1939	-0.668
Mof_O 	O 	0.1476	0.1473	0.2233	-0.691
Mof_O 	O 	0.8017	0.1718	0.2364	-0.782
Mof_O 	O 	0.9542	0.2387	0.2653	-0.787
Mof_O 	O 	0.8236	0.0708	0.2454	-0.793
Mof_O 	O 	0.9741	0.1374	0.2755	-1.049
Mof_O 	O 	0.1237	0.2049	0.3062	-0.794
Mof_O 	O 	0.9927	0.0384	0.2865	-0.78
Mof_O 	O 	0.1422	0.1044	0.3141	-0.806
Mof_O 	O 	0.7968	0.1298	0.3261	-0.68
Mof_O 	O 	0.9492	0.1958	0.3573	-0.685
Mof_O 	O 	0.9655	0.0944	0.3674	-0.684
Mof_O 	O 	0.6109	0.1666	0.7256	-0.461
Mof_O 	O 	0.596	0.0834	0.7131	-0.426
Mof_O 	O 	0.377	0.1357	0.8362	-0.443
Mof_O 	O 	0.4995	0.1047	0.8816	-0.413
Mof_O 	O 	0.6825	0.0911	0.8181	-0.364
Mof_O 	O 	0.5823	0.6951	0.6707	-0.34
Mof_O 	O 	0.3992	0.1286	0.7295	-0.346
Mof_O 	O 	0.4611	0.033	0.7967	-0.37
Mof_Tb	Tb	0.47275	0.88343	0.2099	2.203
Mof_Tb	Tb	0.47275	0.38343	0.2901	2.203
Mof_V 	V 	0.1389	0.80453	0.70393	1.742
Mof_V 	V 	0.1211	0.92881	0.69339	1.746
Mof_V 	V 	0.9318	0.8486	0.65427	1.734
Mof_V 	V 	0.9143	0.91826	0.74451	1.749
Mof_V 	V 	0.9326	0.7946	0.75567	1.741
Mof_V 	V 	0.1211	0.8749	0.79492	1.734
Mof_V 	V 	0.1389	0.30453	0.79607	1.742
Mof_V 	V 	0.1211	0.42881	0.80661	1.746
Mof_V 	V 	0.9318	0.3486	0.84573	1.734
Mof_V 	V 	0.9143	0.41826	0.75549	1.75
Mof_V 	V 	0.9326	0.2946	0.74433	1.742
Mof_V 	V 	0.1211	0.3749	0.70508	1.734
Mof_H 	H 	0.0228	0.8293	0.8901	-0.039
Mof_H 	H 	0.9319	0.7897	0.8711	-0.044
Mof_H 	H 	0.7739	0.8238	0.8353	-0.047
Mof_H 	H 	0.7662	0.8844	0.8278	-0.048
Mof_H 	H 	0.9075	0.9455	0.8614	-0.021
Mof_H 	H 	0.0082	0.9219	0.8842	-0.023
Mof_H 	H 	0.8586	0.8063	0.9403	0.034
Mof_H 	H 	0.7611	0.8193	0.9077	0.04
Mof_H 	H 	0.1174	0.9374	0.577	-0.054
Mof_H 	H 	0.0287	0.8964	0.5582	-0.057
Mof_H 	H 	0.0509	0.8002	0.5671	-0.034
Mof_H 	H 	0.153	0.782	0.5927	-0.037
Mof_H 	H 	0.2877	0.8426	0.6184	-0.031
Mof_H 	H 	0.2791	0.9033	0.6154	-0.038
Mof_H 	H 	0.2361	0.796	0.5148	0.052
Mof_H 	H 	0.3287	0.8347	0.5342	0.054
Mof_H 	H 	0.237	0.7767	0.4317	0.056
Mof_H 	H 	0.2824	0.7906	0.3454	0.012
Mof_H 	H 	0.4062	0.9384	0.3775	0.03
Mof_H 	H 	0.3546	0.9165	0.4604	0.055
Mof_H 	H 	0.539	0.8891	0.0219	0.037
Mof_H 	H 	0.6275	0.8656	0.9464	0.063
Mof_H 	H 	0.8506	0.8115	0.0348	0.055
Mof_H 	H 	0.7652	0.8335	0.1107	0.028
Mof_H 	H 	0.587	0.2657	0.3203	0.002
Mof_H 	H 	0.6143	0.1842	0.2939	0.038
Mof_H 	H 	0.3123	0.1567	0.2699	0.062
Mof_H 	H 	0.2892	0.2392	0.2947	0.01
Mof_H 	H 	0.3665	0.9977	0.2312	0.017
Mof_H 	H 	0.3399	0.0809	0.2659	0.031
Mof_H 	H 	0.6388	0.1193	0.2503	0.057
Mof_H 	H 	0.6663	0.0405	0.2225	0.026
Mof_H 	H 	0.714	0.8051	0.2373	-0.015
Mof_H 	H 	0.8882	0.8146	0.2259	0.065
Mof_H 	H 	0.8863	0.9648	0.2591	0.051
Mof_H 	H 	0.7139	0.952	0.2727	-0.004
Mof_H 	H 	0.2228	0.8327	0.2215	0.004
Mof_H 	H 	0.0514	0.8249	0.2477	0.036
Mof_H 	H 	0.0238	0.9683	0.2044	0.049
Mof_H 	H 	0.1909	0.9753	0.1759	0.004
Mof_H 	H 	0.8629	0.8999	0.9379	0.102
Mof_H 	H 	0.1788	0.8869	0.509	0.094
Mof_H 	H 	0.0228	0.3293	0.6099	-0.048
Mof_H 	H 	0.9319	0.2897	0.6289	-0.049
Mof_H 	H 	0.7739	0.3238	0.6647	-0.048
Mof_H 	H 	0.7662	0.3844	0.6722	-0.05
Mof_H 	H 	0.9075	0.4455	0.6386	-0.025
Mof_H 	H 	0.0082	0.4219	0.6158	-0.032
Mof_H 	H 	0.8586	0.3063	0.5597	0.037
Mof_H 	H 	0.7611	0.3193	0.5923	0.041
Mof_H 	H 	0.1174	0.4374	0.923	-0.053
Mof_H 	H 	0.0287	0.3964	0.9418	-0.056
Mof_H 	H 	0.0509	0.3002	0.9329	-0.033
Mof_H 	H 	0.153	0.282	0.9073	-0.036
Mof_H 	H 	0.2877	0.3426	0.8816	-0.031
Mof_H 	H 	0.2791	0.4033	0.8846	-0.038
Mof_H 	H 	0.2361	0.296	0.9852	0.052
Mof_H 	H 	0.3287	0.3347	0.9658	0.053
Mof_H 	H 	0.237	0.2767	0.0683	0.055
Mof_H 	H 	0.2824	0.2906	0.1546	0.012
Mof_H 	H 	0.4062	0.4384	0.1225	0.03
Mof_H 	H 	0.3546	0.4165	0.0396	0.054
Mof_H 	H 	0.539	0.3891	0.4781	0.037
Mof_H 	H 	0.6275	0.3656	0.5536	0.063
Mof_H 	H 	0.8506	0.3115	0.4652	0.056
Mof_H 	H 	0.7652	0.3335	0.3893	0.027
Mof_H 	H 	0.587	0.7657	0.1797	0.002
Mof_H 	H 	0.6143	0.6842	0.2061	0.038
Mof_H 	H 	0.3123	0.6567	0.2301	0.062
Mof_H 	H 	0.2892	0.7392	0.2053	0.01
Mof_H 	H 	0.3665	0.4977	0.2688	0.016
Mof_H 	H 	0.3399	0.5809	0.2341	0.031
Mof_H 	H 	0.6388	0.6193	0.2497	0.057
Mof_H 	H 	0.6663	0.5405	0.2775	0.026
Mof_H 	H 	0.714	0.3051	0.2627	-0.015
Mof_H 	H 	0.8882	0.3146	0.2741	0.066
Mof_H 	H 	0.8863	0.4648	0.2409	0.053
Mof_H 	H 	0.7139	0.452	0.2273	-0.005
Mof_H 	H 	0.2228	0.3327	0.2785	0.005
Mof_H 	H 	0.0514	0.3249	0.2523	0.034
Mof_H 	H 	0.0238	0.4683	0.2956	0.048
Mof_H 	H 	0.1909	0.4753	0.3241	0.004
Mof_H 	H 	0.8629	0.3999	0.5621	0.103
Mof_H 	H 	0.1788	0.3869	0.991	0.096
Mof_C 	C 	0.971	0.8226	0.8632	0.144
Mof_C 	C 	0.8132	0.8563	0.8262	0.184
Mof_C 	C 	0.897	0.8664	0.8627	-0.147
Mof_C 	C 	0.9545	0.9176	0.8577	0.097
Mof_C 	C 	0.808	0.8323	0.9349	-0.038
Mof_C 	C 	0.081	0.9037	0.5847	0.176
Mof_C 	C 	0.1017	0.8081	0.5943	0.127
Mof_C 	C 	0.157	0.8625	0.584	-0.146
Mof_C 	C 	0.2401	0.8702	0.6223	0.138
Mof_C 	C 	0.266	0.832	0.513	-0.083
Mof_C 	C 	0.291	0.847	0.459	0.058
Mof_C 	C 	0.27	0.809	0.4218	-0.11
Mof_C 	C 	0.297	0.8165	0.3702	0.026
Mof_C 	C 	0.346	0.8636	0.3568	-0.098
Mof_C 	C 	0.373	0.906	0.387	0.018
Mof_C 	C 	0.34	0.89	0.436	-0.1
Mof_C 	C 	0.3824	0.8694	0.3048	0.313
Mof_C 	C 	0.587	0.8766	0.1208	0.314
Mof_C 	C 	0.641	0.8643	0.0731	-0.084
Mof_C 	C 	0.602	0.8733	0.0248	0.016
Mof_C 	C 	0.655	0.8592	0.9791	-0.102
Mof_C 	C 	0.745	0.8363	0.9844	0.043
Mof_C 	C 	0.787	0.827	0.0327	-0.097
Mof_C 	C 	0.737	0.8402	0.0783	0.009
Mof_C 	C 	0.5309	0.2432	0.3098	0.038
Mof_C 	C 	0.5466	0.195	0.294	-0.111
Mof_C 	C 	0.4699	0.162	0.2786	0.047
Mof_C 	C 	0.3692	0.179	0.2797	-0.126
Mof_C 	C 	0.356	0.2273	0.295	0.056
Mof_C 	C 	0.4842	0.1078	0.2622	0.031
Mof_C 	C 	0.4226	0.0222	0.2361	0.018
Mof_C 	C 	0.4069	0.0728	0.2565	-0.089
Mof_C 	C 	0.5827	0.0944	0.2477	-0.11
Mof_C 	C 	0.5984	0.0483	0.2306	0.029
Mof_C 	C 	0.7506	0.8371	0.2437	0.08
Mof_C 	C 	0.8528	0.8437	0.2352	-0.142
Mof_C 	C 	0.9079	0.8899	0.2394	0.06
Mof_C 	C 	0.8529	0.9316	0.255	-0.133
Mof_C 	C 	0.7518	0.9235	0.2641	0.064
Mof_C 	C 	0.1812	0.8608	0.2175	0.039
Mof_C 	C 	0.0796	0.856	0.2329	-0.109
Mof_C 	C 	0.0205	0.8973	0.2262	0.042
Mof_C 	C 	0.0636	0.9393	0.2073	-0.125
Mof_C 	C 	0.1633	0.9443	0.1911	0.043
Mof_C 	C 	0.971	0.3226	0.6368	0.164
Mof_C 	C 	0.8132	0.3563	0.6738	0.189
Mof_C 	C 	0.897	0.3664	0.6373	-0.155
Mof_C 	C 	0.9545	0.4176	0.6423	0.116
Mof_C 	C 	0.808	0.3323	0.5651	-0.041
Mof_C 	C 	0.081	0.4037	0.9153	0.176
Mof_C 	C 	0.1017	0.3081	0.9057	0.126
Mof_C 	C 	0.157	0.3625	0.916	-0.145
Mof_C 	C 	0.2401	0.3702	0.8777	0.138
Mof_C 	C 	0.266	0.332	0.987	-0.078
Mof_C 	C 	0.291	0.347	0.041	0.053
Mof_C 	C 	0.27	0.309	0.0782	-0.108
Mof_C 	C 	0.297	0.3165	0.1298	0.024
Mof_C 	C 	0.346	0.3636	0.1432	-0.097
Mof_C 	C 	0.373	0.406	0.113	0.016
Mof_C 	C 	0.34	0.39	0.064	-0.098
Mof_C 	C 	0.3824	0.3694	0.1952	0.313
Mof_C 	C 	0.587	0.3766	0.3792	0.314
Mof_C 	C 	0.641	0.3643	0.4269	-0.085
Mof_C 	C 	0.602	0.3733	0.4752	0.015
Mof_C 	C 	0.655	0.3592	0.5209	-0.102
Mof_C 	C 	0.745	0.3363	0.5156	0.049
Mof_C 	C 	0.787	0.327	0.4673	-0.102
Mof_C 	C 	0.737	0.3402	0.4217	0.011
Mof_C 	C 	0.5309	0.7432	0.1902	0.038
Mof_C 	C 	0.5466	0.695	0.206	-0.111
Mof_C 	C 	0.4699	0.662	0.2214	0.047
Mof_C 	C 	0.3692	0.679	0.2203	-0.126
Mof_C 	C 	0.356	0.7273	0.205	0.056
Mof_C 	C 	0.4842	0.6078	0.2378	0.032
Mof_C 	C 	0.4226	0.5222	0.2639	0.02
Mof_C 	C 	0.4069	0.5728	0.2435	-0.09
Mof_C 	C 	0.5827	0.5944	0.2523	-0.111
Mof_C 	C 	0.5984	0.5483	0.2694	0.029
Mof_C 	C 	0.7506	0.3371	0.2563	0.082
Mof_C 	C 	0.8528	0.3437	0.2648	-0.145
Mof_C 	C 	0.9079	0.3899	0.2606	0.064
Mof_C 	C 	0.8529	0.4316	0.245	-0.135
Mof_C 	C 	0.7518	0.4235	0.2359	0.066
Mof_C 	C 	0.1812	0.3608	0.2825	0.038
Mof_C 	C 	0.0796	0.356	0.2671	-0.107
Mof_C 	C 	0.0205	0.3973	0.2738	0.037
Mof_C 	C 	0.0636	0.4393	0.2927	-0.122
Mof_C 	C 	0.1633	0.4443	0.3089	0.042
Mof_N 	N 	0.854	0.8717	0.9196	-0.156
Mof_N 	N 	0.2	0.8636	0.5301	-0.143
Mof_N 	N 	0.2207	0.9042	0.1973	-0.055
Mof_N 	N 	0.4345	0.2591	0.3106	-0.065
Mof_N 	N 	0.703	0.8774	0.2614	-0.074
Mof_N 	N 	0.5198	0.0107	0.2241	-0.043
Mof_N 	N 	0.854	0.3717	0.5804	-0.154
Mof_N 	N 	0.2	0.3636	0.9699	-0.144
Mof_N 	N 	0.2207	0.4042	0.3027	-0.055
Mof_N 	N 	0.4345	0.7591	0.1894	-0.065
Mof_N 	N 	0.703	0.3774	0.2386	-0.074
Mof_N 	N 	0.5198	0.5107	0.2759	-0.043
Mof_O 	O 	0.0198	0.8187	0.8158	-0.684
Mof_O 	O 	0.0011	0.9186	0.8061	-0.668
Mof_O 	O 	0.8524	0.8527	0.7767	-0.691
Mof_O 	O 	0.1983	0.8282	0.7636	-0.782
Mof_O 	O 	0.0458	0.7613	0.7347	-0.787
Mof_O 	O 	0.1764	0.9292	0.7546	-0.793
Mof_O 	O 	0.0259	0.8626	0.7245	-1.049
Mof_O 	O 	0.8763	0.7951	0.6938	-0.794
Mof_O 	O 	0.0073	0.9616	0.7135	-0.78
Mof_O 	O 	0.8578	0.8956	0.6859	-0.806
Mof_O 	O 	0.2032	0.8702	0.6739	-0.68
Mof_O 	O 	0.0508	0.8042	0.6427	-0.685
Mof_O 	O 	0.0345	0.9056	0.6326	-0.684
Mof_O 	O 	0.3891	0.8334	0.2744	-0.461
Mof_O 	O 	0.404	0.9166	0.2869	-0.426
Mof_O 	O 	0.623	0.8643	0.1638	-0.443
Mof_O 	O 	0.5005	0.8953	0.1184	-0.413
Mof_O 	O 	0.3175	0.9089	0.1819	-0.364
Mof_O 	O 	0.4177	0.3049	0.3293	-0.34
Mof_O 	O 	0.6008	0.8714	0.2705	-0.346
Mof_O 	O 	0.5389	0.967	0.2033	-0.37
Mof_O 	O 	0.0198	0.3187	0.6842	-0.691
Mof_O 	O 	0.0011	0.4186	0.6939	-0.674
Mof_O 	O 	0.8524	0.3527	0.7233	-0.691
Mof_O 	O 	0.1983	0.3282	0.7364	-0.782
Mof_O 	O 	0.0458	0.2613	0.7653	-0.788
Mof_O 	O 	0.1764	0.4292	0.7454	-0.793
Mof_O 	O 	0.0259	0.3626	0.7755	-1.049
Mof_O 	O 	0.8763	0.2951	0.8062	-0.793
Mof_O 	O 	0.0073	0.4616	0.7865	-0.781
Mof_O 	O 	0.8578	0.3956	0.8141	-0.805
Mof_O 	O 	0.2032	0.3702	0.8261	-0.68
Mof_O 	O 	0.0508	0.3042	0.8573	-0.685
Mof_O 	O 	0.0345	0.4056	0.8674	-0.684
Mof_O 	O 	0.3891	0.3334	0.2256	-0.461
Mof_O 	O 	0.404	0.4166	0.2131	-0.426
Mof_O 	O 	0.623	0.3643	0.3362	-0.443
Mof_O 	O 	0.5005	0.3953	0.3816	-0.413
Mof_O 	O 	0.3175	0.4089	0.3181	-0.364
Mof_O 	O 	0.4177	0.8049	0.1707	-0.34
Mof_O 	O 	0.6008	0.3714	0.2295	-0.346
Mof_O 	O 	0.5389	0.467	0.2967	-0.37
_end
