data_functionalizedCrystal
_audit_creation_method	'EQeq! by Chris Wilmer'
_symmetry_space_group_name_H-M	'P1'
_symmetry_Int_Tables_number	1
_symmetry_cell_setting	triclinic
loop_
_symmetry_equiv_pos_as_xyz
  x,y,z
_cell_length_a	9.1443
_cell_length_b	13
_cell_length_c	18.4086
_cell_angle_alpha	72.4351
_cell_angle_beta	75.619
_cell_angle_gamma	69.4085
loop_
_atom_site_label
_atom_site_type_symbol
_atom_site_fract_x
_atom_site_fract_y
_atom_site_fract_z
_atom_site_charge
Mof_Tb	Tb	0.15282	0.09047	0.99423	1.901
Mof_Tb	Tb	0.76248	0.59047	0.49423	1.932
Mof_Tb	Tb	0.84718	0.90953	0.00577	1.901
Mof_Tb	Tb	0.23752	0.40953	0.50577	1.932
Mof_Co	Co	0.22352	0.41399	0.16317	1.154
Mof_Co	Co	0.19932	0.91399	0.66317	1.153
Mof_Co	Co	0.77648	0.58601	0.83683	1.154
Mof_Co	Co	0.80068	0.08601	0.33683	1.153
Mof_H 	H 	0.7232	0.1965	0.5399	0.144
Mof_H 	H 	0.131	0.7066	0.6222	0.252
Mof_H 	H 	0.869	0.2934	0.3778	0.251
Mof_H 	H 	0.2454	0.0449	0.3485	0.287
Mof_H 	H 	0.6382	0.4011	0.0861	0.287
Mof_H 	H 	0.7185	0.9973	0.5667	0.302
Mof_H 	H 	0.3612	0.5449	0.8485	0.286
Mof_H 	H 	0.4596	0.3035	0.9601	0.141
Mof_H 	H 	0.8746	0.9011	0.5861	0.287
Mof_H 	H 	0.4396	0.9097	0.8171	0.24
Mof_H 	H 	0.7175	0.4973	0.0667	0.301
Mof_H 	H 	0.9981	0.3565	0.3455	0.239
Mof_H 	H 	0.1664	0.5903	0.6829	0.234
Mof_H 	H 	0.2768	0.8035	0.4601	0.143
Mof_H 	H 	0.5604	0.0903	0.1829	0.24
Mof_H 	H 	0.2825	0.5027	0.9333	0.301
Mof_H 	H 	0.2999	0.8565	0.8455	0.244
Mof_H 	H 	0.6388	0.4551	0.1515	0.286
Mof_H 	H 	0.8336	0.4097	0.3171	0.234
Mof_H 	H 	0.7001	0.1435	0.1545	0.244
Mof_H 	H 	0.1254	0.0989	0.4139	0.287
Mof_H 	H 	0.4598	0.7934	0.8778	0.256
Mof_H 	H 	0.5404	0.6965	0.0399	0.141
Mof_H 	H 	0.5402	0.2066	0.1222	0.256
Mof_H 	H 	0.3618	0.5989	0.9139	0.287
Mof_H 	H 	0.7546	0.9551	0.6515	0.287
Mof_H 	H 	0.2815	0.0027	0.4333	0.302
Mof_H 	H 	0.0019	0.6435	0.6545	0.239
Mof_C 	C 	0.1995	0.0304	0.402	-0.908
Mof_C 	C 	0.8832	0.0554	0.5818	0.349
Mof_C 	C 	0.8005	0.9696	0.598	-0.908
Mof_C 	C 	0.1168	0.9446	0.4182	0.349
Mof_C 	C 	0.495	0.733	0.6642	-0.076
Mof_C 	C 	0.619	0.6578	0.703	-0.079
Mof_C 	C 	0.0862	0.6597	0.6669	-0.799
Mof_C 	C 	0.9798	0.8422	0.797	-0.062
Mof_C 	C 	0.002	0.9389	0.8121	0.323
Mof_C 	C 	0.2529	0.846	0.0204	0.355
Mof_C 	C 	0.1193	0.654	0.4796	0.357
Mof_C 	C 	0.381	0.3422	0.297	-0.079
Mof_C 	C 	0.0202	0.1578	0.203	-0.062
Mof_C 	C 	0.4128	0.8403	0.8331	-0.811
Mof_C 	C 	0.1078	0.233	0.1642	-0.079
Mof_C 	C 	0.7675	0.3599	0.9291	-0.1
Mof_C 	C 	0.9435	0.8599	0.4291	-0.098
Mof_C 	C 	0.505	0.267	0.3358	-0.076
Mof_C 	C 	0.2147	0.1391	0.5777	0.412
Mof_C 	C 	0.3681	0.5304	0.902	-0.913
Mof_C 	C 	0.7471	0.154	0.9796	0.355
Mof_C 	C 	0.5204	0.4446	0.9182	0.352
Mof_C 	C 	0.4734	0.7804	0.7694	0.298
Mof_C 	C 	0.5586	0.2599	0.4071	0.376
Mof_C 	C 	0.9138	0.3403	0.3331	-0.799
Mof_C 	C 	0.9267	0.222	0.543	-0.027
Mof_C 	C 	0.5266	0.2196	0.2306	0.298
Mof_C 	C 	0.9315	0.3609	0.9223	0.419
Mof_C 	C 	0.247	0.4389	0.3121	0.345
Mof_C 	C 	0.0733	0.778	0.457	-0.027
Mof_C 	C 	0.3083	0.722	0.043	-0.024
Mof_C 	C 	0.9768	0.2804	0.2694	0.289
Mof_C 	C 	0.7853	0.8609	0.4223	0.412
Mof_C 	C 	0.753	0.5611	0.6879	0.345
Mof_C 	C 	0.6319	0.4696	0.098	-0.913
Mof_C 	C 	0.7744	0.7599	0.9071	0.377
Mof_C 	C 	0.0565	0.1401	0.5709	-0.098
Mof_C 	C 	0.998	0.0611	0.1879	0.323
Mof_C 	C 	0.0685	0.6391	0.0777	0.419
Mof_C 	C 	0.8922	0.767	0.8358	-0.079
Mof_C 	C 	0.4414	0.7401	0.5929	0.376
Mof_C 	C 	0.4796	0.5554	0.0818	0.352
Mof_C 	C 	0.2256	0.2401	0.0929	0.377
Mof_C 	C 	0.0232	0.7196	0.7306	0.289
Mof_C 	C 	0.6917	0.278	0.957	-0.024
Mof_C 	C 	0.8807	0.346	0.5204	0.357
Mof_C 	C 	0.2325	0.6401	0.0709	-0.1
Mof_C 	C 	0.5872	0.1597	0.1669	-0.811
Mof_N 	N 	0.3403	0.5366	0.0962	-0.262
Mof_N 	N 	0.0269	0.0366	0.5962	-0.262
Mof_N 	N 	0.6018	0.6896	0.7702	-0.273
Mof_N 	N 	0.405	0.8095	0.7071	-0.265
Mof_N 	N 	0.1809	0.8347	0.4481	-0.25
Mof_N 	N 	0.595	0.1905	0.2929	-0.265
Mof_N 	N 	0.8191	0.1653	0.5519	-0.25
Mof_N 	N 	0.0784	0.3095	0.2071	-0.261
Mof_N 	N 	0.6597	0.4634	0.9038	-0.262
Mof_N 	N 	0.9731	0.9634	0.4038	-0.262
Mof_N 	N 	0.5363	0.3347	0.9481	-0.251
Mof_N 	N 	0.9216	0.6905	0.7929	-0.261
Mof_N 	N 	0.0616	0.8104	0.7298	-0.277
Mof_N 	N 	0.4637	0.6653	0.0519	-0.251
Mof_N 	N 	0.9384	0.1896	0.2702	-0.277
Mof_N 	N 	0.3982	0.3104	0.2298	-0.273
Mof_O 	O 	0.3471	0.8998	0.018	-0.472
Mof_O 	O 	0.08044	0.99482	0.7587	-0.413
Mof_O 	O 	0.2669	0.1671	0.0537	-0.507
Mof_O 	O 	0.7023	0.9508	0.3842	-0.435
Mof_O 	O 	0.2649	0.6002	0.482	-0.473
Mof_O 	O 	0.7351	0.3998	0.518	-0.473
Mof_O 	O 	0.16604	0.49482	0.2587	-0.417
Mof_O 	O 	0.3215	0.8214	0.5748	-0.432
Mof_O 	O 	0.7331	0.8329	0.9463	-0.507
Mof_O 	O 	0.2977	0.0492	0.6158	-0.435
Mof_O 	O 	0.9696	0.7244	0.0452	-0.557
Mof_O 	O 	0.0373	0.5492	0.1158	-0.434
Mof_O 	O 	0.97919	0.40012	0.5047	-0.605
Mof_O 	O 	0.2608	0.2244	0.5452	-0.552
Mof_O 	O 	0.7392	0.7756	0.4548	-0.552
Mof_O 	O 	0.9448	0.9657	0.8775	-0.477
Mof_O 	O 	0.212	0.4657	0.3775	-0.496
Mof_O 	O 	0.11599	0.90012	0.0047	-0.598
Mof_O 	O 	0.02081	0.59988	0.4953	-0.605
Mof_O 	O 	0.88401	0.09988	0.9953	-0.598
Mof_O 	O 	0.5123	0.6671	0.5537	-0.516
Mof_O 	O 	0.9627	0.4508	0.8842	-0.434
Mof_O 	O 	0.788	0.5343	0.6225	-0.496
Mof_O 	O 	0.6529	0.1002	0.982	-0.472
Mof_O 	O 	0.7177	0.6786	0.9252	-0.43
Mof_O 	O 	0.91956	0.00518	0.2413	-0.413
Mof_O 	O 	0.0552	0.0343	0.1225	-0.477
Mof_O 	O 	0.4877	0.3329	0.4463	-0.516
Mof_O 	O 	0.2823	0.3214	0.0748	-0.43
Mof_O 	O 	0.6785	0.1786	0.4252	-0.432
Mof_O 	O 	0.0304	0.2756	0.9548	-0.557
Mof_O 	O 	0.83396	0.50518	0.7413	-0.417
_end
