data_functionalizedCrystal
_audit_creation_method	'EQeq! by Chris Wilmer'
_symmetry_space_group_name_H-M	'P1'
_symmetry_Int_Tables_number	1
_symmetry_cell_setting	triclinic
loop_
_symmetry_equiv_pos_as_xyz
  x,y,z
_cell_length_a	10.164
_cell_length_b	13.363
_cell_length_c	22.395
_cell_angle_alpha	86.833
_cell_angle_beta	80.346
_cell_angle_gamma	83.224
loop_
_atom_site_label
_atom_site_type_symbol
_atom_site_fract_x
_atom_site_fract_y
_atom_site_fract_z
_atom_site_charge
Mof_Co	Co	0.0711	0.79027	0.72354	1.167
Mof_Co	Co	0.67677	0.99821	0.2786	1.185
Mof_Co	Co	0.56525	0.0484	0.83562	1.151
Mof_Co	Co	0.9289	0.20973	0.27646	1.167
Mof_Co	Co	0.32323	0.00179	0.7214	1.184
Mof_Co	Co	0.43475	0.9516	0.16438	1.15
Mof_H 	H 	0.2829	0.8315	0.6131	-0.003
Mof_H 	H 	0.3111	0.882	0.5123	0.086
Mof_H 	H 	0.932	0.8224	0.5134	0.086
Mof_H 	H 	0.9145	0.78	0.6115	0.006
Mof_H 	H 	0.9365	0.9109	0.4256	0.045
Mof_H 	H 	0.1692	0.0085	0.274	0.049
Mof_H 	H 	0.3412	0.8949	0.4177	0.048
Mof_H 	H 	0.741	0.1868	0.7516	0.018
Mof_H 	H 	0.7577	0.355	0.7212	0.077
Mof_H 	H 	0.3977	0.4258	0.8257	0.078
Mof_H 	H 	0.3876	0.2621	0.8521	0.01
Mof_H 	H 	0.4015	0.5623	0.7446	0.048
Mof_H 	H 	0.6323	0.7956	0.7164	0.056
Mof_H 	H 	0.8	0.5142	0.7495	0.056
Mof_H 	H 	0.2272	0.7377	0.8332	-0.005
Mof_H 	H 	0.209	0.7692	0.9347	0.077
Mof_H 	H 	0.8191	0.8628	0.935	0.075
Mof_H 	H 	0.8481	0.8349	0.8336	0.001
Mof_H 	H 	0.2026	0.8586	0.0092	0.049
Mof_H 	H 	0.9839	0.9529	0.1679	0.06
Mof_H 	H 	0.8005	0.8681	0.0324	0.047
Mof_H 	H 	0.7171	0.1685	0.3869	-0.003
Mof_H 	H 	0.6889	0.118	0.4877	0.086
Mof_H 	H 	0.068	0.1776	0.4866	0.086
Mof_H 	H 	0.0855	0.22	0.3885	0.006
Mof_H 	H 	0.0635	0.0891	0.5744	0.045
Mof_H 	H 	0.8308	0.9915	0.726	0.049
Mof_H 	H 	0.6588	0.1051	0.5823	0.048
Mof_H 	H 	0.259	0.8132	0.2484	0.018
Mof_H 	H 	0.2423	0.645	0.2788	0.077
Mof_H 	H 	0.6023	0.5742	0.1743	0.078
Mof_H 	H 	0.6124	0.7379	0.1479	0.01
Mof_H 	H 	0.5985	0.4377	0.2554	0.048
Mof_H 	H 	0.3677	0.2044	0.2836	0.056
Mof_H 	H 	0.2	0.4858	0.2505	0.056
Mof_H 	H 	0.7728	0.2623	0.1668	-0.005
Mof_H 	H 	0.791	0.2308	0.0653	0.077
Mof_H 	H 	0.1809	0.1372	0.065	0.075
Mof_H 	H 	0.1519	0.1651	0.1664	0.001
Mof_H 	H 	0.7974	0.1414	0.9908	0.049
Mof_H 	H 	0.0161	0.0471	0.8321	0.06
Mof_H 	H 	0.1995	0.1319	0.9676	0.047
Mof_C 	C 	0.2087	0.8303	0.5925	0.087
Mof_C 	C 	0.2281	0.8603	0.5315	-0.146
Mof_C 	C 	0.1229	0.8576	0.4993	0.096
Mof_C 	C 	0.0073	0.8259	0.5329	-0.15
Mof_C 	C 	0.9978	0.8001	0.5914	0.089
Mof_C 	C 	0.1366	0.895	0.4344	-0.035
Mof_C 	C 	0.0233	0.9214	0.4046	-0.001
Mof_C 	C 	0.0356	0.9612	0.3469	-0.078
Mof_C 	C 	0.1612	0.9787	0.3138	0.008
Mof_C 	C 	0.2743	0.9505	0.3414	-0.082
Mof_C 	C 	0.2625	0.9114	0.4	-0.005
Mof_C 	C 	0.9116	0.9915	0.3163	0.306
Mof_C 	C 	0.4137	0.9651	0.3053	0.337
Mof_C 	C 	0.6697	0.2357	0.7672	0.05
Mof_C 	C 	0.6813	0.3379	0.7488	-0.116
Mof_C 	C 	0.5799	0.4142	0.7712	0.076
Mof_C 	C 	0.4709	0.3786	0.8098	-0.134
Mof_C 	C 	0.4655	0.279	0.8255	0.075
Mof_C 	C 	0.5921	0.5196	0.7534	-0.025
Mof_C 	C 	0.486	0.587	0.7428	-0.007
Mof_C 	C 	0.493	0.6901	0.7295	-0.091
Mof_C 	C 	0.6221	0.7262	0.7248	0.001
Mof_C 	C 	0.73	0.6585	0.7327	-0.052
Mof_C 	C 	0.7214	0.5585	0.7456	-0.025
Mof_C 	C 	0.3734	0.7625	0.7192	0.365
Mof_C 	C 	0.8655	0.7032	0.7287	0.272
Mof_C 	C 	0.1433	0.7673	0.8536	0.082
Mof_C 	C 	0.1335	0.786	0.9147	-0.145
Mof_C 	C 	0.0128	0.8292	0.9464	0.087
Mof_C 	C 	0.9065	0.8412	0.9144	-0.139
Mof_C 	C 	0.9236	0.8228	0.854	0.078
Mof_C 	C 	0.0018	0.8591	0.0114	-0.019
Mof_C 	C 	0.1173	0.8732	0.0337	-0.024
Mof_C 	C 	0.1094	0.9089	0.0922	-0.049
Mof_C 	C 	0.988	0.9296	0.1283	-0.002
Mof_C 	C 	0.8657	0.9161	0.1064	-0.077
Mof_C 	C 	0.8791	0.8793	0.0476	-0.014
Mof_C 	C 	0.2368	0.9305	0.1153	0.275
Mof_C 	C 	0.7334	0.9447	0.1459	0.349
Mof_C 	C 	0.7913	0.1697	0.4075	0.087
Mof_C 	C 	0.7719	0.1397	0.4685	-0.146
Mof_C 	C 	0.8771	0.1424	0.5007	0.096
Mof_C 	C 	0.9927	0.1741	0.4671	-0.15
Mof_C 	C 	0.0022	0.1999	0.4086	0.089
Mof_C 	C 	0.8634	0.105	0.5656	-0.035
Mof_C 	C 	0.9767	0.0786	0.5954	-0.001
Mof_C 	C 	0.9644	0.0388	0.6531	-0.078
Mof_C 	C 	0.8388	0.0213	0.6862	0.008
Mof_C 	C 	0.7257	0.0495	0.6586	-0.082
Mof_C 	C 	0.7375	0.0886	0.6	-0.005
Mof_C 	C 	0.0884	0.0085	0.6837	0.306
Mof_C 	C 	0.5863	0.0349	0.6947	0.337
Mof_C 	C 	0.3303	0.7643	0.2328	0.05
Mof_C 	C 	0.3187	0.6621	0.2512	-0.116
Mof_C 	C 	0.4201	0.5858	0.2288	0.076
Mof_C 	C 	0.5291	0.6214	0.1902	-0.134
Mof_C 	C 	0.5345	0.721	0.1745	0.075
Mof_C 	C 	0.4079	0.4804	0.2466	-0.025
Mof_C 	C 	0.514	0.413	0.2572	-0.007
Mof_C 	C 	0.507	0.3099	0.2705	-0.091
Mof_C 	C 	0.3779	0.2738	0.2752	0.001
Mof_C 	C 	0.27	0.3415	0.2673	-0.052
Mof_C 	C 	0.2786	0.4415	0.2544	-0.025
Mof_C 	C 	0.6266	0.2375	0.2808	0.365
Mof_C 	C 	0.1345	0.2968	0.2713	0.272
Mof_C 	C 	0.8567	0.2327	0.1464	0.082
Mof_C 	C 	0.8665	0.214	0.0853	-0.145
Mof_C 	C 	0.9872	0.1708	0.0536	0.087
Mof_C 	C 	0.0935	0.1588	0.0856	-0.139
Mof_C 	C 	0.0764	0.1772	0.146	0.078
Mof_C 	C 	0.9982	0.1409	0.9886	-0.019
Mof_C 	C 	0.8827	0.1268	0.9663	-0.024
Mof_C 	C 	0.8906	0.0911	0.9078	-0.049
Mof_C 	C 	0.012	0.0704	0.8717	-0.002
Mof_C 	C 	0.1343	0.0839	0.8936	-0.077
Mof_C 	C 	0.1209	0.1207	0.9524	-0.014
Mof_C 	C 	0.7632	0.0695	0.8847	0.275
Mof_C 	C 	0.2666	0.0553	0.8541	0.349
Mof_N 	N 	0.0979	0.8001	0.6251	-0.228
Mof_N 	N 	0.5603	0.2009	0.8071	-0.226
Mof_N 	N 	0.0447	0.7878	0.8219	-0.224
Mof_N 	N 	0.9021	0.1999	0.3749	-0.228
Mof_N 	N 	0.4397	0.7991	0.1929	-0.226
Mof_N 	N 	0.9553	0.2122	0.1781	-0.224
Mof_O 	O 	0.8062	0.9461	0.3388	-0.383
Mof_O 	O 	0.9122	0.0562	0.2743	-0.464
Mof_O 	O 	0.5154	0.9472	0.332	-0.408
Mof_O 	O 	0.4243	0.9987	0.2502	-0.474
Mof_O 	O 	0.3889	0.8548	0.7098	-0.451
Mof_O 	O 	0.2626	0.7245	0.7208	-0.43
Mof_O 	O 	0.9735	0.6414	0.728	-0.333
Mof_O 	O 	0.8655	0.7961	0.7263	-0.393
Mof_O 	O 	0.3486	0.9186	0.0815	-0.36
Mof_O 	O 	0.2242	0.9549	0.1702	-0.381
Mof_O 	O 	0.7428	0.9473	0.2032	-0.485
Mof_O 	O 	0.6294	0.9278	0.1252	-0.443
Mof_O 	O 	0.1938	0.0539	0.6612	-0.383
Mof_O 	O 	0.0878	0.9438	0.7257	-0.464
Mof_O 	O 	0.4846	0.0528	0.668	-0.408
Mof_O 	O 	0.5757	0.0013	0.7498	-0.474
Mof_O 	O 	0.6111	0.1452	0.2902	-0.451
Mof_O 	O 	0.7374	0.2755	0.2792	-0.43
Mof_O 	O 	0.0265	0.3586	0.272	-0.333
Mof_O 	O 	0.1345	0.2039	0.2737	-0.393
Mof_O 	O 	0.6514	0.0814	0.9185	-0.36
Mof_O 	O 	0.7758	0.0451	0.8298	-0.381
Mof_O 	O 	0.2572	0.0527	0.7968	-0.485
Mof_O 	O 	0.3706	0.0722	0.8748	-0.443
_end
