data_functionalizedCrystal
_audit_creation_method	'EQeq! by Chris Wilmer'
_symmetry_space_group_name_H-M	'P1'
_symmetry_Int_Tables_number	1
_symmetry_cell_setting	triclinic
loop_
_symmetry_equiv_pos_as_xyz
  x,y,z
_cell_length_a	9.2664
_cell_length_b	15.2043
_cell_length_c	11.984
_cell_angle_alpha	90
_cell_angle_beta	102.167
_cell_angle_gamma	90
loop_
_atom_site_label
_atom_site_type_symbol
_atom_site_fract_x
_atom_site_fract_y
_atom_site_fract_z
_atom_site_charge
Mof_P 	P 	0.8945	0.108	0.8904	0.629
Mof_P 	P 	0.4492	0.0027	0.8163	0.627
Mof_O 	O 	0.5184	0.0838	0.7735	-0.354
Mof_O 	O 	0.8209	0.1024	0.7645	-0.36
Mof_O 	O 	0.5996	0.2454	0.6903	-0.283
Mof_O 	O 	0.6663	0.9935	0.5983	-0.274
Mof_O 	O 	0.7381	0.1705	0.5442	-0.273
Mof_O 	O 	0.4438	0.1048	0.5338	-0.267
Mof_O 	O 	0.8194	0.0523	0.9648	-0.361
Mof_O 	O 	0.316	0.0308	0.8632	-0.337
Mof_O 	O 	0.5565	0.948	0.9011	-0.377
Mof_O 	O 	0.0547	0.0867	0.8983	-0.337
Mof_O 	O 	0.795	0.3034	0.4825	-0.272
Mof_O 	O 	0.659	0.3782	0.6332	-0.281
Mof_O 	O 	0.8861	0.2038	0.9341	-0.428
Mof_H 	H 	0.9225	0.2375	0.8942	0.284
Mof_O 	O 	0.388	0.9452	0.708	-0.443
Mof_H 	H 	0.3457	0.9019	0.7265	0.302
Mof_C 	C 	0.5633	0.9689	0.5188	0.246
Mof_C 	C 	0.7382	0.2538	0.5444	0.23
Mof_C 	C 	0.6591	0.2967	0.6309	0.256
Mof_Fe	Fe	0.632	0.11428	0.6652	1.021
Mof_Fe	Fe	0.752	0.93836	0.9998	1.051
Mof_P 	P 	0.6055	0.608	0.6096	0.634
Mof_P 	P 	0.0508	0.5027	0.6837	0.625
Mof_O 	O 	0.9816	0.5838	0.7265	-0.356
Mof_O 	O 	0.6791	0.6024	0.7355	-0.36
Mof_O 	O 	0.9004	0.7454	0.8097	-0.284
Mof_O 	O 	0.8337	0.4935	0.9017	-0.273
Mof_O 	O 	0.7619	0.6705	0.9558	-0.272
Mof_O 	O 	0.0562	0.6048	0.9662	-0.259
Mof_O 	O 	0.6806	0.5523	0.5352	-0.364
Mof_O 	O 	0.184	0.5308	0.6368	-0.342
Mof_O 	O 	0.9435	0.448	0.5989	-0.377
Mof_O 	O 	0.4453	0.5867	0.6017	-0.347
Mof_O 	O 	0.705	0.8034	0.0175	-0.263
Mof_O 	O 	0.841	0.8782	0.8668	-0.283
Mof_O 	O 	0.6139	0.7038	0.5659	-0.428
Mof_H 	H 	0.5775	0.7375	0.6058	0.286
Mof_O 	O 	0.112	0.4452	0.792	-0.439
Mof_H 	H 	0.1543	0.4019	0.7735	0.302
Mof_C 	C 	0.9367	0.4689	0.9812	0.239
Mof_C 	C 	0.7618	0.7538	0.9556	0.222
Mof_C 	C 	0.8409	0.7967	0.8691	0.258
Mof_Fe	Fe	0.868	0.61428	0.8348	1.017
Mof_Fe	Fe	0.748	0.43836	0.5002	1.066
Mof_P 	P 	0.1055	0.892	0.1096	0.628
Mof_P 	P 	0.5508	0.9973	0.1837	0.626
Mof_O 	O 	0.4816	0.9162	0.2265	-0.354
Mof_O 	O 	0.1791	0.8976	0.2355	-0.36
Mof_O 	O 	0.4004	0.7546	0.3097	-0.283
Mof_O 	O 	0.3337	0.0065	0.4017	-0.274
Mof_O 	O 	0.2619	0.8295	0.4558	-0.273
Mof_O 	O 	0.5562	0.8952	0.4662	-0.267
Mof_O 	O 	0.1806	0.9477	0.0352	-0.361
Mof_O 	O 	0.684	0.9692	0.1368	-0.337
Mof_O 	O 	0.4435	0.052	0.0989	-0.377
Mof_O 	O 	0.9453	0.9133	0.1017	-0.337
Mof_O 	O 	0.205	0.6966	0.5175	-0.272
Mof_O 	O 	0.341	0.6218	0.3668	-0.281
Mof_O 	O 	0.1139	0.7962	0.0659	-0.428
Mof_H 	H 	0.0775	0.7625	0.1058	0.284
Mof_O 	O 	0.612	0.0548	0.292	-0.443
Mof_H 	H 	0.6543	0.0981	0.2735	0.302
Mof_C 	C 	0.4367	0.0311	0.4812	0.246
Mof_C 	C 	0.2618	0.7462	0.4556	0.23
Mof_C 	C 	0.3409	0.7033	0.3691	0.256
Mof_Fe	Fe	0.368	0.88572	0.3348	1.021
Mof_Fe	Fe	0.248	0.06164	0.0002	1.051
Mof_P 	P 	0.3945	0.392	0.3904	0.634
Mof_P 	P 	0.9492	0.4973	0.3163	0.625
Mof_O 	O 	0.0184	0.4162	0.2735	-0.356
Mof_O 	O 	0.3209	0.3976	0.2645	-0.36
Mof_O 	O 	0.0996	0.2546	0.1903	-0.284
Mof_O 	O 	0.1663	0.5065	0.0983	-0.273
Mof_O 	O 	0.2381	0.3295	0.0442	-0.272
Mof_O 	O 	0.9438	0.3952	0.0338	-0.259
Mof_O 	O 	0.3194	0.4477	0.4648	-0.364
Mof_O 	O 	0.816	0.4692	0.3632	-0.342
Mof_O 	O 	0.0565	0.552	0.4011	-0.377
Mof_O 	O 	0.5547	0.4133	0.3983	-0.347
Mof_O 	O 	0.295	0.1966	0.9825	-0.263
Mof_O 	O 	0.159	0.1218	0.1332	-0.283
Mof_O 	O 	0.3861	0.2962	0.4341	-0.428
Mof_H 	H 	0.4225	0.2625	0.3942	0.286
Mof_O 	O 	0.888	0.5548	0.208	-0.439
Mof_H 	H 	0.8457	0.5981	0.2265	0.302
Mof_C 	C 	0.0633	0.5311	0.0188	0.239
Mof_C 	C 	0.2382	0.2462	0.0444	0.222
Mof_C 	C 	0.1591	0.2033	0.1309	0.258
Mof_Fe	Fe	0.132	0.38572	0.1652	1.017
Mof_Fe	Fe	0.252	0.56164	0.4998	1.066
_end
