data_functionalizedCrystal
_audit_creation_method	'EQeq! by Chris Wilmer'
_symmetry_space_group_name_H-M	'P1'
_symmetry_Int_Tables_number	1
_symmetry_cell_setting	triclinic
loop_
_symmetry_equiv_pos_as_xyz
  x,y,z
_cell_length_a	18.9782
_cell_length_b	18.9782
_cell_length_c	18.9782
_cell_angle_alpha	109.471
_cell_angle_beta	109.471
_cell_angle_gamma	109.471
loop_
_atom_site_label
_atom_site_type_symbol
_atom_site_fract_x
_atom_site_fract_y
_atom_site_fract_z
_atom_site_charge
Mof_Co	Co	0.88615	0.34965	-0	1.181
Mof_Co	Co	0.34965	0.88615	-0	1.181
Mof_Co	Co	0.65035	0.65035	0.5365	1.188
Mof_Co	Co	0.11385	0.11385	0.4635	1.183
Mof_Co	Co	0.5365	0.65035	0.65035	1.188
Mof_Co	Co	0.4635	0.11385	0.11385	1.183
Mof_Co	Co	-2.16055e-17	0.88615	0.34965	1.182
Mof_Co	Co	-2.16055e-17	0.34965	0.88615	1.182
Mof_Co	Co	0.88615	-2.16055e-17	0.34965	1.182
Mof_Co	Co	0.34965	-8.64218e-17	0.88615	1.182
Mof_Co	Co	0.11385	0.4635	0.11385	1.184
Mof_Co	Co	0.65035	0.5365	0.65035	1.189
Mof_H 	H 	0.8769	0.6912	0.2389	0.008
Mof_H 	H 	0.1276	0.3538	0.2782	0.05
Mof_H 	H 	0.8732	0.5642	0.1616	0.06
Mof_H 	H 	0.4523	0.638	0.7611	0.013
Mof_H 	H 	0.0756	0.8494	0.7218	0.1
Mof_H 	H 	0.4026	0.7116	0.8384	0.082
Mof_H 	H 	0.5477	0.3088	0.1857	0.011
Mof_H 	H 	0.9244	0.6462	0.7738	0.014
Mof_H 	H 	0.5974	0.4358	0.309	0.076
Mof_H 	H 	0.1231	0.362	0.8143	0.021
Mof_H 	H 	0.8724	0.1506	0.2262	0.04
Mof_H 	H 	0.1268	0.2884	0.691	0.07
Mof_H 	H 	0.1857	0.5477	0.3088	0.011
Mof_H 	H 	0.7738	0.9244	0.6462	0.014
Mof_H 	H 	0.309	0.5974	0.4358	0.076
Mof_H 	H 	0.8143	0.1231	0.362	0.021
Mof_H 	H 	0.2262	0.8724	0.1506	0.04
Mof_H 	H 	0.691	0.1268	0.2884	0.07
Mof_H 	H 	0.2389	0.8769	0.6912	0.008
Mof_H 	H 	0.2782	0.1276	0.3538	0.05
Mof_H 	H 	0.1616	0.8732	0.5642	0.06
Mof_H 	H 	0.7611	0.4523	0.638	0.013
Mof_H 	H 	0.7218	0.0756	0.8494	0.1
Mof_H 	H 	0.8384	0.4026	0.7116	0.082
Mof_H 	H 	0.638	0.7611	0.4523	0.013
Mof_H 	H 	0.8494	0.7218	0.0756	0.1
Mof_H 	H 	0.7116	0.8384	0.4026	0.082
Mof_H 	H 	0.6912	0.2389	0.8769	0.008
Mof_H 	H 	0.3538	0.2782	0.1276	0.05
Mof_H 	H 	0.5642	0.1616	0.8732	0.06
Mof_H 	H 	0.362	0.8143	0.1231	0.021
Mof_H 	H 	0.1506	0.2262	0.8724	0.04
Mof_H 	H 	0.2884	0.691	0.1268	0.07
Mof_H 	H 	0.3088	0.1857	0.5477	0.011
Mof_H 	H 	0.6462	0.7738	0.9244	0.014
Mof_H 	H 	0.4358	0.309	0.5974	0.076
Mof_H 	H 	0.638	0.4523	0.7611	0.013
Mof_H 	H 	0.8494	0.0756	0.7218	0.1
Mof_H 	H 	0.7116	0.4026	0.8384	0.082
Mof_H 	H 	0.6912	0.8769	0.2389	0.008
Mof_H 	H 	0.3538	0.1276	0.2782	0.05
Mof_H 	H 	0.5642	0.8732	0.1616	0.06
Mof_H 	H 	0.362	0.1231	0.8143	0.021
Mof_H 	H 	0.1506	0.8724	0.2262	0.04
Mof_H 	H 	0.2884	0.1268	0.691	0.07
Mof_H 	H 	0.3088	0.5477	0.1857	0.011
Mof_H 	H 	0.6462	0.9244	0.7738	0.014
Mof_H 	H 	0.4358	0.5974	0.309	0.076
Mof_H 	H 	0.8769	0.2389	0.6912	0.008
Mof_H 	H 	0.1276	0.2782	0.3538	0.05
Mof_H 	H 	0.8732	0.1616	0.5642	0.06
Mof_H 	H 	0.4523	0.7611	0.638	0.013
Mof_H 	H 	0.0756	0.7218	0.8494	0.1
Mof_H 	H 	0.4026	0.8384	0.7116	0.082
Mof_H 	H 	0.5477	0.1857	0.3088	0.011
Mof_H 	H 	0.9244	0.7738	0.6462	0.014
Mof_H 	H 	0.5974	0.309	0.4358	0.076
Mof_H 	H 	0.1231	0.8143	0.362	0.021
Mof_H 	H 	0.8724	0.2262	0.1506	0.04
Mof_H 	H 	0.1268	0.691	0.2884	0.07
Mof_H 	H 	0.1857	0.3088	0.5477	0.011
Mof_H 	H 	0.7738	0.6462	0.9244	0.014
Mof_H 	H 	0.309	0.4358	0.5974	0.076
Mof_H 	H 	0.8143	0.362	0.1231	0.021
Mof_H 	H 	0.2262	0.1506	0.8724	0.04
Mof_H 	H 	0.691	0.2884	0.1268	0.07
Mof_H 	H 	0.2389	0.6912	0.8769	0.008
Mof_H 	H 	0.2782	0.3538	0.1276	0.05
Mof_H 	H 	0.1616	0.5642	0.8732	0.06
Mof_H 	H 	0.7611	0.638	0.4523	0.013
Mof_H 	H 	0.7218	0.8494	0.0756	0.1
Mof_H 	H 	0.8384	0.7116	0.4026	0.082
Mof_C 	C 	0.9286	0.6926	0.2472	0.086
Mof_C 	C 	0.0755	0.3108	0.2649	-0.009
Mof_C 	C 	0.9257	0.6153	0.2002	-0.037
Mof_C 	C 	0.4454	0.6814	0.7528	0.074
Mof_C 	C 	0.0459	0.8106	0.7351	-0.154
Mof_C 	C 	0.4151	0.7255	0.7998	-0.089
Mof_C 	C 	0.5546	0.3074	0.236	0.069
Mof_C 	C 	0.9541	0.6892	0.7647	0.138
Mof_C 	C 	0.5849	0.3847	0.3104	-0.086
Mof_C 	C 	0.0714	0.3186	0.764	0.05
Mof_C 	C 	0.9245	0.1894	0.2353	0.023
Mof_C 	C 	0.0743	0.2745	0.6896	-0.067
Mof_C 	C 	0.236	0.5546	0.3074	0.069
Mof_C 	C 	0.7647	0.9541	0.6892	0.138
Mof_C 	C 	0.3104	0.5849	0.3847	-0.086
Mof_C 	C 	0.764	0.0714	0.3186	0.05
Mof_C 	C 	0.2353	0.9245	0.1894	0.023
Mof_C 	C 	0.6896	0.0743	0.2745	-0.067
Mof_C 	C 	0.2472	0.9286	0.6926	0.086
Mof_C 	C 	0.2649	0.0755	0.3108	-0.009
Mof_C 	C 	0.2002	0.9257	0.6153	-0.037
Mof_C 	C 	0.7528	0.4454	0.6814	0.074
Mof_C 	C 	0.7351	0.0459	0.8106	-0.154
Mof_C 	C 	0.7998	0.4151	0.7255	-0.089
Mof_C 	C 	0.6814	0.7528	0.4454	0.074
Mof_C 	C 	0.8106	0.7351	0.0459	-0.154
Mof_C 	C 	0.7255	0.7998	0.4151	-0.089
Mof_C 	C 	0.6926	0.2472	0.9286	0.086
Mof_C 	C 	0.3108	0.2649	0.0755	-0.009
Mof_C 	C 	0.6153	0.2002	0.9257	-0.037
Mof_C 	C 	0.3186	0.764	0.0714	0.05
Mof_C 	C 	0.1894	0.2353	0.9245	0.023
Mof_C 	C 	0.2745	0.6896	0.0743	-0.067
Mof_C 	C 	0.3074	0.236	0.5546	0.069
Mof_C 	C 	0.6892	0.7647	0.9541	0.138
Mof_C 	C 	0.3847	0.3104	0.5849	-0.086
Mof_C 	C 	0.6814	0.4454	0.7528	0.074
Mof_C 	C 	0.8106	0.0459	0.7351	-0.154
Mof_C 	C 	0.7255	0.4151	0.7998	-0.089
Mof_C 	C 	0.6926	0.9286	0.2472	0.086
Mof_C 	C 	0.3108	0.0755	0.2649	-0.009
Mof_C 	C 	0.6153	0.9257	0.2002	-0.037
Mof_C 	C 	0.3186	0.0714	0.764	0.05
Mof_C 	C 	0.1894	0.9245	0.2353	0.023
Mof_C 	C 	0.2745	0.0743	0.6896	-0.067
Mof_C 	C 	0.3074	0.5546	0.236	0.069
Mof_C 	C 	0.6892	0.9541	0.7647	0.138
Mof_C 	C 	0.3847	0.5849	0.3104	-0.086
Mof_C 	C 	0.9286	0.2472	0.6926	0.086
Mof_C 	C 	0.0755	0.2649	0.3108	-0.009
Mof_C 	C 	0.9257	0.2002	0.6153	-0.037
Mof_C 	C 	0.4454	0.7528	0.6814	0.074
Mof_C 	C 	0.0459	0.7351	0.8106	-0.154
Mof_C 	C 	0.4151	0.7998	0.7255	-0.089
Mof_C 	C 	0.5546	0.236	0.3074	0.069
Mof_C 	C 	0.9541	0.7647	0.6892	0.138
Mof_C 	C 	0.5849	0.3104	0.3847	-0.086
Mof_C 	C 	0.0714	0.764	0.3186	0.05
Mof_C 	C 	0.9245	0.2353	0.1894	0.023
Mof_C 	C 	0.0743	0.6896	0.2745	-0.067
Mof_C 	C 	0.236	0.3074	0.5546	0.069
Mof_C 	C 	0.7647	0.6892	0.9541	0.138
Mof_C 	C 	0.3104	0.3847	0.5849	-0.086
Mof_C 	C 	0.764	0.3186	0.0714	0.05
Mof_C 	C 	0.2353	0.1894	0.9245	0.023
Mof_C 	C 	0.6896	0.2745	0.0743	-0.067
Mof_C 	C 	0.2472	0.6926	0.9286	0.086
Mof_C 	C 	0.2649	0.3108	0.0755	-0.009
Mof_C 	C 	0.2002	0.6153	0.9257	-0.037
Mof_C 	C 	0.7528	0.6814	0.4454	0.074
Mof_C 	C 	0.7351	0.8106	0.0459	-0.154
Mof_C 	C 	0.7998	0.7255	0.4151	-0.089
Mof_C 	C 	-0	0.3361	0.1499	0.369
Mof_C 	C 	2.16055e-17	0.2923	0.2015	-0.125
Mof_C 	C 	-3.24082e-17	0.538	0.1572	0.293
Mof_C 	C 	-0	0.6169	0.2123	-0.058
Mof_C 	C 	0.1862	0.8501	0.8501	0.36
Mof_C 	C 	0.0908	0.7985	0.7985	0.014
Mof_C 	C 	0.3808	0.8428	0.8428	0.317
Mof_C 	C 	0.4046	0.7877	0.7877	-0
Mof_C 	C 	0.8138	0.6639	0.6639	0.444
Mof_C 	C 	0.9092	0.7077	0.7077	-0.185
Mof_C 	C 	0.6192	0.462	0.462	0.32
Mof_C 	C 	0.5954	0.3831	0.3831	-0.009
Mof_C 	C 	2.16055e-17	0.1499	0.3361	0.369
Mof_C 	C 	2.16055e-17	0.2015	0.2923	-0.125
Mof_C 	C 	-1.08027e-17	0.1572	0.538	0.293
Mof_C 	C 	-2.16055e-17	0.2123	0.6169	-0.058
Mof_C 	C 	0.6639	0.8138	0.6639	0.444
Mof_C 	C 	0.7077	0.9092	0.7077	-0.185
Mof_C 	C 	0.462	0.6192	0.462	0.32
Mof_C 	C 	0.3831	0.5954	0.3831	-0.009
Mof_C 	C 	0.3361	-2.16055e-17	0.1499	0.369
Mof_C 	C 	0.2923	-2.16055e-17	0.2015	-0.125
Mof_C 	C 	0.538	-1.08027e-17	0.1572	0.293
Mof_C 	C 	0.6169	-2.16055e-17	0.2123	-0.058
Mof_C 	C 	0.1499	-4.32109e-17	0.3361	0.369
Mof_C 	C 	0.2015	-2.16055e-17	0.2923	-0.125
Mof_C 	C 	0.1572	-4.32109e-17	0.538	0.293
Mof_C 	C 	0.2123	-4.32109e-17	0.6169	-0.058
Mof_C 	C 	0.8501	0.1862	0.8501	0.36
Mof_C 	C 	0.7985	0.0908	0.7985	0.014
Mof_C 	C 	0.8428	0.3808	0.8428	0.317
Mof_C 	C 	0.7877	0.4046	0.7877	-0
Mof_C 	C 	0.8501	0.8501	0.1862	0.36
Mof_C 	C 	0.7985	0.7985	0.0908	0.014
Mof_C 	C 	0.8428	0.8428	0.3808	0.317
Mof_C 	C 	0.7877	0.7877	0.4046	-0
Mof_C 	C 	0.3361	0.1499	-0	0.369
Mof_C 	C 	0.2923	0.2015	-0	-0.125
Mof_C 	C 	0.538	0.1572	-0	0.293
Mof_C 	C 	0.6169	0.2123	-0	-0.058
Mof_C 	C 	0.1499	0.3361	-0	0.369
Mof_C 	C 	0.2015	0.2923	-0	-0.125
Mof_C 	C 	0.1572	0.538	-0	0.293
Mof_C 	C 	0.2123	0.6169	-0	-0.058
Mof_C 	C 	0.6639	0.6639	0.8138	0.444
Mof_C 	C 	0.7077	0.7077	0.9092	-0.185
Mof_C 	C 	0.462	0.462	0.6192	0.32
Mof_C 	C 	0.3831	0.3831	0.5954	-0.009
Mof_N 	N 	0.7655	0.3015	-0	-0.227
Mof_N 	N 	0.3015	0.7655	-0	-0.227
Mof_N 	N 	0.6985	0.6985	0.464	-0.209
Mof_N 	N 	0.2345	0.2345	0.536	-0.21
Mof_N 	N 	0.464	0.6985	0.6985	-0.209
Mof_N 	N 	0.536	0.2345	0.2345	-0.21
Mof_N 	N 	4.32109e-17	0.7655	0.3015	-0.227
Mof_N 	N 	-0	0.3015	0.7655	-0.227
Mof_N 	N 	0.7655	-2.16055e-17	0.3015	-0.227
Mof_N 	N 	0.3015	-8.64218e-17	0.7655	-0.227
Mof_N 	N 	0.2345	0.536	0.2345	-0.21
Mof_N 	N 	0.6985	0.464	0.6985	-0.209
Mof_O 	O 	0.926	0.4725	0.0981	-0.366
Mof_O 	O 	0.9291	0.316	0.0933	-0.405
Mof_O 	O 	0.3744	0.8279	0.9019	-0.37
Mof_O 	O 	0.2227	0.8358	0.9067	-0.401
Mof_O 	O 	0.6256	0.5275	0.4535	-0.39
Mof_O 	O 	0.7773	0.684	0.6131	-0.436
Mof_O 	O 	0.074	0.1721	0.5465	-0.389
Mof_O 	O 	0.0709	0.1642	0.3869	-0.428
Mof_O 	O 	0.4535	0.6256	0.5275	-0.39
Mof_O 	O 	0.6131	0.7773	0.684	-0.436
Mof_O 	O 	0.5465	0.074	0.1721	-0.389
Mof_O 	O 	0.3869	0.0709	0.1642	-0.428
Mof_O 	O 	0.0981	0.926	0.4725	-0.366
Mof_O 	O 	0.0933	0.9291	0.316	-0.405
Mof_O 	O 	0.9019	0.3744	0.8279	-0.37
Mof_O 	O 	0.9067	0.2227	0.8358	-0.401
Mof_O 	O 	0.8279	0.9019	0.3744	-0.37
Mof_O 	O 	0.8358	0.9067	0.2227	-0.401
Mof_O 	O 	0.4725	0.0981	0.926	-0.366
Mof_O 	O 	0.316	0.0933	0.9291	-0.405
Mof_O 	O 	0.1721	0.5465	0.074	-0.389
Mof_O 	O 	0.1642	0.3869	0.0709	-0.428
Mof_O 	O 	0.5275	0.4535	0.6256	-0.39
Mof_O 	O 	0.684	0.6131	0.7773	-0.436
Mof_O 	O 	0.8279	0.3744	0.9019	-0.37
Mof_O 	O 	0.8358	0.2227	0.9067	-0.401
Mof_O 	O 	0.4725	0.926	0.0981	-0.366
Mof_O 	O 	0.316	0.9291	0.0933	-0.405
Mof_O 	O 	0.1721	0.074	0.5465	-0.389
Mof_O 	O 	0.1642	0.0709	0.3869	-0.428
Mof_O 	O 	0.5275	0.6256	0.4535	-0.39
Mof_O 	O 	0.684	0.7773	0.6131	-0.436
Mof_O 	O 	0.926	0.0981	0.4725	-0.366
Mof_O 	O 	0.9291	0.0933	0.316	-0.405
Mof_O 	O 	0.3744	0.9019	0.8279	-0.37
Mof_O 	O 	0.2227	0.9067	0.8358	-0.401
Mof_O 	O 	0.6256	0.4535	0.5275	-0.39
Mof_O 	O 	0.7773	0.6131	0.684	-0.436
Mof_O 	O 	0.074	0.5465	0.1721	-0.389
Mof_O 	O 	0.0709	0.3869	0.1642	-0.428
Mof_O 	O 	0.4535	0.5275	0.6256	-0.39
Mof_O 	O 	0.6131	0.684	0.7773	-0.436
Mof_O 	O 	0.5465	0.1721	0.074	-0.389
Mof_O 	O 	0.3869	0.1642	0.0709	-0.428
Mof_O 	O 	0.0981	0.4725	0.926	-0.366
Mof_O 	O 	0.0933	0.316	0.9291	-0.405
Mof_O 	O 	0.9019	0.8279	0.3744	-0.37
Mof_O 	O 	0.9067	0.8358	0.2227	-0.401
Mof_O 	O 	-0	0.4032	-0	-0.607
Mof_O 	O 	0.4032	0	-0	-0.607
Mof_O 	O 	0.5968	0.5968	0.5968	-0.57
Mof_O 	O 	-0	-4.32109e-17	0.4032	-0.607
_end
