data_functionalizedCrystal
_audit_creation_method	'EQeq! by Chris Wilmer'
_symmetry_space_group_name_H-M	'P1'
_symmetry_Int_Tables_number	1
_symmetry_cell_setting	triclinic
loop_
_symmetry_equiv_pos_as_xyz
  x,y,z
_cell_length_a	14.168
_cell_length_b	15.091
_cell_length_c	22.752
_cell_angle_alpha	85.333
_cell_angle_beta	75.13
_cell_angle_gamma	69.426
loop_
_atom_site_label
_atom_site_type_symbol
_atom_site_fract_x
_atom_site_fract_y
_atom_site_fract_z
_atom_site_charge
Mof_Pr	Pr	0.06871	0.16761	0.79786	2.081
Mof_Pr	Pr	0.80555	0.20436	0.7298	2.535
Mof_Pr	Pr	0.93129	0.83239	0.20214	2.081
Mof_Pr	Pr	0.458	0.28871	0.69591	2.226
Mof_Pr	Pr	0.542	0.71129	0.30409	2.226
Mof_Pr	Pr	0.19445	0.79564	0.2702	2.535
Mof_Si	Si	0.14189	0.32741	0.39237	0.746
Mof_Si	Si	0.66869	0.78983	0.89306	0.75
Mof_Si	Si	0.33131	0.21017	0.10694	0.75
Mof_Si	Si	0.85811	0.67259	0.60763	0.746
Mof_H 	H 	0.2993	0.1326	0.0033	-0.018
Mof_H 	H 	0.3987	0.0102	0.3602	0.021
Mof_H 	H 	0.3633	0.3151	0.3428	-0.011
Mof_H 	H 	0.1197	0.2176	0.296	0.005
Mof_H 	H 	0.5456	0.5869	0.6809	0.053
Mof_H 	H 	0.4539	0.3449	0.9136	0.066
Mof_H 	H 	0.2737	0.9093	0.1359	-0.002
Mof_H 	H 	0.0067	0.8075	0.4212	0.061
Mof_H 	H 	0.634	0.6776	0.8037	0.004
Mof_H 	H 	0.9214	0.4696	0.8635	0.026
Mof_H 	H 	0.6312	0.9931	0.887	0.007
Mof_H 	H 	0.1858	0.6354	0.3734	-0.017
Mof_H 	H 	0.4193	0.3266	0.0176	-0.026
Mof_H 	H 	0.9187	0.3957	0.4513	-0.015
Mof_H 	H 	0.6093	0.8614	0.7798	-0.013
Mof_H 	H 	0.366	0.3224	0.1963	0.004
Mof_H 	H 	0.0802	0.4147	0.2816	-0.008
Mof_H 	H 	0.0692	0.4946	0.7452	0.069
Mof_H 	H 	0.301	0.4749	0.2275	0.043
Mof_H 	H 	0.7263	0.0907	0.8641	-0.002
Mof_H 	H 	0.3907	0.1386	0.2202	-0.013
Mof_H 	H 	0.9933	0.1925	0.5788	0.061
Mof_H 	H 	0.8081	0.6219	0.4997	-0.01
Mof_H 	H 	0.6013	0.9898	0.6398	0.021
Mof_H 	H 	0.6713	0.8478	0.0999	0.077
Mof_H 	H 	0.0087	0.1349	0.168	0.048
Mof_H 	H 	0.7659	0.4805	0.4225	0.072
Mof_H 	H 	0.1504	0.3755	0.1012	-0.004
Mof_H 	H 	0.7007	0.8674	0.9967	-0.018
Mof_H 	H 	0.9198	0.5853	0.7184	-0.008
Mof_H 	H 	0.9014	0.4726	0.6018	0.01
Mof_H 	H 	0.0813	0.6043	0.5487	-0.015
Mof_H 	H 	0.9308	0.5054	0.2548	0.069
Mof_H 	H 	0.5461	0.6551	0.0864	0.066
Mof_H 	H 	0.8803	0.7824	0.704	0.005
Mof_H 	H 	0.9913	0.8651	0.832	0.048
Mof_H 	H 	0.1675	0.3364	0.6012	0.055
Mof_H 	H 	0.1061	0.2364	0.1499	-0.002
Mof_H 	H 	0.2341	0.5195	0.5775	0.072
Mof_H 	H 	0.812	0.9359	0.7358	0.043
Mof_H 	H 	0.188	0.0641	0.2642	0.043
Mof_H 	H 	0.0986	0.5274	0.3982	0.01
Mof_H 	H 	0.6367	0.6849	0.6572	-0.011
Mof_H 	H 	0.3245	0.1662	0.3963	-0.002
Mof_H 	H 	0.8142	0.3646	0.6266	-0.017
Mof_H 	H 	0.4447	0.8746	0.953	-0.019
Mof_H 	H 	0.4544	0.4131	0.3191	0.053
Mof_H 	H 	0.3688	0.0069	0.113	0.007
Mof_H 	H 	0.1919	0.3781	0.5003	-0.01
Mof_H 	H 	0.5807	0.6734	0.9824	-0.026
Mof_H 	H 	0.0786	0.5304	0.1365	0.026
Mof_H 	H 	0.3287	0.1522	0.9001	0.077
Mof_H 	H 	0.7016	0.0269	0.0769	0.078
Mof_H 	H 	0.5553	0.1254	0.047	-0.019
Mof_H 	H 	0.2984	0.9731	0.9231	0.078
Mof_H 	H 	0.4654	0.9601	0.7517	0.073
Mof_H 	H 	0.8325	0.6636	0.3988	0.055
Mof_H 	H 	0.699	0.5251	0.7725	0.043
Mof_H 	H 	0.8939	0.7636	0.8501	-0.002
Mof_H 	H 	0.8496	0.6245	0.8988	-0.004
Mof_H 	H 	0.6755	0.8338	0.6037	-0.002
Mof_H 	H 	0.0302	0.225	0.4749	-0.002
Mof_H 	H 	0.9698	0.775	0.5251	-0.002
Mof_H 	H 	0.5346	0.0399	0.2483	0.073
Mof_C 	C 	0.818	0.4799	0.8136	-0.128
Mof_C 	C 	0.3589	0.226	0.021	-0.282
Mof_C 	C 	0.8581	0.3776	0.7926	0.525
Mof_C 	C 	0.7313	0.9516	0.1814	0.32
Mof_C 	C 	0.8192	0.6045	0.8731	0.039
Mof_C 	C 	0.7515	0.8641	0.8707	-0.248
Mof_C 	C 	0.5771	0.6989	0.0685	-0.125
Mof_C 	C 	0.928	0.4834	0.2944	-0.102
Mof_C 	C 	0.6903	0.6357	0.817	0.035
Mof_C 	C 	0.8258	0.8239	0.689	0.047
Mof_C 	C 	0.2242	0.4048	0.3723	-0.249
Mof_C 	C 	0.0809	0.1104	0.1577	-0.049
Mof_C 	C 	0.2409	0.9746	0.1376	-0.029
Mof_C 	C 	0.7043	0.8539	0.6302	0.032
Mof_C 	C 	0.072	0.5166	0.7056	-0.102
Mof_C 	C 	0.1742	0.1761	0.311	0.047
Mof_C 	C 	0.3416	0.0519	0.3476	-0.015
Mof_C 	C 	0.4025	0.2896	0.9939	0.106
Mof_C 	C 	0.2967	0.0331	0.1249	0.029
Mof_C 	C 	0.9191	0.8896	0.8423	-0.049
Mof_C 	C 	0.182	0.5201	0.1864	-0.128
Mof_C 	C 	0.3974	0.2477	0.896	-0.011
Mof_C 	C 	0.8621	0.6859	0.4238	-0.076
Mof_C 	C 	0.0148	0.3939	0.3697	-0.261
Mof_C 	C 	0.9345	0.7655	0.3346	0.404
Mof_C 	C 	0.7305	0.5451	0.7974	-0.034
Mof_C 	C 	0.0811	0.2607	0.5997	-0.074
Mof_C 	C 	0.017	0.429	0.3104	0.084
Mof_C 	C 	0.3468	0.9208	0.2871	0.525
Mof_C 	C 	0.7832	0.9152	0.7096	-0.016
Mof_C 	C 	0.6687	0.8244	0.0148	0.1
Mof_C 	C 	0.3267	0.3795	0.3493	0.073
Mof_C 	C 	0.0362	0.2277	0.5628	-0.077
Mof_C 	C 	0.1671	0.4938	0.6627	-0.014
Mof_C 	C 	0.4532	0.1167	0.1909	0.095
Mof_C 	C 	0.2168	0.0848	0.2904	-0.016
Mof_C 	C 	0.4229	0.3011	0.9315	-0.125
Mof_C 	C 	0.9214	0.4162	0.4115	0.091
Mof_C 	C 	0.5975	0.7104	0.0061	0.106
Mof_C 	C 	0.9189	0.7393	0.4003	-0.074
Mof_C 	C 	0.9423	0.7509	0.4997	0.081
Mof_C 	C 	0.7591	0.0254	0.8624	-0.029
Mof_C 	C 	0.6733	0.6205	0.6507	0.073
Mof_C 	C 	0.2675	0.3317	0.14279	-0.241
Mof_C 	C 	0.1379	0.3141	0.5762	-0.076
Mof_C 	C 	0.6584	0.9481	0.6524	-0.015
Mof_C 	C 	0.1164	0.303	0.4756	-0.272
Mof_C 	C 	0.544	0.8545	0.8697	-0.274
Mof_C 	C 	0.0655	0.2345	0.6654	0.404
Mof_C 	C 	0.7033	0.9669	0.8751	0.029
Mof_C 	C 	0.3097	0.3643	0.183	0.035
Mof_C 	C 	0.8329	0.5062	0.3373	-0.014
Mof_C 	C 	0.928	0.0502	0.8321	0.373
Mof_C 	C 	0.6386	0.0499	0.1057	-0.119
Mof_C 	C 	0.137	0.4891	0.1479	-0.033
Mof_C 	C 	0.4144	0.2615	0.8287	0.311
Mof_C 	C 	0.1324	0.0147	0.1532	-0.103
Mof_C 	C 	0.3311	0.5363	0.3423	-0.13
Mof_C 	C 	0.6532	0.0792	0.7129	0.525
Mof_C 	C 	0.6328	0.0251	0.1654	0.002
Mof_C 	C 	0.6689	0.4637	0.6577	-0.13
Mof_C 	C 	0.863	0.5109	0.8521	-0.033
Mof_C 	C 	0.7328	0.5707	0.3216	0.326
Mof_C 	C 	0.2672	0.4293	0.6784	0.326
Mof_C 	C 	0.1808	0.3955	0.1269	0.039
Mof_C 	C 	0.3672	0.9749	0.8346	0.002
Mof_C 	C 	0.1419	0.6224	0.2074	0.525
Mof_C 	C 	0.8456	0.6621	0.4851	0.073
Mof_C 	C 	0.0786	0.5838	0.5885	0.091
Mof_C 	C 	0.1701	0.5055	0.3818	0.016
Mof_C 	C 	0.8598	0.8287	0.8539	0.049
Mof_C 	C 	0.6123	0.3978	0.6772	0.434
Mof_C 	C 	0.6981	0.9769	0.6919	-0.129
Mof_C 	C 	0.7781	0.4291	0.6329	-0.011
Mof_C 	C 	0.983	0.571	0.6896	0.084
Mof_C 	C 	0.461	0.942	0.7921	-0.116
Mof_C 	C 	0.9638	0.7723	0.4372	-0.077
Mof_C 	C 	0.6173	0.5623	0.6656	-0.059
Mof_C 	C 	0.539	0.058	0.2079	-0.116
Mof_C 	C 	0.3827	0.4377	0.3344	-0.059
Mof_C 	C 	0.0577	0.2491	0.5003	0.081
Mof_C 	C 	0.7325	0.6683	0.85721	-0.241
Mof_C 	C 	0.7758	0.5952	0.6277	-0.249
Mof_C 	C 	0.2087	0.2093	0.35297	-0.239
Mof_C 	C 	0.8676	0.9853	0.8468	-0.103
Mof_C 	C 	0.7913	0.7907	0.64703	-0.239
Mof_C 	C 	0.6411	0.774	0.979	-0.282
Mof_C 	C 	0.8836	0.697	0.5244	-0.272
Mof_C 	C 	0.2485	0.1359	0.1293	-0.248
Mof_C 	C 	0.3019	0.0231	0.3081	-0.129
Mof_C 	C 	0.8297	0.4697	0.3946	-0.107
Mof_C 	C 	0.3614	0.9501	0.8943	-0.119
Mof_C 	C 	0.9852	0.6061	0.6303	-0.261
Mof_C 	C 	0.456	0.1455	0.1303	-0.274
Mof_C 	C 	0.3877	0.6022	0.3228	0.434
Mof_C 	C 	0.2219	0.5709	0.3671	-0.011
Mof_C 	C 	0.4493	0.8905	0.9123	0.095
Mof_C 	C 	0.3494	0.1867	0.9233	-0.124
Mof_C 	C 	0.5856	0.7385	0.1713	0.311
Mof_C 	C 	0.2695	0.4549	0.2026	-0.034
Mof_C 	C 	0.6506	0.8133	0.0767	-0.124
Mof_C 	C 	0.5468	0.8833	0.8091	0.095
Mof_C 	C 	0.6026	0.7523	0.104	-0.011
Mof_C 	C 	0.1544	0.3379	0.5149	0.073
Mof_C 	C 	0.8299	0.4945	0.6182	0.016
Mof_C 	C 	0.2687	0.0484	0.8186	0.32
Mof_C 	C 	0.3313	0.1756	0.9852	0.1
Mof_C 	C 	0.5507	0.1095	0.0877	0.095
Mof_C 	C 	0.1703	0.5303	0.6054	-0.107
Mof_C 	C 	0.1402	0.1713	0.1461	0.049
Mof_C 	C 	0.2957	0.1461	0.3698	0.032
Mof_C 	C 	0.072	0.9498	0.1679	0.373
Mof_N 	N 	0.0847	0.9412	0.3613	0.054
Mof_N 	N 	0.9153	0.0588	0.6387	0.054
Mof_O 	O 	0.5282	0.6919	0.19748	-0.472
Mof_O 	O 	0.1898	0.0784	0.86074	-0.49
Mof_O 	O 	0.3427	0.687	0.31238	-0.649
Mof_O 	O 	0.0658	0.9566	0.31265	-0.352
Mof_O 	O 	0.515	0.4271	0.68316	-0.52
Mof_O 	O 	0.8464	0.1378	0.62512	-0.368
Mof_O 	O 	0.0151	0.7868	0.30981	-0.602
Mof_O 	O 	0.1536	0.8622	0.37488	-0.368
Mof_O 	O 	0.7303	0.9299	0.23488	-0.451
Mof_O 	O 	0.1944	0.6486	0.23134	-0.63
Mof_O 	O 	0.5691	0.1276	0.69817	-0.61
Mof_O 	O 	0.1278	0.2375	0.69516	-0.497
Mof_O 	O 	0.6255	0.7732	0.20214	-0.452
Mof_O 	O 	0.8722	0.7625	0.30484	-0.497
Mof_O 	O 	0.8056	0.3514	0.76866	-0.63
Mof_O 	O 	0.9342	0.0434	0.68735	-0.352
Mof_O 	O 	0.3	0.8899	0.25894	-0.642
Mof_O 	O 	0.4718	0.3081	0.80252	-0.472
Mof_O 	O 	0.0174	0.0238	0.8452	-0.457
Mof_O 	O 	0.3448	0.3995	0.63491	-0.504
Mof_O 	O 	0.0531	0.6714	0.19911	-0.588
Mof_O 	O 	0.2673	0.4002	0.73041	-0.458
Mof_O 	O 	0.9553	0.9972	0.5866	-0.118
Mof_O 	O 	0.8946	0.1322	0.80822	-0.712
Mof_O 	O 	0.1054	0.8678	0.19178	-0.712
Mof_O 	O 	0.0447	0.0028	0.4134	-0.118
Mof_O 	O 	0.9849	0.2132	0.69019	-0.602
Mof_O 	O 	0.2697	0.0701	0.76512	-0.451
Mof_O 	O 	0.9469	0.3286	0.80089	-0.588
Mof_O 	O 	0.6552	0.6005	0.36509	-0.504
Mof_O 	O 	0.4309	0.8724	0.30183	-0.61
Mof_O 	O 	0.7327	0.5998	0.26959	-0.458
Mof_O 	O 	0.485	0.5729	0.31684	-0.52
Mof_O 	O 	0.6573	0.313	0.68762	-0.649
Mof_O 	O 	0.7	0.1101	0.74106	-0.642
Mof_O 	O 	0.3745	0.2268	0.79786	-0.452
Mof_O 	O 	0.9826	0.9762	0.1548	-0.457
Mof_O 	O 	0.8102	0.9216	0.13926	-0.49
_end
