# CIF file generated by openbabel 3.1.0, see https://openbabel.org
data_I
_chemical_name_common 'image0'
_cell_length_a 23.681
_cell_length_b 9.6928
_cell_length_c 35.389
_cell_angle_alpha 90
_cell_angle_beta 92.789
_cell_angle_gamma 90
_space_group_name_H-M_alt 'P 1'
_space_group_name_Hall 'P 1'
loop_
    _symmetry_equiv_pos_as_xyz
    x,y,z
loop_
    _atom_site_label
    _atom_site_type_symbol
    _atom_site_fract_x
    _atom_site_fract_y
    _atom_site_fract_z
    _atom_site_occupancy
    Cd1      Cd       0.19055    0.95179    0.32492    1.000
    O1       O        0.14278    0.82190    0.36826    1.000
    O2       O        0.19834    0.70140    0.33325    1.000
    O3       O        0.12449    0.24560    0.45212    1.000
    O4       O        0.13620    0.10480    0.76623    1.000
    O5       O        0.20438    0.95400    0.76451    1.000
    O6       O        0.11810    0.96300    0.59112    1.000
    O7       O        0.74462    0.56100    0.36988    1.000
    O8       O        0.79606    0.45360    0.32943    1.000
    O9       O        0.98921    0.69340    0.44336    1.000
    C1       C        0.12060    0.01040    0.46961    1.000
    C2       C        0.14570    0.98020    0.50576    1.000
    C3       C        0.12080    0.88310    0.52895    1.000
    C4       C        0.06970    0.81830    0.51646    1.000
    C5       C        0.04285    0.85590    0.48227    1.000
    C6       C        0.06820    0.94990    0.45837    1.000
    C7       C        0.14860    0.11090    0.44372    1.000
    H1       H        0.18920    0.11140    0.44870    1.000
    H2       H        0.14060    0.08660    0.41740    1.000
    C8       C        0.20050    0.05700    0.51885    1.000
    H3       H        0.23240    0.99670    0.51660    1.000
    H4       H        0.19820    0.08460    0.54480    1.000
    H5       H        0.20510    0.13710    0.50340    1.000
    C9       C        0.14400    0.85800    0.56865    1.000
    H6       H        0.13400    0.76650    0.57720    1.000
    H7       H        0.18490    0.86700    0.57010    1.000
    C10      C        0.04400    0.70370    0.54111    1.000
    H8       H        0.01650    0.65220    0.52610    1.000
    H9       H        0.02610    0.74520    0.56210    1.000
    H10      H        0.07340    0.64280    0.55040    1.000
    C11      C        0.98425    0.79970    0.47144    1.000
    H11      H        0.96720    0.76210    0.49360    1.000
    H12      H        0.96020    0.87340    0.46140    1.000
    C12      C        0.04080    0.98830    0.41995    1.000
    H13      H        0.00160    0.96270    0.41910    1.000
    H14      H        0.05960    0.94040    0.40040    1.000
    H15      H        0.04400    0.08600    0.41610    1.000
    C13      C        0.16670    0.71040    0.36151    1.000
    C14      C        0.15850    0.58740    0.38583    1.000
    C15      C        0.11840    0.59060    0.41293    1.000
    H16      H        0.09790    0.67080    0.41670    1.000
    C16      C        0.10900    0.47480    0.43428    1.000
    H17      H        0.08170    0.47750    0.45230    1.000
    C17      C        0.13920    0.35550    0.42953    1.000
    C18      C        0.17970    0.35320    0.40331    1.000
    H18      H        0.20080    0.27370    0.39990    1.000
    C19      C        0.18930    0.46900    0.38203    1.000
    H19      H        0.21740    0.46680    0.36460    1.000
    C20      C        0.16540    0.02230    0.74886    1.000
    C21      C        0.15250    0.00120    0.70663    1.000
    C22      C        0.17480    0.89170    0.68748    1.000
    H20      H        0.19740    0.82810    0.70080    1.000
    C23      C        0.16430    0.87390    0.64913    1.000
    H21      H        0.17890    0.79760    0.63700    1.000
    C24      C        0.13220    0.96980    0.62889    1.000
    C25      C        0.10960    0.08020    0.64746    1.000
    H22      H        0.08730    0.14430    0.63400    1.000
    C26      C        0.11980    0.09580    0.68592    1.000
    H23      H        0.10450    0.17100    0.69820    1.000
    C27      C        0.79200    0.52240    0.35831    1.000
    C28      C        0.84450    0.56400    0.38255    1.000
    C29      C        0.89840    0.53780    0.37016    1.000
    H24      H        0.90300    0.49080    0.34760    1.000
    C30      C        0.94460    0.58240    0.39168    1.000
    H25      H        0.98050    0.56570    0.38310    1.000
    C31      C        0.93986    0.65040    0.42515    1.000
    C32      C        0.88720    0.67270    0.43820    1.000
    H26      H        0.88280    0.71630    0.46130    1.000
    C33      C        0.84060    0.62860    0.41620    1.000
    H27      H        0.80480    0.64440    0.42500    1.000
    Cd2      Cd       0.69055    0.45179    0.32492    1.000
    O10      O        0.64278    0.32190    0.36826    1.000
    O11      O        0.69834    0.20140    0.33325    1.000
    O12      O        0.62449    0.74560    0.45212    1.000
    O13      O        0.63620    0.60480    0.76623    1.000
    O14      O        0.70438    0.45400    0.76451    1.000
    O15      O        0.61810    0.46300    0.59112    1.000
    O16      O        0.24462    0.06100    0.36988    1.000
    O17      O        0.29606    0.95360    0.32943    1.000
    O18      O        0.48921    0.19340    0.44336    1.000
    C34      C        0.62060    0.51040    0.46961    1.000
    C35      C        0.64570    0.48020    0.50576    1.000
    C36      C        0.62080    0.38310    0.52895    1.000
    C37      C        0.56970    0.31830    0.51646    1.000
    C38      C        0.54285    0.35590    0.48227    1.000
    C39      C        0.56820    0.44990    0.45837    1.000
    C40      C        0.64860    0.61090    0.44372    1.000
    H28      H        0.68920    0.61140    0.44870    1.000
    H29      H        0.64060    0.58660    0.41740    1.000
    C41      C        0.70050    0.55700    0.51885    1.000
    H30      H        0.73240    0.49670    0.51660    1.000
    H31      H        0.69820    0.58460    0.54480    1.000
    H32      H        0.70510    0.63710    0.50340    1.000
    C42      C        0.64400    0.35800    0.56865    1.000
    H33      H        0.63400    0.26650    0.57720    1.000
    H34      H        0.68490    0.36700    0.57010    1.000
    C43      C        0.54400    0.20370    0.54111    1.000
    H35      H        0.51650    0.15220    0.52610    1.000
    H36      H        0.52610    0.24520    0.56210    1.000
    H37      H        0.57340    0.14280    0.55040    1.000
    C44      C        0.48425    0.29970    0.47144    1.000
    H38      H        0.46720    0.26210    0.49360    1.000
    H39      H        0.46020    0.37340    0.46140    1.000
    C45      C        0.54080    0.48830    0.41995    1.000
    H40      H        0.50160    0.46270    0.41910    1.000
    H41      H        0.55960    0.44040    0.40040    1.000
    H42      H        0.54400    0.58600    0.41610    1.000
    C46      C        0.66670    0.21040    0.36151    1.000
    C47      C        0.65850    0.08740    0.38583    1.000
    C48      C        0.61840    0.09060    0.41293    1.000
    H43      H        0.59790    0.17080    0.41670    1.000
    C49      C        0.60900    0.97480    0.43428    1.000
    H44      H        0.58170    0.97750    0.45230    1.000
    C50      C        0.63920    0.85550    0.42953    1.000
    C51      C        0.67970    0.85320    0.40331    1.000
    H45      H        0.70080    0.77370    0.39990    1.000
    C52      C        0.68930    0.96900    0.38203    1.000
    H46      H        0.71740    0.96680    0.36460    1.000
    C53      C        0.66540    0.52230    0.74886    1.000
    C54      C        0.65250    0.50120    0.70663    1.000
    C55      C        0.67480    0.39170    0.68748    1.000
    H47      H        0.69740    0.32810    0.70080    1.000
    C56      C        0.66430    0.37390    0.64913    1.000
    H48      H        0.67890    0.29760    0.63700    1.000
    C57      C        0.63220    0.46980    0.62889    1.000
    C58      C        0.60960    0.58020    0.64746    1.000
    H49      H        0.58730    0.64430    0.63400    1.000
    C59      C        0.61980    0.59580    0.68592    1.000
    H50      H        0.60450    0.67100    0.69820    1.000
    C60      C        0.29200    0.02240    0.35831    1.000
    C61      C        0.34450    0.06400    0.38255    1.000
    C62      C        0.39840    0.03780    0.37016    1.000
    H51      H        0.40300    0.99080    0.34760    1.000
    C63      C        0.44460    0.08240    0.39168    1.000
    H52      H        0.48050    0.06570    0.38310    1.000
    C64      C        0.43986    0.15040    0.42515    1.000
    C65      C        0.38720    0.17270    0.43820    1.000
    H53      H        0.38280    0.21630    0.46130    1.000
    C66      C        0.34060    0.12860    0.41620    1.000
    H54      H        0.30480    0.14440    0.42500    1.000
    Cd3      Cd       0.19055    0.04821    0.82492    1.000
    O19      O        0.14278    0.17810    0.86826    1.000
    O20      O        0.19834    0.29860    0.83325    1.000
    O21      O        0.12449    0.75440    0.95212    1.000
    O22      O        0.13620    0.89520    0.26623    1.000
    O23      O        0.20438    0.04600    0.26451    1.000
    O24      O        0.11810    0.03700    0.09112    1.000
    O25      O        0.74462    0.43900    0.86988    1.000
    O26      O        0.79606    0.54640    0.82943    1.000
    O27      O        0.98921    0.30660    0.94336    1.000
    C67      C        0.12060    0.98960    0.96961    1.000
    C68      C        0.14570    0.01980    0.00576    1.000
    C69      C        0.12080    0.11690    0.02895    1.000
    C70      C        0.06970    0.18170    0.01646    1.000
    C71      C        0.04285    0.14410    0.98227    1.000
    C72      C        0.06820    0.05010    0.95837    1.000
    C73      C        0.14860    0.88910    0.94372    1.000
    H55      H        0.18920    0.88860    0.94870    1.000
    H56      H        0.14060    0.91340    0.91740    1.000
    C74      C        0.20050    0.94300    0.01885    1.000
    H57      H        0.23240    0.00330    0.01660    1.000
    H58      H        0.19820    0.91540    0.04480    1.000
    H59      H        0.20510    0.86290    0.00340    1.000
    C75      C        0.14400    0.14200    0.06865    1.000
    H60      H        0.13400    0.23350    0.07720    1.000
    H61      H        0.18490    0.13300    0.07010    1.000
    C76      C        0.04400    0.29630    0.04111    1.000
    H62      H        0.01650    0.34780    0.02610    1.000
    H63      H        0.02610    0.25480    0.06210    1.000
    H64      H        0.07340    0.35720    0.05040    1.000
    C77      C        0.98425    0.20030    0.97144    1.000
    H65      H        0.96720    0.23790    0.99360    1.000
    H66      H        0.96020    0.12660    0.96140    1.000
    C78      C        0.04080    0.01170    0.91995    1.000
    H67      H        0.00160    0.03730    0.91910    1.000
    H68      H        0.05960    0.05960    0.90040    1.000
    H69      H        0.04400    0.91400    0.91610    1.000
    C79      C        0.16670    0.28960    0.86151    1.000
    C80      C        0.15850    0.41260    0.88583    1.000
    C81      C        0.11840    0.40940    0.91293    1.000
    H70      H        0.09790    0.32920    0.91670    1.000
    C82      C        0.10900    0.52520    0.93428    1.000
    H71      H        0.08170    0.52250    0.95230    1.000
    C83      C        0.13920    0.64450    0.92953    1.000
    C84      C        0.17970    0.64680    0.90331    1.000
    H72      H        0.20080    0.72630    0.89990    1.000
    C85      C        0.18930    0.53100    0.88203    1.000
    H73      H        0.21740    0.53320    0.86460    1.000
    C86      C        0.16540    0.97770    0.24886    1.000
    C87      C        0.15250    0.99880    0.20663    1.000
    C88      C        0.17480    0.10830    0.18748    1.000
    H74      H        0.19740    0.17190    0.20080    1.000
    C89      C        0.16430    0.12610    0.14913    1.000
    H75      H        0.17890    0.20240    0.13700    1.000
    C90      C        0.13220    0.03020    0.12889    1.000
    C91      C        0.10960    0.91980    0.14746    1.000
    H76      H        0.08730    0.85570    0.13400    1.000
    C92      C        0.11980    0.90420    0.18592    1.000
    H77      H        0.10450    0.82900    0.19820    1.000
    C93      C        0.79200    0.47760    0.85831    1.000
    C94      C        0.84450    0.43600    0.88255    1.000
    C95      C        0.89840    0.46220    0.87016    1.000
    H78      H        0.90300    0.50920    0.84760    1.000
    C96      C        0.94460    0.41760    0.89168    1.000
    H79      H        0.98050    0.43430    0.88310    1.000
    C97      C        0.93986    0.34960    0.92515    1.000
    C98      C        0.88720    0.32730    0.93820    1.000
    H80      H        0.88280    0.28370    0.96130    1.000
    C99      C        0.84060    0.37140    0.91620    1.000
    H81      H        0.80480    0.35560    0.92500    1.000
    Cd4      Cd       0.69055    0.54821    0.82492    1.000
    O28      O        0.64278    0.67810    0.86826    1.000
    O29      O        0.69834    0.79860    0.83325    1.000
    O30      O        0.62449    0.25440    0.95212    1.000
    O31      O        0.63620    0.39520    0.26623    1.000
    O32      O        0.70438    0.54600    0.26451    1.000
    O33      O        0.61810    0.53700    0.09112    1.000
    O34      O        0.24462    0.93900    0.86988    1.000
    O35      O        0.29606    0.04640    0.82943    1.000
    O36      O        0.48921    0.80660    0.94336    1.000
    C100     C        0.62060    0.48960    0.96961    1.000
    C101     C        0.64570    0.51980    0.00576    1.000
    C102     C        0.62080    0.61690    0.02895    1.000
    C103     C        0.56970    0.68170    0.01646    1.000
    C104     C        0.54285    0.64410    0.98227    1.000
    C105     C        0.56820    0.55010    0.95837    1.000
    C106     C        0.64860    0.38910    0.94372    1.000
    H82      H        0.68920    0.38860    0.94870    1.000
    H83      H        0.64060    0.41340    0.91740    1.000
    C107     C        0.70050    0.44300    0.01885    1.000
    H84      H        0.73240    0.50330    0.01660    1.000
    H85      H        0.69820    0.41540    0.04480    1.000
    H86      H        0.70510    0.36290    0.00340    1.000
    C108     C        0.64400    0.64200    0.06865    1.000
    H87      H        0.63400    0.73350    0.07720    1.000
    H88      H        0.68490    0.63300    0.07010    1.000
    C109     C        0.54400    0.79630    0.04111    1.000
    H89      H        0.51650    0.84780    0.02610    1.000
    H90      H        0.52610    0.75480    0.06210    1.000
    H91      H        0.57340    0.85720    0.05040    1.000
    C110     C        0.48425    0.70030    0.97144    1.000
    H92      H        0.46720    0.73790    0.99360    1.000
    H93      H        0.46020    0.62660    0.96140    1.000
    C111     C        0.54080    0.51170    0.91995    1.000
    H94      H        0.50160    0.53730    0.91910    1.000
    H95      H        0.55960    0.55960    0.90040    1.000
    H96      H        0.54400    0.41400    0.91610    1.000
    C112     C        0.66670    0.78960    0.86151    1.000
    C113     C        0.65850    0.91260    0.88583    1.000
    C114     C        0.61840    0.90940    0.91293    1.000
    H97      H        0.59790    0.82920    0.91670    1.000
    C115     C        0.60900    0.02520    0.93428    1.000
    H98      H        0.58170    0.02250    0.95230    1.000
    C116     C        0.63920    0.14450    0.92953    1.000
    C117     C        0.67970    0.14680    0.90331    1.000
    H99      H        0.70080    0.22630    0.89990    1.000
    C118     C        0.68930    0.03100    0.88203    1.000
    H100     H        0.71740    0.03320    0.86460    1.000
    C119     C        0.66540    0.47770    0.24886    1.000
    C120     C        0.65250    0.49880    0.20663    1.000
    C121     C        0.67480    0.60830    0.18748    1.000
    H101     H        0.69740    0.67190    0.20080    1.000
    C122     C        0.66430    0.62610    0.14913    1.000
    H102     H        0.67890    0.70240    0.13700    1.000
    C123     C        0.63220    0.53020    0.12889    1.000
    C124     C        0.60960    0.41980    0.14746    1.000
    H103     H        0.58730    0.35570    0.13400    1.000
    C125     C        0.61980    0.40420    0.18592    1.000
    H104     H        0.60450    0.32900    0.19820    1.000
    C126     C        0.29200    0.97760    0.85831    1.000
    C127     C        0.34450    0.93600    0.88255    1.000
    C128     C        0.39840    0.96220    0.87016    1.000
    H105     H        0.40300    0.00920    0.84760    1.000
    C129     C        0.44460    0.91760    0.89168    1.000
    H106     H        0.48050    0.93430    0.88310    1.000
    C130     C        0.43986    0.84960    0.92515    1.000
    C131     C        0.38720    0.82730    0.93820    1.000
    H107     H        0.38280    0.78370    0.96130    1.000
    C132     C        0.34060    0.87140    0.91620    1.000
    H108     H        0.30480    0.85560    0.92500    1.000
    Cd5      Cd       0.80945    0.95179    0.17508    1.000
    O37      O        0.85722    0.82190    0.13174    1.000
    O38      O        0.80166    0.70140    0.16675    1.000
    O39      O        0.87551    0.24560    0.04788    1.000
    O40      O        0.86380    0.10480    0.73377    1.000
    O41      O        0.79562    0.95400    0.73549    1.000
    O42      O        0.88190    0.96300    0.90888    1.000
    O43      O        0.25538    0.56100    0.13012    1.000
    O44      O        0.20394    0.45360    0.17057    1.000
    O45      O        0.01079    0.69340    0.05664    1.000
    C133     C        0.87940    0.01040    0.03039    1.000
    C134     C        0.85430    0.98020    0.99424    1.000
    C135     C        0.87920    0.88310    0.97105    1.000
    C136     C        0.93030    0.81830    0.98354    1.000
    C137     C        0.95715    0.85590    0.01773    1.000
    C138     C        0.93180    0.94990    0.04163    1.000
    C139     C        0.85140    0.11090    0.05628    1.000
    H109     H        0.81080    0.11140    0.05130    1.000
    H110     H        0.85940    0.08660    0.08260    1.000
    C140     C        0.79950    0.05700    0.98115    1.000
    H111     H        0.76760    0.99670    0.98340    1.000
    H112     H        0.80180    0.08460    0.95520    1.000
    H113     H        0.79490    0.13710    0.99660    1.000
    C141     C        0.85600    0.85800    0.93135    1.000
    H114     H        0.86600    0.76650    0.92280    1.000
    H115     H        0.81510    0.86700    0.92990    1.000
    C142     C        0.95600    0.70370    0.95889    1.000
    H116     H        0.98350    0.65220    0.97390    1.000
    H117     H        0.97390    0.74520    0.93790    1.000
    H118     H        0.92660    0.64280    0.94960    1.000
    C143     C        0.01575    0.79970    0.02856    1.000
    H119     H        0.03280    0.76210    0.00640    1.000
    H120     H        0.03980    0.87340    0.03860    1.000
    C144     C        0.95920    0.98830    0.08005    1.000
    H121     H        0.99840    0.96270    0.08090    1.000
    H122     H        0.94040    0.94040    0.09960    1.000
    H123     H        0.95600    0.08600    0.08390    1.000
    C145     C        0.83330    0.71040    0.13849    1.000
    C146     C        0.84150    0.58740    0.11417    1.000
    C147     C        0.88160    0.59060    0.08707    1.000
    H124     H        0.90210    0.67080    0.08330    1.000
    C148     C        0.89100    0.47480    0.06572    1.000
    H125     H        0.91830    0.47750    0.04770    1.000
    C149     C        0.86080    0.35550    0.07047    1.000
    C150     C        0.82030    0.35320    0.09669    1.000
    H126     H        0.79920    0.27370    0.10010    1.000
    C151     C        0.81070    0.46900    0.11797    1.000
    H127     H        0.78260    0.46680    0.13540    1.000
    C152     C        0.83460    0.02230    0.75114    1.000
    C153     C        0.84750    0.00120    0.79337    1.000
    C154     C        0.82520    0.89170    0.81252    1.000
    H128     H        0.80260    0.82810    0.79920    1.000
    C155     C        0.83570    0.87390    0.85087    1.000
    H129     H        0.82110    0.79760    0.86300    1.000
    C156     C        0.86780    0.96980    0.87111    1.000
    C157     C        0.89040    0.08020    0.85254    1.000
    H130     H        0.91270    0.14430    0.86600    1.000
    C158     C        0.88020    0.09580    0.81408    1.000
    H131     H        0.89550    0.17100    0.80180    1.000
    C159     C        0.20800    0.52240    0.14169    1.000
    C160     C        0.15550    0.56400    0.11745    1.000
    C161     C        0.10160    0.53780    0.12984    1.000
    H132     H        0.09700    0.49080    0.15240    1.000
    C162     C        0.05540    0.58240    0.10832    1.000
    H133     H        0.01950    0.56570    0.11690    1.000
    C163     C        0.06014    0.65040    0.07485    1.000
    C164     C        0.11280    0.67270    0.06180    1.000
    H134     H        0.11720    0.71630    0.03870    1.000
    C165     C        0.15940    0.62860    0.08380    1.000
    H135     H        0.19520    0.64440    0.07500    1.000
    Cd6      Cd       0.30945    0.45179    0.17508    1.000
    O46      O        0.35722    0.32190    0.13174    1.000
    O47      O        0.30166    0.20140    0.16675    1.000
    O48      O        0.37551    0.74560    0.04788    1.000
    O49      O        0.36380    0.60480    0.73377    1.000
    O50      O        0.29562    0.45400    0.73549    1.000
    O51      O        0.38190    0.46300    0.90888    1.000
    O52      O        0.75538    0.06100    0.13012    1.000
    O53      O        0.70394    0.95360    0.17057    1.000
    O54      O        0.51079    0.19340    0.05664    1.000
    C166     C        0.37940    0.51040    0.03039    1.000
    C167     C        0.35430    0.48020    0.99424    1.000
    C168     C        0.37920    0.38310    0.97105    1.000
    C169     C        0.43030    0.31830    0.98354    1.000
    C170     C        0.45715    0.35590    0.01773    1.000
    C171     C        0.43180    0.44990    0.04163    1.000
    C172     C        0.35140    0.61090    0.05628    1.000
    H136     H        0.31080    0.61140    0.05130    1.000
    H137     H        0.35940    0.58660    0.08260    1.000
    C173     C        0.29950    0.55700    0.98115    1.000
    H138     H        0.26760    0.49670    0.98340    1.000
    H139     H        0.30180    0.58460    0.95520    1.000
    H140     H        0.29490    0.63710    0.99660    1.000
    C174     C        0.35600    0.35800    0.93135    1.000
    H141     H        0.36600    0.26650    0.92280    1.000
    H142     H        0.31510    0.36700    0.92990    1.000
    C175     C        0.45600    0.20370    0.95889    1.000
    H143     H        0.48350    0.15220    0.97390    1.000
    H144     H        0.47390    0.24520    0.93790    1.000
    H145     H        0.42660    0.14280    0.94960    1.000
    C176     C        0.51575    0.29970    0.02856    1.000
    H146     H        0.53280    0.26210    0.00640    1.000
    H147     H        0.53980    0.37340    0.03860    1.000
    C177     C        0.45920    0.48830    0.08005    1.000
    H148     H        0.49840    0.46270    0.08090    1.000
    H149     H        0.44040    0.44040    0.09960    1.000
    H150     H        0.45600    0.58600    0.08390    1.000
    C178     C        0.33330    0.21040    0.13849    1.000
    C179     C        0.34150    0.08740    0.11417    1.000
    C180     C        0.38160    0.09060    0.08707    1.000
    H151     H        0.40210    0.17080    0.08330    1.000
    C181     C        0.39100    0.97480    0.06572    1.000
    H152     H        0.41830    0.97750    0.04770    1.000
    C182     C        0.36080    0.85550    0.07047    1.000
    C183     C        0.32030    0.85320    0.09669    1.000
    H153     H        0.29920    0.77370    0.10010    1.000
    C184     C        0.31070    0.96900    0.11797    1.000
    H154     H        0.28260    0.96680    0.13540    1.000
    C185     C        0.33460    0.52230    0.75114    1.000
    C186     C        0.34750    0.50120    0.79337    1.000
    C187     C        0.32520    0.39170    0.81252    1.000
    H155     H        0.30260    0.32810    0.79920    1.000
    C188     C        0.33570    0.37390    0.85087    1.000
    H156     H        0.32110    0.29760    0.86300    1.000
    C189     C        0.36780    0.46980    0.87111    1.000
    C190     C        0.39040    0.58020    0.85254    1.000
    H157     H        0.41270    0.64430    0.86600    1.000
    C191     C        0.38020    0.59580    0.81408    1.000
    H158     H        0.39550    0.67100    0.80180    1.000
    C192     C        0.70800    0.02240    0.14169    1.000
    C193     C        0.65550    0.06400    0.11745    1.000
    C194     C        0.60160    0.03780    0.12984    1.000
    H159     H        0.59700    0.99080    0.15240    1.000
    C195     C        0.55540    0.08240    0.10832    1.000
    H160     H        0.51950    0.06570    0.11690    1.000
    C196     C        0.56014    0.15040    0.07485    1.000
    C197     C        0.61280    0.17270    0.06180    1.000
    H161     H        0.61720    0.21630    0.03870    1.000
    C198     C        0.65940    0.12860    0.08380    1.000
    H162     H        0.69520    0.14440    0.07500    1.000
    Cd7      Cd       0.80945    0.04821    0.67508    1.000
    O55      O        0.85722    0.17810    0.63174    1.000
    O56      O        0.80166    0.29860    0.66675    1.000
    O57      O        0.87551    0.75440    0.54788    1.000
    O58      O        0.86380    0.89520    0.23377    1.000
    O59      O        0.79562    0.04600    0.23549    1.000
    O60      O        0.88190    0.03700    0.40888    1.000
    O61      O        0.25538    0.43900    0.63012    1.000
    O62      O        0.20394    0.54640    0.67057    1.000
    O63      O        0.01079    0.30660    0.55664    1.000
    C199     C        0.87940    0.98960    0.53039    1.000
    C200     C        0.85430    0.01980    0.49424    1.000
    C201     C        0.87920    0.11690    0.47105    1.000
    C202     C        0.93030    0.18170    0.48354    1.000
    C203     C        0.95715    0.14410    0.51773    1.000
    C204     C        0.93180    0.05010    0.54163    1.000
    C205     C        0.85140    0.88910    0.55628    1.000
    H163     H        0.81080    0.88860    0.55130    1.000
    H164     H        0.85940    0.91340    0.58260    1.000
    C206     C        0.79950    0.94300    0.48115    1.000
    H165     H        0.76760    0.00330    0.48340    1.000
    H166     H        0.80180    0.91540    0.45520    1.000
    H167     H        0.79490    0.86290    0.49660    1.000
    C207     C        0.85600    0.14200    0.43135    1.000
    H168     H        0.86600    0.23350    0.42280    1.000
    H169     H        0.81510    0.13300    0.42990    1.000
    C208     C        0.95600    0.29630    0.45889    1.000
    H170     H        0.98350    0.34780    0.47390    1.000
    H171     H        0.97390    0.25480    0.43790    1.000
    H172     H        0.92660    0.35720    0.44960    1.000
    C209     C        0.01575    0.20030    0.52856    1.000
    H173     H        0.03280    0.23790    0.50640    1.000
    H174     H        0.03980    0.12660    0.53860    1.000
    C210     C        0.95920    0.01170    0.58005    1.000
    H175     H        0.99840    0.03730    0.58090    1.000
    H176     H        0.94040    0.05960    0.59960    1.000
    H177     H        0.95600    0.91400    0.58390    1.000
    C211     C        0.83330    0.28960    0.63849    1.000
    C212     C        0.84150    0.41260    0.61417    1.000
    C213     C        0.88160    0.40940    0.58707    1.000
    H178     H        0.90210    0.32920    0.58330    1.000
    C214     C        0.89100    0.52520    0.56572    1.000
    H179     H        0.91830    0.52250    0.54770    1.000
    C215     C        0.86080    0.64450    0.57047    1.000
    C216     C        0.82030    0.64680    0.59669    1.000
    H180     H        0.79920    0.72630    0.60010    1.000
    C217     C        0.81070    0.53100    0.61797    1.000
    H181     H        0.78260    0.53320    0.63540    1.000
    C218     C        0.83460    0.97770    0.25114    1.000
    C219     C        0.84750    0.99880    0.29337    1.000
    C220     C        0.82520    0.10830    0.31252    1.000
    H182     H        0.80260    0.17190    0.29920    1.000
    C221     C        0.83570    0.12610    0.35087    1.000
    H183     H        0.82110    0.20240    0.36300    1.000
    C222     C        0.86780    0.03020    0.37111    1.000
    C223     C        0.89040    0.91980    0.35254    1.000
    H184     H        0.91270    0.85570    0.36600    1.000
    C224     C        0.88020    0.90420    0.31408    1.000
    H185     H        0.89550    0.82900    0.30180    1.000
    C225     C        0.20800    0.47760    0.64169    1.000
    C226     C        0.15550    0.43600    0.61745    1.000
    C227     C        0.10160    0.46220    0.62984    1.000
    H186     H        0.09700    0.50920    0.65240    1.000
    C228     C        0.05540    0.41760    0.60832    1.000
    H187     H        0.01950    0.43430    0.61690    1.000
    C229     C        0.06014    0.34960    0.57485    1.000
    C230     C        0.11280    0.32730    0.56180    1.000
    H188     H        0.11720    0.28370    0.53870    1.000
    C231     C        0.15940    0.37140    0.58380    1.000
    H189     H        0.19520    0.35560    0.57500    1.000
    Cd8      Cd       0.30945    0.54821    0.67508    1.000
    O64      O        0.35722    0.67810    0.63174    1.000
    O65      O        0.30166    0.79860    0.66675    1.000
    O66      O        0.37551    0.25440    0.54788    1.000
    O67      O        0.36380    0.39520    0.23377    1.000
    O68      O        0.29562    0.54600    0.23549    1.000
    O69      O        0.38190    0.53700    0.40888    1.000
    O70      O        0.75538    0.93900    0.63012    1.000
    O71      O        0.70394    0.04640    0.67057    1.000
    O72      O        0.51079    0.80660    0.55664    1.000
    C232     C        0.37940    0.48960    0.53039    1.000
    C233     C        0.35430    0.51980    0.49424    1.000
    C234     C        0.37920    0.61690    0.47105    1.000
    C235     C        0.43030    0.68170    0.48354    1.000
    C236     C        0.45715    0.64410    0.51773    1.000
    C237     C        0.43180    0.55010    0.54163    1.000
    C238     C        0.35140    0.38910    0.55628    1.000
    H190     H        0.31080    0.38860    0.55130    1.000
    H191     H        0.35940    0.41340    0.58260    1.000
    C239     C        0.29950    0.44300    0.48115    1.000
    H192     H        0.26760    0.50330    0.48340    1.000
    H193     H        0.30180    0.41540    0.45520    1.000
    H194     H        0.29490    0.36290    0.49660    1.000
    C240     C        0.35600    0.64200    0.43135    1.000
    H195     H        0.36600    0.73350    0.42280    1.000
    H196     H        0.31510    0.63300    0.42990    1.000
    C241     C        0.45600    0.79630    0.45889    1.000
    H197     H        0.48350    0.84780    0.47390    1.000
    H198     H        0.47390    0.75480    0.43790    1.000
    H199     H        0.42660    0.85720    0.44960    1.000
    C242     C        0.51575    0.70030    0.52856    1.000
    H200     H        0.53280    0.73790    0.50640    1.000
    H201     H        0.53980    0.62660    0.53860    1.000
    C243     C        0.45920    0.51170    0.58005    1.000
    H202     H        0.49840    0.53730    0.58090    1.000
    H203     H        0.44040    0.55960    0.59960    1.000
    H204     H        0.45600    0.41400    0.58390    1.000
    C244     C        0.33330    0.78960    0.63849    1.000
    C245     C        0.34150    0.91260    0.61417    1.000
    C246     C        0.38160    0.90940    0.58707    1.000
    H205     H        0.40210    0.82920    0.58330    1.000
    C247     C        0.39100    0.02520    0.56572    1.000
    H206     H        0.41830    0.02250    0.54770    1.000
    C248     C        0.36080    0.14450    0.57047    1.000
    C249     C        0.32030    0.14680    0.59669    1.000
    H207     H        0.29920    0.22630    0.60010    1.000
    C250     C        0.31070    0.03100    0.61797    1.000
    H208     H        0.28260    0.03320    0.63540    1.000
    C251     C        0.33460    0.47770    0.25114    1.000
    C252     C        0.34750    0.49880    0.29337    1.000
    C253     C        0.32520    0.60830    0.31252    1.000
    H209     H        0.30260    0.67190    0.29920    1.000
    C254     C        0.33570    0.62610    0.35087    1.000
    H210     H        0.32110    0.70240    0.36300    1.000
    C255     C        0.36780    0.53020    0.37111    1.000
    C256     C        0.39040    0.41980    0.35254    1.000
    H211     H        0.41270    0.35570    0.36600    1.000
    C257     C        0.38020    0.40420    0.31408    1.000
    H212     H        0.39550    0.32900    0.30180    1.000
    C258     C        0.70800    0.97760    0.64169    1.000
    C259     C        0.65550    0.93600    0.61745    1.000
    C260     C        0.60160    0.96220    0.62984    1.000
    H213     H        0.59700    0.00920    0.65240    1.000
    C261     C        0.55540    0.91760    0.60832    1.000
    H214     H        0.51950    0.93430    0.61690    1.000
    C262     C        0.56014    0.84960    0.57485    1.000
    C263     C        0.61280    0.82730    0.56180    1.000
    H215     H        0.61720    0.78370    0.53870    1.000
    C264     C        0.65940    0.87140    0.58380    1.000
    H216     H        0.69520    0.85560    0.57500    1.000
