# CIF file generated by openbabel 3.1.0, see https://openbabel.org
data_I
_chemical_name_common 'image0'
_cell_length_a 9.5574
_cell_length_b 12.6056
_cell_length_c 18.9892
_cell_angle_alpha 106.131
_cell_angle_beta 98.971
_cell_angle_gamma 100.479
_space_group_name_H-M_alt 'P 1'
_space_group_name_Hall 'P 1'
loop_
    _symmetry_equiv_pos_as_xyz
    x,y,z
loop_
    _atom_site_label
    _atom_site_type_symbol
    _atom_site_fract_x
    _atom_site_fract_y
    _atom_site_fract_z
    _atom_site_occupancy
    La1      La       0.76682    0.98179    0.99615    1.000
    O1       O        0.69050    0.02270    0.11957    1.000
    O2       O        0.45980    0.03110    0.08820    1.000
    N1       N        0.00040    0.14750    0.67860    1.000
    O3       O        0.99750    0.88900    0.92560    1.000
    O4       O        0.76060    0.81400    0.88330    1.000
    O5       O        0.85790    0.06730    0.90130    1.000
    N2       N        0.95720    0.60890    0.67470    1.000
    O6       O        0.10260    0.12390    0.93540    1.000
    C1       C        0.92200    0.23220    0.57750    1.000
    C2       C        0.98090    0.34830    0.60230    1.000
    C3       C        0.71250    0.25880    0.50160    1.000
    C4       C        0.90860    0.42000    0.57470    1.000
    C5       C        0.56810    0.08090    0.21710    1.000
    C6       C        0.77350    0.37490    0.52280    1.000
    C7       C        0.44340    0.14030    0.31590    1.000
    H1       H        0.35610    0.15130    0.33170    1.000
    C8       C        0.44210    0.09920    0.24060    1.000
    H2       H        0.35400    0.08330    0.20440    1.000
    C9       C        0.78400    0.18520    0.52720    1.000
    C10      C        0.98800    0.12270    0.81600    1.000
    C11      C        0.69510    0.10210    0.27190    1.000
    H3       H        0.78230    0.08690    0.25780    1.000
    C12      C        0.87450    0.14510    0.70160    1.000
    H4       H        0.79170    0.15340    0.67070    1.000
    C13      C        0.98200    0.10330    0.89140    1.000
    C14      C        0.69170    0.14540    0.34660    1.000
    H5       H        0.77790    0.16140    0.38400    1.000
    C15      C        0.57200    0.04040    0.13430    1.000
    C16      C        0.12410    0.39750    0.65950    1.000
    H6       H        0.14630    0.34070    0.68300    1.000
    H7       H        0.11670    0.46520    0.69810    1.000
    H8       H        0.20210    0.41840    0.63440    1.000
    C17      C        0.86550    0.13050    0.77010    1.000
    H9       H        0.77550    0.12590    0.78580    1.000
    C18      C        0.00740    0.15330    0.60030    1.000
    H10      H        0.11060    0.17920    0.59840    1.000
    H11      H        0.96910    0.07610    0.56370    1.000
    C19      C        0.11710    0.12810    0.79080    1.000
    H12      H        0.20290    0.12380    0.82170    1.000
    C20      C        0.91650    0.74100    0.80790    1.000
    C21      C        0.05590    0.73710    0.79750    1.000
    H13      H        0.13840    0.77980    0.83650    1.000
    C22      C        0.97970    0.54630    0.59980    1.000
    H14      H        0.08570    0.55650    0.60200    1.000
    H15      H        0.93920    0.57950    0.56200    1.000
    C23      C        0.88980    0.81960    0.87770    1.000
    C24      C        0.82260    0.60860    0.68510    1.000
    H16      H        0.74170    0.56230    0.64620    1.000
    C25      C        0.72110    0.05940    0.50170    1.000
    H17      H        0.63600    0.03940    0.46030    1.000
    H18      H        0.69140    0.03680    0.54360    1.000
    H19      H        0.79470    0.01960    0.48470    1.000
    C26      C        0.79860    0.67400    0.75110    1.000
    H20      H        0.70190    0.67320    0.75760    1.000
    C27      C        0.12070    0.13960    0.72130    1.000
    H21      H        0.20850    0.14180    0.70350    1.000
    C28      C        0.56270    0.20910    0.44920    1.000
    H22      H        0.51020    0.14610    0.46380    1.000
    H23      H        0.50630    0.26840    0.45550    1.000
    C29      C        0.07380    0.67090    0.73030    1.000
    H24      H        0.16940    0.66850    0.72280    1.000
    C30      C        0.69180    0.45040    0.48970    1.000
    H25      H        0.65970    0.41530    0.43510    1.000
    H26      H        0.75690    0.52550    0.50110    1.000
    H27      H        0.60670    0.45840    0.51170    1.000
    N3       N        0.56930    0.16500    0.36710    1.000
    La2      La       0.23318    0.01821    0.00385    1.000
    O7       O        0.30950    0.97730    0.88043    1.000
    O8       O        0.54020    0.96890    0.91180    1.000
    N4       N        0.99960    0.85250    0.32140    1.000
    O9       O        0.00250    0.11100    0.07440    1.000
    O10      O        0.23940    0.18600    0.11670    1.000
    O11      O        0.14210    0.93270    0.09870    1.000
    N5       N        0.04280    0.39110    0.32530    1.000
    O12      O        0.89740    0.87610    0.06460    1.000
    C31      C        0.07800    0.76780    0.42250    1.000
    C32      C        0.01910    0.65170    0.39770    1.000
    C33      C        0.28750    0.74120    0.49840    1.000
    C34      C        0.09140    0.58000    0.42530    1.000
    C35      C        0.43190    0.91910    0.78290    1.000
    C36      C        0.22650    0.62510    0.47720    1.000
    C37      C        0.55660    0.85970    0.68410    1.000
    H28      H        0.64390    0.84870    0.66830    1.000
    C38      C        0.55790    0.90080    0.75940    1.000
    H29      H        0.64600    0.91670    0.79560    1.000
    C39      C        0.21600    0.81480    0.47280    1.000
    C40      C        0.01200    0.87730    0.18400    1.000
    C41      C        0.30490    0.89790    0.72810    1.000
    H30      H        0.21770    0.91310    0.74220    1.000
    C42      C        0.12550    0.85490    0.29840    1.000
    H31      H        0.20830    0.84660    0.32930    1.000
    C43      C        0.01800    0.89670    0.10860    1.000
    C44      C        0.30830    0.85460    0.65340    1.000
    H32      H        0.22210    0.83860    0.61600    1.000
    C45      C        0.42800    0.95960    0.86570    1.000
    C46      C        0.87590    0.60250    0.34050    1.000
    H33      H        0.85370    0.65930    0.31700    1.000
    H34      H        0.88330    0.53480    0.30190    1.000
    H35      H        0.79790    0.58160    0.36560    1.000
    C47      C        0.13450    0.86950    0.22990    1.000
    H36      H        0.22450    0.87410    0.21420    1.000
    C48      C        0.99260    0.84670    0.39970    1.000
    H37      H        0.88940    0.82080    0.40160    1.000
    H38      H        0.03090    0.92390    0.43630    1.000
    C49      C        0.88290    0.87190    0.20920    1.000
    H39      H        0.79710    0.87620    0.17830    1.000
    C50      C        0.08350    0.25900    0.19210    1.000
    C51      C        0.94410    0.26290    0.20250    1.000
    H40      H        0.86160    0.22020    0.16350    1.000
    C52      C        0.02030    0.45370    0.40020    1.000
    H41      H        0.91430    0.44350    0.39800    1.000
    H42      H        0.06080    0.42050    0.43800    1.000
    C53      C        0.11020    0.18040    0.12230    1.000
    C54      C        0.17740    0.39140    0.31490    1.000
    H43      H        0.25830    0.43770    0.35380    1.000
    C55      C        0.27890    0.94060    0.49830    1.000
    H44      H        0.36400    0.96060    0.53970    1.000
    H45      H        0.30860    0.96320    0.45640    1.000
    H46      H        0.20530    0.98040    0.51530    1.000
    C56      C        0.20140    0.32600    0.24890    1.000
    H47      H        0.29810    0.32680    0.24240    1.000
    C57      C        0.87930    0.86040    0.27870    1.000
    H48      H        0.79150    0.85820    0.29650    1.000
    C58      C        0.43730    0.79090    0.55080    1.000
    H49      H        0.48980    0.85390    0.53620    1.000
    H50      H        0.49370    0.73160    0.54450    1.000
    C59      C        0.92620    0.32910    0.26970    1.000
    H51      H        0.83060    0.33150    0.27720    1.000
    C60      C        0.30820    0.54960    0.51030    1.000
    H52      H        0.34030    0.58470    0.56490    1.000
    H53      H        0.24310    0.47450    0.49890    1.000
    H54      H        0.39330    0.54160    0.48830    1.000
    N6       N        0.43070    0.83500    0.63290    1.000
