data_functionalizedCrystal
_audit_creation_method	'EQeq! by Chris Wilmer'
_symmetry_space_group_name_H-M	'P1'
_symmetry_Int_Tables_number	1
_symmetry_cell_setting	triclinic
loop_
_symmetry_equiv_pos_as_xyz
  x,y,z
_cell_length_a	22.494
_cell_length_b	22.494
_cell_length_c	22.494
_cell_angle_alpha	113.084
_cell_angle_beta	113.084
_cell_angle_gamma	102.464
loop_
_atom_site_label
_atom_site_type_symbol
_atom_site_fract_x
_atom_site_fract_y
_atom_site_fract_z
_atom_site_charge
Mof_I 	I 	0.1877	0.47188	0.49583	-0.303
Mof_Cu	Cu	0.32417	0.54475	0.60657	0.841
Mof_S 	S 	0.91102	0.72957	0.31347	-0.464
Mof_S 	S 	0.35554	0.48916	0.6681	-0.445
Mof_N 	N 	0.05518	0.74876	0.45937	-0.218
Mof_N 	N 	0.77932	0.74149	0.18389	-0.22
Mof_N 	N 	0.38638	0.54079	0.5651	-0.226
Mof_C 	C 	0.09057	0.75749	0.5293	0.032
Mof_C 	C 	0.16595	0.78892	0.57328	-0.072
Mof_C 	C 	0.2066	0.81083	0.5454	0.028
Mof_C 	C 	0.169	0.80254	0.47369	-0.061
Mof_C 	C 	0.09318	0.77152	0.43155	0.031
Mof_C 	C 	0.83544	0.79491	0.19855	0.028
Mof_C 	C 	0.8243	0.82903	0.15717	-0.068
Mof_C 	C 	0.75455	0.80742	0.09831	0.024
Mof_C 	C 	0.69775	0.75139	0.08398	-0.066
Mof_C 	C 	0.71118	0.72028	0.12821	0.03
Mof_C 	C 	0.45875	0.57642	0.61254	0.035
Mof_C 	C 	0.50298	0.56177	0.58488	-0.066
Mof_C 	C 	0.4725	0.51275	0.50704	0.028
Mof_C 	C 	0.3978	0.48165	0.45826	-0.07
Mof_C 	C 	0.35547	0.49601	0.4887	0.027
Mof_H 	H 	0.06008	0.7398	0.55116	0.005
Mof_H 	H 	0.19227	0.79664	0.62914	0.058
Mof_H 	H 	0.19804	0.81866	0.44985	0.041
Mof_H 	H 	0.065	0.76431	0.37592	0.017
Mof_H 	H 	0.88902	0.81144	0.24251	0.008
Mof_H 	H 	0.8702	0.87229	0.17186	0.038
Mof_H 	H 	0.64312	0.73096	0.03853	0.045
Mof_H 	H 	0.6668	0.67862	0.11774	0.01
Mof_I 	I 	0.47645	0.69201	0.0039	-0.31
Mof_Cu	Cu	0.43801	0.71749	0.89298	0.842
Mof_S 	S 	0.91622	0.5975	0.18663	-0.464
Mof_S 	S 	0.32079	0.68688	0.83157	-0.445
Mof_N 	N 	0.78933	0.59553	0.04059	-0.222
Mof_N 	N 	0.05778	0.59546	0.31629	-0.217
Mof_N 	N 	0.47522	0.82116	0.93426	-0.225
Mof_C 	C 	0.72815	0.56081	0.9706	0.034
Mof_C 	C 	0.71552	0.59209	0.92649	-0.073
Mof_C 	C 	0.76519	0.66064	0.9543	0.031
Mof_C 	C 	0.82856	0.69494	0.02609	-0.064
Mof_C 	C 	0.83977	0.66139	0.06835	0.031
Mof_C 	C 	0.09655	0.63693	0.30165	0.03
Mof_C 	C 	0.17205	0.66722	0.34309	-0.067
Mof_C 	C 	0.2093	0.65639	0.40201	0.026
Mof_C 	C 	0.16758	0.6139	0.41631	-0.065
Mof_C 	C 	0.09224	0.58304	0.37202	0.031
Mof_C 	C 	0.46343	0.84603	0.88676	0.034
Mof_C 	C 	0.47633	0.91789	0.91433	-0.063
Mof_C 	C 	0.50504	0.96529	0.99214	0.021
Mof_C 	C 	0.52266	0.93941	0.04097	-0.07
Mof_C 	C 	0.50669	0.86667	0.01062	0.024
Mof_H 	H 	0.6887	0.50843	0.94879	0.002
Mof_H 	H 	0.6674	0.56244	0.8706	0.059
Mof_H 	H 	0.86842	0.74787	0.04986	0.04
Mof_H 	H 	0.88816	0.68897	0.12403	0.013
Mof_H 	H 	0.06912	0.64653	0.25768	0.012
Mof_H 	H 	0.20063	0.69843	0.32841	0.042
Mof_H 	H 	0.19258	0.60475	0.46178	0.046
Mof_H 	H 	0.06105	0.54913	0.38248	0.012
Mof_I 	I 	0.46689	0.4703	0.27939	-0.287
Mof_Cu	Cu	0.5515	0.44759	0.22767	0.839
Mof_S 	S 	0.72895	0.91599	0.81871	-0.465
Mof_S 	S 	0.5236	0.3304	0.18077	-0.461
Mof_N 	N 	0.74869	0.78887	0.69409	-0.221
Mof_N 	N 	0.74056	0.0576	0.962	-0.217
Mof_N 	N 	0.53841	0.47597	0.15358	-0.237
Mof_C 	C 	0.75638	0.72714	0.66643	0.03
Mof_C 	C 	0.78831	0.71468	0.62295	-0.07
Mof_C 	C 	0.81151	0.76505	0.60513	0.028
Mof_C 	C 	0.80321	0.82856	0.63473	-0.06
Mof_C 	C 	0.77218	0.8397	0.6795	0.03
Mof_C 	C 	0.79418	0.09623	0.95945	0.033
Mof_C 	C 	0.82838	0.17173	0.00464	-0.072
Mof_C 	C 	0.80674	0.2091	0.05267	0.027
Mof_C 	C 	0.75062	0.16757	0.05345	-0.067
Mof_C 	C 	0.71924	0.0922	0.00877	0.029
Mof_C 	C 	0.5747	0.46285	0.11773	0.032
Mof_C 	C 	0.56166	0.47508	0.05864	-0.068
Mof_C 	C 	0.51368	0.50459	0.03914	0.026
Mof_C 	C 	0.48067	0.52226	0.08077	-0.072
Mof_C 	C 	0.4933	0.50674	0.13767	0.029
Mof_H 	H 	0.73763	0.68708	0.6782	0.003
Mof_H 	H 	0.79523	0.66594	0.60396	0.054
Mof_H 	H 	0.81921	0.86882	0.62214	0.04
Mof_H 	H 	0.7654	0.88835	0.70084	0.013
Mof_H 	H 	0.8108	0.06868	0.92256	0.011
Mof_H 	H 	0.87176	0.20022	0.00209	0.04
Mof_H 	H 	0.73038	0.19278	0.0878	0.052
Mof_H 	H 	0.67732	0.06112	0.01127	0.011
Mof_I 	I 	0.69033	0.18729	0.21977	-0.286
Mof_Cu	Cu	0.71938	0.32365	0.27169	0.839
Mof_S 	S 	0.59763	0.91025	0.68153	-0.466
Mof_S 	S 	0.64904	0.34261	0.31851	-0.46
Mof_N 	N 	0.59494	0.05449	0.80591	-0.218
Mof_N 	N 	0.59576	0.77858	0.53815	-0.22
Mof_N 	N 	0.82184	0.3846	0.3459	-0.237
Mof_C 	C 	0.56047	0.08984	0.83278	0.032
Mof_C 	C 	0.59154	0.16525	0.87634	-0.069
Mof_C 	C 	0.66013	0.20626	0.895	0.027
Mof_C 	C 	0.69441	0.16834	0.86612	-0.059
Mof_C 	C 	0.66076	0.09256	0.82129	0.031
Mof_C 	C 	0.63756	0.83481	0.54126	0.029
Mof_C 	C 	0.66788	0.82378	0.4961	-0.068
Mof_C 	C 	0.65664	0.75403	0.44753	0.027
Mof_C 	C 	0.61374	0.69706	0.44621	-0.067
Mof_C 	C 	0.58304	0.71041	0.49088	0.031
Mof_C 	C 	0.84464	0.45676	0.38186	0.03
Mof_C 	C 	0.91595	0.50273	0.44103	-0.064
Mof_C 	C 	0.9649	0.47418	0.46052	0.015
Mof_C 	C 	0.94088	0.39953	0.41881	-0.068
Mof_C 	C 	0.86846	0.35534	0.36182	0.027
Mof_H 	H 	0.50832	0.05932	0.82035	0.006
Mof_H 	H 	0.56152	0.19117	0.89477	0.055
Mof_H 	H 	0.74754	0.19692	0.87933	0.042
Mof_H 	H 	0.68836	0.06442	0.80055	0.016
Mof_H 	H 	0.64741	0.88841	0.5786	0.008
Mof_H 	H 	0.69941	0.86978	0.49909	0.04
Mof_H 	H 	0.60414	0.64238	0.41144	0.052
Mof_H 	H 	0.549	0.66596	0.48797	0.01
Mof_I 	I 	0.00038	0.01545	0.21186	-0.287
Mof_Cu	Cu	0.06457	0.95538	0.27967	0.839
Mof_S 	S 	0.58658	0.73222	0.65372	-0.446
Mof_S 	S 	0.18172	0.02013	0.36045	-0.438
Mof_N 	N 	0.72141	0.75706	0.81886	-0.228
Mof_N 	N 	0.44165	0.7487	0.53497	-0.229
Mof_N 	N 	0.04017	0.96289	0.35604	-0.228
Mof_C 	C 	0.78457	0.75167	0.8461	0.032
Mof_C 	C 	0.80034	0.72157	0.89141	-0.072
Mof_C 	C 	0.75059	0.69552	0.90848	0.026
Mof_C 	C 	0.68591	0.70187	0.87978	-0.061
Mof_C 	C 	0.67245	0.733	0.83531	0.027
Mof_C 	C 	0.4017	0.68606	0.5237	0.024
Mof_C 	C 	0.32636	0.6549	0.4801	-0.066
Mof_C 	C 	0.29042	0.68848	0.44772	0.024
Mof_C 	C 	0.33338	0.75332	0.46035	-0.063
Mof_C 	C 	0.40881	0.78223	0.50372	0.029
Mof_C 	C 	0.01705	0.9089	0.36648	0.021
Mof_C 	C 	0.00364	0.92259	0.42532	-0.035
Mof_C 	C 	0.01441	0.99224	0.47329	-0.011
Mof_C 	C 	0.03725	0.04609	0.45991	-0.04
Mof_C 	C 	0.05004	0.03022	0.40117	0.031
Mof_H 	H 	0.82266	0.77012	0.83209	0
Mof_H 	H 	0.85014	0.71683	0.91126	0.052
Mof_H 	H 	0.6463	0.68345	0.89224	0.04
Mof_H 	H 	0.62254	0.7376	0.81359	-0.006
Mof_H 	H 	0.42835	0.65982	0.54833	0.009
Mof_H 	H 	0.29682	0.60437	0.47142	0.04
Mof_H 	H 	0.30927	0.78276	0.43872	0.047
Mof_H 	H 	0.44114	0.83237	0.51368	0
Mof_I 	I 	0.30376	0.78863	0.28807	-0.306
Mof_Cu	Cu	0.17593	0.78524	0.22056	0.843
Mof_S 	S 	0.57863	0.93279	0.84634	-0.451
Mof_S 	S 	0.15962	0.82153	0.13969	-0.449
Mof_N 	N 	0.43847	0.90238	0.68097	-0.229
Mof_N 	N 	0.71384	0.90677	0.96532	-0.23
Mof_N 	N 	0.10709	0.68451	0.14428	-0.23
Mof_C 	C 	0.40594	0.93748	0.65211	0.031
Mof_C 	C 	0.33055	0.9079	0.60664	-0.073
Mof_C 	C 	0.28732	0.84193	0.5911	0.027
Mof_C 	C 	0.32229	0.80668	0.62123	-0.062
Mof_C 	C 	0.39787	0.8377	0.66584	0.027
Mof_C 	C 	0.66253	0.87825	0.97674	0.025
Mof_C 	C 	0.675	0.84655	0.02039	-0.07
Mof_C 	C 	0.74093	0.84289	0.05266	0.024
Mof_C 	C 	0.79308	0.8731	0.03991	-0.067
Mof_C 	C 	0.7786	0.90512	0.9965	0.03
Mof_C 	C 	0.04276	0.65093	0.13399	0.05
Mof_C 	C 	0.99756	0.5787	0.0751	-0.093
Mof_C 	C 	0.01909	0.54158	0.02692	0.06
Mof_C 	C 	0.08626	0.57782	0.04018	-0.078
Mof_C 	C 	0.12919	0.64931	0.099	0.036
Mof_H 	H 	0.43851	0.98899	0.66502	-0.003
Mof_H 	H 	0.30605	0.93721	0.58544	0.05
Mof_H 	H 	0.29136	0.75515	0.6098	0.04
Mof_H 	H 	0.42412	0.81008	0.68871	-0.005
Mof_H 	H 	0.61168	0.88033	0.95218	0.008
Mof_H 	H 	0.63321	0.82579	0.02919	0.04
Mof_H 	H 	0.84411	0.87053	0.06144	0.045
Mof_H 	H 	0.81872	0.92738	0.98643	-0.001
Mof_I 	I 	0.7879	2e-05	0.48456	-0.299
Mof_Cu	Cu	0.78538	0.0647	0.60951	0.843
Mof_S 	S 	0.93338	0.58644	0.35378	-0.457
Mof_S 	S 	0.82151	0.1816	0.66102	-0.451
Mof_N 	N 	0.90352	0.72124	0.46451	-0.23
Mof_N 	N 	0.90659	0.44143	0.19249	-0.23
Mof_N 	N 	0.68474	0.04027	0.57824	-0.224
Mof_C 	C 	0.92846	0.78988	0.52174	0.029
Mof_C 	C 	0.89892	0.80574	0.56772	-0.07
Mof_C 	C 	0.84316	0.75056	0.55563	0.027
Mof_C 	C 	0.81812	0.68051	0.49544	-0.065
Mof_C 	C 	0.8489	0.6669	0.45077	0.028
Mof_C 	C 	0.87903	0.40164	0.21598	0.023
Mof_C 	C 	0.84722	0.32626	0.17188	-0.064
Mof_C 	C 	0.84232	0.2902	0.10163	0.024
Mof_C 	C 	0.87186	0.33297	0.07918	-0.064
Mof_C 	C 	0.90406	0.4084	0.1256	0.028
Mof_C 	C 	0.65148	0.01671	0.60909	0.026
Mof_C 	C 	0.57905	0.00252	0.58189	-0.044
Mof_C 	C 	0.54134	0.01316	0.52305	0.019
Mof_C 	C 	0.57749	0.037	0.49245	-0.059
Mof_C 	C 	0.64912	0.05023	0.52097	0.027
Mof_H 	H 	0.97188	0.83231	0.53219	-0.004
Mof_H 	H 	0.92032	0.86053	0.61306	0.044
Mof_H 	H 	0.77436	0.6365	0.48251	0.046
Mof_H 	H 	0.82879	0.61263	0.40479	-0.007
Mof_H 	H 	0.88204	0.4284	0.26945	0.005
Mof_H 	H 	0.82731	0.29673	0.1934	0.041
Mof_H 	H 	0.86875	0.30867	0.02529	0.045
Mof_H 	H 	0.92584	0.44059	0.10733	-0.001
Mof_I 	I 	0.01572	0.30457	0.01599	-0.296
Mof_Cu	Cu	0.95557	0.1769	0.89122	0.839
Mof_S 	S 	0.7328	0.57954	0.14638	-0.452
Mof_S 	S 	0.02074	0.16143	0.83944	-0.437
Mof_N 	N 	0.75689	0.43888	0.03573	-0.231
Mof_N 	N 	0.74912	0.71405	0.30767	-0.229
Mof_N 	N 	0.96286	0.10786	0.92293	-0.234
Mof_C 	C 	0.76922	0.40663	0.97926	0.033
Mof_C 	C 	0.73914	0.33112	0.93328	-0.07
Mof_C 	C 	0.69517	0.2874	0.94459	0.031
Mof_C 	C 	0.68446	0.32251	0.00409	-0.069
Mof_C 	C 	0.71548	0.39796	0.04876	0.029
Mof_C 	C 	0.68557	0.6632	0.28391	0.024
Mof_C 	C 	0.65431	0.6755	0.32803	-0.064
Mof_C 	C 	0.68878	0.74062	0.39856	0.025
Mof_C 	C 	0.75429	0.79241	0.42129	-0.063
Mof_C 	C 	0.78327	0.77819	0.37485	0.029
Mof_C 	C 	0.90845	0.04353	0.89169	0.045
Mof_C 	C 	0.92062	0.99764	0.91818	-0.084
Mof_C 	C 	0.98934	0.01801	0.97731	0.038
Mof_C 	C 	0.04649	0.08858	0.01014	-0.066
Mof_C 	C 	0.03026	0.13056	0.9806	0.046
Mof_H 	H 	0.80193	0.43964	0.96944	-0.002
Mof_H 	H 	0.74936	0.30721	0.88856	0.045
Mof_H 	H 	0.65276	0.29166	0.0165	0.046
Mof_H 	H 	0.70652	0.4238	0.0942	-0.007
Mof_H 	H 	0.65863	0.61292	0.23021	0.006
Mof_H 	H 	0.60304	0.63424	0.30629	0.041
Mof_H 	H 	0.7841	0.84299	0.47539	0.046
Mof_H 	H 	0.83393	0.81807	0.39332	-0.001
Mof_I 	I 	0.80337	0.51988	0.51481	-0.306
Mof_Cu	Cu	0.67506	0.4567	0.39035	0.843
Mof_S 	S 	0.07744	0.23062	0.64624	-0.446
Mof_S 	S 	0.65785	0.51977	0.33641	-0.452
Mof_N 	N 	0.93639	0.25512	0.53611	-0.232
Mof_N 	N 	0.21251	0.24696	0.80758	-0.229
Mof_N 	N 	0.60598	0.46469	0.42174	-0.226
Mof_C 	C 	0.90425	0.27242	0.48412	0.028
Mof_C 	C 	0.82877	0.24249	0.43825	-0.067
Mof_C 	C 	0.78507	0.1938	0.44529	0.027
Mof_C 	C 	0.82011	0.17849	0.50071	-0.064
Mof_C 	C 	0.89548	0.20925	0.54515	0.027
Mof_C 	C 	0.15993	0.18604	0.78646	0.025
Mof_C 	C 	0.17236	0.15443	0.83019	-0.063
Mof_C 	C 	0.23945	0.18592	0.89771	0.026
Mof_C 	C 	0.29306	0.24869	0.91779	-0.064
Mof_C 	C 	0.27857	0.2781	0.87174	0.03
Mof_C 	C 	0.54271	0.41042	0.39316	0.031
Mof_C 	C 	0.49785	0.4246	0.42055	-0.061
Mof_C 	C 	0.51868	0.49509	0.47727	0.028
Mof_C 	C 	0.58449	0.54932	0.50551	-0.066
Mof_C 	C 	0.62708	0.53288	0.47671	0.029
Mof_H 	H 	0.93731	0.30915	0.47787	-0.004
Mof_H 	H 	0.80493	0.25671	0.39704	0.043
Mof_H 	H 	0.78928	0.1434	0.51024	0.045
Mof_H 	H 	0.92126	0.19659	0.58729	-0.007
Mof_H 	H 	0.10809	0.16156	0.73521	0.005
Mof_H 	H 	0.12961	0.1052	0.81057	0.043
Mof_H 	H 	0.34535	0.27606	0.96962	0.047
Mof_H 	H 	0.31987	0.3267	0.88812	0.002
Mof_I 	I 	0.50456	0.2886	0.98456	-0.302
Mof_Cu	Cu	0.56587	0.28463	0.10895	0.842
Mof_S 	S 	0.08444	0.431	0.85362	-0.447
Mof_S 	S 	0.68289	0.32133	0.16296	-0.452
Mof_N 	N 	0.21921	0.40017	0.96377	-0.228
Mof_N 	N 	0.93941	0.40485	0.6923	-0.232
Mof_N 	N 	0.54239	0.18413	0.07746	-0.226
Mof_C 	C 	0.28854	0.41943	0.01511	0.026
Mof_C 	C 	0.30455	0.38989	0.06104	-0.066
Mof_C 	C 	0.24885	0.33985	0.05476	0.024
Mof_C 	C 	0.17805	0.32002	0.99995	-0.061
Mof_C 	C 	0.16431	0.35085	0.95542	0.027
Mof_C 	C 	0.89957	0.37398	0.71376	0.023
Mof_C 	C 	0.82423	0.34273	0.67001	-0.064
Mof_C 	C 	0.78822	0.34172	0.60211	0.025
Mof_C 	C 	0.83097	0.3747	0.58171	-0.064
Mof_C 	C 	0.90643	0.40623	0.6278	0.029
Mof_C 	C 	0.51677	0.14946	0.10611	0.031
Mof_C 	C 	0.50348	0.07719	0.07867	-0.062
Mof_C 	C 	0.51713	0.04125	0.02187	0.033
Mof_C 	C 	0.54304	0.07877	0.99355	-0.061
Mof_C 	C 	0.55546	0.15019	0.02237	0.026
Mof_H 	H 	0.33149	0.45819	0.02075	-0.002
Mof_H 	H 	0.36001	0.40675	0.10171	0.042
Mof_H 	H 	0.13343	0.28015	0.99095	0.045
Mof_H 	H 	0.10946	0.33492	0.91377	-0.004
Mof_H 	H 	0.92631	0.37384	0.7653	0.002
Mof_H 	H 	0.79462	0.32011	0.68993	0.04
Mof_H 	H 	0.80659	0.37474	0.52964	0.047
Mof_H 	H 	0.93868	0.43073	0.61118	-0.001
Mof_I 	I 	0.54042	0.52695	0.73054	-0.29
Mof_Cu	Cu	0.45811	0.56398	0.78031	0.842
Mof_S 	S 	0.23048	0.08399	0.15294	-0.449
Mof_S 	S 	0.48288	0.67845	0.82171	-0.467
Mof_N 	N 	0.25389	0.21819	0.31721	-0.229
Mof_N 	N 	0.24687	0.9391	0.03475	-0.231
Mof_N 	N 	0.47211	0.54276	0.8594	-0.237
Mof_C 	C 	0.26897	0.28723	0.36479	0.03
Mof_C 	C 	0.23804	0.30263	0.40938	-0.067
Mof_C 	C 	0.1906	0.24663	0.40529	0.026
Mof_C 	C 	0.17744	0.17627	0.3568	-0.063
Mof_C 	C 	0.20923	0.16308	0.31316	0.027
Mof_C 	C 	0.18509	0.89937	0.02511	0.021
Mof_C 	C 	0.15363	0.82403	0.98138	-0.061
Mof_C 	C 	0.1861	0.78802	0.94734	0.025
Mof_C 	C 	0.24978	0.83061	0.95786	-0.063
Mof_C 	C 	0.27909	0.90605	0.00154	0.026
Mof_C 	C 	0.4166	0.51621	0.86633	0.028
Mof_C 	C 	0.42876	0.50264	0.92463	-0.064
Mof_C 	C 	0.49873	0.51724	0.97609	0.031
Mof_C 	C 	0.55474	0.54486	0.96731	-0.066
Mof_C 	C 	0.54021	0.55804	0.90886	0.031
Mof_H 	H 	0.3046	0.3304	0.36766	-0.001
Mof_H 	H 	0.25052	0.35787	0.446	0.045
Mof_H 	H 	0.14342	0.1317	0.35352	0.045
Mof_H 	H 	0.19838	0.10851	0.27625	-0.005
Mof_H 	H 	0.15976	0.92615	0.05113	0.003
Mof_H 	H 	0.10375	0.79439	0.97381	0.042
Mof_H 	H 	0.27776	0.80609	0.93399	0.051
Mof_H 	H 	0.32839	0.93824	0.00995	-0.002
Mof_I 	I 	0.2956	0.80933	0.76966	-0.291
Mof_Cu	Cu	0.28318	0.67732	0.71938	0.842
Mof_S 	S 	0.43105	0.07751	0.34696	-0.447
Mof_S 	S 	0.35615	0.66087	0.67777	-0.468
Mof_N 	N 	0.40099	0.93657	0.18276	-0.232
Mof_N 	N 	0.40441	0.21211	0.46511	-0.229
Mof_N 	N 	0.18286	0.61218	0.64032	-0.238
Mof_C 	C 	0.42277	0.90406	0.13553	0.029
Mof_C 	C 	0.39364	0.82856	0.091	-0.068
Mof_C 	C 	0.34145	0.78518	0.09477	0.027
Mof_C 	C 	0.31928	0.8205	0.14294	-0.064
Mof_C 	C 	0.3497	0.89594	0.18654	0.027
Mof_C 	C 	0.37409	0.15986	0.47449	0.024
Mof_C 	C 	0.34256	0.17211	0.51829	-0.064
Mof_C 	C 	0.34086	0.23871	0.55264	0.026
Mof_C 	C 	0.37315	0.29199	0.54238	-0.066
Mof_C 	C 	0.40484	0.27764	0.49862	0.03
Mof_C 	C 	0.14937	0.54964	0.6332	0.03
Mof_C 	C 	0.0775	0.50356	0.5749	-0.068
Mof_C 	C 	0.04062	0.52222	0.52361	0.043
Mof_C 	C 	0.07703	0.5871	0.53256	-0.073
Mof_C 	C 	0.14866	0.63097	0.59102	0.034
Mof_H 	H 	0.46332	0.93683	0.13292	-0.003
Mof_H 	H 	0.41252	0.80443	0.05466	0.045
Mof_H 	H 	0.27781	0.78976	0.146	0.045
Mof_H 	H 	0.33183	0.922	0.22322	-0.008
Mof_H 	H 	0.37462	0.10843	0.4482	0.005
Mof_H 	H 	0.32031	0.12971	0.52565	0.042
Mof_H 	H 	0.3727	0.34392	0.5665	0.051
Mof_H 	H 	0.42878	0.31862	0.4904	0
Mof_I 	I 	0.97702	0.97288	0.7861	-0.305
Mof_Cu	Cu	0.95045	0.05417	0.73066	0.838
Mof_S 	S 	0.41391	0.22767	0.31874	-0.459
Mof_S 	S 	0.83286	0.02456	0.68314	-0.455
Mof_N 	N 	0.28706	0.24642	0.19393	-0.221
Mof_N 	N 	0.55567	0.23974	0.4626	-0.22
Mof_N 	N 	0.97824	0.03945	0.65556	-0.241
Mof_C 	C 	0.22891	0.2607	0.1726	0.031
Mof_C 	C 	0.21648	0.29216	0.12868	-0.07
Mof_C 	C 	0.2635	0.30872	0.10468	0.029
Mof_C 	C 	0.32374	0.2943	0.1285	-0.061
Mof_C 	C 	0.33466	0.26333	0.17324	0.031
Mof_C 	C 	0.59399	0.29705	0.46449	0.03
Mof_C 	C 	0.66952	0.33132	0.5096	-0.069
Mof_C 	C 	0.70717	0.30628	0.55329	0.027
Mof_C 	C 	0.66596	0.24678	0.54995	-0.067
Mof_C 	C 	0.5906	0.21523	0.50538	0.031
Mof_C 	C 	0.96259	0.07284	0.61677	0.042
Mof_C 	C 	0.97313	0.05736	0.55625	-0.097
Mof_C 	C 	0.00325	0.00958	0.53779	0.079
Mof_C 	C 	0.02388	0.98003	0.58265	-0.1
Mof_C 	C 	0.0101	0.99511	0.64108	0.04
Mof_H 	H 	0.19152	0.24716	0.18938	0.003
Mof_H 	H 	0.17034	0.30376	0.11406	0.055
Mof_H 	H 	0.36144	0.30534	0.11135	0.043
Mof_H 	H 	0.38049	0.25143	0.18989	0.012
Mof_H 	H 	0.56606	0.3167	0.43153	0.009
Mof_H 	H 	0.69787	0.37746	0.51056	0.043
Mof_H 	H 	0.69147	0.22401	0.58091	0.052
Mof_H 	H 	0.55987	0.17061	0.5048	0.011
Mof_I 	I 	0.68667	0.19121	0.71494	-0.288
Mof_Cu	Cu	0.8234	0.22031	0.76997	0.839
Mof_S 	S 	0.40882	0.09501	0.18104	-0.456
Mof_S 	S 	0.84169	0.15046	0.81772	-0.461
Mof_N 	N 	0.55245	0.09299	0.30614	-0.22
Mof_N 	N 	0.27685	0.0928	0.0371	-0.22
Mof_N 	N 	0.88378	0.32321	0.84476	-0.233
Mof_C 	C 	0.58796	0.05655	0.32854	0.032
Mof_C 	C 	0.66334	0.08799	0.37249	-0.069
Mof_C 	C 	0.70399	0.15859	0.39549	0.029
Mof_C 	C 	0.66584	0.19467	0.37073	-0.06
Mof_C 	C 	0.59013	0.16088	0.32592	0.031
Mof_C 	C 	0.332	0.12808	0.03414	0.028
Mof_C 	C 	0.32121	0.15857	0.9891	-0.065
Mof_C 	C 	0.25278	0.15364	0.94647	0.027
Mof_C 	C 	0.19685	0.11684	0.95077	-0.065
Mof_C 	C 	0.20979	0.086	0.99529	0.035
Mof_C 	C 	0.95597	0.34631	0.8833	0.012
Mof_C 	C 	0.0011	0.41739	0.94374	-0.035
Mof_C 	C 	0.97186	0.46598	0.96235	-0.003
Mof_C 	C 	0.89745	0.44184	0.91764	-0.059
Mof_C 	C 	0.854	0.36961	0.8593	0.023
Mof_H 	H 	0.55756	0.00272	0.31251	0.005
Mof_H 	H 	0.68946	0.05672	0.38787	0.055
Mof_H 	H 	0.6941	0.24924	0.38717	0.043
Mof_H 	H 	0.56167	0.18979	0.3085	0.013
Mof_H 	H 	0.38433	0.13208	0.06615	0.01
Mof_H 	H 	0.36616	0.1851	0.98729	0.043
Mof_H 	H 	0.14337	0.11226	0.9206	0.055
Mof_H 	H 	0.1659	0.05665	0.9966	0.014
Mof_I 	I 	0.1904	0.97631	0.5041	-0.299
Mof_Cu	Cu	0.21962	0.94913	0.39651	0.836
Mof_S 	S 	0.09546	0.41419	0.68611	-0.46
Mof_S 	S 	0.14923	0.83179	0.30788	-0.46
Mof_N 	N 	0.09126	0.28548	0.53861	-0.221
Mof_N 	N 	0.09318	0.55572	0.81648	-0.22
Mof_N 	N 	0.32245	0.97622	0.43914	-0.244
Mof_C 	C 	0.05414	0.22653	0.46653	0.033
Mof_C 	C 	0.08489	0.21352	0.4218	-0.071
Mof_C 	C 	0.15535	0.26086	0.45112	0.032
Mof_C 	C 	0.19198	0.32137	0.52533	-0.069
Mof_C 	C 	0.15915	0.33301	0.56814	0.034
Mof_C 	C 	0.12892	0.59418	0.79714	0.032
Mof_C 	C 	0.15907	0.66967	0.83844	-0.069
Mof_C 	C 	0.15378	0.70708	0.90169	0.029
Mof_C 	C 	0.11643	0.6658	0.92026	-0.067
Mof_C 	C 	0.08566	0.59044	0.87626	0.033
Mof_C 	C 	0.34636	0.96302	0.39075	0.036
Mof_C 	C 	0.41743	0.97352	0.41686	-0.085
Mof_C 	C 	0.4653	0.00098	0.49428	0.047
Mof_C 	C 	0.44001	0.01816	0.54384	-0.08
Mof_C 	C 	0.36792	0.00488	0.51485	0.044
Mof_H 	H 	0.00035	0.18901	0.44362	0.006
Mof_H 	H 	0.0534	0.16678	0.36446	0.057
Mof_H 	H 	0.24645	0.35826	0.55062	0.051
Mof_H 	H 	0.18879	0.37929	0.62565	0.004
Mof_H 	H 	0.13332	0.56633	0.74905	0.007
Mof_H 	H 	0.18543	0.6983	0.82014	0.048
Mof_H 	H 	0.11127	0.69129	0.96877	0.054
Mof_H 	H 	0.0557	0.55956	0.89015	0.013
Mof_I 	I 	0.97218	0.68627	0.99624	-0.298
Mof_Cu	Cu	0.05245	0.8231	0.10376	0.84
Mof_S 	S 	0.22811	0.40918	0.81368	-0.463
Mof_S 	S 	0.02396	0.84134	0.19253	-0.456
Mof_N 	N 	0.24694	0.55251	0.96127	-0.221
Mof_N 	N 	0.23937	0.27653	0.68346	-0.221
Mof_N 	N 	0.03653	0.8831	0.06096	-0.23
Mof_C 	C 	0.2596	0.5874	0.03315	0.029
Mof_C 	C 	0.29133	0.66288	0.07795	-0.07
Mof_C 	C 	0.30984	0.7041	0.04889	0.029
Mof_C 	C 	0.29665	0.66658	0.9749	-0.066
Mof_C 	C 	0.26546	0.59093	0.93202	0.033
Mof_C 	C 	0.29745	0.33153	0.70314	0.031
Mof_C 	C 	0.33167	0.32045	0.66185	-0.069
Mof_C 	C 	0.3056	0.25201	0.59832	0.028
Mof_C 	C 	0.24551	0.19614	0.57947	-0.067
Mof_C 	C 	0.21412	0.20932	0.62343	0.032
Mof_C 	C 	0.07219	0.95543	0.10912	0.015
Mof_C 	C 	0.05649	0.00034	0.08295	-0.04
Mof_C 	C 	0.00576	0.97062	0.00577	0.014
Mof_C 	C 	0.97279	0.89576	0.95638	-0.07
Mof_C 	C 	0.98877	0.85273	0.98539	0.021
Mof_H 	H 	0.24463	0.55647	0.05587	0.003
Mof_H 	H 	0.30159	0.68867	0.13515	0.055
Mof_H 	H 	0.30869	0.69581	0.94982	0.05
Mof_H 	H 	0.25464	0.56312	0.87467	0.004
Mof_H 	H 	0.3179	0.38392	0.75148	0.007
Mof_H 	H 	0.37875	0.36505	0.68035	0.047
Mof_H 	H 	0.22232	0.14257	0.53074	0.054
Mof_H 	H 	0.16913	0.1655	0.60928	0.012
Mof_W 	W 	0.84481	0.59472	0.25008	0.101
Mof_W 	W 	0.59425	0.84411	0.75008	0.113
Mof_W 	W 	0.09305	0.34295	0.74993	0.1
Mof_W 	W 	0.34269	0.09267	0.24992	0.101
Mof_W 	W 	0.34854	0.59846	0.7498	0.077
Mof_W 	W 	0.65786	0.40803	0.24968	0.08
Mof_W 	W 	0.15822	0.90834	0.2501	0.071
Mof_W 	W 	0.90863	0.15897	0.75024	0.072
Mof_Cu	Cu	0.94699	0.69891	0.40003	0.843
Mof_Cu	Cu	0.79896	0.54682	0.10009	0.844
Mof_Cu	Cu	0.6989	0.79878	0.75263	0.844
Mof_Cu	Cu	0.54637	0.94617	0.74741	0.843
Mof_Cu	Cu	0.04413	0.29648	0.59963	0.846
Mof_Cu	Cu	0.19694	0.44435	0.90022	0.844
Mof_Cu	Cu	0.29642	0.19637	0.25188	0.844
Mof_Cu	Cu	0.44445	0.04443	0.248	0.847
Mof_Cu	Cu	0.79261	0.6932	0.2438	0.845
Mof_Cu	Cu	0.94958	0.54881	0.25634	0.843
Mof_Cu	Cu	0.6925	0.9494	0.90063	0.843
Mof_Cu	Cu	0.54896	0.79191	0.59955	0.845
Mof_Cu	Cu	0.19141	0.29041	0.74365	0.844
Mof_Cu	Cu	0.04681	0.44758	0.75622	0.847
Mof_Cu	Cu	0.2903	0.04643	0.09899	0.847
Mof_Cu	Cu	0.44743	0.19127	0.4008	0.845
Mof_H 	H 	0.48201	0.6136	0.67255	-0.001
Mof_H 	H 	0.56046	0.58698	0.62459	0.057
Mof_H 	H 	0.37242	0.44609	0.39739	0.05
Mof_H 	H 	0.29777	0.4697	0.45136	0.007
Mof_H 	H 	0.44069	0.80926	0.82678	-0.001
Mof_H 	H 	0.46186	0.9356	0.87457	0.054
Mof_H 	H 	0.54787	0.97492	0.10182	0.047
Mof_H 	H 	0.51773	0.84637	0.04801	0.007
Mof_H 	H 	0.61163	0.44004	0.13306	-0.031
Mof_H 	H 	0.58771	0.46011	0.02743	0.053
Mof_H 	H 	0.44555	0.5478	0.06938	0.049
Mof_H 	H 	0.46704	0.51921	0.16898	0.007
Mof_H 	H 	0.80658	0.47843	0.36653	-0.031
Mof_H 	H 	0.93224	0.56	0.4723	0.051
Mof_H 	H 	0.97774	0.37574	0.43015	0.046
Mof_H 	H 	0.84959	0.29777	0.33043	0.006
Mof_H 	H 	0.01156	0.85632	0.33119	0.022
Mof_H 	H 	0.98618	0.87975	0.43412	0.026
Mof_H 	H 	0.04693	0.10058	0.49562	0.042
Mof_H 	H 	0.06927	0.0722	0.39208	0.002
Mof_H 	H 	0.02555	0.68071	0.16939	0.015
Mof_H 	H 	0.94598	0.5524	0.06639	0.046
Mof_H 	H 	0.10493	0.55184	0.00432	0.049
Mof_H 	H 	0.1802	0.67765	0.10799	-0
Mof_H 	H 	0.68157	0.01117	0.65605	0.021
Mof_H 	H 	0.553	0.98439	0.60705	0.028
Mof_H 	H 	0.55137	0.04704	0.44798	0.046
Mof_H 	H 	0.67716	0.06978	0.49816	0.002
Mof_H 	H 	0.85613	0.02676	0.84453	0.016
Mof_H 	H 	0.877	0.94632	0.8921	0.043
Mof_H 	H 	0.1009	0.10729	0.05498	0.047
Mof_H 	H 	0.07205	0.18168	0.00311	-0.004
Mof_H 	H 	0.52627	0.35702	0.34799	0.017
Mof_H 	H 	0.44739	0.38135	0.39749	0.04
Mof_H 	H 	0.60241	0.60436	0.54846	0.047
Mof_H 	H 	0.67711	0.57501	0.49743	0.001
Mof_H 	H 	0.50859	0.17822	0.15131	0.017
Mof_H 	H 	0.48332	0.04982	0.10177	0.043
Mof_H 	H 	0.55505	0.05371	0.95053	0.049
Mof_H 	H 	0.57678	0.17945	0.00157	0.001
Mof_H 	H 	0.36345	0.50735	0.8278	-0.007
Mof_H 	H 	0.3843	0.48142	0.92978	0.041
Mof_H 	H 	0.60946	0.5576	0.00616	0.045
Mof_H 	H 	0.58332	0.5816	0.90338	-0.001
Mof_H 	H 	0.17907	0.53489	0.67158	-0.007
Mof_H 	H 	0.05112	0.45385	0.5696	0.045
Mof_H 	H 	0.05094	0.6031	0.49384	0.051
Mof_H 	H 	0.17768	0.67966	0.59665	-0.002
Mof_H 	H 	0.93906	0.1093	0.63095	-0.035
Mof_H 	H 	0.95633	0.08142	0.5232	0.059
Mof_H 	H 	0.05069	0.94596	0.57282	0.058
Mof_H 	H 	0.02482	0.97133	0.67472	0.005
Mof_H 	H 	0.97818	0.30855	0.86904	-0.03
Mof_H 	H 	0.05821	0.43359	0.97667	0.047
Mof_H 	H 	0.87328	0.47853	0.92756	0.047
Mof_H 	H 	0.79655	0.35071	0.82583	0.008
Mof_H 	H 	0.30926	0.9415	0.33108	-0.032
Mof_H 	H 	0.43412	0.95862	0.37624	0.055
Mof_H 	H 	0.47571	0.04217	0.60439	0.053
Mof_H 	H 	0.34842	0.01762	0.55291	0.006
Mof_H 	H 	0.11079	0.97811	0.16869	-0.029
Mof_H 	H 	0.08265	0.05769	0.1234	0.049
Mof_H 	H 	0.93562	0.8708	0.89594	0.046
Mof_H 	H 	0.96309	0.79514	0.94749	0.006
_end
