# CIF file generated by openbabel 3.1.0, see https://openbabel.org
data_I
_chemical_name_common 'image0'
_cell_length_a 34.1414
_cell_length_b 14.5641
_cell_length_c 34.9597
_cell_angle_alpha 90
_cell_angle_beta 108.633
_cell_angle_gamma 90
_space_group_name_H-M_alt 'P 1'
_space_group_name_Hall 'P 1'
loop_
    _symmetry_equiv_pos_as_xyz
    x,y,z
loop_
    _atom_site_label
    _atom_site_type_symbol
    _atom_site_fract_x
    _atom_site_fract_y
    _atom_site_fract_z
    _atom_site_occupancy
    Zn1      Zn       0.11301    0.07383    0.05483    1.000
    Zn2      Zn       0.34960    0.11268    0.42556    1.000
    Zn3      Zn       0.33789    0.34611    0.23754    1.000
    I1       I        0.09620    0.22880    0.08015    1.000
    I2       I        0.12400    0.05269    0.98722    1.000
    I3       I        0.27586    0.14605    0.42362    1.000
    I4       I        0.40331    0.23722    0.43839    1.000
    I5       I        0.38148    0.31663    0.31010    1.000
    I6       I        0.27341    0.24753    0.20764    1.000
    N1       N        0.16190    0.01710    0.09980    1.000
    C1       C        0.17950    0.06280    0.13470    1.000
    H1       H        0.17060    0.12360    0.13750    1.000
    C2       C        0.21030    0.02290    0.16650    1.000
    H2       H        0.22260    0.05660    0.19060    1.000
    C3       C        0.22280    0.93470    0.16310    1.000
    C4       C        0.20450    0.88720    0.12730    1.000
    H3       H        0.21240    0.82590    0.12400    1.000
    C5       C        0.17430    0.93180    0.09660    1.000
    H4       H        0.16190    0.89980    0.07200    1.000
    N2       N        0.34250    0.04440    0.37210    1.000
    C6       C        0.34300    0.95340    0.37080    1.000
    H5       H        0.35230    0.92040    0.39550    1.000
    C7       C        0.33060    0.90450    0.33500    1.000
    H6       H        0.33260    0.83950    0.33500    1.000
    C8       C        0.31540    0.95270    0.29920    1.000
    C9       C        0.31520    0.04770    0.30040    1.000
    H7       H        0.30580    0.08200    0.27610    1.000
    C10      C        0.32880    0.09270    0.33740    1.000
    H8       H        0.32850    0.15790    0.33820    1.000
    N3       N        0.32350    0.48300    0.23100    1.000
    C11      C        0.34190    0.54030    0.26170    1.000
    H9       H        0.36190    0.51590    0.28500    1.000
    C12      C        0.33280    0.63310    0.26090    1.000
    H10      H        0.34650    0.67150    0.28310    1.000
    C13      C        0.30310    0.66930    0.22690    1.000
    C14      C        0.28450    0.61030    0.19460    1.000
    H11      H        0.26470    0.63300    0.17070    1.000
    C15      C        0.29530    0.51930    0.19800    1.000
    H12      H        0.28230    0.47970    0.17610    1.000
    C16      C        0.25420    0.89070    0.19750    1.000
    N4       N        0.27040    0.94260    0.23030    1.000
    C17      C        0.29870    0.89910    0.26080    1.000
    N5       N        0.31090    0.81400    0.26040    1.000
    C18      C        0.29150    0.76750    0.22660    1.000
    N6       N        0.26320    0.80160    0.19420    1.000
    N7       N        0.37530    0.01310    0.46770    1.000
    C19      C        0.35460    0.97640    0.49120    1.000
    H13      H        0.32750    0.99790    0.48800    1.000
    C20      C        0.37080    0.91030    0.51900    1.000
    H14      H        0.35560    0.88770    0.53540    1.000
    C21      C        0.41020    0.87550    0.52330    1.000
    C22      C        0.43060    0.90940    0.49860    1.000
    H15      H        0.45690    0.88610    0.49990    1.000
    C23      C        0.41210    0.97830    0.47160    1.000
    H16      H        0.42680    0.00210    0.45490    1.000
    N8       N        0.37150    0.67170    0.69820    1.000
    C24      C        0.38680    0.60110    0.68300    1.000
    H17      H        0.38420    0.54070    0.69200    1.000
    C25      C        0.40630    0.61440    0.65410    1.000
    H18      H        0.41820    0.56380    0.64460    1.000
    C26      C        0.40850    0.70230    0.63940    1.000
    C27      C        0.39290    0.77390    0.65560    1.000
    H19      H        0.39520    0.83500    0.64700    1.000
    C28      C        0.37380    0.75740    0.68450    1.000
    H20      H        0.36210    0.80720    0.69480    1.000
    N9       N        0.56590    0.51060    0.55890    1.000
    C29      C        0.55860    0.51800    0.59480    1.000
    H21      H        0.57570    0.48440    0.61730    1.000
    C30      C        0.52830    0.57110    0.60020    1.000
    H22      H        0.52420    0.57410    0.62580    1.000
    C31      C        0.50310    0.62120    0.56780    1.000
    C32      C        0.50990    0.61480    0.53120    1.000
    H23      H        0.49310    0.64760    0.50840    1.000
    C33      C        0.54170    0.55970    0.52840    1.000
    H24      H        0.54670    0.55660    0.50320    1.000
    C34      C        0.42630    0.80160    0.55240    1.000
    N10      N        0.41060    0.78910    0.58250    1.000
    C35      C        0.42710    0.71840    0.60690    1.000
    N11      N        0.45560    0.66300    0.60390    1.000
    C36      C        0.46990    0.68040    0.57330    1.000
    N12      N        0.45670    0.75050    0.54680    1.000
    Zn4      Zn       0.61301    0.57383    0.05483    1.000
    Zn5      Zn       0.84960    0.61268    0.42556    1.000
    Zn6      Zn       0.83789    0.84611    0.23754    1.000
    I7       I        0.59620    0.72880    0.08015    1.000
    I8       I        0.62400    0.55269    0.98722    1.000
    I9       I        0.77586    0.64605    0.42362    1.000
    I10      I        0.90331    0.73722    0.43839    1.000
    I11      I        0.88148    0.81663    0.31010    1.000
    I12      I        0.77341    0.74753    0.20764    1.000
    N13      N        0.66190    0.51710    0.09980    1.000
    C37      C        0.67950    0.56280    0.13470    1.000
    H25      H        0.67060    0.62360    0.13750    1.000
    C38      C        0.71030    0.52290    0.16650    1.000
    H26      H        0.72260    0.55660    0.19060    1.000
    C39      C        0.72280    0.43470    0.16310    1.000
    C40      C        0.70450    0.38720    0.12730    1.000
    H27      H        0.71240    0.32590    0.12400    1.000
    C41      C        0.67430    0.43180    0.09660    1.000
    H28      H        0.66190    0.39980    0.07200    1.000
    N14      N        0.84250    0.54440    0.37210    1.000
    C42      C        0.84300    0.45340    0.37080    1.000
    H29      H        0.85230    0.42040    0.39550    1.000
    C43      C        0.83060    0.40450    0.33500    1.000
    H30      H        0.83260    0.33950    0.33500    1.000
    C44      C        0.81540    0.45270    0.29920    1.000
    C45      C        0.81520    0.54770    0.30040    1.000
    H31      H        0.80580    0.58200    0.27610    1.000
    C46      C        0.82880    0.59270    0.33740    1.000
    H32      H        0.82850    0.65790    0.33820    1.000
    N15      N        0.82350    0.98300    0.23100    1.000
    C47      C        0.84190    0.04030    0.26170    1.000
    H33      H        0.86190    0.01590    0.28500    1.000
    C48      C        0.83280    0.13310    0.26090    1.000
    H34      H        0.84650    0.17150    0.28310    1.000
    C49      C        0.80310    0.16930    0.22690    1.000
    C50      C        0.78450    0.11030    0.19460    1.000
    H35      H        0.76470    0.13300    0.17070    1.000
    C51      C        0.79530    0.01930    0.19800    1.000
    H36      H        0.78230    0.97970    0.17610    1.000
    C52      C        0.75420    0.39070    0.19750    1.000
    N16      N        0.77040    0.44260    0.23030    1.000
    C53      C        0.79870    0.39910    0.26080    1.000
    N17      N        0.81090    0.31400    0.26040    1.000
    C54      C        0.79150    0.26750    0.22660    1.000
    N18      N        0.76320    0.30160    0.19420    1.000
    N19      N        0.87530    0.51310    0.46770    1.000
    C55      C        0.85460    0.47640    0.49120    1.000
    H37      H        0.82750    0.49790    0.48800    1.000
    C56      C        0.87080    0.41030    0.51900    1.000
    H38      H        0.85560    0.38770    0.53540    1.000
    C57      C        0.91020    0.37550    0.52330    1.000
    C58      C        0.93060    0.40940    0.49860    1.000
    H39      H        0.95690    0.38610    0.49990    1.000
    C59      C        0.91210    0.47830    0.47160    1.000
    H40      H        0.92680    0.50210    0.45490    1.000
    N20      N        0.87150    0.17170    0.69820    1.000
    C60      C        0.88680    0.10110    0.68300    1.000
    H41      H        0.88420    0.04070    0.69200    1.000
    C61      C        0.90630    0.11440    0.65410    1.000
    H42      H        0.91820    0.06380    0.64460    1.000
    C62      C        0.90850    0.20230    0.63940    1.000
    C63      C        0.89290    0.27390    0.65560    1.000
    H43      H        0.89520    0.33500    0.64700    1.000
    C64      C        0.87380    0.25740    0.68450    1.000
    H44      H        0.86210    0.30720    0.69480    1.000
    N21      N        0.06590    0.01060    0.55890    1.000
    C65      C        0.05860    0.01800    0.59480    1.000
    H45      H        0.07570    0.98440    0.61730    1.000
    C66      C        0.02830    0.07110    0.60020    1.000
    H46      H        0.02420    0.07410    0.62580    1.000
    C67      C        0.00310    0.12120    0.56780    1.000
    C68      C        0.00990    0.11480    0.53120    1.000
    H47      H        0.99310    0.14760    0.50840    1.000
    C69      C        0.04170    0.05970    0.52840    1.000
    H48      H        0.04670    0.05660    0.50320    1.000
    C70      C        0.92630    0.30160    0.55240    1.000
    N22      N        0.91060    0.28910    0.58250    1.000
    C71      C        0.92710    0.21840    0.60690    1.000
    N23      N        0.95560    0.16300    0.60390    1.000
    C72      C        0.96990    0.18040    0.57330    1.000
    N24      N        0.95670    0.25050    0.54680    1.000
    Zn7      Zn       0.11301    0.92617    0.55483    1.000
    Zn8      Zn       0.34960    0.88732    0.92556    1.000
    Zn9      Zn       0.33789    0.65389    0.73754    1.000
    I13      I        0.09620    0.77120    0.58015    1.000
    I14      I        0.12400    0.94731    0.48722    1.000
    I15      I        0.27586    0.85395    0.92362    1.000
    I16      I        0.40331    0.76278    0.93839    1.000
    I17      I        0.38148    0.68337    0.81010    1.000
    I18      I        0.27341    0.75247    0.70764    1.000
    N25      N        0.16190    0.98290    0.59980    1.000
    C73      C        0.17950    0.93720    0.63470    1.000
    H49      H        0.17060    0.87640    0.63750    1.000
    C74      C        0.21030    0.97710    0.66650    1.000
    H50      H        0.22260    0.94340    0.69060    1.000
    C75      C        0.22280    0.06530    0.66310    1.000
    C76      C        0.20450    0.11280    0.62730    1.000
    H51      H        0.21240    0.17410    0.62400    1.000
    C77      C        0.17430    0.06820    0.59660    1.000
    H52      H        0.16190    0.10020    0.57200    1.000
    N26      N        0.34250    0.95560    0.87210    1.000
    C78      C        0.34300    0.04660    0.87080    1.000
    H53      H        0.35230    0.07960    0.89550    1.000
    C79      C        0.33060    0.09550    0.83500    1.000
    H54      H        0.33260    0.16050    0.83500    1.000
    C80      C        0.31540    0.04730    0.79920    1.000
    C81      C        0.31520    0.95230    0.80040    1.000
    H55      H        0.30580    0.91800    0.77610    1.000
    C82      C        0.32880    0.90730    0.83740    1.000
    H56      H        0.32850    0.84210    0.83820    1.000
    N27      N        0.32350    0.51700    0.73100    1.000
    C83      C        0.34190    0.45970    0.76170    1.000
    H57      H        0.36190    0.48410    0.78500    1.000
    C84      C        0.33280    0.36690    0.76090    1.000
    H58      H        0.34650    0.32850    0.78310    1.000
    C85      C        0.30310    0.33070    0.72690    1.000
    C86      C        0.28450    0.38970    0.69460    1.000
    H59      H        0.26470    0.36700    0.67070    1.000
    C87      C        0.29530    0.48070    0.69800    1.000
    H60      H        0.28230    0.52030    0.67610    1.000
    C88      C        0.25420    0.10930    0.69750    1.000
    N28      N        0.27040    0.05740    0.73030    1.000
    C89      C        0.29870    0.10090    0.76080    1.000
    N29      N        0.31090    0.18600    0.76040    1.000
    C90      C        0.29150    0.23250    0.72660    1.000
    N30      N        0.26320    0.19840    0.69420    1.000
    N31      N        0.37530    0.98690    0.96770    1.000
    C91      C        0.35460    0.02360    0.99120    1.000
    H61      H        0.32750    0.00210    0.98800    1.000
    C92      C        0.37080    0.08970    0.01900    1.000
    H62      H        0.35560    0.11230    0.03540    1.000
    C93      C        0.41020    0.12450    0.02330    1.000
    C94      C        0.43060    0.09060    0.99860    1.000
    H63      H        0.45690    0.11390    0.99990    1.000
    C95      C        0.41210    0.02170    0.97160    1.000
    H64      H        0.42680    0.99790    0.95490    1.000
    N32      N        0.37150    0.32830    0.19820    1.000
    C96      C        0.38680    0.39890    0.18300    1.000
    H65      H        0.38420    0.45930    0.19200    1.000
    C97      C        0.40630    0.38560    0.15410    1.000
    H66      H        0.41820    0.43620    0.14460    1.000
    C98      C        0.40850    0.29770    0.13940    1.000
    C99      C        0.39290    0.22610    0.15560    1.000
    H67      H        0.39520    0.16500    0.14700    1.000
    C100     C        0.37380    0.24260    0.18450    1.000
    H68      H        0.36210    0.19280    0.19480    1.000
    N33      N        0.56590    0.48940    0.05890    1.000
    C101     C        0.55860    0.48200    0.09480    1.000
    H69      H        0.57570    0.51560    0.11730    1.000
    C102     C        0.52830    0.42890    0.10020    1.000
    H70      H        0.52420    0.42590    0.12580    1.000
    C103     C        0.50310    0.37880    0.06780    1.000
    C104     C        0.50990    0.38520    0.03120    1.000
    H71      H        0.49310    0.35240    0.00840    1.000
    C105     C        0.54170    0.44030    0.02840    1.000
    H72      H        0.54670    0.44340    0.00320    1.000
    C106     C        0.42630    0.19840    0.05240    1.000
    N34      N        0.41060    0.21090    0.08250    1.000
    C107     C        0.42710    0.28160    0.10690    1.000
    N35      N        0.45560    0.33700    0.10390    1.000
    C108     C        0.46990    0.31960    0.07330    1.000
    N36      N        0.45670    0.24950    0.04680    1.000
    Zn10     Zn       0.61301    0.42617    0.55483    1.000
    Zn11     Zn       0.84960    0.38732    0.92556    1.000
    Zn12     Zn       0.83789    0.15389    0.73754    1.000
    I19      I        0.59620    0.27120    0.58015    1.000
    I20      I        0.62400    0.44731    0.48722    1.000
    I21      I        0.77586    0.35395    0.92362    1.000
    I22      I        0.90331    0.26278    0.93839    1.000
    I23      I        0.88148    0.18337    0.81010    1.000
    I24      I        0.77341    0.25247    0.70764    1.000
    N37      N        0.66190    0.48290    0.59980    1.000
    C109     C        0.67950    0.43720    0.63470    1.000
    H73      H        0.67060    0.37640    0.63750    1.000
    C110     C        0.71030    0.47710    0.66650    1.000
    H74      H        0.72260    0.44340    0.69060    1.000
    C111     C        0.72280    0.56530    0.66310    1.000
    C112     C        0.70450    0.61280    0.62730    1.000
    H75      H        0.71240    0.67410    0.62400    1.000
    C113     C        0.67430    0.56820    0.59660    1.000
    H76      H        0.66190    0.60020    0.57200    1.000
    N38      N        0.84250    0.45560    0.87210    1.000
    C114     C        0.84300    0.54660    0.87080    1.000
    H77      H        0.85230    0.57960    0.89550    1.000
    C115     C        0.83060    0.59550    0.83500    1.000
    H78      H        0.83260    0.66050    0.83500    1.000
    C116     C        0.81540    0.54730    0.79920    1.000
    C117     C        0.81520    0.45230    0.80040    1.000
    H79      H        0.80580    0.41800    0.77610    1.000
    C118     C        0.82880    0.40730    0.83740    1.000
    H80      H        0.82850    0.34210    0.83820    1.000
    N39      N        0.82350    0.01700    0.73100    1.000
    C119     C        0.84190    0.95970    0.76170    1.000
    H81      H        0.86190    0.98410    0.78500    1.000
    C120     C        0.83280    0.86690    0.76090    1.000
    H82      H        0.84650    0.82850    0.78310    1.000
    C121     C        0.80310    0.83070    0.72690    1.000
    C122     C        0.78450    0.88970    0.69460    1.000
    H83      H        0.76470    0.86700    0.67070    1.000
    C123     C        0.79530    0.98070    0.69800    1.000
    H84      H        0.78230    0.02030    0.67610    1.000
    C124     C        0.75420    0.60930    0.69750    1.000
    N40      N        0.77040    0.55740    0.73030    1.000
    C125     C        0.79870    0.60090    0.76080    1.000
    N41      N        0.81090    0.68600    0.76040    1.000
    C126     C        0.79150    0.73250    0.72660    1.000
    N42      N        0.76320    0.69840    0.69420    1.000
    N43      N        0.87530    0.48690    0.96770    1.000
    C127     C        0.85460    0.52360    0.99120    1.000
    H85      H        0.82750    0.50210    0.98800    1.000
    C128     C        0.87080    0.58970    0.01900    1.000
    H86      H        0.85560    0.61230    0.03540    1.000
    C129     C        0.91020    0.62450    0.02330    1.000
    C130     C        0.93060    0.59060    0.99860    1.000
    H87      H        0.95690    0.61390    0.99990    1.000
    C131     C        0.91210    0.52170    0.97160    1.000
    H88      H        0.92680    0.49790    0.95490    1.000
    N44      N        0.87150    0.82830    0.19820    1.000
    C132     C        0.88680    0.89890    0.18300    1.000
    H89      H        0.88420    0.95930    0.19200    1.000
    C133     C        0.90630    0.88560    0.15410    1.000
    H90      H        0.91820    0.93620    0.14460    1.000
    C134     C        0.90850    0.79770    0.13940    1.000
    C135     C        0.89290    0.72610    0.15560    1.000
    H91      H        0.89520    0.66500    0.14700    1.000
    C136     C        0.87380    0.74260    0.18450    1.000
    H92      H        0.86210    0.69280    0.19480    1.000
    N45      N        0.06590    0.98940    0.05890    1.000
    C137     C        0.05860    0.98200    0.09480    1.000
    H93      H        0.07570    0.01560    0.11730    1.000
    C138     C        0.02830    0.92890    0.10020    1.000
    H94      H        0.02420    0.92590    0.12580    1.000
    C139     C        0.00310    0.87880    0.06780    1.000
    C140     C        0.00990    0.88520    0.03120    1.000
    H95      H        0.99310    0.85240    0.00840    1.000
    C141     C        0.04170    0.94030    0.02840    1.000
    H96      H        0.04670    0.94340    0.00320    1.000
    C142     C        0.92630    0.69840    0.05240    1.000
    N46      N        0.91060    0.71090    0.08250    1.000
    C143     C        0.92710    0.78160    0.10690    1.000
    N47      N        0.95560    0.83700    0.10390    1.000
    C144     C        0.96990    0.81960    0.07330    1.000
    N48      N        0.95670    0.74950    0.04680    1.000
    Zn13     Zn       0.88699    0.07383    0.44517    1.000
    Zn14     Zn       0.65040    0.11268    0.07444    1.000
    Zn15     Zn       0.66211    0.34611    0.26246    1.000
    I25      I        0.90380    0.22880    0.41985    1.000
    I26      I        0.87600    0.05269    0.51278    1.000
    I27      I        0.72414    0.14605    0.07638    1.000
    I28      I        0.59669    0.23722    0.06161    1.000
    I29      I        0.61852    0.31663    0.18990    1.000
    I30      I        0.72659    0.24753    0.29236    1.000
    N49      N        0.83810    0.01710    0.40020    1.000
    C145     C        0.82050    0.06280    0.36530    1.000
    H97      H        0.82940    0.12360    0.36250    1.000
    C146     C        0.78970    0.02290    0.33350    1.000
    H98      H        0.77740    0.05660    0.30940    1.000
    C147     C        0.77720    0.93470    0.33690    1.000
    C148     C        0.79550    0.88720    0.37270    1.000
    H99      H        0.78760    0.82590    0.37600    1.000
    C149     C        0.82570    0.93180    0.40340    1.000
    H100     H        0.83810    0.89980    0.42800    1.000
    N50      N        0.65750    0.04440    0.12790    1.000
    C150     C        0.65700    0.95340    0.12920    1.000
    H101     H        0.64770    0.92040    0.10450    1.000
    C151     C        0.66940    0.90450    0.16500    1.000
    H102     H        0.66740    0.83950    0.16500    1.000
    C152     C        0.68460    0.95270    0.20080    1.000
    C153     C        0.68480    0.04770    0.19960    1.000
    H103     H        0.69420    0.08200    0.22390    1.000
    C154     C        0.67120    0.09270    0.16260    1.000
    H104     H        0.67150    0.15790    0.16180    1.000
    N51      N        0.67650    0.48300    0.26900    1.000
    C155     C        0.65810    0.54030    0.23830    1.000
    H105     H        0.63810    0.51590    0.21500    1.000
    C156     C        0.66720    0.63310    0.23910    1.000
    H106     H        0.65350    0.67150    0.21690    1.000
    C157     C        0.69690    0.66930    0.27310    1.000
    C158     C        0.71550    0.61030    0.30540    1.000
    H107     H        0.73530    0.63300    0.32930    1.000
    C159     C        0.70470    0.51930    0.30200    1.000
    H108     H        0.71770    0.47970    0.32390    1.000
    C160     C        0.74580    0.89070    0.30250    1.000
    N52      N        0.72960    0.94260    0.26970    1.000
    C161     C        0.70130    0.89910    0.23920    1.000
    N53      N        0.68910    0.81400    0.23960    1.000
    C162     C        0.70850    0.76750    0.27340    1.000
    N54      N        0.73680    0.80160    0.30580    1.000
    N55      N        0.62470    0.01310    0.03230    1.000
    C163     C        0.64540    0.97640    0.00880    1.000
    H109     H        0.67250    0.99790    0.01200    1.000
    C164     C        0.62920    0.91030    0.98100    1.000
    H110     H        0.64440    0.88770    0.96460    1.000
    C165     C        0.58980    0.87550    0.97670    1.000
    C166     C        0.56940    0.90940    0.00140    1.000
    H111     H        0.54310    0.88610    0.00010    1.000
    C167     C        0.58790    0.97830    0.02840    1.000
    H112     H        0.57320    0.00210    0.04510    1.000
    N56      N        0.62850    0.67170    0.80180    1.000
    C168     C        0.61320    0.60110    0.81700    1.000
    H113     H        0.61580    0.54070    0.80800    1.000
    C169     C        0.59370    0.61440    0.84590    1.000
    H114     H        0.58180    0.56380    0.85540    1.000
    C170     C        0.59150    0.70230    0.86060    1.000
    C171     C        0.60710    0.77390    0.84440    1.000
    H115     H        0.60480    0.83500    0.85300    1.000
    C172     C        0.62620    0.75740    0.81550    1.000
    H116     H        0.63790    0.80720    0.80520    1.000
    N57      N        0.43410    0.51060    0.94110    1.000
    C173     C        0.44140    0.51800    0.90520    1.000
    H117     H        0.42430    0.48440    0.88270    1.000
    C174     C        0.47170    0.57110    0.89980    1.000
    H118     H        0.47580    0.57410    0.87420    1.000
    C175     C        0.49690    0.62120    0.93220    1.000
    C176     C        0.49010    0.61480    0.96880    1.000
    H119     H        0.50690    0.64760    0.99160    1.000
    C177     C        0.45830    0.55970    0.97160    1.000
    H120     H        0.45330    0.55660    0.99680    1.000
    C178     C        0.57370    0.80160    0.94760    1.000
    N58      N        0.58940    0.78910    0.91750    1.000
    C179     C        0.57290    0.71840    0.89310    1.000
    N59      N        0.54440    0.66300    0.89610    1.000
    C180     C        0.53010    0.68040    0.92670    1.000
    N60      N        0.54330    0.75050    0.95320    1.000
    Zn16     Zn       0.38699    0.57383    0.44517    1.000
    Zn17     Zn       0.15040    0.61268    0.07444    1.000
    Zn18     Zn       0.16211    0.84611    0.26246    1.000
    I31      I        0.40380    0.72880    0.41985    1.000
    I32      I        0.37600    0.55269    0.51278    1.000
    I33      I        0.22414    0.64605    0.07638    1.000
    I34      I        0.09669    0.73722    0.06161    1.000
    I35      I        0.11852    0.81663    0.18990    1.000
    I36      I        0.22659    0.74753    0.29236    1.000
    N61      N        0.33810    0.51710    0.40020    1.000
    C181     C        0.32050    0.56280    0.36530    1.000
    H121     H        0.32940    0.62360    0.36250    1.000
    C182     C        0.28970    0.52290    0.33350    1.000
    H122     H        0.27740    0.55660    0.30940    1.000
    C183     C        0.27720    0.43470    0.33690    1.000
    C184     C        0.29550    0.38720    0.37270    1.000
    H123     H        0.28760    0.32590    0.37600    1.000
    C185     C        0.32570    0.43180    0.40340    1.000
    H124     H        0.33810    0.39980    0.42800    1.000
    N62      N        0.15750    0.54440    0.12790    1.000
    C186     C        0.15700    0.45340    0.12920    1.000
    H125     H        0.14770    0.42040    0.10450    1.000
    C187     C        0.16940    0.40450    0.16500    1.000
    H126     H        0.16740    0.33950    0.16500    1.000
    C188     C        0.18460    0.45270    0.20080    1.000
    C189     C        0.18480    0.54770    0.19960    1.000
    H127     H        0.19420    0.58200    0.22390    1.000
    C190     C        0.17120    0.59270    0.16260    1.000
    H128     H        0.17150    0.65790    0.16180    1.000
    N63      N        0.17650    0.98300    0.26900    1.000
    C191     C        0.15810    0.04030    0.23830    1.000
    H129     H        0.13810    0.01590    0.21500    1.000
    C192     C        0.16720    0.13310    0.23910    1.000
    H130     H        0.15350    0.17150    0.21690    1.000
    C193     C        0.19690    0.16930    0.27310    1.000
    C194     C        0.21550    0.11030    0.30540    1.000
    H131     H        0.23530    0.13300    0.32930    1.000
    C195     C        0.20470    0.01930    0.30200    1.000
    H132     H        0.21770    0.97970    0.32390    1.000
    C196     C        0.24580    0.39070    0.30250    1.000
    N64      N        0.22960    0.44260    0.26970    1.000
    C197     C        0.20130    0.39910    0.23920    1.000
    N65      N        0.18910    0.31400    0.23960    1.000
    C198     C        0.20850    0.26750    0.27340    1.000
    N66      N        0.23680    0.30160    0.30580    1.000
    N67      N        0.12470    0.51310    0.03230    1.000
    C199     C        0.14540    0.47640    0.00880    1.000
    H133     H        0.17250    0.49790    0.01200    1.000
    C200     C        0.12920    0.41030    0.98100    1.000
    H134     H        0.14440    0.38770    0.96460    1.000
    C201     C        0.08980    0.37550    0.97670    1.000
    C202     C        0.06940    0.40940    0.00140    1.000
    H135     H        0.04310    0.38610    0.00010    1.000
    C203     C        0.08790    0.47830    0.02840    1.000
    H136     H        0.07320    0.50210    0.04510    1.000
    N68      N        0.12850    0.17170    0.80180    1.000
    C204     C        0.11320    0.10110    0.81700    1.000
    H137     H        0.11580    0.04070    0.80800    1.000
    C205     C        0.09370    0.11440    0.84590    1.000
    H138     H        0.08180    0.06380    0.85540    1.000
    C206     C        0.09150    0.20230    0.86060    1.000
    C207     C        0.10710    0.27390    0.84440    1.000
    H139     H        0.10480    0.33500    0.85300    1.000
    C208     C        0.12620    0.25740    0.81550    1.000
    H140     H        0.13790    0.30720    0.80520    1.000
    N69      N        0.93410    0.01060    0.94110    1.000
    C209     C        0.94140    0.01800    0.90520    1.000
    H141     H        0.92430    0.98440    0.88270    1.000
    C210     C        0.97170    0.07110    0.89980    1.000
    H142     H        0.97580    0.07410    0.87420    1.000
    C211     C        0.99690    0.12120    0.93220    1.000
    C212     C        0.99010    0.11480    0.96880    1.000
    H143     H        0.00690    0.14760    0.99160    1.000
    C213     C        0.95830    0.05970    0.97160    1.000
    H144     H        0.95330    0.05660    0.99680    1.000
    C214     C        0.07370    0.30160    0.94760    1.000
    N70      N        0.08940    0.28910    0.91750    1.000
    C215     C        0.07290    0.21840    0.89310    1.000
    N71      N        0.04440    0.16300    0.89610    1.000
    C216     C        0.03010    0.18040    0.92670    1.000
    N72      N        0.04330    0.25050    0.95320    1.000
    Zn19     Zn       0.88699    0.92617    0.94517    1.000
    Zn20     Zn       0.65040    0.88732    0.57444    1.000
    Zn21     Zn       0.66211    0.65389    0.76246    1.000
    I37      I        0.90380    0.77120    0.91985    1.000
    I38      I        0.87600    0.94731    0.01278    1.000
    I39      I        0.72414    0.85395    0.57638    1.000
    I40      I        0.59669    0.76278    0.56161    1.000
    I41      I        0.61852    0.68337    0.68990    1.000
    I42      I        0.72659    0.75247    0.79236    1.000
    N73      N        0.83810    0.98290    0.90020    1.000
    C217     C        0.82050    0.93720    0.86530    1.000
    H145     H        0.82940    0.87640    0.86250    1.000
    C218     C        0.78970    0.97710    0.83350    1.000
    H146     H        0.77740    0.94340    0.80940    1.000
    C219     C        0.77720    0.06530    0.83690    1.000
    C220     C        0.79550    0.11280    0.87270    1.000
    H147     H        0.78760    0.17410    0.87600    1.000
    C221     C        0.82570    0.06820    0.90340    1.000
    H148     H        0.83810    0.10020    0.92800    1.000
    N74      N        0.65750    0.95560    0.62790    1.000
    C222     C        0.65700    0.04660    0.62920    1.000
    H149     H        0.64770    0.07960    0.60450    1.000
    C223     C        0.66940    0.09550    0.66500    1.000
    H150     H        0.66740    0.16050    0.66500    1.000
    C224     C        0.68460    0.04730    0.70080    1.000
    C225     C        0.68480    0.95230    0.69960    1.000
    H151     H        0.69420    0.91800    0.72390    1.000
    C226     C        0.67120    0.90730    0.66260    1.000
    H152     H        0.67150    0.84210    0.66180    1.000
    N75      N        0.67650    0.51700    0.76900    1.000
    C227     C        0.65810    0.45970    0.73830    1.000
    H153     H        0.63810    0.48410    0.71500    1.000
    C228     C        0.66720    0.36690    0.73910    1.000
    H154     H        0.65350    0.32850    0.71690    1.000
    C229     C        0.69690    0.33070    0.77310    1.000
    C230     C        0.71550    0.38970    0.80540    1.000
    H155     H        0.73530    0.36700    0.82930    1.000
    C231     C        0.70470    0.48070    0.80200    1.000
    H156     H        0.71770    0.52030    0.82390    1.000
    C232     C        0.74580    0.10930    0.80250    1.000
    N76      N        0.72960    0.05740    0.76970    1.000
    C233     C        0.70130    0.10090    0.73920    1.000
    N77      N        0.68910    0.18600    0.73960    1.000
    C234     C        0.70850    0.23250    0.77340    1.000
    N78      N        0.73680    0.19840    0.80580    1.000
    N79      N        0.62470    0.98690    0.53230    1.000
    C235     C        0.64540    0.02360    0.50880    1.000
    H157     H        0.67250    0.00210    0.51200    1.000
    C236     C        0.62920    0.08970    0.48100    1.000
    H158     H        0.64440    0.11230    0.46460    1.000
    C237     C        0.58980    0.12450    0.47670    1.000
    C238     C        0.56940    0.09060    0.50140    1.000
    H159     H        0.54310    0.11390    0.50010    1.000
    C239     C        0.58790    0.02170    0.52840    1.000
    H160     H        0.57320    0.99790    0.54510    1.000
    N80      N        0.62850    0.32830    0.30180    1.000
    C240     C        0.61320    0.39890    0.31700    1.000
    H161     H        0.61580    0.45930    0.30800    1.000
    C241     C        0.59370    0.38560    0.34590    1.000
    H162     H        0.58180    0.43620    0.35540    1.000
    C242     C        0.59150    0.29770    0.36060    1.000
    C243     C        0.60710    0.22610    0.34440    1.000
    H163     H        0.60480    0.16500    0.35300    1.000
    C244     C        0.62620    0.24260    0.31550    1.000
    H164     H        0.63790    0.19280    0.30520    1.000
    N81      N        0.43410    0.48940    0.44110    1.000
    C245     C        0.44140    0.48200    0.40520    1.000
    H165     H        0.42430    0.51560    0.38270    1.000
    C246     C        0.47170    0.42890    0.39980    1.000
    H166     H        0.47580    0.42590    0.37420    1.000
    C247     C        0.49690    0.37880    0.43220    1.000
    C248     C        0.49010    0.38520    0.46880    1.000
    H167     H        0.50690    0.35240    0.49160    1.000
    C249     C        0.45830    0.44030    0.47160    1.000
    H168     H        0.45330    0.44340    0.49680    1.000
    C250     C        0.57370    0.19840    0.44760    1.000
    N82      N        0.58940    0.21090    0.41750    1.000
    C251     C        0.57290    0.28160    0.39310    1.000
    N83      N        0.54440    0.33700    0.39610    1.000
    C252     C        0.53010    0.31960    0.42670    1.000
    N84      N        0.54330    0.24950    0.45320    1.000
    Zn22     Zn       0.38699    0.42617    0.94517    1.000
    Zn23     Zn       0.15040    0.38732    0.57444    1.000
    Zn24     Zn       0.16211    0.15389    0.76246    1.000
    I43      I        0.40380    0.27120    0.91985    1.000
    I44      I        0.37600    0.44731    0.01278    1.000
    I45      I        0.22414    0.35395    0.57638    1.000
    I46      I        0.09669    0.26278    0.56161    1.000
    I47      I        0.11852    0.18337    0.68990    1.000
    I48      I        0.22659    0.25247    0.79236    1.000
    N85      N        0.33810    0.48290    0.90020    1.000
    C253     C        0.32050    0.43720    0.86530    1.000
    H169     H        0.32940    0.37640    0.86250    1.000
    C254     C        0.28970    0.47710    0.83350    1.000
    H170     H        0.27740    0.44340    0.80940    1.000
    C255     C        0.27720    0.56530    0.83690    1.000
    C256     C        0.29550    0.61280    0.87270    1.000
    H171     H        0.28760    0.67410    0.87600    1.000
    C257     C        0.32570    0.56820    0.90340    1.000
    H172     H        0.33810    0.60020    0.92800    1.000
    N86      N        0.15750    0.45560    0.62790    1.000
    C258     C        0.15700    0.54660    0.62920    1.000
    H173     H        0.14770    0.57960    0.60450    1.000
    C259     C        0.16940    0.59550    0.66500    1.000
    H174     H        0.16740    0.66050    0.66500    1.000
    C260     C        0.18460    0.54730    0.70080    1.000
    C261     C        0.18480    0.45230    0.69960    1.000
    H175     H        0.19420    0.41800    0.72390    1.000
    C262     C        0.17120    0.40730    0.66260    1.000
    H176     H        0.17150    0.34210    0.66180    1.000
    N87      N        0.17650    0.01700    0.76900    1.000
    C263     C        0.15810    0.95970    0.73830    1.000
    H177     H        0.13810    0.98410    0.71500    1.000
    C264     C        0.16720    0.86690    0.73910    1.000
    H178     H        0.15350    0.82850    0.71690    1.000
    C265     C        0.19690    0.83070    0.77310    1.000
    C266     C        0.21550    0.88970    0.80540    1.000
    H179     H        0.23530    0.86700    0.82930    1.000
    C267     C        0.20470    0.98070    0.80200    1.000
    H180     H        0.21770    0.02030    0.82390    1.000
    C268     C        0.24580    0.60930    0.80250    1.000
    N88      N        0.22960    0.55740    0.76970    1.000
    C269     C        0.20130    0.60090    0.73920    1.000
    N89      N        0.18910    0.68600    0.73960    1.000
    C270     C        0.20850    0.73250    0.77340    1.000
    N90      N        0.23680    0.69840    0.80580    1.000
    N91      N        0.12470    0.48690    0.53230    1.000
    C271     C        0.14540    0.52360    0.50880    1.000
    H181     H        0.17250    0.50210    0.51200    1.000
    C272     C        0.12920    0.58970    0.48100    1.000
    H182     H        0.14440    0.61230    0.46460    1.000
    C273     C        0.08980    0.62450    0.47670    1.000
    C274     C        0.06940    0.59060    0.50140    1.000
    H183     H        0.04310    0.61390    0.50010    1.000
    C275     C        0.08790    0.52170    0.52840    1.000
    H184     H        0.07320    0.49790    0.54510    1.000
    N92      N        0.12850    0.82830    0.30180    1.000
    C276     C        0.11320    0.89890    0.31700    1.000
    H185     H        0.11580    0.95930    0.30800    1.000
    C277     C        0.09370    0.88560    0.34590    1.000
    H186     H        0.08180    0.93620    0.35540    1.000
    C278     C        0.09150    0.79770    0.36060    1.000
    C279     C        0.10710    0.72610    0.34440    1.000
    H187     H        0.10480    0.66500    0.35300    1.000
    C280     C        0.12620    0.74260    0.31550    1.000
    H188     H        0.13790    0.69280    0.30520    1.000
    N93      N        0.93410    0.98940    0.44110    1.000
    C281     C        0.94140    0.98200    0.40520    1.000
    H189     H        0.92430    0.01560    0.38270    1.000
    C282     C        0.97170    0.92890    0.39980    1.000
    H190     H        0.97580    0.92590    0.37420    1.000
    C283     C        0.99690    0.87880    0.43220    1.000
    C284     C        0.99010    0.88520    0.46880    1.000
    H191     H        0.00690    0.85240    0.49160    1.000
    C285     C        0.95830    0.94030    0.47160    1.000
    H192     H        0.95330    0.94340    0.49680    1.000
    C286     C        0.07370    0.69840    0.44760    1.000
    N94      N        0.08940    0.71090    0.41750    1.000
    C287     C        0.07290    0.78160    0.39310    1.000
    N95      N        0.04440    0.83700    0.39610    1.000
    C288     C        0.03010    0.81960    0.42670    1.000
    N96      N        0.04330    0.74950    0.45320    1.000
