data_functionalizedCrystal
_audit_creation_method	'EQeq! by Chris Wilmer'
_symmetry_space_group_name_H-M	'P1'
_symmetry_Int_Tables_number	1
_symmetry_cell_setting	triclinic
loop_
_symmetry_equiv_pos_as_xyz
  x,y,z
_cell_length_a	11.3966
_cell_length_b	11.4787
_cell_length_c	16.8775
_cell_angle_alpha	90
_cell_angle_beta	90
_cell_angle_gamma	90
loop_
_atom_site_label
_atom_site_type_symbol
_atom_site_fract_x
_atom_site_fract_y
_atom_site_fract_z
_atom_site_charge
Mof_Cr	Cr	2.77629e-33	0.5	0.5	1.093
Mof_Cr	Cr	-0	0	-0	0.692
Mof_Cr	Cr	0.5	0.5	-0	1.032
Mof_Cr	Cr	0.5	-5.71669e-33	0.5	1.078
Mof_C 	C 	0.7716	0.6038	0.5848	0.173
Mof_C 	C 	0.6342	0.7586	0.5903	0.154
Mof_C 	C 	0.706	0.5125	0.7301	0.073
Mof_C 	C 	0.5481	0.6179	0.8311	0.182
Mof_C 	C 	0.4998	0.7696	0.7378	0.141
Mof_C 	C 	0.6822	0.6598	0.6281	-0.134
Mof_C 	C 	0.6491	0.6197	0.7033	0.066
Mof_C 	C 	0.5667	0.6672	0.7547	-0.117
Mof_C 	C 	0.2284	0.8962	0.0848	0.128
Mof_C 	C 	0.3658	0.7414	0.0903	0.118
Mof_C 	C 	0.294	0.9875	0.2301	0.175
Mof_C 	C 	0.4519	0.8821	0.3311	0.172
Mof_C 	C 	0.5002	0.7304	0.2378	0.12
Mof_C 	C 	0.3178	0.8402	0.1281	-0.109
Mof_C 	C 	0.3509	0.8803	0.2033	0.019
Mof_C 	C 	0.4333	0.8328	0.2547	-0.1
Mof_C 	C 	0.2716	0.3962	0.9152	0.178
Mof_C 	C 	0.1342	0.2414	0.9097	0.132
Mof_C 	C 	0.206	0.4875	0.7699	0.049
Mof_C 	C 	0.0481	0.3821	0.6689	0.159
Mof_C 	C 	0.9998	0.2304	0.7622	0.238
Mof_C 	C 	0.1822	0.3402	0.8719	-0.146
Mof_C 	C 	0.1491	0.3803	0.7967	0.088
Mof_C 	C 	0.0667	0.3328	0.7453	-0.223
Mof_C 	C 	0.7284	0.1038	0.4152	0.151
Mof_C 	C 	0.8658	0.2586	0.4097	0.156
Mof_C 	C 	0.794	0.0125	0.2699	-0.034
Mof_C 	C 	0.9519	0.1179	0.1689	0.13
Mof_C 	C 	0.0002	0.2696	0.2622	-0.007
Mof_C 	C 	0.8178	0.1598	0.3719	-0.132
Mof_C 	C 	0.8509	0.1197	0.2967	0.061
Mof_C 	C 	0.9333	0.1672	0.2453	-0.026
Mof_C 	C 	0.2284	0.3962	0.4152	0.147
Mof_C 	C 	0.3658	0.2414	0.4097	0.128
Mof_C 	C 	0.294	0.4875	0.2699	0.052
Mof_C 	C 	0.4519	0.3821	0.1689	0.145
Mof_C 	C 	0.5002	0.2304	0.2622	0.107
Mof_C 	C 	0.3178	0.3402	0.3719	-0.137
Mof_C 	C 	0.3509	0.3803	0.2967	0.056
Mof_C 	C 	0.4333	0.3328	0.2453	-0.123
Mof_C 	C 	0.7716	0.1038	0.9152	0.17
Mof_C 	C 	0.6342	0.2586	0.9097	0.164
Mof_C 	C 	0.706	0.0125	0.7699	-0.037
Mof_C 	C 	0.5481	0.1179	0.6689	0.154
Mof_C 	C 	0.4998	0.2696	0.7622	0.126
Mof_C 	C 	0.6822	0.1598	0.8719	-0.138
Mof_C 	C 	0.6491	0.1197	0.7967	0.095
Mof_C 	C 	0.5667	0.1672	0.7453	-0.138
Mof_C 	C 	0.7284	0.6038	0.0848	0.143
Mof_C 	C 	0.8658	0.7586	0.0903	0.141
Mof_C 	C 	0.794	0.5125	0.2301	0.079
Mof_C 	C 	0.9519	0.6179	0.3311	0.169
Mof_C 	C 	0.0002	0.7696	0.2378	0.012
Mof_C 	C 	0.8178	0.6598	0.1281	-0.109
Mof_C 	C 	0.8509	0.6197	0.2033	0.031
Mof_C 	C 	0.9333	0.6672	0.2547	-0.016
Mof_C 	C 	0.2716	0.8962	0.5848	0.168
Mof_C 	C 	0.1342	0.7414	0.5903	0.126
Mof_C 	C 	0.206	0.9875	0.7301	0.167
Mof_C 	C 	0.0481	0.8821	0.8311	0.173
Mof_C 	C 	0.9998	0.7304	0.7378	0.245
Mof_C 	C 	0.1822	0.8402	0.6281	-0.136
Mof_C 	C 	0.1491	0.8803	0.7033	0.053
Mof_C 	C 	0.0667	0.8328	0.7547	-0.189
Mof_N 	N 	0.8454	0.5615	0.5485	-0.249
Mof_N 	N 	0.5983	0.8377	0.5554	-0.197
Mof_N 	N 	0.7484	0.4278	0.7505	-0.102
Mof_N 	N 	0.5333	0.5823	0.89323	-0.23
Mof_N 	N 	0.4438	0.8504	0.7264	-0.116
Mof_N 	N 	0.1546	0.9385	0.0485	-0.224
Mof_N 	N 	0.4017	0.6623	0.0554	-0.233
Mof_N 	N 	0.2516	0.0722	0.2505	-0.207
Mof_N 	N 	0.4667	0.9177	0.39323	-0.242
Mof_N 	N 	0.5562	0.6496	0.2264	-0.132
Mof_N 	N 	0.3454	0.4385	0.9515	-0.231
Mof_N 	N 	0.0983	0.1623	0.9446	-0.185
Mof_N 	N 	0.2484	0.5722	0.7495	-0.111
Mof_N 	N 	0.0333	0.4177	0.60677	-0.297
Mof_N 	N 	0.9438	0.1496	0.7736	-0.151
Mof_N 	N 	0.6546	0.0615	0.4515	-0.283
Mof_N 	N 	0.9017	0.3377	0.4446	-0.201
Mof_N 	N 	0.7516	0.9278	0.2495	-0.034
Mof_N 	N 	0.9667	0.0823	0.10677	-0.221
Mof_N 	N 	0.0562	0.3504	0.2736	-0.131
Mof_N 	N 	0.1546	0.4385	0.4515	-0.283
Mof_N 	N 	0.4017	0.1623	0.4446	-0.236
Mof_N 	N 	0.2516	0.5722	0.2495	-0.124
Mof_N 	N 	0.4667	0.4177	0.10677	-0.283
Mof_N 	N 	0.5562	0.1496	0.2736	-0.152
Mof_N 	N 	0.8454	0.0615	0.9515	-0.184
Mof_N 	N 	0.5983	0.3377	0.9446	-0.185
Mof_N 	N 	0.7484	0.9278	0.7495	-0.022
Mof_N 	N 	0.5333	0.0823	0.60677	-0.286
Mof_N 	N 	0.4438	0.3504	0.7736	-0.136
Mof_N 	N 	0.6546	0.5615	0.0485	-0.279
Mof_N 	N 	0.9017	0.8377	0.0554	-0.163
Mof_N 	N 	0.7516	0.4278	0.2505	-0.115
Mof_N 	N 	0.9667	0.5823	0.39323	-0.236
Mof_N 	N 	0.0562	0.8504	0.2264	-0.108
Mof_N 	N 	0.3454	0.9385	0.5485	-0.244
Mof_N 	N 	0.0983	0.6623	0.5554	-0.233
Mof_N 	N 	0.2484	0.0722	0.7505	-0.191
Mof_N 	N 	0.0333	0.9177	0.89323	-0.187
Mof_N 	N 	0.9438	0.6496	0.7264	-0.134
_end
