data_functionalizedCrystal
_audit_creation_method	'EQeq! by Chris Wilmer'
_symmetry_space_group_name_H-M	'P1'
_symmetry_Int_Tables_number	1
_symmetry_cell_setting	triclinic
loop_
_symmetry_equiv_pos_as_xyz
  x,y,z
_cell_length_a	26.7127
_cell_length_b	17.9748
_cell_length_c	17.8024
_cell_angle_alpha	90
_cell_angle_beta	90
_cell_angle_gamma	90
loop_
_atom_site_label
_atom_site_type_symbol
_atom_site_fract_x
_atom_site_fract_y
_atom_site_fract_z
_atom_site_charge
Mof_O 	O 	0.92637	0.2961	0.4332	-0.639
Mof_N 	N 	0.04515	0.1335	0.3331	-0.262
Mof_C 	C 	0.94057	0.2666	0.3743	0.614
Mof_O 	O 	0.93019	0.2879	0.3098	-0.592
Mof_C 	C 	0.97421	0.1998	0.3805	-0.271
Mof_O 	O 	0.11357	0.02812	0.3412	-0.501
Mof_C 	C 	0.01284	0.1896	0.3314	0.195
Mof_H 	H 	0.0169	0.2248	0.2936	-0.028
Mof_O 	O 	0.0684	0.9635	0.4212	-0.252
Mof_C 	C 	0.9683	0.1478	0.4335	0.149
Mof_H 	H 	0.943	0.1523	0.4692	0.002
Mof_C 	C 	0.0001	0.0874	0.4345	-0.136
Mof_H 	H 	0.9954	0.05	0.4699	0.098
Mof_C 	C 	0.0385	0.0818	0.3842	0.015
Mof_C 	C 	0.0764	0.019	0.383	0.349
Mof_O 	O 	0.92637	0.7961	0.9332	-0.637
Mof_N 	N 	0.04515	0.6335	0.8331	-0.263
Mof_C 	C 	0.94057	0.7666	0.8743	0.614
Mof_O 	O 	0.93019	0.7879	0.8098	-0.591
Mof_C 	C 	0.97421	0.6998	0.8805	-0.27
Mof_O 	O 	0.11357	0.52812	0.8412	-0.5
Mof_C 	C 	0.01284	0.6896	0.8314	0.194
Mof_H 	H 	0.0169	0.7248	0.7936	-0.028
Mof_O 	O 	0.0684	0.4635	0.9212	-0.252
Mof_C 	C 	0.9683	0.6478	0.9335	0.152
Mof_H 	H 	0.943	0.6523	0.9692	0.003
Mof_C 	C 	0.0001	0.5874	0.9345	-0.14
Mof_H 	H 	0.9954	0.55	0.9699	0.101
Mof_C 	C 	0.0385	0.5818	0.8842	0.016
Mof_C 	C 	0.0764	0.519	0.883	0.348
Mof_O 	O 	0.42637	0.2961	0.9332	-0.642
Mof_N 	N 	0.54515	0.1335	0.8331	-0.263
Mof_C 	C 	0.44057	0.2666	0.8743	0.615
Mof_O 	O 	0.43019	0.2879	0.8098	-0.592
Mof_C 	C 	0.47421	0.1998	0.8805	-0.271
Mof_O 	O 	0.61357	0.02812	0.8412	-0.5
Mof_C 	C 	0.51284	0.1896	0.8314	0.194
Mof_H 	H 	0.5169	0.2248	0.7936	-0.028
Mof_O 	O 	0.5684	0.9635	0.9212	-0.247
Mof_C 	C 	0.4683	0.1478	0.9335	0.148
Mof_H 	H 	0.443	0.1523	0.9692	0.002
Mof_C 	C 	0.5001	0.0874	0.9345	-0.135
Mof_H 	H 	0.4954	0.05	0.9699	0.097
Mof_C 	C 	0.5385	0.0818	0.8842	0.015
Mof_C 	C 	0.5764	0.019	0.883	0.344
Mof_O 	O 	0.42637	0.7961	0.4332	-0.64
Mof_N 	N 	0.54515	0.6335	0.3331	-0.262
Mof_C 	C 	0.44057	0.7666	0.3743	0.614
Mof_O 	O 	0.43019	0.7879	0.3098	-0.592
Mof_C 	C 	0.47421	0.6998	0.3805	-0.27
Mof_O 	O 	0.61357	0.52812	0.3412	-0.501
Mof_C 	C 	0.51284	0.6896	0.3314	0.194
Mof_H 	H 	0.5169	0.7248	0.2936	-0.028
Mof_O 	O 	0.5684	0.4635	0.4212	-0.251
Mof_C 	C 	0.4683	0.6478	0.4335	0.147
Mof_H 	H 	0.443	0.6523	0.4692	0.003
Mof_C 	C 	0.5001	0.5874	0.4345	-0.133
Mof_H 	H 	0.4954	0.55	0.4699	0.097
Mof_C 	C 	0.5385	0.5818	0.3842	0.014
Mof_C 	C 	0.5764	0.519	0.383	0.349
Mof_O 	O 	0.82363	0.4539	0.4332	-0.64
Mof_N 	N 	0.70485	0.6165	0.3331	-0.262
Mof_C 	C 	0.80943	0.4834	0.3743	0.614
Mof_O 	O 	0.81981	0.4621	0.3098	-0.592
Mof_C 	C 	0.77579	0.5502	0.3805	-0.27
Mof_O 	O 	0.63643	0.72188	0.3412	-0.501
Mof_C 	C 	0.73716	0.5604	0.3314	0.194
Mof_H 	H 	0.7331	0.5252	0.2936	-0.028
Mof_O 	O 	0.6816	0.7865	0.4212	-0.252
Mof_C 	C 	0.7817	0.6022	0.4335	0.147
Mof_H 	H 	0.807	0.5977	0.4692	0.003
Mof_C 	C 	0.7499	0.6626	0.4345	-0.133
Mof_H 	H 	0.7546	0.7	0.4699	0.097
Mof_C 	C 	0.7115	0.6682	0.3842	0.014
Mof_C 	C 	0.6736	0.731	0.383	0.349
Mof_O 	O 	0.82363	0.9539	0.9332	-0.637
Mof_N 	N 	0.70485	0.1165	0.8331	-0.263
Mof_C 	C 	0.80943	0.9834	0.8743	0.616
Mof_O 	O 	0.81981	0.9621	0.8098	-0.592
Mof_C 	C 	0.77579	0.0502	0.8805	-0.273
Mof_O 	O 	0.63643	0.22188	0.8412	-0.5
Mof_C 	C 	0.73716	0.0604	0.8314	0.196
Mof_H 	H 	0.7331	0.0252	0.7936	-0.029
Mof_O 	O 	0.6816	0.2865	0.9212	-0.251
Mof_C 	C 	0.7817	0.1022	0.9335	0.149
Mof_H 	H 	0.807	0.0977	0.9692	0.002
Mof_C 	C 	0.7499	0.1626	0.9345	-0.134
Mof_H 	H 	0.7546	0.2	0.9699	0.097
Mof_C 	C 	0.7115	0.1682	0.8842	0.015
Mof_C 	C 	0.6736	0.231	0.883	0.349
Mof_O 	O 	0.32363	0.4539	0.9332	-0.641
Mof_N 	N 	0.20485	0.6165	0.8331	-0.262
Mof_C 	C 	0.30943	0.4834	0.8743	0.615
Mof_O 	O 	0.31981	0.4621	0.8098	-0.592
Mof_C 	C 	0.27579	0.5502	0.8805	-0.27
Mof_O 	O 	0.13643	0.72188	0.8412	-0.5
Mof_C 	C 	0.23716	0.5604	0.8314	0.194
Mof_H 	H 	0.2331	0.5252	0.7936	-0.028
Mof_O 	O 	0.1816	0.7865	0.9212	-0.25
Mof_C 	C 	0.2817	0.6022	0.9335	0.147
Mof_H 	H 	0.307	0.5977	0.9692	0.003
Mof_C 	C 	0.2499	0.6626	0.9345	-0.134
Mof_H 	H 	0.2546	0.7	0.9699	0.098
Mof_C 	C 	0.2115	0.6682	0.8842	0.015
Mof_C 	C 	0.1736	0.731	0.883	0.349
Mof_O 	O 	0.32363	0.9539	0.4332	-0.64
Mof_N 	N 	0.20485	0.1165	0.3331	-0.262
Mof_C 	C 	0.30943	0.9834	0.3743	0.613
Mof_O 	O 	0.31981	0.9621	0.3098	-0.592
Mof_C 	C 	0.27579	0.0502	0.3805	-0.269
Mof_O 	O 	0.13643	0.22188	0.3412	-0.501
Mof_C 	C 	0.23716	0.0604	0.3314	0.194
Mof_H 	H 	0.2331	0.0252	0.2936	-0.027
Mof_O 	O 	0.1816	0.2865	0.4212	-0.251
Mof_C 	C 	0.2817	0.1022	0.4335	0.146
Mof_H 	H 	0.307	0.0977	0.4692	0.003
Mof_C 	C 	0.2499	0.1626	0.4345	-0.133
Mof_H 	H 	0.2546	0.2	0.4699	0.097
Mof_C 	C 	0.2115	0.1682	0.3842	0.014
Mof_C 	C 	0.1736	0.231	0.383	0.349
Mof_O 	O 	0.82363	0.2961	0.3168	-0.64
Mof_N 	N 	0.70485	0.1335	0.4169	-0.262
Mof_C 	C 	0.80943	0.2666	0.3757	0.614
Mof_O 	O 	0.81981	0.2879	0.4402	-0.592
Mof_C 	C 	0.77579	0.1998	0.3695	-0.27
Mof_O 	O 	0.63643	0.02812	0.4088	-0.501
Mof_C 	C 	0.73716	0.1896	0.4186	0.194
Mof_H 	H 	0.7331	0.2248	0.4564	-0.028
Mof_O 	O 	0.6816	0.9635	0.3288	-0.253
Mof_C 	C 	0.7817	0.1478	0.3165	0.147
Mof_H 	H 	0.807	0.1523	0.2808	0.003
Mof_C 	C 	0.7499	0.0874	0.3155	-0.133
Mof_H 	H 	0.7546	0.05	0.2801	0.098
Mof_C 	C 	0.7115	0.0818	0.3658	0.014
Mof_C 	C 	0.6736	0.019	0.367	0.351
Mof_O 	O 	0.82363	0.7961	0.8168	-0.64
Mof_N 	N 	0.70485	0.6335	0.9169	-0.262
Mof_C 	C 	0.80943	0.7666	0.8757	0.613
Mof_O 	O 	0.81981	0.7879	0.9402	-0.588
Mof_C 	C 	0.77579	0.6998	0.8695	-0.269
Mof_O 	O 	0.63643	0.52812	0.9088	-0.501
Mof_C 	C 	0.73716	0.6896	0.9186	0.194
Mof_H 	H 	0.7331	0.7248	0.9564	-0.026
Mof_O 	O 	0.6816	0.4635	0.8288	-0.251
Mof_C 	C 	0.7817	0.6478	0.8165	0.146
Mof_H 	H 	0.807	0.6523	0.7808	0.004
Mof_C 	C 	0.7499	0.5874	0.8155	-0.133
Mof_H 	H 	0.7546	0.55	0.7801	0.097
Mof_C 	C 	0.7115	0.5818	0.8658	0.014
Mof_C 	C 	0.6736	0.519	0.867	0.35
Mof_O 	O 	0.32363	0.2961	0.8168	-0.641
Mof_N 	N 	0.20485	0.1335	0.9169	-0.262
Mof_C 	C 	0.30943	0.2666	0.8757	0.615
Mof_O 	O 	0.31981	0.2879	0.9402	-0.593
Mof_C 	C 	0.27579	0.1998	0.8695	-0.271
Mof_O 	O 	0.13643	0.02812	0.9088	-0.5
Mof_C 	C 	0.23716	0.1896	0.9186	0.194
Mof_H 	H 	0.2331	0.2248	0.9564	-0.028
Mof_O 	O 	0.1816	0.9635	0.8288	-0.248
Mof_C 	C 	0.2817	0.1478	0.8165	0.147
Mof_H 	H 	0.307	0.1523	0.7808	0.003
Mof_C 	C 	0.2499	0.0874	0.8155	-0.134
Mof_H 	H 	0.2546	0.05	0.7801	0.097
Mof_C 	C 	0.2115	0.0818	0.8658	0.015
Mof_C 	C 	0.1736	0.019	0.867	0.344
Mof_O 	O 	0.32363	0.7961	0.3168	-0.64
Mof_N 	N 	0.20485	0.6335	0.4169	-0.262
Mof_C 	C 	0.30943	0.7666	0.3757	0.614
Mof_O 	O 	0.31981	0.7879	0.4402	-0.592
Mof_C 	C 	0.27579	0.6998	0.3695	-0.27
Mof_O 	O 	0.13643	0.52812	0.4088	-0.501
Mof_C 	C 	0.23716	0.6896	0.4186	0.194
Mof_H 	H 	0.2331	0.7248	0.4564	-0.028
Mof_O 	O 	0.1816	0.4635	0.3288	-0.251
Mof_C 	C 	0.2817	0.6478	0.3165	0.147
Mof_H 	H 	0.307	0.6523	0.2808	0.003
Mof_C 	C 	0.2499	0.5874	0.3155	-0.133
Mof_H 	H 	0.2546	0.55	0.2801	0.097
Mof_C 	C 	0.2115	0.5818	0.3658	0.014
Mof_C 	C 	0.1736	0.519	0.367	0.349
Mof_O 	O 	0.92637	0.4539	0.3168	-0.64
Mof_N 	N 	0.04515	0.6165	0.4169	-0.262
Mof_C 	C 	0.94057	0.4834	0.3757	0.614
Mof_O 	O 	0.93019	0.4621	0.4402	-0.592
Mof_C 	C 	0.97421	0.5502	0.3695	-0.269
Mof_O 	O 	0.11357	0.72188	0.4088	-0.501
Mof_C 	C 	0.01284	0.5604	0.4186	0.194
Mof_H 	H 	0.0169	0.5252	0.4564	-0.028
Mof_O 	O 	0.0684	0.7865	0.3288	-0.252
Mof_C 	C 	0.9683	0.6022	0.3165	0.143
Mof_H 	H 	0.943	0.5977	0.2808	0.004
Mof_C 	C 	0.0001	0.6626	0.3155	-0.128
Mof_H 	H 	0.9954	0.7	0.2801	0.094
Mof_C 	C 	0.0385	0.6682	0.3658	0.012
Mof_C 	C 	0.0764	0.731	0.367	0.35
Mof_O 	O 	0.92637	0.9539	0.8168	-0.64
Mof_N 	N 	0.04515	0.1165	0.9169	-0.263
Mof_C 	C 	0.94057	0.9834	0.8757	0.616
Mof_O 	O 	0.93019	0.9621	0.9402	-0.588
Mof_C 	C 	0.97421	0.0502	0.8695	-0.273
Mof_O 	O 	0.11357	0.22188	0.9088	-0.5
Mof_C 	C 	0.01284	0.0604	0.9186	0.193
Mof_H 	H 	0.0169	0.0252	0.9564	-0.029
Mof_O 	O 	0.0684	0.2865	0.8288	-0.251
Mof_C 	C 	0.9683	0.1022	0.8165	0.154
Mof_H 	H 	0.943	0.0977	0.7808	0
Mof_C 	C 	0.0001	0.1626	0.8155	-0.143
Mof_H 	H 	0.9954	0.2	0.7801	0.101
Mof_C 	C 	0.0385	0.1682	0.8658	0.017
Mof_C 	C 	0.0764	0.231	0.867	0.348
Mof_O 	O 	0.42637	0.4539	0.8168	-0.641
Mof_N 	N 	0.54515	0.6165	0.9169	-0.263
Mof_C 	C 	0.44057	0.4834	0.8757	0.615
Mof_O 	O 	0.43019	0.4621	0.9402	-0.593
Mof_C 	C 	0.47421	0.5502	0.8695	-0.27
Mof_O 	O 	0.61357	0.72188	0.9088	-0.501
Mof_C 	C 	0.51284	0.5604	0.9186	0.195
Mof_H 	H 	0.5169	0.5252	0.9564	-0.028
Mof_O 	O 	0.5684	0.7865	0.8288	-0.251
Mof_C 	C 	0.4683	0.6022	0.8165	0.147
Mof_H 	H 	0.443	0.5977	0.7808	0.003
Mof_C 	C 	0.5001	0.6626	0.8155	-0.133
Mof_H 	H 	0.4954	0.7	0.7801	0.097
Mof_C 	C 	0.5385	0.6682	0.8658	0.014
Mof_C 	C 	0.5764	0.731	0.867	0.35
Mof_O 	O 	0.42637	0.9539	0.3168	-0.64
Mof_N 	N 	0.54515	0.1165	0.4169	-0.262
Mof_C 	C 	0.44057	0.9834	0.3757	0.612
Mof_O 	O 	0.43019	0.9621	0.4402	-0.592
Mof_C 	C 	0.47421	0.0502	0.3695	-0.268
Mof_O 	O 	0.61357	0.22188	0.4088	-0.501
Mof_C 	C 	0.51284	0.0604	0.4186	0.194
Mof_H 	H 	0.5169	0.0252	0.4564	-0.028
Mof_O 	O 	0.5684	0.2865	0.3288	-0.251
Mof_C 	C 	0.4683	0.1022	0.3165	0.146
Mof_H 	H 	0.443	0.0977	0.2808	0.004
Mof_C 	C 	0.5001	0.1626	0.3155	-0.132
Mof_H 	H 	0.4954	0.2	0.2801	0.097
Mof_C 	C 	0.5385	0.1682	0.3658	0.014
Mof_C 	C 	0.5764	0.231	0.367	0.349
Mof_O 	O 	0.07363	0.7039	0.5668	-0.64
Mof_N 	N 	0.95485	0.8665	0.6669	-0.263
Mof_C 	C 	0.05943	0.7334	0.6257	0.614
Mof_O 	O 	0.06981	0.7121	0.6902	-0.592
Mof_C 	C 	0.02579	0.8002	0.6195	-0.271
Mof_O 	O 	0.88643	0.97188	0.6588	-0.5
Mof_C 	C 	0.98716	0.8104	0.6686	0.195
Mof_H 	H 	0.9831	0.7752	0.7064	-0.028
Mof_O 	O 	0.9316	0.0365	0.5788	-0.252
Mof_C 	C 	0.0317	0.8522	0.5665	0.149
Mof_H 	H 	0.057	0.8477	0.5308	0.002
Mof_C 	C 	0.9999	0.9126	0.5655	-0.136
Mof_H 	H 	0.0046	0.95	0.5301	0.098
Mof_C 	C 	0.9615	0.9182	0.6158	0.015
Mof_C 	C 	0.9236	0.981	0.617	0.349
Mof_O 	O 	0.07363	0.2039	0.0668	-0.637
Mof_N 	N 	0.95485	0.3665	0.1669	-0.263
Mof_C 	C 	0.05943	0.2334	0.1257	0.614
Mof_O 	O 	0.06981	0.2121	0.1902	-0.591
Mof_C 	C 	0.02579	0.3002	0.1195	-0.27
Mof_O 	O 	0.88643	0.47188	0.1588	-0.5
Mof_C 	C 	0.98716	0.3104	0.1686	0.194
Mof_H 	H 	0.9831	0.2752	0.2064	-0.028
Mof_O 	O 	0.9316	0.5365	0.0788	-0.252
Mof_C 	C 	0.0317	0.3522	0.0665	0.152
Mof_H 	H 	0.057	0.3477	0.0308	0.003
Mof_C 	C 	0.9999	0.4126	0.0655	-0.14
Mof_H 	H 	0.0046	0.45	0.0301	0.101
Mof_C 	C 	0.9615	0.4182	0.1158	0.016
Mof_C 	C 	0.9236	0.481	0.117	0.348
Mof_O 	O 	0.57363	0.7039	0.0668	-0.642
Mof_N 	N 	0.45485	0.8665	0.1669	-0.263
Mof_C 	C 	0.55943	0.7334	0.1257	0.615
Mof_O 	O 	0.56981	0.7121	0.1902	-0.592
Mof_C 	C 	0.52579	0.8002	0.1195	-0.271
Mof_O 	O 	0.38643	0.97188	0.1588	-0.5
Mof_C 	C 	0.48716	0.8104	0.1686	0.194
Mof_H 	H 	0.4831	0.7752	0.2064	-0.028
Mof_O 	O 	0.4316	0.0365	0.0788	-0.247
Mof_C 	C 	0.5317	0.8522	0.0665	0.148
Mof_H 	H 	0.557	0.8477	0.0308	0.002
Mof_C 	C 	0.4999	0.9126	0.0655	-0.135
Mof_H 	H 	0.5046	0.95	0.0301	0.097
Mof_C 	C 	0.4615	0.9182	0.1158	0.015
Mof_C 	C 	0.4236	0.981	0.117	0.344
Mof_O 	O 	0.57363	0.2039	0.5668	-0.64
Mof_N 	N 	0.45485	0.3665	0.6669	-0.262
Mof_C 	C 	0.55943	0.2334	0.6257	0.614
Mof_O 	O 	0.56981	0.2121	0.6902	-0.592
Mof_C 	C 	0.52579	0.3002	0.6195	-0.27
Mof_O 	O 	0.38643	0.47188	0.6588	-0.501
Mof_C 	C 	0.48716	0.3104	0.6686	0.194
Mof_H 	H 	0.4831	0.2752	0.7064	-0.028
Mof_O 	O 	0.4316	0.5365	0.5788	-0.251
Mof_C 	C 	0.5317	0.3522	0.5665	0.147
Mof_H 	H 	0.557	0.3477	0.5308	0.003
Mof_C 	C 	0.4999	0.4126	0.5655	-0.133
Mof_H 	H 	0.5046	0.45	0.5301	0.097
Mof_C 	C 	0.4615	0.4182	0.6158	0.014
Mof_C 	C 	0.4236	0.481	0.617	0.349
Mof_O 	O 	0.17637	0.5461	0.5668	-0.64
Mof_N 	N 	0.29515	0.3835	0.6669	-0.262
Mof_C 	C 	0.19057	0.5166	0.6257	0.614
Mof_O 	O 	0.18019	0.5379	0.6902	-0.592
Mof_C 	C 	0.22421	0.4498	0.6195	-0.27
Mof_O 	O 	0.36357	0.27812	0.6588	-0.501
Mof_C 	C 	0.26284	0.4396	0.6686	0.194
Mof_H 	H 	0.2669	0.4748	0.7064	-0.028
Mof_O 	O 	0.3184	0.2135	0.5788	-0.252
Mof_C 	C 	0.2183	0.3978	0.5665	0.147
Mof_H 	H 	0.193	0.4023	0.5308	0.003
Mof_C 	C 	0.2501	0.3374	0.5655	-0.133
Mof_H 	H 	0.2454	0.3	0.5301	0.097
Mof_C 	C 	0.2885	0.3318	0.6158	0.014
Mof_C 	C 	0.3264	0.269	0.617	0.349
Mof_O 	O 	0.17637	0.0461	0.0668	-0.637
Mof_N 	N 	0.29515	0.8835	0.1669	-0.263
Mof_C 	C 	0.19057	0.0166	0.1257	0.616
Mof_O 	O 	0.18019	0.0379	0.1902	-0.592
Mof_C 	C 	0.22421	0.9498	0.1195	-0.273
Mof_O 	O 	0.36357	0.77812	0.1588	-0.5
Mof_C 	C 	0.26284	0.9396	0.1686	0.196
Mof_H 	H 	0.2669	0.9748	0.2064	-0.029
Mof_O 	O 	0.3184	0.7135	0.0788	-0.251
Mof_C 	C 	0.2183	0.8978	0.0665	0.149
Mof_H 	H 	0.193	0.9023	0.0308	0.002
Mof_C 	C 	0.2501	0.8374	0.0655	-0.134
Mof_H 	H 	0.2454	0.8	0.0301	0.098
Mof_C 	C 	0.2885	0.8318	0.1158	0.015
Mof_C 	C 	0.3264	0.769	0.117	0.349
Mof_O 	O 	0.67637	0.5461	0.0668	-0.642
Mof_N 	N 	0.79515	0.3835	0.1669	-0.262
Mof_C 	C 	0.69057	0.5166	0.1257	0.615
Mof_O 	O 	0.68019	0.5379	0.1902	-0.592
Mof_C 	C 	0.72421	0.4498	0.1195	-0.27
Mof_O 	O 	0.86357	0.27812	0.1588	-0.5
Mof_C 	C 	0.76284	0.4396	0.1686	0.194
Mof_H 	H 	0.7669	0.4748	0.2064	-0.028
Mof_O 	O 	0.8184	0.2135	0.0788	-0.25
Mof_C 	C 	0.7183	0.3978	0.0665	0.147
Mof_H 	H 	0.693	0.4023	0.0308	0.003
Mof_C 	C 	0.7501	0.3374	0.0655	-0.134
Mof_H 	H 	0.7454	0.3	0.0301	0.098
Mof_C 	C 	0.7885	0.3318	0.1158	0.015
Mof_C 	C 	0.8264	0.269	0.117	0.349
Mof_O 	O 	0.67637	0.0461	0.5668	-0.64
Mof_N 	N 	0.79515	0.8835	0.6669	-0.262
Mof_C 	C 	0.69057	0.0166	0.6257	0.613
Mof_O 	O 	0.68019	0.0379	0.6902	-0.592
Mof_C 	C 	0.72421	0.9498	0.6195	-0.269
Mof_O 	O 	0.86357	0.77812	0.6588	-0.501
Mof_C 	C 	0.76284	0.9396	0.6686	0.194
Mof_H 	H 	0.7669	0.9748	0.7064	-0.027
Mof_O 	O 	0.8184	0.7135	0.5788	-0.251
Mof_C 	C 	0.7183	0.8978	0.5665	0.146
Mof_H 	H 	0.693	0.9023	0.5308	0.003
Mof_C 	C 	0.7501	0.8374	0.5655	-0.133
Mof_H 	H 	0.7454	0.8	0.5301	0.097
Mof_C 	C 	0.7885	0.8318	0.6158	0.014
Mof_C 	C 	0.8264	0.769	0.617	0.349
Mof_O 	O 	0.17637	0.7039	0.6832	-0.64
Mof_N 	N 	0.29515	0.8665	0.5831	-0.262
Mof_C 	C 	0.19057	0.7334	0.6243	0.614
Mof_O 	O 	0.18019	0.7121	0.5598	-0.592
Mof_C 	C 	0.22421	0.8002	0.6305	-0.27
Mof_O 	O 	0.36357	0.97188	0.5912	-0.501
Mof_C 	C 	0.26284	0.8104	0.5814	0.194
Mof_H 	H 	0.2669	0.7752	0.5436	-0.028
Mof_O 	O 	0.3184	0.0365	0.6712	-0.253
Mof_C 	C 	0.2183	0.8522	0.6835	0.147
Mof_H 	H 	0.193	0.8477	0.7192	0.003
Mof_C 	C 	0.2501	0.9126	0.6845	-0.133
Mof_H 	H 	0.2454	0.95	0.7199	0.098
Mof_C 	C 	0.2885	0.9182	0.6342	0.014
Mof_C 	C 	0.3264	0.981	0.633	0.351
Mof_O 	O 	0.17637	0.2039	0.1832	-0.64
Mof_N 	N 	0.29515	0.3665	0.0831	-0.262
Mof_C 	C 	0.19057	0.2334	0.1243	0.613
Mof_O 	O 	0.18019	0.2121	0.0598	-0.588
Mof_C 	C 	0.22421	0.3002	0.1305	-0.269
Mof_O 	O 	0.36357	0.47188	0.0912	-0.501
Mof_C 	C 	0.26284	0.3104	0.0814	0.194
Mof_H 	H 	0.2669	0.2752	0.0436	-0.026
Mof_O 	O 	0.3184	0.5365	0.1712	-0.251
Mof_C 	C 	0.2183	0.3522	0.1835	0.146
Mof_H 	H 	0.193	0.3477	0.2192	0.004
Mof_C 	C 	0.2501	0.4126	0.1845	-0.133
Mof_H 	H 	0.2454	0.45	0.2199	0.097
Mof_C 	C 	0.2885	0.4182	0.1342	0.014
Mof_C 	C 	0.3264	0.481	0.133	0.35
Mof_O 	O 	0.67637	0.7039	0.1832	-0.641
Mof_N 	N 	0.79515	0.8665	0.0831	-0.262
Mof_C 	C 	0.69057	0.7334	0.1243	0.615
Mof_O 	O 	0.68019	0.7121	0.0598	-0.593
Mof_C 	C 	0.72421	0.8002	0.1305	-0.271
Mof_O 	O 	0.86357	0.97188	0.0912	-0.5
Mof_C 	C 	0.76284	0.8104	0.0814	0.194
Mof_H 	H 	0.7669	0.7752	0.0436	-0.028
Mof_O 	O 	0.8184	0.0365	0.1712	-0.248
Mof_C 	C 	0.7183	0.8522	0.1835	0.147
Mof_H 	H 	0.693	0.8477	0.2192	0.003
Mof_C 	C 	0.7501	0.9126	0.1845	-0.134
Mof_H 	H 	0.7454	0.95	0.2199	0.097
Mof_C 	C 	0.7885	0.9182	0.1342	0.015
Mof_C 	C 	0.8264	0.981	0.133	0.344
Mof_O 	O 	0.67637	0.2039	0.6832	-0.64
Mof_N 	N 	0.79515	0.3665	0.5831	-0.262
Mof_C 	C 	0.69057	0.2334	0.6243	0.614
Mof_O 	O 	0.68019	0.2121	0.5598	-0.592
Mof_C 	C 	0.72421	0.3002	0.6305	-0.27
Mof_O 	O 	0.86357	0.47188	0.5912	-0.501
Mof_C 	C 	0.76284	0.3104	0.5814	0.194
Mof_H 	H 	0.7669	0.2752	0.5436	-0.028
Mof_O 	O 	0.8184	0.5365	0.6712	-0.251
Mof_C 	C 	0.7183	0.3522	0.6835	0.147
Mof_H 	H 	0.693	0.3477	0.7192	0.003
Mof_C 	C 	0.7501	0.4126	0.6845	-0.133
Mof_H 	H 	0.7454	0.45	0.7199	0.097
Mof_C 	C 	0.7885	0.4182	0.6342	0.014
Mof_C 	C 	0.8264	0.481	0.633	0.349
Mof_O 	O 	0.07363	0.5461	0.6832	-0.64
Mof_N 	N 	0.95485	0.3835	0.5831	-0.262
Mof_C 	C 	0.05943	0.5166	0.6243	0.614
Mof_O 	O 	0.06981	0.5379	0.5598	-0.592
Mof_C 	C 	0.02579	0.4498	0.6305	-0.269
Mof_O 	O 	0.88643	0.27812	0.5912	-0.501
Mof_C 	C 	0.98716	0.4396	0.5814	0.194
Mof_H 	H 	0.9831	0.4748	0.5436	-0.028
Mof_O 	O 	0.9316	0.2135	0.6712	-0.252
Mof_C 	C 	0.0317	0.3978	0.6835	0.143
Mof_H 	H 	0.057	0.4023	0.7192	0.004
Mof_C 	C 	0.9999	0.3374	0.6845	-0.128
Mof_H 	H 	0.0046	0.3	0.7199	0.094
Mof_C 	C 	0.9615	0.3318	0.6342	0.012
Mof_C 	C 	0.9236	0.269	0.633	0.35
Mof_O 	O 	0.07363	0.0461	0.1832	-0.64
Mof_N 	N 	0.95485	0.8835	0.0831	-0.263
Mof_C 	C 	0.05943	0.0166	0.1243	0.616
Mof_O 	O 	0.06981	0.0379	0.0598	-0.588
Mof_C 	C 	0.02579	0.9498	0.1305	-0.273
Mof_O 	O 	0.88643	0.77812	0.0912	-0.5
Mof_C 	C 	0.98716	0.9396	0.0814	0.193
Mof_H 	H 	0.9831	0.9748	0.0436	-0.029
Mof_O 	O 	0.9316	0.7135	0.1712	-0.251
Mof_C 	C 	0.0317	0.8978	0.1835	0.154
Mof_H 	H 	0.057	0.9023	0.2192	0
Mof_C 	C 	0.9999	0.8374	0.1845	-0.143
Mof_H 	H 	0.0046	0.8	0.2199	0.101
Mof_C 	C 	0.9615	0.8318	0.1342	0.017
Mof_C 	C 	0.9236	0.769	0.133	0.348
Mof_O 	O 	0.57363	0.5461	0.1832	-0.641
Mof_N 	N 	0.45485	0.3835	0.0831	-0.263
Mof_C 	C 	0.55943	0.5166	0.1243	0.615
Mof_O 	O 	0.56981	0.5379	0.0598	-0.593
Mof_C 	C 	0.52579	0.4498	0.1305	-0.27
Mof_O 	O 	0.38643	0.27812	0.0912	-0.501
Mof_C 	C 	0.48716	0.4396	0.0814	0.195
Mof_H 	H 	0.4831	0.4748	0.0436	-0.028
Mof_O 	O 	0.4316	0.2135	0.1712	-0.251
Mof_C 	C 	0.5317	0.3978	0.1835	0.147
Mof_H 	H 	0.557	0.4023	0.2192	0.003
Mof_C 	C 	0.4999	0.3374	0.1845	-0.133
Mof_H 	H 	0.5046	0.3	0.2199	0.097
Mof_C 	C 	0.4615	0.3318	0.1342	0.014
Mof_C 	C 	0.4236	0.269	0.133	0.35
Mof_O 	O 	0.57363	0.0461	0.6832	-0.64
Mof_N 	N 	0.45485	0.8835	0.5831	-0.262
Mof_C 	C 	0.55943	0.0166	0.6243	0.612
Mof_O 	O 	0.56981	0.0379	0.5598	-0.592
Mof_C 	C 	0.52579	0.9498	0.6305	-0.268
Mof_O 	O 	0.38643	0.77812	0.5912	-0.501
Mof_C 	C 	0.48716	0.9396	0.5814	0.194
Mof_H 	H 	0.4831	0.9748	0.5436	-0.028
Mof_O 	O 	0.4316	0.7135	0.6712	-0.251
Mof_C 	C 	0.5317	0.8978	0.6835	0.146
Mof_H 	H 	0.557	0.9023	0.7192	0.004
Mof_C 	C 	0.4999	0.8374	0.6845	-0.132
Mof_H 	H 	0.5046	0.8	0.7199	0.097
Mof_C 	C 	0.4615	0.8318	0.6342	0.014
Mof_C 	C 	0.4236	0.769	0.633	0.349
Mof_Eu	Eu	0.875	0.375	0.50205	2.517
Mof_Eu	Eu	0.875	0.875	0.00205	2.505
Mof_Eu	Eu	0.375	0.375	0.00205	2.525
Mof_Eu	Eu	0.375	0.875	0.50205	2.517
Mof_Eu	Eu	0.875	0.375	0.24795	2.517
Mof_Eu	Eu	0.875	0.875	0.74796	2.518
Mof_Eu	Eu	0.375	0.375	0.74796	2.517
Mof_Eu	Eu	0.375	0.875	0.24795	2.516
Mof_Eu	Eu	0.125	0.625	0.49795	2.517
Mof_Eu	Eu	0.125	0.125	0.99796	2.505
Mof_Eu	Eu	0.625	0.625	0.99796	2.524
Mof_Eu	Eu	0.625	0.125	0.49795	2.517
Mof_Eu	Eu	0.125	0.625	0.75205	2.517
Mof_Eu	Eu	0.125	0.125	0.25205	2.518
Mof_Eu	Eu	0.625	0.625	0.25205	2.517
Mof_Eu	Eu	0.625	0.125	0.75205	2.516
_end
