data_functionalizedCrystal
_audit_creation_method	'EQeq! by Chris Wilmer'
_symmetry_space_group_name_H-M	'P1'
_symmetry_Int_Tables_number	1
_symmetry_cell_setting	triclinic
loop_
_symmetry_equiv_pos_as_xyz
  x,y,z
_cell_length_a	37.1295
_cell_length_b	37.1295
_cell_length_c	30.052
_cell_angle_alpha	90
_cell_angle_beta	90
_cell_angle_gamma	120
loop_
_atom_site_label
_atom_site_type_symbol
_atom_site_fract_x
_atom_site_fract_y
_atom_site_fract_z
_atom_site_charge
Mof_C 	C 	0.02103	0.97886	0.24928	-0.047
Mof_C 	C 	0.97707	0.95748	0.24667	-0.005
Mof_C 	C 	0.95449	0.97875	0.24701	-0.043
Mof_C 	C 	0.97671	0.02266	0.24824	-0.007
Mof_C 	C 	0.02082	0.0458	0.2502	-0.047
Mof_C 	C 	0.04213	0.02292	0.25143	-0
Mof_H 	H 	0.95989	0.92384	0.24728	0.049
Mof_H 	H 	0.959	0.03852	0.24888	0.041
Mof_H 	H 	0.07567	0.03947	0.25004	0.04
Mof_C 	C 	0.04387	0.02348	0.74909	-0.06
Mof_C 	C 	0.02127	0.04502	0.74753	0.011
Mof_C 	C 	0.9773	0.0238	0.74906	-0.054
Mof_C 	C 	0.95565	0.97992	0.75099	0.004
Mof_C 	C 	0.97694	0.95742	0.75133	-0.055
Mof_C 	C 	0.02077	0.97942	0.75089	0.01
Mof_H 	H 	0.03782	0.07865	0.74797	0.044
Mof_H 	H 	0.92197	0.96298	0.75085	0.043
Mof_H 	H 	0.03663	0.96165	0.75055	0.042
Mof_C 	C 	0.30905	0.62384	0.25249	-0.047
Mof_C 	C 	0.35279	0.64614	0.25381	-0.001
Mof_C 	C 	0.37498	0.68989	0.25504	-0.048
Mof_C 	C 	0.35264	0.71136	0.25517	0
Mof_C 	C 	0.30878	0.6899	0.25357	-0.045
Mof_C 	C 	0.28742	0.64603	0.25219	-0
Mof_H 	H 	0.36966	0.62934	0.25382	0.043
Mof_H 	H 	0.36958	0.74495	0.25762	0.048
Mof_H 	H 	0.25385	0.62899	0.24965	0.048
Mof_C 	C 	0.62045	0.31249	0.7537	-0.046
Mof_C 	C 	0.64297	0.29119	0.75414	0.001
Mof_C 	C 	0.68672	0.31281	0.75357	-0.048
Mof_C 	C 	0.70815	0.35656	0.75284	-0.002
Mof_C 	C 	0.68664	0.37888	0.75287	-0.046
Mof_C 	C 	0.64274	0.35639	0.75321	-0
Mof_H 	H 	0.62646	0.25757	0.75605	0.05
Mof_H 	H 	0.74177	0.37321	0.75103	0.041
Mof_H 	H 	0.62584	0.37312	0.75306	0.046
Mof_C 	C 	0.38143	0.27174	0.03615	-0.059
Mof_C 	C 	0.35382	0.27824	0.06297	0.005
Mof_C 	C 	0.36439	0.29411	0.10662	-0.05
Mof_C 	C 	0.40294	0.3026	0.12434	0
Mof_C 	C 	0.43115	0.29616	0.099	-0.047
Mof_C 	C 	0.42023	0.28115	0.05504	0.005
Mof_H 	H 	0.32439	0.27254	0.04955	0.043
Mof_H 	H 	0.41106	0.31441	0.15799	0.043
Mof_H 	H 	0.44186	0.27569	0.03618	0.045
Mof_C 	C 	0.38867	0.11034	0.4681	-0.047
Mof_C 	C 	0.36043	0.07549	0.44325	-0
Mof_C 	C 	0.36953	0.06885	0.39966	-0.047
Mof_C 	C 	0.40792	0.09809	0.38079	0.004
Mof_C 	C 	0.43725	0.13452	0.40403	-0.052
Mof_C 	C 	0.42705	0.13939	0.44848	0.001
Mof_H 	H 	0.33139	0.05277	0.45845	0.046
Mof_H 	H 	0.41463	0.09158	0.34778	0.047
Mof_H 	H 	0.4475	0.16688	0.46743	0.039
Mof_C 	C 	0.7276	0.10903	0.03924	-0.049
Mof_C 	C 	0.71843	0.07345	0.0643	0.001
Mof_C 	C 	0.70182	0.06774	0.10757	-0.049
Mof_C 	C 	0.69355	0.09797	0.12546	0.006
Mof_C 	C 	0.70214	0.13422	0.1013	-0.055
Mof_C 	C 	0.71944	0.13908	0.05814	0.004
Mof_H 	H 	0.72557	0.05073	0.05067	0.045
Mof_H 	H 	0.68152	0.09344	0.15902	0.046
Mof_H 	H 	0.72477	0.16533	0.0378	0.042
Mof_C 	C 	0.2785	0.38575	0.53407	-0.046
Mof_C 	C 	0.2869	0.42385	0.55336	-0.001
Mof_C 	C 	0.30337	0.43511	0.59671	-0.046
Mof_C 	C 	0.31176	0.4075	0.62087	0.001
Mof_C 	C 	0.30321	0.369	0.60261	-0.046
Mof_C 	C 	0.28711	0.35885	0.55899	-0
Mof_H 	H 	0.28102	0.44514	0.53433	0.038
Mof_H 	H 	0.32313	0.41514	0.6547	0.049
Mof_H 	H 	0.28037	0.32936	0.54469	0.046
Mof_C 	C 	0.10882	0.7252	0.53582	-0.047
Mof_C 	C 	0.13849	0.71657	0.55473	0.003
Mof_C 	C 	0.13344	0.69959	0.59818	-0.053
Mof_C 	C 	0.09701	0.69118	0.62211	0.003
Mof_C 	C 	0.06745	0.7005	0.60422	-0.045
Mof_C 	C 	0.07375	0.71724	0.56101	0
Mof_H 	H 	0.16501	0.72228	0.53466	0.043
Mof_H 	H 	0.09266	0.67999	0.65601	0.045
Mof_H 	H 	0.05063	0.72328	0.54636	0.05
Mof_C 	C 	0.10981	0.38719	0.9653	-0.052
Mof_C 	C 	0.07416	0.35998	0.9402	0.005
Mof_C 	C 	0.06844	0.36943	0.89634	-0.048
Mof_C 	C 	0.09854	0.40714	0.8773	0.006
Mof_C 	C 	0.13477	0.43589	0.90071	-0.053
Mof_C 	C 	0.13944	0.42533	0.94492	0.007
Mof_H 	H 	0.05161	0.32994	0.95343	0.045
Mof_H 	H 	0.09201	0.41456	0.84459	0.05
Mof_H 	H 	0.16652	0.44687	0.96355	0.042
Mof_C 	C 	0.88974	0.27615	0.46407	-0.045
Mof_C 	C 	0.86007	0.2846	0.44434	-0
Mof_C 	C 	0.86432	0.29924	0.39989	-0.052
Mof_C 	C 	0.90033	0.30613	0.37616	0.002
Mof_C 	C 	0.93033	0.29815	0.39503	-0.044
Mof_C 	C 	0.92472	0.2833	0.439	-0.001
Mof_H 	H 	0.83298	0.27824	0.46363	0.039
Mof_H 	H 	0.90679	0.31984	0.34335	0.049
Mof_H 	H 	0.94709	0.27597	0.45325	0.049
Mof_C 	C 	0.7249	0.61385	0.46501	-0.045
Mof_C 	C 	0.71686	0.57573	0.44582	-0.002
Mof_C 	C 	0.70246	0.56536	0.40149	-0.044
Mof_C 	C 	0.69534	0.59373	0.37693	-0.004
Mof_C 	C 	0.70277	0.6317	0.39539	-0.046
Mof_C 	C 	0.7177	0.6414	0.43936	-0.001
Mof_H 	H 	0.72322	0.55484	0.46499	0.046
Mof_H 	H 	0.68288	0.58586	0.34352	0.041
Mof_H 	H 	0.72362	0.67059	0.45383	0.048
Mof_C 	C 	0.89067	0.6156	0.03303	-0.057
Mof_C 	C 	0.86173	0.57671	0.05202	0.006
Mof_C 	C 	0.86636	0.56587	0.09584	-0.046
Mof_C 	C 	0.90133	0.59418	0.12082	0.003
Mof_C 	C 	0.93067	0.63318	0.10322	-0.049
Mof_C 	C 	0.92483	0.64343	0.0596	0.006
Mof_H 	H 	0.83445	0.55501	0.03347	0.045
Mof_H 	H 	0.90483	0.5865	0.15472	0.048
Mof_H 	H 	0.94857	0.67258	0.04566	0.042
Mof_C 	C 	0.61716	0.89153	0.53772	-0.054
Mof_C 	C 	0.57899	0.8618	0.55756	0.004
Mof_C 	C 	0.56769	0.86691	0.60085	-0.049
Mof_C 	C 	0.59512	0.90264	0.62509	0.003
Mof_C 	C 	0.63307	0.93313	0.6066	-0.048
Mof_C 	C 	0.64352	0.92754	0.56291	0.004
Mof_H 	H 	0.55653	0.83515	0.53876	0.041
Mof_H 	H 	0.58694	0.90674	0.65856	0.05
Mof_H 	H 	0.67355	0.95043	0.54997	0.043
Mof_C 	C 	0.27775	0.8895	0.96788	-0.044
Mof_C 	C 	0.28695	0.86036	0.94828	0.002
Mof_C 	C 	0.30227	0.86534	0.90394	-0.051
Mof_C 	C 	0.30982	0.90196	0.88081	0.001
Mof_C 	C 	0.30083	0.9313	0.8997	-0.047
Mof_C 	C 	0.28481	0.92457	0.94316	-0
Mof_H 	H 	0.27959	0.83272	0.96711	0.044
Mof_H 	H 	0.32326	0.90851	0.8479	0.042
Mof_H 	H 	0.27859	0.94735	0.95837	0.049
Mof_C 	C 	0.60872	0.71765	0.96995	-0.05
Mof_C 	C 	0.57098	0.70944	0.94897	0.004
Mof_C 	C 	0.56094	0.69376	0.90514	-0.043
Mof_C 	C 	0.5893	0.68578	0.88194	0
Mof_C 	C 	0.62713	0.6938	0.90129	-0.044
Mof_C 	C 	0.63602	0.70898	0.94531	0.003
Mof_H 	H 	0.54873	0.71475	0.96663	0.047
Mof_H 	H 	0.58232	0.674	0.84823	0.047
Mof_H 	H 	0.66553	0.71573	0.95934	0.047
Mof_Zn	Zn	0.71483	0.33761	0.22623	1.255
Mof_Zn	Zn	0.66675	0.33261	0.30988	1.246
Mof_Zn	Zn	0.66151	0.37613	0.22662	1.255
Mof_Zn	Zn	0.62292	0.28397	0.22728	1.256
Mof_O 	O 	0.66649	0.33262	0.24785	-1.02
Mof_O 	O 	0.74581	0.33488	0.27008	-0.491
Mof_O 	O 	0.67271	0.38168	0.3323	-0.475
Mof_O 	O 	0.70412	0.41078	0.19075	-0.478
Mof_O 	O 	0.71026	0.32705	0.33194	-0.473
Mof_O 	O 	0.74678	0.38565	0.19575	-0.485
Mof_O 	O 	0.66506	0.41015	0.27078	-0.498
Mof_O 	O 	0.58805	0.29184	0.19197	-0.484
Mof_O 	O 	0.61795	0.2893	0.33299	-0.47
Mof_O 	O 	0.613	0.3597	0.19666	-0.482
Mof_O 	O 	0.58951	0.2533	0.27164	-0.488
Mof_O 	O 	0.63898	0.25176	0.19726	-0.481
Mof_O 	O 	0.7067	0.2948	0.19084	-0.49
Mof_C 	C 	0.7413	0.32844	0.31177	0.512
Mof_C 	C 	0.6718	0.4117	0.31242	0.512
Mof_C 	C 	0.73899	0.41356	0.18218	0.514
Mof_C 	C 	0.58509	0.32383	0.1834	0.515
Mof_C 	C 	0.58807	0.25804	0.31336	0.509
Mof_C 	C 	0.67461	0.25968	0.18328	0.524
Mof_Zn	Zn	0.37642	0.66206	0.72759	1.253
Mof_Zn	Zn	0.28445	0.6231	0.72664	1.256
Mof_Zn	Zn	0.33224	0.66643	0.81034	1.246
Mof_Zn	Zn	0.33729	0.71514	0.72707	1.255
Mof_O 	O 	0.33259	0.66672	0.74827	-1.019
Mof_O 	O 	0.36089	0.61435	0.69685	-0.504
Mof_O 	O 	0.25348	0.58943	0.77045	-0.487
Mof_O 	O 	0.38064	0.67101	0.83328	-0.474
Mof_O 	O 	0.29302	0.58853	0.69138	-0.481
Mof_O 	O 	0.4097	0.66441	0.77179	-0.507
Mof_O 	O 	0.28847	0.61765	0.83245	-0.471
Mof_O 	O 	0.33467	0.74594	0.77143	-0.486
Mof_O 	O 	0.25222	0.63897	0.69629	-0.482
Mof_O 	O 	0.32727	0.71015	0.833	-0.47
Mof_O 	O 	0.29435	0.70699	0.69154	-0.482
Mof_O 	O 	0.38551	0.74729	0.69684	-0.48
Mof_O 	O 	0.41129	0.70509	0.69291	-0.497
Mof_C 	C 	0.32541	0.58618	0.68313	0.518
Mof_C 	C 	0.25766	0.58781	0.81223	0.514
Mof_C 	C 	0.41065	0.66992	0.81359	0.518
Mof_C 	C 	0.32872	0.74139	0.81321	0.51
Mof_C 	C 	0.25966	0.67464	0.68302	0.524
Mof_C 	C 	0.41384	0.73978	0.68407	0.524
Mof_Zn	Zn	0.16462	0.36778	0.29307	1.259
Mof_Zn	Zn	0.1863	0.30171	0.2731	1.25
Mof_Zn	Zn	0.1139	0.30253	0.22626	1.246
Mof_Zn	Zn	0.2025	0.36834	0.20765	1.259
Mof_O 	O 	0.1665	0.33448	0.24996	-1.024
Mof_O 	O 	0.18872	0.36497	0.343	-0.499
Mof_O 	O 	0.14656	0.24693	0.2708	-0.484
Mof_O 	O 	0.07417	0.30589	0.25937	-0.492
Mof_O 	O 	0.20484	0.31595	0.33094	-0.471
Mof_O 	O 	0.11278	0.35337	0.30921	-0.481
Mof_O 	O 	0.09785	0.24732	0.22827	-0.493
Mof_O 	O 	0.17612	0.36607	0.15751	-0.495
Mof_O 	O 	0.22922	0.30474	0.24032	-0.481
Mof_O 	O 	0.11055	0.31769	0.16821	-0.48
Mof_O 	O 	0.24018	0.35388	0.19178	-0.481
Mof_O 	O 	0.22979	0.42279	0.22259	-0.486
Mof_O 	O 	0.19121	0.42216	0.27867	-0.491
Mof_C 	C 	0.20439	0.34338	0.35632	0.52
Mof_C 	C 	0.11221	0.22741	0.24961	0.501
Mof_C 	C 	0.07728	0.32692	0.29421	0.519
Mof_C 	C 	0.13905	0.34526	0.14339	0.515
Mof_C 	C 	0.24824	0.32655	0.20633	0.517
Mof_C 	C 	0.22014	0.44218	0.25068	0.512
Mof_Zn	Zn	0.29954	0.15957	0.70353	1.253
Mof_Zn	Zn	0.3652	0.14332	0.74022	1.254
Mof_Zn	Zn	0.36438	0.22127	0.76542	1.255
Mof_Zn	Zn	0.298	0.13863	0.79976	1.254
Mof_O 	O 	0.33178	0.16567	0.75224	-1.017
Mof_O 	O 	0.315	0.14165	0.65446	-0.502
Mof_O 	O 	0.4196	0.18042	0.74929	-0.477
Mof_O 	O 	0.35136	0.25467	0.73242	-0.48
Mof_O 	O 	0.36381	0.1304	0.68193	-0.481
Mof_O 	O 	0.30423	0.20805	0.68713	-0.505
Mof_O 	O 	0.41897	0.23938	0.7577	-0.482
Mof_O 	O 	0.31154	0.17119	0.84939	-0.498
Mof_O 	O 	0.35163	0.09666	0.77324	-0.475
Mof_O 	O 	0.36133	0.23163	0.82358	-0.485
Mof_O 	O 	0.30243	0.09463	0.8164	-0.496
Mof_O 	O 	0.24309	0.11684	0.7871	-0.495
Mof_O 	O 	0.24417	0.1264	0.7141	-0.496
Mof_C 	C 	0.34331	0.13216	0.64887	0.517
Mof_C 	C 	0.4388	0.21981	0.75365	0.532
Mof_C 	C 	0.32545	0.24537	0.70058	0.523
Mof_C 	C 	0.33973	0.20887	0.85583	0.531
Mof_C 	C 	0.32459	0.07921	0.80399	0.52
Mof_C 	C 	0.22411	0.11198	0.7503	0.538
Mof_Zn	Zn	0.13914	0.84166	0.20307	1.252
Mof_Zn	Zn	0.14213	0.77941	0.26397	1.254
Mof_Zn	Zn	0.22097	0.85749	0.23964	1.253
Mof_Zn	Zn	0.15876	0.86194	0.29943	1.253
Mof_O 	O 	0.16524	0.83515	0.25154	-1.02
Mof_O 	O 	0.09469	0.79347	0.18674	-0.504
Mof_O 	O 	0.17864	0.76126	0.25554	-0.482
Mof_O 	O 	0.2324	0.87014	0.18138	-0.484
Mof_O 	O 	0.09531	0.74639	0.23119	-0.477
Mof_O 	O 	0.17245	0.85923	0.15389	-0.503
Mof_O 	O 	0.23827	0.8205	0.24898	-0.483
Mof_O 	O 	0.20722	0.90596	0.31619	-0.498
Mof_O 	O 	0.12887	0.76864	0.3221	-0.481
Mof_O 	O 	0.25419	0.9042	0.27252	-0.478
Mof_O 	O 	0.14012	0.82896	0.34878	-0.495
Mof_O 	O 	0.12554	0.8838	0.2873	-0.494
Mof_O 	O 	0.11774	0.87545	0.21408	-0.497
Mof_C 	C 	0.07841	0.75604	0.19992	0.521
Mof_C 	C 	0.21813	0.78104	0.25239	0.523
Mof_C 	C 	0.21016	0.86838	0.1483	0.516
Mof_C 	C 	0.24474	0.9215	0.30354	0.518
Mof_C 	C 	0.1304	0.79115	0.35479	0.52
Mof_C 	C 	0.11188	0.88939	0.25053	0.536
Mof_Zn	Zn	0.63026	0.83331	0.21057	1.258
Mof_Zn	Zn	0.69629	0.81098	0.22856	1.25
Mof_Zn	Zn	0.69703	0.88409	0.27565	1.25
Mof_Zn	Zn	0.63116	0.79603	0.29569	1.259
Mof_O 	O 	0.66433	0.83139	0.25264	-1.024
Mof_O 	O 	0.63113	0.80793	0.16081	-0.496
Mof_O 	O 	0.7514	0.8507	0.22929	-0.477
Mof_O 	O 	0.69346	0.92377	0.24285	-0.486
Mof_O 	O 	0.6802	0.79162	0.17102	-0.467
Mof_O 	O 	0.64505	0.88513	0.19384	-0.496
Mof_O 	O 	0.75187	0.89957	0.27231	-0.484
Mof_O 	O 	0.63479	0.82306	0.34579	-0.497
Mof_O 	O 	0.69356	0.76815	0.26164	-0.474
Mof_O 	O 	0.68347	0.88831	0.33398	-0.467
Mof_O 	O 	0.64547	0.75821	0.31118	-0.483
Mof_O 	O 	0.57643	0.76883	0.28192	-0.486
Mof_O 	O 	0.57632	0.8078	0.22667	-0.494
Mof_C 	C 	0.65191	0.79164	0.14667	0.517
Mof_C 	C 	0.77135	0.88515	0.25033	0.497
Mof_C 	C 	0.67195	0.92063	0.20843	0.521
Mof_C 	C 	0.65631	0.86023	0.35946	0.51
Mof_C 	C 	0.67223	0.74958	0.29611	0.516
Mof_C 	C 	0.55666	0.77881	0.25468	0.518
Mof_Zn	Zn	0.79713	0.16771	0.70852	1.259
Mof_Zn	Zn	0.81228	0.11626	0.77419	1.249
Mof_Zn	Zn	0.88523	0.18996	0.72816	1.249
Mof_Zn	Zn	0.83388	0.20383	0.79535	1.259
Mof_O 	O 	0.8324	0.16921	0.75154	-1.021
Mof_O 	O 	0.75877	0.11588	0.69306	-0.483
Mof_O 	O 	0.85149	0.10061	0.77063	-0.485
Mof_O 	O 	0.88908	0.20809	0.66992	-0.467
Mof_O 	O 	0.7688	0.07695	0.74147	-0.485
Mof_O 	O 	0.82362	0.19077	0.6581	-0.492
Mof_O 	O 	0.90137	0.15091	0.73034	-0.479
Mof_O 	O 	0.88571	0.24239	0.81048	-0.478
Mof_O 	O 	0.79493	0.11158	0.83271	-0.47
Mof_O 	O 	0.92462	0.23325	0.76122	-0.476
Mof_O 	O 	0.81167	0.17671	0.84575	-0.498
Mof_O 	O 	0.80506	0.22981	0.78261	-0.489
Mof_O 	O 	0.77083	0.1959	0.72249	-0.486
Mof_C 	C 	0.75006	0.08029	0.70751	0.517
Mof_C 	C 	0.88629	0.1159	0.75028	0.501
Mof_C 	C 	0.86077	0.20664	0.64441	0.515
Mof_C 	C 	0.9213	0.25153	0.79563	0.518
Mof_C 	C 	0.79642	0.13945	0.8589	0.517
Mof_C 	C 	0.77802	0.22259	0.75275	0.519
Mof_Zn	Zn	0.85876	0.70071	0.70289	1.252
Mof_Zn	Zn	0.77648	0.63469	0.73812	1.254
Mof_Zn	Zn	0.8548	0.63451	0.76321	1.254
Mof_Zn	Zn	0.83864	0.70055	0.79912	1.254
Mof_O 	O 	0.83215	0.66759	0.75087	-1.021
Mof_O 	O 	0.82606	0.68587	0.65335	-0.498
Mof_O 	O 	0.75874	0.58018	0.74633	-0.481
Mof_O 	O 	0.90151	0.64804	0.73036	-0.481
Mof_O 	O 	0.76554	0.63702	0.67983	-0.482
Mof_O 	O 	0.90316	0.69679	0.68679	-0.5
Mof_O 	O 	0.81789	0.57996	0.75492	-0.482
Mof_O 	O 	0.85781	0.68643	0.84818	-0.491
Mof_O 	O 	0.74323	0.64769	0.77155	-0.478
Mof_O 	O 	0.8682	0.63681	0.82128	-0.487
Mof_O 	O 	0.79002	0.69553	0.81618	-0.492
Mof_O 	O 	0.87155	0.75571	0.78748	-0.488
Mof_O 	O 	0.87995	0.75577	0.71444	-0.493
Mof_C 	C 	0.78827	0.65782	0.64716	0.518
Mof_C 	C 	0.77849	0.56056	0.75071	0.53
Mof_C 	C 	0.91892	0.67505	0.6996	0.517
Mof_C 	C 	0.86728	0.65815	0.85393	0.525
Mof_C 	C 	0.75254	0.67373	0.80329	0.513
Mof_C 	C 	0.88545	0.77536	0.75097	0.516
Mof_C 	C 	0.08296	0.34797	0.03676	-0.261
Mof_C 	C 	0.11632	0.37603	0.0092	0.183
Mof_C 	C 	0.15679	0.39222	0.02663	-0.267
Mof_C 	C 	0.16379	0.38169	0.06919	0.476
Mof_C 	C 	0.13043	0.35437	0.09697	-0.354
Mof_C 	C 	0.08982	0.33746	0.07984	0.476
Mof_H 	H 	0.05104	0.33518	0.02618	0.141
Mof_H 	H 	0.18397	0.41192	0.00687	0.143
Mof_H 	H 	0.12211	0.43788	0.09113	0.058
Mof_H 	H 	0.02318	0.25047	0.18482	0.135
Mof_F 	F 	0.05646	0.31134	0.10492	-0.444
Mof_F 	F 	0.20391	0.39828	0.08263	-0.43
Mof_C 	C 	0.27069	0.35224	0.45811	-0.262
Mof_C 	C 	0.25901	0.37332	0.48878	0.179
Mof_C 	C 	0.22785	0.38214	0.47612	-0.268
Mof_C 	C 	0.20961	0.37141	0.4339	0.476
Mof_C 	C 	0.22197	0.35127	0.40253	-0.355
Mof_C 	C 	0.25244	0.34129	0.41552	0.478
Mof_H 	H 	0.29472	0.34504	0.46668	0.138
Mof_H 	H 	0.21715	0.39718	0.4992	0.142
Mof_H 	H 	0.26501	0.47663	0.45705	0.056
Mof_H 	H 	0.3059	0.44247	0.40997	0.047
Mof_F 	F 	0.26569	0.32226	0.38666	-0.436
Mof_F 	F 	0.17945	0.38066	0.42408	-0.428
Mof_C 	C 	0.3288	0.23033	0.97821	-0.269
Mof_C 	C 	0.37066	0.25659	0.99143	0.186
Mof_C 	C 	0.40155	0.2674	0.95848	-0.271
Mof_C 	C 	0.39125	0.253	0.91457	0.481
Mof_C 	C 	0.3496	0.22619	0.90199	-0.365
Mof_C 	C 	0.3185	0.21483	0.9345	0.481
Mof_H 	H 	0.30371	0.21987	0.00205	0.137
Mof_H 	H 	0.434	0.28846	0.96584	0.146
Mof_H 	H 	0.3683	0.16854	0.97012	0.063
Mof_H 	H 	0.23665	0.09511	0.88314	0.122
Mof_F 	F 	0.27798	0.18886	0.92402	-0.454
Mof_F 	F 	0.42249	0.26444	0.88461	-0.431
Mof_C 	C 	0.3371	0.10939	0.52389	-0.265
Mof_C 	C 	0.37722	0.11627	0.51438	0.177
Mof_C 	C 	0.40572	0.12767	0.54963	-0.262
Mof_C 	C 	0.39444	0.13175	0.59323	0.477
Mof_C 	C 	0.35422	0.12505	0.60281	-0.356
Mof_C 	C 	0.32578	0.11398	0.56727	0.477
Mof_H 	H 	0.31445	0.10086	0.49744	0.139
Mof_H 	H 	0.43673	0.13294	0.54353	0.145
Mof_H 	H 	0.40924	0.21022	0.5078	0.047
Mof_H 	H 	0.33378	0.21161	0.59365	0.066
Mof_F 	F 	0.28677	0.10719	0.57439	-0.455
Mof_F 	F 	0.4235	0.14339	0.62579	-0.424
Mof_C 	C 	0.77756	0.15523	0.98028	-0.263
Mof_C 	C 	0.74641	0.11547	0.99359	0.18
Mof_C 	C 	0.73348	0.08254	0.96287	-0.261
Mof_C 	C 	0.75028	0.08955	0.91953	0.477
Mof_C 	C 	0.78057	0.12986	0.90585	-0.352
Mof_C 	C 	0.79441	0.16243	0.93737	0.476
Mof_H 	H 	0.78917	0.18108	0.00332	0.143
Mof_H 	H 	0.70943	0.05147	0.97194	0.141
Mof_H 	H 	0.73007	0.12688	0.78715	0.026
Mof_H 	H 	0.69648	0.14168	0.92881	0.055
Mof_F 	F 	0.82459	0.20168	0.92694	-0.423
Mof_F 	F 	0.73571	0.05719	0.89062	-0.435
Mof_C 	C 	0.27699	0.87207	0.04941	-0.261
Mof_C 	C 	0.26009	0.88351	0.01401	0.179
Mof_C 	C 	0.22695	0.89061	0.02327	-0.266
Mof_C 	C 	0.21096	0.88622	0.06659	0.478
Mof_C 	C 	0.22817	0.87516	0.10228	-0.357
Mof_C 	C 	0.26158	0.86821	0.09293	0.475
Mof_H 	H 	0.30268	0.86667	0.04349	0.14
Mof_H 	H 	0.21302	0.89922	0.99669	0.141
Mof_H 	H 	0.11752	0.79039	0.09272	0.069
Mof_H 	H 	0.16292	0.77299	0.16049	0.016
Mof_F 	F 	0.27888	0.85663	0.12567	-0.436
Mof_F 	F 	0.17886	0.89324	0.07349	-0.456
Mof_C 	C 	0.12539	0.72476	0.45441	-0.263
Mof_C 	C 	0.11394	0.74202	0.48943	0.18
Mof_C 	C 	0.10667	0.77494	0.47962	-0.265
Mof_C 	C 	0.11137	0.79066	0.43611	0.479
Mof_C 	C 	0.12283	0.7733	0.40089	-0.356
Mof_C 	C 	0.12955	0.73987	0.41078	0.477
Mof_H 	H 	0.1308	0.69914	0.46074	0.144
Mof_H 	H 	0.09793	0.78902	0.50592	0.141
Mof_H 	H 	0.2082	0.81834	0.45695	0.057
Mof_H 	H 	0.22584	0.83279	0.34455	0.033
Mof_F 	F 	0.14147	0.7224	0.37853	-0.426
Mof_F 	F 	0.10444	0.82274	0.42857	-0.45
Mof_C 	C 	0.91655	0.27018	0.54024	-0.258
Mof_C 	C 	0.88325	0.25803	0.51014	0.177
Mof_C 	C 	0.8434	0.22763	0.52411	-0.263
Mof_C 	C 	0.83659	0.21054	0.56692	0.474
Mof_C 	C 	0.86968	0.22326	0.59766	-0.349
Mof_C 	C 	0.90996	0.25307	0.5834	0.478
Mof_H 	H 	0.94771	0.29365	0.53071	0.143
Mof_H 	H 	0.81721	0.21652	0.5016	0.14
Mof_H 	H 	0.85254	0.3153	0.54935	0.059
Mof_H 	H 	0.83553	0.11099	0.66404	0.014
Mof_F 	F 	0.94283	0.26668	0.6115	-0.431
Mof_F 	F 	0.79722	0.18106	0.57789	-0.429
Mof_C 	C 	0.72359	0.59631	0.54653	-0.262
Mof_C 	C 	0.74095	0.62531	0.51174	0.179
Mof_C 	C 	0.7733	0.66565	0.52211	-0.264
Mof_C 	C 	0.78833	0.67659	0.56587	0.478
Mof_C 	C 	0.77085	0.64752	0.60085	-0.356
Mof_C 	C 	0.73801	0.60719	0.59045	0.476
Mof_H 	H 	0.69844	0.56512	0.53978	0.143
Mof_H 	H 	0.78754	0.6887	0.49605	0.14
Mof_H 	H 	0.8181	0.6089	0.54673	0.059
Mof_H 	H 	0.78974	0.72347	0.71364	0.01
Mof_F 	F 	0.72052	0.5776	0.6225	-0.426
Mof_F 	F 	0.81987	0.71577	0.57387	-0.454
Mof_C 	C 	0.90096	0.6684	0.97573	-0.267
Mof_C 	C 	0.88567	0.62648	0.98857	0.19
Mof_C 	C 	0.8652	0.59574	0.95557	-0.267
Mof_C 	C 	0.86051	0.60626	0.91194	0.482
Mof_C 	C 	0.87515	0.64797	0.89976	-0.362
Mof_C 	C 	0.89523	0.6789	0.93234	0.485
Mof_H 	H 	0.91577	0.69338	0.99966	0.142
Mof_H 	H 	0.85393	0.56326	0.96265	0.146
Mof_H 	H 	0.79868	0.62849	0.96607	0.068
Mof_H 	H 	0.93361	0.72805	0.78554	0.021
Mof_F 	F 	0.90961	0.71947	0.92223	-0.447
Mof_F 	F 	0.84037	0.57518	0.88188	-0.431
Mof_C 	C 	0.60323	0.75972	0.03087	-0.267
Mof_C 	C 	0.61963	0.7355	0.01378	0.183
Mof_C 	C 	0.6479	0.73069	0.04152	-0.262
Mof_C 	C 	0.65884	0.74889	0.08415	0.478
Mof_C 	C 	0.64202	0.77282	0.10079	-0.352
Mof_C 	C 	0.61414	0.77803	0.07307	0.481
Mof_H 	H 	0.58316	0.76663	0.01104	0.144
Mof_H 	H 	0.66069	0.71144	0.03143	0.143
Mof_H 	H 	0.70055	0.82729	0.01322	0.067
Mof_H 	H 	0.72385	0.88854	0.15934	0.024
Mof_F 	F 	0.59747	0.80157	0.08616	-0.441
Mof_F 	F 	0.68533	0.74226	0.10929	-0.431
Mof_C 	C 	0.65648	0.91774	0.4662	-0.259
Mof_C 	C 	0.62854	0.88473	0.49412	0.185
Mof_C 	C 	0.61211	0.84404	0.47721	-0.265
Mof_C 	C 	0.62178	0.8365	0.43453	0.473
Mof_C 	C 	0.64853	0.86949	0.40612	-0.353
Mof_C 	C 	0.66614	0.91033	0.42291	0.477
Mof_H 	H 	0.66969	0.94976	0.4766	0.141
Mof_H 	H 	0.59265	0.81711	0.49743	0.141
Mof_H 	H 	0.69248	0.8117	0.42125	0.096
Mof_H 	H 	0.54681	0.80582	0.35461	0.085
Mof_F 	F 	0.69199	0.94335	0.39727	-0.433
Mof_F 	F 	0.60482	0.7962	0.42157	-0.436
Mof_C 	C 	0.30001	0.55553	0.22514	-0.265
Mof_C 	C 	0.286	0.57735	0.25149	0.184
Mof_C 	C 	0.25005	0.55441	0.27734	-0.266
Mof_C 	C 	0.22875	0.51082	0.27721	0.479
Mof_C 	C 	0.2428	0.48876	0.25083	-0.36
Mof_C 	C 	0.27879	0.51193	0.22462	0.48
Mof_H 	H 	0.32734	0.57229	0.20443	0.141
Mof_H 	H 	0.2387	0.57029	0.29835	0.143
Mof_H 	H 	0.24673	0.45477	0.36028	0.08
Mof_H 	H 	0.19076	0.45316	0.15213	0.08
Mof_F 	F 	0.29392	0.49264	0.1986	-0.438
Mof_F 	F 	0.19425	0.49044	0.30294	-0.44
Mof_C 	C 	0.24651	0.69704	0.27438	-0.262
Mof_C 	C 	0.28541	0.71323	0.25322	0.183
Mof_C 	C 	0.3018	0.752	0.23175	-0.265
Mof_C 	C 	0.28028	0.77409	0.23171	0.478
Mof_C 	C 	0.24121	0.75768	0.25266	-0.356
Mof_C 	C 	0.22455	0.71871	0.2739	0.485
Mof_H 	H 	0.23318	0.66776	0.29207	0.144
Mof_H 	H 	0.33116	0.76517	0.21424	0.138
Mof_H 	H 	0.3081	0.77885	0.12456	0.086
Mof_H 	H 	0.22943	0.76688	0.14351	0.081
Mof_F 	F 	0.18744	0.70191	0.29533	-0.421
Mof_F 	F 	0.29738	0.81113	0.2101	-0.432
Mof_C 	C 	0.44416	0.74918	0.23008	-0.268
Mof_C 	C 	0.42148	0.71312	0.25583	0.182
Mof_C 	C 	0.44358	0.69908	0.28168	-0.268
Mof_C 	C 	0.48719	0.72031	0.28167	0.481
Mof_C 	C 	0.51009	0.75636	0.25546	-0.36
Mof_C 	C 	0.48774	0.77053	0.22975	0.484
Mof_H 	H 	0.42809	0.76057	0.20942	0.142
Mof_H 	H 	0.42705	0.67167	0.30232	0.141
Mof_H 	H 	0.42696	0.65773	0.18246	0.059
Mof_H 	H 	0.56914	0.84779	0.13809	0.149
Mof_F 	F 	0.50783	0.80517	0.20417	-0.449
Mof_F 	F 	0.50676	0.70509	0.30711	-0.439
Mof_C 	C 	0.55163	0.25071	0.73091	-0.263
Mof_C 	C 	0.57378	0.28878	0.75376	0.183
Mof_C 	C 	0.55089	0.30385	0.7766	-0.264
Mof_C 	C 	0.50727	0.28172	0.77647	0.489
Mof_C 	C 	0.48519	0.24344	0.75385	-0.355
Mof_C 	C 	0.50803	0.22818	0.73115	0.487
Mof_H 	H 	0.56801	0.23848	0.7121	0.145
Mof_H 	H 	0.5667	0.33256	0.7953	0.147
Mof_H 	H 	0.57476	0.34537	0.67706	0.061
Mof_H 	H 	0.3962	0.22753	0.66164	0.027
Mof_F 	F 	0.48828	0.19195	0.70805	-0.42
Mof_F 	F 	0.48674	0.29741	0.7995	-0.42
Mof_C 	C 	0.6967	0.25396	0.72714	-0.268
Mof_C 	C 	0.71002	0.28964	0.75355	0.183
Mof_C 	C 	0.74582	0.30307	0.77979	-0.268
Mof_C 	C 	0.76777	0.28142	0.77981	0.482
Mof_C 	C 	0.75455	0.24563	0.75315	-0.36
Mof_C 	C 	0.71858	0.23226	0.72675	0.484
Mof_H 	H 	0.66947	0.24307	0.7062	0.145
Mof_H 	H 	0.75666	0.33025	0.80081	0.144
Mof_H 	H 	0.77143	0.34471	0.68054	0.056
Mof_H 	H 	0.7394	0.18973	0.85338	0.072
Mof_F 	F 	0.7041	0.19791	0.7007	-0.436
Mof_F 	F 	0.80224	0.29598	0.80566	-0.437
Mof_C 	C 	0.69483	0.44804	0.72903	-0.262
Mof_C 	C 	0.71009	0.42556	0.75235	0.181
Mof_C 	C 	0.7482	0.44813	0.77503	-0.264
Mof_C 	C 	0.77055	0.49172	0.77422	0.487
Mof_C 	C 	0.75506	0.51416	0.75109	-0.355
Mof_C 	C 	0.71677	0.49167	0.72859	0.486
Mof_H 	H 	0.66612	0.43191	0.71036	0.142
Mof_H 	H 	0.76062	0.43208	0.79413	0.145
Mof_H 	H 	0.76518	0.42506	0.67518	0.056
Mof_H 	H 	0.83	0.60436	0.65918	0.032
Mof_F 	F 	0.7009	0.51179	0.70511	-0.421
Mof_F 	F 	0.80684	0.51189	0.79717	-0.421
Mof_C 	C 	0.48608	0.27617	0.11279	-0.262
Mof_C 	C 	0.47178	0.30449	0.11873	0.182
Mof_C 	C 	0.49621	0.34034	0.14438	-0.262
Mof_C 	C 	0.5336	0.34747	0.16405	0.479
Mof_C 	C 	0.54743	0.31851	0.15903	-0.352
Mof_C 	C 	0.52313	0.28284	0.13275	0.483
Mof_H 	H 	0.46794	0.24811	0.09353	0.142
Mof_H 	H 	0.48633	0.36299	0.14927	0.138
Mof_H 	H 	0.50949	0.27323	0.25133	0.077
Mof_H 	H 	0.58023	0.33683	0.28927	0.021
Mof_F 	F 	0.53503	0.2541	0.12633	-0.437
Mof_F 	F 	0.55536	0.38207	0.18933	-0.45
Mof_C 	C 	0.47794	0.16837	0.33572	-0.263
Mof_C 	C 	0.47499	0.1654	0.38263	0.182
Mof_C 	C 	0.51063	0.19461	0.40673	-0.258
Mof_C 	C 	0.54729	0.2245	0.38495	0.475
Mof_C 	C 	0.54979	0.22642	0.33807	-0.346
Mof_C 	C 	0.51417	0.19777	0.31401	0.476
Mof_H 	H 	0.45159	0.14927	0.31469	0.142
Mof_H 	H 	0.51123	0.19388	0.44265	0.14
Mof_H 	H 	0.44387	0.22722	0.41099	0.049
Mof_H 	H 	0.66315	0.2417	0.28896	0.035
Mof_F 	F 	0.51346	0.19851	0.26885	-0.441
Mof_F 	F 	0.58044	0.25108	0.41	-0.434
Mof_C 	C 	0.71751	0.20736	0.10752	-0.269
Mof_C 	C 	0.69398	0.165	0.12	0.187
Mof_C 	C 	0.6624	0.15449	0.15215	-0.268
Mof_C 	C 	0.65497	0.18476	0.17116	0.481
Mof_C 	C 	0.6795	0.22698	0.1595	-0.362
Mof_C 	C 	0.71081	0.23782	0.12728	0.487
Mof_H 	H 	0.7429	0.21784	0.08408	0.144
Mof_H 	H 	0.6422	0.12252	0.16204	0.143
Mof_H 	H 	0.62782	0.18085	0.06562	0.068
Mof_H 	H 	0.72485	0.23231	0.25091	0.082
Mof_F 	F 	0.73527	0.2781	0.11487	-0.448
Mof_F 	F 	0.62461	0.17272	0.20231	-0.445
Mof_C 	C 	0.28043	0.48756	0.61211	-0.266
Mof_C 	C 	0.3101	0.47486	0.6173	0.181
Mof_C 	C 	0.34575	0.50009	0.64284	-0.266
Mof_C 	C 	0.35147	0.53679	0.66297	0.477
Mof_C 	C 	0.32123	0.54907	0.65858	-0.36
Mof_C 	C 	0.28569	0.5239	0.63253	0.483
Mof_H 	H 	0.25245	0.46874	0.59297	0.144
Mof_H 	H 	0.36939	0.49144	0.64718	0.139
Mof_H 	H 	0.35759	0.55774	0.55545	0.053
Mof_H 	H 	0.39128	0.63741	0.60531	0.083
Mof_F 	F 	0.25577	0.53429	0.62669	-0.437
Mof_F 	F 	0.38608	0.55946	0.68796	-0.461
Mof_C 	C 	0.82977	0.30599	0.33229	-0.264
Mof_C 	C 	0.83346	0.3064	0.37911	0.183
Mof_C 	C 	0.80516	0.31375	0.4038	-0.259
Mof_C 	C 	0.77542	0.32105	0.38261	0.478
Mof_C 	C 	0.7728	0.32128	0.3358	-0.35
Mof_C 	C 	0.80051	0.31336	0.31116	0.478
Mof_H 	H 	0.84823	0.29809	0.31098	0.142
Mof_H 	H 	0.80658	0.31551	0.43969	0.138
Mof_H 	H 	0.77153	0.2138	0.41119	0.058
Mof_H 	H 	0.75761	0.42114	0.28691	0.033
Mof_F 	F 	0.79893	0.31146	0.26602	-0.443
Mof_F 	F 	0.74974	0.32854	0.40815	-0.436
Mof_C 	C 	0.70403	0.5251	0.33451	-0.266
Mof_C 	C 	0.69556	0.52565	0.38003	0.175
Mof_C 	C 	0.68019	0.48806	0.40398	-0.259
Mof_C 	C 	0.67277	0.45101	0.38274	0.476
Mof_C 	C 	0.6802	0.45052	0.33675	-0.356
Mof_C 	C 	0.69634	0.48841	0.31317	0.473
Mof_H 	H 	0.71714	0.55341	0.31507	0.139
Mof_H 	H 	0.67303	0.48705	0.43903	0.139
Mof_H 	H 	0.61045	0.5039	0.33761	0.05
Mof_H 	H 	0.59688	0.42997	0.28199	0.088
Mof_F 	F 	0.7057	0.49049	0.26922	-0.451
Mof_F 	F 	0.65728	0.41551	0.40701	-0.439
Mof_C 	C 	0.84477	0.50096	0.14183	-0.261
Mof_C 	C 	0.83376	0.52566	0.11613	0.182
Mof_C 	C 	0.79122	0.51212	0.11078	-0.261
Mof_C 	C 	0.76055	0.47552	0.13126	0.483
Mof_C 	C 	0.77153	0.45089	0.15748	-0.355
Mof_C 	C 	0.81423	0.464	0.16197	0.473
Mof_H 	H 	0.87723	0.51031	0.14637	0.141
Mof_H 	H 	0.78159	0.53052	0.09156	0.144
Mof_H 	H 	0.78565	0.4991	0.24624	0.085
Mof_H 	H 	0.77309	0.37346	0.10625	0.108
Mof_F 	F 	0.82675	0.44192	0.18716	-0.443
Mof_F 	F 	0.72004	0.46437	0.12536	-0.436
Mof_C 	C 	0.20685	0.71582	0.6054	-0.265
Mof_C 	C 	0.16442	0.69205	0.61761	0.186
Mof_C 	C 	0.15409	0.66104	0.65042	-0.264
Mof_C 	C 	0.18457	0.65433	0.67021	0.483
Mof_C 	C 	0.22684	0.6791	0.65879	-0.355
Mof_C 	C 	0.23751	0.7099	0.62601	0.485
Mof_H 	H 	0.21722	0.74083	0.5815	0.141
Mof_H 	H 	0.12211	0.64076	0.66024	0.142
Mof_H 	H 	0.18206	0.62575	0.56561	0.071
Mof_H 	H 	0.33344	0.66709	0.63626	0.017
Mof_F 	F 	0.27782	0.73456	0.6138	-0.443
Mof_F 	F 	0.17267	0.62439	0.70183	-0.442
Mof_C 	C 	0.1693	0.47692	0.83304	-0.265
Mof_C 	C 	0.16552	0.47389	0.87985	0.186
Mof_C 	C 	0.19358	0.50973	0.90442	-0.26
Mof_C 	C 	0.22326	0.5467	0.88312	0.477
Mof_C 	C 	0.2261	0.54927	0.83632	-0.35
Mof_C 	C 	0.19858	0.51346	0.81179	0.48
Mof_H 	H 	0.15093	0.45039	0.81189	0.145
Mof_H 	H 	0.19197	0.51033	0.94029	0.142
Mof_H 	H 	0.25773	0.48344	0.86001	0.064
Mof_H 	H 	0.33467	0.57772	0.78787	0.029
Mof_F 	F 	0.20045	0.51287	0.76668	-0.434
Mof_F 	F 	0.24872	0.58007	0.90854	-0.434
Mof_C 	C 	0.50205	0.84553	0.6453	-0.264
Mof_C 	C 	0.52733	0.83446	0.62077	0.183
Mof_C 	C 	0.51386	0.79195	0.6155	-0.268
Mof_C 	C 	0.4767	0.76132	0.63492	0.486
Mof_C 	C 	0.45152	0.77234	0.66008	-0.355
Mof_C 	C 	0.46456	0.81501	0.6645	0.484
Mof_H 	H 	0.51127	0.87798	0.64955	0.145
Mof_H 	H 	0.53265	0.78231	0.59701	0.141
Mof_H 	H 	0.47061	0.81648	0.5388	0.06
Mof_H 	H 	0.45195	0.65086	0.69086	0.125
Mof_F 	F 	0.44188	0.82748	0.6887	-0.438
Mof_F 	F 	0.46556	0.72081	0.62904	-0.455
Mof_C 	C 	0.3088	0.83139	0.8356	-0.264
Mof_C 	C 	0.30892	0.83437	0.8825	0.181
Mof_C 	C 	0.31526	0.80511	0.90659	-0.258
Mof_C 	C 	0.32188	0.77515	0.88478	0.473
Mof_C 	C 	0.32232	0.77316	0.8379	-0.347
Mof_C 	C 	0.3154	0.80185	0.81386	0.476
Mof_H 	H 	0.30162	0.8506	0.81463	0.14
Mof_H 	H 	0.31669	0.8059	0.94251	0.138
Mof_H 	H 	0.4054	0.86513	0.85918	0.069
Mof_H 	H 	0.24221	0.66485	0.78729	0.042
Mof_F 	F 	0.31372	0.80099	0.7687	-0.437
Mof_F 	F 	0.32843	0.74855	0.90982	-0.436
Mof_C 	C 	0.48405	0.67313	0.9059	-0.257
Mof_C 	C 	0.52188	0.68756	0.88264	0.181
Mof_C 	C 	0.52245	0.69681	0.8372	-0.263
Mof_C 	C 	0.48667	0.69121	0.81539	0.477
Mof_C 	C 	0.44858	0.67627	0.83837	-0.356
Mof_C 	C 	0.44792	0.6677	0.88419	0.48
Mof_H 	H 	0.48213	0.66533	0.94085	0.142
Mof_H 	H 	0.55103	0.70922	0.81831	0.141
Mof_H 	H 	0.42102	0.75641	0.78828	0.037
Mof_H 	H 	0.42876	0.59637	0.77532	0.092
Mof_F 	F 	0.41219	0.65313	0.90787	-0.436
Mof_F 	F 	0.48989	0.70154	0.77164	-0.453
Mof_C 	C 	0.08201	0.97245	0.27207	-0.262
Mof_C 	C 	0.04351	0.95669	0.24961	0.18
Mof_C 	C 	0.02821	0.9181	0.22747	-0.257
Mof_C 	C 	0.05066	0.89681	0.22702	0.481
Mof_C 	C 	0.08852	0.9125	0.25015	-0.361
Mof_C 	C 	0.10372	0.95041	0.27303	0.481
Mof_H 	H 	0.09486	0.00116	0.29077	0.141
Mof_H 	H 	0.99957	0.90488	0.20861	0.137
Mof_H 	H 	0.10969	0.9826	0.16941	0.062
Mof_H 	H 	0.20742	0.93574	0.21641	0.027
Mof_F 	F 	0.14013	0.96665	0.29576	-0.439
Mof_F 	F 	0.03486	0.86029	0.20456	-0.435
Mof_C 	C 	0.02576	0.11394	0.23273	-0.254
Mof_C 	C 	0.04317	0.09067	0.25045	0.176
Mof_C 	C 	0.08389	0.11382	0.26809	-0.261
Mof_C 	C 	0.10599	0.15756	0.26791	0.472
Mof_C 	C 	0.08845	0.18046	0.24988	-0.352
Mof_C 	C 	0.04782	0.15772	0.23229	0.47
Mof_H 	H 	0.99545	0.0987	0.21719	0.13
Mof_H 	H 	0.09878	0.09851	0.28386	0.14
Mof_H 	H 	0.09252	0.08609	0.16875	0.05
Mof_H 	H 	0.18895	0.22151	0.1979	0.08
Mof_F 	F 	0.02899	0.17763	0.21437	-0.454
Mof_F 	F 	0.14482	0.17729	0.28562	-0.441
Mof_C 	C 	0.88486	0.91832	0.22226	-0.259
Mof_C 	C 	0.90754	0.95495	0.24738	0.173
Mof_C 	C 	0.88491	0.96833	0.27338	-0.261
Mof_C 	C 	0.84119	0.94603	0.27436	0.468
Mof_C 	C 	0.8183	0.90915	0.24924	-0.348
Mof_C 	C 	0.84109	0.89575	0.22308	0.47
Mof_H 	H 	0.90104	0.90723	0.20136	0.14
Mof_H 	H 	0.90109	0.99592	0.29382	0.139
Mof_H 	H 	0.89604	0.01149	0.1796	0.045
Mof_H 	H 	0.81223	0.94325	0.15578	0.051
Mof_F 	F 	0.82125	0.86087	0.19783	-0.437
Mof_F 	F 	0.82151	0.96069	0.30044	-0.442
Mof_C 	C 	0.11193	0.08432	0.72775	-0.264
Mof_C 	C 	0.0885	0.0454	0.7492	0.187
Mof_C 	C 	0.11107	0.02902	0.77087	-0.266
Mof_C 	C 	0.15479	0.0508	0.77178	0.486
Mof_C 	C 	0.17766	0.08908	0.74965	-0.362
Mof_C 	C 	0.15569	0.10539	0.72724	0.486
Mof_H 	H 	0.09663	0.09802	0.70951	0.143
Mof_H 	H 	0.09513	5e-05	0.78908	0.142
Mof_H 	H 	0.08303	0.98749	0.67101	0.059
Mof_H 	H 	0.24165	0.14563	0.61843	0.124
Mof_F 	F 	0.1766	0.14229	0.70552	-0.436
Mof_F 	F 	0.17478	0.03398	0.79383	-0.441
Mof_C 	C 	0.91756	0.03362	0.77459	-0.263
Mof_C 	C 	0.95399	0.04743	0.74918	0.177
Mof_C 	C 	0.96793	0.08406	0.72408	-0.263
Mof_C 	C 	0.9463	0.10621	0.72432	0.471
Mof_C 	C 	0.90967	0.09235	0.74984	-0.35
Mof_C 	C 	0.89572	0.05551	0.77499	0.469
Mof_H 	H 	0.90613	0.006	0.79498	0.139
Mof_H 	H 	0.99546	0.09546	0.70356	0.14
Mof_H 	H 	0.98534	0.11992	0.8244	0.059
Mof_H 	H 	0.8082	0.03104	0.70352	0.072
Mof_F 	F 	0.86104	0.04052	0.80056	-0.442
Mof_F 	F 	0.96132	0.1411	0.69909	-0.438
Mof_C 	C 	0.92115	0.88835	0.78196	-0.265
Mof_C 	C 	0.9534	0.91078	0.75132	0.179
Mof_C 	C 	0.96301	0.8883	0.72052	-0.266
Mof_C 	C 	0.94076	0.84457	0.71996	0.476
Mof_C 	C 	0.9087	0.82199	0.75101	-0.36
Mof_C 	C 	0.89939	0.84459	0.78224	0.473
Mof_H 	H 	0.91314	0.9048	0.80618	0.142
Mof_H 	H 	0.98754	0.9047	0.69636	0.138
Mof_H 	H 	0.87184	0.87427	0.69085	0.057
Mof_H 	H 	0.95802	0.80827	0.82817	0.083
Mof_F 	F 	0.86865	0.82441	0.81261	-0.438
Mof_F 	F 	0.95137	0.8244	0.68962	-0.441
Mof_C 	C 	0.31665	0.32369	0.11314	-0.266
Mof_C 	C 	0.33549	0.30302	0.13301	0.179
Mof_C 	C 	0.3264	0.29107	0.1779	-0.264
Mof_C 	C 	0.29846	0.2988	0.20205	0.478
Mof_C 	C 	0.27937	0.31941	0.18196	-0.353
Mof_C 	C 	0.28921	0.33196	0.13708	0.479
Mof_H 	H 	0.32339	0.33376	0.07881	0.142
Mof_H 	H 	0.34038	0.275	0.19413	0.141
Mof_H 	H 	0.40574	0.38667	0.16921	0.059
Mof_H 	H 	0.16337	0.27466	0.15843	0.025
Mof_F 	F 	0.27147	0.35135	0.1156	-0.432
Mof_F 	F 	0.29036	0.28624	0.2451	-0.434
Mof_C 	C 	0.96441	0.29369	0.32372	-0.257
Mof_C 	C 	0.96777	0.30565	0.36871	0.177
Mof_C 	C 	0.0073	0.32498	0.38849	-0.254
Mof_C 	C 	0.04257	0.33228	0.36424	0.48
Mof_C 	C 	0.03936	0.3201	0.31913	-0.348
Mof_C 	C 	0.9996	0.30051	0.29926	0.475
Mof_H 	H 	0.9343	0.27843	0.30757	0.14
Mof_H 	H 	0.01105	0.33489	0.4229	0.147
Mof_H 	H 	0.10885	0.27372	0.34194	0.033
Mof_H 	H 	0.02969	0.22257	0.30071	0.08
Mof_F 	F 	0.99464	0.28821	0.25609	-0.446
Mof_F 	F 	0.07977	0.35056	0.3856	-0.423
Mof_C 	C 	0.29571	0.01897	0.37633	-0.267
Mof_C 	C 	0.33821	0.03172	0.37364	0.181
Mof_C 	C 	0.35009	0.00866	0.34619	-0.263
Mof_C 	C 	0.32023	0.97337	0.32283	0.478
Mof_C 	C 	0.27744	0.96014	0.32634	-0.355
Mof_C 	C 	0.26582	0.98393	0.35322	0.481
Mof_H 	H 	0.28543	0.03646	0.39622	0.143
Mof_H 	H 	0.38253	0.01736	0.34355	0.143
Mof_H 	H 	0.29922	0.94535	0.42938	0.059
Mof_H 	H 	0.14178	0.90697	0.38198	0.13
Mof_F 	F 	0.22538	0.97373	0.35711	-0.437
Mof_F 	F 	0.33332	0.95171	0.29776	-0.437
Mof_C 	C 	0.70505	0.03349	0.17925	-0.266
Mof_C 	C 	0.69345	0.03022	0.13417	0.182
Mof_C 	C 	0.6742	0.99074	0.11428	-0.267
Mof_C 	C 	0.66677	0.95542	0.13847	0.479
Mof_C 	C 	0.67873	0.95854	0.18363	-0.361
Mof_C 	C 	0.6981	0.99823	0.20366	0.48
Mof_H 	H 	0.7203	0.06357	0.19544	0.142
Mof_H 	H 	0.66465	0.98711	0.07974	0.142
Mof_H 	H 	0.76714	0.00433	0.13068	0.049
Mof_H 	H 	0.78037	0.97683	0.2149	0.076
Mof_F 	F 	0.71015	0.00306	0.24691	-0.439
Mof_F 	F 	0.64882	0.91829	0.11697	-0.446
Mof_C 	C 	0.34368	0.35039	0.65717	-0.264
Mof_C 	C 	0.30882	0.33816	0.62954	0.182
Mof_C 	C 	0.27892	0.2957	0.62741	-0.268
Mof_C 	C 	0.28401	0.26606	0.65096	0.481
Mof_C 	C 	0.31951	0.27794	0.67775	-0.36
Mof_C 	C 	0.34908	0.32073	0.68099	0.479
Mof_H 	H 	0.36735	0.38288	0.65951	0.141
Mof_H 	H 	0.2511	0.28523	0.60755	0.147
Mof_H 	H 	0.35513	0.29747	0.57458	0.051
Mof_H 	H 	0.35285	0.31637	0.92966	0.068
Mof_F 	F 	0.38381	0.33396	0.70611	-0.44
Mof_F 	F 	0.25367	0.22561	0.64758	-0.437
Mof_C 	C 	0.27736	0.98148	0.87631	-0.264
Mof_C 	C 	0.30702	0.96861	0.87381	0.178
Mof_C 	C 	0.34216	0.99166	0.84662	-0.261
Mof_C 	C 	0.34787	0.02709	0.82335	0.478
Mof_C 	C 	0.31842	0.04046	0.82669	-0.352
Mof_C 	C 	0.28279	0.01664	0.85329	0.48
Mof_H 	H 	0.24943	0.96396	0.89595	0.141
Mof_H 	H 	0.3658	0.98281	0.8441	0.142
Mof_H 	H 	0.26655	0.91269	0.79087	0.057
Mof_H 	H 	0.27299	0.0654	0.71703	0.027
Mof_F 	F 	0.25259	0.02693	0.85696	-0.438
Mof_F 	F 	0.38277	0.04873	0.79849	-0.435
Mof_C 	C 	0.98051	0.7065	0.12797	-0.274
Mof_C 	C 	0.96732	0.66388	0.13021	0.185
Mof_C 	C 	0.98995	0.65137	0.1575	-0.27
Mof_C 	C 	0.0255	0.6808	0.18085	0.484
Mof_C 	C 	0.03936	0.72373	0.17749	-0.36
Mof_C 	C 	0.01579	0.73595	0.15106	0.486
Mof_H 	H 	0.96331	0.71725	0.10827	0.145
Mof_H 	H 	0.9808	0.61879	0.15985	0.142
Mof_H 	H 	0.05373	0.70338	0.07417	0.053
Mof_H 	H 	0.09533	0.85672	0.11872	0.122
Mof_F 	F 	0.02651	0.77656	0.1475	-0.437
Mof_F 	F 	0.04689	0.6672	0.20563	-0.438
Mof_C 	C 	0.01751	0.7238	0.62882	-0.26
Mof_C 	C 	0.03045	0.69417	0.63077	0.176
Mof_C 	C 	0.0074	0.65869	0.65746	-0.256
Mof_C 	C 	0.97165	0.65245	0.6805	0.47
Mof_C 	C 	0.95806	0.68177	0.67742	-0.353
Mof_C 	C 	0.98208	0.71788	0.65161	0.472
Mof_H 	H 	0.03508	0.75203	0.60964	0.141
Mof_H 	H 	0.01642	0.63516	0.65962	0.141
Mof_H 	H 	0.05003	0.73162	0.73077	0.063
Mof_H 	H 	0.90304	0.7598	0.61831	0.134
Mof_F 	F 	0.97169	0.74803	0.64843	-0.439
Mof_F 	F 	0.94986	0.61718	0.70475	-0.439
Mof_C 	C 	0.99127	0.32002	0.8897	-0.267
Mof_C 	C 	0.03085	0.33974	0.87003	0.185
Mof_C 	C 	0.03419	0.33094	0.82511	-0.257
Mof_C 	C 	0.99895	0.30274	0.80064	0.473
Mof_C 	C 	0.95915	0.28293	0.82041	-0.349
Mof_C 	C 	0.95593	0.29222	0.86541	0.479
Mof_H 	H 	0.98757	0.32636	0.92406	0.146
Mof_H 	H 	0.06433	0.34544	0.80905	0.143
Mof_H 	H 	0.00639	0.24195	0.87566	0.062
Mof_H 	H 	0.89181	0.16626	0.84128	0.033
Mof_F 	F 	0.91868	0.27365	0.88667	-0.422
Mof_F 	F 	0.00393	0.29512	0.75757	-0.425
Mof_C 	C 	0.70648	0.67033	0.3243	-0.261
Mof_C 	C 	0.69431	0.66105	0.36914	0.178
Mof_C 	C 	0.67406	0.68028	0.38908	-0.264
Mof_C 	C 	0.66636	0.7082	0.36527	0.477
Mof_C 	C 	0.67908	0.71817	0.32043	-0.35
Mof_C 	C 	0.69931	0.69872	0.30028	0.48
Mof_H 	H 	0.72231	0.65613	0.308	0.142
Mof_H 	H 	0.66384	0.67348	0.42336	0.142
Mof_H 	H 	0.61118	0.59163	0.33069	0.056
Mof_H 	H 	0.72735	0.83521	0.33987	0.025
Mof_F 	F 	0.712	0.70688	0.25727	-0.431
Mof_F 	F 	0.64722	0.72615	0.38684	-0.438
Mof_C 	C 	0.68152	0.01032	0.61358	-0.266
Mof_C 	C 	0.66216	0.97071	0.63314	0.182
Mof_C 	C 	0.67104	0.96734	0.678	-0.263
Mof_C 	C 	0.69913	0.00262	0.70249	0.477
Mof_C 	C 	0.71866	0.04245	0.68279	-0.355
Mof_C 	C 	0.70914	0.0457	0.6379	0.478
Mof_H 	H 	0.67509	0.014	0.57924	0.144
Mof_H 	H 	0.6568	0.93715	0.69395	0.142
Mof_H 	H 	0.75949	0.99602	0.62453	0.05
Mof_H 	H 	0.81255	0.11235	0.58063	0.095
Mof_F 	F 	0.72739	0.08301	0.61676	-0.432
Mof_F 	F 	0.70698	0.99764	0.74547	-0.435
Mof_C 	C 	0.64689	0.6545	0.84618	-0.259
Mof_C 	C 	0.65863	0.68855	0.87495	0.182
Mof_C 	C 	0.70113	0.71813	0.87839	-0.262
Mof_C 	C 	0.73117	0.71357	0.85488	0.477
Mof_C 	C 	0.71969	0.67903	0.82664	-0.352
Mof_C 	C 	0.6769	0.64971	0.82232	0.479
Mof_H 	H 	0.61443	0.63101	0.84281	0.143
Mof_H 	H 	0.71134	0.74539	0.89912	0.144
Mof_H 	H 	0.78895	0.77643	0.77064	0.095
Mof_H 	H 	0.77214	0.60367	0.8424	0.042
Mof_F 	F 	0.66395	0.6158	0.79589	-0.436
Mof_F 	F 	0.77161	0.74353	0.85976	-0.434
_end
