data_functionalizedCrystal
_audit_creation_method	'EQeq! by Chris Wilmer'
_symmetry_space_group_name_H-M	'P1'
_symmetry_Int_Tables_number	1
_symmetry_cell_setting	triclinic
loop_
_symmetry_equiv_pos_as_xyz
  x,y,z
_cell_length_a	6.9007
_cell_length_b	7.4722
_cell_length_c	8.2521
_cell_angle_alpha	90.227
_cell_angle_beta	108.67
_cell_angle_gamma	93.332
loop_
_atom_site_label
_atom_site_type_symbol
_atom_site_fract_x
_atom_site_fract_y
_atom_site_fract_z
_atom_site_charge
Mof_Mg	Mg	0.5	0.5	-0	1.43
Mof_Mg	Mg	-0	0	-0	1.409
Mof_H 	H 	0.5762	0.7093	0.4591	0.11
Mof_H 	H 	0.4238	0.2907	0.5409	-0.056
Mof_C 	C 	0.4219	0.84363	0.16004	0.358
Mof_C 	C 	0.4634	0.93171	0.33339	0.161
Mof_C 	C 	0.54559	0.82615	0.47559	-0.193
Mof_C 	C 	0.41748	0.10773	0.35876	-0.441
Mof_C 	C 	0.3467	0.23849	0.21637	0.499
Mof_C 	C 	0.5781	0.15637	0.83996	0.477
Mof_C 	C 	0.5366	0.06829	0.66661	-0.386
Mof_C 	C 	0.45441	0.17385	0.52441	0.253
Mof_C 	C 	0.58252	0.89227	0.64124	0.219
Mof_C 	C 	0.6533	0.76151	0.78363	0.303
Mof_O 	O 	0.54933	0.73552	0.14641	-0.595
Mof_O 	O 	0.47861	0.35781	0.20938	-0.624
Mof_O 	O 	0.16376	0.22634	0.11849	-0.793
Mof_O 	O 	0.26324	0.87625	0.04164	-0.685
Mof_O 	O 	0.45067	0.26448	0.85359	-0.414
Mof_O 	O 	0.52139	0.64219	0.79062	-0.365
Mof_O 	O 	0.83624	0.77366	0.88151	-0.28
Mof_O 	O 	0.73676	0.12375	0.95836	-0.387
_end
