data_functionalizedCrystal
_audit_creation_method	'EQeq! by Chris Wilmer'
_symmetry_space_group_name_H-M	'P1'
_symmetry_Int_Tables_number	1
_symmetry_cell_setting	triclinic
loop_
_symmetry_equiv_pos_as_xyz
  x,y,z
_cell_length_a	9.2529
_cell_length_b	10.6355
_cell_length_c	11.0493
_cell_angle_alpha	63.622
_cell_angle_beta	86.489
_cell_angle_gamma	74.907
loop_
_atom_site_label
_atom_site_type_symbol
_atom_site_fract_x
_atom_site_fract_y
_atom_site_fract_z
_atom_site_charge
Mof_Co	Co	0.22196	0.27529	0.48166	1.149
Mof_O 	O 	0.4734	0.309	0.6677	-0.441
Mof_O 	O 	0.3242	0.1765	0.6608	-0.474
Mof_O 	O 	0.4904	0.4171	0.3592	-0.443
Mof_O 	O 	0.3163	0.3339	0.3089	-0.469
Mof_N 	N 	0.9779	0.3385	0.4905	-0.232
Mof_N 	N 	0.8055	0.5125	0.5213	-0.195
Mof_N 	N 	0.7344	0.4141	0.5213	-0.189
Mof_N 	N 	0.7749	0.9286	0.5084	-0.234
Mof_C 	C 	0.4166	0.2056	0.718	0.396
Mof_C 	C 	0.4608	0.0985	0.8648	-0.088
Mof_C 	C 	0.5565	0.1209	0.9404	-0.017
Mof_H 	H 	0.594	0.2024	0.9008	0.046
Mof_C 	C 	0.5969	0.0221	0.0753	-0.018
Mof_H 	H 	0.6624	0.0369	0.1252	0.049
Mof_C 	C 	0.4212	0.3974	0.2799	0.387
Mof_C 	C 	0.4629	0.4492	0.1343	-0.085
Mof_C 	C 	0.5759	0.5187	0.0933	-0.02
Mof_H 	H 	0.627	0.5318	0.1549	0.048
Mof_C 	C 	0.6134	0.5694	0.9583	-0.016
Mof_H 	H 	0.6902	0.6159	0.9303	0.046
Mof_C 	C 	0.9454	0.4632	0.5018	0.034
Mof_C 	C 	0.8392	0.3124	0.5024	0.1
Mof_C 	C 	0.8103	0.1828	0.5017	0.03
Mof_C 	C 	0.8476	0.1504	0.3925	-0.115
Mof_H 	H 	0.8852	0.2134	0.3162	0.067
Mof_C 	C 	0.8275	0.023	0.4004	0.069
Mof_H 	H 	0.8515	0.0018	0.3273	-0.005
Mof_C 	C 	0.7377	0.9626	0.6112	0.063
Mof_H 	H 	0.7	0.8984	0.6866	0.008
Mof_C 	C 	0.753	0.0888	0.6103	-0.121
Mof_H 	H 	0.7245	0.1093	0.6831	0.077
Mof_Co	Co	0.77804	0.72471	0.51834	1.15
Mof_O 	O 	0.5266	0.691	0.3323	-0.44
Mof_O 	O 	0.6758	0.8235	0.3392	-0.473
Mof_O 	O 	0.5096	0.5829	0.6408	-0.442
Mof_O 	O 	0.6837	0.6661	0.6911	-0.468
Mof_N 	N 	0.0221	0.6615	0.5095	-0.231
Mof_N 	N 	0.1945	0.4875	0.4787	-0.195
Mof_N 	N 	0.2656	0.5859	0.4787	-0.189
Mof_N 	N 	0.2251	0.0714	0.4916	-0.234
Mof_C 	C 	0.5834	0.7944	0.282	0.396
Mof_C 	C 	0.5392	0.9015	0.1352	-0.088
Mof_C 	C 	0.4435	0.8791	0.0596	-0.017
Mof_H 	H 	0.406	0.7976	0.0992	0.046
Mof_C 	C 	0.4031	0.9779	0.9247	-0.018
Mof_H 	H 	0.3376	0.9631	0.8748	0.049
Mof_C 	C 	0.5788	0.6026	0.7201	0.387
Mof_C 	C 	0.5371	0.5508	0.8657	-0.085
Mof_C 	C 	0.4241	0.4813	0.9067	-0.02
Mof_H 	H 	0.373	0.4682	0.8451	0.048
Mof_C 	C 	0.3866	0.4306	0.0417	-0.016
Mof_H 	H 	0.3098	0.3841	0.0697	0.046
Mof_C 	C 	0.0546	0.5368	0.4982	0.034
Mof_C 	C 	0.1608	0.6876	0.4976	0.1
Mof_C 	C 	0.1897	0.8172	0.4983	0.03
Mof_C 	C 	0.1524	0.8496	0.6075	-0.115
Mof_H 	H 	0.1148	0.7866	0.6838	0.067
Mof_C 	C 	0.1725	0.977	0.5996	0.069
Mof_H 	H 	0.1485	0.9982	0.6727	-0.005
Mof_C 	C 	0.2623	0.0374	0.3888	0.063
Mof_H 	H 	0.3	0.1016	0.3134	0.008
Mof_C 	C 	0.247	0.9112	0.3897	-0.121
Mof_H 	H 	0.2755	0.8907	0.3169	0.077
Mof_Co	Co	0.5	0.5	0.5	1.18
_end
