data_functionalizedCrystal
_audit_creation_method	'EQeq! by Chris Wilmer'
_symmetry_space_group_name_H-M	'P1'
_symmetry_Int_Tables_number	1
_symmetry_cell_setting	triclinic
loop_
_symmetry_equiv_pos_as_xyz
  x,y,z
_cell_length_a	10.441
_cell_length_b	17.5711
_cell_length_c	17.5711
_cell_angle_alpha	115.282
_cell_angle_beta	96.3301
_cell_angle_gamma	83.6699
loop_
_atom_site_label
_atom_site_type_symbol
_atom_site_fract_x
_atom_site_fract_y
_atom_site_fract_z
_atom_site_charge
Mof_Co	Co	0.51133	0.21219	0.04465	1.135
Mof_Co	Co	0.98867	0.04465	0.21219	1.134
Mof_Co	Co	0.48867	0.78781	0.95535	1.135
Mof_Co	Co	0.01133	0.95535	0.78781	1.134
Mof_Co	Co	0.75	0.23479	0.23479	1.175
Mof_Co	Co	0.25	0.76521	0.76521	1.175
Mof_H 	H 	0.8507	0.3529	0.4847	-0.045
Mof_H 	H 	0.8919	0.4106	0.6288	0.189
Mof_H 	H 	0.1688	0.2326	0.6078	0.19
Mof_H 	H 	0.1295	0.1745	0.4629	-0.05
Mof_H 	H 	0.9991	0.2402	0.723	0.162
Mof_H 	H 	0.0761	0.1833	0.8169	-0.044
Mof_H 	H 	0.338	0.3565	0.9153	-0.031
Mof_H 	H 	0.2583	0.4131	0.8211	0.16
Mof_H 	H 	0.5164	0.3807	0.0397	0.005
Mof_H 	H 	0.6327	0.4582	0.9992	0.095
Mof_H 	H 	0.9101	0.2695	0.9367	0.097
Mof_H 	H 	0.7862	0.1969	0.9789	0.002
Mof_H 	H 	0.9457	0.3984	0.9182	0.072
Mof_H 	H 	0.7876	0.6154	0.9152	0.079
Mof_H 	H 	0.8412	0.7368	0.884	0.106
Mof_H 	H 	0.0904	0.5357	0.8277	0.126
Mof_H 	H 	0.2241	0.6019	0.7857	-0.012
Mof_H 	H 	0.9823	0.7969	0.8385	-0.036
Mof_H 	H 	0.6493	0.4847	0.3529	-0.043
Mof_H 	H 	0.6081	0.6288	0.4106	0.189
Mof_H 	H 	0.3312	0.6078	0.2326	0.19
Mof_H 	H 	0.3705	0.4629	0.1745	-0.048
Mof_H 	H 	0.5009	0.723	0.2402	0.166
Mof_H 	H 	0.4239	0.8169	0.1833	-0.045
Mof_H 	H 	0.162	0.9153	0.3565	-0.031
Mof_H 	H 	0.2417	0.8211	0.4131	0.162
Mof_H 	H 	0.9836	0.0397	0.3807	0.006
Mof_H 	H 	0.8673	0.9992	0.4582	0.094
Mof_H 	H 	0.5899	0.9367	0.2695	0.097
Mof_H 	H 	0.7138	0.9789	0.1969	0.002
Mof_H 	H 	0.5543	0.9182	0.3984	0.072
Mof_H 	H 	0.7124	0.9152	0.6154	0.08
Mof_H 	H 	0.6588	0.884	0.7368	0.109
Mof_H 	H 	0.4096	0.8277	0.5357	0.126
Mof_H 	H 	0.2759	0.7857	0.6019	-0.013
Mof_H 	H 	0.5177	0.8385	0.7969	-0.042
Mof_H 	H 	0.1493	0.6471	0.5153	-0.044
Mof_H 	H 	0.1081	0.5894	0.3712	0.19
Mof_H 	H 	0.8312	0.7674	0.3922	0.191
Mof_H 	H 	0.8705	0.8255	0.5371	-0.049
Mof_H 	H 	0.0009	0.7598	0.277	0.163
Mof_H 	H 	0.9239	0.8167	0.1831	-0.043
Mof_H 	H 	0.662	0.6435	0.0847	-0.03
Mof_H 	H 	0.7417	0.5869	0.1789	0.161
Mof_H 	H 	0.4836	0.6193	0.9603	0.005
Mof_H 	H 	0.3673	0.5418	0.0008	0.095
Mof_H 	H 	0.0899	0.7305	0.0633	0.097
Mof_H 	H 	0.2138	0.8031	0.0211	0.002
Mof_H 	H 	0.0543	0.6016	0.0818	0.072
Mof_H 	H 	0.2124	0.3846	0.0848	0.079
Mof_H 	H 	0.1588	0.2632	0.116	0.106
Mof_H 	H 	0.9096	0.4643	0.1723	0.126
Mof_H 	H 	0.7759	0.3981	0.2143	-0.012
Mof_H 	H 	0.0177	0.2031	0.1615	-0.036
Mof_H 	H 	0.3507	0.5153	0.6471	-0.043
Mof_H 	H 	0.3919	0.3712	0.5894	0.189
Mof_H 	H 	0.6688	0.3922	0.7674	0.19
Mof_H 	H 	0.6295	0.5371	0.8255	-0.048
Mof_H 	H 	0.4991	0.277	0.7598	0.166
Mof_H 	H 	0.5761	0.1831	0.8167	-0.045
Mof_H 	H 	0.838	0.0847	0.6435	-0.031
Mof_H 	H 	0.7583	0.1789	0.5869	0.162
Mof_H 	H 	0.0164	0.9603	0.6193	0.006
Mof_H 	H 	0.1327	0.0008	0.5418	0.094
Mof_H 	H 	0.4101	0.0633	0.7305	0.097
Mof_H 	H 	0.2862	0.0211	0.8031	0.002
Mof_H 	H 	0.4457	0.0818	0.6016	0.072
Mof_H 	H 	0.2876	0.0848	0.3846	0.08
Mof_H 	H 	0.3412	0.116	0.2632	0.109
Mof_H 	H 	0.5904	0.1723	0.4643	0.126
Mof_H 	H 	0.7241	0.2143	0.3981	-0.013
Mof_H 	H 	0.4823	0.1615	0.2031	-0.042
Mof_C 	C 	0.963	0.22172	0.36328	0.46
Mof_C 	C 	0.9929	0.2601	0.4565	-0.305
Mof_C 	C 	0.9186	0.32946	0.50854	0.269
Mof_C 	C 	0.9432	0.3644	0.5948	-0.4
Mof_C 	C 	0.1077	0.259	0.5828	-0.426
Mof_C 	C 	0.083	0.22406	0.49554	0.282
Mof_C 	C 	0.043	0.33069	0.62991	0.417
Mof_C 	C 	0.1194	0.33197	0.76483	0.363
Mof_C 	C 	0.0669	0.2638	0.7624	-0.364
Mof_C 	C 	0.1135	0.22932	0.81788	0.222
Mof_C 	C 	0.2167	0.26378	0.87562	-0.245
Mof_C 	C 	0.2695	0.33282	0.87658	0.212
Mof_C 	C 	0.2217	0.36704	0.82076	-0.345
Mof_C 	C 	0.2692	0.22922	0.93858	0.392
Mof_C 	C 	0.5965	0.358	0.0184	0.088
Mof_C 	C 	0.6658	0.40505	0.99415	-0.166
Mof_C 	C 	0.7855	0.37282	0.96218	0.119
Mof_C 	C 	0.83	0.29326	0.95714	-0.17
Mof_C 	C 	0.7548	0.24992	0.98268	0.098
Mof_C 	C 	0.8625	0.41974	0.93426	-0.05
Mof_C 	C 	0.8685	0.59013	0.89747	-0.065
Mof_C 	C 	0.9525	0.63006	0.86474	0.158
Mof_C 	C 	0.92	0.70826	0.86534	-0.203
Mof_C 	C 	0.0667	0.59003	0.83237	-0.205
Mof_C 	C 	0.1464	0.63033	0.80687	0.126
Mof_C 	C 	0.006	0.74405	0.83775	0.131
Mof_C 	C 	0.537	0.36328	0.22172	0.462
Mof_C 	C 	0.5071	0.4565	0.2601	-0.301
Mof_C 	C 	0.5814	0.50854	0.32946	0.266
Mof_C 	C 	0.5568	0.5948	0.3644	-0.396
Mof_C 	C 	0.3923	0.5828	0.259	-0.423
Mof_C 	C 	0.417	0.49554	0.22406	0.277
Mof_C 	C 	0.457	0.62991	0.33069	0.414
Mof_C 	C 	0.3806	0.76483	0.33197	0.365
Mof_C 	C 	0.4331	0.7624	0.2638	-0.369
Mof_C 	C 	0.3865	0.81788	0.22932	0.225
Mof_C 	C 	0.2833	0.87562	0.26378	-0.247
Mof_C 	C 	0.2305	0.87658	0.33282	0.214
Mof_C 	C 	0.2783	0.82076	0.36704	-0.347
Mof_C 	C 	0.2308	0.93858	0.22922	0.393
Mof_C 	C 	0.9035	0.0184	0.358	0.084
Mof_C 	C 	0.8342	0.99415	0.40505	-0.161
Mof_C 	C 	0.7145	0.96218	0.37282	0.118
Mof_C 	C 	0.67	0.95714	0.29326	-0.17
Mof_C 	C 	0.7452	0.98268	0.24992	0.1
Mof_C 	C 	0.6375	0.93426	0.41974	-0.049
Mof_C 	C 	0.6315	0.89747	0.59013	-0.066
Mof_C 	C 	0.5475	0.86474	0.63006	0.16
Mof_C 	C 	0.58	0.86534	0.70826	-0.21
Mof_C 	C 	0.4333	0.83237	0.59003	-0.206
Mof_C 	C 	0.3536	0.80687	0.63033	0.126
Mof_C 	C 	0.494	0.83775	0.74405	0.141
Mof_C 	C 	0.037	0.77828	0.63672	0.46
Mof_C 	C 	0.0071	0.7399	0.5435	-0.305
Mof_C 	C 	0.0814	0.67054	0.49146	0.269
Mof_C 	C 	0.0568	0.6356	0.4052	-0.4
Mof_C 	C 	0.8923	0.741	0.4172	-0.426
Mof_C 	C 	0.917	0.77594	0.50446	0.282
Mof_C 	C 	0.957	0.66931	0.37009	0.417
Mof_C 	C 	0.8806	0.66803	0.23517	0.363
Mof_C 	C 	0.9331	0.7362	0.2376	-0.364
Mof_C 	C 	0.8865	0.77068	0.18212	0.222
Mof_C 	C 	0.7833	0.73622	0.12438	-0.245
Mof_C 	C 	0.7305	0.66718	0.12342	0.212
Mof_C 	C 	0.7783	0.63296	0.17924	-0.345
Mof_C 	C 	0.7308	0.77078	0.06142	0.392
Mof_C 	C 	0.4035	0.642	0.9816	0.088
Mof_C 	C 	0.3342	0.59495	0.00585	-0.166
Mof_C 	C 	0.2145	0.62718	0.03782	0.119
Mof_C 	C 	0.17	0.70674	0.04286	-0.17
Mof_C 	C 	0.2452	0.75008	0.01732	0.098
Mof_C 	C 	0.1375	0.58026	0.06574	-0.05
Mof_C 	C 	0.1315	0.40987	0.10253	-0.065
Mof_C 	C 	0.0475	0.36994	0.13526	0.158
Mof_C 	C 	0.08	0.29174	0.13466	-0.203
Mof_C 	C 	0.9333	0.40997	0.16763	-0.205
Mof_C 	C 	0.8536	0.36967	0.19313	0.126
Mof_C 	C 	0.994	0.25595	0.16225	0.131
Mof_C 	C 	0.463	0.63672	0.77828	0.462
Mof_C 	C 	0.4929	0.5435	0.7399	-0.301
Mof_C 	C 	0.4186	0.49146	0.67054	0.266
Mof_C 	C 	0.4432	0.4052	0.6356	-0.396
Mof_C 	C 	0.6077	0.4172	0.741	-0.423
Mof_C 	C 	0.583	0.50446	0.77594	0.277
Mof_C 	C 	0.543	0.37009	0.66931	0.414
Mof_C 	C 	0.6194	0.23517	0.66803	0.365
Mof_C 	C 	0.5669	0.2376	0.7362	-0.369
Mof_C 	C 	0.6135	0.18212	0.77068	0.225
Mof_C 	C 	0.7167	0.12438	0.73622	-0.247
Mof_C 	C 	0.7695	0.12342	0.66718	0.214
Mof_C 	C 	0.7217	0.17924	0.63296	-0.347
Mof_C 	C 	0.7692	0.06142	0.77078	0.393
Mof_C 	C 	0.0965	0.9816	0.642	0.084
Mof_C 	C 	0.1658	0.00585	0.59495	-0.161
Mof_C 	C 	0.2855	0.03782	0.62718	0.118
Mof_C 	C 	0.33	0.04286	0.70674	-0.17
Mof_C 	C 	0.2548	0.01732	0.75008	0.1
Mof_C 	C 	0.3625	0.06574	0.58026	-0.049
Mof_C 	C 	0.3685	0.10253	0.40987	-0.066
Mof_C 	C 	0.4525	0.13526	0.36994	0.16
Mof_C 	C 	0.42	0.13466	0.29174	-0.21
Mof_C 	C 	0.5667	0.16763	0.40997	-0.206
Mof_C 	C 	0.6464	0.19313	0.36967	0.126
Mof_C 	C 	0.506	0.16225	0.25595	0.141
Mof_S 	S 	0.75	0.08429	0.08429	0.698
Mof_S 	S 	0.25	0.91571	0.91571	0.698
Mof_N 	N 	0.6391	0.28054	0.01272	-0.236
Mof_N 	N 	0.8183	0.48872	0.93128	-0.072
Mof_N 	N 	0.9086	0.52102	0.90078	-0.064
Mof_N 	N 	0.1195	0.70758	0.81044	-0.242
Mof_N 	N 	0.8609	0.01272	0.28054	-0.236
Mof_N 	N 	0.6817	0.93128	0.48872	-0.072
Mof_N 	N 	0.5914	0.90078	0.52102	-0.064
Mof_N 	N 	0.3805	0.81044	0.70758	-0.244
Mof_N 	N 	0.3609	0.71946	0.98728	-0.236
Mof_N 	N 	0.1817	0.51128	0.06872	-0.072
Mof_N 	N 	0.0914	0.47898	0.09922	-0.064
Mof_N 	N 	0.8805	0.29242	0.18956	-0.242
Mof_N 	N 	0.1391	0.98728	0.71946	-0.236
Mof_N 	N 	0.3183	0.06872	0.51128	-0.072
Mof_N 	N 	0.4086	0.09922	0.47898	-0.064
Mof_N 	N 	0.6195	0.18956	0.29242	-0.244
Mof_O 	O 	0.3681	0.26008	0.98296	-0.436
Mof_O 	O 	0.2126	0.17314	0.94516	-0.309
Mof_O 	O 	0.0672	0.37497	0.71647	-0.352
Mof_O 	O 	0.6714	0.16692	0.10376	-0.558
Mof_O 	O 	0.8339	0.06633	0.01765	-0.34
Mof_O 	O 	0.8743	0.26034	0.33612	-0.466
Mof_O 	O 	0.0234	0.15354	0.3194	-0.459
Mof_O 	O 	0.1319	0.98296	0.26008	-0.437
Mof_O 	O 	0.2874	0.94516	0.17314	-0.31
Mof_O 	O 	0.4328	0.71647	0.37497	-0.352
Mof_O 	O 	0.8286	0.10376	0.16692	-0.559
Mof_O 	O 	0.6661	0.01765	0.06633	-0.339
Mof_O 	O 	0.6257	0.33612	0.26034	-0.466
Mof_O 	O 	0.4766	0.3194	0.15354	-0.462
Mof_O 	O 	0.6319	0.73992	0.01704	-0.436
Mof_O 	O 	0.7874	0.82686	0.05484	-0.309
Mof_O 	O 	0.9328	0.62503	0.28353	-0.352
Mof_O 	O 	0.3286	0.83308	0.89624	-0.558
Mof_O 	O 	0.1661	0.93367	0.98235	-0.34
Mof_O 	O 	0.1257	0.73966	0.66388	-0.466
Mof_O 	O 	0.9766	0.84646	0.6806	-0.459
Mof_O 	O 	0.8681	0.01704	0.73992	-0.437
Mof_O 	O 	0.7126	0.05484	0.82686	-0.31
Mof_O 	O 	0.5672	0.28353	0.62503	-0.352
Mof_O 	O 	0.1714	0.89624	0.83308	-0.559
Mof_O 	O 	0.3339	0.98235	0.93367	-0.339
Mof_O 	O 	0.3743	0.66388	0.73966	-0.466
Mof_O 	O 	0.5234	0.6806	0.84646	-0.462
_end
