# CIF file generated by openbabel 3.1.0, see https://openbabel.org
data_I
_chemical_name_common 'image0'
_cell_length_a 10.391
_cell_length_b 15.81
_cell_length_c 15.482
_cell_angle_alpha 90
_cell_angle_beta 127.56
_cell_angle_gamma 90
_space_group_name_H-M_alt 'P 1'
_space_group_name_Hall 'P 1'
loop_
    _symmetry_equiv_pos_as_xyz
    x,y,z
loop_
    _atom_site_label
    _atom_site_type_symbol
    _atom_site_fract_x
    _atom_site_fract_y
    _atom_site_fract_z
    _atom_site_occupancy
    Mn1      Mn       0.41640    0.18386    0.18495    1.000
    C1       C        0.47130    0.36180    0.32210    1.000
    N1       N        0.44460    0.30300    0.27210    1.000
    N2       N        0.40270    0.38460    0.81000    1.000
    N3       N        0.60980    0.56180    0.39660    1.000
    N4       N        0.50260    0.42290    0.39250    1.000
    N5       N        0.68800    0.16330    0.30840    1.000
    N6       N        0.46450    0.25900    0.08490    1.000
    C2       C        0.56000    0.49610    0.39070    1.000
    C3       C        0.49510    0.30380    0.04440    1.000
    N7       N        0.14920    0.29700    0.57530    1.000
    C4       C        0.79910    0.18920    0.39710    1.000
    N8       N        0.90200    0.20880    0.49750    1.000
    C5       C        0.03370    0.25530    0.53570    1.000
    N9       N        0.54590    0.36310    0.00820    1.000
    C6       C        0.46450    0.37120    0.90090    1.000
    Mn2      Mn       0.58360    0.68386    0.31505    1.000
    C7       C        0.52870    0.86180    0.17790    1.000
    N10      N        0.55540    0.80300    0.22790    1.000
    N11      N        0.59730    0.88460    0.69000    1.000
    N12      N        0.39020    0.06180    0.10340    1.000
    N13      N        0.49740    0.92290    0.10750    1.000
    N14      N        0.31200    0.66330    0.19160    1.000
    N15      N        0.53550    0.75900    0.41510    1.000
    C8       C        0.44000    0.99610    0.10930    1.000
    C9       C        0.50490    0.80380    0.45560    1.000
    N16      N        0.85080    0.79700    0.92470    1.000
    C10      C        0.20090    0.68920    0.10290    1.000
    N17      N        0.09800    0.70880    0.00250    1.000
    C11      C        0.96630    0.75530    0.96430    1.000
    N18      N        0.45410    0.86310    0.49180    1.000
    C12      C        0.53550    0.87120    0.59910    1.000
    Mn3      Mn       0.58360    0.81614    0.81505    1.000
    C13      C        0.52870    0.63820    0.67790    1.000
    N19      N        0.55540    0.69700    0.72790    1.000
    N20      N        0.59730    0.61540    0.19000    1.000
    N21      N        0.39020    0.43820    0.60340    1.000
    N22      N        0.49740    0.57710    0.60750    1.000
    N23      N        0.31200    0.83670    0.69160    1.000
    N24      N        0.53550    0.74100    0.91510    1.000
    C14      C        0.44000    0.50390    0.60930    1.000
    C15      C        0.50490    0.69620    0.95560    1.000
    N25      N        0.85080    0.70300    0.42470    1.000
    C16      C        0.20090    0.81080    0.60290    1.000
    N26      N        0.09800    0.79120    0.50250    1.000
    C17      C        0.96630    0.74470    0.46430    1.000
    N27      N        0.45410    0.63690    0.99180    1.000
    C18      C        0.53550    0.62880    0.09910    1.000
    Mn4      Mn       0.41640    0.31614    0.68495    1.000
    C19      C        0.47130    0.13820    0.82210    1.000
    N28      N        0.44460    0.19700    0.77210    1.000
    N29      N        0.40270    0.11540    0.31000    1.000
    N30      N        0.60980    0.93820    0.89660    1.000
    N31      N        0.50260    0.07710    0.89250    1.000
    N32      N        0.68800    0.33670    0.80840    1.000
    N33      N        0.46450    0.24100    0.58490    1.000
    C20      C        0.56000    0.00390    0.89070    1.000
    C21      C        0.49510    0.19620    0.54440    1.000
    N34      N        0.14920    0.20300    0.07530    1.000
    C22      C        0.79910    0.31080    0.89710    1.000
    N35      N        0.90200    0.29120    0.99750    1.000
    C23      C        0.03370    0.24470    0.03570    1.000
    N36      N        0.54590    0.13690    0.50820    1.000
    C24      C        0.46450    0.12880    0.40090    1.000
