# CIF file generated by openbabel 3.1.0, see https://openbabel.org
data_I
_chemical_name_common 'HIXDOH01_clean5b'
_cell_length_a 9.745
_cell_length_b 9.745
_cell_length_c 10.7742
_cell_angle_alpha 63.1125
_cell_angle_beta 63.1125
_cell_angle_gamma 89.9999
_space_group_name_H-M_alt 'P 1'
_space_group_name_Hall 'P 1'
loop_
    _symmetry_equiv_pos_as_xyz
    x,y,z
loop_
    _atom_site_label
    _atom_site_type_symbol
    _atom_site_fract_x
    _atom_site_fract_y
    _atom_site_fract_z
    _atom_site_occupancy
    Cu1      Cu       0.75000    0.75000    0.50000    1.000
    Cu2      Cu       0.25000    0.25000    0.50000    1.000
    W1       W        0.00000    0.00000    0.00000    1.000
    W2       W        0.50000    0.50000    0.00000    1.000
    C1       C        0.85490    0.91530    0.62800    1.000
    C2       C        0.51710    0.45670    0.62800    1.000
    C3       C        0.91530    0.51710    0.62800    1.000
    C4       C        0.45670    0.85490    0.62800    1.000
    C5       C        0.98290    0.58470    0.37200    1.000
    C6       C        0.64510    0.04330    0.37200    1.000
    C7       C        0.04330    0.98290    0.37200    1.000
    C8       C        0.58470    0.64510    0.37200    1.000
    C9       C        0.14510    0.08470    0.37200    1.000
    C10      C        0.48290    0.54330    0.37200    1.000
    C11      C        0.08470    0.48290    0.37200    1.000
    C12      C        0.54330    0.14510    0.37200    1.000
    C13      C        0.01710    0.41530    0.62800    1.000
    C14      C        0.35490    0.95670    0.62800    1.000
    C15      C        0.95670    0.01710    0.62800    1.000
    C16      C        0.41530    0.35490    0.62800    1.000
    N1       N        0.89960    0.89960    0.50000    1.000
    N2       N        0.60040    0.60040    0.50000    1.000
    N3       N        0.89960    0.60040    0.50000    1.000
    N4       N        0.60040    0.89960    0.50000    1.000
    N5       N        0.10040    0.10040    0.50000    1.000
    N6       N        0.39960    0.39960    0.50000    1.000
    N7       N        0.10040    0.39960    0.50000    1.000
    N8       N        0.39960    0.10040    0.50000    1.000
    O1       O        0.88570    0.88570    0.22860    1.000
    O2       O        0.61430    0.61430    0.77140    1.000
    O3       O        0.11430    0.11430    0.77140    1.000
    O4       O        0.38570    0.38570    0.22860    1.000
    H1       H        0.52916    0.41640    0.73895    1.000
    H2       H        0.84464    0.52916    0.73895    1.000
    H3       H        0.41640    0.73188    0.73895    1.000
    H4       H        0.97084    0.65536    0.26105    1.000
    H5       H        0.76812    0.08360    0.26105    1.000
    H6       H        0.08360    0.97084    0.26105    1.000
    H7       H        0.65536    0.76812    0.26105    1.000
    H8       H        0.26812    0.15536    0.26105    1.000
    H9       H        0.47084    0.58360    0.26105    1.000
    H10      H        0.15536    0.47084    0.26105    1.000
    H11      H        0.58360    0.26812    0.26105    1.000
    H12      H        0.02916    0.34464    0.73895    1.000
    H13      H        0.23188    0.91640    0.73895    1.000
    H14      H        0.34464    0.23188    0.73895    1.000
