data_functionalizedCrystal
_audit_creation_method	'EQeq! by Chris Wilmer'
_symmetry_space_group_name_H-M	'P1'
_symmetry_Int_Tables_number	1
_symmetry_cell_setting	triclinic
loop_
_symmetry_equiv_pos_as_xyz
  x,y,z
_cell_length_a	21.585
_cell_length_b	13.4043
_cell_length_c	22.089
_cell_angle_alpha	90
_cell_angle_beta	110.814
_cell_angle_gamma	90
loop_
_atom_site_label
_atom_site_type_symbol
_atom_site_fract_x
_atom_site_fract_y
_atom_site_fract_z
_atom_site_charge
Mof_Ag	Ag	0.92939	0.20117	0.07035	0.565
Mof_N 	N 	0.9765	0.0699	0.0268	-0.144
Mof_C 	C 	0.7827	0.2315	0.0688	-0.045
Mof_H 	H 	0.8026	0.2726	0.1082	0.022
Mof_H 	H 	0.7872	0.1604	0.0819	0.019
Mof_C 	C 	0.485	0.977	0.921	-0.46
Mof_H 	H 	0.5049	0.9301	0.8997	0.146
Mof_H 	H 	0.439	0.9908	0.8933	0.144
Mof_H 	H 	0.4852	0.9482	0.9622	0.15
Mof_Ag	Ag	0.57844	0.3243	0.92262	0.558
Mof_N 	N 	0.4751	0.305	0.6837	-0.145
Mof_N 	N 	0.818	0.2498	0.0233	-0.146
Mof_N 	N 	0.6931	0.2964	0.9704	-0.144
Mof_C 	C 	0.4352	0.255	0.7157	-0.039
Mof_H 	H 	0.3915	0.2885	0.7031	0.02
Mof_H 	H 	0.4275	0.1852	0.7004	0.019
Mof_N 	N 	0.5284	0.314	0.8104	-0.147
Mof_C 	C 	0.541	0.269	0.705	-0.036
Mof_H 	H 	0.5411	0.1991	0.6898	0.019
Mof_H 	H 	0.5678	0.3097	0.6863	0.017
Mof_N 	N 	0.5261	0.435	0.9732	-0.146
Mof_C 	C 	0.7092	0.258	0.0364	-0.041
Mof_H 	H 	0.6822	0.1975	0.0349	0.024
Mof_H 	H 	0.6972	0.3086	0.0629	0.02
Mof_N 	N 	0.544	0.167	0.9562	-0.196
Mof_C 	C 	0.7357	0.3833	0.9726	-0.041
Mof_H 	H 	0.7239	0.4382	0.9966	0.018
Mof_H 	H 	0.7277	0.4067	0.928	0.018
Mof_N 	N 	0.9898	0.3325	0.044	-0.247
Mof_C 	C 	0.8081	0.3576	0.0054	-0.042
Mof_H 	H 	0.8321	0.3739	0.9759	0.018
Mof_H 	H 	0.8271	0.3987	0.0449	0.02
Mof_C 	C 	0.7854	0.1904	0.9644	-0.037
Mof_H 	H 	0.7909	0.1186	0.9756	0.015
Mof_H 	H 	0.8073	0.2037	0.9327	0.016
Mof_C 	C 	0.7121	0.2143	0.9337	-0.053
Mof_H 	H 	0.7019	0.2351	0.8882	0.022
Mof_H 	H 	0.6858	0.1537	0.9336	0.025
Mof_C 	C 	0.516	0.413	0.7815	-0.035
Mof_H 	H 	0.5585	0.4493	0.7928	0.015
Mof_H 	H 	0.4874	0.4506	0.8002	0.017
Mof_C 	C 	0.482	0.41	0.7074	-0.05
Mof_H 	H 	0.4379	0.4418	0.6947	0.022
Mof_H 	H 	0.509	0.4486	0.6872	0.022
Mof_C 	C 	0.4681	0.256	0.7912	-0.044
Mof_H 	H 	0.4371	0.2846	0.8103	0.021
Mof_H 	H 	0.4784	0.1865	0.8072	0.024
Mof_C 	C 	0.5727	0.272	0.7812	-0.04
Mof_H 	H 	0.5846	0.2029	0.7978	0.02
Mof_H 	H 	0.6139	0.3115	0.7942	0.018
Mof_C 	C 	0.462	0.447	0.9415	-0.009
Mof_H 	H 	0.439	0.3828	0.941	0.014
Mof_H 	H 	0.4547	0.4653	0.8961	0.012
Mof_C 	C 	0.529	0.55	0.9372	-0.083
Mof_H 	H 	0.5751	0.5708	0.9455	0.029
Mof_H 	H 	0.5047	0.5474	0.8899	0.029
Mof_C 	C 	0.493	0.628	0.971	-0.067
Mof_H 	H 	0.4521	0.6555	0.9383	0.027
Mof_H 	H 	0.5229	0.6839	0.9913	0.031
Mof_C 	C 	0.4324	0.527	0.9717	-0.003
Mof_H 	H 	0.4157	0.5815	0.94	0.012
Mof_H 	H 	0.3939	0.4979	0.9799	0.007
Mof_C 	C 	0.031	0.3691	0.0351	0.197
Mof_C 	C 	0.0888	0.416	0.0218	-0.57
Mof_H 	H 	0.0949	0.3817	0.985	0.17
Mof_H 	H 	0.1291	0.4086	0.0602	0.171
Mof_H 	H 	0.0798	0.4864	0.0116	0.178
Mof_C 	C 	0.526	0.08	0.936	0.098
Mof_C 	C 	0.034	0.096	0.016	0.125
Mof_H 	H 	0.0702	0.1063	0.0578	-0.088
Mof_H 	H 	0.0264	0.1608	0.9922	-0.043
Mof_C 	C 	0.925	0.025	0.9709	0.042
Mof_H 	H 	0.907	0.0768	0.937	-0.078
Mof_H 	H 	0.8883	0.0017	0.9842	0.103
Mof_C 	C 	0.003	0.972	0.0726	0.005
Mof_H 	H 	0.0347	0.9938	0.115	-0.001
Mof_H 	H 	0.9645	0.941	0.0804	0.032
Mof_C 	C 	0.964	0.108	0.957	-0.172
Mof_H 	H 	0.9839	0.1742	0.9576	0.063
Mof_H 	H 	0.9157	0.1118	0.9318	0.119
Mof_C 	C 	0.9436	0.982	0.024	-0.003
Mof_H 	H 	0.8952	0.9931	0.0036	-0.109
Mof_H 	H 	0.9527	0.9565	0.0685	-0.02
Mof_C 	C 	0.0482	0.065	0.0586	-0.135
Mof_H 	H 	0.0598	0.0555	0.1058	0.057
Mof_H 	H 	0.0686	0.1281	0.0515	0.107
Mof_Ag	Ag	0.57061	0.70117	0.42965	0.564
Mof_N 	N 	0.5235	0.5699	0.4732	-0.146
Mof_C 	C 	0.7173	0.7315	0.4312	-0.046
Mof_H 	H 	0.6974	0.7726	0.3918	0.021
Mof_H 	H 	0.7128	0.6604	0.4181	0.019
Mof_C 	C 	0.015	0.477	0.579	-0.46
Mof_H 	H 	0.9951	0.4301	0.6003	0.146
Mof_H 	H 	0.061	0.4908	0.6067	0.144
Mof_H 	H 	0.0148	0.4482	0.5378	0.15
Mof_Ag	Ag	0.92156	0.8243	0.57738	0.558
Mof_N 	N 	0.0249	0.805	0.8163	-0.145
Mof_N 	N 	0.682	0.7498	0.4767	-0.146
Mof_N 	N 	0.8069	0.7964	0.5296	-0.144
Mof_C 	C 	0.0648	0.755	0.7843	-0.039
Mof_H 	H 	0.1085	0.7885	0.7969	0.02
Mof_H 	H 	0.0725	0.6852	0.7996	0.019
Mof_N 	N 	0.9716	0.814	0.6896	-0.147
Mof_C 	C 	0.959	0.769	0.795	-0.037
Mof_H 	H 	0.9589	0.6991	0.8102	0.019
Mof_H 	H 	0.9322	0.8097	0.8137	0.018
Mof_N 	N 	0.9739	0.935	0.5268	-0.145
Mof_C 	C 	0.7908	0.758	0.4636	-0.041
Mof_H 	H 	0.8178	0.6975	0.4651	0.024
Mof_H 	H 	0.8028	0.8086	0.4371	0.02
Mof_N 	N 	0.956	0.667	0.5438	-0.195
Mof_C 	C 	0.7643	0.8833	0.5274	-0.04
Mof_H 	H 	0.7761	0.9382	0.5034	0.018
Mof_H 	H 	0.7723	0.9067	0.572	0.017
Mof_N 	N 	0.5102	0.8325	0.456	-0.248
Mof_C 	C 	0.6919	0.8576	0.4946	-0.044
Mof_H 	H 	0.6679	0.8739	0.5241	0.018
Mof_H 	H 	0.6729	0.8987	0.4551	0.02
Mof_C 	C 	0.7146	0.6904	0.5356	-0.036
Mof_H 	H 	0.7091	0.6186	0.5244	0.015
Mof_H 	H 	0.6927	0.7037	0.5673	0.015
Mof_C 	C 	0.7879	0.7143	0.5663	-0.053
Mof_H 	H 	0.7981	0.7351	0.6118	0.023
Mof_H 	H 	0.8142	0.6537	0.5664	0.025
Mof_C 	C 	0.984	0.913	0.7185	-0.036
Mof_H 	H 	0.9415	0.9493	0.7072	0.015
Mof_H 	H 	0.0126	0.9506	0.6998	0.017
Mof_C 	C 	0.018	0.91	0.7926	-0.049
Mof_H 	H 	0.0621	0.9418	0.8053	0.021
Mof_H 	H 	0.991	0.9486	0.8128	0.021
Mof_C 	C 	0.0319	0.756	0.7088	-0.044
Mof_H 	H 	0.0629	0.7846	0.6897	0.021
Mof_H 	H 	0.0216	0.6865	0.6928	0.024
Mof_C 	C 	0.9273	0.772	0.7188	-0.04
Mof_H 	H 	0.9154	0.7029	0.7022	0.02
Mof_H 	H 	0.8861	0.8115	0.7058	0.018
Mof_C 	C 	0.038	0.947	0.5585	-0.01
Mof_H 	H 	0.061	0.8828	0.559	0.014
Mof_H 	H 	0.0453	0.9653	0.6039	0.012
Mof_C 	C 	0.971	0.05	0.5628	-0.083
Mof_H 	H 	0.9249	0.0708	0.5545	0.029
Mof_H 	H 	0.9953	0.0474	0.6101	0.029
Mof_C 	C 	0.007	0.128	0.529	-0.066
Mof_H 	H 	0.0479	0.1555	0.5617	0.027
Mof_H 	H 	0.9771	0.1839	0.5087	0.031
Mof_C 	C 	0.0676	0.027	0.5283	-0.002
Mof_H 	H 	0.0843	0.0815	0.56	0.011
Mof_H 	H 	0.1061	0.9979	0.5201	0.006
Mof_C 	C 	0.469	0.8691	0.4649	0.197
Mof_C 	C 	0.4112	0.916	0.4782	-0.568
Mof_H 	H 	0.4051	0.8817	0.515	0.169
Mof_H 	H 	0.3709	0.9086	0.4398	0.17
Mof_H 	H 	0.4202	0.9864	0.4884	0.177
Mof_C 	C 	0.974	0.58	0.564	0.098
Mof_C 	C 	0.466	0.596	0.484	0.169
Mof_H 	H 	0.4298	0.6063	0.4422	-0.111
Mof_H 	H 	0.4736	0.6608	0.5078	-0.061
Mof_C 	C 	0.575	0.525	0.5291	0.068
Mof_H 	H 	0.593	0.5768	0.563	-0.119
Mof_H 	H 	0.6117	0.5017	0.5158	0.147
Mof_C 	C 	0.497	0.472	0.4274	0.027
Mof_H 	H 	0.4653	0.4938	0.385	-0.01
Mof_H 	H 	0.5355	0.441	0.4196	0.041
Mof_C 	C 	0.536	0.608	0.543	-0.218
Mof_H 	H 	0.5161	0.6742	0.5424	0.08
Mof_H 	H 	0.5843	0.6118	0.5682	0.165
Mof_C 	C 	0.5564	0.482	0.476	-0.002
Mof_H 	H 	0.6048	0.4931	0.4964	-0.158
Mof_H 	H 	0.5473	0.4565	0.4315	-0.035
Mof_C 	C 	0.4518	0.565	0.4414	-0.178
Mof_H 	H 	0.4402	0.5555	0.3942	0.073
Mof_H 	H 	0.4314	0.6281	0.4485	0.131
Mof_Ag	Ag	0.07061	0.79883	0.92965	0.564
Mof_N 	N 	0.0235	0.9301	0.9732	-0.145
Mof_C 	C 	0.2173	0.7685	0.9312	-0.046
Mof_H 	H 	0.1974	0.7274	0.8918	0.021
Mof_H 	H 	0.2128	0.8396	0.9181	0.019
Mof_C 	C 	0.515	0.023	0.079	-0.46
Mof_H 	H 	0.4951	0.0699	0.1003	0.146
Mof_H 	H 	0.561	0.0092	0.1067	0.144
Mof_H 	H 	0.5148	0.0518	0.0378	0.15
Mof_Ag	Ag	0.42156	0.6757	0.07738	0.558
Mof_N 	N 	0.5249	0.695	0.3163	-0.145
Mof_N 	N 	0.182	0.7502	0.9767	-0.146
Mof_N 	N 	0.3069	0.7036	0.0296	-0.144
Mof_C 	C 	0.5648	0.745	0.2843	-0.039
Mof_H 	H 	0.6085	0.7115	0.2969	0.02
Mof_H 	H 	0.5725	0.8148	0.2996	0.019
Mof_N 	N 	0.4716	0.686	0.1896	-0.147
Mof_C 	C 	0.459	0.731	0.295	-0.036
Mof_H 	H 	0.4589	0.8009	0.3102	0.019
Mof_H 	H 	0.4322	0.6903	0.3137	0.017
Mof_N 	N 	0.4739	0.565	0.0268	-0.146
Mof_C 	C 	0.2908	0.742	0.9636	-0.041
Mof_H 	H 	0.3178	0.8025	0.9651	0.024
Mof_H 	H 	0.3028	0.6914	0.9371	0.02
Mof_N 	N 	0.456	0.833	0.0438	-0.196
Mof_C 	C 	0.2643	0.6167	0.0274	-0.041
Mof_H 	H 	0.2761	0.5618	0.0034	0.018
Mof_H 	H 	0.2723	0.5933	0.072	0.018
Mof_N 	N 	0.0102	0.6675	0.956	-0.247
Mof_C 	C 	0.1919	0.6424	0.9946	-0.042
Mof_H 	H 	0.1679	0.6261	0.0241	0.018
Mof_H 	H 	0.1729	0.6013	0.9551	0.02
Mof_C 	C 	0.2146	0.8096	0.0356	-0.037
Mof_H 	H 	0.2091	0.8814	0.0244	0.015
Mof_H 	H 	0.1927	0.7963	0.0673	0.016
Mof_C 	C 	0.2879	0.7857	0.0663	-0.053
Mof_H 	H 	0.2981	0.7649	0.1118	0.022
Mof_H 	H 	0.3142	0.8463	0.0664	0.025
Mof_C 	C 	0.484	0.587	0.2185	-0.035
Mof_H 	H 	0.4415	0.5507	0.2072	0.015
Mof_H 	H 	0.5126	0.5494	0.1998	0.017
Mof_C 	C 	0.518	0.59	0.2926	-0.05
Mof_H 	H 	0.5621	0.5582	0.3053	0.022
Mof_H 	H 	0.491	0.5514	0.3128	0.022
Mof_C 	C 	0.5319	0.744	0.2088	-0.044
Mof_H 	H 	0.5629	0.7154	0.1897	0.021
Mof_H 	H 	0.5216	0.8135	0.1928	0.024
Mof_C 	C 	0.4273	0.728	0.2188	-0.04
Mof_H 	H 	0.4154	0.7971	0.2022	0.02
Mof_H 	H 	0.3861	0.6885	0.2058	0.018
Mof_C 	C 	0.538	0.553	0.0585	-0.009
Mof_H 	H 	0.561	0.6172	0.059	0.014
Mof_H 	H 	0.5453	0.5347	0.1039	0.012
Mof_C 	C 	0.471	0.45	0.0628	-0.083
Mof_H 	H 	0.4249	0.4292	0.0545	0.029
Mof_H 	H 	0.4953	0.4526	0.1101	0.029
Mof_C 	C 	0.507	0.372	0.029	-0.067
Mof_H 	H 	0.5479	0.3445	0.0617	0.027
Mof_H 	H 	0.4771	0.3161	0.0087	0.031
Mof_C 	C 	0.5676	0.473	0.0283	-0.003
Mof_H 	H 	0.5843	0.4185	0.06	0.012
Mof_H 	H 	0.6061	0.5021	0.0201	0.007
Mof_C 	C 	0.969	0.6309	0.9649	0.197
Mof_C 	C 	0.9112	0.584	0.9782	-0.57
Mof_H 	H 	0.9051	0.6183	0.015	0.17
Mof_H 	H 	0.8709	0.5914	0.9398	0.171
Mof_H 	H 	0.9202	0.5136	0.9884	0.178
Mof_C 	C 	0.474	0.92	0.064	0.098
Mof_C 	C 	0.966	0.904	0.984	0.125
Mof_H 	H 	0.9298	0.8937	0.9422	-0.088
Mof_H 	H 	0.9736	0.8392	0.0078	-0.043
Mof_C 	C 	0.075	0.975	0.0291	0.042
Mof_H 	H 	0.093	0.9232	0.063	-0.078
Mof_H 	H 	0.1117	0.9983	0.0158	0.103
Mof_C 	C 	0.997	0.028	0.9274	0.005
Mof_H 	H 	0.9653	0.0062	0.885	-0.001
Mof_H 	H 	0.0355	0.059	0.9196	0.032
Mof_C 	C 	0.036	0.892	0.043	-0.172
Mof_H 	H 	0.0161	0.8258	0.0424	0.063
Mof_H 	H 	0.0843	0.8882	0.0682	0.119
Mof_C 	C 	0.0564	0.018	0.976	-0.003
Mof_H 	H 	0.1048	0.0069	0.9964	-0.109
Mof_H 	H 	0.0473	0.0435	0.9315	-0.02
Mof_C 	C 	0.9518	0.935	0.9414	-0.135
Mof_H 	H 	0.9402	0.9445	0.8942	0.057
Mof_H 	H 	0.9314	0.8719	0.9485	0.107
Mof_Ag	Ag	0.42939	0.29883	0.57035	0.564
Mof_N 	N 	0.4765	0.4301	0.5268	-0.146
Mof_C 	C 	0.2827	0.2685	0.5688	-0.046
Mof_H 	H 	0.3026	0.2274	0.6082	0.021
Mof_H 	H 	0.2872	0.3396	0.5819	0.019
Mof_C 	C 	0.985	0.523	0.421	-0.46
Mof_H 	H 	0.0049	0.5699	0.3997	0.146
Mof_H 	H 	0.939	0.5092	0.3933	0.144
Mof_H 	H 	0.9852	0.5518	0.4622	0.15
Mof_Ag	Ag	0.07844	0.1757	0.42262	0.558
Mof_N 	N 	0.9751	0.195	0.1837	-0.145
Mof_N 	N 	0.318	0.2502	0.5233	-0.146
Mof_N 	N 	0.1931	0.2036	0.4704	-0.144
Mof_C 	C 	0.9352	0.245	0.2157	-0.039
Mof_H 	H 	0.8915	0.2115	0.2031	0.02
Mof_H 	H 	0.9275	0.3148	0.2004	0.019
Mof_N 	N 	0.0284	0.186	0.3104	-0.147
Mof_C 	C 	0.041	0.231	0.205	-0.037
Mof_H 	H 	0.0411	0.3009	0.1898	0.019
Mof_H 	H 	0.0678	0.1903	0.1863	0.018
Mof_N 	N 	0.0261	0.065	0.4732	-0.145
Mof_C 	C 	0.2092	0.242	0.5364	-0.041
Mof_H 	H 	0.1822	0.3025	0.5349	0.024
Mof_H 	H 	0.1972	0.1914	0.5629	0.02
Mof_N 	N 	0.044	0.333	0.4562	-0.195
Mof_C 	C 	0.2357	0.1167	0.4726	-0.04
Mof_H 	H 	0.2239	0.0618	0.4966	0.018
Mof_H 	H 	0.2277	0.0933	0.428	0.017
Mof_N 	N 	0.4898	0.1675	0.544	-0.248
Mof_C 	C 	0.3081	0.1424	0.5054	-0.044
Mof_H 	H 	0.3321	0.1261	0.4759	0.018
Mof_H 	H 	0.3271	0.1013	0.5449	0.02
Mof_C 	C 	0.2854	0.3096	0.4644	-0.036
Mof_H 	H 	0.2909	0.3814	0.4756	0.015
Mof_H 	H 	0.3073	0.2963	0.4327	0.015
Mof_C 	C 	0.2121	0.2857	0.4337	-0.053
Mof_H 	H 	0.2019	0.2649	0.3882	0.023
Mof_H 	H 	0.1858	0.3463	0.4336	0.025
Mof_C 	C 	0.016	0.087	0.2815	-0.036
Mof_H 	H 	0.0585	0.0507	0.2928	0.015
Mof_H 	H 	0.9874	0.0494	0.3002	0.017
Mof_C 	C 	0.982	0.09	0.2074	-0.049
Mof_H 	H 	0.9379	0.0582	0.1947	0.021
Mof_H 	H 	0.009	0.0514	0.1872	0.021
Mof_C 	C 	0.9681	0.244	0.2912	-0.044
Mof_H 	H 	0.9371	0.2154	0.3103	0.021
Mof_H 	H 	0.9784	0.3135	0.3072	0.024
Mof_C 	C 	0.0727	0.228	0.2812	-0.04
Mof_H 	H 	0.0846	0.2971	0.2978	0.02
Mof_H 	H 	0.1139	0.1885	0.2942	0.018
Mof_C 	C 	0.962	0.053	0.4415	-0.01
Mof_H 	H 	0.939	0.1172	0.441	0.014
Mof_H 	H 	0.9547	0.0347	0.3961	0.012
Mof_C 	C 	0.029	0.95	0.4372	-0.083
Mof_H 	H 	0.0751	0.9292	0.4455	0.029
Mof_H 	H 	0.0047	0.9526	0.3899	0.029
Mof_C 	C 	0.993	0.872	0.471	-0.066
Mof_H 	H 	0.9521	0.8445	0.4383	0.027
Mof_H 	H 	0.0229	0.8161	0.4913	0.031
Mof_C 	C 	0.9324	0.973	0.4717	-0.002
Mof_H 	H 	0.9157	0.9185	0.44	0.011
Mof_H 	H 	0.8939	0.0021	0.4799	0.006
Mof_C 	C 	0.531	0.1309	0.5351	0.197
Mof_C 	C 	0.5888	0.084	0.5218	-0.568
Mof_H 	H 	0.5949	0.1183	0.485	0.169
Mof_H 	H 	0.6291	0.0914	0.5602	0.17
Mof_H 	H 	0.5798	0.0136	0.5116	0.177
Mof_C 	C 	0.026	0.42	0.436	0.098
Mof_C 	C 	0.534	0.404	0.516	0.169
Mof_H 	H 	0.5702	0.3937	0.5578	-0.111
Mof_H 	H 	0.5264	0.3392	0.4922	-0.061
Mof_C 	C 	0.425	0.475	0.4709	0.068
Mof_H 	H 	0.407	0.4232	0.437	-0.119
Mof_H 	H 	0.3883	0.4983	0.4842	0.147
Mof_C 	C 	0.503	0.528	0.5726	0.027
Mof_H 	H 	0.5347	0.5062	0.615	-0.01
Mof_H 	H 	0.4645	0.559	0.5804	0.041
Mof_C 	C 	0.464	0.392	0.457	-0.218
Mof_H 	H 	0.4839	0.3258	0.4576	0.08
Mof_H 	H 	0.4157	0.3882	0.4318	0.165
Mof_C 	C 	0.4436	0.518	0.524	-0.002
Mof_H 	H 	0.3952	0.5069	0.5036	-0.158
Mof_H 	H 	0.4527	0.5435	0.5685	-0.035
Mof_C 	C 	0.5482	0.435	0.5586	-0.178
Mof_H 	H 	0.5598	0.4445	0.6058	0.073
Mof_H 	H 	0.5686	0.3719	0.5515	0.131
_end
