# CIF file generated by openbabel 3.1.0, see https://openbabel.org
data_I
_chemical_name_common 'image0'
_cell_length_a 6.5771
_cell_length_b 11.1226
_cell_length_c 18.033
_cell_angle_alpha 90
_cell_angle_beta 97.602
_cell_angle_gamma 90
_space_group_name_H-M_alt 'P 1'
_space_group_name_Hall 'P 1'
loop_
    _symmetry_equiv_pos_as_xyz
    x,y,z
loop_
    _atom_site_label
    _atom_site_type_symbol
    _atom_site_fract_x
    _atom_site_fract_y
    _atom_site_fract_z
    _atom_site_occupancy
    Ca1      Ca       0.25266    0.90663    0.47691    1.000
    S1       S        0.11732    0.19898    0.71174    1.000
    O1       O        0.09550    0.09620    0.55836    1.000
    O2       O        0.42470    0.05675    0.56162    1.000
    O3       O        0.32440    0.32180    0.91011    1.000
    O4       O        0.00590    0.29400    0.85249    1.000
    C1       C        0.19460    0.28590    0.85670    1.000
    C2       C        0.27550    0.09530    0.59173    1.000
    C3       C        0.31340    0.13740    0.66982    1.000
    C4       C        0.49290    0.13720    0.71702    1.000
    H1       H        0.61500    0.10610    0.70440    1.000
    C5       C        0.47410    0.18910    0.78708    1.000
    H2       H        0.58240    0.19600    0.82560    1.000
    C6       C        0.27920    0.22820    0.79229    1.000
    Ca2      Ca       0.24734    0.40663    0.02309    1.000
    S2       S        0.38268    0.69898    0.78826    1.000
    O5       O        0.40450    0.59620    0.94164    1.000
    O6       O        0.07530    0.55675    0.93838    1.000
    O7       O        0.17560    0.82180    0.58989    1.000
    O8       O        0.49410    0.79400    0.64751    1.000
    C7       C        0.30540    0.78590    0.64330    1.000
    C8       C        0.22450    0.59530    0.90827    1.000
    C9       C        0.18660    0.63740    0.83018    1.000
    C10      C        0.00710    0.63720    0.78298    1.000
    H3       H        0.88500    0.60610    0.79560    1.000
    C11      C        0.02590    0.68910    0.71292    1.000
    H4       H        0.91760    0.69600    0.67440    1.000
    C12      C        0.22080    0.72820    0.70771    1.000
    Ca3      Ca       0.74734    0.09337    0.52309    1.000
    S3       S        0.88268    0.80102    0.28826    1.000
    O9       O        0.90450    0.90380    0.44164    1.000
    O10      O        0.57530    0.94325    0.43838    1.000
    O11      O        0.67560    0.67820    0.08989    1.000
    O12      O        0.99410    0.70600    0.14751    1.000
    C13      C        0.80540    0.71410    0.14330    1.000
    C14      C        0.72450    0.90470    0.40827    1.000
    C15      C        0.68660    0.86260    0.33018    1.000
    C16      C        0.50710    0.86280    0.28298    1.000
    H5       H        0.38500    0.89390    0.29560    1.000
    C17      C        0.52590    0.81090    0.21292    1.000
    H6       H        0.41760    0.80400    0.17440    1.000
    C18      C        0.72080    0.77180    0.20771    1.000
    Ca4      Ca       0.75266    0.59337    0.97691    1.000
    S4       S        0.61732    0.30102    0.21174    1.000
    O13      O        0.59550    0.40380    0.05836    1.000
    O14      O        0.92470    0.44325    0.06162    1.000
    O15      O        0.82440    0.17820    0.41011    1.000
    O16      O        0.50590    0.20600    0.35249    1.000
    C19      C        0.69460    0.21410    0.35670    1.000
    C20      C        0.77550    0.40470    0.09173    1.000
    C21      C        0.81340    0.36260    0.16982    1.000
    C22      C        0.99290    0.36280    0.21702    1.000
    H7       H        0.11500    0.39390    0.20440    1.000
    C23      C        0.97410    0.31090    0.28708    1.000
    H8       H        0.08240    0.30400    0.32560    1.000
    C24      C        0.77920    0.27180    0.29229    1.000
