data_functionalizedCrystal
_audit_creation_method	'EQeq! by Chris Wilmer'
_symmetry_space_group_name_H-M	'P1'
_symmetry_Int_Tables_number	1
_symmetry_cell_setting	triclinic
loop_
_symmetry_equiv_pos_as_xyz
  x,y,z
_cell_length_a	8.8533
_cell_length_b	33.7162
_cell_length_c	8.8347
_cell_angle_alpha	90
_cell_angle_beta	107.963
_cell_angle_gamma	90
loop_
_atom_site_label
_atom_site_type_symbol
_atom_site_fract_x
_atom_site_fract_y
_atom_site_fract_z
_atom_site_charge
Mof_Cu	Cu	0.74469	0.2042	0.5028	0.947
Mof_Cu	Cu	0.74287	0.04557	0.50294	0.946
Mof_O 	O 	0.8834	0.15544	0.62679	-0.266
Mof_O 	O 	0.85771	0.09051	0.63224	-0.29
Mof_O 	O 	0.6159	0.15977	0.38041	-0.291
Mof_O 	O 	0.61588	0.09437	0.35908	-0.264
Mof_O 	O 	0.61722	0.20826	0.66617	-0.264
Mof_O 	O 	0.5971	0.24961	0.8524	-0.248
Mof_O 	O 	0.87251	0.24631	0.64411	-0.292
Mof_O 	O 	0.8622	0.28745	0.83617	-0.274
Mof_O 	O 	0.9101	0.04003	0.38154	-0.271
Mof_O 	O 	0.0914	0.99839	0.35154	-0.257
Mof_O 	O 	0.57726	0.03998	0.62352	-0.275
Mof_O 	O 	0.3829	0.99849	0.62556	-0.291
Mof_C 	C 	0.8172	0.12401	0.5751	0.237
Mof_C 	C 	0.6687	0.12605	0.4239	0.234
Mof_C 	C 	0.8127	0.25925	0.7446	0.247
Mof_C 	C 	0.663	0.23743	0.7576	0.22
Mof_C 	C 	0.002	0.01081	0.423	0.233
Mof_C 	C 	0.4884	0.01124	0.5719	0.23
Mof_Cu	Cu	0.25531	0.7042	0.9972	0.942
Mof_Cu	Cu	0.25713	0.54557	0.99706	0.946
Mof_O 	O 	0.1166	0.65544	0.87321	-0.268
Mof_O 	O 	0.14229	0.59051	0.86776	-0.291
Mof_O 	O 	0.3841	0.65977	0.11959	-0.287
Mof_O 	O 	0.38412	0.59437	0.14092	-0.263
Mof_O 	O 	0.38278	0.70826	0.83383	-0.268
Mof_O 	O 	0.4029	0.74961	0.6476	-0.255
Mof_O 	O 	0.12749	0.74631	0.85589	-0.298
Mof_O 	O 	0.1378	0.78745	0.66383	-0.282
Mof_O 	O 	0.0899	0.54003	0.11846	-0.264
Mof_O 	O 	0.9086	0.49839	0.14846	-0.257
Mof_O 	O 	0.42274	0.53998	0.87648	-0.277
Mof_O 	O 	0.6171	0.49849	0.87444	-0.289
Mof_C 	C 	0.1828	0.62401	0.9249	0.228
Mof_C 	C 	0.3313	0.62605	0.0761	0.245
Mof_C 	C 	0.1873	0.75925	0.7554	0.246
Mof_C 	C 	0.337	0.73743	0.7424	0.219
Mof_C 	C 	0.998	0.51081	0.077	0.23
Mof_C 	C 	0.5116	0.51124	0.9281	0.231
Mof_Cu	Cu	0.25531	0.7958	0.4972	0.948
Mof_Cu	Cu	0.25713	0.95443	0.49706	0.947
Mof_O 	O 	0.1166	0.84456	0.37321	-0.266
Mof_O 	O 	0.14229	0.90949	0.36776	-0.29
Mof_O 	O 	0.3841	0.84023	0.61959	-0.291
Mof_O 	O 	0.38412	0.90563	0.64092	-0.264
Mof_O 	O 	0.38278	0.79174	0.33383	-0.264
Mof_O 	O 	0.4029	0.75039	0.1476	-0.248
Mof_O 	O 	0.12749	0.75369	0.35589	-0.292
Mof_O 	O 	0.1378	0.71255	0.16383	-0.274
Mof_O 	O 	0.0899	0.95997	0.61846	-0.271
Mof_O 	O 	0.9086	0.00161	0.64846	-0.257
Mof_O 	O 	0.42274	0.96002	0.37648	-0.275
Mof_O 	O 	0.6171	0.00151	0.37444	-0.291
Mof_C 	C 	0.1828	0.87599	0.4249	0.237
Mof_C 	C 	0.3313	0.87395	0.5761	0.234
Mof_C 	C 	0.1873	0.74075	0.2554	0.247
Mof_C 	C 	0.337	0.76257	0.2424	0.22
Mof_C 	C 	0.998	0.98919	0.577	0.233
Mof_C 	C 	0.5116	0.98876	0.4281	0.23
Mof_Cu	Cu	0.74469	0.2958	0.0028	0.942
Mof_Cu	Cu	0.74287	0.45443	0.00294	0.946
Mof_O 	O 	0.8834	0.34456	0.12679	-0.268
Mof_O 	O 	0.85771	0.40949	0.13224	-0.291
Mof_O 	O 	0.6159	0.34023	0.88041	-0.287
Mof_O 	O 	0.61588	0.40563	0.85908	-0.263
Mof_O 	O 	0.61722	0.29174	0.16617	-0.268
Mof_O 	O 	0.5971	0.25039	0.3524	-0.255
Mof_O 	O 	0.87251	0.25369	0.14411	-0.298
Mof_O 	O 	0.8622	0.21255	0.33617	-0.282
Mof_O 	O 	0.9101	0.45997	0.88154	-0.264
Mof_O 	O 	0.0914	0.50161	0.85154	-0.257
Mof_O 	O 	0.57726	0.46002	0.12352	-0.277
Mof_O 	O 	0.3829	0.50151	0.12556	-0.289
Mof_C 	C 	0.8172	0.37599	0.0751	0.228
Mof_C 	C 	0.6687	0.37395	0.9239	0.245
Mof_C 	C 	0.8127	0.24075	0.2446	0.246
Mof_C 	C 	0.663	0.26257	0.2576	0.219
Mof_C 	C 	0.002	0.48919	0.923	0.23
Mof_C 	C 	0.4884	0.48876	0.0719	0.231
_end
