data_functionalizedCrystal
_audit_creation_method	'EQeq! by Chris Wilmer'
_symmetry_space_group_name_H-M	'P1'
_symmetry_Int_Tables_number	1
_symmetry_cell_setting	triclinic
loop_
_symmetry_equiv_pos_as_xyz
  x,y,z
_cell_length_a	7.3635
_cell_length_b	14.1112
_cell_length_c	16.3906
_cell_angle_alpha	74.663
_cell_angle_beta	82.349
_cell_angle_gamma	89.878
loop_
_atom_site_label
_atom_site_type_symbol
_atom_site_fract_x
_atom_site_fract_y
_atom_site_fract_z
_atom_site_charge
Mof_Pt	Pt	0.49172	0.22837	0.0345	0.097
Mof_N 	N 	0.0213	0.09424	0.88385	-0.163
Mof_N 	N 	0.1789	0.08126	0.02915	-0.207
Mof_N 	N 	0.7992	0.38447	0.02452	-0.168
Mof_N 	N 	0.2108	0.39621	0.00416	-0.184
Mof_N 	N 	0.9946	0.48017	0.1398	-0.167
Mof_N 	N 	0.7986	0.075	0.03587	-0.189
Mof_C 	C 	0.0421	0.06127	0.81365	0.036
Mof_H 	H 	0.0528	0.9941	0.8202	0.035
Mof_C 	C 	0.0485	0.1221	0.73235	-0.137
Mof_H 	H 	0.0638	0.0961	0.6854	0.07
Mof_C 	C 	0.0318	0.2225	0.72096	0.097
Mof_C 	C 	0.0141	0.2568	0.793	-0.129
Mof_H 	H 	0.0051	0.3238	0.7878	0.079
Mof_C 	C 	0.0097	0.19184	0.87254	0.029
Mof_H 	H 	0.9982	0.2164	0.9202	0.075
Mof_C 	C 	0.0288	0.2863	0.63701	-0.07
Mof_C 	C 	0.021	0.3319	0.56528	0.025
Mof_C 	C 	0.2942	0.13261	0.03515	0.012
Mof_C 	C 	0.6861	0.32595	0.02987	0.015
Mof_C 	C 	0.3132	0.33441	0.0162	0.009
Mof_C 	C 	0.6802	0.12674	0.04247	0.021
Mof_C 	C 	0.1454	0.4927	0.17307	0.076
Mof_H 	H 	0.2523	0.516	0.136	-0.014
Mof_C 	C 	0.1512	0.4729	0.25948	-0.222
Mof_H 	H 	0.2594	0.4835	0.2797	0.098
Mof_C 	C 	0.994	0.4371	0.31613	0.143
Mof_C 	C 	0.8362	0.4248	0.28215	-0.186
Mof_H 	H 	0.7274	0.4017	0.3178	0.095
Mof_C 	C 	0.8428	0.4474	0.19444	0.109
Mof_H 	H 	0.7357	0.4393	0.1723	-0.012
Mof_C 	C 	0.9984	0.4086	0.4069	-0.003
Mof_C 	C 	0.0084	0.3769	0.48072	-0.059
Mof_Pt	Pt	0.50828	0.77163	0.9655	0.152
Mof_N 	N 	0.9787	0.90576	0.11615	-0.223
Mof_N 	N 	0.8211	0.91874	0.97085	-0.142
Mof_N 	N 	0.2008	0.61553	0.97548	-0.147
Mof_N 	N 	0.7892	0.60379	0.99584	-0.133
Mof_N 	N 	0.0054	0.51983	0.8602	-0.189
Mof_N 	N 	0.2014	0.925	0.96413	-0.155
Mof_C 	C 	0.9579	0.93873	0.18635	0.195
Mof_H 	H 	0.9472	0.0059	0.1798	-0.047
Mof_C 	C 	0.9515	0.8779	0.26765	-0.246
Mof_H 	H 	0.9362	0.9039	0.3146	0.129
Mof_C 	C 	0.9682	0.7775	0.27904	0.18
Mof_C 	C 	0.9859	0.7432	0.207	-0.265
Mof_H 	H 	0.9949	0.6762	0.2122	0.132
Mof_C 	C 	0.9903	0.80816	0.12746	0.213
Mof_H 	H 	0.0018	0.7836	0.0798	-0.093
Mof_C 	C 	0.9712	0.7137	0.36299	-0.067
Mof_C 	C 	0.979	0.6681	0.43472	0.003
Mof_C 	C 	0.7058	0.86739	0.96485	0.061
Mof_C 	C 	0.3139	0.67405	0.97013	0.038
Mof_C 	C 	0.6868	0.66559	0.9838	0.048
Mof_C 	C 	0.3198	0.87326	0.95753	0.053
Mof_C 	C 	0.8546	0.5073	0.82693	0.134
Mof_H 	H 	0.7477	0.484	0.864	0.004
Mof_C 	C 	0.8488	0.5271	0.74052	-0.157
Mof_H 	H 	0.7406	0.5165	0.7203	0.097
Mof_C 	C 	0.006	0.5629	0.68387	0.117
Mof_C 	C 	0.1638	0.5752	0.71785	-0.185
Mof_H 	H 	0.2726	0.5983	0.6822	0.099
Mof_C 	C 	0.1572	0.5526	0.80556	0.104
Mof_H 	H 	0.2643	0.5607	0.8277	0.002
Mof_C 	C 	0.0016	0.5914	0.5931	-0.122
Mof_C 	C 	0.9916	0.6231	0.51928	0.077
Mof_Fe	Fe	-0	0.5	-0	0.529
Mof_Fe	Fe	-0	0	-0	0.593
_end
