data_functionalizedCrystal
_audit_creation_method	'EQeq! by Chris Wilmer'
_symmetry_space_group_name_H-M	'P1'
_symmetry_Int_Tables_number	1
_symmetry_cell_setting	triclinic
loop_
_symmetry_equiv_pos_as_xyz
  x,y,z
_cell_length_a	23.5634
_cell_length_b	15.694
_cell_length_c	16.0403
_cell_angle_alpha	90
_cell_angle_beta	124.083
_cell_angle_gamma	90
loop_
_atom_site_label
_atom_site_type_symbol
_atom_site_fract_x
_atom_site_fract_y
_atom_site_fract_z
_atom_site_charge
Mof_Ho	Ho	0.81081	0.32768	0.62435	1.819
Mof_C 	C 	0.133	0.9603	0.3273	-0.155
Mof_C 	C 	0.1445	0.0423	0.3646	0.031
Mof_H 	H 	0.181	0.0534	0.4323	0.048
Mof_C 	C 	0.1028	0.1085	0.3035	-0.008
Mof_C 	C 	0.0485	0.093	0.2043	0.183
Mof_C 	C 	0.0355	0.01	0.169	-0.186
Mof_H 	H 	0.9973	0.9982	0.1027	0.11
Mof_C 	C 	0.0777	0.9438	0.2293	0.097
Mof_H 	H 	0.0689	0.8872	0.2038	0.014
Mof_C 	C 	0.02	0.1903	0.075	0.182
Mof_C 	C 	0.0856	0.1896	0.0962	-0.099
Mof_H 	H 	0.1223	0.1649	0.1569	0.093
Mof_C 	C 	0.0972	0.2253	0.0285	-0.081
Mof_C 	C 	0.043	0.2591	0.9378	-0.006
Mof_H 	H 	0.0506	0.2809	0.8896	0.035
Mof_C 	C 	0.9775	0.2608	0.9186	-0.025
Mof_C 	C 	0.9658	0.2267	0.988	-0.122
Mof_H 	H 	0.9214	0.2285	0.9757	0.115
Mof_C 	C 	0.1808	0.8881	0.3918	0.47
Mof_C 	C 	0.169	0.2268	0.0542	0.427
Mof_C 	C 	0.9183	0.2958	0.8202	0.293
Mof_N 	N 	0.1184	0.1936	0.3466	0.01
Mof_O 	O 	0.1736	0.8197	0.3463	-0.473
Mof_O 	O 	0.22316	0.9031	0.4836	-0.509
Mof_O 	O 	0.1534	0.2001	0.4391	-0.11
Mof_O 	O 	0.0963	0.2551	0.2904	-0.103
Mof_O 	O 	0.21494	0.1889	0.1324	-0.459
Mof_O 	O 	0.18153	0.2665	0.9982	-0.549
Mof_O 	O 	0.9292	0.3201	0.755	-0.433
Mof_O 	O 	0.86015	0.2983	0.8044	-0.377
Mof_O 	O 	0.0044	0.1557	0.1404	-0.221
Mof_Ho	Ho	0.31081	0.82768	0.62435	1.818
Mof_C 	C 	0.633	0.4603	0.3273	-0.156
Mof_C 	C 	0.6445	0.5423	0.3646	0.03
Mof_H 	H 	0.681	0.5534	0.4323	0.047
Mof_C 	C 	0.6028	0.6085	0.3035	-0.009
Mof_C 	C 	0.5485	0.593	0.2043	0.181
Mof_C 	C 	0.5355	0.51	0.169	-0.184
Mof_H 	H 	0.4973	0.4982	0.1027	0.107
Mof_C 	C 	0.5777	0.4438	0.2293	0.094
Mof_H 	H 	0.5689	0.3872	0.2038	0.014
Mof_C 	C 	0.52	0.6903	0.075	0.184
Mof_C 	C 	0.5856	0.6896	0.0962	-0.101
Mof_H 	H 	0.6223	0.6649	0.1569	0.093
Mof_C 	C 	0.5972	0.7253	0.0285	-0.079
Mof_C 	C 	0.543	0.7591	0.9378	-0.008
Mof_H 	H 	0.5506	0.7809	0.8896	0.035
Mof_C 	C 	0.4775	0.7608	0.9186	-0.023
Mof_C 	C 	0.4658	0.7267	0.988	-0.125
Mof_H 	H 	0.4214	0.7285	0.9757	0.116
Mof_C 	C 	0.6808	0.3881	0.3918	0.469
Mof_C 	C 	0.669	0.7268	0.0542	0.428
Mof_C 	C 	0.4183	0.7958	0.8202	0.293
Mof_N 	N 	0.6184	0.6936	0.3466	0.01
Mof_O 	O 	0.6736	0.3197	0.3463	-0.473
Mof_O 	O 	0.72316	0.4031	0.4836	-0.509
Mof_O 	O 	0.6534	0.7001	0.4391	-0.11
Mof_O 	O 	0.5963	0.7551	0.2904	-0.103
Mof_O 	O 	0.71494	0.6889	0.1324	-0.459
Mof_O 	O 	0.68153	0.7665	0.9982	-0.55
Mof_O 	O 	0.4292	0.8201	0.755	-0.433
Mof_O 	O 	0.36015	0.7983	0.8044	-0.377
Mof_O 	O 	0.5044	0.6557	0.1404	-0.221
Mof_Ho	Ho	0.18919	0.32768	0.87565	1.818
Mof_C 	C 	0.867	0.9603	0.1727	-0.155
Mof_C 	C 	0.8555	0.0423	0.1354	0.028
Mof_H 	H 	0.819	0.0534	0.0677	0.047
Mof_C 	C 	0.8972	0.1085	0.1965	-0.009
Mof_C 	C 	0.9515	0.093	0.2957	0.181
Mof_C 	C 	0.9645	0.01	0.331	-0.186
Mof_H 	H 	0.0027	0.9982	0.3973	0.108
Mof_C 	C 	0.9223	0.9438	0.2707	0.095
Mof_H 	H 	0.9311	0.8872	0.2962	0.014
Mof_C 	C 	0.98	0.1903	0.425	0.182
Mof_C 	C 	0.9144	0.1896	0.4038	-0.1
Mof_H 	H 	0.8777	0.1649	0.3431	0.093
Mof_C 	C 	0.9028	0.2253	0.4715	-0.08
Mof_C 	C 	0.957	0.2591	0.5622	-0.007
Mof_H 	H 	0.9494	0.2809	0.6104	0.035
Mof_C 	C 	0.0225	0.2608	0.5814	-0.024
Mof_C 	C 	0.0342	0.2267	0.512	-0.123
Mof_H 	H 	0.0786	0.2285	0.5243	0.116
Mof_C 	C 	0.8192	0.8881	0.1082	0.469
Mof_C 	C 	0.831	0.2268	0.4458	0.428
Mof_C 	C 	0.0817	0.2958	0.6798	0.293
Mof_N 	N 	0.8816	0.1936	0.1534	0.01
Mof_O 	O 	0.8264	0.8197	0.1537	-0.473
Mof_O 	O 	0.77684	0.9031	0.0164	-0.508
Mof_O 	O 	0.8466	0.2001	0.0609	-0.111
Mof_O 	O 	0.9037	0.2551	0.2096	-0.103
Mof_O 	O 	0.78506	0.1889	0.3676	-0.459
Mof_O 	O 	0.81847	0.2665	0.5018	-0.55
Mof_O 	O 	0.0708	0.3201	0.745	-0.433
Mof_O 	O 	0.13985	0.2983	0.6956	-0.377
Mof_O 	O 	0.9956	0.1557	0.3596	-0.221
Mof_Ho	Ho	0.68919	0.82768	0.87565	1.817
Mof_C 	C 	0.367	0.4603	0.1727	-0.156
Mof_C 	C 	0.3555	0.5423	0.1354	0.03
Mof_H 	H 	0.319	0.5534	0.0677	0.047
Mof_C 	C 	0.3972	0.6085	0.1965	-0.009
Mof_C 	C 	0.4515	0.593	0.2957	0.181
Mof_C 	C 	0.4645	0.51	0.331	-0.184
Mof_H 	H 	0.5027	0.4982	0.3973	0.107
Mof_C 	C 	0.4223	0.4438	0.2707	0.094
Mof_H 	H 	0.4311	0.3872	0.2962	0.014
Mof_C 	C 	0.48	0.6903	0.425	0.182
Mof_C 	C 	0.4144	0.6896	0.4038	-0.1
Mof_H 	H 	0.3777	0.6649	0.3431	0.093
Mof_C 	C 	0.4028	0.7253	0.4715	-0.08
Mof_C 	C 	0.457	0.7591	0.5622	-0.007
Mof_H 	H 	0.4494	0.7809	0.6104	0.035
Mof_C 	C 	0.5225	0.7608	0.5814	-0.024
Mof_C 	C 	0.5342	0.7267	0.512	-0.124
Mof_H 	H 	0.5786	0.7285	0.5243	0.116
Mof_C 	C 	0.3192	0.3881	0.1082	0.469
Mof_C 	C 	0.331	0.7268	0.4458	0.428
Mof_C 	C 	0.5817	0.7958	0.6798	0.293
Mof_N 	N 	0.3816	0.6936	0.1534	0.01
Mof_O 	O 	0.3264	0.3197	0.1537	-0.473
Mof_O 	O 	0.27684	0.4031	0.0164	-0.509
Mof_O 	O 	0.3466	0.7001	0.0609	-0.11
Mof_O 	O 	0.4037	0.7551	0.2096	-0.103
Mof_O 	O 	0.28506	0.6889	0.3676	-0.459
Mof_O 	O 	0.31847	0.7665	0.5018	-0.55
Mof_O 	O 	0.5708	0.8201	0.745	-0.433
Mof_O 	O 	0.63985	0.7983	0.6956	-0.376
Mof_O 	O 	0.4956	0.6557	0.3596	-0.221
Mof_Ho	Ho	0.18919	0.67232	0.37565	1.818
Mof_C 	C 	0.867	0.0397	0.6727	-0.156
Mof_C 	C 	0.8555	0.9577	0.6354	0.03
Mof_H 	H 	0.819	0.9466	0.5677	0.047
Mof_C 	C 	0.8972	0.8915	0.6965	-0.009
Mof_C 	C 	0.9515	0.907	0.7957	0.182
Mof_C 	C 	0.9645	0.99	0.831	-0.187
Mof_H 	H 	0.0027	0.0018	0.8973	0.109
Mof_C 	C 	0.9223	0.0562	0.7707	0.096
Mof_H 	H 	0.9311	0.1128	0.7962	0.013
Mof_C 	C 	0.98	0.8097	0.925	0.181
Mof_C 	C 	0.9144	0.8104	0.9038	-0.1
Mof_H 	H 	0.8777	0.8351	0.8431	0.093
Mof_C 	C 	0.9028	0.7747	0.9715	-0.081
Mof_C 	C 	0.957	0.7409	0.0622	-0.006
Mof_H 	H 	0.9494	0.7191	0.1104	0.035
Mof_C 	C 	0.0225	0.7392	0.0814	-0.025
Mof_C 	C 	0.0342	0.7733	0.012	-0.122
Mof_H 	H 	0.0786	0.7715	0.0243	0.115
Mof_C 	C 	0.8192	0.1119	0.6082	0.47
Mof_C 	C 	0.831	0.7732	0.9458	0.427
Mof_C 	C 	0.0817	0.7042	0.1798	0.293
Mof_N 	N 	0.8816	0.8064	0.6534	0.01
Mof_O 	O 	0.8264	0.1803	0.6537	-0.473
Mof_O 	O 	0.77684	0.0969	0.5164	-0.509
Mof_O 	O 	0.8466	0.7999	0.5609	-0.11
Mof_O 	O 	0.9037	0.7449	0.7096	-0.103
Mof_O 	O 	0.78506	0.8111	0.8676	-0.459
Mof_O 	O 	0.81847	0.7335	0.0018	-0.549
Mof_O 	O 	0.0708	0.6799	0.245	-0.433
Mof_O 	O 	0.13985	0.7017	0.1956	-0.377
Mof_O 	O 	0.9956	0.8443	0.8596	-0.221
Mof_Ho	Ho	0.68919	0.17232	0.37565	1.818
Mof_C 	C 	0.367	0.5397	0.6727	-0.156
Mof_C 	C 	0.3555	0.4577	0.6354	0.03
Mof_H 	H 	0.319	0.4466	0.5677	0.047
Mof_C 	C 	0.3972	0.3915	0.6965	-0.009
Mof_C 	C 	0.4515	0.407	0.7957	0.181
Mof_C 	C 	0.4645	0.49	0.831	-0.184
Mof_H 	H 	0.5027	0.5018	0.8973	0.107
Mof_C 	C 	0.4223	0.5562	0.7707	0.094
Mof_H 	H 	0.4311	0.6128	0.7962	0.014
Mof_C 	C 	0.48	0.3097	0.925	0.184
Mof_C 	C 	0.4144	0.3104	0.9038	-0.101
Mof_H 	H 	0.3777	0.3351	0.8431	0.093
Mof_C 	C 	0.4028	0.2747	0.9715	-0.079
Mof_C 	C 	0.457	0.2409	0.0622	-0.008
Mof_H 	H 	0.4494	0.2191	0.1104	0.035
Mof_C 	C 	0.5225	0.2392	0.0814	-0.023
Mof_C 	C 	0.5342	0.2733	0.012	-0.125
Mof_H 	H 	0.5786	0.2715	0.0243	0.116
Mof_C 	C 	0.3192	0.6119	0.6082	0.469
Mof_C 	C 	0.331	0.2732	0.9458	0.428
Mof_C 	C 	0.5817	0.2042	0.1798	0.293
Mof_N 	N 	0.3816	0.3064	0.6534	0.01
Mof_O 	O 	0.3264	0.6803	0.6537	-0.473
Mof_O 	O 	0.27684	0.5969	0.5164	-0.509
Mof_O 	O 	0.3466	0.2999	0.5609	-0.11
Mof_O 	O 	0.4037	0.2449	0.7096	-0.103
Mof_O 	O 	0.28506	0.3111	0.8676	-0.459
Mof_O 	O 	0.31847	0.2335	0.0018	-0.55
Mof_O 	O 	0.5708	0.1799	0.245	-0.433
Mof_O 	O 	0.63985	0.2017	0.1956	-0.377
Mof_O 	O 	0.4956	0.3443	0.8596	-0.221
Mof_Ho	Ho	0.81081	0.67232	0.12435	1.818
Mof_C 	C 	0.133	0.0397	0.8273	-0.155
Mof_C 	C 	0.1445	0.9577	0.8646	0.028
Mof_H 	H 	0.181	0.9466	0.9323	0.047
Mof_C 	C 	0.1028	0.8915	0.8035	-0.009
Mof_C 	C 	0.0485	0.907	0.7043	0.181
Mof_C 	C 	0.0355	0.99	0.669	-0.186
Mof_H 	H 	0.9973	0.0018	0.6027	0.108
Mof_C 	C 	0.0777	0.0562	0.7293	0.095
Mof_H 	H 	0.0689	0.1128	0.7038	0.014
Mof_C 	C 	0.02	0.8097	0.575	0.182
Mof_C 	C 	0.0856	0.8104	0.5962	-0.1
Mof_H 	H 	0.1223	0.8351	0.6569	0.093
Mof_C 	C 	0.0972	0.7747	0.5285	-0.08
Mof_C 	C 	0.043	0.7409	0.4378	-0.007
Mof_H 	H 	0.0506	0.7191	0.3896	0.035
Mof_C 	C 	0.9775	0.7392	0.4186	-0.024
Mof_C 	C 	0.9658	0.7733	0.488	-0.123
Mof_H 	H 	0.9214	0.7715	0.4757	0.116
Mof_C 	C 	0.1808	0.1119	0.8918	0.469
Mof_C 	C 	0.169	0.7732	0.5542	0.428
Mof_C 	C 	0.9183	0.7042	0.3202	0.293
Mof_N 	N 	0.1184	0.8064	0.8466	0.01
Mof_O 	O 	0.1736	0.1803	0.8463	-0.473
Mof_O 	O 	0.22316	0.0969	0.9836	-0.508
Mof_O 	O 	0.1534	0.7999	0.9391	-0.111
Mof_O 	O 	0.0963	0.7449	0.7904	-0.103
Mof_O 	O 	0.21494	0.8111	0.6324	-0.459
Mof_O 	O 	0.18153	0.7335	0.4982	-0.55
Mof_O 	O 	0.9292	0.6799	0.255	-0.433
Mof_O 	O 	0.86015	0.7017	0.3044	-0.377
Mof_O 	O 	0.0044	0.8443	0.6404	-0.221
Mof_Ho	Ho	0.31081	0.17232	0.12435	1.817
Mof_C 	C 	0.633	0.5397	0.8273	-0.156
Mof_C 	C 	0.6445	0.4577	0.8646	0.03
Mof_H 	H 	0.681	0.4466	0.9323	0.047
Mof_C 	C 	0.6028	0.3915	0.8035	-0.009
Mof_C 	C 	0.5485	0.407	0.7043	0.181
Mof_C 	C 	0.5355	0.49	0.669	-0.184
Mof_H 	H 	0.4973	0.5018	0.6027	0.107
Mof_C 	C 	0.5777	0.5562	0.7293	0.094
Mof_H 	H 	0.5689	0.6128	0.7038	0.014
Mof_C 	C 	0.52	0.3097	0.575	0.182
Mof_C 	C 	0.5856	0.3104	0.5962	-0.1
Mof_H 	H 	0.6223	0.3351	0.6569	0.093
Mof_C 	C 	0.5972	0.2747	0.5285	-0.08
Mof_C 	C 	0.543	0.2409	0.4378	-0.007
Mof_H 	H 	0.5506	0.2191	0.3896	0.035
Mof_C 	C 	0.4775	0.2392	0.4186	-0.024
Mof_C 	C 	0.4658	0.2733	0.488	-0.124
Mof_H 	H 	0.4214	0.2715	0.4757	0.116
Mof_C 	C 	0.6808	0.6119	0.8918	0.469
Mof_C 	C 	0.669	0.2732	0.5542	0.428
Mof_C 	C 	0.4183	0.2042	0.3202	0.293
Mof_N 	N 	0.6184	0.3064	0.8466	0.01
Mof_O 	O 	0.6736	0.6803	0.8463	-0.473
Mof_O 	O 	0.72316	0.5969	0.9836	-0.509
Mof_O 	O 	0.6534	0.2999	0.9391	-0.11
Mof_O 	O 	0.5963	0.2449	0.7904	-0.103
Mof_O 	O 	0.71494	0.3111	0.6324	-0.459
Mof_O 	O 	0.68153	0.2335	0.4982	-0.55
Mof_O 	O 	0.4292	0.1799	0.255	-0.433
Mof_O 	O 	0.36015	0.2017	0.3044	-0.376
Mof_O 	O 	0.5044	0.3443	0.6404	-0.221
_end
