data_functionalizedCrystal
_audit_creation_method	'EQeq! by Chris Wilmer'
_symmetry_space_group_name_H-M	'P1'
_symmetry_Int_Tables_number	1
_symmetry_cell_setting	triclinic
loop_
_symmetry_equiv_pos_as_xyz
  x,y,z
_cell_length_a	9.2307
_cell_length_b	13.6222
_cell_length_c	14.7072
_cell_angle_alpha	90
_cell_angle_beta	90.271
_cell_angle_gamma	90
loop_
_atom_site_label
_atom_site_type_symbol
_atom_site_fract_x
_atom_site_fract_y
_atom_site_fract_z
_atom_site_charge
Mof_Nd	Nd	0.25085	0.50245	0.09312	2.663
Mof_C 	C 	0.0024	0.6104	0.3295	-0.065
Mof_C 	C 	0.0266	0.704	0.3658	0.041
Mof_H 	H 	0.0916	0.7479	0.3367	0.033
Mof_C 	C 	0.9546	0.7327	0.4451	-0.156
Mof_C 	C 	0.8643	0.666	0.4883	-0.03
Mof_H 	H 	0.815	0.6856	0.5418	0.052
Mof_C 	C 	0.8439	0.5709	0.4551	0.069
Mof_C 	C 	0.9109	0.5459	0.3742	-0.075
Mof_H 	H 	0.8938	0.4828	0.3487	0.07
Mof_C 	C 	0.7584	0.4976	0.5097	-0.229
Mof_H 	H 	0.8275	0.4586	0.5466	0.103
Mof_H 	H 	0.6962	0.5344	0.5525	0.103
Mof_C 	C 	0.6642	0.4278	0.4572	0.069
Mof_C 	C 	0.6434	0.333	0.4896	-0.025
Mof_H 	H 	0.6969	0.3112	0.5411	0.05
Mof_C 	C 	0.5451	0.2693	0.4476	-0.164
Mof_C 	C 	0.468	0.3007	0.3716	0.046
Mof_H 	H 	0.3983	0.2589	0.3439	0.031
Mof_C 	C 	0.4937	0.3942	0.3363	-0.069
Mof_C 	C 	0.5908	0.4568	0.3793	-0.069
Mof_H 	H 	0.6072	0.5205	0.3551	0.07
Mof_C 	C 	0.0809	0.5752	0.2461	0.311
Mof_C 	C 	0.9739	0.8333	0.485	0.525
Mof_C 	C 	0.5257	0.1667	0.4867	0.589
Mof_C 	C 	0.4142	0.432	0.2534	0.307
Mof_O 	O 	0.0249	0.5077	0.1994	-0.437
Mof_O 	O 	0.2027	0.6125	0.2281	-0.444
Mof_O 	O 	0.0612	0.8904	0.4487	-0.63
Mof_O 	O 	0.8996	0.8552	0.5538	-0.582
Mof_O 	O 	0.6178	0.1389	0.5438	-0.633
Mof_O 	O 	0.4222	0.1183	0.4594	-0.667
Mof_O 	O 	0.2949	0.3943	0.2324	-0.44
Mof_O 	O 	0.4713	0.5016	0.2077	-0.418
Mof_Nd	Nd	0.24915	0.00245	0.40687	2.661
Mof_C 	C 	0.4976	0.1104	0.1705	-0.067
Mof_C 	C 	0.4734	0.204	0.1342	0.037
Mof_H 	H 	0.4084	0.2479	0.1633	0.034
Mof_C 	C 	0.5454	0.2327	0.0549	-0.151
Mof_C 	C 	0.6357	0.166	0.0117	-0.035
Mof_H 	H 	0.685	0.1856	0.9582	0.055
Mof_C 	C 	0.6561	0.0709	0.0449	0.073
Mof_C 	C 	0.5891	0.0459	0.1258	-0.071
Mof_H 	H 	0.6062	0.9828	0.1513	0.069
Mof_C 	C 	0.7416	0.9976	0.9903	-0.237
Mof_H 	H 	0.6725	0.9586	0.9534	0.105
Mof_H 	H 	0.8038	0.0344	0.9475	0.108
Mof_C 	C 	0.8358	0.9278	0.0428	0.079
Mof_C 	C 	0.8566	0.833	0.0104	-0.038
Mof_H 	H 	0.8031	0.8112	0.9589	0.056
Mof_C 	C 	0.9549	0.7693	0.0524	-0.163
Mof_C 	C 	0.032	0.8007	0.1284	0.046
Mof_H 	H 	0.1017	0.7589	0.1561	0.031
Mof_C 	C 	0.0063	0.8942	0.1637	-0.055
Mof_C 	C 	0.9092	0.9568	0.1207	-0.095
Mof_H 	H 	0.8928	0.0205	0.1449	0.082
Mof_C 	C 	0.4191	0.0752	0.2539	0.311
Mof_C 	C 	0.5261	0.3333	0.015	0.53
Mof_C 	C 	0.9743	0.6667	0.0133	0.575
Mof_C 	C 	0.0858	0.932	0.2466	0.309
Mof_O 	O 	0.4751	0.0077	0.3006	-0.436
Mof_O 	O 	0.2973	0.1125	0.2719	-0.444
Mof_O 	O 	0.4388	0.3904	0.0513	-0.636
Mof_O 	O 	0.6004	0.3552	0.9462	-0.583
Mof_O 	O 	0.8822	0.6389	0.9562	-0.628
Mof_O 	O 	0.0778	0.6183	0.0406	-0.66
Mof_O 	O 	0.2051	0.8943	0.2676	-0.439
Mof_O 	O 	0.0287	0.0016	0.2923	-0.421
Mof_Nd	Nd	0.74915	0.49755	0.90687	2.662
Mof_C 	C 	0.9976	0.3896	0.6705	-0.066
Mof_C 	C 	0.9734	0.296	0.6342	0.041
Mof_H 	H 	0.9084	0.2521	0.6633	0.033
Mof_C 	C 	0.0454	0.2673	0.5549	-0.156
Mof_C 	C 	0.1357	0.334	0.5117	-0.03
Mof_H 	H 	0.185	0.3144	0.4582	0.052
Mof_C 	C 	0.1561	0.4291	0.5449	0.069
Mof_C 	C 	0.0891	0.4541	0.6258	-0.075
Mof_H 	H 	0.1062	0.5172	0.6513	0.07
Mof_C 	C 	0.2416	0.5024	0.4903	-0.229
Mof_H 	H 	0.1725	0.5414	0.4534	0.103
Mof_H 	H 	0.3038	0.4656	0.4475	0.103
Mof_C 	C 	0.3358	0.5722	0.5428	0.069
Mof_C 	C 	0.3566	0.667	0.5104	-0.025
Mof_H 	H 	0.3031	0.6888	0.4589	0.05
Mof_C 	C 	0.4549	0.7307	0.5524	-0.164
Mof_C 	C 	0.532	0.6993	0.6284	0.046
Mof_H 	H 	0.6017	0.7411	0.6561	0.031
Mof_C 	C 	0.5063	0.6058	0.6637	-0.069
Mof_C 	C 	0.4092	0.5432	0.6207	-0.069
Mof_H 	H 	0.3928	0.4795	0.6449	0.07
Mof_C 	C 	0.9191	0.4248	0.7539	0.311
Mof_C 	C 	0.0261	0.1667	0.515	0.525
Mof_C 	C 	0.4743	0.8333	0.5133	0.589
Mof_C 	C 	0.5858	0.568	0.7466	0.307
Mof_O 	O 	0.9751	0.4923	0.8006	-0.437
Mof_O 	O 	0.7973	0.3875	0.7719	-0.444
Mof_O 	O 	0.9388	0.1096	0.5513	-0.63
Mof_O 	O 	0.1004	0.1448	0.4462	-0.582
Mof_O 	O 	0.3822	0.8611	0.4562	-0.633
Mof_O 	O 	0.5778	0.8817	0.5406	-0.667
Mof_O 	O 	0.7051	0.6057	0.7676	-0.44
Mof_O 	O 	0.5287	0.4984	0.7923	-0.418
Mof_Nd	Nd	0.75085	0.99755	0.59312	2.661
Mof_C 	C 	0.5024	0.8896	0.8295	-0.067
Mof_C 	C 	0.5266	0.796	0.8658	0.037
Mof_H 	H 	0.5916	0.7521	0.8367	0.034
Mof_C 	C 	0.4546	0.7673	0.9451	-0.151
Mof_C 	C 	0.3643	0.834	0.9883	-0.035
Mof_H 	H 	0.315	0.8144	0.0418	0.055
Mof_C 	C 	0.3439	0.9291	0.9551	0.073
Mof_C 	C 	0.4109	0.9541	0.8742	-0.071
Mof_H 	H 	0.3938	0.0172	0.8487	0.069
Mof_C 	C 	0.2584	0.0024	0.0097	-0.237
Mof_H 	H 	0.3275	0.0414	0.0466	0.105
Mof_H 	H 	0.1962	0.9656	0.0525	0.108
Mof_C 	C 	0.1642	0.0722	0.9572	0.079
Mof_C 	C 	0.1434	0.167	0.9896	-0.038
Mof_H 	H 	0.1969	0.1888	0.0411	0.056
Mof_C 	C 	0.0451	0.2307	0.9476	-0.163
Mof_C 	C 	0.968	0.1993	0.8716	0.046
Mof_H 	H 	0.8983	0.2411	0.8439	0.031
Mof_C 	C 	0.9937	0.1058	0.8363	-0.055
Mof_C 	C 	0.0908	0.0432	0.8793	-0.095
Mof_H 	H 	0.1072	0.9795	0.8551	0.082
Mof_C 	C 	0.5809	0.9248	0.7461	0.311
Mof_C 	C 	0.4739	0.6667	0.985	0.53
Mof_C 	C 	0.0257	0.3333	0.9867	0.575
Mof_C 	C 	0.9142	0.068	0.7534	0.309
Mof_O 	O 	0.5249	0.9923	0.6994	-0.436
Mof_O 	O 	0.7027	0.8875	0.7281	-0.444
Mof_O 	O 	0.5612	0.6096	0.9487	-0.636
Mof_O 	O 	0.3996	0.6448	0.0538	-0.583
Mof_O 	O 	0.1178	0.3611	0.0438	-0.628
Mof_O 	O 	0.9222	0.3817	0.9594	-0.66
Mof_O 	O 	0.7949	0.1057	0.7324	-0.439
Mof_O 	O 	0.9713	0.9984	0.7077	-0.421
_end
