data_functionalizedCrystal
_audit_creation_method	'EQeq! by Chris Wilmer'
_symmetry_space_group_name_H-M	'P1'
_symmetry_Int_Tables_number	1
_symmetry_cell_setting	triclinic
loop_
_symmetry_equiv_pos_as_xyz
  x,y,z
_cell_length_a	10.1919
_cell_length_b	13.528
_cell_length_c	13.528
_cell_angle_alpha	104.002
_cell_angle_beta	96.181
_cell_angle_gamma	83.819
loop_
_atom_site_label
_atom_site_type_symbol
_atom_site_fract_x
_atom_site_fract_y
_atom_site_fract_z
_atom_site_charge
Mof_U 	U 	0.75	0.6489	0.6489	-0.013
Mof_U 	U 	0.25	0.3511	0.3511	-0.013
Mof_H 	H 	0.3991	0.3109	0.7495	0.111
Mof_H 	H 	0.8075	0.427	0.8938	0.086
Mof_H 	H 	0.7407	0.42	0.9908	0.063
Mof_H 	H 	0.6128	0.5104	0.8328	0.083
Mof_H 	H 	0.5459	0.5132	0.933	0.065
Mof_H 	H 	0.6267	0.3295	0.7939	0.062
Mof_H 	H 	0.5556	0.3339	0.8923	0.043
Mof_H 	H 	0.3375	0.4992	0.8728	0.067
Mof_H 	H 	0.2359	0.4345	0.7949	0.087
Mof_H 	H 	0.623	0.6445	0.0455	0.049
Mof_H 	H 	0.7483	0.6882	0.1124	0.056
Mof_H 	H 	0.7317	0.6363	0.8857	0.125
Mof_H 	H 	0.836	0.6951	0.9661	0.118
Mof_H 	H 	0.5266	0.4102	0.6676	0.151
Mof_H 	H 	0.4136	0.4944	0.7076	0.137
Mof_H 	H 	0.1009	0.7495	0.3109	0.111
Mof_H 	H 	0.6925	0.8938	0.427	0.086
Mof_H 	H 	0.7593	0.9908	0.42	0.063
Mof_H 	H 	0.8872	0.8328	0.5104	0.082
Mof_H 	H 	0.9541	0.933	0.5132	0.064
Mof_H 	H 	0.8733	0.7939	0.3295	0.062
Mof_H 	H 	0.9444	0.8923	0.3339	0.043
Mof_H 	H 	0.1625	0.8728	0.4992	0.067
Mof_H 	H 	0.2641	0.7949	0.4345	0.087
Mof_H 	H 	0.877	0.0455	0.6445	0.049
Mof_H 	H 	0.7517	0.1124	0.6882	0.056
Mof_H 	H 	0.7683	0.8857	0.6363	0.125
Mof_H 	H 	0.664	0.9661	0.6951	0.119
Mof_H 	H 	0.9734	0.6676	0.4102	0.151
Mof_H 	H 	0.0864	0.7076	0.4944	0.137
Mof_H 	H 	0.6009	0.6891	0.2505	0.111
Mof_H 	H 	0.1925	0.573	0.1062	0.086
Mof_H 	H 	0.2593	0.58	0.0092	0.063
Mof_H 	H 	0.3872	0.4896	0.1672	0.083
Mof_H 	H 	0.4541	0.4868	0.067	0.065
Mof_H 	H 	0.3733	0.6705	0.2061	0.062
Mof_H 	H 	0.4444	0.6661	0.1077	0.043
Mof_H 	H 	0.6625	0.5008	0.1272	0.067
Mof_H 	H 	0.7641	0.5655	0.2051	0.087
Mof_H 	H 	0.377	0.3555	0.9545	0.049
Mof_H 	H 	0.2517	0.3118	0.8876	0.056
Mof_H 	H 	0.2683	0.3637	0.1143	0.125
Mof_H 	H 	0.164	0.3049	0.0339	0.118
Mof_H 	H 	0.4734	0.5898	0.3324	0.151
Mof_H 	H 	0.5864	0.5056	0.2924	0.137
Mof_H 	H 	0.8991	0.2505	0.6891	0.111
Mof_H 	H 	0.3075	0.1062	0.573	0.086
Mof_H 	H 	0.2407	0.0092	0.58	0.063
Mof_H 	H 	0.1128	0.1672	0.4896	0.082
Mof_H 	H 	0.0459	0.067	0.4868	0.064
Mof_H 	H 	0.1267	0.2061	0.6705	0.062
Mof_H 	H 	0.0556	0.1077	0.6661	0.043
Mof_H 	H 	0.8375	0.1272	0.5008	0.067
Mof_H 	H 	0.7359	0.2051	0.5655	0.087
Mof_H 	H 	0.123	0.9545	0.3555	0.049
Mof_H 	H 	0.2483	0.8876	0.3118	0.056
Mof_H 	H 	0.2317	0.1143	0.3637	0.125
Mof_H 	H 	0.336	0.0339	0.3049	0.119
Mof_H 	H 	0.0266	0.3324	0.5898	0.151
Mof_H 	H 	0.9136	0.2924	0.5056	0.137
Mof_C 	C 	0.7449	0.4621	0.9425	-0.067
Mof_C 	C 	0.6081	0.474	0.8858	-0.116
Mof_C 	C 	0.5618	0.3689	0.8385	-0.051
Mof_C 	C 	0.316	0.4302	0.84	-0.088
Mof_C 	C 	0.7078	0.6257	0.0791	-0.06
Mof_C 	C 	0.814	0.6279	0.9273	-0.256
Mof_C 	C 	0.9234	0.5805	0.8575	0.353
Mof_C 	C 	0.4367	0.4212	0.6878	-0.281
Mof_C 	C 	0.3432	0.3739	0.5983	0.366
Mof_C 	C 	0.7551	0.9425	0.4621	-0.068
Mof_C 	C 	0.8919	0.8858	0.474	-0.115
Mof_C 	C 	0.9382	0.8385	0.3689	-0.051
Mof_C 	C 	0.184	0.84	0.4302	-0.087
Mof_C 	C 	0.7922	0.0791	0.6257	-0.06
Mof_C 	C 	0.686	0.9273	0.6279	-0.256
Mof_C 	C 	0.5766	0.8575	0.5805	0.354
Mof_C 	C 	0.0633	0.6878	0.4212	-0.281
Mof_C 	C 	0.1568	0.5983	0.3739	0.366
Mof_C 	C 	0.2551	0.5379	0.0575	-0.067
Mof_C 	C 	0.3919	0.526	0.1142	-0.116
Mof_C 	C 	0.4382	0.6311	0.1615	-0.051
Mof_C 	C 	0.684	0.5698	0.16	-0.088
Mof_C 	C 	0.2922	0.3743	0.9209	-0.06
Mof_C 	C 	0.186	0.3721	0.0727	-0.256
Mof_C 	C 	0.0766	0.4195	0.1425	0.353
Mof_C 	C 	0.5633	0.5788	0.3122	-0.281
Mof_C 	C 	0.6568	0.6261	0.4017	0.366
Mof_C 	C 	0.2449	0.0575	0.5379	-0.068
Mof_C 	C 	0.1081	0.1142	0.526	-0.115
Mof_C 	C 	0.0618	0.1615	0.6311	-0.051
Mof_C 	C 	0.816	0.16	0.5698	-0.087
Mof_C 	C 	0.2078	0.9209	0.3743	-0.06
Mof_C 	C 	0.314	0.0727	0.3721	-0.256
Mof_C 	C 	0.4234	0.1425	0.4195	0.354
Mof_C 	C 	0.9367	0.3122	0.5788	-0.281
Mof_C 	C 	0.8432	0.4017	0.6261	0.366
Mof_N 	N 	0.7943	0.5639	0.9997	-0.048
Mof_N 	N 	0.4289	0.3741	0.7779	-0.118
Mof_N 	N 	0.7057	0.9997	0.5639	-0.047
Mof_N 	N 	0.0711	0.7779	0.3741	-0.118
Mof_N 	N 	0.2057	0.4361	0.0003	-0.048
Mof_N 	N 	0.5711	0.6259	0.2221	-0.118
Mof_N 	N 	0.2943	0.0003	0.4361	-0.047
Mof_N 	N 	0.9289	0.2221	0.6259	-0.118
Mof_O 	O 	0.9151	0.6091	0.7743	-0.221
Mof_O 	O 	0.0142	0.5241	0.8863	-0.24
Mof_O 	O 	0.3438	0.41328	0.52112	-0.2
Mof_O 	O 	0.2806	0.3041	0.6051	-0.27
Mof_O 	O 	0.5849	0.7743	0.6091	-0.221
Mof_O 	O 	0.4858	0.8863	0.5241	-0.241
Mof_O 	O 	0.1562	0.52112	0.41328	-0.2
Mof_O 	O 	0.2194	0.6051	0.3041	-0.27
Mof_O 	O 	0.0849	0.3909	0.2257	-0.221
Mof_O 	O 	0.9858	0.4759	0.1137	-0.24
Mof_O 	O 	0.6562	0.58672	0.47888	-0.2
Mof_O 	O 	0.7194	0.6959	0.3949	-0.27
Mof_O 	O 	0.4151	0.2257	0.3909	-0.221
Mof_O 	O 	0.5142	0.1137	0.4759	-0.241
Mof_O 	O 	0.8438	0.47888	0.58672	-0.2
Mof_O 	O 	0.7806	0.3949	0.6959	-0.27
_end
