# CIF file generated by openbabel 3.1.0, see https://openbabel.org
data_I
_chemical_name_common 'DOQHIB_clean'
_cell_length_a 7.2326
_cell_length_b 10.2337
_cell_length_c 13.1558
_cell_angle_alpha 90
_cell_angle_beta 90
_cell_angle_gamma 100.107
_space_group_name_H-M_alt 'P 1'
_space_group_name_Hall 'P 1'
loop_
    _symmetry_equiv_pos_as_xyz
    x,y,z
loop_
    _atom_site_label
    _atom_site_type_symbol
    _atom_site_fract_x
    _atom_site_fract_y
    _atom_site_fract_z
    _atom_site_occupancy
    Nd1      Nd       0.16300    0.28187    0.90549    1.000
    Nd2      Nd       0.83700    0.21813    0.40549    1.000
    Nd3      Nd       0.83700    0.71813    0.09451    1.000
    Nd4      Nd       0.16300    0.78187    0.59451    1.000
    P1       P        0.78745    0.07069    0.04946    1.000
    P2       P        0.21255    0.42931    0.54946    1.000
    P3       P        0.21255    0.92931    0.95054    1.000
    P4       P        0.78745    0.57069    0.45054    1.000
    H1       H        0.59290    0.18800    0.04470    1.000
    H2       H        0.86790    0.00040    0.25860    1.000
    H3       H        0.05770    0.08600    0.14950    1.000
    H4       H        0.40710    0.31200    0.54470    1.000
    H5       H        0.13210    0.49960    0.75860    1.000
    H6       H        0.94230    0.41400    0.64950    1.000
    H7       H        0.40710    0.81200    0.95530    1.000
    H8       H        0.13210    0.99960    0.74140    1.000
    H9       H        0.94230    0.91400    0.85050    1.000
    H10      H        0.59290    0.68800    0.45530    1.000
    H11      H        0.86790    0.50040    0.24140    1.000
    H12      H        0.05770    0.58600    0.35050    1.000
    C1       C        0.94410    0.12520    0.15620    1.000
    C2       C        0.99970    0.27450    0.16340    1.000
    C3       C        0.45310    0.55530    0.97570    1.000
    C4       C        0.05590    0.37480    0.65620    1.000
    C5       C        0.00030    0.22550    0.66340    1.000
    C6       C        0.54690    0.94470    0.47570    1.000
    C7       C        0.05590    0.87480    0.84380    1.000
    C8       C        0.00030    0.72550    0.83660    1.000
    C9       C        0.54690    0.44470    0.02430    1.000
    C10      C        0.94410    0.62520    0.34380    1.000
    C11      C        0.99970    0.77450    0.33660    1.000
    C12      C        0.45310    0.05530    0.52430    1.000
    O1       O        0.60370    0.12410    0.08040    1.000
    O2       O        0.86960    0.13140    0.95230    1.000
    O3       O        0.74540    0.92230    0.05440    1.000
    O4       O        0.84610    0.07480    0.24640    1.000
    O5       O        0.08090    0.33380    0.08740    1.000
    O6       O        0.96090    0.33060    0.24420    1.000
    O7       O        0.30510    0.51860    0.92690    1.000
    O8       O        0.53280    0.67200    0.99140    1.000
    O9       O        0.39630    0.37590    0.58040    1.000
    O10      O        0.13040    0.36860    0.45230    1.000
    O11      O        0.25460    0.57770    0.55440    1.000
    O12      O        0.15390    0.42520    0.74640    1.000
    O13      O        0.91910    0.16620    0.58740    1.000
    O14      O        0.03910    0.16940    0.74420    1.000
    O15      O        0.69490    0.98140    0.42690    1.000
    O16      O        0.46720    0.82800    0.49140    1.000
    O17      O        0.39630    0.87590    0.91960    1.000
    O18      O        0.13040    0.86860    0.04770    1.000
    O19      O        0.25460    0.07770    0.94560    1.000
    O20      O        0.15390    0.92520    0.75360    1.000
    O21      O        0.91910    0.66620    0.91260    1.000
    O22      O        0.03910    0.66940    0.75580    1.000
    O23      O        0.69490    0.48140    0.07310    1.000
    O24      O        0.46720    0.32800    0.00860    1.000
    O25      O        0.60370    0.62410    0.41960    1.000
    O26      O        0.86960    0.63140    0.54770    1.000
    O27      O        0.74540    0.42230    0.44560    1.000
    O28      O        0.84610    0.57480    0.25360    1.000
    O29      O        0.08090    0.83380    0.41260    1.000
    O30      O        0.96090    0.83060    0.25580    1.000
    O31      O        0.30510    0.01860    0.57310    1.000
    O32      O        0.53280    0.17200    0.50860    1.000
