data_functionalizedCrystal
_audit_creation_method	'EQeq! by Chris Wilmer'
_symmetry_space_group_name_H-M	'P1'
_symmetry_Int_Tables_number	1
_symmetry_cell_setting	triclinic
loop_
_symmetry_equiv_pos_as_xyz
  x,y,z
_cell_length_a	32.1539
_cell_length_b	32.1539
_cell_length_c	32.1539
_cell_angle_alpha	60
_cell_angle_beta	60
_cell_angle_gamma	60
loop_
_atom_site_label
_atom_site_type_symbol
_atom_site_fract_x
_atom_site_fract_y
_atom_site_fract_z
_atom_site_charge
Mof_Co	Co	0.34332	0.5254	0.15786	1.112
Mof_Co	Co	0.5254	0.34332	0.97342	1.112
Mof_Co	Co	0.15786	0.97342	0.34332	1.112
Mof_Co	Co	0.97342	0.15786	0.5254	1.112
Mof_Co	Co	0.34332	0.15786	0.97342	1.112
Mof_Co	Co	0.5254	0.97342	0.15786	1.112
Mof_Co	Co	0.15786	0.34332	0.5254	1.112
Mof_Co	Co	0.97342	0.5254	0.34332	1.112
Mof_Co	Co	0.34332	0.97342	0.5254	1.112
Mof_Co	Co	0.5254	0.15786	0.34332	1.112
Mof_Co	Co	0.15786	0.5254	0.97342	1.112
Mof_Co	Co	0.97342	0.34332	0.15786	1.112
Mof_Co	Co	0.4746	0.65668	0.84214	1.112
Mof_Co	Co	0.65668	0.4746	0.02658	1.112
Mof_Co	Co	0.02658	0.84214	0.65668	1.112
Mof_Co	Co	0.84214	0.02658	0.4746	1.112
Mof_Co	Co	0.84214	0.65668	0.02658	1.112
Mof_Co	Co	0.02658	0.4746	0.84214	1.112
Mof_Co	Co	0.65668	0.84214	0.4746	1.112
Mof_Co	Co	0.4746	0.02658	0.65668	1.112
Mof_Co	Co	0.02658	0.65668	0.4746	1.112
Mof_Co	Co	0.84214	0.4746	0.65668	1.112
Mof_Co	Co	0.4746	0.84214	0.02658	1.112
Mof_Co	Co	0.65668	0.02658	0.84214	1.112
Mof_Co	Co	0.65668	0.4746	0.84214	1.112
Mof_Co	Co	0.4746	0.65668	0.02658	1.112
Mof_Co	Co	0.84214	0.02658	0.65668	1.112
Mof_Co	Co	0.02658	0.84214	0.4746	1.112
Mof_Co	Co	0.65668	0.84214	0.02658	1.112
Mof_Co	Co	0.4746	0.02658	0.84214	1.112
Mof_Co	Co	0.84214	0.65668	0.4746	1.112
Mof_Co	Co	0.02658	0.4746	0.65668	1.112
Mof_Co	Co	0.65668	0.02658	0.4746	1.112
Mof_Co	Co	0.4746	0.84214	0.65668	1.112
Mof_Co	Co	0.84214	0.4746	0.02658	1.112
Mof_Co	Co	0.02658	0.65668	0.84214	1.112
Mof_Co	Co	0.5254	0.34332	0.15786	1.112
Mof_Co	Co	0.34332	0.5254	0.97342	1.112
Mof_Co	Co	0.97342	0.15786	0.34332	1.112
Mof_Co	Co	0.15786	0.97342	0.5254	1.112
Mof_Co	Co	0.15786	0.34332	0.97342	1.112
Mof_Co	Co	0.97342	0.5254	0.15786	1.112
Mof_Co	Co	0.34332	0.15786	0.5254	1.112
Mof_Co	Co	0.5254	0.97342	0.34332	1.112
Mof_Co	Co	0.97342	0.34332	0.5254	1.112
Mof_Co	Co	0.15786	0.5254	0.34332	1.112
Mof_Co	Co	0.5254	0.15786	0.97342	1.112
Mof_Co	Co	0.34332	0.97342	0.15786	1.112
Mof_H 	H 	0.2908	0.437	0.2038	0.029
Mof_H 	H 	0.3895	0.5067	0.2371	0.028
Mof_H 	H 	0.2571	0.7063	0.1891	0.036
Mof_H 	H 	0.237	0.6182	0.147	0.041
Mof_H 	H 	0.437	0.2908	0.0684	0.029
Mof_H 	H 	0.5067	0.3895	0.8667	0.028
Mof_H 	H 	0.7063	0.2571	0.8475	0.036
Mof_H 	H 	0.6182	0.237	0.9978	0.041
Mof_H 	H 	0.2038	0.0684	0.2908	0.029
Mof_H 	H 	0.2371	0.8667	0.3895	0.028
Mof_H 	H 	0.1891	0.8475	0.2571	0.036
Mof_H 	H 	0.147	0.9978	0.237	0.038
Mof_H 	H 	0.0684	0.2038	0.437	0.029
Mof_H 	H 	0.8667	0.2371	0.5067	0.028
Mof_H 	H 	0.8475	0.1891	0.7063	0.036
Mof_H 	H 	0.9978	0.147	0.6182	0.04
Mof_H 	H 	0.2908	0.2038	0.0684	0.029
Mof_H 	H 	0.3895	0.2371	0.8667	0.028
Mof_H 	H 	0.2571	0.1891	0.8475	0.036
Mof_H 	H 	0.237	0.147	0.9978	0.038
Mof_H 	H 	0.437	0.0684	0.2038	0.029
Mof_H 	H 	0.5067	0.8667	0.2371	0.028
Mof_H 	H 	0.7063	0.8475	0.1891	0.036
Mof_H 	H 	0.6182	0.9978	0.147	0.04
Mof_H 	H 	0.2038	0.2908	0.437	0.029
Mof_H 	H 	0.2371	0.3895	0.5067	0.028
Mof_H 	H 	0.1891	0.2571	0.7063	0.036
Mof_H 	H 	0.147	0.237	0.6182	0.041
Mof_H 	H 	0.0684	0.437	0.2908	0.029
Mof_H 	H 	0.8667	0.5067	0.3895	0.028
Mof_H 	H 	0.8475	0.7063	0.2571	0.036
Mof_H 	H 	0.9978	0.6182	0.237	0.041
Mof_H 	H 	0.2908	0.0684	0.437	0.029
Mof_H 	H 	0.3895	0.8667	0.5067	0.028
Mof_H 	H 	0.2571	0.8475	0.7063	0.036
Mof_H 	H 	0.237	0.9978	0.6182	0.041
Mof_H 	H 	0.437	0.2038	0.2908	0.029
Mof_H 	H 	0.5067	0.2371	0.3895	0.028
Mof_H 	H 	0.7063	0.1891	0.2571	0.036
Mof_H 	H 	0.6182	0.147	0.237	0.041
Mof_H 	H 	0.2038	0.437	0.0684	0.029
Mof_H 	H 	0.2371	0.5067	0.8667	0.028
Mof_H 	H 	0.1891	0.7063	0.8475	0.036
Mof_H 	H 	0.147	0.6182	0.9978	0.04
Mof_H 	H 	0.0684	0.2908	0.2038	0.029
Mof_H 	H 	0.8667	0.3895	0.2371	0.028
Mof_H 	H 	0.8475	0.2571	0.1891	0.036
Mof_H 	H 	0.9978	0.237	0.147	0.038
Mof_H 	H 	0.563	0.7092	0.7962	0.029
Mof_H 	H 	0.4933	0.6105	0.7629	0.028
Mof_H 	H 	0.2937	0.7429	0.8109	0.036
Mof_H 	H 	0.3818	0.763	0.853	0.041
Mof_H 	H 	0.7092	0.563	0.9316	0.029
Mof_H 	H 	0.6105	0.4933	0.1333	0.028
Mof_H 	H 	0.7429	0.2937	0.1525	0.036
Mof_H 	H 	0.763	0.3818	0.0022	0.041
Mof_H 	H 	0.9316	0.7962	0.7092	0.029
Mof_H 	H 	0.1333	0.7629	0.6105	0.028
Mof_H 	H 	0.1525	0.8109	0.7429	0.036
Mof_H 	H 	0.0022	0.853	0.763	0.038
Mof_H 	H 	0.7962	0.9316	0.563	0.029
Mof_H 	H 	0.7629	0.1333	0.4933	0.028
Mof_H 	H 	0.8109	0.1525	0.2937	0.036
Mof_H 	H 	0.853	0.0022	0.3818	0.04
Mof_H 	H 	0.7962	0.7092	0.9316	0.029
Mof_H 	H 	0.7629	0.6105	0.1333	0.028
Mof_H 	H 	0.8109	0.7429	0.1525	0.036
Mof_H 	H 	0.853	0.763	0.0022	0.038
Mof_H 	H 	0.9316	0.563	0.7962	0.029
Mof_H 	H 	0.1333	0.4933	0.7629	0.028
Mof_H 	H 	0.1525	0.2937	0.8109	0.036
Mof_H 	H 	0.0022	0.3818	0.853	0.04
Mof_H 	H 	0.7092	0.7962	0.563	0.029
Mof_H 	H 	0.6105	0.7629	0.4933	0.028
Mof_H 	H 	0.7429	0.8109	0.2937	0.036
Mof_H 	H 	0.763	0.853	0.3818	0.041
Mof_H 	H 	0.563	0.9316	0.7092	0.029
Mof_H 	H 	0.4933	0.1333	0.6105	0.028
Mof_H 	H 	0.2937	0.1525	0.7429	0.035
Mof_H 	H 	0.3818	0.0022	0.763	0.04
Mof_H 	H 	0.9316	0.7092	0.563	0.028
Mof_H 	H 	0.1333	0.6105	0.4933	0.027
Mof_H 	H 	0.1525	0.7429	0.2937	0.035
Mof_H 	H 	0.0022	0.763	0.3818	0.04
Mof_H 	H 	0.7962	0.563	0.7092	0.028
Mof_H 	H 	0.7629	0.4933	0.6105	0.027
Mof_H 	H 	0.8109	0.2937	0.7429	0.035
Mof_H 	H 	0.853	0.3818	0.763	0.04
Mof_H 	H 	0.563	0.7962	0.9316	0.028
Mof_H 	H 	0.4933	0.7629	0.1333	0.027
Mof_H 	H 	0.2937	0.8109	0.1525	0.035
Mof_H 	H 	0.3818	0.853	0.0022	0.039
Mof_H 	H 	0.7092	0.9316	0.7962	0.028
Mof_H 	H 	0.6105	0.1333	0.7629	0.027
Mof_H 	H 	0.7429	0.1525	0.8109	0.035
Mof_H 	H 	0.763	0.0022	0.853	0.037
Mof_H 	H 	0.7092	0.563	0.7962	0.028
Mof_H 	H 	0.6105	0.4933	0.7629	0.027
Mof_H 	H 	0.7429	0.2937	0.8109	0.035
Mof_H 	H 	0.763	0.3818	0.853	0.04
Mof_H 	H 	0.563	0.7092	0.9316	0.028
Mof_H 	H 	0.4933	0.6105	0.1333	0.027
Mof_H 	H 	0.2937	0.7429	0.1525	0.035
Mof_H 	H 	0.3818	0.763	0.0022	0.04
Mof_H 	H 	0.7962	0.9316	0.7092	0.028
Mof_H 	H 	0.7629	0.1333	0.6105	0.027
Mof_H 	H 	0.8109	0.1525	0.7429	0.035
Mof_H 	H 	0.853	0.0022	0.763	0.037
Mof_H 	H 	0.9316	0.7962	0.563	0.028
Mof_H 	H 	0.1333	0.7629	0.4933	0.027
Mof_H 	H 	0.1525	0.8109	0.2937	0.035
Mof_H 	H 	0.0022	0.853	0.3818	0.039
Mof_H 	H 	0.7092	0.7962	0.9316	0.028
Mof_H 	H 	0.6105	0.7629	0.1333	0.027
Mof_H 	H 	0.7429	0.8109	0.1525	0.035
Mof_H 	H 	0.763	0.853	0.0022	0.037
Mof_H 	H 	0.563	0.9316	0.7962	0.028
Mof_H 	H 	0.4933	0.1333	0.7629	0.027
Mof_H 	H 	0.2937	0.1525	0.8109	0.035
Mof_H 	H 	0.3818	0.0022	0.853	0.039
Mof_H 	H 	0.7962	0.7092	0.563	0.028
Mof_H 	H 	0.7629	0.6105	0.4933	0.027
Mof_H 	H 	0.8109	0.7429	0.2937	0.035
Mof_H 	H 	0.853	0.763	0.3818	0.04
Mof_H 	H 	0.9316	0.563	0.7092	0.028
Mof_H 	H 	0.1333	0.4933	0.6105	0.027
Mof_H 	H 	0.1525	0.2937	0.7429	0.035
Mof_H 	H 	0.0022	0.3818	0.763	0.04
Mof_H 	H 	0.7092	0.9316	0.563	0.028
Mof_H 	H 	0.6105	0.1333	0.4933	0.027
Mof_H 	H 	0.7429	0.1525	0.2937	0.035
Mof_H 	H 	0.763	0.0022	0.3818	0.04
Mof_H 	H 	0.563	0.7962	0.7092	0.028
Mof_H 	H 	0.4933	0.7629	0.6105	0.027
Mof_H 	H 	0.2937	0.8109	0.7429	0.035
Mof_H 	H 	0.3818	0.853	0.763	0.04
Mof_H 	H 	0.7962	0.563	0.9316	0.028
Mof_H 	H 	0.7629	0.4933	0.1333	0.027
Mof_H 	H 	0.8109	0.2937	0.1525	0.035
Mof_H 	H 	0.853	0.3818	0.0022	0.039
Mof_H 	H 	0.9316	0.7092	0.7962	0.028
Mof_H 	H 	0.1333	0.6105	0.7629	0.027
Mof_H 	H 	0.1525	0.7429	0.8109	0.035
Mof_H 	H 	0.0022	0.763	0.853	0.037
Mof_H 	H 	0.437	0.2908	0.2038	0.028
Mof_H 	H 	0.5067	0.3895	0.2371	0.027
Mof_H 	H 	0.7063	0.2571	0.1891	0.035
Mof_H 	H 	0.6182	0.237	0.147	0.04
Mof_H 	H 	0.2908	0.437	0.0684	0.028
Mof_H 	H 	0.3895	0.5067	0.8667	0.027
Mof_H 	H 	0.2571	0.7063	0.8475	0.035
Mof_H 	H 	0.237	0.6182	0.9978	0.04
Mof_H 	H 	0.0684	0.2038	0.2908	0.028
Mof_H 	H 	0.8667	0.2371	0.3895	0.027
Mof_H 	H 	0.8475	0.1891	0.2571	0.035
Mof_H 	H 	0.9978	0.147	0.237	0.037
Mof_H 	H 	0.2038	0.0684	0.437	0.028
Mof_H 	H 	0.2371	0.8667	0.5067	0.027
Mof_H 	H 	0.1891	0.8475	0.7063	0.035
Mof_H 	H 	0.147	0.9978	0.6182	0.039
Mof_H 	H 	0.2038	0.2908	0.0684	0.028
Mof_H 	H 	0.2371	0.3895	0.8667	0.027
Mof_H 	H 	0.1891	0.2571	0.8475	0.035
Mof_H 	H 	0.147	0.237	0.9978	0.037
Mof_H 	H 	0.0684	0.437	0.2038	0.028
Mof_H 	H 	0.8667	0.5067	0.2371	0.027
Mof_H 	H 	0.8475	0.7063	0.1891	0.035
Mof_H 	H 	0.9978	0.6182	0.147	0.039
Mof_H 	H 	0.2908	0.2038	0.437	0.028
Mof_H 	H 	0.3895	0.2371	0.5067	0.027
Mof_H 	H 	0.2571	0.1891	0.7063	0.035
Mof_H 	H 	0.237	0.147	0.6182	0.04
Mof_H 	H 	0.437	0.0684	0.2908	0.028
Mof_H 	H 	0.5067	0.8667	0.3895	0.027
Mof_H 	H 	0.7063	0.8475	0.2571	0.035
Mof_H 	H 	0.6182	0.9978	0.237	0.04
Mof_H 	H 	0.0684	0.2908	0.437	0.028
Mof_H 	H 	0.8667	0.3895	0.5067	0.027
Mof_H 	H 	0.8475	0.2571	0.7063	0.035
Mof_H 	H 	0.9978	0.237	0.6182	0.04
Mof_H 	H 	0.2038	0.437	0.2908	0.028
Mof_H 	H 	0.2371	0.5067	0.3895	0.027
Mof_H 	H 	0.1891	0.7063	0.2571	0.035
Mof_H 	H 	0.147	0.6182	0.237	0.04
Mof_H 	H 	0.437	0.2038	0.0684	0.028
Mof_H 	H 	0.5067	0.2371	0.8667	0.027
Mof_H 	H 	0.7063	0.1891	0.8475	0.035
Mof_H 	H 	0.6182	0.147	0.9978	0.039
Mof_H 	H 	0.2908	0.0684	0.2038	0.028
Mof_H 	H 	0.3895	0.8667	0.2371	0.027
Mof_H 	H 	0.2571	0.8475	0.1891	0.035
Mof_H 	H 	0.237	0.9978	0.147	0.037
Mof_H 	H 	0.4511	0.4511	0.1543	-0.039
Mof_H 	H 	0.4511	0.4511	0.9435	-0.039
Mof_H 	H 	0.1543	0.9435	0.4511	-0.039
Mof_H 	H 	0.9435	0.1543	0.4511	-0.039
Mof_H 	H 	0.4511	0.1543	0.9435	-0.039
Mof_H 	H 	0.4511	0.9435	0.1543	-0.039
Mof_H 	H 	0.1543	0.4511	0.4511	-0.039
Mof_H 	H 	0.9435	0.4511	0.4511	-0.039
Mof_H 	H 	0.4511	0.9435	0.4511	-0.039
Mof_H 	H 	0.4511	0.1543	0.4511	-0.039
Mof_H 	H 	0.1543	0.4511	0.9435	-0.039
Mof_H 	H 	0.9435	0.4511	0.1543	-0.039
Mof_H 	H 	0.5489	0.5489	0.8457	-0.039
Mof_H 	H 	0.5489	0.5489	0.0565	-0.039
Mof_H 	H 	0.0565	0.8457	0.5489	-0.039
Mof_H 	H 	0.8457	0.0565	0.5489	-0.039
Mof_H 	H 	0.8457	0.5489	0.0565	-0.039
Mof_H 	H 	0.0565	0.5489	0.8457	-0.039
Mof_H 	H 	0.5489	0.8457	0.5489	-0.039
Mof_H 	H 	0.5489	0.0565	0.5489	-0.039
Mof_H 	H 	0.0565	0.5489	0.5489	-0.039
Mof_H 	H 	0.8457	0.5489	0.5489	-0.039
Mof_H 	H 	0.5489	0.8457	0.0565	-0.039
Mof_H 	H 	0.5489	0.0565	0.8457	-0.039
Mof_H 	H 	0.4064	0.5936	0.0602	-0.042
Mof_H 	H 	0.5936	0.4064	0.9398	-0.042
Mof_H 	H 	0.0602	0.9398	0.4064	-0.042
Mof_H 	H 	0.9398	0.0602	0.5936	-0.042
Mof_H 	H 	0.4064	0.0602	0.9398	-0.042
Mof_H 	H 	0.5936	0.9398	0.0602	-0.042
Mof_H 	H 	0.0602	0.4064	0.5936	-0.042
Mof_H 	H 	0.9398	0.5936	0.4064	-0.042
Mof_H 	H 	0.4064	0.9398	0.5936	-0.042
Mof_H 	H 	0.5936	0.0602	0.4064	-0.042
Mof_H 	H 	0.0602	0.5936	0.9398	-0.042
Mof_H 	H 	0.9398	0.4064	0.0602	-0.042
Mof_H 	H 	0.4064	0.5936	0.9398	-0.042
Mof_H 	H 	0.5936	0.4064	0.0602	-0.042
Mof_H 	H 	0.0602	0.9398	0.5936	-0.042
Mof_H 	H 	0.9398	0.0602	0.4064	-0.042
Mof_H 	H 	0.9398	0.5936	0.0602	-0.042
Mof_H 	H 	0.0602	0.4064	0.9398	-0.042
Mof_H 	H 	0.5936	0.9398	0.4064	-0.042
Mof_H 	H 	0.4064	0.0602	0.5936	-0.042
Mof_H 	H 	0.0602	0.5936	0.4064	-0.042
Mof_H 	H 	0.9398	0.4064	0.5936	-0.042
Mof_H 	H 	0.4064	0.9398	0.0602	-0.042
Mof_H 	H 	0.5936	0.0602	0.9398	-0.042
Mof_H 	H 	0.2601	0.4873	0.2601	-0.044
Mof_H 	H 	0.4873	0.2601	0.9925	-0.044
Mof_H 	H 	0.2601	0.9925	0.2601	-0.045
Mof_H 	H 	0.9925	0.2601	0.4873	-0.044
Mof_H 	H 	0.2601	0.2601	0.9925	-0.045
Mof_H 	H 	0.4873	0.9925	0.2601	-0.044
Mof_H 	H 	0.2601	0.2601	0.4873	-0.044
Mof_H 	H 	0.9925	0.4873	0.2601	-0.044
Mof_H 	H 	0.2601	0.9925	0.4873	-0.044
Mof_H 	H 	0.4873	0.2601	0.2601	-0.044
Mof_H 	H 	0.2601	0.4873	0.9925	-0.044
Mof_H 	H 	0.9925	0.2601	0.2601	-0.045
Mof_H 	H 	0.5127	0.7399	0.7399	-0.044
Mof_H 	H 	0.7399	0.5127	0.0075	-0.044
Mof_H 	H 	0.0075	0.7399	0.7399	-0.045
Mof_H 	H 	0.7399	0.0075	0.5127	-0.044
Mof_H 	H 	0.7399	0.7399	0.0075	-0.045
Mof_H 	H 	0.0075	0.5127	0.7399	-0.044
Mof_H 	H 	0.7399	0.7399	0.5127	-0.044
Mof_H 	H 	0.5127	0.0075	0.7399	-0.044
Mof_H 	H 	0.0075	0.7399	0.5127	-0.044
Mof_H 	H 	0.7399	0.5127	0.7399	-0.044
Mof_H 	H 	0.5127	0.7399	0.0075	-0.044
Mof_H 	H 	0.7399	0.0075	0.7399	-0.045
Mof_H 	H 	0.3767	0.5047	0.0593	-0.055
Mof_H 	H 	0.5047	0.3767	0.0593	-0.055
Mof_H 	H 	0.0593	0.0593	0.3767	-0.055
Mof_H 	H 	0.0593	0.0593	0.5047	-0.055
Mof_H 	H 	0.3767	0.0593	0.0593	-0.055
Mof_H 	H 	0.5047	0.0593	0.0593	-0.055
Mof_H 	H 	0.0593	0.3767	0.5047	-0.055
Mof_H 	H 	0.0593	0.5047	0.3767	-0.055
Mof_H 	H 	0.3767	0.0593	0.5047	-0.055
Mof_H 	H 	0.5047	0.0593	0.3767	-0.055
Mof_H 	H 	0.0593	0.5047	0.0593	-0.055
Mof_H 	H 	0.0593	0.3767	0.0593	-0.055
Mof_H 	H 	0.4953	0.6233	0.9407	-0.055
Mof_H 	H 	0.6233	0.4953	0.9407	-0.055
Mof_H 	H 	0.9407	0.9407	0.6233	-0.055
Mof_H 	H 	0.9407	0.9407	0.4953	-0.055
Mof_H 	H 	0.9407	0.6233	0.9407	-0.055
Mof_H 	H 	0.9407	0.4953	0.9407	-0.055
Mof_H 	H 	0.6233	0.9407	0.4953	-0.055
Mof_H 	H 	0.4953	0.9407	0.6233	-0.055
Mof_H 	H 	0.9407	0.6233	0.4953	-0.055
Mof_H 	H 	0.9407	0.4953	0.6233	-0.055
Mof_H 	H 	0.4953	0.9407	0.9407	-0.055
Mof_H 	H 	0.6233	0.9407	0.9407	-0.055
Mof_C 	C 	0.36777	0.41057	0.18683	0.038
Mof_C 	C 	0.3211	0.4085	0.2011	-0.033
Mof_C 	C 	0.41479	0.55467	0.16629	0.039
Mof_C 	C 	0.4084	0.5294	0.2162	-0.027
Mof_C 	C 	0.26478	0.59158	0.22294	0.074
Mof_C 	C 	0.24775	0.67641	0.20809	0.006
Mof_C 	C 	0.2752	0.58526	0.09082	0.038
Mof_C 	C 	0.23714	0.61756	0.11766	-0.038
Mof_C 	C 	0.41057	0.36777	0.03483	0.038
Mof_C 	C 	0.4085	0.3211	0.0693	-0.033
Mof_C 	C 	0.55467	0.41479	0.86425	0.039
Mof_C 	C 	0.5294	0.4084	0.846	-0.027
Mof_C 	C 	0.59158	0.26478	0.9207	0.074
Mof_C 	C 	0.67641	0.24775	0.86775	0.005
Mof_C 	C 	0.58526	0.2752	0.04872	0.038
Mof_C 	C 	0.61756	0.23714	0.02764	-0.036
Mof_C 	C 	0.18683	0.03483	0.36777	0.039
Mof_C 	C 	0.2011	0.0693	0.3211	-0.033
Mof_C 	C 	0.16629	0.86425	0.41479	0.039
Mof_C 	C 	0.2162	0.846	0.4084	-0.027
Mof_C 	C 	0.22294	0.9207	0.26478	0.074
Mof_C 	C 	0.20809	0.86775	0.24775	0.005
Mof_C 	C 	0.09082	0.04872	0.2752	0.037
Mof_C 	C 	0.11766	0.02764	0.23714	-0.033
Mof_C 	C 	0.03483	0.18683	0.41057	0.039
Mof_C 	C 	0.0693	0.2011	0.4085	-0.033
Mof_C 	C 	0.86425	0.16629	0.55467	0.039
Mof_C 	C 	0.846	0.2162	0.5294	-0.027
Mof_C 	C 	0.9207	0.22294	0.59158	0.074
Mof_C 	C 	0.86775	0.20809	0.67641	0.005
Mof_C 	C 	0.04872	0.09082	0.58526	0.038
Mof_C 	C 	0.02764	0.11766	0.61756	-0.036
Mof_C 	C 	0.36777	0.18683	0.03483	0.039
Mof_C 	C 	0.3211	0.2011	0.0693	-0.033
Mof_C 	C 	0.41479	0.16629	0.86425	0.039
Mof_C 	C 	0.4084	0.2162	0.846	-0.027
Mof_C 	C 	0.26478	0.22294	0.9207	0.074
Mof_C 	C 	0.24775	0.20809	0.86775	0.005
Mof_C 	C 	0.2752	0.09082	0.04872	0.037
Mof_C 	C 	0.23714	0.11766	0.02764	-0.033
Mof_C 	C 	0.41057	0.03483	0.18683	0.039
Mof_C 	C 	0.4085	0.0693	0.2011	-0.033
Mof_C 	C 	0.55467	0.86425	0.16629	0.039
Mof_C 	C 	0.5294	0.846	0.2162	-0.027
Mof_C 	C 	0.59158	0.9207	0.22294	0.074
Mof_C 	C 	0.67641	0.86775	0.20809	0.005
Mof_C 	C 	0.58526	0.04872	0.09082	0.038
Mof_C 	C 	0.61756	0.02764	0.11766	-0.036
Mof_C 	C 	0.18683	0.36777	0.41057	0.038
Mof_C 	C 	0.2011	0.3211	0.4085	-0.033
Mof_C 	C 	0.16629	0.41479	0.55467	0.039
Mof_C 	C 	0.2162	0.4084	0.5294	-0.027
Mof_C 	C 	0.22294	0.26478	0.59158	0.074
Mof_C 	C 	0.20809	0.24775	0.67641	0.006
Mof_C 	C 	0.09082	0.2752	0.58526	0.038
Mof_C 	C 	0.11766	0.23714	0.61756	-0.038
Mof_C 	C 	0.03483	0.41057	0.36777	0.038
Mof_C 	C 	0.0693	0.4085	0.3211	-0.033
Mof_C 	C 	0.86425	0.55467	0.41479	0.039
Mof_C 	C 	0.846	0.5294	0.4084	-0.027
Mof_C 	C 	0.9207	0.59158	0.26478	0.074
Mof_C 	C 	0.86775	0.67641	0.24775	0.005
Mof_C 	C 	0.04872	0.58526	0.2752	0.038
Mof_C 	C 	0.02764	0.61756	0.23714	-0.036
Mof_C 	C 	0.36777	0.03483	0.41057	0.038
Mof_C 	C 	0.3211	0.0693	0.4085	-0.033
Mof_C 	C 	0.41479	0.86425	0.55467	0.039
Mof_C 	C 	0.4084	0.846	0.5294	-0.027
Mof_C 	C 	0.26478	0.9207	0.59158	0.074
Mof_C 	C 	0.24775	0.86775	0.67641	0.005
Mof_C 	C 	0.2752	0.04872	0.58526	0.038
Mof_C 	C 	0.23714	0.02764	0.61756	-0.036
Mof_C 	C 	0.41057	0.18683	0.36777	0.038
Mof_C 	C 	0.4085	0.2011	0.3211	-0.033
Mof_C 	C 	0.55467	0.16629	0.41479	0.039
Mof_C 	C 	0.5294	0.2162	0.4084	-0.027
Mof_C 	C 	0.59158	0.22294	0.26478	0.074
Mof_C 	C 	0.67641	0.20809	0.24775	0.006
Mof_C 	C 	0.58526	0.09082	0.2752	0.038
Mof_C 	C 	0.61756	0.11766	0.23714	-0.038
Mof_C 	C 	0.18683	0.41057	0.03483	0.039
Mof_C 	C 	0.2011	0.4085	0.0693	-0.033
Mof_C 	C 	0.16629	0.55467	0.86425	0.039
Mof_C 	C 	0.2162	0.5294	0.846	-0.027
Mof_C 	C 	0.22294	0.59158	0.9207	0.074
Mof_C 	C 	0.20809	0.67641	0.86775	0.005
Mof_C 	C 	0.09082	0.58526	0.04872	0.038
Mof_C 	C 	0.11766	0.61756	0.02764	-0.036
Mof_C 	C 	0.03483	0.36777	0.18683	0.039
Mof_C 	C 	0.0693	0.3211	0.2011	-0.033
Mof_C 	C 	0.86425	0.41479	0.16629	0.039
Mof_C 	C 	0.846	0.4084	0.2162	-0.027
Mof_C 	C 	0.9207	0.26478	0.22294	0.074
Mof_C 	C 	0.86775	0.24775	0.20809	0.005
Mof_C 	C 	0.04872	0.2752	0.09082	0.037
Mof_C 	C 	0.02764	0.23714	0.11766	-0.033
Mof_C 	C 	0.58943	0.63223	0.81317	0.038
Mof_C 	C 	0.5915	0.6789	0.7989	-0.033
Mof_C 	C 	0.44533	0.58521	0.83371	0.039
Mof_C 	C 	0.4706	0.5916	0.7838	-0.027
Mof_C 	C 	0.40842	0.73522	0.77706	0.074
Mof_C 	C 	0.32359	0.75225	0.79191	0.006
Mof_C 	C 	0.41474	0.7248	0.90918	0.038
Mof_C 	C 	0.38244	0.76286	0.88234	-0.038
Mof_C 	C 	0.63223	0.58943	0.96517	0.038
Mof_C 	C 	0.6789	0.5915	0.9307	-0.033
Mof_C 	C 	0.58521	0.44533	0.13575	0.039
Mof_C 	C 	0.5916	0.4706	0.154	-0.027
Mof_C 	C 	0.73522	0.40842	0.0793	0.074
Mof_C 	C 	0.75225	0.32359	0.13225	0.005
Mof_C 	C 	0.7248	0.41474	0.95128	0.038
Mof_C 	C 	0.76286	0.38244	0.97236	-0.036
Mof_C 	C 	0.96517	0.81317	0.63223	0.039
Mof_C 	C 	0.9307	0.7989	0.6789	-0.033
Mof_C 	C 	0.13575	0.83371	0.58521	0.039
Mof_C 	C 	0.154	0.7838	0.5916	-0.027
Mof_C 	C 	0.0793	0.77706	0.73522	0.074
Mof_C 	C 	0.13225	0.79191	0.75225	0.005
Mof_C 	C 	0.95128	0.90918	0.7248	0.037
Mof_C 	C 	0.97236	0.88234	0.76286	-0.033
Mof_C 	C 	0.81317	0.96517	0.58943	0.039
Mof_C 	C 	0.7989	0.9307	0.5915	-0.033
Mof_C 	C 	0.83371	0.13575	0.44533	0.039
Mof_C 	C 	0.7838	0.154	0.4706	-0.027
Mof_C 	C 	0.77706	0.0793	0.40842	0.074
Mof_C 	C 	0.79191	0.13225	0.32359	0.005
Mof_C 	C 	0.90918	0.95128	0.41474	0.038
Mof_C 	C 	0.88234	0.97236	0.38244	-0.036
Mof_C 	C 	0.81317	0.63223	0.96517	0.039
Mof_C 	C 	0.7989	0.6789	0.9307	-0.033
Mof_C 	C 	0.83371	0.58521	0.13575	0.039
Mof_C 	C 	0.7838	0.5916	0.154	-0.027
Mof_C 	C 	0.77706	0.73522	0.0793	0.074
Mof_C 	C 	0.79191	0.75225	0.13225	0.005
Mof_C 	C 	0.90918	0.7248	0.95128	0.037
Mof_C 	C 	0.88234	0.76286	0.97236	-0.033
Mof_C 	C 	0.96517	0.58943	0.81317	0.039
Mof_C 	C 	0.9307	0.5915	0.7989	-0.033
Mof_C 	C 	0.13575	0.44533	0.83371	0.039
Mof_C 	C 	0.154	0.4706	0.7838	-0.027
Mof_C 	C 	0.0793	0.40842	0.77706	0.074
Mof_C 	C 	0.13225	0.32359	0.79191	0.005
Mof_C 	C 	0.95128	0.41474	0.90918	0.038
Mof_C 	C 	0.97236	0.38244	0.88234	-0.036
Mof_C 	C 	0.63223	0.81317	0.58943	0.038
Mof_C 	C 	0.6789	0.7989	0.5915	-0.033
Mof_C 	C 	0.58521	0.83371	0.44533	0.039
Mof_C 	C 	0.5916	0.7838	0.4706	-0.027
Mof_C 	C 	0.73522	0.77706	0.40842	0.074
Mof_C 	C 	0.75225	0.79191	0.32359	0.006
Mof_C 	C 	0.7248	0.90918	0.41474	0.038
Mof_C 	C 	0.76286	0.88234	0.38244	-0.038
Mof_C 	C 	0.58943	0.96517	0.63223	0.038
Mof_C 	C 	0.5915	0.9307	0.6789	-0.033
Mof_C 	C 	0.44533	0.13575	0.58521	0.039
Mof_C 	C 	0.4706	0.154	0.5916	-0.027
Mof_C 	C 	0.40842	0.0793	0.73522	0.074
Mof_C 	C 	0.32359	0.13225	0.75225	0.005
Mof_C 	C 	0.41474	0.95128	0.7248	0.038
Mof_C 	C 	0.38244	0.97236	0.76286	-0.036
Mof_C 	C 	0.96517	0.63223	0.58943	0.038
Mof_C 	C 	0.9307	0.6789	0.5915	-0.033
Mof_C 	C 	0.13575	0.58521	0.44533	0.039
Mof_C 	C 	0.154	0.5916	0.4706	-0.027
Mof_C 	C 	0.0793	0.73522	0.40842	0.074
Mof_C 	C 	0.13225	0.75225	0.32359	0.005
Mof_C 	C 	0.95128	0.7248	0.41474	0.038
Mof_C 	C 	0.97236	0.76286	0.38244	-0.036
Mof_C 	C 	0.81317	0.58943	0.63223	0.038
Mof_C 	C 	0.7989	0.5915	0.6789	-0.033
Mof_C 	C 	0.83371	0.44533	0.58521	0.039
Mof_C 	C 	0.7838	0.4706	0.5916	-0.027
Mof_C 	C 	0.77706	0.40842	0.73522	0.074
Mof_C 	C 	0.79191	0.32359	0.75225	0.006
Mof_C 	C 	0.90918	0.41474	0.7248	0.038
Mof_C 	C 	0.88234	0.38244	0.76286	-0.038
Mof_C 	C 	0.58943	0.81317	0.96517	0.039
Mof_C 	C 	0.5915	0.7989	0.9307	-0.033
Mof_C 	C 	0.44533	0.83371	0.13575	0.039
Mof_C 	C 	0.4706	0.7838	0.154	-0.027
Mof_C 	C 	0.40842	0.77706	0.0793	0.074
Mof_C 	C 	0.32359	0.79191	0.13225	0.005
Mof_C 	C 	0.41474	0.90918	0.95128	0.038
Mof_C 	C 	0.38244	0.88234	0.97236	-0.036
Mof_C 	C 	0.63223	0.96517	0.81317	0.039
Mof_C 	C 	0.6789	0.9307	0.7989	-0.033
Mof_C 	C 	0.58521	0.13575	0.83371	0.039
Mof_C 	C 	0.5916	0.154	0.7838	-0.027
Mof_C 	C 	0.73522	0.0793	0.77706	0.074
Mof_C 	C 	0.75225	0.13225	0.79191	0.005
Mof_C 	C 	0.7248	0.95128	0.90918	0.037
Mof_C 	C 	0.76286	0.97236	0.88234	-0.033
Mof_C 	C 	0.63223	0.58943	0.81317	0.038
Mof_C 	C 	0.6789	0.5915	0.7989	-0.033
Mof_C 	C 	0.58521	0.44533	0.83371	0.039
Mof_C 	C 	0.5916	0.4706	0.7838	-0.027
Mof_C 	C 	0.73522	0.40842	0.77706	0.074
Mof_C 	C 	0.75225	0.32359	0.79191	0.006
Mof_C 	C 	0.7248	0.41474	0.90918	0.038
Mof_C 	C 	0.76286	0.38244	0.88234	-0.038
Mof_C 	C 	0.58943	0.63223	0.96517	0.038
Mof_C 	C 	0.5915	0.6789	0.9307	-0.033
Mof_C 	C 	0.44533	0.58521	0.13575	0.039
Mof_C 	C 	0.4706	0.5916	0.154	-0.027
Mof_C 	C 	0.40842	0.73522	0.0793	0.074
Mof_C 	C 	0.32359	0.75225	0.13225	0.005
Mof_C 	C 	0.41474	0.7248	0.95128	0.038
Mof_C 	C 	0.38244	0.76286	0.97236	-0.036
Mof_C 	C 	0.81317	0.96517	0.63223	0.039
Mof_C 	C 	0.7989	0.9307	0.6789	-0.033
Mof_C 	C 	0.83371	0.13575	0.58521	0.039
Mof_C 	C 	0.7838	0.154	0.5916	-0.027
Mof_C 	C 	0.77706	0.0793	0.73522	0.074
Mof_C 	C 	0.79191	0.13225	0.75225	0.005
Mof_C 	C 	0.90918	0.95128	0.7248	0.037
Mof_C 	C 	0.88234	0.97236	0.76286	-0.033
Mof_C 	C 	0.96517	0.81317	0.58943	0.039
Mof_C 	C 	0.9307	0.7989	0.5915	-0.033
Mof_C 	C 	0.13575	0.83371	0.44533	0.039
Mof_C 	C 	0.154	0.7838	0.4706	-0.027
Mof_C 	C 	0.0793	0.77706	0.40842	0.074
Mof_C 	C 	0.13225	0.79191	0.32359	0.005
Mof_C 	C 	0.95128	0.90918	0.41474	0.038
Mof_C 	C 	0.97236	0.88234	0.38244	-0.036
Mof_C 	C 	0.63223	0.81317	0.96517	0.039
Mof_C 	C 	0.6789	0.7989	0.9307	-0.033
Mof_C 	C 	0.58521	0.83371	0.13575	0.039
Mof_C 	C 	0.5916	0.7838	0.154	-0.027
Mof_C 	C 	0.73522	0.77706	0.0793	0.074
Mof_C 	C 	0.75225	0.79191	0.13225	0.005
Mof_C 	C 	0.7248	0.90918	0.95128	0.037
Mof_C 	C 	0.76286	0.88234	0.97236	-0.033
Mof_C 	C 	0.58943	0.96517	0.81317	0.039
Mof_C 	C 	0.5915	0.9307	0.7989	-0.033
Mof_C 	C 	0.44533	0.13575	0.83371	0.039
Mof_C 	C 	0.4706	0.154	0.7838	-0.027
Mof_C 	C 	0.40842	0.0793	0.77706	0.074
Mof_C 	C 	0.32359	0.13225	0.79191	0.005
Mof_C 	C 	0.41474	0.95128	0.90918	0.038
Mof_C 	C 	0.38244	0.97236	0.88234	-0.036
Mof_C 	C 	0.81317	0.63223	0.58943	0.038
Mof_C 	C 	0.7989	0.6789	0.5915	-0.033
Mof_C 	C 	0.83371	0.58521	0.44533	0.039
Mof_C 	C 	0.7838	0.5916	0.4706	-0.027
Mof_C 	C 	0.77706	0.73522	0.40842	0.074
Mof_C 	C 	0.79191	0.75225	0.32359	0.006
Mof_C 	C 	0.90918	0.7248	0.41474	0.038
Mof_C 	C 	0.88234	0.76286	0.38244	-0.038
Mof_C 	C 	0.96517	0.58943	0.63223	0.038
Mof_C 	C 	0.9307	0.5915	0.6789	-0.033
Mof_C 	C 	0.13575	0.44533	0.58521	0.039
Mof_C 	C 	0.154	0.4706	0.5916	-0.027
Mof_C 	C 	0.0793	0.40842	0.73522	0.074
Mof_C 	C 	0.13225	0.32359	0.75225	0.005
Mof_C 	C 	0.95128	0.41474	0.7248	0.038
Mof_C 	C 	0.97236	0.38244	0.76286	-0.036
Mof_C 	C 	0.63223	0.96517	0.58943	0.038
Mof_C 	C 	0.6789	0.9307	0.5915	-0.033
Mof_C 	C 	0.58521	0.13575	0.44533	0.039
Mof_C 	C 	0.5916	0.154	0.4706	-0.027
Mof_C 	C 	0.73522	0.0793	0.40842	0.074
Mof_C 	C 	0.75225	0.13225	0.32359	0.005
Mof_C 	C 	0.7248	0.95128	0.41474	0.038
Mof_C 	C 	0.76286	0.97236	0.38244	-0.036
Mof_C 	C 	0.58943	0.81317	0.63223	0.038
Mof_C 	C 	0.5915	0.7989	0.6789	-0.033
Mof_C 	C 	0.44533	0.83371	0.58521	0.039
Mof_C 	C 	0.4706	0.7838	0.5916	-0.027
Mof_C 	C 	0.40842	0.77706	0.73522	0.074
Mof_C 	C 	0.32359	0.79191	0.75225	0.006
Mof_C 	C 	0.41474	0.90918	0.7248	0.038
Mof_C 	C 	0.38244	0.88234	0.76286	-0.038
Mof_C 	C 	0.81317	0.58943	0.96517	0.039
Mof_C 	C 	0.7989	0.5915	0.9307	-0.033
Mof_C 	C 	0.83371	0.44533	0.13575	0.039
Mof_C 	C 	0.7838	0.4706	0.154	-0.027
Mof_C 	C 	0.77706	0.40842	0.0793	0.074
Mof_C 	C 	0.79191	0.32359	0.13225	0.005
Mof_C 	C 	0.90918	0.41474	0.95128	0.038
Mof_C 	C 	0.88234	0.38244	0.97236	-0.036
Mof_C 	C 	0.96517	0.63223	0.81317	0.039
Mof_C 	C 	0.9307	0.6789	0.7989	-0.033
Mof_C 	C 	0.13575	0.58521	0.83371	0.039
Mof_C 	C 	0.154	0.5916	0.7838	-0.027
Mof_C 	C 	0.0793	0.73522	0.77706	0.074
Mof_C 	C 	0.13225	0.75225	0.79191	0.005
Mof_C 	C 	0.95128	0.7248	0.90918	0.037
Mof_C 	C 	0.97236	0.76286	0.88234	-0.033
Mof_C 	C 	0.41057	0.36777	0.18683	0.038
Mof_C 	C 	0.4085	0.3211	0.2011	-0.033
Mof_C 	C 	0.55467	0.41479	0.16629	0.039
Mof_C 	C 	0.5294	0.4084	0.2162	-0.027
Mof_C 	C 	0.59158	0.26478	0.22294	0.074
Mof_C 	C 	0.67641	0.24775	0.20809	0.006
Mof_C 	C 	0.58526	0.2752	0.09082	0.038
Mof_C 	C 	0.61756	0.23714	0.11766	-0.038
Mof_C 	C 	0.36777	0.41057	0.03483	0.038
Mof_C 	C 	0.3211	0.4085	0.0693	-0.033
Mof_C 	C 	0.41479	0.55467	0.86425	0.039
Mof_C 	C 	0.4084	0.5294	0.846	-0.027
Mof_C 	C 	0.26478	0.59158	0.9207	0.074
Mof_C 	C 	0.24775	0.67641	0.86775	0.005
Mof_C 	C 	0.2752	0.58526	0.04872	0.038
Mof_C 	C 	0.23714	0.61756	0.02764	-0.036
Mof_C 	C 	0.03483	0.18683	0.36777	0.039
Mof_C 	C 	0.0693	0.2011	0.3211	-0.033
Mof_C 	C 	0.86425	0.16629	0.41479	0.039
Mof_C 	C 	0.846	0.2162	0.4084	-0.027
Mof_C 	C 	0.9207	0.22294	0.26478	0.074
Mof_C 	C 	0.86775	0.20809	0.24775	0.005
Mof_C 	C 	0.04872	0.09082	0.2752	0.037
Mof_C 	C 	0.02764	0.11766	0.23714	-0.033
Mof_C 	C 	0.18683	0.03483	0.41057	0.039
Mof_C 	C 	0.2011	0.0693	0.4085	-0.033
Mof_C 	C 	0.16629	0.86425	0.55467	0.039
Mof_C 	C 	0.2162	0.846	0.5294	-0.027
Mof_C 	C 	0.22294	0.9207	0.59158	0.074
Mof_C 	C 	0.20809	0.86775	0.67641	0.005
Mof_C 	C 	0.09082	0.04872	0.58526	0.038
Mof_C 	C 	0.11766	0.02764	0.61756	-0.036
Mof_C 	C 	0.18683	0.36777	0.03483	0.039
Mof_C 	C 	0.2011	0.3211	0.0693	-0.033
Mof_C 	C 	0.16629	0.41479	0.86425	0.039
Mof_C 	C 	0.2162	0.4084	0.846	-0.027
Mof_C 	C 	0.22294	0.26478	0.9207	0.074
Mof_C 	C 	0.20809	0.24775	0.86775	0.005
Mof_C 	C 	0.09082	0.2752	0.04872	0.037
Mof_C 	C 	0.11766	0.23714	0.02764	-0.033
Mof_C 	C 	0.03483	0.41057	0.18683	0.039
Mof_C 	C 	0.0693	0.4085	0.2011	-0.033
Mof_C 	C 	0.86425	0.55467	0.16629	0.039
Mof_C 	C 	0.846	0.5294	0.2162	-0.027
Mof_C 	C 	0.9207	0.59158	0.22294	0.074
Mof_C 	C 	0.86775	0.67641	0.20809	0.005
Mof_C 	C 	0.04872	0.58526	0.09082	0.038
Mof_C 	C 	0.02764	0.61756	0.11766	-0.036
Mof_C 	C 	0.36777	0.18683	0.41057	0.038
Mof_C 	C 	0.3211	0.2011	0.4085	-0.033
Mof_C 	C 	0.41479	0.16629	0.55467	0.039
Mof_C 	C 	0.4084	0.2162	0.5294	-0.027
Mof_C 	C 	0.26478	0.22294	0.59158	0.074
Mof_C 	C 	0.24775	0.20809	0.67641	0.006
Mof_C 	C 	0.2752	0.09082	0.58526	0.038
Mof_C 	C 	0.23714	0.11766	0.61756	-0.038
Mof_C 	C 	0.41057	0.03483	0.36777	0.038
Mof_C 	C 	0.4085	0.0693	0.3211	-0.033
Mof_C 	C 	0.55467	0.86425	0.41479	0.039
Mof_C 	C 	0.5294	0.846	0.4084	-0.027
Mof_C 	C 	0.59158	0.9207	0.26478	0.074
Mof_C 	C 	0.67641	0.86775	0.24775	0.005
Mof_C 	C 	0.58526	0.04872	0.2752	0.038
Mof_C 	C 	0.61756	0.02764	0.23714	-0.036
Mof_C 	C 	0.03483	0.36777	0.41057	0.038
Mof_C 	C 	0.0693	0.3211	0.4085	-0.033
Mof_C 	C 	0.86425	0.41479	0.55467	0.039
Mof_C 	C 	0.846	0.4084	0.5294	-0.027
Mof_C 	C 	0.9207	0.26478	0.59158	0.074
Mof_C 	C 	0.86775	0.24775	0.67641	0.005
Mof_C 	C 	0.04872	0.2752	0.58526	0.038
Mof_C 	C 	0.02764	0.23714	0.61756	-0.036
Mof_C 	C 	0.18683	0.41057	0.36777	0.038
Mof_C 	C 	0.2011	0.4085	0.3211	-0.033
Mof_C 	C 	0.16629	0.55467	0.41479	0.039
Mof_C 	C 	0.2162	0.5294	0.4084	-0.027
Mof_C 	C 	0.22294	0.59158	0.26478	0.074
Mof_C 	C 	0.20809	0.67641	0.24775	0.006
Mof_C 	C 	0.09082	0.58526	0.2752	0.038
Mof_C 	C 	0.11766	0.61756	0.23714	-0.038
Mof_C 	C 	0.41057	0.18683	0.03483	0.039
Mof_C 	C 	0.4085	0.2011	0.0693	-0.033
Mof_C 	C 	0.55467	0.16629	0.86425	0.039
Mof_C 	C 	0.5294	0.2162	0.846	-0.027
Mof_C 	C 	0.59158	0.22294	0.9207	0.074
Mof_C 	C 	0.67641	0.20809	0.86775	0.005
Mof_C 	C 	0.58526	0.09082	0.04872	0.038
Mof_C 	C 	0.61756	0.11766	0.02764	-0.036
Mof_C 	C 	0.36777	0.03483	0.18683	0.039
Mof_C 	C 	0.3211	0.0693	0.2011	-0.033
Mof_C 	C 	0.41479	0.86425	0.16629	0.039
Mof_C 	C 	0.4084	0.846	0.2162	-0.027
Mof_C 	C 	0.26478	0.9207	0.22294	0.074
Mof_C 	C 	0.24775	0.86775	0.20809	0.005
Mof_C 	C 	0.2752	0.04872	0.09082	0.037
Mof_C 	C 	0.23714	0.02764	0.11766	-0.033
Mof_C 	C 	0.4313	0.4313	0.16478	0.075
Mof_C 	C 	0.4313	0.4313	0.97262	0.075
Mof_C 	C 	0.16478	0.97262	0.4313	0.075
Mof_C 	C 	0.97262	0.16478	0.4313	0.075
Mof_C 	C 	0.4313	0.16478	0.97262	0.075
Mof_C 	C 	0.4313	0.97262	0.16478	0.075
Mof_C 	C 	0.16478	0.4313	0.4313	0.075
Mof_C 	C 	0.97262	0.4313	0.4313	0.075
Mof_C 	C 	0.4313	0.97262	0.4313	0.075
Mof_C 	C 	0.4313	0.16478	0.4313	0.075
Mof_C 	C 	0.16478	0.4313	0.97262	0.075
Mof_C 	C 	0.97262	0.4313	0.16478	0.075
Mof_C 	C 	0.5687	0.5687	0.83522	0.075
Mof_C 	C 	0.5687	0.5687	0.02738	0.075
Mof_C 	C 	0.02738	0.83522	0.5687	0.075
Mof_C 	C 	0.83522	0.02738	0.5687	0.075
Mof_C 	C 	0.83522	0.5687	0.02738	0.075
Mof_C 	C 	0.02738	0.5687	0.83522	0.075
Mof_C 	C 	0.5687	0.83522	0.5687	0.075
Mof_C 	C 	0.5687	0.02738	0.5687	0.075
Mof_C 	C 	0.02738	0.5687	0.5687	0.075
Mof_C 	C 	0.83522	0.5687	0.5687	0.075
Mof_C 	C 	0.5687	0.83522	0.02738	0.075
Mof_C 	C 	0.5687	0.02738	0.83522	0.075
Mof_C 	C 	0.4137	0.5863	0.0889	0.077
Mof_C 	C 	0.5863	0.4137	0.9111	0.077
Mof_C 	C 	0.0889	0.9111	0.4137	0.077
Mof_C 	C 	0.9111	0.0889	0.5863	0.077
Mof_C 	C 	0.4137	0.0889	0.9111	0.077
Mof_C 	C 	0.5863	0.9111	0.0889	0.077
Mof_C 	C 	0.0889	0.4137	0.5863	0.077
Mof_C 	C 	0.9111	0.5863	0.4137	0.077
Mof_C 	C 	0.4137	0.9111	0.5863	0.077
Mof_C 	C 	0.5863	0.0889	0.4137	0.077
Mof_C 	C 	0.0889	0.5863	0.9111	0.077
Mof_C 	C 	0.9111	0.4137	0.0889	0.077
Mof_C 	C 	0.4137	0.5863	0.9111	0.077
Mof_C 	C 	0.5863	0.4137	0.0889	0.077
Mof_C 	C 	0.0889	0.9111	0.5863	0.077
Mof_C 	C 	0.9111	0.0889	0.4137	0.077
Mof_C 	C 	0.9111	0.5863	0.0889	0.077
Mof_C 	C 	0.0889	0.4137	0.9111	0.077
Mof_C 	C 	0.5863	0.9111	0.4137	0.077
Mof_C 	C 	0.4137	0.0889	0.5863	0.077
Mof_C 	C 	0.0889	0.5863	0.4137	0.077
Mof_C 	C 	0.9111	0.4137	0.5863	0.077
Mof_C 	C 	0.4137	0.9111	0.0889	0.077
Mof_C 	C 	0.5863	0.0889	0.9111	0.077
Mof_C 	C 	0.2547	0.5213	0.2547	0.085
Mof_C 	C 	0.5213	0.2547	0.9693	0.085
Mof_C 	C 	0.2547	0.9693	0.2547	0.085
Mof_C 	C 	0.9693	0.2547	0.5213	0.085
Mof_C 	C 	0.2547	0.2547	0.9693	0.085
Mof_C 	C 	0.5213	0.9693	0.2547	0.085
Mof_C 	C 	0.2547	0.2547	0.5213	0.085
Mof_C 	C 	0.9693	0.5213	0.2547	0.085
Mof_C 	C 	0.2547	0.9693	0.5213	0.085
Mof_C 	C 	0.5213	0.2547	0.2547	0.085
Mof_C 	C 	0.2547	0.5213	0.9693	0.085
Mof_C 	C 	0.9693	0.2547	0.2547	0.085
Mof_C 	C 	0.4787	0.7453	0.7453	0.085
Mof_C 	C 	0.7453	0.4787	0.0307	0.085
Mof_C 	C 	0.0307	0.7453	0.7453	0.085
Mof_C 	C 	0.7453	0.0307	0.4787	0.085
Mof_C 	C 	0.7453	0.7453	0.0307	0.085
Mof_C 	C 	0.0307	0.4787	0.7453	0.085
Mof_C 	C 	0.7453	0.7453	0.4787	0.085
Mof_C 	C 	0.4787	0.0307	0.7453	0.085
Mof_C 	C 	0.0307	0.7453	0.4787	0.085
Mof_C 	C 	0.7453	0.4787	0.7453	0.085
Mof_C 	C 	0.4787	0.7453	0.0307	0.085
Mof_C 	C 	0.7453	0.0307	0.7453	0.085
Mof_C 	C 	0.3437	0.52978	0.06326	0.098
Mof_C 	C 	0.52978	0.3437	0.06326	0.098
Mof_C 	C 	0.06326	0.06326	0.3437	0.098
Mof_C 	C 	0.06326	0.06326	0.52978	0.098
Mof_C 	C 	0.3437	0.06326	0.06326	0.098
Mof_C 	C 	0.52978	0.06326	0.06326	0.098
Mof_C 	C 	0.06326	0.3437	0.52978	0.098
Mof_C 	C 	0.06326	0.52978	0.3437	0.098
Mof_C 	C 	0.3437	0.06326	0.52978	0.098
Mof_C 	C 	0.52978	0.06326	0.3437	0.098
Mof_C 	C 	0.06326	0.52978	0.06326	0.098
Mof_C 	C 	0.06326	0.3437	0.06326	0.098
Mof_C 	C 	0.47022	0.6563	0.93674	0.098
Mof_C 	C 	0.6563	0.47022	0.93674	0.098
Mof_C 	C 	0.93674	0.93674	0.6563	0.098
Mof_C 	C 	0.93674	0.93674	0.47022	0.098
Mof_C 	C 	0.93674	0.6563	0.93674	0.098
Mof_C 	C 	0.93674	0.47022	0.93674	0.098
Mof_C 	C 	0.6563	0.93674	0.47022	0.098
Mof_C 	C 	0.47022	0.93674	0.6563	0.098
Mof_C 	C 	0.93674	0.6563	0.47022	0.098
Mof_C 	C 	0.93674	0.47022	0.6563	0.098
Mof_C 	C 	0.47022	0.93674	0.93674	0.098
Mof_C 	C 	0.6563	0.93674	0.93674	0.098
Mof_N 	N 	0.32162	0.36198	0.2113	-0.055
Mof_N 	N 	0.4314	0.54	0.233	-0.059
Mof_N 	N 	0.27833	0.63425	0.19119	-0.129
Mof_N 	N 	0.19931	0.64877	0.09617	-0.057
Mof_N 	N 	0.38108	0.45184	0.1726	-0.279
Mof_N 	N 	0.39404	0.55544	0.13618	-0.274
Mof_N 	N 	0.28602	0.5466	0.2154	-0.284
Mof_N 	N 	0.31987	0.54793	0.10143	-0.282
Mof_N 	N 	0.36198	0.32162	0.1051	-0.055
Mof_N 	N 	0.54	0.4314	0.7956	-0.059
Mof_N 	N 	0.63425	0.27833	0.89623	-0.129
Mof_N 	N 	0.64877	0.19931	0.05575	-0.057
Mof_N 	N 	0.45184	0.38108	0.99448	-0.279
Mof_N 	N 	0.55544	0.39404	0.91434	-0.274
Mof_N 	N 	0.5466	0.28602	0.95198	-0.284
Mof_N 	N 	0.54793	0.31987	0.03077	-0.281
Mof_N 	N 	0.2113	0.1051	0.32162	-0.055
Mof_N 	N 	0.233	0.7956	0.4314	-0.059
Mof_N 	N 	0.19119	0.89623	0.27833	-0.129
Mof_N 	N 	0.09617	0.05575	0.19931	-0.057
Mof_N 	N 	0.1726	0.99448	0.38108	-0.28
Mof_N 	N 	0.13618	0.91434	0.39404	-0.274
Mof_N 	N 	0.2154	0.95198	0.28602	-0.284
Mof_N 	N 	0.10143	0.03077	0.31987	-0.281
Mof_N 	N 	0.1051	0.2113	0.36198	-0.055
Mof_N 	N 	0.7956	0.233	0.54	-0.059
Mof_N 	N 	0.89623	0.19119	0.63425	-0.129
Mof_N 	N 	0.05575	0.09617	0.64877	-0.057
Mof_N 	N 	0.99448	0.1726	0.45184	-0.28
Mof_N 	N 	0.91434	0.13618	0.55544	-0.274
Mof_N 	N 	0.95198	0.2154	0.5466	-0.284
Mof_N 	N 	0.03077	0.10143	0.54793	-0.281
Mof_N 	N 	0.32162	0.2113	0.1051	-0.055
Mof_N 	N 	0.4314	0.233	0.7956	-0.059
Mof_N 	N 	0.27833	0.19119	0.89623	-0.129
Mof_N 	N 	0.19931	0.09617	0.05575	-0.057
Mof_N 	N 	0.38108	0.1726	0.99448	-0.28
Mof_N 	N 	0.39404	0.13618	0.91434	-0.274
Mof_N 	N 	0.28602	0.2154	0.95198	-0.284
Mof_N 	N 	0.31987	0.10143	0.03077	-0.281
Mof_N 	N 	0.36198	0.1051	0.2113	-0.055
Mof_N 	N 	0.54	0.7956	0.233	-0.059
Mof_N 	N 	0.63425	0.89623	0.19119	-0.129
Mof_N 	N 	0.64877	0.05575	0.09617	-0.057
Mof_N 	N 	0.45184	0.99448	0.1726	-0.28
Mof_N 	N 	0.55544	0.91434	0.13618	-0.274
Mof_N 	N 	0.5466	0.95198	0.2154	-0.284
Mof_N 	N 	0.54793	0.03077	0.10143	-0.281
Mof_N 	N 	0.2113	0.32162	0.36198	-0.055
Mof_N 	N 	0.233	0.4314	0.54	-0.059
Mof_N 	N 	0.19119	0.27833	0.63425	-0.129
Mof_N 	N 	0.09617	0.19931	0.64877	-0.057
Mof_N 	N 	0.1726	0.38108	0.45184	-0.279
Mof_N 	N 	0.13618	0.39404	0.55544	-0.274
Mof_N 	N 	0.2154	0.28602	0.5466	-0.284
Mof_N 	N 	0.10143	0.31987	0.54793	-0.282
Mof_N 	N 	0.1051	0.36198	0.32162	-0.055
Mof_N 	N 	0.7956	0.54	0.4314	-0.059
Mof_N 	N 	0.89623	0.63425	0.27833	-0.129
Mof_N 	N 	0.05575	0.64877	0.19931	-0.057
Mof_N 	N 	0.99448	0.45184	0.38108	-0.279
Mof_N 	N 	0.91434	0.55544	0.39404	-0.274
Mof_N 	N 	0.95198	0.5466	0.28602	-0.284
Mof_N 	N 	0.03077	0.54793	0.31987	-0.281
Mof_N 	N 	0.32162	0.1051	0.36198	-0.055
Mof_N 	N 	0.4314	0.7956	0.54	-0.059
Mof_N 	N 	0.27833	0.89623	0.63425	-0.129
Mof_N 	N 	0.19931	0.05575	0.64877	-0.057
Mof_N 	N 	0.38108	0.99448	0.45184	-0.279
Mof_N 	N 	0.39404	0.91434	0.55544	-0.274
Mof_N 	N 	0.28602	0.95198	0.5466	-0.284
Mof_N 	N 	0.31987	0.03077	0.54793	-0.281
Mof_N 	N 	0.36198	0.2113	0.32162	-0.055
Mof_N 	N 	0.54	0.233	0.4314	-0.059
Mof_N 	N 	0.63425	0.19119	0.27833	-0.129
Mof_N 	N 	0.64877	0.09617	0.19931	-0.057
Mof_N 	N 	0.45184	0.1726	0.38108	-0.279
Mof_N 	N 	0.55544	0.13618	0.39404	-0.274
Mof_N 	N 	0.5466	0.2154	0.28602	-0.284
Mof_N 	N 	0.54793	0.10143	0.31987	-0.282
Mof_N 	N 	0.2113	0.36198	0.1051	-0.055
Mof_N 	N 	0.233	0.54	0.7956	-0.059
Mof_N 	N 	0.19119	0.63425	0.89623	-0.129
Mof_N 	N 	0.09617	0.64877	0.05575	-0.057
Mof_N 	N 	0.1726	0.45184	0.99448	-0.28
Mof_N 	N 	0.13618	0.55544	0.91434	-0.274
Mof_N 	N 	0.2154	0.5466	0.95198	-0.284
Mof_N 	N 	0.10143	0.54793	0.03077	-0.281
Mof_N 	N 	0.1051	0.32162	0.2113	-0.055
Mof_N 	N 	0.7956	0.4314	0.233	-0.059
Mof_N 	N 	0.89623	0.27833	0.19119	-0.129
Mof_N 	N 	0.05575	0.19931	0.09617	-0.057
Mof_N 	N 	0.99448	0.38108	0.1726	-0.28
Mof_N 	N 	0.91434	0.39404	0.13618	-0.274
Mof_N 	N 	0.95198	0.28602	0.2154	-0.284
Mof_N 	N 	0.03077	0.31987	0.10143	-0.281
Mof_N 	N 	0.63802	0.67838	0.7887	-0.055
Mof_N 	N 	0.46	0.5686	0.767	-0.059
Mof_N 	N 	0.36575	0.72167	0.80881	-0.129
Mof_N 	N 	0.35123	0.80069	0.90383	-0.057
Mof_N 	N 	0.54816	0.61892	0.8274	-0.279
Mof_N 	N 	0.44456	0.60596	0.86382	-0.274
Mof_N 	N 	0.4534	0.71398	0.7846	-0.284
Mof_N 	N 	0.45207	0.68013	0.89857	-0.282
Mof_N 	N 	0.67838	0.63802	0.8949	-0.055
Mof_N 	N 	0.5686	0.46	0.2044	-0.059
Mof_N 	N 	0.72167	0.36575	0.10377	-0.129
Mof_N 	N 	0.80069	0.35123	0.94425	-0.057
Mof_N 	N 	0.61892	0.54816	0.00552	-0.279
Mof_N 	N 	0.60596	0.44456	0.08566	-0.274
Mof_N 	N 	0.71398	0.4534	0.04802	-0.284
Mof_N 	N 	0.68013	0.45207	0.96923	-0.281
Mof_N 	N 	0.8949	0.7887	0.67838	-0.055
Mof_N 	N 	0.2044	0.767	0.5686	-0.059
Mof_N 	N 	0.10377	0.80881	0.72167	-0.129
Mof_N 	N 	0.94425	0.90383	0.80069	-0.057
Mof_N 	N 	0.00552	0.8274	0.61892	-0.28
Mof_N 	N 	0.08566	0.86382	0.60596	-0.274
Mof_N 	N 	0.04802	0.7846	0.71398	-0.284
Mof_N 	N 	0.96923	0.89857	0.68013	-0.281
Mof_N 	N 	0.7887	0.8949	0.63802	-0.055
Mof_N 	N 	0.767	0.2044	0.46	-0.059
Mof_N 	N 	0.80881	0.10377	0.36575	-0.129
Mof_N 	N 	0.90383	0.94425	0.35123	-0.057
Mof_N 	N 	0.8274	0.00552	0.54816	-0.28
Mof_N 	N 	0.86382	0.08566	0.44456	-0.274
Mof_N 	N 	0.7846	0.04802	0.4534	-0.284
Mof_N 	N 	0.89857	0.96923	0.45207	-0.281
Mof_N 	N 	0.7887	0.67838	0.8949	-0.055
Mof_N 	N 	0.767	0.5686	0.2044	-0.059
Mof_N 	N 	0.80881	0.72167	0.10377	-0.129
Mof_N 	N 	0.90383	0.80069	0.94425	-0.057
Mof_N 	N 	0.8274	0.61892	0.00552	-0.28
Mof_N 	N 	0.86382	0.60596	0.08566	-0.274
Mof_N 	N 	0.7846	0.71398	0.04802	-0.284
Mof_N 	N 	0.89857	0.68013	0.96923	-0.281
Mof_N 	N 	0.8949	0.63802	0.7887	-0.055
Mof_N 	N 	0.2044	0.46	0.767	-0.059
Mof_N 	N 	0.10377	0.36575	0.80881	-0.129
Mof_N 	N 	0.94425	0.35123	0.90383	-0.057
Mof_N 	N 	0.00552	0.54816	0.8274	-0.28
Mof_N 	N 	0.08566	0.44456	0.86382	-0.274
Mof_N 	N 	0.04802	0.4534	0.7846	-0.284
Mof_N 	N 	0.96923	0.45207	0.89857	-0.281
Mof_N 	N 	0.67838	0.7887	0.63802	-0.055
Mof_N 	N 	0.5686	0.767	0.46	-0.059
Mof_N 	N 	0.72167	0.80881	0.36575	-0.129
Mof_N 	N 	0.80069	0.90383	0.35123	-0.057
Mof_N 	N 	0.61892	0.8274	0.54816	-0.279
Mof_N 	N 	0.60596	0.86382	0.44456	-0.274
Mof_N 	N 	0.71398	0.7846	0.4534	-0.284
Mof_N 	N 	0.68013	0.89857	0.45207	-0.282
Mof_N 	N 	0.63802	0.8949	0.67838	-0.055
Mof_N 	N 	0.46	0.2044	0.5686	-0.059
Mof_N 	N 	0.36575	0.10377	0.72167	-0.129
Mof_N 	N 	0.35123	0.94425	0.80069	-0.057
Mof_N 	N 	0.54816	0.00552	0.61892	-0.279
Mof_N 	N 	0.44456	0.08566	0.60596	-0.274
Mof_N 	N 	0.4534	0.04802	0.71398	-0.284
Mof_N 	N 	0.45207	0.96923	0.68013	-0.281
Mof_N 	N 	0.8949	0.67838	0.63802	-0.055
Mof_N 	N 	0.2044	0.5686	0.46	-0.059
Mof_N 	N 	0.10377	0.72167	0.36575	-0.129
Mof_N 	N 	0.94425	0.80069	0.35123	-0.057
Mof_N 	N 	0.00552	0.61892	0.54816	-0.279
Mof_N 	N 	0.08566	0.60596	0.44456	-0.274
Mof_N 	N 	0.04802	0.71398	0.4534	-0.284
Mof_N 	N 	0.96923	0.68013	0.45207	-0.281
Mof_N 	N 	0.7887	0.63802	0.67838	-0.055
Mof_N 	N 	0.767	0.46	0.5686	-0.059
Mof_N 	N 	0.80881	0.36575	0.72167	-0.129
Mof_N 	N 	0.90383	0.35123	0.80069	-0.057
Mof_N 	N 	0.8274	0.54816	0.61892	-0.279
Mof_N 	N 	0.86382	0.44456	0.60596	-0.274
Mof_N 	N 	0.7846	0.4534	0.71398	-0.284
Mof_N 	N 	0.89857	0.45207	0.68013	-0.282
Mof_N 	N 	0.63802	0.7887	0.8949	-0.055
Mof_N 	N 	0.46	0.767	0.2044	-0.059
Mof_N 	N 	0.36575	0.80881	0.10377	-0.129
Mof_N 	N 	0.35123	0.90383	0.94425	-0.057
Mof_N 	N 	0.54816	0.8274	0.00552	-0.28
Mof_N 	N 	0.44456	0.86382	0.08566	-0.274
Mof_N 	N 	0.4534	0.7846	0.04802	-0.284
Mof_N 	N 	0.45207	0.89857	0.96923	-0.281
Mof_N 	N 	0.67838	0.8949	0.7887	-0.055
Mof_N 	N 	0.5686	0.2044	0.767	-0.059
Mof_N 	N 	0.72167	0.10377	0.80881	-0.129
Mof_N 	N 	0.80069	0.94425	0.90383	-0.057
Mof_N 	N 	0.61892	0.00552	0.8274	-0.28
Mof_N 	N 	0.60596	0.08566	0.86382	-0.274
Mof_N 	N 	0.71398	0.04802	0.7846	-0.284
Mof_N 	N 	0.68013	0.96923	0.89857	-0.281
Mof_N 	N 	0.67838	0.63802	0.7887	-0.055
Mof_N 	N 	0.5686	0.46	0.767	-0.059
Mof_N 	N 	0.72167	0.36575	0.80881	-0.129
Mof_N 	N 	0.80069	0.35123	0.90383	-0.057
Mof_N 	N 	0.61892	0.54816	0.8274	-0.279
Mof_N 	N 	0.60596	0.44456	0.86382	-0.274
Mof_N 	N 	0.71398	0.4534	0.7846	-0.284
Mof_N 	N 	0.68013	0.45207	0.89857	-0.282
Mof_N 	N 	0.63802	0.67838	0.8949	-0.055
Mof_N 	N 	0.46	0.5686	0.2044	-0.059
Mof_N 	N 	0.36575	0.72167	0.10377	-0.129
Mof_N 	N 	0.35123	0.80069	0.94425	-0.057
Mof_N 	N 	0.54816	0.61892	0.00552	-0.279
Mof_N 	N 	0.44456	0.60596	0.08566	-0.274
Mof_N 	N 	0.4534	0.71398	0.04802	-0.284
Mof_N 	N 	0.45207	0.68013	0.96923	-0.281
Mof_N 	N 	0.7887	0.8949	0.67838	-0.055
Mof_N 	N 	0.767	0.2044	0.5686	-0.059
Mof_N 	N 	0.80881	0.10377	0.72167	-0.129
Mof_N 	N 	0.90383	0.94425	0.80069	-0.057
Mof_N 	N 	0.8274	0.00552	0.61892	-0.28
Mof_N 	N 	0.86382	0.08566	0.60596	-0.274
Mof_N 	N 	0.7846	0.04802	0.71398	-0.284
Mof_N 	N 	0.89857	0.96923	0.68013	-0.281
Mof_N 	N 	0.8949	0.7887	0.63802	-0.055
Mof_N 	N 	0.2044	0.767	0.46	-0.059
Mof_N 	N 	0.10377	0.80881	0.36575	-0.129
Mof_N 	N 	0.94425	0.90383	0.35123	-0.057
Mof_N 	N 	0.00552	0.8274	0.54816	-0.28
Mof_N 	N 	0.08566	0.86382	0.44456	-0.274
Mof_N 	N 	0.04802	0.7846	0.4534	-0.284
Mof_N 	N 	0.96923	0.89857	0.45207	-0.281
Mof_N 	N 	0.67838	0.7887	0.8949	-0.055
Mof_N 	N 	0.5686	0.767	0.2044	-0.059
Mof_N 	N 	0.72167	0.80881	0.10377	-0.129
Mof_N 	N 	0.80069	0.90383	0.94425	-0.057
Mof_N 	N 	0.61892	0.8274	0.00552	-0.28
Mof_N 	N 	0.60596	0.86382	0.08566	-0.274
Mof_N 	N 	0.71398	0.7846	0.04802	-0.284
Mof_N 	N 	0.68013	0.89857	0.96923	-0.281
Mof_N 	N 	0.63802	0.8949	0.7887	-0.055
Mof_N 	N 	0.46	0.2044	0.767	-0.059
Mof_N 	N 	0.36575	0.10377	0.80881	-0.129
Mof_N 	N 	0.35123	0.94425	0.90383	-0.057
Mof_N 	N 	0.54816	0.00552	0.8274	-0.28
Mof_N 	N 	0.44456	0.08566	0.86382	-0.274
Mof_N 	N 	0.4534	0.04802	0.7846	-0.284
Mof_N 	N 	0.45207	0.96923	0.89857	-0.281
Mof_N 	N 	0.7887	0.67838	0.63802	-0.055
Mof_N 	N 	0.767	0.5686	0.46	-0.059
Mof_N 	N 	0.80881	0.72167	0.36575	-0.129
Mof_N 	N 	0.90383	0.80069	0.35123	-0.057
Mof_N 	N 	0.8274	0.61892	0.54816	-0.279
Mof_N 	N 	0.86382	0.60596	0.44456	-0.274
Mof_N 	N 	0.7846	0.71398	0.4534	-0.284
Mof_N 	N 	0.89857	0.68013	0.45207	-0.282
Mof_N 	N 	0.8949	0.63802	0.67838	-0.055
Mof_N 	N 	0.2044	0.46	0.5686	-0.059
Mof_N 	N 	0.10377	0.36575	0.72167	-0.129
Mof_N 	N 	0.94425	0.35123	0.80069	-0.057
Mof_N 	N 	0.00552	0.54816	0.61892	-0.279
Mof_N 	N 	0.08566	0.44456	0.60596	-0.274
Mof_N 	N 	0.04802	0.4534	0.71398	-0.284
Mof_N 	N 	0.96923	0.45207	0.68013	-0.281
Mof_N 	N 	0.67838	0.8949	0.63802	-0.055
Mof_N 	N 	0.5686	0.2044	0.46	-0.059
Mof_N 	N 	0.72167	0.10377	0.36575	-0.129
Mof_N 	N 	0.80069	0.94425	0.35123	-0.057
Mof_N 	N 	0.61892	0.00552	0.54816	-0.279
Mof_N 	N 	0.60596	0.08566	0.44456	-0.274
Mof_N 	N 	0.71398	0.04802	0.4534	-0.284
Mof_N 	N 	0.68013	0.96923	0.45207	-0.281
Mof_N 	N 	0.63802	0.7887	0.67838	-0.055
Mof_N 	N 	0.46	0.767	0.5686	-0.059
Mof_N 	N 	0.36575	0.80881	0.72167	-0.129
Mof_N 	N 	0.35123	0.90383	0.80069	-0.057
Mof_N 	N 	0.54816	0.8274	0.61892	-0.279
Mof_N 	N 	0.44456	0.86382	0.60596	-0.274
Mof_N 	N 	0.4534	0.7846	0.71398	-0.284
Mof_N 	N 	0.45207	0.89857	0.68013	-0.282
Mof_N 	N 	0.7887	0.63802	0.8949	-0.055
Mof_N 	N 	0.767	0.46	0.2044	-0.059
Mof_N 	N 	0.80881	0.36575	0.10377	-0.129
Mof_N 	N 	0.90383	0.35123	0.94425	-0.057
Mof_N 	N 	0.8274	0.54816	0.00552	-0.28
Mof_N 	N 	0.86382	0.44456	0.08566	-0.274
Mof_N 	N 	0.7846	0.4534	0.04802	-0.284
Mof_N 	N 	0.89857	0.45207	0.96923	-0.281
Mof_N 	N 	0.8949	0.67838	0.7887	-0.055
Mof_N 	N 	0.2044	0.5686	0.767	-0.059
Mof_N 	N 	0.10377	0.72167	0.80881	-0.129
Mof_N 	N 	0.94425	0.80069	0.90383	-0.057
Mof_N 	N 	0.00552	0.61892	0.8274	-0.28
Mof_N 	N 	0.08566	0.60596	0.86382	-0.274
Mof_N 	N 	0.04802	0.71398	0.7846	-0.284
Mof_N 	N 	0.96923	0.68013	0.89857	-0.281
Mof_N 	N 	0.36198	0.32162	0.2113	-0.055
Mof_N 	N 	0.54	0.4314	0.233	-0.059
Mof_N 	N 	0.63425	0.27833	0.19119	-0.129
Mof_N 	N 	0.64877	0.19931	0.09617	-0.057
Mof_N 	N 	0.45184	0.38108	0.1726	-0.279
Mof_N 	N 	0.55544	0.39404	0.13618	-0.274
Mof_N 	N 	0.5466	0.28602	0.2154	-0.284
Mof_N 	N 	0.54793	0.31987	0.10143	-0.282
Mof_N 	N 	0.32162	0.36198	0.1051	-0.055
Mof_N 	N 	0.4314	0.54	0.7956	-0.059
Mof_N 	N 	0.27833	0.63425	0.89623	-0.129
Mof_N 	N 	0.19931	0.64877	0.05575	-0.057
Mof_N 	N 	0.38108	0.45184	0.99448	-0.279
Mof_N 	N 	0.39404	0.55544	0.91434	-0.274
Mof_N 	N 	0.28602	0.5466	0.95198	-0.284
Mof_N 	N 	0.31987	0.54793	0.03077	-0.281
Mof_N 	N 	0.1051	0.2113	0.32162	-0.055
Mof_N 	N 	0.7956	0.233	0.4314	-0.059
Mof_N 	N 	0.89623	0.19119	0.27833	-0.129
Mof_N 	N 	0.05575	0.09617	0.19931	-0.057
Mof_N 	N 	0.99448	0.1726	0.38108	-0.28
Mof_N 	N 	0.91434	0.13618	0.39404	-0.274
Mof_N 	N 	0.95198	0.2154	0.28602	-0.284
Mof_N 	N 	0.03077	0.10143	0.31987	-0.281
Mof_N 	N 	0.2113	0.1051	0.36198	-0.055
Mof_N 	N 	0.233	0.7956	0.54	-0.059
Mof_N 	N 	0.19119	0.89623	0.63425	-0.129
Mof_N 	N 	0.09617	0.05575	0.64877	-0.057
Mof_N 	N 	0.1726	0.99448	0.45184	-0.28
Mof_N 	N 	0.13618	0.91434	0.55544	-0.274
Mof_N 	N 	0.2154	0.95198	0.5466	-0.284
Mof_N 	N 	0.10143	0.03077	0.54793	-0.281
Mof_N 	N 	0.2113	0.32162	0.1051	-0.055
Mof_N 	N 	0.233	0.4314	0.7956	-0.059
Mof_N 	N 	0.19119	0.27833	0.89623	-0.129
Mof_N 	N 	0.09617	0.19931	0.05575	-0.057
Mof_N 	N 	0.1726	0.38108	0.99448	-0.28
Mof_N 	N 	0.13618	0.39404	0.91434	-0.274
Mof_N 	N 	0.2154	0.28602	0.95198	-0.284
Mof_N 	N 	0.10143	0.31987	0.03077	-0.281
Mof_N 	N 	0.1051	0.36198	0.2113	-0.055
Mof_N 	N 	0.7956	0.54	0.233	-0.059
Mof_N 	N 	0.89623	0.63425	0.19119	-0.129
Mof_N 	N 	0.05575	0.64877	0.09617	-0.057
Mof_N 	N 	0.99448	0.45184	0.1726	-0.28
Mof_N 	N 	0.91434	0.55544	0.13618	-0.274
Mof_N 	N 	0.95198	0.5466	0.2154	-0.284
Mof_N 	N 	0.03077	0.54793	0.10143	-0.281
Mof_N 	N 	0.32162	0.2113	0.36198	-0.055
Mof_N 	N 	0.4314	0.233	0.54	-0.059
Mof_N 	N 	0.27833	0.19119	0.63425	-0.129
Mof_N 	N 	0.19931	0.09617	0.64877	-0.057
Mof_N 	N 	0.38108	0.1726	0.45184	-0.279
Mof_N 	N 	0.39404	0.13618	0.55544	-0.274
Mof_N 	N 	0.28602	0.2154	0.5466	-0.284
Mof_N 	N 	0.31987	0.10143	0.54793	-0.282
Mof_N 	N 	0.36198	0.1051	0.32162	-0.055
Mof_N 	N 	0.54	0.7956	0.4314	-0.059
Mof_N 	N 	0.63425	0.89623	0.27833	-0.129
Mof_N 	N 	0.64877	0.05575	0.19931	-0.057
Mof_N 	N 	0.45184	0.99448	0.38108	-0.279
Mof_N 	N 	0.55544	0.91434	0.39404	-0.274
Mof_N 	N 	0.5466	0.95198	0.28602	-0.284
Mof_N 	N 	0.54793	0.03077	0.31987	-0.281
Mof_N 	N 	0.1051	0.32162	0.36198	-0.055
Mof_N 	N 	0.7956	0.4314	0.54	-0.059
Mof_N 	N 	0.89623	0.27833	0.63425	-0.129
Mof_N 	N 	0.05575	0.19931	0.64877	-0.057
Mof_N 	N 	0.99448	0.38108	0.45184	-0.279
Mof_N 	N 	0.91434	0.39404	0.55544	-0.274
Mof_N 	N 	0.95198	0.28602	0.5466	-0.284
Mof_N 	N 	0.03077	0.31987	0.54793	-0.281
Mof_N 	N 	0.2113	0.36198	0.32162	-0.055
Mof_N 	N 	0.233	0.54	0.4314	-0.059
Mof_N 	N 	0.19119	0.63425	0.27833	-0.129
Mof_N 	N 	0.09617	0.64877	0.19931	-0.057
Mof_N 	N 	0.1726	0.45184	0.38108	-0.279
Mof_N 	N 	0.13618	0.55544	0.39404	-0.274
Mof_N 	N 	0.2154	0.5466	0.28602	-0.284
Mof_N 	N 	0.10143	0.54793	0.31987	-0.282
Mof_N 	N 	0.36198	0.2113	0.1051	-0.055
Mof_N 	N 	0.54	0.233	0.7956	-0.059
Mof_N 	N 	0.63425	0.19119	0.89623	-0.129
Mof_N 	N 	0.64877	0.09617	0.05575	-0.057
Mof_N 	N 	0.45184	0.1726	0.99448	-0.28
Mof_N 	N 	0.55544	0.13618	0.91434	-0.274
Mof_N 	N 	0.5466	0.2154	0.95198	-0.284
Mof_N 	N 	0.54793	0.10143	0.03077	-0.281
Mof_N 	N 	0.32162	0.1051	0.2113	-0.055
Mof_N 	N 	0.4314	0.7956	0.233	-0.059
Mof_N 	N 	0.27833	0.89623	0.19119	-0.129
Mof_N 	N 	0.19931	0.05575	0.09617	-0.057
Mof_N 	N 	0.38108	0.99448	0.1726	-0.28
Mof_N 	N 	0.39404	0.91434	0.13618	-0.274
Mof_N 	N 	0.28602	0.95198	0.2154	-0.284
Mof_N 	N 	0.31987	0.03077	0.10143	-0.281
_end
