data_functionalizedCrystal
_audit_creation_method	'EQeq! by Chris Wilmer'
_symmetry_space_group_name_H-M	'P1'
_symmetry_Int_Tables_number	1
_symmetry_cell_setting	triclinic
loop_
_symmetry_equiv_pos_as_xyz
  x,y,z
_cell_length_a	13.657
_cell_length_b	13.657
_cell_length_c	53.305
_cell_angle_alpha	90
_cell_angle_beta	90
_cell_angle_gamma	90
loop_
_atom_site_label
_atom_site_type_symbol
_atom_site_fract_x
_atom_site_fract_y
_atom_site_fract_z
_atom_site_charge
Mof_Cu	Cu	0.94031	0.93609	0.118	0.834
Mof_S 	S 	0.87155	0.79422	0.10164	-0.523
Mof_N 	N 	0.0282	0.9795	0.08593	-0.268
Mof_N 	N 	0.8503	0.0412	0.12349	-0.202
Mof_N 	N 	0.1515	0.0285	0.99827	-0.088
Mof_N 	N 	0.2953	0.0284	0.0225	-0.085
Mof_C 	C 	0.1217	0.0031	0.08729	0.094
Mof_H 	H 	0.1498	0.0094	0.1031	-0.046
Mof_C 	C 	0.1803	0.0188	0.06663	-0.179
Mof_H 	H 	0.2465	0.0329	0.0685	0.093
Mof_C 	C 	0.1396	0.0114	0.0431	0.113
Mof_C 	C 	0.0434	0.989	0.0416	-0.218
Mof_H 	H 	0.0124	0.9875	0.0261	0.12
Mof_C 	C 	0.9901	0.9734	0.06343	0.167
Mof_H 	H 	0.9252	0.9534	0.062	-0.029
Mof_C 	C 	0.199	0.0236	0.02011	0.074
Mof_C 	C 	0.7912	0.1003	0.12651	-0.177
Mof_Cu	Cu	0.44031	0.43609	0.618	0.826
Mof_S 	S 	0.37155	0.29422	0.60164	-0.545
Mof_N 	N 	0.5282	0.4795	0.58593	-0.242
Mof_N 	N 	0.3503	0.5412	0.62349	-0.205
Mof_N 	N 	0.6515	0.5285	0.49827	-0.086
Mof_N 	N 	0.7953	0.5284	0.5225	-0.084
Mof_C 	C 	0.6217	0.5031	0.58729	0.082
Mof_H 	H 	0.6498	0.5094	0.6031	-0.04
Mof_C 	C 	0.6803	0.5188	0.56663	-0.156
Mof_H 	H 	0.7465	0.5329	0.5685	0.087
Mof_C 	C 	0.6396	0.5114	0.5431	0.087
Mof_C 	C 	0.5434	0.489	0.5416	-0.156
Mof_H 	H 	0.5124	0.4875	0.5261	0.106
Mof_C 	C 	0.4901	0.4734	0.56343	0.095
Mof_H 	H 	0.4252	0.4534	0.562	-0.009
Mof_C 	C 	0.699	0.5236	0.52011	0.085
Mof_C 	C 	0.2912	0.6003	0.62651	-0.18
Mof_Cu	Cu	0.55969	0.06391	0.618	0.826
Mof_S 	S 	0.62845	0.20578	0.60164	-0.542
Mof_N 	N 	0.4718	0.0205	0.58593	-0.241
Mof_N 	N 	0.6497	0.9588	0.62349	-0.205
Mof_N 	N 	0.3485	0.9715	0.49827	-0.087
Mof_N 	N 	0.2047	0.9716	0.5225	-0.089
Mof_C 	C 	0.3783	0.9969	0.58729	0.08
Mof_H 	H 	0.3502	0.9906	0.6031	-0.04
Mof_C 	C 	0.3197	0.9812	0.56663	-0.153
Mof_H 	H 	0.2535	0.9671	0.5685	0.083
Mof_C 	C 	0.3604	0.9886	0.5431	0.083
Mof_C 	C 	0.4566	0.011	0.5416	-0.153
Mof_H 	H 	0.4876	0.0125	0.5261	0.105
Mof_C 	C 	0.5099	0.0266	0.56343	0.093
Mof_H 	H 	0.5748	0.0466	0.562	-0.008
Mof_C 	C 	0.301	0.9764	0.52011	0.085
Mof_C 	C 	0.7088	0.8997	0.62651	-0.18
Mof_Cu	Cu	0.05969	0.56391	0.118	0.819
Mof_S 	S 	0.12845	0.70578	0.10164	-0.542
Mof_N 	N 	0.9718	0.5205	0.08593	-0.212
Mof_N 	N 	0.1497	0.4588	0.12349	-0.208
Mof_N 	N 	0.8485	0.4715	0.99827	-0.085
Mof_N 	N 	0.7047	0.4716	0.0225	-0.088
Mof_C 	C 	0.8783	0.4969	0.08729	0.067
Mof_H 	H 	0.8502	0.4906	0.1031	-0.034
Mof_C 	C 	0.8197	0.4812	0.06663	-0.129
Mof_H 	H 	0.7535	0.4671	0.0685	0.077
Mof_C 	C 	0.8604	0.4886	0.0431	0.056
Mof_C 	C 	0.9566	0.511	0.0416	-0.089
Mof_H 	H 	0.9876	0.5125	0.0261	0.091
Mof_C 	C 	0.0099	0.5266	0.06343	0.02
Mof_H 	H 	0.0748	0.5466	0.062	0.013
Mof_C 	C 	0.801	0.4764	0.02011	0.096
Mof_C 	C 	0.2088	0.3997	0.12651	-0.183
Mof_Cu	Cu	0.31391	0.69031	0.368	0.826
Mof_S 	S 	0.45578	0.62155	0.35164	-0.544
Mof_N 	N 	0.2705	0.7782	0.33593	-0.242
Mof_N 	N 	0.2088	0.6003	0.37349	-0.205
Mof_N 	N 	0.2215	0.9015	0.24827	-0.087
Mof_N 	N 	0.2216	0.0453	0.2725	-0.087
Mof_C 	C 	0.2469	0.8717	0.33729	0.08
Mof_H 	H 	0.2406	0.8998	0.3531	-0.041
Mof_C 	C 	0.2312	0.9303	0.31663	-0.156
Mof_H 	H 	0.2171	0.9965	0.3185	0.085
Mof_C 	C 	0.2386	0.8896	0.2931	0.084
Mof_C 	C 	0.261	0.7934	0.2916	-0.155
Mof_H 	H 	0.2625	0.7624	0.2761	0.105
Mof_C 	C 	0.2766	0.7401	0.31343	0.093
Mof_H 	H 	0.2966	0.6752	0.312	-0.009
Mof_C 	C 	0.2264	0.949	0.27011	0.083
Mof_C 	C 	0.1497	0.5412	0.37651	-0.187
Mof_Cu	Cu	0.81391	0.19031	0.868	0.828
Mof_S 	S 	0.95578	0.12155	0.85164	-0.514
Mof_N 	N 	0.7705	0.2782	0.83593	-0.241
Mof_N 	N 	0.7088	0.1003	0.87349	-0.205
Mof_N 	N 	0.7215	0.4015	0.74827	-0.086
Mof_N 	N 	0.7216	0.5453	0.7725	-0.086
Mof_C 	C 	0.7469	0.3717	0.83729	0.083
Mof_H 	H 	0.7406	0.3998	0.8531	-0.04
Mof_C 	C 	0.7312	0.4303	0.81663	-0.154
Mof_H 	H 	0.7171	0.4965	0.8185	0.087
Mof_C 	C 	0.7386	0.3896	0.7931	0.087
Mof_C 	C 	0.761	0.2934	0.7916	-0.154
Mof_H 	H 	0.7625	0.2624	0.7761	0.107
Mof_C 	C 	0.7766	0.2401	0.81343	0.096
Mof_H 	H 	0.7966	0.1752	0.812	-0.008
Mof_C 	C 	0.7264	0.449	0.77011	0.086
Mof_C 	C 	0.6497	0.0412	0.87651	-0.18
Mof_Cu	Cu	0.18609	0.30969	0.868	0.827
Mof_S 	S 	0.04422	0.37845	0.85164	-0.551
Mof_N 	N 	0.2295	0.2218	0.83593	-0.241
Mof_N 	N 	0.2912	0.3997	0.87349	-0.205
Mof_N 	N 	0.2785	0.0985	0.74827	-0.087
Mof_N 	N 	0.2784	0.9547	0.7725	-0.087
Mof_C 	C 	0.2531	0.1283	0.83729	0.08
Mof_H 	H 	0.2594	0.1002	0.8531	-0.04
Mof_C 	C 	0.2688	0.0697	0.81663	-0.155
Mof_H 	H 	0.2829	0.0035	0.8185	0.085
Mof_C 	C 	0.2614	0.1104	0.7931	0.084
Mof_C 	C 	0.239	0.2066	0.7916	-0.156
Mof_H 	H 	0.2375	0.2376	0.7761	0.105
Mof_C 	C 	0.2234	0.2599	0.81343	0.093
Mof_H 	H 	0.2034	0.3248	0.812	-0.009
Mof_C 	C 	0.2736	0.051	0.77011	0.083
Mof_C 	C 	0.3503	0.4588	0.87651	-0.18
Mof_Cu	Cu	0.68609	0.80969	0.368	0.827
Mof_S 	S 	0.54422	0.87845	0.35164	-0.544
Mof_N 	N 	0.7295	0.7218	0.33593	-0.241
Mof_N 	N 	0.7912	0.8997	0.37349	-0.205
Mof_N 	N 	0.7785	0.5985	0.24827	-0.085
Mof_N 	N 	0.7784	0.4547	0.2725	-0.086
Mof_C 	C 	0.7531	0.6283	0.33729	0.083
Mof_H 	H 	0.7594	0.6002	0.3531	-0.04
Mof_C 	C 	0.7688	0.5697	0.31663	-0.154
Mof_H 	H 	0.7829	0.5035	0.3185	0.086
Mof_C 	C 	0.7614	0.6104	0.2931	0.087
Mof_C 	C 	0.739	0.7066	0.2916	-0.154
Mof_H 	H 	0.7375	0.7376	0.2761	0.107
Mof_C 	C 	0.7234	0.7599	0.31343	0.096
Mof_H 	H 	0.7034	0.8248	0.312	-0.008
Mof_C 	C 	0.7736	0.551	0.27011	0.086
Mof_C 	C 	0.8503	0.9588	0.37651	-0.174
Mof_Cu	Cu	0.55969	0.93609	0.882	0.824
Mof_S 	S 	0.62845	0.79422	0.89836	-0.544
Mof_N 	N 	0.4718	0.9795	0.91407	-0.241
Mof_N 	N 	0.3485	0.0285	0.00173	-0.087
Mof_N 	N 	0.2047	0.0284	0.9775	-0.089
Mof_C 	C 	0.3783	0.0031	0.91271	0.079
Mof_H 	H 	0.3502	0.0094	0.8969	-0.04
Mof_C 	C 	0.3197	0.0188	0.93337	-0.153
Mof_H 	H 	0.2535	0.0329	0.9315	0.084
Mof_C 	C 	0.3604	0.0114	0.9569	0.083
Mof_C 	C 	0.4566	0.989	0.9584	-0.152
Mof_H 	H 	0.4876	0.9875	0.9739	0.105
Mof_C 	C 	0.5099	0.9734	0.93657	0.093
Mof_H 	H 	0.5748	0.9534	0.938	-0.008
Mof_C 	C 	0.301	0.0236	0.97989	0.085
Mof_Cu	Cu	0.05969	0.43609	0.382	0.817
Mof_S 	S 	0.12845	0.29422	0.39836	-0.544
Mof_N 	N 	0.9718	0.4795	0.41407	-0.213
Mof_N 	N 	0.8485	0.5285	0.50173	-0.085
Mof_N 	N 	0.7047	0.5284	0.4775	-0.088
Mof_C 	C 	0.8783	0.5031	0.41271	0.067
Mof_H 	H 	0.8502	0.5094	0.3969	-0.034
Mof_C 	C 	0.8197	0.5188	0.43337	-0.129
Mof_H 	H 	0.7535	0.5329	0.4315	0.078
Mof_C 	C 	0.8604	0.5114	0.4569	0.056
Mof_C 	C 	0.9566	0.489	0.4584	-0.088
Mof_H 	H 	0.9876	0.4875	0.4739	0.091
Mof_C 	C 	0.0099	0.4734	0.43657	0.02
Mof_H 	H 	0.0748	0.4534	0.438	0.013
Mof_C 	C 	0.801	0.5236	0.47989	0.096
Mof_Cu	Cu	0.94031	0.06391	0.382	0.832
Mof_S 	S 	0.87155	0.20578	0.39836	-0.525
Mof_N 	N 	0.0282	0.0205	0.41407	-0.268
Mof_N 	N 	0.1515	0.9715	0.50173	-0.088
Mof_N 	N 	0.2953	0.9716	0.4775	-0.085
Mof_C 	C 	0.1217	0.9969	0.41271	0.094
Mof_H 	H 	0.1498	0.9906	0.3969	-0.047
Mof_C 	C 	0.1803	0.9812	0.43337	-0.179
Mof_H 	H 	0.2465	0.9671	0.4315	0.094
Mof_C 	C 	0.1396	0.9886	0.4569	0.113
Mof_C 	C 	0.0434	0.011	0.4584	-0.217
Mof_H 	H 	0.0124	0.0125	0.4739	0.12
Mof_C 	C 	0.9901	0.0266	0.43657	0.166
Mof_H 	H 	0.9252	0.0466	0.438	-0.029
Mof_C 	C 	0.199	0.9764	0.47989	0.074
Mof_Cu	Cu	0.44031	0.56391	0.882	0.824
Mof_S 	S 	0.37155	0.70578	0.89836	-0.547
Mof_N 	N 	0.5282	0.5205	0.91407	-0.242
Mof_N 	N 	0.6515	0.4715	0.00173	-0.086
Mof_N 	N 	0.7953	0.4716	0.9775	-0.084
Mof_C 	C 	0.6217	0.4969	0.91271	0.082
Mof_H 	H 	0.6498	0.4906	0.8969	-0.041
Mof_C 	C 	0.6803	0.4812	0.93337	-0.156
Mof_H 	H 	0.7465	0.4671	0.9315	0.088
Mof_C 	C 	0.6396	0.4886	0.9569	0.087
Mof_C 	C 	0.5434	0.511	0.9584	-0.155
Mof_H 	H 	0.5124	0.5125	0.9739	0.106
Mof_C 	C 	0.4901	0.5266	0.93657	0.095
Mof_H 	H 	0.4252	0.5466	0.938	-0.009
Mof_C 	C 	0.699	0.4764	0.97989	0.085
Mof_Cu	Cu	0.18609	0.69031	0.632	0.825
Mof_S 	S 	0.04422	0.62155	0.64836	-0.553
Mof_N 	N 	0.2295	0.7782	0.66407	-0.241
Mof_N 	N 	0.2785	0.9015	0.75173	-0.087
Mof_N 	N 	0.2784	0.0453	0.7275	-0.087
Mof_C 	C 	0.2531	0.8717	0.66271	0.079
Mof_H 	H 	0.2594	0.8998	0.6469	-0.041
Mof_C 	C 	0.2688	0.9303	0.68337	-0.155
Mof_H 	H 	0.2829	0.9965	0.6815	0.085
Mof_C 	C 	0.2614	0.8896	0.7069	0.084
Mof_C 	C 	0.239	0.7934	0.7084	-0.155
Mof_H 	H 	0.2375	0.7624	0.7239	0.105
Mof_C 	C 	0.2234	0.7401	0.68657	0.093
Mof_H 	H 	0.2034	0.6752	0.688	-0.009
Mof_C 	C 	0.2736	0.949	0.72989	0.084
Mof_Cu	Cu	0.68609	0.19031	0.132	0.824
Mof_S 	S 	0.54422	0.12155	0.14836	-0.546
Mof_N 	N 	0.7295	0.2782	0.16407	-0.241
Mof_N 	N 	0.7785	0.4015	0.25173	-0.085
Mof_N 	N 	0.7784	0.5453	0.2275	-0.086
Mof_C 	C 	0.7531	0.3717	0.16271	0.082
Mof_H 	H 	0.7594	0.3998	0.1469	-0.04
Mof_C 	C 	0.7688	0.4303	0.18337	-0.154
Mof_H 	H 	0.7829	0.4965	0.1815	0.086
Mof_C 	C 	0.7614	0.3896	0.2069	0.087
Mof_C 	C 	0.739	0.2934	0.2084	-0.154
Mof_H 	H 	0.7375	0.2624	0.2239	0.107
Mof_C 	C 	0.7234	0.2401	0.18657	0.096
Mof_H 	H 	0.7034	0.1752	0.188	-0.008
Mof_C 	C 	0.7736	0.449	0.22989	0.086
Mof_Cu	Cu	0.31391	0.30969	0.132	0.823
Mof_S 	S 	0.45578	0.37845	0.14836	-0.546
Mof_N 	N 	0.2705	0.2218	0.16407	-0.242
Mof_N 	N 	0.2215	0.0985	0.25173	-0.087
Mof_N 	N 	0.2216	0.9547	0.2275	-0.088
Mof_C 	C 	0.2469	0.1283	0.16271	0.08
Mof_H 	H 	0.2406	0.1002	0.1469	-0.041
Mof_C 	C 	0.2312	0.0697	0.18337	-0.155
Mof_H 	H 	0.2171	0.0035	0.1815	0.085
Mof_C 	C 	0.2386	0.1104	0.2069	0.084
Mof_C 	C 	0.261	0.2066	0.2084	-0.155
Mof_H 	H 	0.2625	0.2376	0.2239	0.105
Mof_C 	C 	0.2766	0.2599	0.18657	0.092
Mof_H 	H 	0.2966	0.3248	0.188	-0.009
Mof_C 	C 	0.2264	0.051	0.22989	0.084
Mof_Cu	Cu	0.81391	0.80969	0.632	0.825
Mof_S 	S 	0.95578	0.87845	0.64836	-0.516
Mof_N 	N 	0.7705	0.7218	0.66407	-0.241
Mof_N 	N 	0.7215	0.5985	0.75173	-0.086
Mof_N 	N 	0.7216	0.4547	0.7275	-0.086
Mof_C 	C 	0.7469	0.6283	0.66271	0.083
Mof_H 	H 	0.7406	0.6002	0.6469	-0.041
Mof_C 	C 	0.7312	0.5697	0.68337	-0.154
Mof_H 	H 	0.7171	0.5035	0.6815	0.087
Mof_C 	C 	0.7386	0.6104	0.7069	0.087
Mof_C 	C 	0.761	0.7066	0.7084	-0.154
Mof_H 	H 	0.7625	0.7376	0.7239	0.107
Mof_C 	C 	0.7766	0.7599	0.68657	0.096
Mof_H 	H 	0.7966	0.8248	0.688	-0.008
Mof_C 	C 	0.7264	0.551	0.72989	0.086
Mof_Cu	Cu	0.05969	0.06391	0.882	0.819
Mof_S 	S 	0.12845	0.20578	0.89836	-0.543
Mof_N 	N 	0.9718	0.0205	0.91407	-0.213
Mof_N 	N 	0.1497	0.9588	0.87651	-0.208
Mof_N 	N 	0.8485	0.9715	0.00173	-0.085
Mof_N 	N 	0.7047	0.9716	0.9775	-0.088
Mof_C 	C 	0.8783	0.9969	0.91271	0.067
Mof_H 	H 	0.8502	0.9906	0.8969	-0.034
Mof_C 	C 	0.8197	0.9812	0.93337	-0.129
Mof_H 	H 	0.7535	0.9671	0.9315	0.077
Mof_C 	C 	0.8604	0.9886	0.9569	0.056
Mof_C 	C 	0.9566	0.011	0.9584	-0.089
Mof_H 	H 	0.9876	0.0125	0.9739	0.091
Mof_C 	C 	0.0099	0.0266	0.93657	0.021
Mof_H 	H 	0.0748	0.0466	0.938	0.012
Mof_C 	C 	0.801	0.9764	0.97989	0.096
Mof_C 	C 	0.2088	0.8997	0.87349	-0.183
Mof_Cu	Cu	0.55969	0.56391	0.382	0.826
Mof_S 	S 	0.62845	0.70578	0.39836	-0.543
Mof_N 	N 	0.4718	0.5205	0.41407	-0.241
Mof_N 	N 	0.6497	0.4588	0.37651	-0.205
Mof_N 	N 	0.3485	0.4715	0.50173	-0.087
Mof_N 	N 	0.2047	0.4716	0.4775	-0.089
Mof_C 	C 	0.3783	0.4969	0.41271	0.08
Mof_H 	H 	0.3502	0.4906	0.3969	-0.04
Mof_C 	C 	0.3197	0.4812	0.43337	-0.154
Mof_H 	H 	0.2535	0.4671	0.4315	0.084
Mof_C 	C 	0.3604	0.4886	0.4569	0.084
Mof_C 	C 	0.4566	0.511	0.4584	-0.154
Mof_H 	H 	0.4876	0.5125	0.4739	0.106
Mof_C 	C 	0.5099	0.5266	0.43657	0.094
Mof_H 	H 	0.5748	0.5466	0.438	-0.008
Mof_C 	C 	0.301	0.4764	0.47989	0.085
Mof_C 	C 	0.7088	0.3997	0.37349	-0.18
Mof_Cu	Cu	0.44031	0.93609	0.382	0.826
Mof_S 	S 	0.37155	0.79422	0.39836	-0.545
Mof_N 	N 	0.5282	0.9795	0.41407	-0.242
Mof_N 	N 	0.3503	0.0412	0.37651	-0.205
Mof_N 	N 	0.6515	0.0285	0.50173	-0.086
Mof_N 	N 	0.7953	0.0284	0.4775	-0.084
Mof_C 	C 	0.6217	0.0031	0.41271	0.083
Mof_H 	H 	0.6498	0.0094	0.3969	-0.041
Mof_C 	C 	0.6803	0.0188	0.43337	-0.156
Mof_H 	H 	0.7465	0.0329	0.4315	0.087
Mof_C 	C 	0.6396	0.0114	0.4569	0.088
Mof_C 	C 	0.5434	0.989	0.4584	-0.156
Mof_H 	H 	0.5124	0.9875	0.4739	0.106
Mof_C 	C 	0.4901	0.9734	0.43657	0.095
Mof_H 	H 	0.4252	0.9534	0.438	-0.009
Mof_C 	C 	0.699	0.0236	0.47989	0.085
Mof_C 	C 	0.2912	0.1003	0.37349	-0.18
Mof_Cu	Cu	0.94031	0.43609	0.882	0.836
Mof_S 	S 	0.87155	0.29422	0.89836	-0.522
Mof_N 	N 	0.0282	0.4795	0.91407	-0.269
Mof_N 	N 	0.8503	0.5412	0.87651	-0.202
Mof_N 	N 	0.1515	0.5285	0.00173	-0.087
Mof_N 	N 	0.2953	0.5284	0.9775	-0.085
Mof_C 	C 	0.1217	0.5031	0.91271	0.096
Mof_H 	H 	0.1498	0.5094	0.8969	-0.047
Mof_C 	C 	0.1803	0.5188	0.93337	-0.181
Mof_H 	H 	0.2465	0.5329	0.9315	0.094
Mof_C 	C 	0.1396	0.5114	0.9569	0.115
Mof_C 	C 	0.0434	0.489	0.9584	-0.221
Mof_H 	H 	0.0124	0.4875	0.9739	0.121
Mof_C 	C 	0.9901	0.4734	0.93657	0.169
Mof_H 	H 	0.9252	0.4534	0.938	-0.03
Mof_C 	C 	0.199	0.5236	0.97989	0.074
Mof_C 	C 	0.7912	0.6003	0.87349	-0.177
Mof_Cu	Cu	0.68609	0.30969	0.632	0.827
Mof_S 	S 	0.54422	0.37845	0.64836	-0.544
Mof_N 	N 	0.7295	0.2218	0.66407	-0.241
Mof_N 	N 	0.7912	0.3997	0.62651	-0.205
Mof_N 	N 	0.7785	0.0985	0.75173	-0.085
Mof_N 	N 	0.7784	0.9547	0.7275	-0.086
Mof_C 	C 	0.7531	0.1283	0.66271	0.083
Mof_H 	H 	0.7594	0.1002	0.6469	-0.04
Mof_C 	C 	0.7688	0.0697	0.68337	-0.154
Mof_H 	H 	0.7829	0.0035	0.6815	0.086
Mof_C 	C 	0.7614	0.1104	0.7069	0.087
Mof_C 	C 	0.739	0.2066	0.7084	-0.154
Mof_H 	H 	0.7375	0.2376	0.7239	0.107
Mof_C 	C 	0.7234	0.2599	0.68657	0.096
Mof_H 	H 	0.7034	0.3248	0.688	-0.008
Mof_C 	C 	0.7736	0.051	0.72989	0.086
Mof_C 	C 	0.8503	0.4588	0.62349	-0.173
Mof_Cu	Cu	0.18609	0.80969	0.132	0.827
Mof_S 	S 	0.04422	0.87845	0.14836	-0.55
Mof_N 	N 	0.2295	0.7218	0.16407	-0.241
Mof_N 	N 	0.2912	0.8997	0.12651	-0.205
Mof_N 	N 	0.2785	0.5985	0.25173	-0.087
Mof_N 	N 	0.2784	0.4547	0.2275	-0.087
Mof_C 	C 	0.2531	0.6283	0.16271	0.08
Mof_H 	H 	0.2594	0.6002	0.1469	-0.04
Mof_C 	C 	0.2688	0.5697	0.18337	-0.155
Mof_H 	H 	0.2829	0.5035	0.1815	0.085
Mof_C 	C 	0.2614	0.6104	0.2069	0.084
Mof_C 	C 	0.239	0.7066	0.2084	-0.156
Mof_H 	H 	0.2375	0.7376	0.2239	0.105
Mof_C 	C 	0.2234	0.7599	0.18657	0.093
Mof_H 	H 	0.2034	0.8248	0.188	-0.009
Mof_C 	C 	0.2736	0.551	0.22989	0.084
Mof_C 	C 	0.3503	0.9588	0.12349	-0.18
Mof_Cu	Cu	0.81391	0.69031	0.132	0.828
Mof_S 	S 	0.95578	0.62155	0.14836	-0.514
Mof_N 	N 	0.7705	0.7782	0.16407	-0.241
Mof_N 	N 	0.7088	0.6003	0.12651	-0.205
Mof_N 	N 	0.7215	0.9015	0.25173	-0.086
Mof_N 	N 	0.7216	0.0453	0.2275	-0.086
Mof_C 	C 	0.7469	0.8717	0.16271	0.083
Mof_H 	H 	0.7406	0.8998	0.1469	-0.04
Mof_C 	C 	0.7312	0.9303	0.18337	-0.155
Mof_H 	H 	0.7171	0.9965	0.1815	0.086
Mof_C 	C 	0.7386	0.8896	0.2069	0.087
Mof_C 	C 	0.761	0.7934	0.2084	-0.154
Mof_H 	H 	0.7625	0.7624	0.2239	0.107
Mof_C 	C 	0.7766	0.7401	0.18657	0.096
Mof_H 	H 	0.7966	0.6752	0.188	-0.008
Mof_C 	C 	0.7264	0.949	0.22989	0.086
Mof_C 	C 	0.6497	0.5412	0.12349	-0.18
Mof_Cu	Cu	0.31391	0.19031	0.632	0.826
Mof_S 	S 	0.45578	0.12155	0.64836	-0.544
Mof_N 	N 	0.2705	0.2782	0.66407	-0.242
Mof_N 	N 	0.2088	0.1003	0.62651	-0.205
Mof_N 	N 	0.2215	0.4015	0.75173	-0.087
Mof_N 	N 	0.2216	0.5453	0.7275	-0.087
Mof_C 	C 	0.2469	0.3717	0.66271	0.08
Mof_H 	H 	0.2406	0.3998	0.6469	-0.041
Mof_C 	C 	0.2312	0.4303	0.68337	-0.155
Mof_H 	H 	0.2171	0.4965	0.6815	0.085
Mof_C 	C 	0.2386	0.3896	0.7069	0.084
Mof_C 	C 	0.261	0.2934	0.7084	-0.155
Mof_H 	H 	0.2625	0.2624	0.7239	0.105
Mof_C 	C 	0.2766	0.2401	0.68657	0.093
Mof_H 	H 	0.2966	0.1752	0.688	-0.009
Mof_C 	C 	0.2264	0.449	0.72989	0.084
Mof_C 	C 	0.1497	0.0412	0.62349	-0.186
Mof_Cu	Cu	0.44031	0.06391	0.118	0.824
Mof_S 	S 	0.37155	0.20578	0.10164	-0.547
Mof_N 	N 	0.5282	0.0205	0.08593	-0.242
Mof_N 	N 	0.6515	0.9715	0.99827	-0.086
Mof_N 	N 	0.7953	0.9716	0.0225	-0.084
Mof_C 	C 	0.6217	0.9969	0.08729	0.082
Mof_H 	H 	0.6498	0.9906	0.1031	-0.041
Mof_C 	C 	0.6803	0.9812	0.06663	-0.156
Mof_H 	H 	0.7465	0.9671	0.0685	0.088
Mof_C 	C 	0.6396	0.9886	0.0431	0.087
Mof_C 	C 	0.5434	0.011	0.0416	-0.156
Mof_H 	H 	0.5124	0.0125	0.0261	0.106
Mof_C 	C 	0.4901	0.0266	0.06343	0.095
Mof_H 	H 	0.4252	0.0466	0.062	-0.009
Mof_C 	C 	0.699	0.9764	0.02011	0.085
Mof_Cu	Cu	0.94031	0.56391	0.618	0.832
Mof_S 	S 	0.87155	0.70578	0.60164	-0.524
Mof_N 	N 	0.0282	0.5205	0.58593	-0.27
Mof_N 	N 	0.1515	0.4715	0.49827	-0.087
Mof_N 	N 	0.2953	0.4716	0.5225	-0.085
Mof_C 	C 	0.1217	0.4969	0.58729	0.096
Mof_H 	H 	0.1498	0.4906	0.6031	-0.047
Mof_C 	C 	0.1803	0.4812	0.56663	-0.181
Mof_H 	H 	0.2465	0.4671	0.5685	0.094
Mof_C 	C 	0.1396	0.4886	0.5431	0.115
Mof_C 	C 	0.0434	0.511	0.5416	-0.221
Mof_H 	H 	0.0124	0.5125	0.5261	0.121
Mof_C 	C 	0.9901	0.5266	0.56343	0.169
Mof_H 	H 	0.9252	0.5466	0.562	-0.03
Mof_C 	C 	0.199	0.4764	0.52011	0.074
Mof_Cu	Cu	0.05969	0.93609	0.618	0.817
Mof_S 	S 	0.12845	0.79422	0.60164	-0.544
Mof_N 	N 	0.9718	0.9795	0.58593	-0.213
Mof_N 	N 	0.8485	0.0285	0.49827	-0.085
Mof_N 	N 	0.7047	0.0284	0.5225	-0.088
Mof_C 	C 	0.8783	0.0031	0.58729	0.067
Mof_H 	H 	0.8502	0.0094	0.6031	-0.034
Mof_C 	C 	0.8197	0.0188	0.56663	-0.129
Mof_H 	H 	0.7535	0.0329	0.5685	0.078
Mof_C 	C 	0.8604	0.0114	0.5431	0.056
Mof_C 	C 	0.9566	0.989	0.5416	-0.089
Mof_H 	H 	0.9876	0.9875	0.5261	0.091
Mof_C 	C 	0.0099	0.9734	0.56343	0.02
Mof_H 	H 	0.0748	0.9534	0.562	0.012
Mof_C 	C 	0.801	0.0236	0.52011	0.096
Mof_Cu	Cu	0.55969	0.43609	0.118	0.824
Mof_S 	S 	0.62845	0.29422	0.10164	-0.544
Mof_N 	N 	0.4718	0.4795	0.08593	-0.241
Mof_N 	N 	0.3485	0.5285	0.99827	-0.087
Mof_N 	N 	0.2047	0.5284	0.0225	-0.089
Mof_C 	C 	0.3783	0.5031	0.08729	0.08
Mof_H 	H 	0.3502	0.5094	0.1031	-0.04
Mof_C 	C 	0.3197	0.5188	0.06663	-0.154
Mof_H 	H 	0.2535	0.5329	0.0685	0.084
Mof_C 	C 	0.3604	0.5114	0.0431	0.084
Mof_C 	C 	0.4566	0.489	0.0416	-0.153
Mof_H 	H 	0.4876	0.4875	0.0261	0.106
Mof_C 	C 	0.5099	0.4734	0.06343	0.093
Mof_H 	H 	0.5748	0.4534	0.062	-0.008
Mof_C 	C 	0.301	0.5236	0.02011	0.085
Mof_Cu	Cu	0.81391	0.30969	0.368	0.825
Mof_S 	S 	0.95578	0.37845	0.35164	-0.516
Mof_N 	N 	0.7705	0.2218	0.33593	-0.241
Mof_N 	N 	0.7215	0.0985	0.24827	-0.086
Mof_N 	N 	0.7216	0.9547	0.2725	-0.086
Mof_C 	C 	0.7469	0.1283	0.33729	0.083
Mof_H 	H 	0.7406	0.1002	0.3531	-0.041
Mof_C 	C 	0.7312	0.0697	0.31663	-0.154
Mof_H 	H 	0.7171	0.0035	0.3185	0.087
Mof_C 	C 	0.7386	0.1104	0.2931	0.087
Mof_C 	C 	0.761	0.2066	0.2916	-0.154
Mof_H 	H 	0.7625	0.2376	0.2761	0.107
Mof_C 	C 	0.7766	0.2599	0.31343	0.096
Mof_H 	H 	0.7966	0.3248	0.312	-0.008
Mof_C 	C 	0.7264	0.051	0.27011	0.086
Mof_Cu	Cu	0.31391	0.80969	0.868	0.823
Mof_S 	S 	0.45578	0.87845	0.85164	-0.546
Mof_N 	N 	0.2705	0.7218	0.83593	-0.242
Mof_N 	N 	0.2215	0.5985	0.74827	-0.087
Mof_N 	N 	0.2216	0.4547	0.7725	-0.088
Mof_C 	C 	0.2469	0.6283	0.83729	0.08
Mof_H 	H 	0.2406	0.6002	0.8531	-0.041
Mof_C 	C 	0.2312	0.5697	0.81663	-0.155
Mof_H 	H 	0.2171	0.5035	0.8185	0.085
Mof_C 	C 	0.2386	0.6104	0.7931	0.084
Mof_C 	C 	0.261	0.7066	0.7916	-0.155
Mof_H 	H 	0.2625	0.7376	0.7761	0.105
Mof_C 	C 	0.2766	0.7599	0.81343	0.093
Mof_H 	H 	0.2966	0.8248	0.812	-0.009
Mof_C 	C 	0.2264	0.551	0.77011	0.084
Mof_Cu	Cu	0.68609	0.69031	0.868	0.824
Mof_S 	S 	0.54422	0.62155	0.85164	-0.546
Mof_N 	N 	0.7295	0.7782	0.83593	-0.241
Mof_N 	N 	0.7785	0.9015	0.74827	-0.085
Mof_N 	N 	0.7784	0.0453	0.7725	-0.086
Mof_C 	C 	0.7531	0.8717	0.83729	0.082
Mof_H 	H 	0.7594	0.8998	0.8531	-0.04
Mof_C 	C 	0.7688	0.9303	0.81663	-0.154
Mof_H 	H 	0.7829	0.9965	0.8185	0.086
Mof_C 	C 	0.7614	0.8896	0.7931	0.087
Mof_C 	C 	0.739	0.7934	0.7916	-0.154
Mof_H 	H 	0.7375	0.7624	0.7761	0.107
Mof_C 	C 	0.7234	0.7401	0.81343	0.096
Mof_H 	H 	0.7034	0.6752	0.812	-0.008
Mof_C 	C 	0.7736	0.949	0.77011	0.086
Mof_Cu	Cu	0.18609	0.19031	0.368	0.825
Mof_S 	S 	0.04422	0.12155	0.35164	-0.552
Mof_N 	N 	0.2295	0.2782	0.33593	-0.241
Mof_N 	N 	0.2785	0.4015	0.24827	-0.087
Mof_N 	N 	0.2784	0.5453	0.2725	-0.087
Mof_C 	C 	0.2531	0.3717	0.33729	0.079
Mof_H 	H 	0.2594	0.3998	0.3531	-0.04
Mof_C 	C 	0.2688	0.4303	0.31663	-0.155
Mof_H 	H 	0.2829	0.4965	0.3185	0.085
Mof_C 	C 	0.2614	0.3896	0.2931	0.084
Mof_C 	C 	0.239	0.2934	0.2916	-0.155
Mof_H 	H 	0.2375	0.2624	0.2761	0.105
Mof_C 	C 	0.2234	0.2401	0.31343	0.093
Mof_H 	H 	0.2034	0.1752	0.312	-0.009
Mof_C 	C 	0.2736	0.449	0.27011	0.084
Mof_Mo	Mo	1.19855e-32	0.75	0.125	0.539
Mof_Mo	Mo	0.5	0.25	0.625	0.587
Mof_Mo	Mo	0.5	0.75	0.375	0.587
Mof_Mo	Mo	5.34299e-32	0.25	0.875	0.539
Mof_Mo	Mo	0.5	0.75	0.875	0.588
Mof_Mo	Mo	2.58003e-32	0.25	0.375	0.54
Mof_Mo	Mo	2.94589e-32	0.75	0.625	0.54
Mof_Mo	Mo	0.5	0.25	0.125	0.588
_end
