# CIF file generated by openbabel 3.1.0, see https://openbabel.org
data_I
_chemical_name_common 'BEGBOG_clean'
_cell_length_a 11.0845
_cell_length_b 11.0845
_cell_length_c 11.0845
_cell_angle_alpha 90
_cell_angle_beta 90
_cell_angle_gamma 90
_space_group_name_H-M_alt 'P 1'
_space_group_name_Hall 'P 1'
loop_
    _symmetry_equiv_pos_as_xyz
    x,y,z
loop_
    _atom_site_label
    _atom_site_type_symbol
    _atom_site_fract_x
    _atom_site_fract_y
    _atom_site_fract_z
    _atom_site_occupancy
    Na1      Na       0.15210    0.34790    0.65210    1.000
    Na2      Na       0.34790    0.65210    0.15210    1.000
    Na3      Na       0.84790    0.84790    0.84790    1.000
    Na4      Na       0.65210    0.15210    0.34790    1.000
    H1       H        0.42880    0.34380    0.02430    1.000
    H2       H        0.35090    0.25140    0.95090    1.000
    H3       H        0.44470    0.33350    0.88420    1.000
    H4       H        0.07120    0.65620    0.52430    1.000
    H5       H        0.14910    0.74860    0.45090    1.000
    H6       H        0.05530    0.66650    0.38420    1.000
    H7       H        0.57120    0.84380    0.47570    1.000
    H8       H        0.64910    0.75140    0.54910    1.000
    H9       H        0.55530    0.83350    0.61580    1.000
    H10      H        0.92880    0.15620    0.97570    1.000
    H11      H        0.85090    0.24860    0.04910    1.000
    H12      H        0.94470    0.16650    0.11580    1.000
    H13      H        0.02430    0.42880    0.34380    1.000
    H14      H        0.95090    0.35090    0.25140    1.000
    H15      H        0.88420    0.44470    0.33350    1.000
    H16      H        0.52430    0.07120    0.65620    1.000
    H17      H        0.45090    0.14910    0.74860    1.000
    H18      H        0.38420    0.05530    0.66650    1.000
    H19      H        0.47570    0.57120    0.84380    1.000
    H20      H        0.54910    0.64910    0.75140    1.000
    H21      H        0.61580    0.55530    0.83350    1.000
    H22      H        0.97570    0.92880    0.15620    1.000
    H23      H        0.04910    0.85090    0.24860    1.000
    H24      H        0.11580    0.94470    0.16650    1.000
    H25      H        0.34380    0.02430    0.42880    1.000
    H26      H        0.25140    0.95090    0.35090    1.000
    H27      H        0.33350    0.88420    0.44470    1.000
    H28      H        0.65620    0.52430    0.07120    1.000
    H29      H        0.74860    0.45090    0.14910    1.000
    H30      H        0.66650    0.38420    0.05530    1.000
    H31      H        0.84380    0.47570    0.57120    1.000
    H32      H        0.75140    0.54910    0.64910    1.000
    H33      H        0.83350    0.61580    0.55530    1.000
    H34      H        0.15620    0.97570    0.92880    1.000
    H35      H        0.24860    0.04910    0.85090    1.000
    H36      H        0.16650    0.11580    0.94470    1.000
    C1       C        0.29190    0.42480    0.93150    1.000
    C2       C        0.38780    0.32970    0.94930    1.000
    C3       C        0.20810    0.57520    0.43150    1.000
    C4       C        0.11220    0.67030    0.44930    1.000
    C5       C        0.70810    0.92480    0.56850    1.000
    C6       C        0.61220    0.82970    0.55070    1.000
    C7       C        0.79190    0.07520    0.06850    1.000
    C8       C        0.88780    0.17030    0.05070    1.000
    C9       C        0.93150    0.29190    0.42480    1.000
    C10      C        0.94930    0.38780    0.32970    1.000
    C11      C        0.43150    0.20810    0.57520    1.000
    C12      C        0.44930    0.11220    0.67030    1.000
    C13      C        0.56850    0.70810    0.92480    1.000
    C14      C        0.55070    0.61220    0.82970    1.000
    C15      C        0.06850    0.79190    0.07520    1.000
    C16      C        0.05070    0.88780    0.17030    1.000
    C17      C        0.42480    0.93150    0.29190    1.000
    C18      C        0.32970    0.94930    0.38780    1.000
    C19      C        0.57520    0.43150    0.20810    1.000
    C20      C        0.67030    0.44930    0.11220    1.000
    C21      C        0.92480    0.56850    0.70810    1.000
    C22      C        0.82970    0.55070    0.61220    1.000
    C23      C        0.07520    0.06850    0.79190    1.000
    C24      C        0.17030    0.05070    0.88780    1.000
    O1       O        0.22790    0.42230    0.83720    1.000
    O2       O        0.27590    0.50390    0.01230    1.000
    O3       O        0.27210    0.57770    0.33720    1.000
    O4       O        0.22410    0.49610    0.51230    1.000
    O5       O        0.77210    0.92230    0.66280    1.000
    O6       O        0.72410    0.00390    0.48770    1.000
    O7       O        0.72790    0.07770    0.16280    1.000
    O8       O        0.77590    0.99610    0.98770    1.000
    O9       O        0.83720    0.22790    0.42230    1.000
    O10      O        0.01230    0.27590    0.50390    1.000
    O11      O        0.33720    0.27210    0.57770    1.000
    O12      O        0.51230    0.22410    0.49610    1.000
    O13      O        0.66280    0.77210    0.92230    1.000
    O14      O        0.48770    0.72410    0.00390    1.000
    O15      O        0.16280    0.72790    0.07770    1.000
    O16      O        0.98770    0.77590    0.99610    1.000
    O17      O        0.42230    0.83720    0.22790    1.000
    O18      O        0.50390    0.01230    0.27590    1.000
    O19      O        0.57770    0.33720    0.27210    1.000
    O20      O        0.49610    0.51230    0.22410    1.000
    O21      O        0.92230    0.66280    0.77210    1.000
    O22      O        0.00390    0.48770    0.72410    1.000
    O23      O        0.07770    0.16280    0.72790    1.000
    O24      O        0.99610    0.98770    0.77590    1.000
