# CIF file generated by openbabel 3.1.0, see https://openbabel.org
data_I
_chemical_name_common 'image0'
_cell_length_a 19.275
_cell_length_b 19.275
_cell_length_c 13.123
_cell_angle_alpha 90
_cell_angle_beta 90
_cell_angle_gamma 120
_space_group_name_H-M_alt 'P 1'
_space_group_name_Hall 'P 1'
loop_
    _symmetry_equiv_pos_as_xyz
    x,y,z
loop_
    _atom_site_label
    _atom_site_type_symbol
    _atom_site_fract_x
    _atom_site_fract_y
    _atom_site_fract_z
    _atom_site_occupancy
    I1       I        0.29947    0.52021    0.68535    1.000
    Cu1      Cu       0.40034    0.64565    0.57622    1.000
    N1       N        0.48400    0.62170    0.52140    1.000
    C1       C        0.55570    0.64920    0.56680    1.000
    H1       H        0.56410    0.67440    0.63140    1.000
    C2       C        0.53320    0.57700    0.38220    1.000
    C3       C        0.47420    0.58650    0.43140    1.000
    H2       H        0.42390    0.56640    0.39840    1.000
    C4       C        0.61620    0.64260    0.52550    1.000
    H3       H        0.66560    0.66230    0.56060    1.000
    N2       N        0.52610    0.59210    0.18900    1.000
    C5       C        0.51800    0.53890    0.27510    1.000
    H4       H        0.55590    0.51900    0.26420    1.000
    H5       H        0.46320    0.49190    0.27370    1.000
    C6       C        0.46630    0.61700    0.18500    1.000
    H6       H        0.47880    0.65380    0.12650    1.000
    H7       H        0.47110    0.64770    0.24770    1.000
    C7       C        0.38310    0.55250    0.17550    1.000
    H8       H        0.36780    0.51740    0.23630    1.000
    H9       H        0.34730    0.57540    0.17160    1.000
    C8       C        0.60480    0.60600    0.42910    1.000
    H10      H        0.64690    0.60180    0.39770    1.000
    C9       C        0.60720    0.66360    0.18160    1.000
    C10      C        0.67030    0.64750    0.15690    1.000
    H11      H        0.67220    0.61090    0.20850    1.000
    H12      H        0.72240    0.69810    0.15800    1.000
    O1       O        0.37410    0.50670    0.08610    1.000
    O2       O        0.65670    0.61040    0.05460    1.000
    C11      C        0.71170    0.58510    0.03570    1.000
    H13      H        0.70140    0.54070    0.08240    1.000
    H14      H        0.76660    0.62980    0.04880    1.000
    C12      C        0.29470    0.44230    0.07220    1.000
    H15      H        0.25560    0.46040    0.08540    1.000
    H16      H        0.28350    0.39800    0.11970    1.000
    O3       O        0.50240    0.63200    0.89900    1.000
    Cu2      Cu       0.45160    0.68940    0.84950    1.000
    I2       I        0.56890    0.67650    0.87200    1.000
    I3       I        0.47979    0.77926    0.68535    1.000
    Cu3      Cu       0.35435    0.75469    0.57622    1.000
    N3       N        0.37830    0.86230    0.52140    1.000
    C13      C        0.35080    0.90650    0.56680    1.000
    H17      H        0.32560    0.88970    0.63140    1.000
    C14      C        0.42300    0.95620    0.38220    1.000
    C15      C        0.41350    0.88770    0.43140    1.000
    H18      H        0.43360    0.85750    0.39840    1.000
    C16      C        0.35740    0.97360    0.52550    1.000
    H19      H        0.33770    0.00330    0.56060    1.000
    N4       N        0.40790    0.93400    0.18900    1.000
    C17      C        0.46110    0.97910    0.27510    1.000
    H20      H        0.48100    0.03690    0.26420    1.000
    H21      H        0.50810    0.97130    0.27370    1.000
    C18      C        0.38300    0.84930    0.18500    1.000
    H22      H        0.34620    0.82500    0.12650    1.000
    H23      H        0.35230    0.82340    0.24770    1.000
    C19      C        0.44750    0.83060    0.17550    1.000
    H24      H        0.48260    0.85040    0.23630    1.000
    H25      H        0.42460    0.77190    0.17160    1.000
    C20      C        0.39400    0.99880    0.42910    1.000
    H26      H        0.39820    0.04510    0.39770    1.000
    C21      C        0.33640    0.94360    0.18160    1.000
    C22      C        0.35250    0.02280    0.15690    1.000
    H27      H        0.38910    0.06130    0.20850    1.000
    H28      H        0.30190    0.02430    0.15800    1.000
    O4       O        0.49330    0.86740    0.08610    1.000
    O5       O        0.38960    0.04630    0.05460    1.000
    C23      C        0.41490    0.12660    0.03570    1.000
    H29      H        0.45930    0.16070    0.08240    1.000
    H30      H        0.37020    0.13680    0.04880    1.000
    C24      C        0.55770    0.85240    0.07220    1.000
    H31      H        0.53960    0.79520    0.08540    1.000
    H32      H        0.60200    0.88550    0.11970    1.000
    O6       O        0.36800    0.87040    0.89900    1.000
    Cu4      Cu       0.31060    0.76220    0.84950    1.000
    I4       I        0.32350    0.89240    0.87200    1.000
    I5       I        0.22074    0.70053    0.68535    1.000
    Cu5      Cu       0.24531    0.59966    0.57622    1.000
    N5       N        0.13770    0.51600    0.52140    1.000
    C25      C        0.09350    0.44430    0.56680    1.000
    H33      H        0.11030    0.43590    0.63140    1.000
    C26      C        0.04380    0.46680    0.38220    1.000
    C27      C        0.11230    0.52580    0.43140    1.000
    H34      H        0.14250    0.57610    0.39840    1.000
    C28      C        0.02640    0.38380    0.52550    1.000
    H35      H        0.99670    0.33440    0.56060    1.000
    N6       N        0.06600    0.47390    0.18900    1.000
    C29      C        0.02090    0.48200    0.27510    1.000
    H36      H        0.96310    0.44410    0.26420    1.000
    H37      H        0.02870    0.53680    0.27370    1.000
    C30      C        0.15070    0.53370    0.18500    1.000
    H38      H        0.17500    0.52120    0.12650    1.000
    H39      H        0.17660    0.52890    0.24770    1.000
    C31      C        0.16940    0.61690    0.17550    1.000
    H40      H        0.14960    0.63220    0.23630    1.000
    H41      H        0.22810    0.65270    0.17160    1.000
    C32      C        0.00120    0.39520    0.42910    1.000
    H42      H        0.95490    0.35310    0.39770    1.000
    C33      C        0.05640    0.39280    0.18160    1.000
    C34      C        0.97720    0.32970    0.15690    1.000
    H43      H        0.93870    0.32780    0.20850    1.000
    H44      H        0.97570    0.27760    0.15800    1.000
    O7       O        0.13260    0.62590    0.08610    1.000
    O8       O        0.95370    0.34330    0.05460    1.000
    C35      C        0.87340    0.28830    0.03570    1.000
    H45      H        0.83930    0.29860    0.08240    1.000
    H46      H        0.86320    0.23340    0.04880    1.000
    C36      C        0.14760    0.70530    0.07220    1.000
    H47      H        0.20480    0.74440    0.08540    1.000
    H48      H        0.11450    0.71650    0.11970    1.000
    O9       O        0.12960    0.49760    0.89900    1.000
    Cu6      Cu       0.23780    0.54840    0.84950    1.000
    I6       I        0.10760    0.43110    0.87200    1.000
    I7       I        0.70053    0.47979    0.31465    1.000
    Cu7      Cu       0.59966    0.35435    0.42378    1.000
    N7       N        0.51600    0.37830    0.47860    1.000
    C37      C        0.44430    0.35080    0.43320    1.000
    H49      H        0.43590    0.32560    0.36860    1.000
    C38      C        0.46680    0.42300    0.61780    1.000
    C39      C        0.52580    0.41350    0.56860    1.000
    H50      H        0.57610    0.43360    0.60160    1.000
    C40      C        0.38380    0.35740    0.47450    1.000
    H51      H        0.33440    0.33770    0.43940    1.000
    N8       N        0.47390    0.40790    0.81100    1.000
    C41      C        0.48200    0.46110    0.72490    1.000
    H52      H        0.44410    0.48100    0.73580    1.000
    H53      H        0.53680    0.50810    0.72630    1.000
    C42      C        0.53370    0.38300    0.81500    1.000
    H54      H        0.52120    0.34620    0.87350    1.000
    H55      H        0.52890    0.35230    0.75230    1.000
    C43      C        0.61690    0.44750    0.82450    1.000
    H56      H        0.63220    0.48260    0.76370    1.000
    H57      H        0.65270    0.42460    0.82840    1.000
    C44      C        0.39520    0.39400    0.57090    1.000
    H58      H        0.35310    0.39820    0.60230    1.000
    C45      C        0.39280    0.33640    0.81840    1.000
    C46      C        0.32970    0.35250    0.84310    1.000
    H59      H        0.32780    0.38910    0.79150    1.000
    H60      H        0.27760    0.30190    0.84200    1.000
    O10      O        0.62590    0.49330    0.91390    1.000
    O11      O        0.34330    0.38960    0.94540    1.000
    C47      C        0.28830    0.41490    0.96430    1.000
    H61      H        0.29860    0.45930    0.91760    1.000
    H62      H        0.23340    0.37020    0.95120    1.000
    C48      C        0.70530    0.55770    0.92780    1.000
    H63      H        0.74440    0.53960    0.91460    1.000
    H64      H        0.71650    0.60200    0.88030    1.000
    O12      O        0.49760    0.36800    0.10100    1.000
    Cu8      Cu       0.54840    0.31060    0.15050    1.000
    I8       I        0.43110    0.32350    0.12800    1.000
    I9       I        0.52021    0.22074    0.31465    1.000
    Cu9      Cu       0.64565    0.24531    0.42378    1.000
    N9       N        0.62170    0.13770    0.47860    1.000
    C49      C        0.64920    0.09350    0.43320    1.000
    H65      H        0.67440    0.11030    0.36860    1.000
    C50      C        0.57700    0.04380    0.61780    1.000
    C51      C        0.58650    0.11230    0.56860    1.000
    H66      H        0.56640    0.14250    0.60160    1.000
    C52      C        0.64260    0.02640    0.47450    1.000
    H67      H        0.66230    0.99670    0.43940    1.000
    N10      N        0.59210    0.06600    0.81100    1.000
    C53      C        0.53890    0.02090    0.72490    1.000
    H68      H        0.51900    0.96310    0.73580    1.000
    H69      H        0.49190    0.02870    0.72630    1.000
    C54      C        0.61700    0.15070    0.81500    1.000
    H70      H        0.65380    0.17500    0.87350    1.000
    H71      H        0.64770    0.17660    0.75230    1.000
    C55      C        0.55250    0.16940    0.82450    1.000
    H72      H        0.51740    0.14960    0.76370    1.000
    H73      H        0.57540    0.22810    0.82840    1.000
    C56      C        0.60600    0.00120    0.57090    1.000
    H74      H        0.60180    0.95490    0.60230    1.000
    C57      C        0.66360    0.05640    0.81840    1.000
    C58      C        0.64750    0.97720    0.84310    1.000
    H75      H        0.61090    0.93870    0.79150    1.000
    H76      H        0.69810    0.97570    0.84200    1.000
    O13      O        0.50670    0.13260    0.91390    1.000
    O14      O        0.61040    0.95370    0.94540    1.000
    C59      C        0.58510    0.87340    0.96430    1.000
    H77      H        0.54070    0.83930    0.91760    1.000
    H78      H        0.62980    0.86320    0.95120    1.000
    C60      C        0.44230    0.14760    0.92780    1.000
    H79      H        0.46040    0.20480    0.91460    1.000
    H80      H        0.39800    0.11450    0.88030    1.000
    O15      O        0.63200    0.12960    0.10100    1.000
    Cu10     Cu       0.68940    0.23780    0.15050    1.000
    I10      I        0.67650    0.10760    0.12800    1.000
    I11      I        0.77926    0.29947    0.31465    1.000
    Cu11     Cu       0.75469    0.40034    0.42378    1.000
    N11      N        0.86230    0.48400    0.47860    1.000
    C61      C        0.90650    0.55570    0.43320    1.000
    H81      H        0.88970    0.56410    0.36860    1.000
    C62      C        0.95620    0.53320    0.61780    1.000
    C63      C        0.88770    0.47420    0.56860    1.000
    H82      H        0.85750    0.42390    0.60160    1.000
    C64      C        0.97360    0.61620    0.47450    1.000
    H83      H        0.00330    0.66560    0.43940    1.000
    N12      N        0.93400    0.52610    0.81100    1.000
    C65      C        0.97910    0.51800    0.72490    1.000
    H84      H        0.03690    0.55590    0.73580    1.000
    H85      H        0.97130    0.46320    0.72630    1.000
    C66      C        0.84930    0.46630    0.81500    1.000
    H86      H        0.82500    0.47880    0.87350    1.000
    H87      H        0.82340    0.47110    0.75230    1.000
    C67      C        0.83060    0.38310    0.82450    1.000
    H88      H        0.85040    0.36780    0.76370    1.000
    H89      H        0.77190    0.34730    0.82840    1.000
    C68      C        0.99880    0.60480    0.57090    1.000
    H90      H        0.04510    0.64690    0.60230    1.000
    C69      C        0.94360    0.60720    0.81840    1.000
    C70      C        0.02280    0.67030    0.84310    1.000
    H91      H        0.06130    0.67220    0.79150    1.000
    H92      H        0.02430    0.72240    0.84200    1.000
    O16      O        0.86740    0.37410    0.91390    1.000
    O17      O        0.04630    0.65670    0.94540    1.000
    C71      C        0.12660    0.71170    0.96430    1.000
    H93      H        0.16070    0.70140    0.91760    1.000
    H94      H        0.13680    0.76660    0.95120    1.000
    C72      C        0.85240    0.29470    0.92780    1.000
    H95      H        0.79520    0.25560    0.91460    1.000
    H96      H        0.88550    0.28350    0.88030    1.000
    O18      O        0.87040    0.50240    0.10100    1.000
    Cu12     Cu       0.76220    0.45160    0.15050    1.000
    I12      I        0.89240    0.56890    0.12800    1.000
    I13      I        0.33333    0.66667    0.40693    1.000
    Cu13     Cu       0.33333    0.66667    0.74913    1.000
    I14      I        0.33333    0.66667    0.94872    1.000
    I15      I        0.66667    0.33333    0.59307    1.000
    Cu14     Cu       0.66667    0.33333    0.25087    1.000
    I16      I        0.66667    0.33333    0.05128    1.000
    K1       K        0.50000    0.50000    0.00000    1.000
    K2       K        0.50000    0.00000    0.00000    1.000
    K3       K        0.00000    0.50000    0.00000    1.000
