# CIF file generated by openbabel 3.1.0, see https://openbabel.org
data_I
_chemical_name_common 'image0'
_cell_length_a 19.702
_cell_length_b 18.1181
_cell_length_c 14.3185
_cell_angle_alpha 90
_cell_angle_beta 97.583
_cell_angle_gamma 90
_space_group_name_H-M_alt 'P 1'
_space_group_name_Hall 'P 1'
loop_
    _symmetry_equiv_pos_as_xyz
    x,y,z
loop_
    _atom_site_label
    _atom_site_type_symbol
    _atom_site_fract_x
    _atom_site_fract_y
    _atom_site_fract_z
    _atom_site_occupancy
    Mn1      Mn       0.24780    0.85554    0.05781    1.000
    Mn2      Mn       0.29284    0.85659    0.39312    1.000
    Mn3      Mn       0.27325    0.99025    0.22796    1.000
    C1       C        0.82600    0.98060    0.91110    1.000
    C2       C        0.88400    0.96200    0.98580    1.000
    C3       C        0.90720    0.01310    0.05370    1.000
    H1       H        0.88580    0.05870    0.05510    1.000
    C4       C        0.91630    0.89390    0.98470    1.000
    H2       H        0.90180    0.85960    0.93810    1.000
    C5       C        0.96320    0.99600    0.12040    1.000
    H3       H        0.97980    0.03060    0.16560    1.000
    C6       C        0.97030    0.87790    0.05360    1.000
    H4       H        0.99100    0.83170    0.05500    1.000
    C7       C        0.99300    0.92950    0.11920    1.000
    C8       C        0.04870    0.86010    0.24790    1.000
    C9       C        0.98840    0.84130    0.28210    1.000
    H5       H        0.94750    0.86490    0.26020    1.000
    C10      C        0.11110    0.82720    0.28180    1.000
    C11      C        0.17330    0.85170    0.23690    1.000
    C12      C        0.99070    0.78610    0.35030    1.000
    H6       H        0.95060    0.77120    0.37260    1.000
    C13      C        0.11180    0.77430    0.35210    1.000
    C14      C        0.17720    0.73670    0.39350    1.000
    C15      C        0.05150    0.75410    0.38430    1.000
    H7       H        0.05230    0.71770    0.43030    1.000
    C16      C        0.66570    0.97260    0.60000    1.000
    C17      C        0.62170    0.95550    0.51210    1.000
    C18      C        0.58060    0.00830    0.46510    1.000
    H8       H        0.58180    0.05630    0.48830    1.000
    C19      C        0.61910    0.88310    0.47500    1.000
    H9       H        0.64770    0.84660    0.50400    1.000
    C20      C        0.53780    0.99170    0.38450    1.000
    H10      H        0.51060    0.02840    0.35350    1.000
    C21      C        0.57350    0.86650    0.39440    1.000
    H11      H        0.56970    0.81830    0.37180    1.000
    C22      C        0.53480    0.92120    0.34920    1.000
    C23      C        0.49160    0.85250    0.20990    1.000
    C24      C        0.55190    0.83210    0.17820    1.000
    H12      H        0.59310    0.85420    0.20240    1.000
    C25      C        0.42900    0.82200    0.17320    1.000
    C26      C        0.36670    0.84710    0.21480    1.000
    C27      C        0.55010    0.77840    0.11000    1.000
    H13      H        0.59050    0.76370    0.08860    1.000
    C28      C        0.42890    0.76860    0.10190    1.000
    C29      C        0.36280    0.73380    0.05730    1.000
    C30      C        0.48970    0.74610    0.07330    1.000
    H14      H        0.48960    0.70880    0.02870    1.000
    O1       O        0.78900    0.03510    0.92390    1.000
    O2       O        0.81380    0.94190    0.83830    1.000
    O3       O        0.05130    0.91660    0.18330    1.000
    O4       O        0.18230    0.82240    0.16180    1.000
    O5       O        0.20918    0.90300    0.27970    1.000
    O6       O        0.23355    0.76000    0.36940    1.000
    O7       O        0.17180    0.68560    0.45210    1.000
    O8       O        0.70320    0.92650    0.64450    1.000
    O9       O        0.66470    0.03750    0.63320    1.000
    O10      O        0.48720    0.91160    0.27090    1.000
    O11      O        0.35656    0.81920    0.28930    1.000
    O12      O        0.33151    0.89880    0.17140    1.000
    O13      O        0.30703    0.75780    0.08020    1.000
    O14      O        0.36810    0.68410    0.99850    1.000
    Mn4      Mn       0.75220    0.35554    0.44219    1.000
    Mn5      Mn       0.70716    0.35659    0.10688    1.000
    Mn6      Mn       0.72675    0.49025    0.27204    1.000
    C31      C        0.17400    0.48060    0.58890    1.000
    C32      C        0.11600    0.46200    0.51420    1.000
    C33      C        0.09280    0.51310    0.44630    1.000
    H15      H        0.11420    0.55870    0.44490    1.000
    C34      C        0.08370    0.39390    0.51530    1.000
    H16      H        0.09820    0.35960    0.56190    1.000
    C35      C        0.03680    0.49600    0.37960    1.000
    H17      H        0.02020    0.53060    0.33440    1.000
    C36      C        0.02970    0.37790    0.44640    1.000
    H18      H        0.00900    0.33170    0.44500    1.000
    C37      C        0.00700    0.42950    0.38080    1.000
    C38      C        0.95130    0.36010    0.25210    1.000
    C39      C        0.01160    0.34130    0.21790    1.000
    H19      H        0.05250    0.36490    0.23980    1.000
    C40      C        0.88890    0.32720    0.21820    1.000
    C41      C        0.82670    0.35170    0.26310    1.000
    C42      C        0.00930    0.28610    0.14970    1.000
    H20      H        0.04940    0.27120    0.12740    1.000
    C43      C        0.88820    0.27430    0.14790    1.000
    C44      C        0.82280    0.23670    0.10650    1.000
    C45      C        0.94850    0.25410    0.11570    1.000
    H21      H        0.94770    0.21770    0.06970    1.000
    C46      C        0.33430    0.47260    0.90000    1.000
    C47      C        0.37830    0.45550    0.98790    1.000
    C48      C        0.41940    0.50830    0.03490    1.000
    H22      H        0.41820    0.55630    0.01170    1.000
    C49      C        0.38090    0.38310    0.02500    1.000
    H23      H        0.35230    0.34660    0.99600    1.000
    C50      C        0.46220    0.49170    0.11550    1.000
    H24      H        0.48940    0.52840    0.14650    1.000
    C51      C        0.42650    0.36650    0.10560    1.000
    H25      H        0.43030    0.31830    0.12820    1.000
    C52      C        0.46520    0.42120    0.15080    1.000
    C53      C        0.50840    0.35250    0.29010    1.000
    C54      C        0.44810    0.33210    0.32180    1.000
    H26      H        0.40690    0.35420    0.29760    1.000
    C55      C        0.57100    0.32200    0.32680    1.000
    C56      C        0.63330    0.34710    0.28520    1.000
    C57      C        0.44990    0.27840    0.39000    1.000
    H27      H        0.40950    0.26370    0.41140    1.000
    C58      C        0.57110    0.26860    0.39810    1.000
    C59      C        0.63720    0.23380    0.44270    1.000
    C60      C        0.51030    0.24610    0.42670    1.000
    H28      H        0.51040    0.20880    0.47130    1.000
    O15      O        0.21100    0.53510    0.57610    1.000
    O16      O        0.18620    0.44190    0.66170    1.000
    O17      O        0.94870    0.41660    0.31670    1.000
    O18      O        0.81770    0.32240    0.33820    1.000
    O19      O        0.79082    0.40300    0.22030    1.000
    O20      O        0.76645    0.26000    0.13060    1.000
    O21      O        0.82820    0.18560    0.04790    1.000
    O22      O        0.29680    0.42650    0.85550    1.000
    O23      O        0.33530    0.53750    0.86680    1.000
    O24      O        0.51280    0.41160    0.22910    1.000
    O25      O        0.64344    0.31920    0.21070    1.000
    O26      O        0.66849    0.39880    0.32860    1.000
    O27      O        0.69297    0.25780    0.41980    1.000
    O28      O        0.63190    0.18410    0.50150    1.000
    Mn7      Mn       0.75220    0.14446    0.94219    1.000
    Mn8      Mn       0.70716    0.14341    0.60688    1.000
    Mn9      Mn       0.72675    0.00975    0.77204    1.000
    C61      C        0.17400    0.01940    0.08890    1.000
    C62      C        0.11600    0.03800    0.01420    1.000
    C63      C        0.09280    0.98690    0.94630    1.000
    H29      H        0.11420    0.94130    0.94490    1.000
    C64      C        0.08370    0.10610    0.01530    1.000
    H30      H        0.09820    0.14040    0.06190    1.000
    C65      C        0.03680    0.00400    0.87960    1.000
    H31      H        0.02020    0.96940    0.83440    1.000
    C66      C        0.02970    0.12210    0.94640    1.000
    H32      H        0.00900    0.16830    0.94500    1.000
    C67      C        0.00700    0.07050    0.88080    1.000
    C68      C        0.95130    0.13990    0.75210    1.000
    C69      C        0.01160    0.15870    0.71790    1.000
    H33      H        0.05250    0.13510    0.73980    1.000
    C70      C        0.88890    0.17280    0.71820    1.000
    C71      C        0.82670    0.14830    0.76310    1.000
    C72      C        0.00930    0.21390    0.64970    1.000
    H34      H        0.04940    0.22880    0.62740    1.000
    C73      C        0.88820    0.22570    0.64790    1.000
    C74      C        0.82280    0.26330    0.60650    1.000
    C75      C        0.94850    0.24590    0.61570    1.000
    H35      H        0.94770    0.28230    0.56970    1.000
    C76      C        0.33430    0.02740    0.40000    1.000
    C77      C        0.37830    0.04450    0.48790    1.000
    C78      C        0.41940    0.99170    0.53490    1.000
    H36      H        0.41820    0.94370    0.51170    1.000
    C79      C        0.38090    0.11690    0.52500    1.000
    H37      H        0.35230    0.15340    0.49600    1.000
    C80      C        0.46220    0.00830    0.61550    1.000
    H38      H        0.48940    0.97160    0.64650    1.000
    C81      C        0.42650    0.13350    0.60560    1.000
    H39      H        0.43030    0.18170    0.62820    1.000
    C82      C        0.46520    0.07880    0.65080    1.000
    C83      C        0.50840    0.14750    0.79010    1.000
    C84      C        0.44810    0.16790    0.82180    1.000
    H40      H        0.40690    0.14580    0.79760    1.000
    C85      C        0.57100    0.17800    0.82680    1.000
    C86      C        0.63330    0.15290    0.78520    1.000
    C87      C        0.44990    0.22160    0.89000    1.000
    H41      H        0.40950    0.23630    0.91140    1.000
    C88      C        0.57110    0.23140    0.89810    1.000
    C89      C        0.63720    0.26620    0.94270    1.000
    C90      C        0.51030    0.25390    0.92670    1.000
    H42      H        0.51040    0.29120    0.97130    1.000
    O29      O        0.21100    0.96490    0.07610    1.000
    O30      O        0.18620    0.05810    0.16170    1.000
    O31      O        0.94870    0.08340    0.81670    1.000
    O32      O        0.81770    0.17760    0.83820    1.000
    O33      O        0.79082    0.09700    0.72030    1.000
    O34      O        0.76645    0.24000    0.63060    1.000
    O35      O        0.82820    0.31440    0.54790    1.000
    O36      O        0.29680    0.07350    0.35550    1.000
    O37      O        0.33530    0.96250    0.36680    1.000
    O38      O        0.51280    0.08840    0.72910    1.000
    O39      O        0.64344    0.18080    0.71070    1.000
    O40      O        0.66849    0.10120    0.82860    1.000
    O41      O        0.69297    0.24220    0.91980    1.000
    O42      O        0.63190    0.31590    0.00150    1.000
    Mn10     Mn       0.24780    0.64446    0.55781    1.000
    Mn11     Mn       0.29284    0.64341    0.89312    1.000
    Mn12     Mn       0.27325    0.50975    0.72796    1.000
    C91      C        0.82600    0.51940    0.41110    1.000
    C92      C        0.88400    0.53800    0.48580    1.000
    C93      C        0.90720    0.48690    0.55370    1.000
    H43      H        0.88580    0.44130    0.55510    1.000
    C94      C        0.91630    0.60610    0.48470    1.000
    H44      H        0.90180    0.64040    0.43810    1.000
    C95      C        0.96320    0.50400    0.62040    1.000
    H45      H        0.97980    0.46940    0.66560    1.000
    C96      C        0.97030    0.62210    0.55360    1.000
    H46      H        0.99100    0.66830    0.55500    1.000
    C97      C        0.99300    0.57050    0.61920    1.000
    C98      C        0.04870    0.63990    0.74790    1.000
    C99      C        0.98840    0.65870    0.78210    1.000
    H47      H        0.94750    0.63510    0.76020    1.000
    C100     C        0.11110    0.67280    0.78180    1.000
    C101     C        0.17330    0.64830    0.73690    1.000
    C102     C        0.99070    0.71390    0.85030    1.000
    H48      H        0.95060    0.72880    0.87260    1.000
    C103     C        0.11180    0.72570    0.85210    1.000
    C104     C        0.17720    0.76330    0.89350    1.000
    C105     C        0.05150    0.74590    0.88430    1.000
    H49      H        0.05230    0.78230    0.93030    1.000
    C106     C        0.66570    0.52740    0.10000    1.000
    C107     C        0.62170    0.54450    0.01210    1.000
    C108     C        0.58060    0.49170    0.96510    1.000
    H50      H        0.58180    0.44370    0.98830    1.000
    C109     C        0.61910    0.61690    0.97500    1.000
    H51      H        0.64770    0.65340    0.00400    1.000
    C110     C        0.53780    0.50830    0.88450    1.000
    H52      H        0.51060    0.47160    0.85350    1.000
    C111     C        0.57350    0.63350    0.89440    1.000
    H53      H        0.56970    0.68170    0.87180    1.000
    C112     C        0.53480    0.57880    0.84920    1.000
    C113     C        0.49160    0.64750    0.70990    1.000
    C114     C        0.55190    0.66790    0.67820    1.000
    H54      H        0.59310    0.64580    0.70240    1.000
    C115     C        0.42900    0.67800    0.67320    1.000
    C116     C        0.36670    0.65290    0.71480    1.000
    C117     C        0.55010    0.72160    0.61000    1.000
    H55      H        0.59050    0.73630    0.58860    1.000
    C118     C        0.42890    0.73140    0.60190    1.000
    C119     C        0.36280    0.76620    0.55730    1.000
    C120     C        0.48970    0.75390    0.57330    1.000
    H56      H        0.48960    0.79120    0.52870    1.000
    O43      O        0.78900    0.46490    0.42390    1.000
    O44      O        0.81380    0.55810    0.33830    1.000
    O45      O        0.05130    0.58340    0.68330    1.000
    O46      O        0.18230    0.67760    0.66180    1.000
    O47      O        0.20918    0.59700    0.77970    1.000
    O48      O        0.23355    0.74000    0.86940    1.000
    O49      O        0.17180    0.81440    0.95210    1.000
    O50      O        0.70320    0.57350    0.14450    1.000
    O51      O        0.66470    0.46250    0.13320    1.000
    O52      O        0.48720    0.58840    0.77090    1.000
    O53      O        0.35656    0.68080    0.78930    1.000
    O54      O        0.33151    0.60120    0.67140    1.000
    O55      O        0.30703    0.74220    0.58020    1.000
    O56      O        0.36810    0.81590    0.49850    1.000
