data_functionalizedCrystal
_audit_creation_method	'EQeq! by Chris Wilmer'
_symmetry_space_group_name_H-M	'P1'
_symmetry_Int_Tables_number	1
_symmetry_cell_setting	triclinic
loop_
_symmetry_equiv_pos_as_xyz
  x,y,z
_cell_length_a	18.1876
_cell_length_b	17.2441
_cell_length_c	13.5313
_cell_angle_alpha	90
_cell_angle_beta	129.505
_cell_angle_gamma	90
loop_
_atom_site_label
_atom_site_type_symbol
_atom_site_fract_x
_atom_site_fract_y
_atom_site_fract_z
_atom_site_charge
Mof_O 	O 	0.07536	0.19999	0.6864	-0.509
Mof_O 	O 	0.23031	0.18661	0.8551	-0.458
Mof_O 	O 	0.08853	0.88815	0.3799	-0.52
Mof_O 	O 	0.23045	0.85113	0.5614	-0.474
Mof_O 	O 	0.09975	0.27907	0.8893	-0.449
Mof_N 	N 	0.07407	0.3399	0.9228	-0.092
Mof_C 	C 	0.1619	0.10229	0.6775	-0.094
Mof_C 	C 	0.2399	0.0532	0.7437	0.002
Mof_H 	H 	0.295	0.071	0.841	0.056
Mof_C 	C 	0.2405	0.9872	0.6844	-0.026
Mof_H 	H 	0.29	0.953	0.725	0.06
Mof_C 	C 	0.1647	0.97093	0.5586	-0.093
Mof_C 	C 	0.0875	0.0215	0.4913	-0.017
Mof_H 	H 	0.035	0.009	0.407	0.031
Mof_C 	C 	0.0864	0.086	0.5508	-0.032
Mof_H 	H 	0.04	0.12	0.513	0.038
Mof_C 	C 	0.1563	0.16831	0.7451	0.393
Mof_C 	C 	0.1609	0.89743	0.4944	0.413
Mof_C 	C 	0.0862	0.4118	0.8976	0.118
Mof_H 	H 	0.111	0.416	0.863	-0.006
Mof_C 	C 	0.0567	0.4751	0.9256	-0.266
Mof_H 	H 	0.072	0.519	0.912	0.128
Mof_C 	C 	0.0153	0.4661	0.983	0.187
Mof_C 	C 	0.0068	0.3907	0.0111	-0.366
Mof_H 	H 	0.977	0.378	0.047	0.199
Mof_C 	C 	0.0364	0.3283	0.9803	0.166
Mof_H 	H 	0.03	0.277	0.991	-0.025
Mof_O 	O 	0.57536	0.69999	0.6864	-0.476
Mof_O 	O 	0.73031	0.68661	0.8551	-0.452
Mof_O 	O 	0.58853	0.38815	0.3799	-0.496
Mof_O 	O 	0.73045	0.35113	0.5614	-0.467
Mof_O 	O 	0.59975	0.77907	0.8893	-0.434
Mof_N 	N 	0.57407	0.8399	0.9228	-0.073
Mof_C 	C 	0.6619	0.60229	0.6775	-0.087
Mof_C 	C 	0.7399	0.5532	0.7437	0.012
Mof_H 	H 	0.795	0.571	0.841	0.056
Mof_C 	C 	0.7405	0.4872	0.6844	-0.031
Mof_H 	H 	0.79	0.453	0.725	0.071
Mof_C 	C 	0.6647	0.47093	0.5586	-0.078
Mof_C 	C 	0.5875	0.5215	0.4913	-0.013
Mof_H 	H 	0.535	0.509	0.407	0.052
Mof_C 	C 	0.5864	0.586	0.5508	-0.023
Mof_H 	H 	0.54	0.62	0.513	0.056
Mof_C 	C 	0.6563	0.66831	0.7451	0.391
Mof_C 	C 	0.6609	0.39743	0.4944	0.41
Mof_C 	C 	0.5862	0.9118	0.8976	0.109
Mof_H 	H 	0.611	0.916	0.863	0.01
Mof_C 	C 	0.5567	0.9751	0.9256	-0.231
Mof_H 	H 	0.572	0.019	0.912	0.128
Mof_C 	C 	0.5153	0.9661	0.983	0.183
Mof_C 	C 	0.5068	0.8907	0.0111	-0.218
Mof_H 	H 	0.477	0.878	0.047	0.101
Mof_C 	C 	0.5364	0.8283	0.9803	0.11
Mof_H 	H 	0.53	0.777	0.991	0.022
Mof_O 	O 	0.92464	0.19999	0.8136	-0.444
Mof_O 	O 	0.76969	0.18661	0.6449	-0.461
Mof_O 	O 	0.91147	0.88815	0.1201	-0.454
Mof_O 	O 	0.76955	0.85113	0.9386	-0.434
Mof_O 	O 	0.90025	0.27907	0.6107	-0.427
Mof_N 	N 	0.92593	0.3399	0.5772	-0.02
Mof_C 	C 	0.8381	0.10229	0.8225	-0.13
Mof_C 	C 	0.7601	0.0532	0.7563	0.057
Mof_H 	H 	0.705	0.071	0.659	0.039
Mof_C 	C 	0.7595	0.9872	0.8156	-0.098
Mof_H 	H 	0.71	0.953	0.775	0.087
Mof_C 	C 	0.8353	0.97093	0.9414	0.03
Mof_C 	C 	0.9125	0.0215	0.0087	-0.133
Mof_H 	H 	0.965	0.009	0.093	0.115
Mof_C 	C 	0.9136	0.086	0.9492	0.089
Mof_H 	H 	0.96	0.12	0.987	0.042
Mof_C 	C 	0.8437	0.16831	0.7549	0.406
Mof_C 	C 	0.8391	0.89743	0.0056	0.337
Mof_C 	C 	0.9138	0.4118	0.6024	0.005
Mof_H 	H 	0.889	0.416	0.637	0.065
Mof_C 	C 	0.9433	0.4751	0.5744	-0.073
Mof_H 	H 	0.928	0.519	0.588	0.076
Mof_C 	C 	0.9847	0.4661	0.517	0.023
Mof_C 	C 	0.9932	0.3907	0.4889	0.09
Mof_H 	H 	0.023	0.378	0.453	-0.045
Mof_C 	C 	0.9636	0.3283	0.5197	-0.054
Mof_H 	H 	0.97	0.277	0.509	0.101
Mof_O 	O 	0.42464	0.69999	0.8136	-0.479
Mof_O 	O 	0.26969	0.68661	0.6449	-0.466
Mof_O 	O 	0.41147	0.38815	0.1201	-0.482
Mof_O 	O 	0.26955	0.35113	0.9386	-0.445
Mof_O 	O 	0.40025	0.77907	0.6107	-0.443
Mof_N 	N 	0.42593	0.8399	0.5772	-0.042
Mof_C 	C 	0.3381	0.60229	0.8225	-0.138
Mof_C 	C 	0.2601	0.5532	0.7563	0.048
Mof_H 	H 	0.205	0.571	0.659	0.039
Mof_C 	C 	0.2595	0.4872	0.8156	-0.092
Mof_H 	H 	0.21	0.453	0.775	0.075
Mof_C 	C 	0.3353	0.47093	0.9414	0.011
Mof_C 	C 	0.4125	0.5215	0.0087	-0.135
Mof_H 	H 	0.465	0.509	0.093	0.092
Mof_C 	C 	0.4136	0.586	0.9492	0.08
Mof_H 	H 	0.46	0.62	0.987	0.023
Mof_C 	C 	0.3437	0.66831	0.7549	0.409
Mof_C 	C 	0.3391	0.39743	0.0056	0.347
Mof_C 	C 	0.4138	0.9118	0.6024	0.019
Mof_H 	H 	0.389	0.916	0.637	0.047
Mof_C 	C 	0.4433	0.9751	0.5744	-0.112
Mof_H 	H 	0.428	0.019	0.588	0.076
Mof_C 	C 	0.4847	0.9661	0.517	0.037
Mof_C 	C 	0.4932	0.8907	0.4889	-0.079
Mof_H 	H 	0.523	0.878	0.453	0.06
Mof_C 	C 	0.4636	0.8283	0.5197	0.015
Mof_H 	H 	0.47	0.777	0.509	0.049
Mof_O 	O 	0.92464	0.80001	0.3136	-0.443
Mof_O 	O 	0.76969	0.81339	0.1449	-0.464
Mof_O 	O 	0.91147	0.11185	0.6201	-0.467
Mof_O 	O 	0.76955	0.14887	0.4386	-0.467
Mof_O 	O 	0.90025	0.72093	0.1107	-0.435
Mof_N 	N 	0.92593	0.6601	0.0772	0.009
Mof_C 	C 	0.8381	0.89771	0.3225	-0.079
Mof_C 	C 	0.7601	0.9468	0.2563	0.005
Mof_H 	H 	0.705	0.929	0.159	0.046
Mof_C 	C 	0.7595	0.0128	0.3156	-0.028
Mof_H 	H 	0.71	0.047	0.275	0.06
Mof_C 	C 	0.8353	0.02907	0.4414	-0.072
Mof_C 	C 	0.9125	0.9785	0.5087	-0.006
Mof_H 	H 	0.965	0.991	0.593	0.076
Mof_C 	C 	0.9136	0.914	0.4492	-0.019
Mof_H 	H 	0.96	0.88	0.487	0.078
Mof_C 	C 	0.8437	0.83169	0.2549	0.387
Mof_C 	C 	0.8391	0.10257	0.5056	0.407
Mof_C 	C 	0.9138	0.5882	0.1024	-0.08
Mof_H 	H 	0.889	0.584	0.137	0.1
Mof_C 	C 	0.9433	0.5249	0.0744	0.043
Mof_H 	H 	0.928	0.481	0.088	0.026
Mof_C 	C 	0.9847	0.5339	0.017	-0.116
Mof_C 	C 	0.9932	0.6093	0.9889	0.224
Mof_H 	H 	0.023	0.622	0.953	-0.085
Mof_C 	C 	0.9636	0.6717	0.0197	-0.144
Mof_H 	H 	0.97	0.723	0.009	0.127
Mof_O 	O 	0.42464	0.30001	0.3136	-0.477
Mof_O 	O 	0.26969	0.31339	0.1449	-0.468
Mof_O 	O 	0.41147	0.61185	0.6201	-0.494
Mof_O 	O 	0.26955	0.64887	0.4386	-0.474
Mof_O 	O 	0.40025	0.22093	0.1107	-0.449
Mof_N 	N 	0.42593	0.1601	0.0772	-0.012
Mof_C 	C 	0.3381	0.39771	0.3225	-0.087
Mof_C 	C 	0.2601	0.4468	0.2563	-0.003
Mof_H 	H 	0.205	0.429	0.159	0.047
Mof_C 	C 	0.2595	0.5128	0.3156	-0.025
Mof_H 	H 	0.21	0.547	0.275	0.049
Mof_C 	C 	0.3353	0.52907	0.4414	-0.087
Mof_C 	C 	0.4125	0.4785	0.5087	-0.009
Mof_H 	H 	0.465	0.491	0.593	0.054
Mof_C 	C 	0.4136	0.414	0.4492	-0.029
Mof_H 	H 	0.46	0.38	0.487	0.059
Mof_C 	C 	0.3437	0.33169	0.2549	0.39
Mof_C 	C 	0.3391	0.60257	0.5056	0.412
Mof_C 	C 	0.4138	0.0882	0.1024	-0.067
Mof_H 	H 	0.389	0.084	0.137	0.083
Mof_C 	C 	0.4433	0.0249	0.0744	0.008
Mof_H 	H 	0.428	0.981	0.088	0.024
Mof_C 	C 	0.4847	0.0339	0.017	-0.104
Mof_C 	C 	0.4932	0.1093	0.9889	0.052
Mof_H 	H 	0.523	0.122	0.953	0.021
Mof_C 	C 	0.4636	0.1717	0.0197	-0.071
Mof_H 	H 	0.47	0.223	0.009	0.076
Mof_O 	O 	0.07536	0.80001	0.1864	-0.506
Mof_O 	O 	0.23031	0.81339	0.3551	-0.46
Mof_O 	O 	0.08853	0.11185	0.8799	-0.532
Mof_O 	O 	0.23045	0.14887	0.0614	-0.501
Mof_O 	O 	0.09975	0.72093	0.3893	-0.455
Mof_N 	N 	0.07407	0.6601	0.4228	-0.064
Mof_C 	C 	0.1619	0.89771	0.1775	-0.045
Mof_C 	C 	0.2399	0.9468	0.2437	-0.047
Mof_H 	H 	0.295	0.929	0.341	0.063
Mof_C 	C 	0.2405	0.0128	0.1844	0.038
Mof_H 	H 	0.29	0.047	0.225	0.034
Mof_C 	C 	0.1647	0.02907	0.0586	-0.186
Mof_C 	C 	0.0875	0.9785	0.9913	0.107
Mof_H 	H 	0.035	0.991	0.907	-0.006
Mof_C 	C 	0.0864	0.914	0.0508	-0.139
Mof_H 	H 	0.04	0.88	0.013	0.074
Mof_C 	C 	0.1563	0.83169	0.2451	0.375
Mof_C 	C 	0.1609	0.10257	0.9944	0.474
Mof_C 	C 	0.0862	0.5882	0.3976	0.039
Mof_H 	H 	0.111	0.584	0.363	0.028
Mof_C 	C 	0.0567	0.5249	0.4256	-0.156
Mof_H 	H 	0.072	0.481	0.412	0.081
Mof_C 	C 	0.0153	0.5339	0.483	0.054
Mof_C 	C 	0.0068	0.6093	0.5111	-0.249
Mof_H 	H 	0.977	0.622	0.547	0.165
Mof_C 	C 	0.0364	0.6717	0.4803	0.087
Mof_H 	H 	0.03	0.723	0.491	-0.001
Mof_O 	O 	0.57536	0.30001	0.1864	-0.475
Mof_O 	O 	0.73031	0.31339	0.3551	-0.455
Mof_O 	O 	0.58853	0.61185	0.8799	-0.509
Mof_O 	O 	0.73045	0.64887	0.0614	-0.498
Mof_O 	O 	0.59975	0.22093	0.3893	-0.442
Mof_N 	N 	0.57407	0.1601	0.4228	-0.042
Mof_C 	C 	0.6619	0.39771	0.1775	-0.034
Mof_C 	C 	0.7399	0.4468	0.2437	-0.04
Mof_H 	H 	0.795	0.429	0.341	0.064
Mof_C 	C 	0.7405	0.5128	0.1844	0.039
Mof_H 	H 	0.79	0.547	0.225	0.044
Mof_C 	C 	0.6647	0.52907	0.0586	-0.181
Mof_C 	C 	0.5875	0.4785	0.9913	0.117
Mof_H 	H 	0.535	0.491	0.907	0.013
Mof_C 	C 	0.5864	0.414	0.0508	-0.135
Mof_H 	H 	0.54	0.38	0.013	0.094
Mof_C 	C 	0.6563	0.33169	0.2451	0.371
Mof_C 	C 	0.6609	0.60257	0.9944	0.478
Mof_C 	C 	0.5862	0.0882	0.3976	0.022
Mof_H 	H 	0.611	0.084	0.363	0.046
Mof_C 	C 	0.5567	0.0249	0.4256	-0.114
Mof_H 	H 	0.572	0.981	0.412	0.078
Mof_C 	C 	0.5153	0.0339	0.483	0.039
Mof_C 	C 	0.5068	0.1093	0.5111	-0.079
Mof_H 	H 	0.477	0.122	0.547	0.06
Mof_C 	C 	0.5364	0.1717	0.4803	0.017
Mof_H 	H 	0.53	0.223	0.491	0.05
Mof_Mg	Mg	3.42302e-33	0.19446	0.75	1.471
Mof_Mg	Mg	0.5	0.69446	0.75	1.478
Mof_Mg	Mg	1.14101e-33	0.80554	0.25	1.471
Mof_Mg	Mg	0.5	0.30554	0.25	1.478
Mof_Mg	Mg	0.25	0.25	-0	1.475
Mof_Mg	Mg	0.75	0.25	0.5	1.476
Mof_Mg	Mg	0.75	0.75	-0	1.474
Mof_Mg	Mg	0.25	0.75	0.5	1.476
_end
