data_functionalizedCrystal
_audit_creation_method	'EQeq! by Chris Wilmer'
_symmetry_space_group_name_H-M	'P1'
_symmetry_Int_Tables_number	1
_symmetry_cell_setting	triclinic
loop_
_symmetry_equiv_pos_as_xyz
  x,y,z
_cell_length_a	13.7372
_cell_length_b	14.7731
_cell_length_c	21.075
_cell_angle_alpha	90
_cell_angle_beta	90
_cell_angle_gamma	90
loop_
_atom_site_label
_atom_site_type_symbol
_atom_site_fract_x
_atom_site_fract_y
_atom_site_fract_z
_atom_site_charge
Mof_Zn	Zn	0.52877	0.09766	0.93839	1.219
Mof_Zn	Zn	0.47123	0.59766	0.56161	1.22
Mof_Zn	Zn	0.47123	0.90234	0.06161	1.218
Mof_Zn	Zn	0.52877	0.40234	0.43839	1.219
Mof_H 	H 	0.5134	0.3659	0.8201	0.099
Mof_H 	H 	0.5316	0.2221	0.737	0.054
Mof_H 	H 	0.5079	0.4104	0.7075	0.02
Mof_H 	H 	0.5296	0.2658	0.6254	0.141
Mof_H 	H 	0.347	0.0307	0.8665	-0.006
Mof_H 	H 	0.181	0.0278	0.8704	0.095
Mof_H 	H 	0.1932	0.1729	0.0318	0.107
Mof_H 	H 	0.3596	0.1737	0.0226	-0.007
Mof_H 	H 	0.0364	0.1295	0.9951	0.089
Mof_H 	H 	0.0206	0.0449	0.879	0.046
Mof_H 	H 	0.7175	0.1486	0.015	0.008
Mof_H 	H 	0.8831	0.1412	0.0097	0.1
Mof_H 	H 	0.8551	0.0146	0.8413	0.086
Mof_H 	H 	0.6896	0.0257	0.8521	0.004
Mof_H 	H 	0.4866	0.8659	0.6799	0.099
Mof_H 	H 	0.4684	0.7221	0.763	0.054
Mof_H 	H 	0.4921	0.9104	0.7925	0.021
Mof_H 	H 	0.4704	0.7658	0.8746	0.141
Mof_H 	H 	0.653	0.5307	0.6335	-0.005
Mof_H 	H 	0.819	0.5278	0.6296	0.095
Mof_H 	H 	0.8068	0.6729	0.4682	0.106
Mof_H 	H 	0.6404	0.6737	0.4774	-0.008
Mof_H 	H 	0.9636	0.6295	0.5049	0.087
Mof_H 	H 	0.9794	0.5449	0.621	0.051
Mof_H 	H 	0.2825	0.6486	0.485	0.005
Mof_H 	H 	0.1169	0.6412	0.4903	0.097
Mof_H 	H 	0.1449	0.5146	0.6587	0.086
Mof_H 	H 	0.3104	0.5257	0.6479	0.004
Mof_H 	H 	0.4866	0.6341	0.1799	0.099
Mof_H 	H 	0.4684	0.7779	0.263	0.054
Mof_H 	H 	0.4921	0.5896	0.2925	0.02
Mof_H 	H 	0.4704	0.7342	0.3746	0.141
Mof_H 	H 	0.653	0.9693	0.1335	-0.006
Mof_H 	H 	0.819	0.9722	0.1296	0.095
Mof_H 	H 	0.8068	0.8271	0.9682	0.107
Mof_H 	H 	0.6404	0.8263	0.9774	-0.007
Mof_H 	H 	0.9636	0.8705	0.0049	0.089
Mof_H 	H 	0.9794	0.9551	0.121	0.046
Mof_H 	H 	0.2825	0.8514	0.985	0.008
Mof_H 	H 	0.1169	0.8588	0.9903	0.1
Mof_H 	H 	0.1449	0.9854	0.1587	0.086
Mof_H 	H 	0.3104	0.9743	0.1479	0.004
Mof_H 	H 	0.5134	0.1341	0.3201	0.099
Mof_H 	H 	0.5316	0.2779	0.237	0.054
Mof_H 	H 	0.5079	0.0896	0.2075	0.021
Mof_H 	H 	0.5296	0.2342	0.1254	0.141
Mof_H 	H 	0.347	0.4693	0.3665	-0.005
Mof_H 	H 	0.181	0.4722	0.3704	0.095
Mof_H 	H 	0.1932	0.3271	0.5318	0.106
Mof_H 	H 	0.3596	0.3263	0.5226	-0.008
Mof_H 	H 	0.0364	0.3705	0.4951	0.087
Mof_H 	H 	0.0206	0.4551	0.379	0.051
Mof_H 	H 	0.7175	0.3514	0.515	0.005
Mof_H 	H 	0.8831	0.3588	0.5097	0.097
Mof_H 	H 	0.8551	0.4854	0.3413	0.086
Mof_H 	H 	0.6896	0.4743	0.3521	0.004
Mof_C 	C 	0.5233	0.2359	0.86094	0.344
Mof_C 	C 	0.5192	0.3045	0.80892	-0.181
Mof_C 	C 	0.5234	0.2834	0.74789	-0.016
Mof_C 	C 	0.5162	0.3491	0.6968	0.074
Mof_C 	C 	0.5207	0.327	0.63605	-0.281
Mof_C 	C 	0.5124	0.3939	0.58376	0.473
Mof_C 	C 	0.3156	0.0597	0.9005	0.101
Mof_C 	C 	0.2162	0.0578	0.9023	-0.185
Mof_C 	C 	0.1676	0.1007	0.9517	0.147
Mof_C 	C 	0.2232	0.1436	0.99738	-0.188
Mof_C 	C 	0.323	0.1429	0.99174	0.102
Mof_C 	C 	0.0614	0.1032	0.95793	-0.121
Mof_C 	C 	0.9966	0.0719	0.91626	-0.056
Mof_C 	C 	0.746	0.121	0.97933	0.088
Mof_C 	C 	0.8454	0.117	0.97657	-0.164
Mof_C 	C 	0.8907	0.0768	0.92429	0.107
Mof_C 	C 	0.8288	0.0425	0.87752	-0.158
Mof_C 	C 	0.7294	0.0494	0.88435	0.093
Mof_C 	C 	0.4767	0.7359	0.63906	0.344
Mof_C 	C 	0.4808	0.8045	0.69108	-0.181
Mof_C 	C 	0.4766	0.7834	0.75211	-0.016
Mof_C 	C 	0.4838	0.8491	0.8032	0.074
Mof_C 	C 	0.4793	0.827	0.86395	-0.28
Mof_C 	C 	0.4876	0.8939	0.91624	0.473
Mof_C 	C 	0.6844	0.5597	0.5995	0.1
Mof_C 	C 	0.7838	0.5578	0.5977	-0.182
Mof_C 	C 	0.8324	0.6007	0.5483	0.143
Mof_C 	C 	0.7768	0.6436	0.50262	-0.185
Mof_C 	C 	0.677	0.6429	0.50826	0.103
Mof_C 	C 	0.9386	0.6032	0.54207	-0.113
Mof_C 	C 	0.0034	0.5719	0.58374	-0.066
Mof_C 	C 	0.254	0.621	0.52067	0.091
Mof_C 	C 	0.1546	0.617	0.52343	-0.162
Mof_C 	C 	0.1093	0.5768	0.57571	0.11
Mof_C 	C 	0.1712	0.5425	0.62248	-0.159
Mof_C 	C 	0.2706	0.5494	0.61565	0.093
Mof_C 	C 	0.4767	0.7641	0.13906	0.344
Mof_C 	C 	0.4808	0.6955	0.19108	-0.181
Mof_C 	C 	0.4766	0.7166	0.25211	-0.016
Mof_C 	C 	0.4838	0.6509	0.3032	0.074
Mof_C 	C 	0.4793	0.673	0.36395	-0.281
Mof_C 	C 	0.4876	0.6061	0.41624	0.473
Mof_C 	C 	0.6844	0.9403	0.0995	0.101
Mof_C 	C 	0.7838	0.9422	0.0977	-0.185
Mof_C 	C 	0.8324	0.8993	0.0483	0.147
Mof_C 	C 	0.7768	0.8564	0.00262	-0.188
Mof_C 	C 	0.677	0.8571	0.00826	0.102
Mof_C 	C 	0.9386	0.8968	0.04207	-0.121
Mof_C 	C 	0.0034	0.9281	0.08374	-0.056
Mof_C 	C 	0.254	0.879	0.02067	0.088
Mof_C 	C 	0.1546	0.883	0.02343	-0.164
Mof_C 	C 	0.1093	0.9232	0.07571	0.107
Mof_C 	C 	0.1712	0.9575	0.12248	-0.158
Mof_C 	C 	0.2706	0.9506	0.11565	0.093
Mof_C 	C 	0.5233	0.2641	0.36094	0.344
Mof_C 	C 	0.5192	0.1955	0.30892	-0.181
Mof_C 	C 	0.5234	0.2166	0.24789	-0.016
Mof_C 	C 	0.5162	0.1509	0.1968	0.074
Mof_C 	C 	0.5207	0.173	0.13605	-0.28
Mof_C 	C 	0.5124	0.1061	0.08376	0.473
Mof_C 	C 	0.3156	0.4403	0.4005	0.1
Mof_C 	C 	0.2162	0.4422	0.4023	-0.182
Mof_C 	C 	0.1676	0.3993	0.4517	0.143
Mof_C 	C 	0.2232	0.3564	0.49738	-0.185
Mof_C 	C 	0.323	0.3571	0.49174	0.103
Mof_C 	C 	0.0614	0.3968	0.45793	-0.113
Mof_C 	C 	0.9966	0.4281	0.41626	-0.066
Mof_C 	C 	0.746	0.379	0.47933	0.091
Mof_C 	C 	0.8454	0.383	0.47657	-0.162
Mof_C 	C 	0.8907	0.4232	0.42429	0.11
Mof_C 	C 	0.8288	0.4575	0.37752	-0.159
Mof_C 	C 	0.7294	0.4506	0.38435	0.093
Mof_N 	N 	0.37144	0.10094	0.94491	-0.248
Mof_N 	N 	0.68652	0.08791	0.93437	-0.234
Mof_N 	N 	0.62856	0.60094	0.55509	-0.248
Mof_N 	N 	0.31348	0.58791	0.56563	-0.234
Mof_N 	N 	0.62856	0.89906	0.05509	-0.248
Mof_N 	N 	0.31348	0.91209	0.06563	-0.234
Mof_N 	N 	0.37144	0.39906	0.44491	-0.248
Mof_N 	N 	0.68652	0.41209	0.43437	-0.234
Mof_O 	O 	0.52531	0.15267	0.84695	-0.406
Mof_O 	O 	0.5251	0.26186	0.91692	-0.36
Mof_O 	O 	0.47673	0.46951	0.59623	-0.492
Mof_O 	O 	0.54249	0.36743	0.53034	-0.497
Mof_O 	O 	0.47469	0.65267	0.65305	-0.406
Mof_O 	O 	0.4749	0.76186	0.58308	-0.36
Mof_O 	O 	0.52327	0.96951	0.90377	-0.491
Mof_O 	O 	0.45751	0.86743	0.96966	-0.496
Mof_O 	O 	0.47469	0.84733	0.15305	-0.406
Mof_O 	O 	0.4749	0.73814	0.08308	-0.36
Mof_O 	O 	0.52327	0.53049	0.40377	-0.492
Mof_O 	O 	0.45751	0.63257	0.46966	-0.497
Mof_O 	O 	0.52531	0.34733	0.34695	-0.406
Mof_O 	O 	0.5251	0.23814	0.41692	-0.36
Mof_O 	O 	0.47673	0.03049	0.09623	-0.491
Mof_O 	O 	0.54249	0.13257	0.03034	-0.496
Mof_Zn	Zn	0.97123	0.90234	0.43839	1.218
Mof_Zn	Zn	0.02877	0.40234	0.06161	1.219
Mof_Zn	Zn	0.02877	0.09766	0.56161	1.218
Mof_Zn	Zn	0.97123	0.59766	0.93839	1.219
Mof_H 	H 	0.9866	0.6341	0.3201	0.099
Mof_H 	H 	0.9684	0.7779	0.237	0.053
Mof_H 	H 	0.9921	0.5896	0.2075	0.021
Mof_H 	H 	0.9704	0.7342	0.1254	0.141
Mof_H 	H 	0.153	0.9693	0.3665	-0.004
Mof_H 	H 	0.319	0.9722	0.3704	0.095
Mof_H 	H 	0.3068	0.8271	0.5318	0.106
Mof_H 	H 	0.1404	0.8263	0.5226	-0.007
Mof_H 	H 	0.4636	0.8705	0.4951	0.086
Mof_H 	H 	0.4794	0.9551	0.379	0.053
Mof_H 	H 	0.7825	0.8514	0.515	0.005
Mof_H 	H 	0.6169	0.8588	0.5097	0.097
Mof_H 	H 	0.6449	0.9854	0.3413	0.086
Mof_H 	H 	0.8104	0.9743	0.3521	0.003
Mof_H 	H 	0.0134	0.1341	0.1799	0.099
Mof_H 	H 	0.0316	0.2779	0.263	0.053
Mof_H 	H 	0.0079	0.0896	0.2925	0.02
Mof_H 	H 	0.0296	0.2342	0.3746	0.14
Mof_H 	H 	0.847	0.4693	0.1335	-0.005
Mof_H 	H 	0.681	0.4722	0.1296	0.094
Mof_H 	H 	0.6932	0.3271	0.9682	0.104
Mof_H 	H 	0.8596	0.3263	0.9774	-0.009
Mof_H 	H 	0.5364	0.3705	0.0049	0.086
Mof_H 	H 	0.5206	0.4551	0.121	0.053
Mof_H 	H 	0.2175	0.3514	0.985	0.005
Mof_H 	H 	0.3831	0.3588	0.9903	0.096
Mof_H 	H 	0.3551	0.4854	0.1587	0.087
Mof_H 	H 	0.1896	0.4743	0.1479	0.004
Mof_H 	H 	0.0134	0.3659	0.6799	0.099
Mof_H 	H 	0.0316	0.2221	0.763	0.053
Mof_H 	H 	0.0079	0.4104	0.7925	0.021
Mof_H 	H 	0.0296	0.2658	0.8746	0.141
Mof_H 	H 	0.847	0.0307	0.6335	-0.004
Mof_H 	H 	0.681	0.0278	0.6296	0.095
Mof_H 	H 	0.6932	0.1729	0.4682	0.106
Mof_H 	H 	0.8596	0.1737	0.4774	-0.007
Mof_H 	H 	0.5364	0.1295	0.5049	0.086
Mof_H 	H 	0.5206	0.0449	0.621	0.053
Mof_H 	H 	0.2175	0.1486	0.485	0.005
Mof_H 	H 	0.3831	0.1412	0.4903	0.097
Mof_H 	H 	0.3551	0.0146	0.6587	0.086
Mof_H 	H 	0.1896	0.0257	0.6479	0.003
Mof_H 	H 	0.9866	0.8659	0.8201	0.099
Mof_H 	H 	0.9684	0.7221	0.737	0.053
Mof_H 	H 	0.9921	0.9104	0.7075	0.02
Mof_H 	H 	0.9704	0.7658	0.6254	0.14
Mof_H 	H 	0.153	0.5307	0.8665	-0.005
Mof_H 	H 	0.319	0.5278	0.8704	0.094
Mof_H 	H 	0.3068	0.6729	0.0318	0.104
Mof_H 	H 	0.1404	0.6737	0.0226	-0.009
Mof_H 	H 	0.4636	0.6295	0.9951	0.086
Mof_H 	H 	0.4794	0.5449	0.879	0.053
Mof_H 	H 	0.7825	0.6486	0.015	0.005
Mof_H 	H 	0.6169	0.6412	0.0097	0.096
Mof_H 	H 	0.6449	0.5146	0.8413	0.087
Mof_H 	H 	0.8104	0.5257	0.8521	0.004
Mof_C 	C 	0.9767	0.7641	0.36094	0.344
Mof_C 	C 	0.9808	0.6955	0.30892	-0.181
Mof_C 	C 	0.9766	0.7166	0.24789	-0.016
Mof_C 	C 	0.9838	0.6509	0.1968	0.074
Mof_C 	C 	0.9793	0.673	0.13605	-0.28
Mof_C 	C 	0.9876	0.6061	0.08376	0.474
Mof_C 	C 	0.1844	0.9403	0.4005	0.1
Mof_C 	C 	0.2838	0.9422	0.4023	-0.181
Mof_C 	C 	0.3324	0.8993	0.4517	0.142
Mof_C 	C 	0.2768	0.8564	0.49738	-0.184
Mof_C 	C 	0.177	0.8571	0.49174	0.102
Mof_C 	C 	0.4386	0.8968	0.45793	-0.109
Mof_C 	C 	0.5034	0.9281	0.41626	-0.071
Mof_C 	C 	0.754	0.879	0.47933	0.092
Mof_C 	C 	0.6546	0.883	0.47657	-0.163
Mof_C 	C 	0.6093	0.9232	0.42429	0.111
Mof_C 	C 	0.6712	0.9575	0.37752	-0.161
Mof_C 	C 	0.7706	0.9506	0.38435	0.094
Mof_C 	C 	0.0233	0.2641	0.13906	0.344
Mof_C 	C 	0.0192	0.1955	0.19108	-0.182
Mof_C 	C 	0.0234	0.2166	0.25211	-0.016
Mof_C 	C 	0.0162	0.1509	0.3032	0.072
Mof_C 	C 	0.0207	0.173	0.36395	-0.278
Mof_C 	C 	0.0124	0.1061	0.41624	0.466
Mof_C 	C 	0.8156	0.4403	0.0995	0.1
Mof_C 	C 	0.7162	0.4422	0.0977	-0.181
Mof_C 	C 	0.6676	0.3993	0.0483	0.141
Mof_C 	C 	0.7232	0.3564	0.00262	-0.183
Mof_C 	C 	0.823	0.3571	0.00826	0.105
Mof_C 	C 	0.5614	0.3968	0.04207	-0.109
Mof_C 	C 	0.4966	0.4281	0.08374	-0.071
Mof_C 	C 	0.246	0.379	0.02067	0.091
Mof_C 	C 	0.3454	0.383	0.02343	-0.162
Mof_C 	C 	0.3907	0.4232	0.07571	0.111
Mof_C 	C 	0.3288	0.4575	0.12248	-0.161
Mof_C 	C 	0.2294	0.4506	0.11565	0.094
Mof_C 	C 	0.0233	0.2359	0.63906	0.344
Mof_C 	C 	0.0192	0.3045	0.69108	-0.181
Mof_C 	C 	0.0234	0.2834	0.75211	-0.016
Mof_C 	C 	0.0162	0.3491	0.8032	0.074
Mof_C 	C 	0.0207	0.327	0.86395	-0.28
Mof_C 	C 	0.0124	0.3939	0.91624	0.474
Mof_C 	C 	0.8156	0.0597	0.5995	0.1
Mof_C 	C 	0.7162	0.0578	0.5977	-0.181
Mof_C 	C 	0.6676	0.1007	0.5483	0.142
Mof_C 	C 	0.7232	0.1436	0.50262	-0.184
Mof_C 	C 	0.823	0.1429	0.50826	0.102
Mof_C 	C 	0.5614	0.1032	0.54207	-0.109
Mof_C 	C 	0.4966	0.0719	0.58374	-0.071
Mof_C 	C 	0.246	0.121	0.52067	0.092
Mof_C 	C 	0.3454	0.117	0.52343	-0.163
Mof_C 	C 	0.3907	0.0768	0.57571	0.111
Mof_C 	C 	0.3288	0.0425	0.62248	-0.161
Mof_C 	C 	0.2294	0.0494	0.61565	0.094
Mof_C 	C 	0.9767	0.7359	0.86094	0.344
Mof_C 	C 	0.9808	0.8045	0.80892	-0.182
Mof_C 	C 	0.9766	0.7834	0.74789	-0.016
Mof_C 	C 	0.9838	0.8491	0.6968	0.072
Mof_C 	C 	0.9793	0.827	0.63605	-0.278
Mof_C 	C 	0.9876	0.8939	0.58376	0.466
Mof_C 	C 	0.1844	0.5597	0.9005	0.1
Mof_C 	C 	0.2838	0.5578	0.9023	-0.181
Mof_C 	C 	0.3324	0.6007	0.9517	0.141
Mof_C 	C 	0.2768	0.6436	0.99738	-0.183
Mof_C 	C 	0.177	0.6429	0.99174	0.105
Mof_C 	C 	0.4386	0.6032	0.95793	-0.109
Mof_C 	C 	0.5034	0.5719	0.91626	-0.071
Mof_C 	C 	0.754	0.621	0.97933	0.091
Mof_C 	C 	0.6546	0.617	0.97657	-0.162
Mof_C 	C 	0.6093	0.5768	0.92429	0.111
Mof_C 	C 	0.6712	0.5425	0.87752	-0.161
Mof_C 	C 	0.7706	0.5494	0.88435	0.094
Mof_N 	N 	0.12856	0.89906	0.44491	-0.247
Mof_N 	N 	0.81348	0.91209	0.43437	-0.235
Mof_N 	N 	0.87144	0.39906	0.05509	-0.247
Mof_N 	N 	0.18652	0.41209	0.06563	-0.234
Mof_N 	N 	0.87144	0.10094	0.55509	-0.247
Mof_N 	N 	0.18652	0.08791	0.56563	-0.235
Mof_N 	N 	0.12856	0.60094	0.94491	-0.247
Mof_N 	N 	0.81348	0.58791	0.93437	-0.234
Mof_O 	O 	0.97469	0.84733	0.34695	-0.407
Mof_O 	O 	0.9749	0.73814	0.41692	-0.36
Mof_O 	O 	0.02327	0.53049	0.09623	-0.492
Mof_O 	O 	0.95751	0.63257	0.03034	-0.497
Mof_O 	O 	0.02531	0.34733	0.15305	-0.406
Mof_O 	O 	0.0251	0.23814	0.08308	-0.361
Mof_O 	O 	0.97673	0.03049	0.40377	-0.485
Mof_O 	O 	0.04249	0.13257	0.46966	-0.496
Mof_O 	O 	0.02531	0.15267	0.65305	-0.407
Mof_O 	O 	0.0251	0.26186	0.58308	-0.36
Mof_O 	O 	0.97673	0.46951	0.90377	-0.492
Mof_O 	O 	0.04249	0.36743	0.96966	-0.497
Mof_O 	O 	0.97469	0.65267	0.84695	-0.406
Mof_O 	O 	0.9749	0.76186	0.91692	-0.361
Mof_O 	O 	0.02327	0.96951	0.59623	-0.485
Mof_O 	O 	0.95751	0.86743	0.53034	-0.496
_end
