# CIF file generated by openbabel 3.1.0, see https://openbabel.org
data_I
_chemical_name_common 'IFAREN_charged'
_cell_length_a 18.2174
_cell_length_b 20.2987
_cell_length_c 28.4749
_cell_angle_alpha 90
_cell_angle_beta 98.947
_cell_angle_gamma 90
_space_group_name_H-M_alt 'P 1'
_space_group_name_Hall 'P 1'
loop_
    _symmetry_equiv_pos_as_xyz
    x,y,z
loop_
    _atom_site_label
    _atom_site_type_symbol
    _atom_site_fract_x
    _atom_site_fract_y
    _atom_site_fract_z
    _atom_site_occupancy
    Co1      Co       0.82276    0.91592    0.27384    1.000
    Co2      Co       0.75419    0.85734    0.49849    1.000
    Co3      Co       0.71591    0.87023    0.73010    1.000
    Co4      Co       0.67724    0.41592    0.22616    1.000
    Co5      Co       0.74581    0.35734    0.00151    1.000
    Co6      Co       0.78409    0.37023    0.76990    1.000
    Co7      Co       0.17724    0.08408    0.72616    1.000
    Co8      Co       0.24581    0.14266    0.50151    1.000
    Co9      Co       0.28409    0.12977    0.26990    1.000
    Co10     Co       0.32276    0.58408    0.77384    1.000
    Co11     Co       0.25419    0.64266    0.99849    1.000
    Co12     Co       0.21591    0.62977    0.23010    1.000
    Mo1      Mo       0.74859    0.62523    0.79800    1.000
    Mo2      Mo       0.89767    0.55941    0.86731    1.000
    Mo3      Mo       0.99631    0.68621    0.92610    1.000
    Mo4      Mo       0.90206    0.82919    0.90709    1.000
    Mo5      Mo       0.72657    0.79183    0.84500    1.000
    Mo6      Mo       0.86968    0.04788    0.35425    1.000
    Mo7      Mo       0.70891    0.11687    0.30402    1.000
    Mo8      Mo       0.76781    0.78352    0.18689    1.000
    Mo9      Mo       0.59742    0.81181    0.10235    1.000
    Mo10     Mo       0.51135    0.66214    0.09307    1.000
    Mo11     Mo       0.75141    0.12523    0.70200    1.000
    Mo12     Mo       0.60233    0.05941    0.63269    1.000
    Mo13     Mo       0.50369    0.18621    0.57390    1.000
    Mo14     Mo       0.59794    0.32919    0.59291    1.000
    Mo15     Mo       0.77343    0.29183    0.65500    1.000
    Mo16     Mo       0.63032    0.54788    0.14575    1.000
    Mo17     Mo       0.79109    0.61687    0.19598    1.000
    Mo18     Mo       0.73219    0.28352    0.31311    1.000
    Mo19     Mo       0.90258    0.31181    0.39765    1.000
    Mo20     Mo       0.98865    0.16214    0.40693    1.000
    Mo21     Mo       0.25141    0.37477    0.20200    1.000
    Mo22     Mo       0.10233    0.44059    0.13269    1.000
    Mo23     Mo       0.00369    0.31379    0.07390    1.000
    Mo24     Mo       0.09794    0.17081    0.09291    1.000
    Mo25     Mo       0.27343    0.20817    0.15500    1.000
    Mo26     Mo       0.13032    0.95212    0.64575    1.000
    Mo27     Mo       0.29109    0.88313    0.69598    1.000
    Mo28     Mo       0.23219    0.21648    0.81311    1.000
    Mo29     Mo       0.40258    0.18819    0.89765    1.000
    Mo30     Mo       0.48865    0.33786    0.90693    1.000
    Mo31     Mo       0.24859    0.87477    0.29800    1.000
    Mo32     Mo       0.39767    0.94059    0.36731    1.000
    Mo33     Mo       0.49631    0.81379    0.42610    1.000
    Mo34     Mo       0.40206    0.67081    0.40709    1.000
    Mo35     Mo       0.22657    0.70817    0.34500    1.000
    Mo36     Mo       0.36968    0.45212    0.85425    1.000
    Mo37     Mo       0.20891    0.38313    0.80402    1.000
    Mo38     Mo       0.26781    0.71648    0.68689    1.000
    Mo39     Mo       0.09742    0.68819    0.60235    1.000
    Mo40     Mo       0.01135    0.83786    0.59307    1.000
    P1       P        0.80616    0.68076    0.91833    1.000
    P2       P        0.89750    0.72440    0.81519    1.000
    P3       P        0.11670    0.80084    0.70018    1.000
    P4       P        0.70294    0.67845    0.09015    1.000
    P5       P        0.69384    0.18076    0.58167    1.000
    P6       P        0.60250    0.22440    0.68481    1.000
    P7       P        0.38330    0.30084    0.79982    1.000
    P8       P        0.79706    0.17845    0.40985    1.000
    P9       P        0.19384    0.31924    0.08167    1.000
    P10      P        0.10250    0.27560    0.18481    1.000
    P11      P        0.88330    0.19916    0.29982    1.000
    P12      P        0.29706    0.32155    0.90985    1.000
    P13      P        0.30616    0.81924    0.41833    1.000
    P14      P        0.39750    0.77560    0.31519    1.000
    P15      P        0.61670    0.69916    0.20018    1.000
    P16      P        0.20294    0.82155    0.59015    1.000
    H1       H        0.68200    0.95270    0.20020    1.000
    H2       H        0.55450    0.94210    0.19340    1.000
    H3       H        0.50170    0.91400    0.26110    1.000
    H4       H        0.58040    0.90080    0.33480    1.000
    H5       H        0.98610    0.81710    0.41400    1.000
    H6       H        0.09260    0.80220    0.37770    1.000
    H7       H        0.08400    0.82040    0.29610    1.000
    H8       H        0.97370    0.85910    0.25280    1.000
    H9       H        0.62910    0.95170    0.52750    1.000
    H10      H        0.55150    0.03600    0.49380    1.000
    H11      H        0.55170    0.06420    0.41440    1.000
    H12      H        0.62920    0.00540    0.36970    1.000
    H13      H        0.90400    0.72120    0.40170    1.000
    H14      H        0.93220    0.63390    0.45570    1.000
    H15      H        0.90340    0.64310    0.53210    1.000
    H16      H        0.83940    0.73640    0.55210    1.000
    H17      H        0.67940    0.73090    0.44760    1.000
    H18      H        0.61750    0.63790    0.46760    1.000
    H19      H        0.58800    0.62820    0.54420    1.000
    H20      H        0.61990    0.71340    0.59900    1.000
    H21      H        0.84300    0.03310    0.61390    1.000
    H22      H        0.91160    0.09390    0.56480    1.000
    H23      H        0.93230    0.04830    0.49210    1.000
    H24      H        0.88070    0.94690    0.46930    1.000
    H25      H        0.56800    0.80450    0.75490    1.000
    H26      H        0.45220    0.77410    0.71380    1.000
    H27      H        0.43040    0.78110    0.63040    1.000
    H28      H        0.52840    0.81120    0.58990    1.000
    H29      H        0.92210    0.95090    0.65330    1.000
    H30      H        0.00130    0.98650    0.72220    1.000
    H31      H        0.95410    0.99120    0.79450    1.000
    H32      H        0.83350    0.95380    0.79620    1.000
    H33      H        0.84660    0.62280    0.98760    1.000
    H34      H        0.77250    0.59010    0.95960    1.000
    H35      H        0.98150    0.80710    0.81080    1.000
    H36      H        0.91720    0.80980    0.76620    1.000
    H37      H        0.97930    0.72830    0.72720    1.000
    H38      H        0.04430    0.72550    0.77220    1.000
    H39      H        0.06390    0.84200    0.76220    1.000
    H40      H        0.00440    0.84010    0.71500    1.000
    H41      H        0.75440    0.59250    0.05210    1.000
    H42      H        0.81550    0.64820    0.06760    1.000
    H43      H        0.69720    0.66350    0.98970    1.000
    H44      H        0.76320    0.71510    0.00400    1.000
    H45      H        0.81800    0.45270    0.29980    1.000
    H46      H        0.94550    0.44210    0.30660    1.000
    H47      H        0.99830    0.41400    0.23890    1.000
    H48      H        0.91960    0.40080    0.16520    1.000
    H49      H        0.51390    0.31710    0.08600    1.000
    H50      H        0.40740    0.30220    0.12230    1.000
    H51      H        0.41600    0.32040    0.20390    1.000
    H52      H        0.52630    0.35910    0.24720    1.000
    H53      H        0.87090    0.45170    0.97250    1.000
    H54      H        0.94850    0.53600    0.00620    1.000
    H55      H        0.94830    0.56420    0.08560    1.000
    H56      H        0.87080    0.50540    0.13030    1.000
    H57      H        0.59600    0.22120    0.09830    1.000
    H58      H        0.56780    0.13390    0.04430    1.000
    H59      H        0.59660    0.14310    0.96790    1.000
    H60      H        0.66060    0.23640    0.94790    1.000
    H61      H        0.82060    0.23090    0.05240    1.000
    H62      H        0.88250    0.13790    0.03240    1.000
    H63      H        0.91200    0.12820    0.95580    1.000
    H64      H        0.88010    0.21340    0.90100    1.000
    H65      H        0.65700    0.53310    0.88610    1.000
    H66      H        0.58840    0.59390    0.93520    1.000
    H67      H        0.56770    0.54830    0.00790    1.000
    H68      H        0.61930    0.44690    0.03070    1.000
    H69      H        0.93200    0.30450    0.74510    1.000
    H70      H        0.04780    0.27410    0.78620    1.000
    H71      H        0.06960    0.28110    0.86960    1.000
    H72      H        0.97160    0.31120    0.91010    1.000
    H73      H        0.57790    0.45090    0.84670    1.000
    H74      H        0.49870    0.48650    0.77780    1.000
    H75      H        0.54590    0.49120    0.70550    1.000
    H76      H        0.66650    0.45380    0.70380    1.000
    H77      H        0.65340    0.12280    0.51240    1.000
    H78      H        0.72750    0.09010    0.54040    1.000
    H79      H        0.51850    0.30710    0.68920    1.000
    H80      H        0.58280    0.30980    0.73380    1.000
    H81      H        0.52070    0.22830    0.77280    1.000
    H82      H        0.45570    0.22550    0.72780    1.000
    H83      H        0.43610    0.34200    0.73780    1.000
    H84      H        0.49560    0.34010    0.78500    1.000
    H85      H        0.74560    0.09250    0.44790    1.000
    H86      H        0.68450    0.14820    0.43240    1.000
    H87      H        0.80280    0.16350    0.51030    1.000
    H88      H        0.73680    0.21510    0.49600    1.000
    H89      H        0.31800    0.04730    0.79980    1.000
    H90      H        0.44550    0.05790    0.80660    1.000
    H91      H        0.49830    0.08600    0.73890    1.000
    H92      H        0.41960    0.09920    0.66520    1.000
    H93      H        0.01390    0.18290    0.58600    1.000
    H94      H        0.90740    0.19780    0.62230    1.000
    H95      H        0.91600    0.17960    0.70390    1.000
    H96      H        0.02630    0.14090    0.74720    1.000
    H97      H        0.37090    0.04830    0.47250    1.000
    H98      H        0.44850    0.96400    0.50620    1.000
    H99      H        0.44830    0.93580    0.58560    1.000
    H100     H        0.37080    0.99460    0.63030    1.000
    H101     H        0.09600    0.27880    0.59830    1.000
    H102     H        0.06780    0.36610    0.54430    1.000
    H103     H        0.09660    0.35690    0.46790    1.000
    H104     H        0.16060    0.26360    0.44790    1.000
    H105     H        0.32060    0.26910    0.55240    1.000
    H106     H        0.38250    0.36210    0.53240    1.000
    H107     H        0.41200    0.37180    0.45580    1.000
    H108     H        0.38010    0.28660    0.40100    1.000
    H109     H        0.15700    0.96690    0.38610    1.000
    H110     H        0.08840    0.90610    0.43520    1.000
    H111     H        0.06770    0.95170    0.50790    1.000
    H112     H        0.11930    0.05310    0.53070    1.000
    H113     H        0.43200    0.19550    0.24510    1.000
    H114     H        0.54780    0.22590    0.28620    1.000
    H115     H        0.56960    0.21890    0.36960    1.000
    H116     H        0.47160    0.18880    0.41010    1.000
    H117     H        0.07790    0.04910    0.34670    1.000
    H118     H        0.99870    0.01350    0.27780    1.000
    H119     H        0.04590    0.00880    0.20550    1.000
    H120     H        0.16650    0.04620    0.20380    1.000
    H121     H        0.15340    0.37720    0.01240    1.000
    H122     H        0.22750    0.40990    0.04040    1.000
    H123     H        0.01850    0.19290    0.18920    1.000
    H124     H        0.08280    0.19020    0.23380    1.000
    H125     H        0.02070    0.27170    0.27280    1.000
    H126     H        0.95570    0.27450    0.22780    1.000
    H127     H        0.93610    0.15800    0.23780    1.000
    H128     H        0.99560    0.15990    0.28500    1.000
    H129     H        0.24560    0.40750    0.94790    1.000
    H130     H        0.18450    0.35180    0.93240    1.000
    H131     H        0.30280    0.33650    0.01030    1.000
    H132     H        0.23680    0.28490    0.99600    1.000
    H133     H        0.18200    0.54730    0.70020    1.000
    H134     H        0.05450    0.55790    0.69340    1.000
    H135     H        0.00170    0.58600    0.76110    1.000
    H136     H        0.08040    0.59920    0.83480    1.000
    H137     H        0.48610    0.68290    0.91400    1.000
    H138     H        0.59260    0.69780    0.87770    1.000
    H139     H        0.58400    0.67960    0.79610    1.000
    H140     H        0.47370    0.64090    0.75280    1.000
    H141     H        0.12910    0.54830    0.02750    1.000
    H142     H        0.05150    0.46400    0.99380    1.000
    H143     H        0.05170    0.43580    0.91440    1.000
    H144     H        0.12920    0.49460    0.86970    1.000
    H145     H        0.40400    0.77880    0.90170    1.000
    H146     H        0.43220    0.86610    0.95570    1.000
    H147     H        0.40340    0.85690    0.03210    1.000
    H148     H        0.33940    0.76360    0.05210    1.000
    H149     H        0.17940    0.76910    0.94760    1.000
    H150     H        0.11750    0.86210    0.96760    1.000
    H151     H        0.08800    0.87180    0.04420    1.000
    H152     H        0.11990    0.78660    0.09900    1.000
    H153     H        0.34300    0.46690    0.11390    1.000
    H154     H        0.41160    0.40610    0.06480    1.000
    H155     H        0.43230    0.45170    0.99210    1.000
    H156     H        0.38070    0.55310    0.96930    1.000
    H157     H        0.06800    0.69550    0.25490    1.000
    H158     H        0.95220    0.72590    0.21380    1.000
    H159     H        0.93040    0.71890    0.13040    1.000
    H160     H        0.02840    0.68880    0.08990    1.000
    H161     H        0.42210    0.54910    0.15330    1.000
    H162     H        0.50130    0.51350    0.22220    1.000
    H163     H        0.45410    0.50880    0.29450    1.000
    H164     H        0.33350    0.54620    0.29620    1.000
    H165     H        0.34660    0.87720    0.48760    1.000
    H166     H        0.27250    0.90990    0.45960    1.000
    H167     H        0.48150    0.69290    0.31080    1.000
    H168     H        0.41720    0.69020    0.26620    1.000
    H169     H        0.47930    0.77170    0.22720    1.000
    H170     H        0.54430    0.77450    0.27220    1.000
    H171     H        0.56390    0.65800    0.26220    1.000
    H172     H        0.50440    0.65990    0.21500    1.000
    H173     H        0.25440    0.90750    0.55210    1.000
    H174     H        0.31550    0.85180    0.56760    1.000
    H175     H        0.19720    0.83650    0.48970    1.000
    H176     H        0.26320    0.78490    0.50400    1.000
    C1       C        0.66090    0.94230    0.22780    1.000
    C2       C        0.58510    0.93580    0.22330    1.000
    C3       C        0.55390    0.91960    0.26340    1.000
    C4       C        0.60020    0.91180    0.30680    1.000
    C5       C        0.67540    0.92060    0.30812    1.000
    C6       C        0.73080    0.90470    0.35102    1.000
    C7       C        0.84650    0.85290    0.37091    1.000
    C8       C        0.91770    0.84370    0.35260    1.000
    C9       C        0.98410    0.82430    0.38080    1.000
    C10      C        0.04700    0.81580    0.35950    1.000
    C11      C        0.04210    0.82760    0.31160    1.000
    C12      C        0.97590    0.84990    0.28570    1.000
    C13      C        0.62870    0.96250    0.49497    1.000
    C14      C        0.58240    0.01320    0.47523    1.000
    C15      C        0.58240    0.02950    0.42860    1.000
    C16      C        0.62800    0.99450    0.40199    1.000
    C17      C        0.67110    0.94370    0.42385    1.000
    C18      C        0.72240    0.90380    0.39951    1.000
    C19      C        0.82540    0.83220    0.41389    1.000
    C20      C        0.85510    0.77840    0.44680    1.000
    C21      C        0.89110    0.72370    0.43270    1.000
    C22      C        0.90820    0.67230    0.46490    1.000
    C23      C        0.89040    0.67720    0.50940    1.000
    C24      C        0.85250    0.73320    0.52120    1.000
    C25      C        0.66630    0.72780    0.47860    1.000
    C26      C        0.63010    0.67200    0.49020    1.000
    C27      C        0.61230    0.66650    0.53530    1.000
    C28      C        0.63020    0.71710    0.56740    1.000
    C29      C        0.66320    0.77330    0.55280    1.000
    C30      C        0.68890    0.82950    0.58471    1.000
    C31      C        0.78120    0.91120    0.59644    1.000
    C32      C        0.82560    0.95430    0.56906    1.000
    C33      C        0.85210    0.01580    0.58430    1.000
    C34      C        0.89230    0.05170    0.55520    1.000
    C35      C        0.90390    0.02530    0.51205    1.000
    C36      C        0.87300    0.96490    0.49896    1.000
    C37      C        0.55960    0.80640    0.72110    1.000
    C38      C        0.49040    0.78830    0.69690    1.000
    C39      C        0.47800    0.79140    0.64760    1.000
    C40      C        0.53550    0.80950    0.62370    1.000
    C41      C        0.60390    0.82510    0.65022    1.000
    C42      C        0.67020    0.84540    0.62918    1.000
    C43      C        0.77780    0.91100    0.64513    1.000
    C44      C        0.83280    0.93480    0.68546    1.000
    C45      C        0.90430    0.95270    0.68291    1.000
    C46      C        0.95160    0.97370    0.72370    1.000
    C47      C        0.92430    0.97560    0.76630    1.000
    C48      C        0.85200    0.95400    0.76680    1.000
    C49      C        0.79660    0.63260    0.96986    1.000
    C50      C        0.95230    0.77980    0.78578    1.000
    C51      C        0.00640    0.75420    0.75381    1.000
    C52      C        0.04370    0.81410    0.73470    1.000
    C53      C        0.76320    0.64060    0.05322    1.000
    C54      C        0.75060    0.66770    0.00299    1.000
    C55      C        0.83910    0.44230    0.27220    1.000
    C56      C        0.91490    0.43580    0.27670    1.000
    C57      C        0.94610    0.41960    0.23660    1.000
    C58      C        0.89980    0.41180    0.19320    1.000
    C59      C        0.82460    0.42060    0.19188    1.000
    C60      C        0.76920    0.40470    0.14898    1.000
    C61      C        0.65350    0.35290    0.12909    1.000
    C62      C        0.58230    0.34370    0.14740    1.000
    C63      C        0.51590    0.32430    0.11920    1.000
    C64      C        0.45300    0.31580    0.14050    1.000
    C65      C        0.45790    0.32760    0.18840    1.000
    C66      C        0.52410    0.34990    0.21430    1.000
    C67      C        0.87130    0.46250    0.00503    1.000
    C68      C        0.91760    0.51320    0.02477    1.000
    C69      C        0.91760    0.52950    0.07140    1.000
    C70      C        0.87200    0.49450    0.09801    1.000
    C71      C        0.82890    0.44370    0.07615    1.000
    C72      C        0.77760    0.40380    0.10049    1.000
    C73      C        0.67460    0.33220    0.08611    1.000
    C74      C        0.64490    0.27840    0.05320    1.000
    C75      C        0.60890    0.22370    0.06730    1.000
    C76      C        0.59180    0.17230    0.03510    1.000
    C77      C        0.60960    0.17720    0.99060    1.000
    C78      C        0.64750    0.23320    0.97880    1.000
    C79      C        0.83370    0.22780    0.02140    1.000
    C80      C        0.86990    0.17200    0.00980    1.000
    C81      C        0.88770    0.16650    0.96470    1.000
    C82      C        0.86980    0.21710    0.93260    1.000
    C83      C        0.83680    0.27330    0.94720    1.000
    C84      C        0.81110    0.32950    0.91529    1.000
    C85      C        0.71880    0.41120    0.90356    1.000
    C86      C        0.67440    0.45430    0.93094    1.000
    C87      C        0.64790    0.51580    0.91570    1.000
    C88      C        0.60770    0.55170    0.94480    1.000
    C89      C        0.59610    0.52530    0.98795    1.000
    C90      C        0.62700    0.46490    0.00104    1.000
    C91      C        0.94040    0.30640    0.77890    1.000
    C92      C        0.00960    0.28830    0.80310    1.000
    C93      C        0.02200    0.29140    0.85240    1.000
    C94      C        0.96450    0.30950    0.87630    1.000
    C95      C        0.89610    0.32510    0.84978    1.000
    C96      C        0.82980    0.34540    0.87082    1.000
    C97      C        0.72220    0.41100    0.85487    1.000
    C98      C        0.66720    0.43480    0.81454    1.000
    C99      C        0.59570    0.45270    0.81709    1.000
    C100     C        0.54840    0.47370    0.77630    1.000
    C101     C        0.57570    0.47560    0.73370    1.000
    C102     C        0.64800    0.45400    0.73320    1.000
    C103     C        0.70340    0.13260    0.53014    1.000
    C104     C        0.54770    0.27980    0.71422    1.000
    C105     C        0.49360    0.25420    0.74619    1.000
    C106     C        0.45630    0.31410    0.76530    1.000
    C107     C        0.73680    0.14060    0.44678    1.000
    C108     C        0.74940    0.16770    0.49701    1.000
    C109     C        0.33910    0.05770    0.77220    1.000
    C110     C        0.41490    0.06420    0.77670    1.000
    C111     C        0.44610    0.08040    0.73660    1.000
    C112     C        0.39980    0.08820    0.69320    1.000
    C113     C        0.32460    0.07940    0.69188    1.000
    C114     C        0.26920    0.09530    0.64898    1.000
    C115     C        0.15350    0.14710    0.62909    1.000
    C116     C        0.08230    0.15630    0.64740    1.000
    C117     C        0.01590    0.17570    0.61920    1.000
    C118     C        0.95300    0.18420    0.64050    1.000
    C119     C        0.95790    0.17240    0.68840    1.000
    C120     C        0.02410    0.15010    0.71430    1.000
    C121     C        0.37130    0.03750    0.50503    1.000
    C122     C        0.41760    0.98680    0.52477    1.000
    C123     C        0.41760    0.97050    0.57140    1.000
    C124     C        0.37200    0.00550    0.59801    1.000
    C125     C        0.32890    0.05630    0.57615    1.000
    C126     C        0.27760    0.09620    0.60049    1.000
    C127     C        0.17460    0.16780    0.58611    1.000
    C128     C        0.14490    0.22160    0.55320    1.000
    C129     C        0.10890    0.27630    0.56730    1.000
    C130     C        0.09180    0.32770    0.53510    1.000
    C131     C        0.10960    0.32280    0.49060    1.000
    C132     C        0.14750    0.26680    0.47880    1.000
    C133     C        0.33370    0.27220    0.52140    1.000
    C134     C        0.36990    0.32800    0.50980    1.000
    C135     C        0.38770    0.33350    0.46470    1.000
    C136     C        0.36980    0.28290    0.43260    1.000
    C137     C        0.33680    0.22670    0.44720    1.000
    C138     C        0.31110    0.17050    0.41529    1.000
    C139     C        0.21880    0.08880    0.40356    1.000
    C140     C        0.17440    0.04570    0.43094    1.000
    C141     C        0.14790    0.98420    0.41570    1.000
    C142     C        0.10770    0.94830    0.44480    1.000
    C143     C        0.09610    0.97470    0.48795    1.000
    C144     C        0.12700    0.03510    0.50104    1.000
    C145     C        0.44040    0.19360    0.27890    1.000
    C146     C        0.50960    0.21170    0.30310    1.000
    C147     C        0.52200    0.20860    0.35240    1.000
    C148     C        0.46450    0.19050    0.37630    1.000
    C149     C        0.39610    0.17490    0.34978    1.000
    C150     C        0.32980    0.15460    0.37082    1.000
    C151     C        0.22220    0.08900    0.35487    1.000
    C152     C        0.16720    0.06520    0.31454    1.000
    C153     C        0.09570    0.04730    0.31709    1.000
    C154     C        0.04840    0.02630    0.27630    1.000
    C155     C        0.07570    0.02440    0.23370    1.000
    C156     C        0.14800    0.04600    0.23320    1.000
    C157     C        0.20340    0.36740    0.03014    1.000
    C158     C        0.04770    0.22020    0.21422    1.000
    C159     C        0.99360    0.24580    0.24619    1.000
    C160     C        0.95630    0.18590    0.26530    1.000
    C161     C        0.23680    0.35940    0.94678    1.000
    C162     C        0.24940    0.33230    0.99701    1.000
    C163     C        0.16090    0.55770    0.72780    1.000
    C164     C        0.08510    0.56420    0.72330    1.000
    C165     C        0.05390    0.58040    0.76340    1.000
    C166     C        0.10020    0.58820    0.80680    1.000
    C167     C        0.17540    0.57940    0.80812    1.000
    C168     C        0.23080    0.59530    0.85102    1.000
    C169     C        0.34650    0.64710    0.87091    1.000
    C170     C        0.41770    0.65630    0.85260    1.000
    C171     C        0.48410    0.67570    0.88080    1.000
    C172     C        0.54700    0.68420    0.85950    1.000
    C173     C        0.54210    0.67240    0.81160    1.000
    C174     C        0.47590    0.65010    0.78570    1.000
    C175     C        0.12870    0.53750    0.99497    1.000
    C176     C        0.08240    0.48680    0.97523    1.000
    C177     C        0.08240    0.47050    0.92860    1.000
    C178     C        0.12800    0.50550    0.90199    1.000
    C179     C        0.17110    0.55630    0.92385    1.000
    C180     C        0.22240    0.59620    0.89951    1.000
    C181     C        0.32540    0.66780    0.91389    1.000
    C182     C        0.35510    0.72160    0.94680    1.000
    C183     C        0.39110    0.77630    0.93270    1.000
    C184     C        0.40820    0.82770    0.96490    1.000
    C185     C        0.39040    0.82280    0.00940    1.000
    C186     C        0.35250    0.76680    0.02120    1.000
    C187     C        0.16630    0.77220    0.97860    1.000
    C188     C        0.13010    0.82800    0.99020    1.000
    C189     C        0.11230    0.83350    0.03530    1.000
    C190     C        0.13020    0.78290    0.06740    1.000
    C191     C        0.16320    0.72670    0.05280    1.000
    C192     C        0.18890    0.67050    0.08471    1.000
    C193     C        0.28120    0.58880    0.09644    1.000
    C194     C        0.32560    0.54570    0.06906    1.000
    C195     C        0.35210    0.48420    0.08430    1.000
    C196     C        0.39230    0.44830    0.05520    1.000
    C197     C        0.40390    0.47470    0.01205    1.000
    C198     C        0.37300    0.53510    0.99896    1.000
    C199     C        0.05960    0.69360    0.22110    1.000
    C200     C        0.99040    0.71170    0.19690    1.000
    C201     C        0.97800    0.70860    0.14760    1.000
    C202     C        0.03550    0.69050    0.12370    1.000
    C203     C        0.10390    0.67490    0.15022    1.000
    C204     C        0.17020    0.65460    0.12918    1.000
    C205     C        0.27780    0.58900    0.14513    1.000
    C206     C        0.33280    0.56520    0.18546    1.000
    C207     C        0.40430    0.54730    0.18291    1.000
    C208     C        0.45160    0.52630    0.22370    1.000
    C209     C        0.42430    0.52440    0.26630    1.000
    C210     C        0.35200    0.54600    0.26680    1.000
    C211     C        0.29660    0.86740    0.46986    1.000
    C212     C        0.45230    0.72020    0.28578    1.000
    C213     C        0.50640    0.74580    0.25381    1.000
    C214     C        0.54370    0.68590    0.23470    1.000
    C215     C        0.26320    0.85940    0.55322    1.000
    C216     C        0.25060    0.83230    0.50299    1.000
    N1       N        0.70670    0.93470    0.26925    1.000
    N2       N        0.79630    0.88550    0.34036    1.000
    N3       N        0.91470    0.85870    0.30617    1.000
    N4       N        0.67250    0.92840    0.47040    1.000
    N5       N        0.76730    0.86400    0.42790    1.000
    N6       N        0.83430    0.78220    0.49063    1.000
    N7       N        0.68400    0.77800    0.50892    1.000
    N8       N        0.73980    0.86730    0.56887    1.000
    N9       N        0.83300    0.93040    0.52547    1.000
    N10      N        0.61490    0.82630    0.69860    1.000
    N11      N        0.71820    0.88180    0.65837    1.000
    N12      N        0.80740    0.93340    0.72810    1.000
    N13      N        0.79330    0.43470    0.23075    1.000
    N14      N        0.70370    0.38550    0.15964    1.000
    N15      N        0.58530    0.35870    0.19383    1.000
    N16      N        0.82750    0.42840    0.02960    1.000
    N17      N        0.73270    0.36400    0.07210    1.000
    N18      N        0.66570    0.28220    0.00937    1.000
    N19      N        0.81600    0.27800    0.99108    1.000
    N20      N        0.76020    0.36730    0.93113    1.000
    N21      N        0.66700    0.43040    0.97453    1.000
    N22      N        0.88510    0.32630    0.80140    1.000
    N23      N        0.78180    0.38180    0.84163    1.000
    N24      N        0.69260    0.43340    0.77190    1.000
    N25      N        0.29330    0.06530    0.73075    1.000
    N26      N        0.20370    0.11450    0.65964    1.000
    N27      N        0.08530    0.14130    0.69383    1.000
    N28      N        0.32750    0.07160    0.52960    1.000
    N29      N        0.23270    0.13600    0.57210    1.000
    N30      N        0.16570    0.21780    0.50937    1.000
    N31      N        0.31600    0.22200    0.49108    1.000
    N32      N        0.26020    0.13270    0.43113    1.000
    N33      N        0.16700    0.06960    0.47453    1.000
    N34      N        0.38510    0.17370    0.30140    1.000
    N35      N        0.28180    0.11820    0.34163    1.000
    N36      N        0.19260    0.06660    0.27190    1.000
    N37      N        0.20670    0.56530    0.76925    1.000
    N38      N        0.29630    0.61450    0.84036    1.000
    N39      N        0.41470    0.64130    0.80617    1.000
    N40      N        0.17250    0.57160    0.97040    1.000
    N41      N        0.26730    0.63600    0.92790    1.000
    N42      N        0.33430    0.71780    0.99063    1.000
    N43      N        0.18400    0.72200    0.00892    1.000
    N44      N        0.23980    0.63270    0.06887    1.000
    N45      N        0.33300    0.56960    0.02547    1.000
    N46      N        0.11490    0.67370    0.19860    1.000
    N47      N        0.21820    0.61820    0.15837    1.000
    N48      N        0.30740    0.56660    0.22810    1.000
    O1       O        0.73370    0.84687    0.79903    1.000
    O2       O        0.64120    0.81050    0.85742    1.000
    O3       O        0.71358    0.71412    0.81061    1.000
    O4       O        0.71830    0.61870    0.73825    1.000
    O5       O        0.68250    0.58336    0.82158    1.000
    O6       O        0.82910    0.56381    0.80717    1.000
    O7       O        0.81286    0.63430    0.87613    1.000
    O8       O        0.85449    0.77204    0.84435    1.000
    O9       O        0.87756    0.72247    0.93186    1.000
    O10      O        0.98890    0.77944    0.90611    1.000
    O11      O        0.91010    0.85438    0.96504    1.000
    O12      O        0.08050    0.67123    0.90929    1.000
    O13      O        0.95010    0.60169    0.92282    1.000
    O14      O        0.86040    0.49546    0.89451    1.000
    O15      O        0.79040    0.84361    0.89546    1.000
    O16      O        0.73870    0.72423    0.90519    1.000
    O17      O        0.01610    0.69432    0.98634    1.000
    O18      O        0.94410    0.67424    0.84697    1.000
    O19      O        0.96900    0.52570    0.84380    1.000
    O20      O        0.84065    0.68969    0.77844    1.000
    O21      O        0.87370    0.99960    0.30453    1.000
    O22      O        0.78400    0.83680    0.23395    1.000
    O23      O        0.08040    0.77964    0.64965    1.000
    O24      O        0.53120    0.74750    0.06533    1.000
    O25      O        0.63630    0.63235    0.09240    1.000
    O26      O        0.68780    0.82260    0.14571    1.000
    O27      O        0.16980    0.74820    0.72228    1.000
    O28      O        0.80970    0.70622    0.22252    1.000
    O29      O        0.74840    0.68960    0.14057    1.000
    O30      O        0.15800    0.86704    0.69803    1.000
    O31      O        0.83900    0.80240    0.15647    1.000
    O32      O        0.76351    0.05737    0.34804    1.000
    O33      O        0.88240    0.99179    0.39941    1.000
    O34      O        0.96320    0.09036    0.36292    1.000
    O35      O        0.49120    0.62280    0.04007    1.000
    O36      O        0.60930    0.86530    0.05818    1.000
    O37      O        0.42640    0.67760    0.10971    1.000
    O38      O        0.67720    0.74469    0.06884    1.000
    O39      O        0.70870    0.08040    0.25060    1.000
    O40      O        0.62320    0.10040    0.31769    1.000
    O41      O        0.53420    0.85160    0.13053    1.000
    O42      O        0.92470    0.89780    0.87730    1.000
    O43      O        0.77380    0.78470    0.71875    1.000
    O44      O        0.65340    0.95446    0.74789    1.000
    O45      O        0.85250    0.95100    0.21183    1.000
    O46      O        0.76630    0.34687    0.70097    1.000
    O47      O        0.85880    0.31050    0.64258    1.000
    O48      O        0.78642    0.21412    0.68939    1.000
    O49      O        0.78170    0.11870    0.76175    1.000
    O50      O        0.81750    0.08336    0.67842    1.000
    O51      O        0.67090    0.06381    0.69283    1.000
    O52      O        0.68714    0.13430    0.62387    1.000
    O53      O        0.64551    0.27204    0.65565    1.000
    O54      O        0.62244    0.22247    0.56814    1.000
    O55      O        0.51110    0.27944    0.59389    1.000
    O56      O        0.58990    0.35438    0.53496    1.000
    O57      O        0.41950    0.17123    0.59071    1.000
    O58      O        0.54990    0.10169    0.57718    1.000
    O59      O        0.63960    0.99546    0.60549    1.000
    O60      O        0.70960    0.34361    0.60454    1.000
    O61      O        0.76130    0.22423    0.59481    1.000
    O62      O        0.48390    0.19432    0.51366    1.000
    O63      O        0.55590    0.17424    0.65303    1.000
    O64      O        0.53100    0.02570    0.65620    1.000
    O65      O        0.65935    0.18969    0.72156    1.000
    O66      O        0.62630    0.49960    0.19547    1.000
    O67      O        0.71600    0.33680    0.26605    1.000
    O68      O        0.41960    0.27964    0.85035    1.000
    O69      O        0.96880    0.24750    0.43467    1.000
    O70      O        0.86370    0.13235    0.40760    1.000
    O71      O        0.81220    0.32260    0.35429    1.000
    O72      O        0.33020    0.24820    0.77772    1.000
    O73      O        0.69030    0.20622    0.27748    1.000
    O74      O        0.75160    0.18960    0.35943    1.000
    O75      O        0.34200    0.36704    0.80197    1.000
    O76      O        0.66100    0.30240    0.34353    1.000
    O77      O        0.73649    0.55737    0.15196    1.000
    O78      O        0.61760    0.49179    0.10059    1.000
    O79      O        0.53680    0.59036    0.13708    1.000
    O80      O        0.00880    0.12280    0.45993    1.000
    O81      O        0.89070    0.36530    0.44182    1.000
    O82      O        0.07360    0.17760    0.39029    1.000
    O83      O        0.82280    0.24469    0.43116    1.000
    O84      O        0.79130    0.58040    0.24940    1.000
    O85      O        0.87680    0.60040    0.18231    1.000
    O86      O        0.96580    0.35160    0.36947    1.000
    O87      O        0.57530    0.39780    0.62270    1.000
    O88      O        0.72620    0.28470    0.78125    1.000
    O89      O        0.84660    0.45446    0.75211    1.000
    O90      O        0.64750    0.45100    0.28817    1.000
    O91      O        0.26630    0.15313    0.20097    1.000
    O92      O        0.35880    0.18950    0.14258    1.000
    O93      O        0.28642    0.28588    0.18939    1.000
    O94      O        0.28170    0.38130    0.26175    1.000
    O95      O        0.31750    0.41664    0.17842    1.000
    O96      O        0.17090    0.43619    0.19283    1.000
    O97      O        0.18714    0.36570    0.12387    1.000
    O98      O        0.14551    0.22796    0.15565    1.000
    O99      O        0.12244    0.27753    0.06814    1.000
    O100     O        0.01110    0.22056    0.09389    1.000
    O101     O        0.08990    0.14562    0.03496    1.000
    O102     O        0.91950    0.32877    0.09071    1.000
    O103     O        0.04990    0.39831    0.07718    1.000
    O104     O        0.13960    0.50454    0.10549    1.000
    O105     O        0.20960    0.15639    0.10454    1.000
    O106     O        0.26130    0.27577    0.09481    1.000
    O107     O        0.98390    0.30568    0.01366    1.000
    O108     O        0.05590    0.32576    0.15303    1.000
    O109     O        0.03100    0.47430    0.15620    1.000
    O110     O        0.15935    0.31031    0.22156    1.000
    O111     O        0.12630    0.00040    0.69547    1.000
    O112     O        0.21600    0.16320    0.76605    1.000
    O113     O        0.91960    0.22036    0.35035    1.000
    O114     O        0.46880    0.25250    0.93467    1.000
    O115     O        0.36370    0.36765    0.90760    1.000
    O116     O        0.31220    0.17740    0.85429    1.000
    O117     O        0.83020    0.25180    0.27772    1.000
    O118     O        0.19030    0.29378    0.77748    1.000
    O119     O        0.25160    0.31040    0.85943    1.000
    O120     O        0.84200    0.13296    0.30197    1.000
    O121     O        0.16100    0.19760    0.84353    1.000
    O122     O        0.23649    0.94263    0.65196    1.000
    O123     O        0.11760    0.00821    0.60059    1.000
    O124     O        0.03680    0.90964    0.63708    1.000
    O125     O        0.50880    0.37720    0.95993    1.000
    O126     O        0.39070    0.13470    0.94182    1.000
    O127     O        0.57360    0.32240    0.89029    1.000
    O128     O        0.32280    0.25531    0.93116    1.000
    O129     O        0.29130    0.91960    0.74940    1.000
    O130     O        0.37680    0.89960    0.68231    1.000
    O131     O        0.46580    0.14840    0.86947    1.000
    O132     O        0.07530    0.10220    0.12270    1.000
    O133     O        0.22620    0.21530    0.28125    1.000
    O134     O        0.34660    0.04554    0.25211    1.000
    O135     O        0.14750    0.04900    0.78817    1.000
    O136     O        0.23370    0.65313    0.29903    1.000
    O137     O        0.14120    0.68950    0.35742    1.000
    O138     O        0.21358    0.78588    0.31061    1.000
    O139     O        0.21830    0.88130    0.23825    1.000
    O140     O        0.18250    0.91664    0.32158    1.000
    O141     O        0.32910    0.93619    0.30717    1.000
    O142     O        0.31286    0.86570    0.37613    1.000
    O143     O        0.35449    0.72796    0.34435    1.000
    O144     O        0.37756    0.77753    0.43186    1.000
    O145     O        0.48890    0.72056    0.40611    1.000
    O146     O        0.41010    0.64562    0.46504    1.000
    O147     O        0.58050    0.82877    0.40929    1.000
    O148     O        0.45010    0.89831    0.42282    1.000
    O149     O        0.36040    0.00454    0.39451    1.000
    O150     O        0.29040    0.65639    0.39546    1.000
    O151     O        0.23870    0.77577    0.40519    1.000
    O152     O        0.51610    0.80568    0.48634    1.000
    O153     O        0.44410    0.82576    0.34697    1.000
    O154     O        0.46900    0.97430    0.34380    1.000
    O155     O        0.34065    0.81031    0.27844    1.000
    O156     O        0.37370    0.50040    0.80453    1.000
    O157     O        0.28400    0.66320    0.73395    1.000
    O158     O        0.58040    0.72036    0.14965    1.000
    O159     O        0.03120    0.75250    0.56533    1.000
    O160     O        0.13630    0.86765    0.59240    1.000
    O161     O        0.18780    0.67740    0.64571    1.000
    O162     O        0.66980    0.75180    0.22228    1.000
    O163     O        0.30970    0.79378    0.72252    1.000
    O164     O        0.24840    0.81040    0.64057    1.000
    O165     O        0.65800    0.63296    0.19803    1.000
    O166     O        0.33900    0.69760    0.65647    1.000
    O167     O        0.26351    0.44263    0.84804    1.000
    O168     O        0.38240    0.50821    0.89941    1.000
    O169     O        0.46320    0.40964    0.86292    1.000
    O170     O        0.99120    0.87720    0.54007    1.000
    O171     O        0.10930    0.63470    0.55818    1.000
    O172     O        0.92640    0.82240    0.60971    1.000
    O173     O        0.17720    0.75531    0.56884    1.000
    O174     O        0.20870    0.41960    0.75060    1.000
    O175     O        0.12320    0.39960    0.81769    1.000
    O176     O        0.03420    0.64840    0.63053    1.000
    O177     O        0.42470    0.60220    0.37730    1.000
    O178     O        0.27380    0.71530    0.21875    1.000
    O179     O        0.15340    0.54554    0.24789    1.000
    O180     O        0.35250    0.54900    0.71183    1.000
