data_functionalizedCrystal
_audit_creation_method	'EQeq! by Chris Wilmer'
_symmetry_space_group_name_H-M	'P1'
_symmetry_Int_Tables_number	1
_symmetry_cell_setting	triclinic
loop_
_symmetry_equiv_pos_as_xyz
  x,y,z
_cell_length_a	19.623
_cell_length_b	19.623
_cell_length_c	19.147
_cell_angle_alpha	90
_cell_angle_beta	90
_cell_angle_gamma	90
loop_
_atom_site_label
_atom_site_type_symbol
_atom_site_fract_x
_atom_site_fract_y
_atom_site_fract_z
_atom_site_charge
Mof_Fe	Fe	0.39624	0.52176	0.02003	0.592
Mof_N 	N 	0.38293	0.41754	0.0714	-0.176
Mof_N 	N 	0.32919	0.53958	0.10716	-0.182
Mof_N 	N 	0.2705	0.49598	0.1984	-0.166
Mof_H 	H 	0.2539	0.4671	0.2276	0.111
Mof_N 	N 	0.2624	0.56483	0.19883	-0.138
Mof_N 	N 	0.335	0.69682	0.08489	-0.142
Mof_N 	N 	0.27632	0.7014	0.18493	-0.15
Mof_N 	N 	0.29098	0.76686	0.16637	-0.156
Mof_C 	C 	0.4122	0.358	0.0532	0.11
Mof_H 	H 	0.4456	0.3569	0.0187	-0.014
Mof_C 	C 	0.3925	0.2995	0.0855	-0.189
Mof_H 	H 	0.4124	0.2588	0.0712	0.09
Mof_C 	C 	0.3473	0.2971	0.1354	0.112
Mof_H 	H 	0.3363	0.2563	0.1575	-0.015
Mof_C 	C 	0.3176	0.3555	0.1535	-0.163
Mof_H 	H 	0.2835	0.3554	0.1871	0.082
Mof_C 	C 	0.3369	0.4168	0.1228	0.073
Mof_C 	C 	0.3099	0.4827	0.1429	0.087
Mof_C 	C 	0.29816	0.58853	0.1444	0.078
Mof_C 	C 	0.30315	0.66218	0.13532	0.069
Mof_C 	C 	0.3249	0.7612	0.1068	0.097
Mof_H 	H 	0.3404	0.7989	0.082	0
Mof_Fe	Fe	0.89624	0.02176	0.52003	0.589
Mof_N 	N 	0.88293	0.91754	0.5714	-0.176
Mof_N 	N 	0.82919	0.03958	0.60716	-0.183
Mof_N 	N 	0.7705	0.99598	0.6984	-0.167
Mof_H 	H 	0.7539	0.9671	0.7276	0.11
Mof_N 	N 	0.7624	0.06483	0.69883	-0.139
Mof_N 	N 	0.835	0.19682	0.58489	-0.143
Mof_N 	N 	0.77632	0.2014	0.68493	-0.151
Mof_N 	N 	0.79098	0.26686	0.66637	-0.157
Mof_C 	C 	0.9122	0.858	0.5532	0.109
Mof_H 	H 	0.9456	0.8569	0.5187	-0.014
Mof_C 	C 	0.8925	0.7995	0.5855	-0.189
Mof_H 	H 	0.9124	0.7588	0.5712	0.09
Mof_C 	C 	0.8473	0.7971	0.6354	0.112
Mof_H 	H 	0.8363	0.7563	0.6575	-0.015
Mof_C 	C 	0.8176	0.8555	0.6535	-0.163
Mof_H 	H 	0.7835	0.8554	0.6871	0.082
Mof_C 	C 	0.8369	0.9168	0.6228	0.073
Mof_C 	C 	0.8099	0.9827	0.6429	0.087
Mof_C 	C 	0.79816	0.08853	0.6444	0.078
Mof_C 	C 	0.80315	0.16218	0.63532	0.069
Mof_C 	C 	0.8249	0.2612	0.6068	0.097
Mof_H 	H 	0.8404	0.2989	0.582	0
Mof_Fe	Fe	0.10376	0.47824	0.52003	0.59
Mof_N 	N 	0.11707	0.58246	0.5714	-0.177
Mof_N 	N 	0.17081	0.46042	0.60716	-0.183
Mof_N 	N 	0.2295	0.50402	0.6984	-0.167
Mof_H 	H 	0.2461	0.5329	0.7276	0.11
Mof_N 	N 	0.2376	0.43517	0.69883	-0.139
Mof_N 	N 	0.165	0.30318	0.58489	-0.143
Mof_N 	N 	0.22368	0.2986	0.68493	-0.151
Mof_N 	N 	0.20902	0.23314	0.66637	-0.157
Mof_C 	C 	0.0878	0.642	0.5532	0.109
Mof_H 	H 	0.0544	0.6431	0.5187	-0.014
Mof_C 	C 	0.1075	0.7005	0.5855	-0.189
Mof_H 	H 	0.0876	0.7412	0.5712	0.09
Mof_C 	C 	0.1527	0.7029	0.6354	0.112
Mof_H 	H 	0.1637	0.7437	0.6575	-0.015
Mof_C 	C 	0.1824	0.6445	0.6535	-0.163
Mof_H 	H 	0.2165	0.6446	0.6871	0.082
Mof_C 	C 	0.1631	0.5832	0.6228	0.073
Mof_C 	C 	0.1901	0.5173	0.6429	0.087
Mof_C 	C 	0.20184	0.41147	0.6444	0.078
Mof_C 	C 	0.19685	0.33782	0.63532	0.069
Mof_C 	C 	0.1751	0.2388	0.6068	0.097
Mof_H 	H 	0.1596	0.2011	0.582	0
Mof_Fe	Fe	0.60376	0.97824	0.02003	0.591
Mof_N 	N 	0.61707	0.08246	0.0714	-0.177
Mof_N 	N 	0.67081	0.96042	0.10716	-0.183
Mof_N 	N 	0.7295	0.00402	0.1984	-0.167
Mof_H 	H 	0.7461	0.0329	0.2276	0.11
Mof_N 	N 	0.7376	0.93517	0.19883	-0.139
Mof_N 	N 	0.665	0.80318	0.08489	-0.143
Mof_N 	N 	0.72368	0.7986	0.18493	-0.151
Mof_N 	N 	0.70902	0.73314	0.16637	-0.157
Mof_C 	C 	0.5878	0.142	0.0532	0.109
Mof_H 	H 	0.5544	0.1431	0.0187	-0.014
Mof_C 	C 	0.6075	0.2005	0.0855	-0.189
Mof_H 	H 	0.5876	0.2412	0.0712	0.09
Mof_C 	C 	0.6527	0.2029	0.1354	0.112
Mof_H 	H 	0.6637	0.2437	0.1575	-0.015
Mof_C 	C 	0.6824	0.1445	0.1535	-0.163
Mof_H 	H 	0.7165	0.1446	0.1871	0.082
Mof_C 	C 	0.6631	0.0832	0.1228	0.073
Mof_C 	C 	0.6901	0.0173	0.1429	0.086
Mof_C 	C 	0.70184	0.91147	0.1444	0.078
Mof_C 	C 	0.69685	0.83782	0.13532	0.069
Mof_C 	C 	0.6751	0.7388	0.1068	0.097
Mof_H 	H 	0.6596	0.7011	0.082	0
Mof_Fe	Fe	0.22824	0.64624	0.27003	0.59
Mof_N 	N 	0.33246	0.63293	0.3214	-0.177
Mof_N 	N 	0.21042	0.57919	0.35716	-0.183
Mof_N 	N 	0.25402	0.5205	0.4484	-0.167
Mof_H 	H 	0.2829	0.5039	0.4776	0.11
Mof_N 	N 	0.18517	0.5124	0.44883	-0.139
Mof_N 	N 	0.05318	0.585	0.33489	-0.143
Mof_N 	N 	0.0486	0.52632	0.43493	-0.151
Mof_N 	N 	0.98314	0.54098	0.41637	-0.157
Mof_C 	C 	0.392	0.6622	0.3032	0.109
Mof_H 	H 	0.3931	0.6956	0.2687	-0.014
Mof_C 	C 	0.4505	0.6425	0.3355	-0.189
Mof_H 	H 	0.4912	0.6624	0.3212	0.09
Mof_C 	C 	0.4529	0.5973	0.3854	0.112
Mof_H 	H 	0.4937	0.5863	0.4075	-0.015
Mof_C 	C 	0.3945	0.5676	0.4035	-0.163
Mof_H 	H 	0.3946	0.5335	0.4371	0.082
Mof_C 	C 	0.3332	0.5869	0.3728	0.073
Mof_C 	C 	0.2673	0.5599	0.3929	0.087
Mof_C 	C 	0.16147	0.54816	0.3944	0.078
Mof_C 	C 	0.08782	0.55315	0.38532	0.069
Mof_C 	C 	0.9888	0.5749	0.3568	0.098
Mof_H 	H 	0.9511	0.5904	0.332	0
Mof_Fe	Fe	0.72824	0.14624	0.77003	0.59
Mof_N 	N 	0.83246	0.13293	0.8214	-0.177
Mof_N 	N 	0.71042	0.07919	0.85716	-0.183
Mof_N 	N 	0.75402	0.0205	0.9484	-0.167
Mof_H 	H 	0.7829	0.0039	0.9776	0.11
Mof_N 	N 	0.68517	0.0124	0.94883	-0.139
Mof_N 	N 	0.55318	0.085	0.83489	-0.143
Mof_N 	N 	0.5486	0.02632	0.93493	-0.151
Mof_N 	N 	0.48314	0.04098	0.91637	-0.157
Mof_C 	C 	0.892	0.1622	0.8032	0.109
Mof_H 	H 	0.8931	0.1956	0.7687	-0.014
Mof_C 	C 	0.9505	0.1425	0.8355	-0.189
Mof_H 	H 	0.9912	0.1624	0.8212	0.09
Mof_C 	C 	0.9529	0.0973	0.8854	0.112
Mof_H 	H 	0.9937	0.0863	0.9075	-0.015
Mof_C 	C 	0.8945	0.0676	0.9035	-0.163
Mof_H 	H 	0.8946	0.0335	0.9371	0.082
Mof_C 	C 	0.8332	0.0869	0.8728	0.073
Mof_C 	C 	0.7673	0.0599	0.8929	0.086
Mof_C 	C 	0.66147	0.04816	0.8944	0.078
Mof_C 	C 	0.58782	0.05315	0.88532	0.069
Mof_C 	C 	0.4888	0.0749	0.8568	0.097
Mof_H 	H 	0.4511	0.0904	0.832	0
Mof_Fe	Fe	0.27176	0.35376	0.77003	0.59
Mof_N 	N 	0.16754	0.36707	0.8214	-0.177
Mof_N 	N 	0.28958	0.42081	0.85716	-0.183
Mof_N 	N 	0.24598	0.4795	0.9484	-0.167
Mof_H 	H 	0.2171	0.4961	0.9776	0.11
Mof_N 	N 	0.31483	0.4876	0.94883	-0.139
Mof_N 	N 	0.44682	0.415	0.83489	-0.143
Mof_N 	N 	0.4514	0.47368	0.93493	-0.151
Mof_N 	N 	0.51686	0.45902	0.91637	-0.157
Mof_C 	C 	0.108	0.3378	0.8032	0.109
Mof_H 	H 	0.1069	0.3044	0.7687	-0.014
Mof_C 	C 	0.0495	0.3575	0.8355	-0.189
Mof_H 	H 	0.0088	0.3376	0.8212	0.09
Mof_C 	C 	0.0471	0.4027	0.8854	0.112
Mof_H 	H 	0.0063	0.4137	0.9075	-0.015
Mof_C 	C 	0.1055	0.4324	0.9035	-0.163
Mof_H 	H 	0.1054	0.4665	0.9371	0.082
Mof_C 	C 	0.1668	0.4131	0.8728	0.073
Mof_C 	C 	0.2327	0.4401	0.8929	0.087
Mof_C 	C 	0.33853	0.45184	0.8944	0.078
Mof_C 	C 	0.41218	0.44685	0.88532	0.069
Mof_C 	C 	0.5112	0.4251	0.8568	0.097
Mof_H 	H 	0.5489	0.4096	0.832	0
Mof_Fe	Fe	0.77176	0.85376	0.27003	0.591
Mof_N 	N 	0.66754	0.86707	0.3214	-0.177
Mof_N 	N 	0.78958	0.92081	0.35716	-0.183
Mof_N 	N 	0.74598	0.9795	0.4484	-0.167
Mof_H 	H 	0.7171	0.9961	0.4776	0.11
Mof_N 	N 	0.81483	0.9876	0.44883	-0.139
Mof_N 	N 	0.94682	0.915	0.33489	-0.142
Mof_N 	N 	0.9514	0.97368	0.43493	-0.15
Mof_N 	N 	0.01686	0.95902	0.41637	-0.157
Mof_C 	C 	0.608	0.8378	0.3032	0.109
Mof_H 	H 	0.6069	0.8044	0.2687	-0.014
Mof_C 	C 	0.5495	0.8575	0.3355	-0.189
Mof_H 	H 	0.5088	0.8376	0.3212	0.09
Mof_C 	C 	0.5471	0.9027	0.3854	0.112
Mof_H 	H 	0.5063	0.9137	0.4075	-0.015
Mof_C 	C 	0.6055	0.9324	0.4035	-0.163
Mof_H 	H 	0.6054	0.9665	0.4371	0.082
Mof_C 	C 	0.6668	0.9131	0.3728	0.073
Mof_C 	C 	0.7327	0.9401	0.3929	0.087
Mof_C 	C 	0.83853	0.95184	0.3944	0.078
Mof_C 	C 	0.91218	0.94685	0.38532	0.069
Mof_C 	C 	0.0112	0.9251	0.3568	0.096
Mof_H 	H 	0.0489	0.9096	0.332	0
Mof_Fe	Fe	0.60376	0.47824	0.97997	0.591
Mof_N 	N 	0.61707	0.58246	0.9286	-0.177
Mof_N 	N 	0.67081	0.46042	0.89284	-0.183
Mof_N 	N 	0.7295	0.50402	0.8016	-0.167
Mof_H 	H 	0.7461	0.5329	0.7724	0.11
Mof_N 	N 	0.7376	0.43517	0.80117	-0.139
Mof_N 	N 	0.665	0.30318	0.91511	-0.143
Mof_N 	N 	0.72368	0.2986	0.81507	-0.151
Mof_N 	N 	0.70902	0.23314	0.83363	-0.157
Mof_C 	C 	0.5878	0.642	0.9468	0.109
Mof_H 	H 	0.5544	0.6431	0.9813	-0.014
Mof_C 	C 	0.6075	0.7005	0.9145	-0.189
Mof_H 	H 	0.5876	0.7412	0.9288	0.09
Mof_C 	C 	0.6527	0.7029	0.8646	0.112
Mof_H 	H 	0.6637	0.7437	0.8425	-0.015
Mof_C 	C 	0.6824	0.6445	0.8465	-0.163
Mof_H 	H 	0.7165	0.6446	0.8129	0.082
Mof_C 	C 	0.6631	0.5832	0.8772	0.073
Mof_C 	C 	0.6901	0.5173	0.8571	0.087
Mof_C 	C 	0.70184	0.41147	0.8556	0.078
Mof_C 	C 	0.69685	0.33782	0.86468	0.069
Mof_C 	C 	0.6751	0.2388	0.8932	0.097
Mof_H 	H 	0.6596	0.2011	0.918	0
Mof_Fe	Fe	0.10376	0.97824	0.47997	0.589
Mof_N 	N 	0.11707	0.08246	0.4286	-0.176
Mof_N 	N 	0.17081	0.96042	0.39284	-0.183
Mof_N 	N 	0.2295	0.00402	0.3016	-0.167
Mof_H 	H 	0.2461	0.0329	0.2724	0.11
Mof_N 	N 	0.2376	0.93517	0.30117	-0.139
Mof_N 	N 	0.165	0.80318	0.41511	-0.143
Mof_N 	N 	0.22368	0.7986	0.31507	-0.151
Mof_N 	N 	0.20902	0.73314	0.33363	-0.157
Mof_C 	C 	0.0878	0.142	0.4468	0.109
Mof_H 	H 	0.0544	0.1431	0.4813	-0.014
Mof_C 	C 	0.1075	0.2005	0.4145	-0.189
Mof_H 	H 	0.0876	0.2412	0.4288	0.09
Mof_C 	C 	0.1527	0.2029	0.3646	0.112
Mof_H 	H 	0.1637	0.2437	0.3425	-0.015
Mof_C 	C 	0.1824	0.1445	0.3465	-0.163
Mof_H 	H 	0.2165	0.1446	0.3129	0.082
Mof_C 	C 	0.1631	0.0832	0.3772	0.073
Mof_C 	C 	0.1901	0.0173	0.3571	0.087
Mof_C 	C 	0.20184	0.91147	0.3556	0.078
Mof_C 	C 	0.19685	0.83782	0.36468	0.069
Mof_C 	C 	0.1751	0.7388	0.3932	0.097
Mof_H 	H 	0.1596	0.7011	0.418	0
Mof_Fe	Fe	0.89624	0.52176	0.47997	0.59
Mof_N 	N 	0.88293	0.41754	0.4286	-0.177
Mof_N 	N 	0.82919	0.53958	0.39284	-0.183
Mof_N 	N 	0.7705	0.49598	0.3016	-0.167
Mof_H 	H 	0.7539	0.4671	0.2724	0.11
Mof_N 	N 	0.7624	0.56483	0.30117	-0.139
Mof_N 	N 	0.835	0.69682	0.41511	-0.143
Mof_N 	N 	0.77632	0.7014	0.31507	-0.151
Mof_N 	N 	0.79098	0.76686	0.33363	-0.157
Mof_C 	C 	0.9122	0.358	0.4468	0.109
Mof_H 	H 	0.9456	0.3569	0.4813	-0.014
Mof_C 	C 	0.8925	0.2995	0.4145	-0.189
Mof_H 	H 	0.9124	0.2588	0.4288	0.09
Mof_C 	C 	0.8473	0.2971	0.3646	0.112
Mof_H 	H 	0.8363	0.2563	0.3425	-0.015
Mof_C 	C 	0.8176	0.3555	0.3465	-0.163
Mof_H 	H 	0.7835	0.3554	0.3129	0.082
Mof_C 	C 	0.8369	0.4168	0.3772	0.073
Mof_C 	C 	0.8099	0.4827	0.3571	0.087
Mof_C 	C 	0.79816	0.58853	0.3556	0.078
Mof_C 	C 	0.80315	0.66218	0.36468	0.069
Mof_C 	C 	0.8249	0.7612	0.3932	0.097
Mof_H 	H 	0.8404	0.7989	0.418	0
Mof_Fe	Fe	0.39624	0.02176	0.97997	0.591
Mof_N 	N 	0.38293	0.91754	0.9286	-0.177
Mof_N 	N 	0.32919	0.03958	0.89284	-0.183
Mof_N 	N 	0.2705	0.99598	0.8016	-0.167
Mof_H 	H 	0.2539	0.9671	0.7724	0.11
Mof_N 	N 	0.2624	0.06483	0.80117	-0.139
Mof_N 	N 	0.335	0.19682	0.91511	-0.143
Mof_N 	N 	0.27632	0.2014	0.81507	-0.151
Mof_N 	N 	0.29098	0.26686	0.83363	-0.157
Mof_C 	C 	0.4122	0.858	0.9468	0.109
Mof_H 	H 	0.4456	0.8569	0.9813	-0.014
Mof_C 	C 	0.3925	0.7995	0.9145	-0.189
Mof_H 	H 	0.4124	0.7588	0.9288	0.09
Mof_C 	C 	0.3473	0.7971	0.8646	0.112
Mof_H 	H 	0.3363	0.7563	0.8425	-0.015
Mof_C 	C 	0.3176	0.8555	0.8465	-0.163
Mof_H 	H 	0.2835	0.8554	0.8129	0.082
Mof_C 	C 	0.3369	0.9168	0.8772	0.073
Mof_C 	C 	0.3099	0.9827	0.8571	0.086
Mof_C 	C 	0.29816	0.08853	0.8556	0.078
Mof_C 	C 	0.30315	0.16218	0.86468	0.069
Mof_C 	C 	0.3249	0.2612	0.8932	0.097
Mof_H 	H 	0.3404	0.2989	0.918	0
Mof_Fe	Fe	0.77176	0.35376	0.72997	0.59
Mof_N 	N 	0.66754	0.36707	0.6786	-0.177
Mof_N 	N 	0.78958	0.42081	0.64284	-0.183
Mof_N 	N 	0.74598	0.4795	0.5516	-0.167
Mof_H 	H 	0.7171	0.4961	0.5224	0.11
Mof_N 	N 	0.81483	0.4876	0.55117	-0.139
Mof_N 	N 	0.94682	0.415	0.66511	-0.143
Mof_N 	N 	0.9514	0.47368	0.56507	-0.151
Mof_N 	N 	0.01686	0.45902	0.58363	-0.157
Mof_C 	C 	0.608	0.3378	0.6968	0.109
Mof_H 	H 	0.6069	0.3044	0.7313	-0.014
Mof_C 	C 	0.5495	0.3575	0.6645	-0.189
Mof_H 	H 	0.5088	0.3376	0.6788	0.09
Mof_C 	C 	0.5471	0.4027	0.6146	0.112
Mof_H 	H 	0.5063	0.4137	0.5925	-0.015
Mof_C 	C 	0.6055	0.4324	0.5965	-0.163
Mof_H 	H 	0.6054	0.4665	0.5629	0.082
Mof_C 	C 	0.6668	0.4131	0.6272	0.073
Mof_C 	C 	0.7327	0.4401	0.6071	0.087
Mof_C 	C 	0.83853	0.45184	0.6056	0.078
Mof_C 	C 	0.91218	0.44685	0.61468	0.069
Mof_C 	C 	0.0112	0.4251	0.6432	0.098
Mof_H 	H 	0.0489	0.4096	0.668	0
Mof_Fe	Fe	0.27176	0.85376	0.22997	0.59
Mof_N 	N 	0.16754	0.86707	0.1786	-0.177
Mof_N 	N 	0.28958	0.92081	0.14284	-0.183
Mof_N 	N 	0.24598	0.9795	0.0516	-0.167
Mof_H 	H 	0.2171	0.9961	0.0224	0.11
Mof_N 	N 	0.31483	0.9876	0.05117	-0.139
Mof_N 	N 	0.44682	0.915	0.16511	-0.143
Mof_N 	N 	0.4514	0.97368	0.06507	-0.151
Mof_N 	N 	0.51686	0.95902	0.08363	-0.157
Mof_C 	C 	0.108	0.8378	0.1968	0.109
Mof_H 	H 	0.1069	0.8044	0.2313	-0.014
Mof_C 	C 	0.0495	0.8575	0.1645	-0.189
Mof_H 	H 	0.0088	0.8376	0.1788	0.09
Mof_C 	C 	0.0471	0.9027	0.1146	0.112
Mof_H 	H 	0.0063	0.9137	0.0925	-0.015
Mof_C 	C 	0.1055	0.9324	0.0965	-0.163
Mof_H 	H 	0.1054	0.9665	0.0629	0.082
Mof_C 	C 	0.1668	0.9131	0.1272	0.073
Mof_C 	C 	0.2327	0.9401	0.1071	0.086
Mof_C 	C 	0.33853	0.95184	0.1056	0.078
Mof_C 	C 	0.41218	0.94685	0.11468	0.069
Mof_C 	C 	0.5112	0.9251	0.1432	0.097
Mof_H 	H 	0.5489	0.9096	0.168	0
Mof_Fe	Fe	0.72824	0.64624	0.22997	0.59
Mof_N 	N 	0.83246	0.63293	0.1786	-0.177
Mof_N 	N 	0.71042	0.57919	0.14284	-0.183
Mof_N 	N 	0.75402	0.5205	0.0516	-0.167
Mof_H 	H 	0.7829	0.5039	0.0224	0.11
Mof_N 	N 	0.68517	0.5124	0.05117	-0.139
Mof_N 	N 	0.55318	0.585	0.16511	-0.143
Mof_N 	N 	0.5486	0.52632	0.06507	-0.151
Mof_N 	N 	0.48314	0.54098	0.08363	-0.157
Mof_C 	C 	0.892	0.6622	0.1968	0.109
Mof_H 	H 	0.8931	0.6956	0.2313	-0.014
Mof_C 	C 	0.9505	0.6425	0.1645	-0.189
Mof_H 	H 	0.9912	0.6624	0.1788	0.09
Mof_C 	C 	0.9529	0.5973	0.1146	0.112
Mof_H 	H 	0.9937	0.5863	0.0925	-0.015
Mof_C 	C 	0.8945	0.5676	0.0965	-0.163
Mof_H 	H 	0.8946	0.5335	0.0629	0.082
Mof_C 	C 	0.8332	0.5869	0.1272	0.073
Mof_C 	C 	0.7673	0.5599	0.1071	0.087
Mof_C 	C 	0.66147	0.54816	0.1056	0.078
Mof_C 	C 	0.58782	0.55315	0.11468	0.069
Mof_C 	C 	0.4888	0.5749	0.1432	0.097
Mof_H 	H 	0.4511	0.5904	0.168	0
Mof_Fe	Fe	0.22824	0.14624	0.72997	0.591
Mof_N 	N 	0.33246	0.13293	0.6786	-0.177
Mof_N 	N 	0.21042	0.07919	0.64284	-0.183
Mof_N 	N 	0.25402	0.0205	0.5516	-0.167
Mof_H 	H 	0.2829	0.0039	0.5224	0.11
Mof_N 	N 	0.18517	0.0124	0.55117	-0.139
Mof_N 	N 	0.05318	0.085	0.66511	-0.142
Mof_N 	N 	0.0486	0.02632	0.56507	-0.15
Mof_N 	N 	0.98314	0.04098	0.58363	-0.157
Mof_C 	C 	0.392	0.1622	0.6968	0.109
Mof_H 	H 	0.3931	0.1956	0.7313	-0.014
Mof_C 	C 	0.4505	0.1425	0.6645	-0.189
Mof_H 	H 	0.4912	0.1624	0.6788	0.09
Mof_C 	C 	0.4529	0.0973	0.6146	0.112
Mof_H 	H 	0.4937	0.0863	0.5925	-0.015
Mof_C 	C 	0.3945	0.0676	0.5965	-0.163
Mof_H 	H 	0.3946	0.0335	0.5629	0.082
Mof_C 	C 	0.3332	0.0869	0.6272	0.073
Mof_C 	C 	0.2673	0.0599	0.6071	0.087
Mof_C 	C 	0.16147	0.04816	0.6056	0.078
Mof_C 	C 	0.08782	0.05315	0.61468	0.069
Mof_C 	C 	0.9888	0.0749	0.6432	0.096
Mof_H 	H 	0.9511	0.0904	0.668	0
_end
