data_functionalizedCrystal
_audit_creation_method	'EQeq! by Chris Wilmer'
_symmetry_space_group_name_H-M	'P1'
_symmetry_Int_Tables_number	1
_symmetry_cell_setting	triclinic
loop_
_symmetry_equiv_pos_as_xyz
  x,y,z
_cell_length_a	12.606
_cell_length_b	12.906
_cell_length_c	27.737
_cell_angle_alpha	92.97
_cell_angle_beta	90
_cell_angle_gamma	90
loop_
_atom_site_label
_atom_site_type_symbol
_atom_site_fract_x
_atom_site_fract_y
_atom_site_fract_z
_atom_site_charge
Mof_Zn	Zn	0.95515	0.89762	0.86567	1.232
Mof_Zn	Zn	0.79922	0.04182	0.79019	1.177
Mof_Zn	Zn	0.42279	0.42814	0.97392	1.196
Mof_Zn	Zn	0.45515	0.60238	0.63433	1.232
Mof_Zn	Zn	0.29922	0.45818	0.70981	1.177
Mof_Zn	Zn	0.92279	0.07186	0.52608	1.196
Mof_Zn	Zn	0.04485	0.10238	0.13433	1.231
Mof_Zn	Zn	0.20078	0.95818	0.20981	1.176
Mof_Zn	Zn	0.57721	0.57186	0.02608	1.195
Mof_Zn	Zn	0.54485	0.39762	0.36567	1.231
Mof_Zn	Zn	0.70078	0.54182	0.29019	1.176
Mof_Zn	Zn	0.07721	0.92814	0.47392	1.195
Mof_H 	H 	0.6916	0.7035	0.8985	0.017
Mof_H 	H 	0.472	0.5258	0.827	0.002
Mof_H 	H 	0.6324	0.7441	0.7573	0.008
Mof_H 	H 	0.0485	0.9127	0.0336	0.033
Mof_H 	H 	0.3081	0.7667	0.0832	0.018
Mof_H 	H 	0.2016	0.7034	0.9464	0.025
Mof_H 	H 	0.1916	0.7965	0.6015	0.017
Mof_H 	H 	0.972	0.9742	0.673	0.002
Mof_H 	H 	0.1324	0.7559	0.7427	0.009
Mof_H 	H 	0.5485	0.5873	0.4664	0.033
Mof_H 	H 	0.8081	0.7333	0.4168	0.018
Mof_H 	H 	0.7016	0.7966	0.5536	0.025
Mof_H 	H 	0.3084	0.2965	0.1015	0.017
Mof_H 	H 	0.528	0.4742	0.173	0.002
Mof_H 	H 	0.3676	0.2559	0.2427	0.008
Mof_H 	H 	0.9515	0.0873	0.9664	0.033
Mof_H 	H 	0.6919	0.2333	0.9168	0.018
Mof_H 	H 	0.7984	0.2966	0.0536	0.025
Mof_H 	H 	0.8084	0.2035	0.3985	0.017
Mof_H 	H 	0.028	0.0258	0.327	0.002
Mof_H 	H 	0.8676	0.2441	0.2573	0.009
Mof_H 	H 	0.4515	0.4127	0.5336	0.033
Mof_H 	H 	0.1919	0.2667	0.5832	0.018
Mof_H 	H 	0.2984	0.2034	0.4464	0.025
Mof_C 	C 	0.6739	0.737	0.82764	-0.188
Mof_C 	C 	0.6534	0.6853	0.86982	0.113
Mof_C 	C 	0.5773	0.6077	0.86986	-0.181
Mof_C 	C 	0.5244	0.5787	0.82712	0.118
Mof_C 	C 	0.5478	0.6264	0.78483	-0.198
Mof_C 	C 	0.6201	0.708	0.78575	0.121
Mof_C 	C 	0.7503	0.8246	0.82903	0.432
Mof_C 	C 	0.5489	0.5593	0.91593	0.421
Mof_C 	C 	0.4906	0.5906	0.73947	0.46
Mof_C 	C 	0.118	0.8152	0.98356	-0.129
Mof_C 	C 	0.1054	0.8652	0.02833	0.071
Mof_C 	C 	0.1751	0.8469	0.06582	-0.151
Mof_C 	C 	0.2582	0.7768	0.05821	0.082
Mof_C 	C 	0.2683	0.7211	0.01362	-0.148
Mof_C 	C 	0.1963	0.7412	0.97658	0.078
Mof_C 	C 	0.0449	0.8431	0.9437	0.339
Mof_C 	C 	0.1609	0.9043	0.11437	0.395
Mof_C 	C 	0.3545	0.6398	0.00695	0.424
Mof_C 	C 	0.1739	0.763	0.67236	-0.188
Mof_C 	C 	0.1534	0.8147	0.63018	0.113
Mof_C 	C 	0.0773	0.8923	0.63014	-0.182
Mof_C 	C 	0.0244	0.9213	0.67288	0.119
Mof_C 	C 	0.0478	0.8736	0.71517	-0.197
Mof_C 	C 	0.1201	0.792	0.71425	0.121
Mof_C 	C 	0.2503	0.6754	0.67097	0.432
Mof_C 	C 	0.0489	0.9407	0.58407	0.423
Mof_C 	C 	0.9906	0.9094	0.76053	0.458
Mof_C 	C 	0.618	0.6848	0.51644	-0.131
Mof_C 	C 	0.6054	0.6348	0.47167	0.073
Mof_C 	C 	0.6751	0.6531	0.43418	-0.151
Mof_C 	C 	0.7582	0.7232	0.44179	0.082
Mof_C 	C 	0.7683	0.7789	0.48638	-0.147
Mof_C 	C 	0.6963	0.7588	0.52342	0.077
Mof_C 	C 	0.5449	0.6569	0.5563	0.338
Mof_C 	C 	0.6609	0.5957	0.38563	0.395
Mof_C 	C 	0.8545	0.8602	0.49305	0.424
Mof_C 	C 	0.3261	0.263	0.17236	-0.188
Mof_C 	C 	0.3466	0.3147	0.13018	0.113
Mof_C 	C 	0.4227	0.3923	0.13014	-0.181
Mof_C 	C 	0.4756	0.4213	0.17288	0.118
Mof_C 	C 	0.4522	0.3736	0.21517	-0.198
Mof_C 	C 	0.3799	0.292	0.21425	0.121
Mof_C 	C 	0.2497	0.1754	0.17097	0.432
Mof_C 	C 	0.4511	0.4407	0.08407	0.421
Mof_C 	C 	0.5094	0.4094	0.26053	0.46
Mof_C 	C 	0.882	0.1848	0.01644	-0.129
Mof_C 	C 	0.8946	0.1348	0.97167	0.071
Mof_C 	C 	0.8249	0.1531	0.93418	-0.151
Mof_C 	C 	0.7418	0.2232	0.94179	0.082
Mof_C 	C 	0.7317	0.2789	0.98638	-0.148
Mof_C 	C 	0.8037	0.2588	0.02342	0.078
Mof_C 	C 	0.9551	0.1569	0.0563	0.339
Mof_C 	C 	0.8391	0.0957	0.88563	0.395
Mof_C 	C 	0.6455	0.3602	0.99305	0.424
Mof_C 	C 	0.8261	0.237	0.32764	-0.188
Mof_C 	C 	0.8466	0.1853	0.36982	0.113
Mof_C 	C 	0.9227	0.1077	0.36986	-0.182
Mof_C 	C 	0.9756	0.0787	0.32712	0.119
Mof_C 	C 	0.9522	0.1264	0.28483	-0.197
Mof_C 	C 	0.8799	0.208	0.28575	0.121
Mof_C 	C 	0.7497	0.3246	0.32903	0.432
Mof_C 	C 	0.9511	0.0593	0.41593	0.423
Mof_C 	C 	0.0094	0.0906	0.23947	0.458
Mof_C 	C 	0.382	0.3152	0.48356	-0.131
Mof_C 	C 	0.3946	0.3652	0.52833	0.073
Mof_C 	C 	0.3249	0.3469	0.56582	-0.151
Mof_C 	C 	0.2418	0.2768	0.55821	0.082
Mof_C 	C 	0.2317	0.2211	0.51362	-0.147
Mof_C 	C 	0.3037	0.2412	0.47658	0.077
Mof_C 	C 	0.4551	0.3431	0.4437	0.338
Mof_C 	C 	0.3391	0.4043	0.61437	0.395
Mof_C 	C 	0.1455	0.1398	0.50695	0.424
Mof_O 	O 	0.7403	0.893	0.79946	-0.491
Mof_O 	O 	0.8215	0.8223	0.86155	-0.487
Mof_O 	O 	0.479	0.4888	0.91357	-0.484
Mof_O 	O 	0.5941	0.593	0.95382	-0.494
Mof_O 	O 	0.5172	0.6284	0.70056	-0.49
Mof_O 	O 	0.4191	0.5268	0.74485	-0.548
Mof_O 	O 	0.9559	0.8835	0.95393	-0.336
Mof_O 	O 	0.0742	0.8322	0.90135	-0.432
Mof_O 	O 	0.2337	0.8984	0.14459	-0.517
Mof_O 	O 	0.0749	0.9537	0.12241	-0.524
Mof_O 	O 	0.3286	0.5593	0.98274	-0.476
Mof_O 	O 	0.4408	0.6602	0.02601	-0.488
Mof_O 	O 	0.2403	0.607	0.70054	-0.492
Mof_O 	O 	0.3215	0.6777	0.63845	-0.487
Mof_O 	O 	0.979	0.0112	0.58643	-0.485
Mof_O 	O 	0.0941	0.907	0.54618	-0.494
Mof_O 	O 	0.0172	0.8716	0.79944	-0.489
Mof_O 	O 	0.9191	0.9732	0.75515	-0.547
Mof_O 	O 	0.4559	0.6165	0.54607	-0.336
Mof_O 	O 	0.5742	0.6678	0.59865	-0.432
Mof_O 	O 	0.7337	0.6016	0.35541	-0.516
Mof_O 	O 	0.5749	0.5463	0.37759	-0.523
Mof_O 	O 	0.8286	0.9407	0.51726	-0.476
Mof_O 	O 	0.9408	0.8398	0.47399	-0.488
Mof_O 	O 	0.2597	0.107	0.20054	-0.491
Mof_O 	O 	0.1785	0.1777	0.13845	-0.487
Mof_O 	O 	0.521	0.5112	0.08643	-0.484
Mof_O 	O 	0.4059	0.407	0.04618	-0.494
Mof_O 	O 	0.4828	0.3716	0.29944	-0.49
Mof_O 	O 	0.5809	0.4732	0.25515	-0.548
Mof_O 	O 	0.0441	0.1165	0.04607	-0.336
Mof_O 	O 	0.9258	0.1678	0.09865	-0.432
Mof_O 	O 	0.7663	0.1016	0.85541	-0.517
Mof_O 	O 	0.9251	0.0463	0.87759	-0.524
Mof_O 	O 	0.6714	0.4407	0.01726	-0.476
Mof_O 	O 	0.5592	0.3398	0.97399	-0.488
Mof_O 	O 	0.7597	0.393	0.29946	-0.492
Mof_O 	O 	0.6785	0.3223	0.36155	-0.487
Mof_O 	O 	0.021	0.9888	0.41357	-0.485
Mof_O 	O 	0.9059	0.093	0.45382	-0.494
Mof_O 	O 	0.9828	0.1284	0.20056	-0.489
Mof_O 	O 	0.0809	0.0268	0.24485	-0.547
Mof_O 	O 	0.5441	0.3835	0.45393	-0.336
Mof_O 	O 	0.4258	0.3322	0.40135	-0.432
Mof_O 	O 	0.2663	0.3984	0.64459	-0.516
Mof_O 	O 	0.4251	0.4537	0.62241	-0.523
Mof_O 	O 	0.1714	0.0593	0.48274	-0.476
Mof_O 	O 	0.0592	0.1602	0.52601	-0.488
_end
