data_functionalizedCrystal
_audit_creation_method	'EQeq! by Chris Wilmer'
_symmetry_space_group_name_H-M	'P1'
_symmetry_Int_Tables_number	1
_symmetry_cell_setting	triclinic
loop_
_symmetry_equiv_pos_as_xyz
  x,y,z
_cell_length_a	24.5063
_cell_length_b	24.5063
_cell_length_c	24.5063
_cell_angle_alpha	90
_cell_angle_beta	90
_cell_angle_gamma	90
loop_
_atom_site_label
_atom_site_type_symbol
_atom_site_fract_x
_atom_site_fract_y
_atom_site_fract_z
_atom_site_charge
Mof_Co	Co	0.89611	0.02906	0.06681	1.218
Mof_C 	C 	0.8134	0.1115	0.1058	0.067
Mof_H 	H 	0.7906	0.091	0.0821	0.004
Mof_C 	C 	0.7905	0.1551	0.1326	-0.112
Mof_H 	H 	0.7527	0.1631	0.1291	0.063
Mof_C 	C 	0.8249	0.1877	0.1655	0.035
Mof_C 	C 	0.8784	0.1719	0.1709	-0.104
Mof_H 	H 	0.9025	0.1923	0.1933	0.067
Mof_C 	C 	0.8971	0.1261	0.1438	0.066
Mof_H 	H 	0.9341	0.1156	0.1486	0.033
Mof_C 	C 	0.7935	0.9613	0.042	0.076
Mof_H 	H 	0.8071	0.9623	0.0058	0.031
Mof_C 	C 	0.7454	0.9347	0.0515	-0.113
Mof_H 	H 	0.7262	0.9184	0.0221	0.07
Mof_C 	C 	0.7248	0.9316	0.1032	0.042
Mof_C 	C 	0.7538	0.9569	0.1443	-0.11
Mof_H 	H 	0.7406	0.9566	0.1808	0.07
Mof_C 	C 	0.8021	0.9825	0.1318	0.071
Mof_H 	H 	0.8221	0.9986	0.1609	0.02
Mof_C 	C 	0.8023	0.2363	0.1926	0.088
Mof_C 	C 	0.6749	0.9008	0.1157	0.087
Mof_N 	N 	0.8228	0.9862	0.0817	-0.206
Mof_N 	N 	0.8652	0.0958	0.1108	-0.217
Mof_F 	F 	0.8654	0.0637	0.9978	-0.61
Mof_F 	F 	0.9328	0.9617	0.0316	-0.668
Mof_C 	C 	0.7562	0.2614	0.172	-0.14
Mof_C 	C 	0.6443	0.915	0.1605	-0.138
Mof_H 	H 	0.7384	0.2471	0.1407	0.073
Mof_H 	H 	0.6542	0.9459	0.1817	0.077
Mof_N 	N 	0.828	0.2562	0.2386	-0.186
Mof_N 	N 	0.6605	0.8557	0.085	-0.186
Mof_Co	Co	0.60389	0.97094	0.56681	1.241
Mof_C 	C 	0.6866	0.8885	0.6058	0.072
Mof_H 	H 	0.7094	0.909	0.5821	0.021
Mof_C 	C 	0.7095	0.8449	0.6326	-0.108
Mof_H 	H 	0.7473	0.8369	0.6291	0.072
Mof_C 	C 	0.6751	0.8123	0.6655	0.036
Mof_C 	C 	0.6216	0.8281	0.6709	-0.101
Mof_H 	H 	0.5975	0.8077	0.6933	0.067
Mof_C 	C 	0.6029	0.8739	0.6438	0.069
Mof_H 	H 	0.5659	0.8844	0.6486	0.035
Mof_C 	C 	0.7065	0.0387	0.542	0.072
Mof_H 	H 	0.6929	0.0377	0.5058	0.022
Mof_C 	C 	0.7546	0.0653	0.5515	-0.118
Mof_H 	H 	0.7738	0.0816	0.5221	0.069
Mof_C 	C 	0.7752	0.0684	0.6032	0.041
Mof_C 	C 	0.7462	0.0431	0.6443	-0.115
Mof_H 	H 	0.7594	0.0434	0.6808	0.066
Mof_C 	C 	0.6979	0.0175	0.6318	0.066
Mof_H 	H 	0.6779	0.0014	0.6609	0.003
Mof_C 	C 	0.6977	0.7637	0.6926	0.093
Mof_C 	C 	0.8251	0.0992	0.6157	0.085
Mof_N 	N 	0.6772	0.0138	0.5817	-0.222
Mof_N 	N 	0.6348	0.9042	0.6108	-0.209
Mof_F 	F 	0.6346	0.9363	0.4978	-0.617
Mof_F 	F 	0.5672	0.0383	0.5316	-0.695
Mof_C 	C 	0.7438	0.7386	0.672	-0.14
Mof_C 	C 	0.8557	0.085	0.6605	-0.138
Mof_H 	H 	0.7616	0.7529	0.6407	0.078
Mof_H 	H 	0.8458	0.0541	0.6817	0.073
Mof_N 	N 	0.672	0.7438	0.7386	-0.186
Mof_N 	N 	0.8395	0.1443	0.585	-0.186
Mof_Co	Co	0.10389	0.52906	0.43319	1.23
Mof_C 	C 	0.1866	0.6115	0.3942	0.069
Mof_H 	H 	0.2094	0.591	0.4179	0.013
Mof_C 	C 	0.2095	0.6551	0.3674	-0.112
Mof_H 	H 	0.2473	0.6631	0.3709	0.067
Mof_C 	C 	0.1751	0.6877	0.3345	0.034
Mof_C 	C 	0.1216	0.6719	0.3291	-0.105
Mof_H 	H 	0.0975	0.6923	0.3067	0.062
Mof_C 	C 	0.1029	0.6261	0.3562	0.066
Mof_H 	H 	0.0659	0.6156	0.3514	0.026
Mof_C 	C 	0.2065	0.4613	0.458	0.074
Mof_H 	H 	0.1929	0.4623	0.4942	0.028
Mof_C 	C 	0.2546	0.4347	0.4485	-0.116
Mof_H 	H 	0.2738	0.4184	0.4779	0.07
Mof_C 	C 	0.2752	0.4316	0.3968	0.041
Mof_C 	C 	0.2462	0.4569	0.3557	-0.113
Mof_H 	H 	0.2594	0.4566	0.3192	0.066
Mof_C 	C 	0.1979	0.4825	0.3682	0.069
Mof_H 	H 	0.1779	0.4986	0.3391	0.009
Mof_C 	C 	0.1977	0.7363	0.3074	0.088
Mof_C 	C 	0.3251	0.4008	0.3843	0.086
Mof_N 	N 	0.1772	0.4862	0.4183	-0.213
Mof_N 	N 	0.1348	0.5958	0.3892	-0.213
Mof_F 	F 	0.1346	0.5637	0.5022	-0.625
Mof_F 	F 	0.0672	0.4617	0.4684	-0.689
Mof_C 	C 	0.2438	0.7614	0.328	-0.14
Mof_C 	C 	0.3557	0.415	0.3395	-0.137
Mof_H 	H 	0.2616	0.7471	0.3593	0.075
Mof_H 	H 	0.3458	0.4459	0.3183	0.074
Mof_N 	N 	0.172	0.7562	0.2614	-0.186
Mof_N 	N 	0.3395	0.3557	0.415	-0.185
Mof_Co	Co	0.39611	0.47094	0.93319	1.236
Mof_C 	C 	0.3134	0.3885	0.8942	0.069
Mof_H 	H 	0.2906	0.409	0.9179	0.017
Mof_C 	C 	0.2905	0.3449	0.8674	-0.11
Mof_H 	H 	0.2527	0.3369	0.8709	0.067
Mof_C 	C 	0.3249	0.3123	0.8345	0.034
Mof_C 	C 	0.3784	0.3281	0.8291	-0.103
Mof_H 	H 	0.4025	0.3077	0.8067	0.065
Mof_C 	C 	0.3971	0.3739	0.8562	0.066
Mof_H 	H 	0.4341	0.3844	0.8514	0.033
Mof_C 	C 	0.2935	0.5387	0.958	0.075
Mof_H 	H 	0.3071	0.5377	0.9942	0.037
Mof_C 	C 	0.2454	0.5653	0.9485	-0.114
Mof_H 	H 	0.2262	0.5816	0.9779	0.075
Mof_C 	C 	0.2248	0.5684	0.8968	0.041
Mof_C 	C 	0.2538	0.5431	0.8557	-0.112
Mof_H 	H 	0.2406	0.5434	0.8192	0.066
Mof_C 	C 	0.3021	0.5175	0.8682	0.069
Mof_H 	H 	0.3221	0.5014	0.8391	0.011
Mof_C 	C 	0.3023	0.2637	0.8074	0.089
Mof_C 	C 	0.1749	0.5992	0.8843	0.087
Mof_N 	N 	0.3228	0.5138	0.9183	-0.211
Mof_N 	N 	0.3652	0.4042	0.8892	-0.21
Mof_F 	F 	0.3654	0.4363	0.0022	-0.645
Mof_F 	F 	0.4328	0.5383	0.9684	-0.673
Mof_C 	C 	0.2562	0.2386	0.828	-0.141
Mof_C 	C 	0.1443	0.585	0.8395	-0.137
Mof_H 	H 	0.2384	0.2529	0.8593	0.075
Mof_H 	H 	0.1542	0.5541	0.8183	0.074
Mof_N 	N 	0.328	0.2438	0.7614	-0.186
Mof_N 	N 	0.1605	0.6443	0.915	-0.186
Mof_Co	Co	0.06681	0.89611	0.02906	1.217
Mof_C 	C 	0.1058	0.8134	0.1115	0.063
Mof_H 	H 	0.0821	0.7906	0.091	0.004
Mof_C 	C 	0.1326	0.7905	0.1551	-0.108
Mof_H 	H 	0.1291	0.7527	0.1631	0.06
Mof_C 	C 	0.1655	0.8249	0.1877	0.027
Mof_C 	C 	0.1709	0.8784	0.1719	-0.101
Mof_H 	H 	0.1933	0.9025	0.1923	0.064
Mof_C 	C 	0.1438	0.8971	0.1261	0.063
Mof_H 	H 	0.1486	0.9341	0.1156	0.032
Mof_C 	C 	0.042	0.7935	0.9613	0.072
Mof_H 	H 	0.0058	0.8071	0.9623	0.031
Mof_C 	C 	0.0515	0.7454	0.9347	-0.109
Mof_H 	H 	0.0221	0.7262	0.9184	0.067
Mof_C 	C 	0.1032	0.7248	0.9316	0.034
Mof_C 	C 	0.1443	0.7538	0.9569	-0.104
Mof_H 	H 	0.1808	0.7406	0.9566	0.067
Mof_C 	C 	0.1318	0.8021	0.9825	0.068
Mof_H 	H 	0.1609	0.8221	0.9986	0.022
Mof_C 	C 	0.1926	0.8023	0.2363	0.105
Mof_C 	C 	0.1157	0.6749	0.9008	0.105
Mof_N 	N 	0.0817	0.8228	0.9862	-0.205
Mof_N 	N 	0.1108	0.8652	0.0958	-0.216
Mof_F 	F 	0.9978	0.8654	0.0637	-0.61
Mof_F 	F 	0.0316	0.9328	0.9617	-0.668
Mof_H 	H 	0.1407	0.7384	0.2471	0.094
Mof_H 	H 	0.1817	0.6542	0.9459	0.099
Mof_N 	N 	0.2386	0.828	0.2562	-0.186
Mof_N 	N 	0.085	0.6605	0.8557	-0.185
Mof_Co	Co	0.56681	0.60389	0.97094	1.241
Mof_C 	C 	0.6058	0.6866	0.8885	0.069
Mof_H 	H 	0.5821	0.7094	0.909	0.022
Mof_C 	C 	0.6326	0.7095	0.8449	-0.103
Mof_H 	H 	0.6291	0.7473	0.8369	0.07
Mof_C 	C 	0.6655	0.6751	0.8123	0.029
Mof_C 	C 	0.6709	0.6216	0.8281	-0.097
Mof_H 	H 	0.6933	0.5975	0.8077	0.065
Mof_C 	C 	0.6438	0.6029	0.8739	0.066
Mof_H 	H 	0.6486	0.5659	0.8844	0.036
Mof_C 	C 	0.542	0.7065	0.0387	0.069
Mof_H 	H 	0.5058	0.6929	0.0377	0.023
Mof_C 	C 	0.5515	0.7546	0.0653	-0.113
Mof_H 	H 	0.5221	0.7738	0.0816	0.067
Mof_C 	C 	0.6032	0.7752	0.0684	0.033
Mof_C 	C 	0.6443	0.7462	0.0431	-0.109
Mof_H 	H 	0.6808	0.7594	0.0434	0.063
Mof_C 	C 	0.6318	0.6979	0.0175	0.063
Mof_H 	H 	0.6609	0.6779	0.0014	0.004
Mof_C 	C 	0.6926	0.6977	0.7637	0.109
Mof_C 	C 	0.6157	0.8251	0.0992	0.103
Mof_N 	N 	0.5817	0.6772	0.0138	-0.221
Mof_N 	N 	0.6108	0.6348	0.9042	-0.208
Mof_F 	F 	0.4978	0.6346	0.9363	-0.617
Mof_F 	F 	0.5316	0.5672	0.0383	-0.695
Mof_H 	H 	0.6407	0.7616	0.7529	0.099
Mof_H 	H 	0.6817	0.8458	0.0541	0.095
Mof_N 	N 	0.7386	0.672	0.7438	-0.187
Mof_N 	N 	0.585	0.8395	0.1443	-0.186
Mof_Co	Co	0.43319	0.10389	0.52906	1.23
Mof_C 	C 	0.3942	0.1866	0.6115	0.065
Mof_H 	H 	0.4179	0.2094	0.591	0.014
Mof_C 	C 	0.3674	0.2095	0.6551	-0.106
Mof_H 	H 	0.3709	0.2473	0.6631	0.065
Mof_C 	C 	0.3345	0.1751	0.6877	0.028
Mof_C 	C 	0.3291	0.1216	0.6719	-0.101
Mof_H 	H 	0.3067	0.0975	0.6923	0.061
Mof_C 	C 	0.3562	0.1029	0.6261	0.064
Mof_H 	H 	0.3514	0.0659	0.6156	0.027
Mof_C 	C 	0.458	0.2065	0.4613	0.072
Mof_H 	H 	0.4942	0.1929	0.4623	0.029
Mof_C 	C 	0.4485	0.2546	0.4347	-0.111
Mof_H 	H 	0.4779	0.2738	0.4184	0.068
Mof_C 	C 	0.3968	0.2752	0.4316	0.034
Mof_C 	C 	0.3557	0.2462	0.4569	-0.107
Mof_H 	H 	0.3192	0.2594	0.4566	0.064
Mof_C 	C 	0.3682	0.1979	0.4825	0.066
Mof_H 	H 	0.3391	0.1779	0.4986	0.01
Mof_C 	C 	0.3074	0.1977	0.7363	0.105
Mof_C 	C 	0.3843	0.3251	0.4008	0.104
Mof_N 	N 	0.4183	0.1772	0.4862	-0.212
Mof_N 	N 	0.3892	0.1348	0.5958	-0.212
Mof_F 	F 	0.5022	0.1346	0.5637	-0.625
Mof_F 	F 	0.4684	0.0672	0.4617	-0.689
Mof_H 	H 	0.3593	0.2616	0.7471	0.097
Mof_H 	H 	0.3183	0.3458	0.4459	0.096
Mof_N 	N 	0.2614	0.172	0.7562	-0.186
Mof_N 	N 	0.415	0.3395	0.3557	-0.185
Mof_Co	Co	0.93319	0.39611	0.47094	1.236
Mof_C 	C 	0.8942	0.3134	0.3885	0.066
Mof_H 	H 	0.9179	0.2906	0.409	0.018
Mof_C 	C 	0.8674	0.2905	0.3449	-0.105
Mof_H 	H 	0.8709	0.2527	0.3369	0.065
Mof_C 	C 	0.8345	0.3249	0.3123	0.027
Mof_C 	C 	0.8291	0.3784	0.3281	-0.099
Mof_H 	H 	0.8067	0.4025	0.3077	0.064
Mof_C 	C 	0.8562	0.3971	0.3739	0.064
Mof_H 	H 	0.8514	0.4341	0.3844	0.033
Mof_C 	C 	0.958	0.2935	0.5387	0.072
Mof_H 	H 	0.9942	0.3071	0.5377	0.038
Mof_C 	C 	0.9485	0.2454	0.5653	-0.109
Mof_H 	H 	0.9779	0.2262	0.5816	0.073
Mof_C 	C 	0.8968	0.2248	0.5684	0.034
Mof_C 	C 	0.8557	0.2538	0.5431	-0.106
Mof_H 	H 	0.8192	0.2406	0.5434	0.064
Mof_C 	C 	0.8682	0.3021	0.5175	0.065
Mof_H 	H 	0.8391	0.3221	0.5014	0.012
Mof_C 	C 	0.8074	0.3023	0.2637	0.106
Mof_C 	C 	0.8843	0.1749	0.5992	0.105
Mof_N 	N 	0.9183	0.3228	0.5138	-0.21
Mof_N 	N 	0.8892	0.3652	0.4042	-0.209
Mof_F 	F 	0.0022	0.3654	0.4363	-0.645
Mof_F 	F 	0.9684	0.4328	0.5383	-0.673
Mof_H 	H 	0.8593	0.2384	0.2529	0.096
Mof_H 	H 	0.8183	0.1542	0.5541	0.096
Mof_N 	N 	0.7614	0.328	0.2438	-0.186
Mof_N 	N 	0.915	0.1605	0.6443	-0.186
Mof_Co	Co	0.02906	0.06681	0.89611	1.217
Mof_C 	C 	0.1115	0.1058	0.8134	0.065
Mof_H 	H 	0.091	0.0821	0.7906	0.003
Mof_C 	C 	0.1551	0.1326	0.7905	-0.112
Mof_H 	H 	0.1631	0.1291	0.7527	0.062
Mof_C 	C 	0.1877	0.1655	0.8249	0.034
Mof_C 	C 	0.1719	0.1709	0.8784	-0.106
Mof_H 	H 	0.1923	0.1933	0.9025	0.067
Mof_C 	C 	0.1261	0.1438	0.8971	0.066
Mof_H 	H 	0.1156	0.1486	0.9341	0.031
Mof_C 	C 	0.9613	0.042	0.7935	0.076
Mof_H 	H 	0.9623	0.0058	0.8071	0.03
Mof_C 	C 	0.9347	0.0515	0.7454	-0.115
Mof_H 	H 	0.9184	0.0221	0.7262	0.07
Mof_C 	C 	0.9316	0.1032	0.7248	0.041
Mof_C 	C 	0.9569	0.1443	0.7538	-0.108
Mof_H 	H 	0.9566	0.1808	0.7406	0.069
Mof_C 	C 	0.9825	0.1318	0.8021	0.07
Mof_H 	H 	0.9986	0.1609	0.8221	0.021
Mof_C 	C 	0.2363	0.1926	0.8023	0.088
Mof_C 	C 	0.9008	0.1157	0.6749	0.088
Mof_N 	N 	0.9862	0.0817	0.8228	-0.206
Mof_N 	N 	0.0958	0.1108	0.8652	-0.217
Mof_F 	F 	0.0637	0.9978	0.8654	-0.61
Mof_F 	F 	0.9617	0.0316	0.9328	-0.668
Mof_H 	H 	0.2471	0.1407	0.7384	0.094
Mof_H 	H 	0.9459	0.1817	0.6542	0.099
Mof_Co	Co	0.97094	0.56681	0.60389	1.241
Mof_C 	C 	0.8885	0.6058	0.6866	0.071
Mof_H 	H 	0.909	0.5821	0.7094	0.021
Mof_C 	C 	0.8449	0.6326	0.7095	-0.107
Mof_H 	H 	0.8369	0.6291	0.7473	0.071
Mof_C 	C 	0.8123	0.6655	0.6751	0.036
Mof_C 	C 	0.8281	0.6709	0.6216	-0.103
Mof_H 	H 	0.8077	0.6933	0.5975	0.068
Mof_C 	C 	0.8739	0.6438	0.6029	0.07
Mof_H 	H 	0.8844	0.6486	0.5659	0.035
Mof_C 	C 	0.0387	0.542	0.7065	0.073
Mof_H 	H 	0.0377	0.5058	0.6929	0.022
Mof_C 	C 	0.0653	0.5515	0.7546	-0.119
Mof_H 	H 	0.0816	0.5221	0.7738	0.069
Mof_C 	C 	0.0684	0.6032	0.7752	0.04
Mof_C 	C 	0.0431	0.6443	0.7462	-0.113
Mof_H 	H 	0.0434	0.6808	0.7594	0.065
Mof_C 	C 	0.0175	0.6318	0.6979	0.065
Mof_H 	H 	0.0014	0.6609	0.6779	0.003
Mof_C 	C 	0.7637	0.6926	0.6977	0.093
Mof_C 	C 	0.0992	0.6157	0.8251	0.086
Mof_N 	N 	0.0138	0.5817	0.6772	-0.222
Mof_N 	N 	0.9042	0.6108	0.6348	-0.209
Mof_F 	F 	0.9363	0.4978	0.6346	-0.617
Mof_F 	F 	0.0383	0.5316	0.5672	-0.695
Mof_H 	H 	0.7529	0.6407	0.7616	0.099
Mof_H 	H 	0.0541	0.6817	0.8458	0.095
Mof_Co	Co	0.52906	0.43319	0.10389	1.23
Mof_C 	C 	0.6115	0.3942	0.1866	0.068
Mof_H 	H 	0.591	0.4179	0.2094	0.014
Mof_C 	C 	0.6551	0.3674	0.2095	-0.11
Mof_H 	H 	0.6631	0.3709	0.2473	0.066
Mof_C 	C 	0.6877	0.3345	0.1751	0.034
Mof_C 	C 	0.6719	0.3291	0.1216	-0.107
Mof_H 	H 	0.6923	0.3067	0.0975	0.063
Mof_C 	C 	0.6261	0.3562	0.1029	0.067
Mof_H 	H 	0.6156	0.3514	0.0659	0.026
Mof_C 	C 	0.4613	0.458	0.2065	0.075
Mof_H 	H 	0.4623	0.4942	0.1929	0.028
Mof_C 	C 	0.4347	0.4485	0.2546	-0.117
Mof_H 	H 	0.4184	0.4779	0.2738	0.071
Mof_C 	C 	0.4316	0.3968	0.2752	0.041
Mof_C 	C 	0.4569	0.3557	0.2462	-0.111
Mof_H 	H 	0.4566	0.3192	0.2594	0.066
Mof_C 	C 	0.4825	0.3682	0.1979	0.068
Mof_H 	H 	0.4986	0.3391	0.1779	0.009
Mof_C 	C 	0.7363	0.3074	0.1977	0.088
Mof_C 	C 	0.4008	0.3843	0.3251	0.087
Mof_N 	N 	0.4862	0.4183	0.1772	-0.213
Mof_N 	N 	0.5958	0.3892	0.1348	-0.213
Mof_F 	F 	0.5637	0.5022	0.1346	-0.625
Mof_F 	F 	0.4617	0.4684	0.0672	-0.689
Mof_H 	H 	0.7471	0.3593	0.2616	0.096
Mof_H 	H 	0.4459	0.3183	0.3458	0.096
Mof_Co	Co	0.47094	0.93319	0.39611	1.236
Mof_C 	C 	0.3885	0.8942	0.3134	0.068
Mof_H 	H 	0.409	0.9179	0.2906	0.017
Mof_C 	C 	0.3449	0.8674	0.2905	-0.109
Mof_H 	H 	0.3369	0.8709	0.2527	0.066
Mof_C 	C 	0.3123	0.8345	0.3249	0.034
Mof_C 	C 	0.3281	0.8291	0.3784	-0.105
Mof_H 	H 	0.3077	0.8067	0.4025	0.066
Mof_C 	C 	0.3739	0.8562	0.3971	0.067
Mof_H 	H 	0.3844	0.8514	0.4341	0.032
Mof_C 	C 	0.5387	0.958	0.2935	0.076
Mof_H 	H 	0.5377	0.9942	0.3071	0.037
Mof_C 	C 	0.5653	0.9485	0.2454	-0.115
Mof_H 	H 	0.5816	0.9779	0.2262	0.075
Mof_C 	C 	0.5684	0.8968	0.2248	0.041
Mof_C 	C 	0.5431	0.8557	0.2538	-0.11
Mof_H 	H 	0.5434	0.8192	0.2406	0.066
Mof_C 	C 	0.5175	0.8682	0.3021	0.067
Mof_H 	H 	0.5014	0.8391	0.3221	0.011
Mof_C 	C 	0.2637	0.8074	0.3023	0.089
Mof_C 	C 	0.5992	0.8843	0.1749	0.088
Mof_N 	N 	0.5138	0.9183	0.3228	-0.211
Mof_N 	N 	0.4042	0.8892	0.3652	-0.21
Mof_F 	F 	0.4363	0.0022	0.3654	-0.645
Mof_F 	F 	0.5383	0.9684	0.4328	-0.673
Mof_H 	H 	0.2529	0.8593	0.2384	0.096
Mof_H 	H 	0.5541	0.8183	0.1542	0.096
Mof_Co	Co	0.10389	0.97094	0.93319	1.246
Mof_C 	C 	0.1866	0.8885	0.8942	0.072
Mof_H 	H 	0.2094	0.909	0.9179	0.024
Mof_C 	C 	0.2095	0.8449	0.8674	-0.108
Mof_H 	H 	0.2473	0.8369	0.8709	0.071
Mof_C 	C 	0.1751	0.8123	0.8345	0.035
Mof_C 	C 	0.1216	0.8281	0.8291	-0.103
Mof_H 	H 	0.0975	0.8077	0.8067	0.065
Mof_C 	C 	0.1029	0.8739	0.8562	0.068
Mof_H 	H 	0.0659	0.8844	0.8514	0.032
Mof_C 	C 	0.2065	0.0387	0.958	0.073
Mof_H 	H 	0.1929	0.0377	0.9942	0.029
Mof_C 	C 	0.2546	0.0653	0.9485	-0.117
Mof_H 	H 	0.2738	0.0816	0.9779	0.073
Mof_C 	C 	0.2752	0.0684	0.8968	0.041
Mof_C 	C 	0.2462	0.0431	0.8557	-0.115
Mof_H 	H 	0.2594	0.0434	0.8192	0.064
Mof_C 	C 	0.1979	0.0175	0.8682	0.067
Mof_H 	H 	0.1779	0.0014	0.8391	0.001
Mof_C 	C 	0.1977	0.7637	0.8074	0.091
Mof_C 	C 	0.3251	0.0992	0.8843	0.086
Mof_N 	N 	0.1772	0.0138	0.9183	-0.22
Mof_N 	N 	0.1348	0.9042	0.8892	-0.207
Mof_F 	F 	0.1346	0.9363	0.0022	-0.637
Mof_F 	F 	0.0672	0.0383	0.9684	-0.688
Mof_C 	C 	0.2438	0.7386	0.828	-0.141
Mof_C 	C 	0.3557	0.085	0.8395	-0.137
Mof_H 	H 	0.2616	0.7529	0.8593	0.077
Mof_H 	H 	0.3458	0.0541	0.8183	0.072
Mof_N 	N 	0.172	0.7438	0.7614	-0.186
Mof_N 	N 	0.3395	0.1443	0.915	-0.186
Mof_Co	Co	0.39611	0.02906	0.43319	1.22
Mof_C 	C 	0.3134	0.1115	0.3942	0.066
Mof_H 	H 	0.2906	0.091	0.4179	0.006
Mof_C 	C 	0.2905	0.1551	0.3674	-0.114
Mof_H 	H 	0.2527	0.1631	0.3709	0.062
Mof_C 	C 	0.3249	0.1877	0.3345	0.033
Mof_C 	C 	0.3784	0.1719	0.3291	-0.106
Mof_H 	H 	0.4025	0.1923	0.3067	0.063
Mof_C 	C 	0.3971	0.1261	0.3562	0.064
Mof_H 	H 	0.4341	0.1156	0.3514	0.028
Mof_C 	C 	0.2935	0.9613	0.458	0.076
Mof_H 	H 	0.3071	0.9623	0.4942	0.036
Mof_C 	C 	0.2454	0.9347	0.4485	-0.113
Mof_H 	H 	0.2262	0.9184	0.4779	0.072
Mof_C 	C 	0.2248	0.9316	0.3968	0.042
Mof_C 	C 	0.2538	0.9569	0.3557	-0.11
Mof_H 	H 	0.2406	0.9566	0.3192	0.068
Mof_C 	C 	0.3021	0.9825	0.3682	0.072
Mof_H 	H 	0.3221	0.9986	0.3391	0.019
Mof_C 	C 	0.3023	0.2363	0.3074	0.086
Mof_C 	C 	0.1749	0.9008	0.3843	0.087
Mof_N 	N 	0.3228	0.9862	0.4183	-0.204
Mof_N 	N 	0.3652	0.0958	0.3892	-0.216
Mof_F 	F 	0.3654	0.0637	0.5022	-0.632
Mof_F 	F 	0.4328	0.9617	0.4684	-0.669
Mof_C 	C 	0.2562	0.2614	0.328	-0.14
Mof_C 	C 	0.1443	0.915	0.3395	-0.138
Mof_H 	H 	0.2384	0.2471	0.3593	0.072
Mof_H 	H 	0.1542	0.9459	0.3183	0.076
Mof_N 	N 	0.328	0.2562	0.2614	-0.186
Mof_N 	N 	0.1605	0.8557	0.415	-0.186
Mof_Co	Co	0.89611	0.47094	0.56681	1.232
Mof_C 	C 	0.8134	0.3885	0.6058	0.069
Mof_H 	H 	0.7906	0.409	0.5821	0.014
Mof_C 	C 	0.7905	0.3449	0.6326	-0.11
Mof_H 	H 	0.7527	0.3369	0.6291	0.067
Mof_C 	C 	0.8249	0.3123	0.6655	0.035
Mof_C 	C 	0.8784	0.3281	0.6709	-0.102
Mof_H 	H 	0.9025	0.3077	0.6933	0.068
Mof_C 	C 	0.8971	0.3739	0.6438	0.067
Mof_H 	H 	0.9341	0.3844	0.6486	0.037
Mof_C 	C 	0.7935	0.5387	0.542	0.074
Mof_H 	H 	0.8071	0.5377	0.5058	0.031
Mof_C 	C 	0.7454	0.5653	0.5515	-0.115
Mof_H 	H 	0.7262	0.5816	0.5221	0.071
Mof_C 	C 	0.7248	0.5684	0.6032	0.041
Mof_C 	C 	0.7538	0.5431	0.6443	-0.112
Mof_H 	H 	0.7406	0.5434	0.6808	0.068
Mof_C 	C 	0.8021	0.5175	0.6318	0.068
Mof_H 	H 	0.8221	0.5014	0.6609	0.013
Mof_C 	C 	0.8023	0.2637	0.6926	0.091
Mof_C 	C 	0.6749	0.5992	0.6157	0.087
Mof_N 	N 	0.8228	0.5138	0.5817	-0.213
Mof_N 	N 	0.8652	0.4042	0.6108	-0.211
Mof_F 	F 	0.8654	0.4363	0.4978	-0.624
Mof_F 	F 	0.9328	0.5383	0.5316	-0.675
Mof_C 	C 	0.7562	0.2386	0.672	-0.14
Mof_C 	C 	0.6443	0.585	0.6605	-0.138
Mof_H 	H 	0.7384	0.2529	0.6407	0.075
Mof_H 	H 	0.6542	0.5541	0.6817	0.075
Mof_N 	N 	0.828	0.2438	0.7386	-0.187
Mof_N 	N 	0.6605	0.6443	0.585	-0.186
Mof_Co	Co	0.60389	0.52906	0.06681	1.226
Mof_C 	C 	0.6866	0.6115	0.1058	0.069
Mof_H 	H 	0.7094	0.591	0.0821	0.01
Mof_C 	C 	0.7095	0.6551	0.1326	-0.111
Mof_H 	H 	0.7473	0.6631	0.1291	0.067
Mof_C 	C 	0.6751	0.6877	0.1655	0.035
Mof_C 	C 	0.6216	0.6719	0.1709	-0.104
Mof_H 	H 	0.5975	0.6923	0.1933	0.065
Mof_C 	C 	0.6029	0.6261	0.1438	0.067
Mof_H 	H 	0.5659	0.6156	0.1486	0.03
Mof_C 	C 	0.7065	0.4613	0.042	0.073
Mof_H 	H 	0.6929	0.4623	0.0058	0.021
Mof_C 	C 	0.7546	0.4347	0.0515	-0.117
Mof_H 	H 	0.7738	0.4184	0.0221	0.067
Mof_C 	C 	0.7752	0.4316	0.1032	0.041
Mof_C 	C 	0.7462	0.4569	0.1443	-0.113
Mof_H 	H 	0.7594	0.4566	0.1808	0.067
Mof_C 	C 	0.6979	0.4825	0.1318	0.069
Mof_H 	H 	0.6779	0.4986	0.1609	0.011
Mof_C 	C 	0.6977	0.7363	0.1926	0.09
Mof_C 	C 	0.8251	0.4008	0.1157	0.086
Mof_N 	N 	0.6772	0.4862	0.0817	-0.215
Mof_N 	N 	0.6348	0.5958	0.1108	-0.214
Mof_F 	F 	0.6346	0.5637	0.9978	-0.604
Mof_F 	F 	0.5672	0.4617	0.0316	-0.692
Mof_C 	C 	0.7438	0.7614	0.172	-0.14
Mof_C 	C 	0.8557	0.415	0.1605	-0.138
Mof_H 	H 	0.7616	0.7471	0.1407	0.075
Mof_H 	H 	0.8458	0.4459	0.1817	0.075
Mof_N 	N 	0.672	0.7562	0.2386	-0.186
Mof_N 	N 	0.8395	0.3557	0.085	-0.185
Mof_Co	Co	0.93319	0.10389	0.97094	1.246
Mof_C 	C 	0.8942	0.1866	0.8885	0.069
Mof_H 	H 	0.9179	0.2094	0.909	0.025
Mof_C 	C 	0.8674	0.2095	0.8449	-0.103
Mof_H 	H 	0.8709	0.2473	0.8369	0.069
Mof_C 	C 	0.8345	0.1751	0.8123	0.029
Mof_C 	C 	0.8291	0.1216	0.8281	-0.099
Mof_H 	H 	0.8067	0.0975	0.8077	0.063
Mof_C 	C 	0.8562	0.1029	0.8739	0.066
Mof_H 	H 	0.8514	0.0659	0.8844	0.032
Mof_C 	C 	0.958	0.2065	0.0387	0.07
Mof_H 	H 	0.9942	0.1929	0.0377	0.03
Mof_C 	C 	0.9485	0.2546	0.0653	-0.112
Mof_H 	H 	0.9779	0.2738	0.0816	0.071
Mof_C 	C 	0.8968	0.2752	0.0684	0.033
Mof_C 	C 	0.8557	0.2462	0.0431	-0.109
Mof_H 	H 	0.8192	0.2594	0.0434	0.062
Mof_C 	C 	0.8682	0.1979	0.0175	0.063
Mof_H 	H 	0.8391	0.1779	0.0014	0.002
Mof_C 	C 	0.8074	0.1977	0.7637	0.108
Mof_C 	C 	0.8843	0.3251	0.0992	0.104
Mof_N 	N 	0.9183	0.1772	0.0138	-0.219
Mof_N 	N 	0.8892	0.1348	0.9042	-0.206
Mof_F 	F 	0.0022	0.1346	0.9363	-0.637
Mof_F 	F 	0.9684	0.0672	0.0383	-0.688
Mof_H 	H 	0.8593	0.2616	0.7529	0.099
Mof_H 	H 	0.8183	0.3458	0.0541	0.094
Mof_N 	N 	0.7614	0.172	0.7438	-0.186
Mof_N 	N 	0.915	0.3395	0.1443	-0.186
Mof_Co	Co	0.43319	0.39611	0.02906	1.22
Mof_C 	C 	0.3942	0.3134	0.1115	0.062
Mof_H 	H 	0.4179	0.2906	0.091	0.006
Mof_C 	C 	0.3674	0.2905	0.1551	-0.108
Mof_H 	H 	0.3709	0.2527	0.1631	0.06
Mof_C 	C 	0.3345	0.3249	0.1877	0.026
Mof_C 	C 	0.3291	0.3784	0.1719	-0.102
Mof_H 	H 	0.3067	0.4025	0.1923	0.062
Mof_C 	C 	0.3562	0.3971	0.1261	0.062
Mof_H 	H 	0.3514	0.4341	0.1156	0.028
Mof_C 	C 	0.458	0.2935	0.9613	0.074
Mof_H 	H 	0.4942	0.3071	0.9623	0.037
Mof_C 	C 	0.4485	0.2454	0.9347	-0.108
Mof_H 	H 	0.4779	0.2262	0.9184	0.071
Mof_C 	C 	0.3968	0.2248	0.9316	0.034
Mof_C 	C 	0.3557	0.2538	0.9569	-0.104
Mof_H 	H 	0.3192	0.2406	0.9566	0.066
Mof_C 	C 	0.3682	0.3021	0.9825	0.068
Mof_H 	H 	0.3391	0.3221	0.9986	0.02
Mof_C 	C 	0.3074	0.3023	0.2363	0.103
Mof_C 	C 	0.3843	0.1749	0.9008	0.106
Mof_N 	N 	0.4183	0.3228	0.9862	-0.203
Mof_N 	N 	0.3892	0.3652	0.0958	-0.215
Mof_F 	F 	0.5022	0.3654	0.0637	-0.632
Mof_F 	F 	0.4684	0.4328	0.9617	-0.669
Mof_H 	H 	0.3593	0.2384	0.2471	0.094
Mof_H 	H 	0.3183	0.1542	0.9459	0.099
Mof_N 	N 	0.2614	0.328	0.2562	-0.186
Mof_N 	N 	0.415	0.1605	0.8557	-0.186
Mof_Co	Co	0.56681	0.89611	0.47094	1.231
Mof_C 	C 	0.6058	0.8134	0.3885	0.066
Mof_H 	H 	0.5821	0.7906	0.409	0.015
Mof_C 	C 	0.6326	0.7905	0.3449	-0.105
Mof_H 	H 	0.6291	0.7527	0.3369	0.065
Mof_C 	C 	0.6655	0.8249	0.3123	0.028
Mof_C 	C 	0.6709	0.8784	0.3281	-0.098
Mof_H 	H 	0.6933	0.9025	0.3077	0.066
Mof_C 	C 	0.6438	0.8971	0.3739	0.065
Mof_H 	H 	0.6486	0.9341	0.3844	0.037
Mof_C 	C 	0.542	0.7935	0.5387	0.071
Mof_H 	H 	0.5058	0.8071	0.5377	0.031
Mof_C 	C 	0.5515	0.7454	0.5653	-0.11
Mof_H 	H 	0.5221	0.7262	0.5816	0.069
Mof_C 	C 	0.6032	0.7248	0.5684	0.033
Mof_C 	C 	0.6443	0.7538	0.5431	-0.106
Mof_H 	H 	0.6808	0.7406	0.5434	0.066
Mof_C 	C 	0.6318	0.8021	0.5175	0.065
Mof_H 	H 	0.6609	0.8221	0.5014	0.014
Mof_C 	C 	0.6926	0.8023	0.2637	0.107
Mof_C 	C 	0.6157	0.6749	0.5992	0.105
Mof_N 	N 	0.5817	0.8228	0.5138	-0.212
Mof_N 	N 	0.6108	0.8652	0.4042	-0.21
Mof_F 	F 	0.4978	0.8654	0.4363	-0.624
Mof_F 	F 	0.5316	0.9328	0.5383	-0.675
Mof_H 	H 	0.6407	0.7384	0.2529	0.097
Mof_H 	H 	0.6817	0.6542	0.5541	0.097
Mof_N 	N 	0.7386	0.828	0.2438	-0.187
Mof_N 	N 	0.585	0.6605	0.6443	-0.186
Mof_Co	Co	0.06681	0.60389	0.52906	1.226
Mof_C 	C 	0.1058	0.6866	0.6115	0.066
Mof_H 	H 	0.0821	0.7094	0.591	0.011
Mof_C 	C 	0.1326	0.7095	0.6551	-0.106
Mof_H 	H 	0.1291	0.7473	0.6631	0.065
Mof_C 	C 	0.1655	0.6751	0.6877	0.028
Mof_C 	C 	0.1709	0.6216	0.6719	-0.1
Mof_H 	H 	0.1933	0.5975	0.6923	0.064
Mof_C 	C 	0.1438	0.6029	0.6261	0.065
Mof_H 	H 	0.1486	0.5659	0.6156	0.031
Mof_C 	C 	0.042	0.7065	0.4613	0.071
Mof_H 	H 	0.0058	0.6929	0.4623	0.022
Mof_C 	C 	0.0515	0.7546	0.4347	-0.112
Mof_H 	H 	0.0221	0.7738	0.4184	0.065
Mof_C 	C 	0.1032	0.7752	0.4316	0.033
Mof_C 	C 	0.1443	0.7462	0.4569	-0.107
Mof_H 	H 	0.1808	0.7594	0.4566	0.065
Mof_C 	C 	0.1318	0.6979	0.4825	0.066
Mof_H 	H 	0.1609	0.6779	0.4986	0.012
Mof_C 	C 	0.1926	0.6977	0.7363	0.107
Mof_C 	C 	0.1157	0.8251	0.4008	0.104
Mof_N 	N 	0.0817	0.6772	0.4862	-0.214
Mof_N 	N 	0.1108	0.6348	0.5958	-0.213
Mof_F 	F 	0.9978	0.6346	0.5637	-0.604
Mof_F 	F 	0.0316	0.5672	0.4617	-0.692
Mof_H 	H 	0.1407	0.7616	0.7471	0.097
Mof_H 	H 	0.1817	0.8458	0.4459	0.097
Mof_N 	N 	0.2386	0.672	0.7562	-0.186
Mof_N 	N 	0.085	0.8395	0.3557	-0.185
Mof_Co	Co	0.97094	0.93319	0.10389	1.246
Mof_C 	C 	0.8885	0.8942	0.1866	0.071
Mof_H 	H 	0.909	0.9179	0.2094	0.025
Mof_C 	C 	0.8449	0.8674	0.2095	-0.107
Mof_H 	H 	0.8369	0.8709	0.2473	0.071
Mof_C 	C 	0.8123	0.8345	0.1751	0.035
Mof_C 	C 	0.8281	0.8291	0.1216	-0.105
Mof_H 	H 	0.8077	0.8067	0.0975	0.065
Mof_C 	C 	0.8739	0.8562	0.1029	0.069
Mof_H 	H 	0.8844	0.8514	0.0659	0.031
Mof_C 	C 	0.0387	0.958	0.2065	0.074
Mof_H 	H 	0.0377	0.9942	0.1929	0.029
Mof_C 	C 	0.0653	0.9485	0.2546	-0.118
Mof_H 	H 	0.0816	0.9779	0.2738	0.073
Mof_C 	C 	0.0684	0.8968	0.2752	0.041
Mof_C 	C 	0.0431	0.8557	0.2462	-0.113
Mof_H 	H 	0.0434	0.8192	0.2594	0.064
Mof_C 	C 	0.0175	0.8682	0.1979	0.065
Mof_H 	H 	0.0014	0.8391	0.1779	0.001
Mof_C 	C 	0.7637	0.8074	0.1977	0.091
Mof_C 	C 	0.0992	0.8843	0.3251	0.086
Mof_N 	N 	0.0138	0.9183	0.1772	-0.22
Mof_N 	N 	0.9042	0.8892	0.1348	-0.207
Mof_F 	F 	0.9363	0.0022	0.1346	-0.637
Mof_F 	F 	0.0383	0.9684	0.0672	-0.688
Mof_H 	H 	0.7529	0.8593	0.2616	0.099
Mof_H 	H 	0.0541	0.8183	0.3458	0.094
Mof_Co	Co	0.02906	0.43319	0.39611	1.22
Mof_C 	C 	0.1115	0.3942	0.3134	0.065
Mof_H 	H 	0.091	0.4179	0.2906	0.006
Mof_C 	C 	0.1551	0.3674	0.2905	-0.112
Mof_H 	H 	0.1631	0.3709	0.2527	0.061
Mof_C 	C 	0.1877	0.3345	0.3249	0.033
Mof_C 	C 	0.1719	0.3291	0.3784	-0.108
Mof_H 	H 	0.1923	0.3067	0.4025	0.064
Mof_C 	C 	0.1261	0.3562	0.3971	0.065
Mof_H 	H 	0.1156	0.3514	0.4341	0.027
Mof_C 	C 	0.9613	0.458	0.2935	0.077
Mof_H 	H 	0.9623	0.4942	0.3071	0.036
Mof_C 	C 	0.9347	0.4485	0.2454	-0.114
Mof_H 	H 	0.9184	0.4779	0.2262	0.073
Mof_C 	C 	0.9316	0.3968	0.2248	0.041
Mof_C 	C 	0.9569	0.3557	0.2538	-0.108
Mof_H 	H 	0.9566	0.3192	0.2406	0.068
Mof_C 	C 	0.9825	0.3682	0.3021	0.07
Mof_H 	H 	0.9986	0.3391	0.3221	0.019
Mof_C 	C 	0.2363	0.3074	0.3023	0.086
Mof_C 	C 	0.9008	0.3843	0.1749	0.088
Mof_N 	N 	0.9862	0.4183	0.3228	-0.204
Mof_N 	N 	0.0958	0.3892	0.3652	-0.216
Mof_F 	F 	0.0637	0.5022	0.3654	-0.632
Mof_F 	F 	0.9617	0.4684	0.4328	-0.669
Mof_H 	H 	0.2471	0.3593	0.2384	0.094
Mof_H 	H 	0.9459	0.3183	0.1542	0.099
Mof_Co	Co	0.47094	0.56681	0.89611	1.232
Mof_C 	C 	0.3885	0.6058	0.8134	0.068
Mof_H 	H 	0.409	0.5821	0.7906	0.014
Mof_C 	C 	0.3449	0.6326	0.7905	-0.108
Mof_H 	H 	0.3369	0.6291	0.7527	0.067
Mof_C 	C 	0.3123	0.6655	0.8249	0.035
Mof_C 	C 	0.3281	0.6709	0.8784	-0.104
Mof_H 	H 	0.3077	0.6933	0.9025	0.068
Mof_C 	C 	0.3739	0.6438	0.8971	0.068
Mof_H 	H 	0.3844	0.6486	0.9341	0.036
Mof_C 	C 	0.5387	0.542	0.7935	0.075
Mof_H 	H 	0.5377	0.5058	0.8071	0.03
Mof_C 	C 	0.5653	0.5515	0.7454	-0.116
Mof_H 	H 	0.5816	0.5221	0.7262	0.072
Mof_C 	C 	0.5684	0.6032	0.7248	0.04
Mof_C 	C 	0.5431	0.6443	0.7538	-0.11
Mof_H 	H 	0.5434	0.6808	0.7406	0.067
Mof_C 	C 	0.5175	0.6318	0.8021	0.067
Mof_H 	H 	0.5014	0.6609	0.8221	0.013
Mof_C 	C 	0.2637	0.6926	0.8023	0.091
Mof_C 	C 	0.5992	0.6157	0.6749	0.087
Mof_N 	N 	0.5138	0.5817	0.8228	-0.213
Mof_N 	N 	0.4042	0.6108	0.8652	-0.211
Mof_F 	F 	0.4363	0.4978	0.8654	-0.624
Mof_F 	F 	0.5383	0.5316	0.9328	-0.675
Mof_H 	H 	0.2529	0.6407	0.7384	0.097
Mof_H 	H 	0.5541	0.6817	0.6542	0.097
Mof_Co	Co	0.52906	0.06681	0.60389	1.226
Mof_C 	C 	0.6115	0.1058	0.6866	0.068
Mof_H 	H 	0.591	0.0821	0.7094	0.011
Mof_C 	C 	0.6551	0.1326	0.7095	-0.11
Mof_H 	H 	0.6631	0.1291	0.7473	0.067
Mof_C 	C 	0.6877	0.1655	0.6751	0.035
Mof_C 	C 	0.6719	0.1709	0.6216	-0.106
Mof_H 	H 	0.6923	0.1933	0.5975	0.066
Mof_C 	C 	0.6261	0.1438	0.6029	0.068
Mof_H 	H 	0.6156	0.1486	0.5659	0.03
Mof_C 	C 	0.4613	0.042	0.7065	0.074
Mof_H 	H 	0.4623	0.0058	0.6929	0.021
Mof_C 	C 	0.4347	0.0515	0.7546	-0.118
Mof_H 	H 	0.4184	0.0221	0.7738	0.067
Mof_C 	C 	0.4316	0.1032	0.7752	0.041
Mof_C 	C 	0.4569	0.1443	0.7462	-0.111
Mof_H 	H 	0.4566	0.1808	0.7594	0.067
Mof_C 	C 	0.4825	0.1318	0.6979	0.068
Mof_H 	H 	0.4986	0.1609	0.6779	0.011
Mof_C 	C 	0.7363	0.1926	0.6977	0.09
Mof_C 	C 	0.4008	0.1157	0.8251	0.086
Mof_N 	N 	0.4862	0.0817	0.6772	-0.215
Mof_N 	N 	0.5958	0.1108	0.6348	-0.214
Mof_F 	F 	0.5637	0.9978	0.6346	-0.604
Mof_F 	F 	0.4617	0.0316	0.5672	-0.692
Mof_H 	H 	0.7471	0.1407	0.7616	0.097
Mof_H 	H 	0.4459	0.1817	0.8458	0.097
Mof_Co	Co	-0	0	-0	1.234
Mof_Co	Co	0.5	-3.43042e-33	0.5	1.263
Mof_Co	Co	-1.1847e-32	0.5	0.5	1.263
Mof_Co	Co	0.5	0.5	-0	1.263
_end
