data_functionalizedCrystal
_audit_creation_method	'EQeq! by Chris Wilmer'
_symmetry_space_group_name_H-M	'P1'
_symmetry_Int_Tables_number	1
_symmetry_cell_setting	triclinic
loop_
_symmetry_equiv_pos_as_xyz
  x,y,z
_cell_length_a	27.837
_cell_length_b	9.892
_cell_length_c	10.446
_cell_angle_alpha	90
_cell_angle_beta	90
_cell_angle_gamma	90
loop_
_atom_site_label
_atom_site_type_symbol
_atom_site_fract_x
_atom_site_fract_y
_atom_site_fract_z
_atom_site_charge
Mof_Ni	Ni	0.7234	0.15539	0.4787	1.125
Mof_O 	O 	0.75374	0.1565	0.80244	-0.444
Mof_Ni	Ni	0.78181	0.16436	0.99058	1.118
Mof_O 	O 	0.70045	0.1	0.65583	-0.446
Mof_N 	N 	0.71294	0.2086	0.04363	-0.331
Mof_H 	H 	0.7109	0.2197	0.1309	0.137
Mof_H 	H 	0.7026	0.2866	0.0044	0.134
Mof_O 	O 	0.75749	0.97198	0.02599	-0.412
Mof_O 	O 	0.68951	0.85589	0.02648	-0.399
Mof_O 	O 	0.81191	0.1729	0.17924	-0.378
Mof_O 	O 	0.74605	0.20287	0.29598	-0.403
Mof_O 	O 	0.75891	0.97176	0.4549	-0.444
Mof_O 	O 	0.81758	0.82774	0.4974	-0.429
Mof_N 	N 	0.79037	0.2334	0.51195	-0.326
Mof_H 	H 	0.7893	0.3264	0.5142	0.134
Mof_H 	H 	0.8023	0.2026	0.5888	0.123
Mof_N 	N 	0.6612	0.0601	0.41118	-0.221
Mof_C 	C 	0.61952	0.0661	0.4713	0.093
Mof_H 	H 	0.617	0.1241	0.5435	0.004
Mof_C 	C 	0.58014	0.9949	0.4364	-0.149
Mof_H 	H 	0.551	0.0043	0.4829	0.076
Mof_C 	C 	0.58266	0.9076	0.3317	0.085
Mof_C 	C 	0.6257	0.9	0.2659	-0.149
Mof_H 	H 	0.6291	0.8443	0.1924	0.091
Mof_C 	C 	0.66366	0.9766	0.3112	0.081
Mof_H 	H 	0.6936	0.9693	0.268	0.009
Mof_C 	C 	0.54064	0.8301	0.2859	-0.012
Mof_C 	C 	0.51139	0.7585	0.3746	-0.046
Mof_H 	H 	0.5181	0.7636	0.4636	0.04
Mof_C 	C 	0.47332	0.6815	0.3317	-0.041
Mof_H 	H 	0.455	0.6308	0.3915	0.042
Mof_C 	C 	0.46157	0.6768	0.206	-0.013
Mof_C 	C 	0.48973	0.7424	0.1197	-0.044
Mof_H 	H 	0.4822	0.7387	0.031	0.04
Mof_C 	C 	0.52945	0.8146	0.1615	-0.042
Mof_H 	H 	0.5498	0.855	0.0993	0.045
Mof_C 	C 	0.42084	0.5923	0.1635	0.088
Mof_C 	C 	0.37859	0.5849	0.2257	-0.156
Mof_H 	H 	0.3747	0.6366	0.3017	0.089
Mof_C 	C 	0.34092	0.5071	0.1854	0.085
Mof_H 	H 	0.3119	0.508	0.2334	0.006
Mof_N 	N 	0.34351	0.43	0.0812	-0.225
Mof_C 	C 	0.38373	0.4339	0.0167	0.085
Mof_H 	H 	0.3864	0.3808	0.9412	0.002
Mof_C 	C 	0.42227	0.5113	0.0533	-0.146
Mof_H 	H 	0.4506	0.5101	0.0027	0.074
Mof_C 	C 	0.7128	0.1228	0.768	0.475
Mof_C 	C 	0.67193	0.1069	0.8601	-0.394
Mof_H 	H 	0.6533	0.0262	0.8344	0.156
Mof_H 	H 	0.6505	0.1862	0.8503	0.145
Mof_C 	C 	0.68422	0.0928	0.0021	-0.002
Mof_H 	H 	0.6539	0.0885	0.0534	0.037
Mof_C 	C 	0.71298	0.9622	0.0212	0.323
Mof_C 	C 	0.79073	0.1873	0.283	0.314
Mof_C 	C 	0.82088	0.1868	0.4047	-0.003
Mof_H 	H 	0.8484	0.2507	0.394	0.037
Mof_C 	C 	0.84017	0.0466	0.4305	-0.369
Mof_H 	H 	0.8636	0.052	0.5015	0.138
Mof_H 	H 	0.8576	0.0151	0.3535	0.143
Mof_C 	C 	0.80231	0.9422	0.4647	0.443
Mof_Ni	Ni	0.2766	0.84461	0.4787	1.126
Mof_O 	O 	0.24626	0.8435	0.80244	-0.443
Mof_Ni	Ni	0.21819	0.83564	0.99058	1.119
Mof_O 	O 	0.29955	0.9	0.65583	-0.445
Mof_N 	N 	0.28706	0.7914	0.04363	-0.331
Mof_H 	H 	0.2891	0.7803	0.1309	0.137
Mof_H 	H 	0.2974	0.7134	0.0044	0.134
Mof_O 	O 	0.24251	0.02802	0.02599	-0.412
Mof_O 	O 	0.31049	0.14411	0.02648	-0.399
Mof_O 	O 	0.18809	0.8271	0.17924	-0.378
Mof_O 	O 	0.25395	0.79713	0.29598	-0.403
Mof_O 	O 	0.24109	0.02824	0.4549	-0.444
Mof_O 	O 	0.18242	0.17226	0.4974	-0.429
Mof_N 	N 	0.20963	0.7666	0.51195	-0.326
Mof_H 	H 	0.2107	0.6736	0.5142	0.134
Mof_H 	H 	0.1977	0.7974	0.5888	0.123
Mof_N 	N 	0.3388	0.9399	0.41118	-0.221
Mof_C 	C 	0.38048	0.9339	0.4713	0.093
Mof_H 	H 	0.383	0.8759	0.5435	0.004
Mof_C 	C 	0.41986	0.0051	0.4364	-0.149
Mof_H 	H 	0.449	0.9957	0.4829	0.076
Mof_C 	C 	0.41734	0.0924	0.3317	0.085
Mof_C 	C 	0.3743	0.1	0.2659	-0.149
Mof_H 	H 	0.3709	0.1557	0.1924	0.091
Mof_C 	C 	0.33634	0.0234	0.3112	0.081
Mof_H 	H 	0.3064	0.0307	0.268	0.009
Mof_C 	C 	0.45936	0.1699	0.2859	-0.012
Mof_C 	C 	0.48861	0.2415	0.3746	-0.046
Mof_H 	H 	0.4819	0.2364	0.4636	0.04
Mof_C 	C 	0.52668	0.3185	0.3317	-0.041
Mof_H 	H 	0.545	0.3692	0.3915	0.042
Mof_C 	C 	0.53843	0.3232	0.206	-0.013
Mof_C 	C 	0.51027	0.2576	0.1197	-0.044
Mof_H 	H 	0.5178	0.2613	0.031	0.04
Mof_C 	C 	0.47055	0.1854	0.1615	-0.042
Mof_H 	H 	0.4502	0.145	0.0993	0.045
Mof_C 	C 	0.57916	0.4077	0.1635	0.088
Mof_C 	C 	0.62141	0.4151	0.2257	-0.156
Mof_H 	H 	0.6253	0.3634	0.3017	0.089
Mof_C 	C 	0.65908	0.4929	0.1854	0.085
Mof_H 	H 	0.6881	0.492	0.2334	0.006
Mof_N 	N 	0.65649	0.57	0.0812	-0.225
Mof_C 	C 	0.61627	0.5661	0.0167	0.085
Mof_H 	H 	0.6136	0.6192	0.9412	0.002
Mof_C 	C 	0.57773	0.4887	0.0533	-0.146
Mof_H 	H 	0.5494	0.4899	0.0027	0.074
Mof_C 	C 	0.2872	0.8772	0.768	0.475
Mof_C 	C 	0.32807	0.8931	0.8601	-0.394
Mof_H 	H 	0.3467	0.9738	0.8344	0.156
Mof_H 	H 	0.3495	0.8138	0.8503	0.145
Mof_C 	C 	0.31578	0.9072	0.0021	-0.002
Mof_H 	H 	0.3461	0.9115	0.0534	0.037
Mof_C 	C 	0.28702	0.0378	0.0212	0.323
Mof_C 	C 	0.20927	0.8127	0.283	0.314
Mof_C 	C 	0.17912	0.8132	0.4047	-0.003
Mof_H 	H 	0.1516	0.7493	0.394	0.037
Mof_C 	C 	0.15983	0.9534	0.4305	-0.369
Mof_H 	H 	0.1364	0.948	0.5015	0.138
Mof_H 	H 	0.1424	0.9849	0.3535	0.143
Mof_C 	C 	0.19769	0.0578	0.4647	0.443
Mof_Ni	Ni	0.7766	0.65539	0.5213	1.126
Mof_O 	O 	0.74626	0.6565	0.19756	-0.443
Mof_Ni	Ni	0.71819	0.66436	0.00942	1.119
Mof_O 	O 	0.79955	0.6	0.34417	-0.444
Mof_N 	N 	0.78706	0.7086	0.95637	-0.332
Mof_H 	H 	0.7891	0.7197	0.8691	0.138
Mof_H 	H 	0.7974	0.7866	0.9956	0.135
Mof_O 	O 	0.74251	0.47198	0.97401	-0.412
Mof_O 	O 	0.81049	0.35589	0.97352	-0.398
Mof_O 	O 	0.68809	0.6729	0.82076	-0.377
Mof_O 	O 	0.75395	0.70287	0.70402	-0.403
Mof_O 	O 	0.74109	0.47176	0.5451	-0.444
Mof_O 	O 	0.68242	0.32774	0.5026	-0.428
Mof_N 	N 	0.70963	0.7334	0.48805	-0.326
Mof_H 	H 	0.7107	0.8264	0.4858	0.134
Mof_H 	H 	0.6977	0.7026	0.4112	0.123
Mof_N 	N 	0.8388	0.5601	0.58882	-0.22
Mof_C 	C 	0.88048	0.5661	0.5287	0.095
Mof_H 	H 	0.883	0.6241	0.4565	0.004
Mof_C 	C 	0.91986	0.4949	0.5636	-0.152
Mof_H 	H 	0.949	0.5043	0.5171	0.078
Mof_C 	C 	0.91734	0.4076	0.6683	0.086
Mof_C 	C 	0.8743	0.4	0.7341	-0.149
Mof_H 	H 	0.8709	0.3443	0.8076	0.091
Mof_C 	C 	0.83634	0.4766	0.6888	0.079
Mof_H 	H 	0.8064	0.4693	0.732	0.009
Mof_C 	C 	0.95936	0.3301	0.7141	-0.013
Mof_C 	C 	0.98861	0.2585	0.6254	-0.046
Mof_H 	H 	0.9819	0.2636	0.5364	0.04
Mof_C 	C 	0.02668	0.1815	0.6683	-0.041
Mof_H 	H 	0.045	0.1308	0.6085	0.042
Mof_C 	C 	0.03843	0.1768	0.794	-0.013
Mof_C 	C 	0.01027	0.2424	0.8803	-0.044
Mof_H 	H 	0.0178	0.2387	0.969	0.04
Mof_C 	C 	0.97055	0.3146	0.8385	-0.042
Mof_H 	H 	0.9502	0.355	0.9007	0.045
Mof_C 	C 	0.07916	0.0923	0.8365	0.088
Mof_C 	C 	0.12141	0.0849	0.7743	-0.157
Mof_H 	H 	0.1253	0.1366	0.6983	0.089
Mof_C 	C 	0.15908	0.0071	0.8146	0.087
Mof_H 	H 	0.1881	0.008	0.7666	0.006
Mof_N 	N 	0.15649	0.93	0.9188	-0.226
Mof_C 	C 	0.11627	0.9339	0.9833	0.085
Mof_H 	H 	0.1136	0.8808	0.0588	0.001
Mof_C 	C 	0.07773	0.0113	0.9467	-0.145
Mof_H 	H 	0.0494	0.0101	0.9973	0.074
Mof_C 	C 	0.7872	0.6228	0.232	0.476
Mof_C 	C 	0.82807	0.6069	0.1399	-0.396
Mof_H 	H 	0.8467	0.5262	0.1656	0.157
Mof_H 	H 	0.8495	0.6862	0.1497	0.145
Mof_C 	C 	0.81578	0.5928	0.9979	0.001
Mof_H 	H 	0.8461	0.5885	0.9466	0.037
Mof_C 	C 	0.78702	0.4622	0.9788	0.321
Mof_C 	C 	0.70927	0.6873	0.717	0.315
Mof_C 	C 	0.67912	0.6868	0.5953	-0.003
Mof_H 	H 	0.6516	0.7507	0.606	0.038
Mof_C 	C 	0.65983	0.5466	0.5695	-0.367
Mof_H 	H 	0.6364	0.552	0.4985	0.138
Mof_H 	H 	0.6424	0.5151	0.6465	0.143
Mof_C 	C 	0.69769	0.4422	0.5353	0.441
Mof_Ni	Ni	0.2234	0.34461	0.5213	1.126
Mof_O 	O 	0.25374	0.3435	0.19756	-0.443
Mof_Ni	Ni	0.28181	0.33564	0.00942	1.119
Mof_O 	O 	0.20045	0.4	0.34417	-0.444
Mof_N 	N 	0.21294	0.2914	0.95637	-0.332
Mof_H 	H 	0.2109	0.2803	0.8691	0.138
Mof_H 	H 	0.2026	0.2134	0.9956	0.135
Mof_O 	O 	0.25749	0.52802	0.97401	-0.412
Mof_O 	O 	0.18951	0.64411	0.97352	-0.398
Mof_O 	O 	0.31191	0.3271	0.82076	-0.377
Mof_O 	O 	0.24605	0.29713	0.70402	-0.403
Mof_O 	O 	0.25891	0.52824	0.5451	-0.444
Mof_O 	O 	0.31758	0.67226	0.5026	-0.428
Mof_N 	N 	0.29037	0.2666	0.48805	-0.326
Mof_H 	H 	0.2893	0.1736	0.4858	0.134
Mof_H 	H 	0.3023	0.2974	0.4112	0.123
Mof_N 	N 	0.1612	0.4399	0.58882	-0.22
Mof_C 	C 	0.11952	0.4339	0.5287	0.095
Mof_H 	H 	0.117	0.3759	0.4565	0.004
Mof_C 	C 	0.08014	0.5051	0.5636	-0.152
Mof_H 	H 	0.051	0.4957	0.5171	0.078
Mof_C 	C 	0.08266	0.5924	0.6683	0.086
Mof_C 	C 	0.1257	0.6	0.7341	-0.149
Mof_H 	H 	0.1291	0.6557	0.8076	0.091
Mof_C 	C 	0.16366	0.5234	0.6888	0.079
Mof_H 	H 	0.1936	0.5307	0.732	0.009
Mof_C 	C 	0.04064	0.6699	0.7141	-0.013
Mof_C 	C 	0.01139	0.7415	0.6254	-0.046
Mof_H 	H 	0.0181	0.7364	0.5364	0.04
Mof_C 	C 	0.97332	0.8185	0.6683	-0.041
Mof_H 	H 	0.955	0.8692	0.6085	0.042
Mof_C 	C 	0.96157	0.8232	0.794	-0.013
Mof_C 	C 	0.98973	0.7576	0.8803	-0.044
Mof_H 	H 	0.9822	0.7613	0.969	0.04
Mof_C 	C 	0.02945	0.6854	0.8385	-0.042
Mof_H 	H 	0.0498	0.645	0.9007	0.045
Mof_C 	C 	0.92084	0.9077	0.8365	0.088
Mof_C 	C 	0.87859	0.9151	0.7743	-0.157
Mof_H 	H 	0.8747	0.8634	0.6983	0.089
Mof_C 	C 	0.84092	0.9929	0.8146	0.087
Mof_H 	H 	0.8119	0.992	0.7666	0.006
Mof_N 	N 	0.84351	0.07	0.9188	-0.226
Mof_C 	C 	0.88373	0.0661	0.9833	0.085
Mof_H 	H 	0.8864	0.1192	0.0588	0.001
Mof_C 	C 	0.92227	0.9887	0.9467	-0.145
Mof_H 	H 	0.9506	0.9899	0.9973	0.074
Mof_C 	C 	0.2128	0.3772	0.232	0.476
Mof_C 	C 	0.17193	0.3931	0.1399	-0.396
Mof_H 	H 	0.1533	0.4738	0.1656	0.157
Mof_H 	H 	0.1505	0.3138	0.1497	0.145
Mof_C 	C 	0.18422	0.4072	0.9979	0.001
Mof_H 	H 	0.1539	0.4115	0.9466	0.037
Mof_C 	C 	0.21298	0.5378	0.9788	0.321
Mof_C 	C 	0.29073	0.3127	0.717	0.315
Mof_C 	C 	0.32088	0.3132	0.5953	-0.003
Mof_H 	H 	0.3484	0.2493	0.606	0.038
Mof_C 	C 	0.34017	0.4534	0.5695	-0.367
Mof_H 	H 	0.3636	0.448	0.4985	0.138
Mof_H 	H 	0.3576	0.4849	0.6465	0.143
Mof_C 	C 	0.30231	0.5578	0.5353	0.441
_end
