data_functionalizedCrystal
_audit_creation_method	'EQeq! by Chris Wilmer'
_symmetry_space_group_name_H-M	'P1'
_symmetry_Int_Tables_number	1
_symmetry_cell_setting	triclinic
loop_
_symmetry_equiv_pos_as_xyz
  x,y,z
_cell_length_a	24.8443
_cell_length_b	12.8836
_cell_length_c	15.0538
_cell_angle_alpha	90
_cell_angle_beta	96.709
_cell_angle_gamma	90
loop_
_atom_site_label
_atom_site_type_symbol
_atom_site_fract_x
_atom_site_fract_y
_atom_site_fract_z
_atom_site_charge
Mof_Ce	Ce	0.32881	0.79696	0.03383	2.317
Mof_O 	O 	0.30629	0.7411	0.8785	-0.554
Mof_O 	O 	0.22817	0.6557	0.8484	-0.604
Mof_O 	O 	0.20203	0.4527	0.5606	-0.52
Mof_O 	O 	0.27345	0.3606	0.5367	-0.667
Mof_O 	O 	0.5985	0.6679	0.5016	-0.481
Mof_O 	O 	0.58481	0.8293	0.5403	-0.482
Mof_C 	C 	0.2755	0.6785	0.8341	0.521
Mof_C 	C 	0.29716	0.6278	0.7549	-0.215
Mof_C 	C 	0.26597	0.5601	0.7004	0.134
Mof_H 	H 	0.2302	0.548	0.7103	-0.017
Mof_C 	C 	0.287	0.5097	0.6311	-0.214
Mof_C 	C 	0.25216	0.4361	0.573	0.463
Mof_C 	C 	0.33989	0.5306	0.6144	0.067
Mof_H 	H 	0.3544	0.4953	0.5688	-0.006
Mof_C 	C 	0.37135	0.6036	0.6649	-0.11
Mof_C 	C 	0.34965	0.6505	0.7365	0.075
Mof_H 	H 	0.3705	0.6976	0.7725	0.012
Mof_C 	C 	0.42532	0.636	0.6407	0.114
Mof_C 	C 	0.45978	0.5653	0.6072	-0.164
Mof_H 	H 	0.4505	0.4953	0.6044	0.08
Mof_C 	C 	0.50795	0.5972	0.5778	0.067
Mof_H 	H 	0.5308	0.5485	0.5563	0.012
Mof_C 	C 	0.5222	0.7007	0.58	-0.14
Mof_C 	C 	0.57176	0.7346	0.5383	0.341
Mof_C 	C 	0.4897	0.7697	0.6162	0.072
Mof_H 	H 	0.4999	0.8391	0.6208	-0.002
Mof_C 	C 	0.4415	0.7388	0.6464	-0.167
Mof_H 	H 	0.4198	0.7876	0.6708	0.076
Mof_Ce	Ce	0.82881	0.29696	0.03383	2.313
Mof_O 	O 	0.80629	0.2411	0.8785	-0.555
Mof_O 	O 	0.72817	0.1557	0.8484	-0.605
Mof_O 	O 	0.70203	0.9527	0.5606	-0.521
Mof_O 	O 	0.77345	0.8606	0.5367	-0.669
Mof_O 	O 	0.0985	0.1679	0.5016	-0.482
Mof_O 	O 	0.08481	0.3293	0.5403	-0.483
Mof_C 	C 	0.7755	0.1785	0.8341	0.52
Mof_C 	C 	0.79716	0.1278	0.7549	-0.216
Mof_C 	C 	0.76597	0.0601	0.7004	0.134
Mof_H 	H 	0.7302	0.048	0.7103	-0.018
Mof_C 	C 	0.787	0.0097	0.6311	-0.215
Mof_C 	C 	0.75216	0.9361	0.573	0.463
Mof_C 	C 	0.83989	0.0306	0.6144	0.067
Mof_H 	H 	0.8544	0.9953	0.5688	-0.006
Mof_C 	C 	0.87135	0.1036	0.6649	-0.11
Mof_C 	C 	0.84965	0.1505	0.7365	0.075
Mof_H 	H 	0.8705	0.1976	0.7725	0.012
Mof_C 	C 	0.92532	0.136	0.6407	0.114
Mof_C 	C 	0.95978	0.0653	0.6072	-0.164
Mof_H 	H 	0.9505	0.9953	0.6044	0.08
Mof_C 	C 	0.00795	0.0972	0.5778	0.067
Mof_H 	H 	0.0308	0.0485	0.5563	0.012
Mof_C 	C 	0.0222	0.2007	0.58	-0.141
Mof_C 	C 	0.07176	0.2346	0.5383	0.341
Mof_C 	C 	0.9897	0.2697	0.6162	0.073
Mof_H 	H 	0.9999	0.3391	0.6208	-0.002
Mof_C 	C 	0.9415	0.2388	0.6464	-0.167
Mof_H 	H 	0.9198	0.2876	0.6708	0.076
Mof_Ce	Ce	0.67119	0.79696	0.46617	2.315
Mof_O 	O 	0.69371	0.7411	0.6215	-0.555
Mof_O 	O 	0.77183	0.6557	0.6516	-0.605
Mof_O 	O 	0.79797	0.4527	0.9394	-0.52
Mof_O 	O 	0.72655	0.3606	0.9633	-0.668
Mof_O 	O 	0.4015	0.6679	0.9984	-0.482
Mof_O 	O 	0.41519	0.8293	0.9597	-0.482
Mof_C 	C 	0.7245	0.6785	0.6659	0.52
Mof_C 	C 	0.70284	0.6278	0.7451	-0.215
Mof_C 	C 	0.73403	0.5601	0.7996	0.134
Mof_H 	H 	0.7698	0.548	0.7897	-0.017
Mof_C 	C 	0.713	0.5097	0.8689	-0.214
Mof_C 	C 	0.74784	0.4361	0.927	0.463
Mof_C 	C 	0.66011	0.5306	0.8856	0.067
Mof_H 	H 	0.6456	0.4953	0.9312	-0.005
Mof_C 	C 	0.62865	0.6036	0.8351	-0.109
Mof_C 	C 	0.65035	0.6505	0.7635	0.075
Mof_H 	H 	0.6295	0.6976	0.7275	0.012
Mof_C 	C 	0.57468	0.636	0.8593	0.114
Mof_C 	C 	0.54022	0.5653	0.8928	-0.164
Mof_H 	H 	0.5495	0.4953	0.8956	0.08
Mof_C 	C 	0.49205	0.5972	0.9222	0.067
Mof_H 	H 	0.4692	0.5485	0.9437	0.012
Mof_C 	C 	0.4778	0.7007	0.92	-0.14
Mof_C 	C 	0.42824	0.7346	0.9617	0.341
Mof_C 	C 	0.5103	0.7697	0.8838	0.072
Mof_H 	H 	0.5001	0.8391	0.8792	-0.001
Mof_C 	C 	0.5585	0.7388	0.8536	-0.167
Mof_H 	H 	0.5802	0.7876	0.8292	0.076
Mof_Ce	Ce	0.17119	0.29696	0.46617	2.316
Mof_O 	O 	0.19371	0.2411	0.6215	-0.555
Mof_O 	O 	0.27183	0.1557	0.6516	-0.605
Mof_O 	O 	0.29797	0.9527	0.9394	-0.521
Mof_O 	O 	0.22655	0.8606	0.9633	-0.668
Mof_O 	O 	0.9015	0.1679	0.9984	-0.481
Mof_O 	O 	0.91519	0.3293	0.9597	-0.481
Mof_C 	C 	0.2245	0.1785	0.6659	0.521
Mof_C 	C 	0.20284	0.1278	0.7451	-0.216
Mof_C 	C 	0.23403	0.0601	0.7996	0.134
Mof_H 	H 	0.2698	0.048	0.7897	-0.018
Mof_C 	C 	0.213	0.0097	0.8689	-0.216
Mof_C 	C 	0.24784	0.9361	0.927	0.464
Mof_C 	C 	0.16011	0.0306	0.8856	0.066
Mof_H 	H 	0.1456	0.9953	0.9312	-0.005
Mof_C 	C 	0.12865	0.1036	0.8351	-0.11
Mof_C 	C 	0.15035	0.1505	0.7635	0.075
Mof_H 	H 	0.1295	0.1976	0.7275	0.011
Mof_C 	C 	0.07468	0.136	0.8593	0.115
Mof_C 	C 	0.04022	0.0653	0.8928	-0.17
Mof_H 	H 	0.0495	0.9953	0.8956	0.082
Mof_C 	C 	0.99205	0.0972	0.9222	0.072
Mof_H 	H 	0.9692	0.0485	0.9437	0.011
Mof_C 	C 	0.9778	0.2007	0.92	-0.139
Mof_C 	C 	0.92824	0.2346	0.9617	0.341
Mof_C 	C 	0.0103	0.2697	0.8838	0.07
Mof_H 	H 	0.0001	0.3391	0.8792	-0.002
Mof_C 	C 	0.0585	0.2388	0.8536	-0.168
Mof_H 	H 	0.0802	0.2876	0.8292	0.076
Mof_Ce	Ce	0.67119	0.20304	0.96617	2.316
Mof_O 	O 	0.69371	0.2589	0.1215	-0.555
Mof_O 	O 	0.77183	0.3443	0.1516	-0.605
Mof_O 	O 	0.79797	0.5473	0.4394	-0.521
Mof_O 	O 	0.72655	0.6394	0.4633	-0.668
Mof_O 	O 	0.4015	0.3321	0.4984	-0.482
Mof_O 	O 	0.41519	0.1707	0.4597	-0.483
Mof_C 	C 	0.7245	0.3215	0.1659	0.52
Mof_C 	C 	0.70284	0.3722	0.2451	-0.215
Mof_C 	C 	0.73403	0.4399	0.2996	0.134
Mof_H 	H 	0.7698	0.452	0.2897	-0.017
Mof_C 	C 	0.713	0.4903	0.3689	-0.214
Mof_C 	C 	0.74784	0.5639	0.427	0.463
Mof_C 	C 	0.66011	0.4694	0.3856	0.067
Mof_H 	H 	0.6456	0.5047	0.4312	-0.006
Mof_C 	C 	0.62865	0.3964	0.3351	-0.11
Mof_C 	C 	0.65035	0.3495	0.2635	0.075
Mof_H 	H 	0.6295	0.3024	0.2275	0.012
Mof_C 	C 	0.57468	0.364	0.3593	0.114
Mof_C 	C 	0.54022	0.4347	0.3928	-0.164
Mof_H 	H 	0.5495	0.5047	0.3956	0.08
Mof_C 	C 	0.49205	0.4028	0.4222	0.067
Mof_H 	H 	0.4692	0.4515	0.4437	0.012
Mof_C 	C 	0.4778	0.2993	0.42	-0.14
Mof_C 	C 	0.42824	0.2654	0.4617	0.341
Mof_C 	C 	0.5103	0.2303	0.3838	0.072
Mof_H 	H 	0.5001	0.1609	0.3792	-0.002
Mof_C 	C 	0.5585	0.2612	0.3536	-0.167
Mof_H 	H 	0.5802	0.2124	0.3292	0.076
Mof_Ce	Ce	0.17119	0.70304	0.96617	2.313
Mof_O 	O 	0.19371	0.7589	0.1215	-0.555
Mof_O 	O 	0.27183	0.8443	0.1516	-0.605
Mof_O 	O 	0.29797	0.0473	0.4394	-0.521
Mof_O 	O 	0.22655	0.1394	0.4633	-0.669
Mof_O 	O 	0.9015	0.8321	0.4984	-0.482
Mof_O 	O 	0.91519	0.6707	0.4597	-0.483
Mof_C 	C 	0.2245	0.8215	0.1659	0.52
Mof_C 	C 	0.20284	0.8722	0.2451	-0.216
Mof_C 	C 	0.23403	0.9399	0.2996	0.134
Mof_H 	H 	0.2698	0.952	0.2897	-0.018
Mof_C 	C 	0.213	0.9903	0.3689	-0.215
Mof_C 	C 	0.24784	0.0639	0.427	0.463
Mof_C 	C 	0.16011	0.9694	0.3856	0.067
Mof_H 	H 	0.1456	0.0047	0.4312	-0.006
Mof_C 	C 	0.12865	0.8964	0.3351	-0.11
Mof_C 	C 	0.15035	0.8495	0.2635	0.075
Mof_H 	H 	0.1295	0.8024	0.2275	0.012
Mof_C 	C 	0.07468	0.864	0.3593	0.114
Mof_C 	C 	0.04022	0.9347	0.3928	-0.164
Mof_H 	H 	0.0495	0.0047	0.3956	0.08
Mof_C 	C 	0.99205	0.9028	0.4222	0.067
Mof_H 	H 	0.9692	0.9515	0.4437	0.012
Mof_C 	C 	0.9778	0.7993	0.42	-0.141
Mof_C 	C 	0.92824	0.7654	0.4617	0.341
Mof_C 	C 	0.0103	0.7303	0.3838	0.073
Mof_H 	H 	0.0001	0.6609	0.3792	-0.002
Mof_C 	C 	0.0585	0.7612	0.3536	-0.167
Mof_H 	H 	0.0802	0.7124	0.3292	0.076
Mof_Ce	Ce	0.32881	0.20304	0.53383	2.315
Mof_O 	O 	0.30629	0.2589	0.3785	-0.555
Mof_O 	O 	0.22817	0.3443	0.3484	-0.605
Mof_O 	O 	0.20203	0.5473	0.0606	-0.52
Mof_O 	O 	0.27345	0.6394	0.0367	-0.668
Mof_O 	O 	0.5985	0.3321	0.0016	-0.482
Mof_O 	O 	0.58481	0.1707	0.0403	-0.482
Mof_C 	C 	0.2755	0.3215	0.3341	0.52
Mof_C 	C 	0.29716	0.3722	0.2549	-0.215
Mof_C 	C 	0.26597	0.4399	0.2004	0.134
Mof_H 	H 	0.2302	0.452	0.2103	-0.017
Mof_C 	C 	0.287	0.4903	0.1311	-0.214
Mof_C 	C 	0.25216	0.5639	0.073	0.463
Mof_C 	C 	0.33989	0.4694	0.1144	0.067
Mof_H 	H 	0.3544	0.5047	0.0688	-0.005
Mof_C 	C 	0.37135	0.3964	0.1649	-0.109
Mof_C 	C 	0.34965	0.3495	0.2365	0.075
Mof_H 	H 	0.3705	0.3024	0.2725	0.012
Mof_C 	C 	0.42532	0.364	0.1407	0.114
Mof_C 	C 	0.45978	0.4347	0.1072	-0.164
Mof_H 	H 	0.4505	0.5047	0.1044	0.08
Mof_C 	C 	0.50795	0.4028	0.0778	0.067
Mof_H 	H 	0.5308	0.4515	0.0563	0.012
Mof_C 	C 	0.5222	0.2993	0.08	-0.14
Mof_C 	C 	0.57176	0.2654	0.0383	0.341
Mof_C 	C 	0.4897	0.2303	0.1162	0.072
Mof_H 	H 	0.4999	0.1609	0.1208	-0.001
Mof_C 	C 	0.4415	0.2612	0.1464	-0.167
Mof_H 	H 	0.4198	0.2124	0.1708	0.076
Mof_Ce	Ce	0.82881	0.70304	0.53383	2.316
Mof_O 	O 	0.80629	0.7589	0.3785	-0.555
Mof_O 	O 	0.72817	0.8443	0.3484	-0.605
Mof_O 	O 	0.70203	0.0473	0.0606	-0.521
Mof_O 	O 	0.77345	0.1394	0.0367	-0.668
Mof_O 	O 	0.0985	0.8321	0.0016	-0.481
Mof_O 	O 	0.08481	0.6707	0.0403	-0.481
Mof_C 	C 	0.7755	0.8215	0.3341	0.521
Mof_C 	C 	0.79716	0.8722	0.2549	-0.216
Mof_C 	C 	0.76597	0.9399	0.2004	0.134
Mof_H 	H 	0.7302	0.952	0.2103	-0.018
Mof_C 	C 	0.787	0.9903	0.1311	-0.216
Mof_C 	C 	0.75216	0.0639	0.073	0.464
Mof_C 	C 	0.83989	0.9694	0.1144	0.066
Mof_H 	H 	0.8544	0.0047	0.0688	-0.005
Mof_C 	C 	0.87135	0.8964	0.1649	-0.11
Mof_C 	C 	0.84965	0.8495	0.2365	0.075
Mof_H 	H 	0.8705	0.8024	0.2725	0.011
Mof_C 	C 	0.92532	0.864	0.1407	0.115
Mof_C 	C 	0.95978	0.9347	0.1072	-0.17
Mof_H 	H 	0.9505	0.0047	0.1044	0.082
Mof_C 	C 	0.00795	0.9028	0.0778	0.072
Mof_H 	H 	0.0308	0.9515	0.0563	0.011
Mof_C 	C 	0.0222	0.7993	0.08	-0.139
Mof_C 	C 	0.07176	0.7654	0.0383	0.341
Mof_C 	C 	0.9897	0.7303	0.1162	0.07
Mof_H 	H 	0.9999	0.6609	0.1208	-0.002
Mof_C 	C 	0.9415	0.7612	0.1464	-0.168
Mof_H 	H 	0.9198	0.7124	0.1708	0.076
_end
