data_functionalizedCrystal
_audit_creation_method	'EQeq! by Chris Wilmer'
_symmetry_space_group_name_H-M	'P1'
_symmetry_Int_Tables_number	1
_symmetry_cell_setting	triclinic
loop_
_symmetry_equiv_pos_as_xyz
  x,y,z
_cell_length_a	12.295
_cell_length_b	30.7547
_cell_length_c	24.7649
_cell_angle_alpha	90
_cell_angle_beta	97.53
_cell_angle_gamma	90
loop_
_atom_site_label
_atom_site_type_symbol
_atom_site_fract_x
_atom_site_fract_y
_atom_site_fract_z
_atom_site_charge
Mof_Zn	Zn	0.58151	0.26267	0.20692	1.21
Mof_Zn	Zn	0.3793	0.27096	0.25387	1.21
Mof_Zn	Zn	0.78026	0.14301	0.06244	1.231
Mof_Zn	Zn	0.68886	0.12964	0.92093	1.205
Mof_N 	N 	0.7196	0.25248	0.1687	-0.202
Mof_N 	N 	0.8006	0.20387	0.1062	-0.191
Mof_N 	N 	0.9188	0.2415	0.1795	-0.098
Mof_N 	N 	0.8274	0.28251	0.1019	-0.096
Mof_C 	C 	0.7064	0.2119	0.1366	-0.03
Mof_H 	H 	0.6383	0.2136	0.1105	0.035
Mof_H 	H 	0.6989	0.1871	0.1613	0.028
Mof_C 	C 	0.8244	0.2485	0.2079	-0.014
Mof_H 	H 	0.8354	0.2753	0.23	0.036
Mof_H 	H 	0.8176	0.2238	0.233	0.033
Mof_C 	C 	0.7338	0.2894	0.1315	-0.019
Mof_H 	H 	0.6664	0.2927	0.1052	0.04
Mof_H 	H 	0.7448	0.3165	0.153	0.04
Mof_C 	C 	0.9016	0.2013	0.1477	-0.012
Mof_H 	H 	0.8942	0.1766	0.1726	0.027
Mof_H 	H 	0.9664	0.1957	0.1288	0.034
Mof_C 	C 	0.9266	0.2775	0.1423	0.001
Mof_H 	H 	0.991	0.273	0.1228	0.037
Mof_H 	H 	0.9386	0.3047	0.1636	0.041
Mof_C 	C 	0.8121	0.242	0.0706	-0.011
Mof_H 	H 	0.8759	0.2374	0.0506	0.042
Mof_H 	H 	0.7457	0.2445	0.0435	0.03
Mof_N 	N 	0.2408	0.27765	0.292	-0.199
Mof_N 	N 	0.164	0.31662	0.3643	-0.184
Mof_N 	N 	0.136	0.2382	0.3536	-0.094
Mof_N 	N 	0.0425	0.288	0.2863	-0.096
Mof_C 	C 	0.257	0.3137	0.3322	-0.042
Mof_H 	H 	0.3257	0.3088	0.3571	0.043
Mof_H 	H 	0.2642	0.3415	0.3129	0.052
Mof_C 	C 	0.1359	0.2858	0.2551	-0.013
Mof_H 	H 	0.1416	0.3134	0.2353	0.038
Mof_H 	H 	0.1237	0.2621	0.2279	0.037
Mof_C 	C 	0.2289	0.2363	0.3223	-0.029
Mof_H 	H 	0.2182	0.2119	0.2961	0.044
Mof_H 	H 	0.297	0.2308	0.3473	0.044
Mof_C 	C 	0.1546	0.2739	0.3923	-0.013
Mof_H 	H 	0.2228	0.2684	0.4174	0.031
Mof_H 	H 	0.093	0.2753	0.4144	0.04
Mof_C 	C 	0.0367	0.2473	0.3156	0.002
Mof_H 	H 	0.0244	0.2232	0.289	0.04
Mof_H 	H 	0.973	0.2483	0.3363	0.037
Mof_C 	C 	0.0615	0.3235	0.3262	-0.018
Mof_H 	H 	0.9985	0.3254	0.3472	0.032
Mof_H 	H 	0.0666	0.3514	0.3067	0.044
Mof_O 	O 	0.5289	0.19973	0.2093	-0.469
Mof_O 	O 	0.3612	0.20706	0.2344	-0.465
Mof_C 	C 	0.437	0.1856	0.218	0.389
Mof_C 	C 	0.4163	0.1382	0.2079	-0.111
Mof_C 	C 	0.4931	0.113	0.1867	0.002
Mof_H 	H 	0.5607	0.1258	0.1805	0.045
Mof_C 	C 	0.4739	0.0689	0.1741	-0.023
Mof_C 	C 	0.5509	0.0433	0.1511	-0.025
Mof_H 	H 	0.6174	0.0561	0.1433	0.047
Mof_C 	C 	0.5315	0.0009	0.1401	-0.074
Mof_H 	H 	0.5857	0.9838	0.126	0.061
Mof_C 	C 	0.4321	0.9816	0.1493	0.054
Mof_C 	C 	0.3561	0.0053	0.1717	-0.13
Mof_H 	H 	0.2898	0.992	0.1788	0.101
Mof_C 	C 	0.3753	0.05	0.1847	0.082
Mof_C 	C 	0.2956	0.0763	0.2054	-0.125
Mof_H 	H 	0.2274	0.064	0.2113	0.075
Mof_C 	C 	0.3158	0.1192	0.2169	0.045
Mof_H 	H 	0.2619	0.1363	0.2312	0.028
Mof_C 	C 	0.418	0.9361	0.1275	-0.109
Mof_O 	O 	0.325	0.921	0.1288	0.595
Mof_O 	O 	0.495	0.9151	0.1125	0.111
Mof_O 	O 	0.6366	0.25657	0.28759	-0.486
Mof_O 	O 	0.4842	0.253	0.32391	-0.462
Mof_C 	C 	0.5856	0.2523	0.3265	0.423
Mof_C 	C 	0.6532	0.2465	0.381	-0.108
Mof_C 	C 	0.7676	0.253	0.3858	0.034
Mof_H 	H 	0.8001	0.2609	0.3544	0.03
Mof_C 	C 	0.8325	0.2484	0.4345	-0.098
Mof_H 	H 	0.9095	0.2528	0.4367	0.067
Mof_C 	C 	0.7862	0.2371	0.4816	0.037
Mof_C 	C 	0.8507	0.2333	0.5334	-0.037
Mof_H 	H 	0.9277	0.2379	0.5362	0.059
Mof_C 	C 	0.8056	0.2232	0.5788	-0.074
Mof_C 	C 	0.6911	0.214	0.5746	0.006
Mof_H 	H 	0.6595	0.2056	0.606	0.04
Mof_C 	C 	0.6264	0.2173	0.525	-0.075
Mof_H 	H 	0.5502	0.2113	0.5226	0.058
Mof_C 	C 	0.6713	0.2294	0.4778	0.015
Mof_C 	C 	0.6059	0.2348	0.4263	-0.013
Mof_H 	H 	0.5289	0.2302	0.4232	0.05
Mof_C 	C 	0.8729	0.2229	0.6345	0.366
Mof_O 	O 	0.8223	0.21533	0.67482	-0.457
Mof_O 	O 	0.9741	0.23083	0.6372	-0.457
Mof_O 	O 	0.5935	0.32791	0.21953	-0.455
Mof_O 	O 	0.4464	0.33063	0.264	-0.466
Mof_C 	C 	0.5326	0.3465	0.249	0.364
Mof_C 	C 	0.562	0.3918	0.2688	-0.043
Mof_C 	C 	0.6656	0.4097	0.2614	-0.034
Mof_H 	H 	0.7162	0.3933	0.2437	0.055
Mof_C 	C 	0.6918	0.4508	0.2799	-0.022
Mof_H 	H 	0.7605	0.4629	0.2743	0.04
Mof_C 	C 	0.6203	0.4753	0.3068	-0.069
Mof_C 	C 	0.6444	0.5173	0.3269	0.099
Mof_H 	H 	0.7119	0.5302	0.3208	-0.001
Mof_C 	C 	0.5758	0.5404	0.3548	-0.285
Mof_C 	C 	0.4766	0.5214	0.3635	0.16
Mof_H 	H 	0.4274	0.5371	0.3827	-0.022
Mof_C 	C 	0.449	0.4808	0.3449	-0.204
Mof_H 	H 	0.3813	0.4684	0.3517	0.119
Mof_C 	C 	0.5196	0.4568	0.3158	0.116
Mof_C 	C 	0.4926	0.4147	0.2958	-0.094
Mof_H 	H 	0.4242	0.4023	0.3013	0.093
Mof_C 	C 	0.6039	0.5837	0.3809	0.4
Mof_O 	O 	0.5226	0.6042	0.3968	0.056
Mof_O 	O 	0.6978	0.5959	0.3834	-0.721
Mof_O 	O 	0.8705	0.16596	0.0092	-0.501
Mof_O 	O 	0.85	0.13515	0.92695	-0.488
Mof_C 	C 	0.9069	0.1498	0.968	0.389
Mof_C 	C 	0.0283	0.1486	0.968	-0.094
Mof_C 	C 	0.0978	0.1542	0.0158	-0.028
Mof_H 	H 	0.0684	0.1591	0.0488	0.054
Mof_C 	C 	0.212	0.1525	0.0158	0.029
Mof_C 	C 	0.2853	0.1581	0.0644	-0.089
Mof_H 	H 	0.2573	0.1624	0.098	0.066
Mof_C 	C 	0.3957	0.1572	0.0633	0.028
Mof_H 	H 	0.4441	0.1607	0.0961	0.039
Mof_C 	C 	0.4389	0.1511	0.0136	-0.103
Mof_C 	C 	0.3703	0.1446	0.9661	-0.022
Mof_H 	H 	0.4002	0.1397	0.9332	0.045
Mof_C 	C 	0.2543	0.1451	0.9658	0.021
Mof_C 	C 	0.1816	0.1388	0.9173	-0.082
Mof_H 	H 	0.2095	0.1333	0.8839	0.063
Mof_C 	C 	0.0709	0.1406	0.9187	0.02
Mof_H 	H 	0.0221	0.1364	0.8861	0.045
Mof_C 	C 	0.5593	0.1515	0.0115	0.388
Mof_O 	O 	0.5956	0.15999	0.9685	-0.517
Mof_O 	O 	0.619	0.1448	0.057	-0.477
Mof_C 	C 	0.388	0.9367	0.133	0.189
Mof_O 	O 	0.301	0.9201	0.145	-0.898
Mof_O 	O 	0.43	0.9135	0.1001	-0.495
Mof_C 	C 	0.633	0.5826	0.374	0.3
Mof_O 	O 	0.587	0.6051	0.4059	-0.574
Mof_O 	O 	0.716	0.6016	0.3572	0.173
Mof_Zn	Zn	0.91849	0.76267	0.29308	1.211
Mof_Zn	Zn	0.1207	0.77096	0.24613	1.211
Mof_Zn	Zn	0.71974	0.64301	0.43756	1.232
Mof_Zn	Zn	0.81114	0.62964	0.57907	1.206
Mof_N 	N 	0.7804	0.75248	0.3313	-0.201
Mof_N 	N 	0.6994	0.70387	0.3938	-0.19
Mof_N 	N 	0.5812	0.7415	0.3205	-0.097
Mof_N 	N 	0.6726	0.78251	0.3981	-0.096
Mof_C 	C 	0.7936	0.7119	0.3634	-0.029
Mof_H 	H 	0.8617	0.7136	0.3895	0.036
Mof_H 	H 	0.8011	0.6871	0.3387	0.029
Mof_C 	C 	0.6756	0.7485	0.2921	-0.013
Mof_H 	H 	0.6646	0.7753	0.27	0.037
Mof_H 	H 	0.6824	0.7238	0.267	0.033
Mof_C 	C 	0.7662	0.7894	0.3685	-0.019
Mof_H 	H 	0.8336	0.7927	0.3948	0.039
Mof_H 	H 	0.7552	0.8165	0.347	0.04
Mof_C 	C 	0.5984	0.7013	0.3523	-0.012
Mof_H 	H 	0.6058	0.6766	0.3274	0.027
Mof_H 	H 	0.5336	0.6957	0.3712	0.034
Mof_C 	C 	0.5734	0.7775	0.3577	0.001
Mof_H 	H 	0.509	0.773	0.3772	0.037
Mof_H 	H 	0.5614	0.8047	0.3364	0.041
Mof_C 	C 	0.6879	0.742	0.4294	-0.011
Mof_H 	H 	0.6241	0.7374	0.4494	0.042
Mof_H 	H 	0.7543	0.7445	0.4565	0.03
Mof_N 	N 	0.2592	0.77765	0.208	-0.199
Mof_N 	N 	0.336	0.81662	0.1357	-0.184
Mof_N 	N 	0.364	0.7382	0.1464	-0.094
Mof_N 	N 	0.4575	0.788	0.2137	-0.096
Mof_C 	C 	0.243	0.8137	0.1678	-0.042
Mof_H 	H 	0.1743	0.8088	0.1429	0.043
Mof_H 	H 	0.2358	0.8415	0.1871	0.052
Mof_C 	C 	0.3641	0.7858	0.2449	-0.013
Mof_H 	H 	0.3584	0.8134	0.2647	0.038
Mof_H 	H 	0.3763	0.7621	0.2721	0.037
Mof_C 	C 	0.2711	0.7363	0.1777	-0.029
Mof_H 	H 	0.2818	0.7119	0.2039	0.044
Mof_H 	H 	0.203	0.7308	0.1527	0.044
Mof_C 	C 	0.3454	0.7739	0.1077	-0.013
Mof_H 	H 	0.2772	0.7684	0.0826	0.031
Mof_H 	H 	0.407	0.7753	0.0856	0.04
Mof_C 	C 	0.4633	0.7473	0.1844	0.003
Mof_H 	H 	0.4756	0.7232	0.211	0.04
Mof_H 	H 	0.527	0.7483	0.1637	0.036
Mof_C 	C 	0.4385	0.8235	0.1738	-0.017
Mof_H 	H 	0.5015	0.8254	0.1528	0.032
Mof_H 	H 	0.4334	0.8514	0.1933	0.043
Mof_O 	O 	0.9711	0.69973	0.2907	-0.47
Mof_O 	O 	0.1388	0.70706	0.2656	-0.466
Mof_C 	C 	0.063	0.6856	0.282	0.391
Mof_C 	C 	0.0837	0.6382	0.2921	-0.112
Mof_C 	C 	0.0069	0.613	0.3133	0.004
Mof_H 	H 	0.9393	0.6258	0.3195	0.044
Mof_C 	C 	0.0261	0.5689	0.3259	-0.023
Mof_C 	C 	0.9491	0.5433	0.3489	-0.025
Mof_H 	H 	0.8826	0.5561	0.3567	0.047
Mof_C 	C 	0.9685	0.5009	0.3599	-0.075
Mof_H 	H 	0.9143	0.4838	0.374	0.062
Mof_C 	C 	0.0679	0.4816	0.3507	0.054
Mof_C 	C 	0.1439	0.5053	0.3283	-0.129
Mof_H 	H 	0.2102	0.492	0.3212	0.101
Mof_C 	C 	0.1247	0.55	0.3153	0.082
Mof_C 	C 	0.2044	0.5763	0.2946	-0.126
Mof_H 	H 	0.2726	0.564	0.2887	0.075
Mof_C 	C 	0.1842	0.6192	0.2831	0.046
Mof_H 	H 	0.2381	0.6363	0.2688	0.028
Mof_C 	C 	0.082	0.4361	0.3725	-0.109
Mof_O 	O 	0.175	0.421	0.3712	0.594
Mof_O 	O 	0.005	0.4151	0.3875	0.111
Mof_O 	O 	0.8634	0.75657	0.21241	-0.486
Mof_O 	O 	0.0158	0.753	0.17609	-0.461
Mof_C 	C 	0.9144	0.7523	0.1735	0.421
Mof_C 	C 	0.8468	0.7465	0.119	-0.107
Mof_C 	C 	0.7324	0.753	0.1142	0.034
Mof_H 	H 	0.6999	0.7609	0.1456	0.03
Mof_C 	C 	0.6675	0.7484	0.0655	-0.098
Mof_H 	H 	0.5905	0.7528	0.0633	0.066
Mof_C 	C 	0.7138	0.7371	0.0184	0.037
Mof_C 	C 	0.6493	0.7333	0.9666	-0.037
Mof_H 	H 	0.5723	0.7379	0.9638	0.059
Mof_C 	C 	0.6944	0.7232	0.9212	-0.074
Mof_C 	C 	0.8089	0.714	0.9254	0.006
Mof_H 	H 	0.8405	0.7056	0.894	0.04
Mof_C 	C 	0.8736	0.7173	0.975	-0.075
Mof_H 	H 	0.9498	0.7113	0.9774	0.058
Mof_C 	C 	0.8287	0.7294	0.0222	0.015
Mof_C 	C 	0.8941	0.7348	0.0737	-0.013
Mof_H 	H 	0.9711	0.7302	0.0768	0.05
Mof_C 	C 	0.6271	0.7229	0.8655	0.366
Mof_O 	O 	0.6777	0.71533	0.82518	-0.458
Mof_O 	O 	0.5259	0.73083	0.8628	-0.458
Mof_O 	O 	0.9065	0.82791	0.28047	-0.455
Mof_O 	O 	0.0536	0.83063	0.236	-0.466
Mof_C 	C 	0.9674	0.8465	0.251	0.363
Mof_C 	C 	0.938	0.8918	0.2312	-0.047
Mof_C 	C 	0.8344	0.9097	0.2386	-0.032
Mof_H 	H 	0.7838	0.8933	0.2563	0.054
Mof_C 	C 	0.8082	0.9508	0.2201	-0.024
Mof_H 	H 	0.7395	0.9629	0.2257	0.041
Mof_C 	C 	0.8797	0.9753	0.1932	-0.066
Mof_C 	C 	0.8556	0.0173	0.1731	0.097
Mof_H 	H 	0.7881	0.0302	0.1792	-0
Mof_C 	C 	0.9242	0.0404	0.1452	-0.282
Mof_C 	C 	0.0234	0.0214	0.1365	0.155
Mof_H 	H 	0.0726	0.0371	0.1173	-0.021
Mof_C 	C 	0.051	0.9808	0.1551	-0.199
Mof_H 	H 	0.1187	0.9684	0.1483	0.117
Mof_C 	C 	0.9804	0.9568	0.1842	0.111
Mof_C 	C 	0.0074	0.9147	0.2042	-0.089
Mof_H 	H 	0.0758	0.9023	0.1987	0.091
Mof_C 	C 	0.8961	0.0837	0.1191	0.4
Mof_O 	O 	0.9774	0.1042	0.1032	0.056
Mof_O 	O 	0.8022	0.0959	0.1166	-0.72
Mof_O 	O 	0.6295	0.66596	0.4908	-0.501
Mof_O 	O 	0.65	0.63515	0.57305	-0.488
Mof_C 	C 	0.5931	0.6498	0.532	0.387
Mof_C 	C 	0.4717	0.6486	0.532	-0.092
Mof_C 	C 	0.4022	0.6542	0.4842	-0.029
Mof_H 	H 	0.4316	0.6591	0.4512	0.055
Mof_C 	C 	0.288	0.6525	0.4842	0.03
Mof_C 	C 	0.2147	0.6581	0.4356	-0.089
Mof_H 	H 	0.2427	0.6624	0.402	0.067
Mof_C 	C 	0.1043	0.6572	0.4367	0.028
Mof_H 	H 	0.0559	0.6607	0.4039	0.04
Mof_C 	C 	0.0611	0.6511	0.4864	-0.103
Mof_C 	C 	0.1297	0.6446	0.5339	-0.022
Mof_H 	H 	0.0998	0.6397	0.5668	0.045
Mof_C 	C 	0.2457	0.6451	0.5342	0.021
Mof_C 	C 	0.3184	0.6388	0.5827	-0.081
Mof_H 	H 	0.2905	0.6333	0.6161	0.063
Mof_C 	C 	0.4291	0.6406	0.5813	0.019
Mof_H 	H 	0.4779	0.6364	0.6139	0.046
Mof_C 	C 	0.9407	0.6515	0.4885	0.387
Mof_O 	O 	0.9044	0.65999	0.5315	-0.517
Mof_O 	O 	0.881	0.6448	0.443	-0.477
Mof_C 	C 	0.112	0.4367	0.367	0.189
Mof_O 	O 	0.199	0.4201	0.355	-0.898
Mof_O 	O 	0.07	0.4135	0.3999	-0.495
Mof_C 	C 	0.867	0.0826	0.126	0.3
Mof_O 	O 	0.913	0.1051	0.0941	-0.574
Mof_O 	O 	0.784	0.1016	0.1428	0.173
Mof_Zn	Zn	0.41849	0.73733	0.79308	1.211
Mof_Zn	Zn	0.6207	0.72904	0.74613	1.211
Mof_Zn	Zn	0.21974	0.85699	0.93756	1.232
Mof_Zn	Zn	0.31114	0.87036	0.07907	1.206
Mof_N 	N 	0.2804	0.74752	0.8313	-0.201
Mof_N 	N 	0.1994	0.79613	0.8938	-0.19
Mof_N 	N 	0.0812	0.7585	0.8205	-0.097
Mof_N 	N 	0.1726	0.71749	0.8981	-0.095
Mof_C 	C 	0.2936	0.7881	0.8634	-0.029
Mof_H 	H 	0.3617	0.7864	0.8895	0.036
Mof_H 	H 	0.3011	0.8129	0.8387	0.029
Mof_C 	C 	0.1756	0.7515	0.7921	-0.013
Mof_H 	H 	0.1646	0.7247	0.77	0.037
Mof_H 	H 	0.1824	0.7762	0.767	0.034
Mof_C 	C 	0.2662	0.7106	0.8685	-0.019
Mof_H 	H 	0.3336	0.7073	0.8948	0.04
Mof_H 	H 	0.2552	0.6835	0.847	0.04
Mof_C 	C 	0.0984	0.7987	0.8523	-0.012
Mof_H 	H 	0.1058	0.8234	0.8274	0.027
Mof_H 	H 	0.0336	0.8043	0.8712	0.034
Mof_C 	C 	0.0734	0.7225	0.8577	0.001
Mof_H 	H 	0.009	0.727	0.8772	0.037
Mof_H 	H 	0.0614	0.6953	0.8364	0.041
Mof_C 	C 	0.1879	0.758	0.9294	-0.011
Mof_H 	H 	0.1241	0.7626	0.9494	0.042
Mof_H 	H 	0.2543	0.7555	0.9565	0.03
Mof_N 	N 	0.7592	0.72235	0.708	-0.199
Mof_N 	N 	0.836	0.68338	0.6357	-0.184
Mof_N 	N 	0.864	0.7618	0.6464	-0.094
Mof_N 	N 	0.9575	0.712	0.7137	-0.096
Mof_C 	C 	0.743	0.6863	0.6678	-0.042
Mof_H 	H 	0.6743	0.6912	0.6429	0.043
Mof_H 	H 	0.7358	0.6585	0.6871	0.052
Mof_C 	C 	0.8641	0.7142	0.7449	-0.013
Mof_H 	H 	0.8584	0.6866	0.7647	0.038
Mof_H 	H 	0.8763	0.7379	0.7721	0.037
Mof_C 	C 	0.7711	0.7637	0.6777	-0.029
Mof_H 	H 	0.7818	0.7881	0.7039	0.044
Mof_H 	H 	0.703	0.7692	0.6527	0.044
Mof_C 	C 	0.8454	0.7261	0.6077	-0.013
Mof_H 	H 	0.7772	0.7316	0.5826	0.031
Mof_H 	H 	0.907	0.7247	0.5856	0.04
Mof_C 	C 	0.9633	0.7527	0.6844	0.002
Mof_H 	H 	0.9756	0.7768	0.711	0.04
Mof_H 	H 	0.027	0.7517	0.6637	0.037
Mof_C 	C 	0.9385	0.6765	0.6738	-0.018
Mof_H 	H 	0.0015	0.6746	0.6528	0.032
Mof_H 	H 	0.9334	0.6486	0.6933	0.044
Mof_O 	O 	0.4711	0.80027	0.7907	-0.469
Mof_O 	O 	0.6388	0.79294	0.7656	-0.465
Mof_C 	C 	0.563	0.8144	0.782	0.389
Mof_C 	C 	0.5837	0.8618	0.7921	-0.111
Mof_C 	C 	0.5069	0.887	0.8133	0.002
Mof_H 	H 	0.4393	0.8742	0.8195	0.045
Mof_C 	C 	0.5261	0.9311	0.8259	-0.023
Mof_C 	C 	0.4491	0.9567	0.8489	-0.025
Mof_H 	H 	0.3826	0.9439	0.8567	0.047
Mof_C 	C 	0.4685	0.9991	0.8599	-0.074
Mof_H 	H 	0.4143	0.0162	0.874	0.061
Mof_C 	C 	0.5679	0.0184	0.8507	0.054
Mof_C 	C 	0.6439	0.9947	0.8283	-0.13
Mof_H 	H 	0.7102	0.008	0.8212	0.101
Mof_C 	C 	0.6247	0.95	0.8153	0.082
Mof_C 	C 	0.7044	0.9237	0.7946	-0.125
Mof_H 	H 	0.7726	0.936	0.7887	0.075
Mof_C 	C 	0.6842	0.8808	0.7831	0.045
Mof_H 	H 	0.7381	0.8637	0.7688	0.028
Mof_C 	C 	0.582	0.0639	0.8725	-0.109
Mof_O 	O 	0.675	0.079	0.8712	0.595
Mof_O 	O 	0.505	0.0849	0.8875	0.111
Mof_O 	O 	0.3634	0.74343	0.71241	-0.486
Mof_O 	O 	0.5158	0.747	0.67609	-0.462
Mof_C 	C 	0.4144	0.7477	0.6735	0.423
Mof_C 	C 	0.3468	0.7535	0.619	-0.108
Mof_C 	C 	0.2324	0.747	0.6142	0.034
Mof_H 	H 	0.1999	0.7391	0.6456	0.03
Mof_C 	C 	0.1675	0.7516	0.5655	-0.098
Mof_H 	H 	0.0905	0.7472	0.5633	0.067
Mof_C 	C 	0.2138	0.7629	0.5184	0.037
Mof_C 	C 	0.1493	0.7667	0.4666	-0.037
Mof_H 	H 	0.0723	0.7621	0.4638	0.059
Mof_C 	C 	0.1944	0.7768	0.4212	-0.074
Mof_C 	C 	0.3089	0.786	0.4254	0.006
Mof_H 	H 	0.3405	0.7944	0.394	0.04
Mof_C 	C 	0.3736	0.7827	0.475	-0.075
Mof_H 	H 	0.4498	0.7887	0.4774	0.058
Mof_C 	C 	0.3287	0.7706	0.5222	0.015
Mof_C 	C 	0.3941	0.7652	0.5737	-0.013
Mof_H 	H 	0.4711	0.7698	0.5768	0.05
Mof_C 	C 	0.1271	0.7771	0.3655	0.366
Mof_O 	O 	0.1777	0.78467	0.32518	-0.457
Mof_O 	O 	0.0259	0.76917	0.3628	-0.457
Mof_O 	O 	0.4065	0.67209	0.78047	-0.455
Mof_O 	O 	0.5536	0.66937	0.736	-0.466
Mof_C 	C 	0.4674	0.6535	0.751	0.364
Mof_C 	C 	0.438	0.6082	0.7312	-0.043
Mof_C 	C 	0.3344	0.5903	0.7386	-0.034
Mof_H 	H 	0.2838	0.6067	0.7563	0.055
Mof_C 	C 	0.3082	0.5492	0.7201	-0.022
Mof_H 	H 	0.2395	0.5371	0.7257	0.04
Mof_C 	C 	0.3797	0.5247	0.6932	-0.069
Mof_C 	C 	0.3556	0.4827	0.6731	0.099
Mof_H 	H 	0.2881	0.4698	0.6792	-0.001
Mof_C 	C 	0.4242	0.4596	0.6452	-0.285
Mof_C 	C 	0.5234	0.4786	0.6365	0.16
Mof_H 	H 	0.5726	0.4629	0.6173	-0.022
Mof_C 	C 	0.551	0.5192	0.6551	-0.204
Mof_H 	H 	0.6187	0.5316	0.6483	0.119
Mof_C 	C 	0.4804	0.5432	0.6842	0.116
Mof_C 	C 	0.5074	0.5853	0.7042	-0.094
Mof_H 	H 	0.5758	0.5977	0.6987	0.093
Mof_C 	C 	0.3961	0.4163	0.6191	0.4
Mof_O 	O 	0.4774	0.3958	0.6032	0.056
Mof_O 	O 	0.3022	0.4041	0.6166	-0.721
Mof_O 	O 	0.1295	0.83404	0.9908	-0.501
Mof_O 	O 	0.15	0.86485	0.07305	-0.488
Mof_C 	C 	0.0931	0.8502	0.032	0.389
Mof_C 	C 	0.9717	0.8514	0.032	-0.094
Mof_C 	C 	0.9022	0.8458	0.9842	-0.028
Mof_H 	H 	0.9316	0.8409	0.9512	0.054
Mof_C 	C 	0.788	0.8475	0.9842	0.029
Mof_C 	C 	0.7147	0.8419	0.9356	-0.089
Mof_H 	H 	0.7427	0.8376	0.902	0.066
Mof_C 	C 	0.6043	0.8428	0.9367	0.028
Mof_H 	H 	0.5559	0.8393	0.9039	0.039
Mof_C 	C 	0.5611	0.8489	0.9864	-0.103
Mof_C 	C 	0.6297	0.8554	0.0339	-0.022
Mof_H 	H 	0.5998	0.8603	0.0668	0.045
Mof_C 	C 	0.7457	0.8549	0.0342	0.021
Mof_C 	C 	0.8184	0.8612	0.0827	-0.082
Mof_H 	H 	0.7905	0.8667	0.1161	0.063
Mof_C 	C 	0.9291	0.8594	0.0813	0.02
Mof_H 	H 	0.9779	0.8636	0.1139	0.045
Mof_C 	C 	0.4407	0.8485	0.9885	0.388
Mof_O 	O 	0.4044	0.84001	0.0315	-0.517
Mof_O 	O 	0.381	0.8552	0.943	-0.477
Mof_C 	C 	0.612	0.0633	0.867	0.189
Mof_O 	O 	0.699	0.0799	0.855	-0.898
Mof_O 	O 	0.57	0.0865	0.8999	-0.495
Mof_C 	C 	0.367	0.4174	0.626	0.3
Mof_O 	O 	0.413	0.3949	0.5941	-0.574
Mof_O 	O 	0.284	0.3984	0.6428	0.173
Mof_Zn	Zn	0.08151	0.23733	0.70692	1.211
Mof_Zn	Zn	0.8793	0.22904	0.75387	1.211
Mof_Zn	Zn	0.28026	0.35699	0.56244	1.232
Mof_Zn	Zn	0.18886	0.37036	0.42093	1.206
Mof_N 	N 	0.2196	0.24752	0.6687	-0.201
Mof_N 	N 	0.3006	0.29613	0.6062	-0.19
Mof_N 	N 	0.4188	0.2585	0.6795	-0.097
Mof_N 	N 	0.3274	0.21749	0.6019	-0.096
Mof_C 	C 	0.2064	0.2881	0.6366	-0.029
Mof_H 	H 	0.1383	0.2864	0.6105	0.036
Mof_H 	H 	0.1989	0.3129	0.6613	0.029
Mof_C 	C 	0.3244	0.2515	0.7079	-0.013
Mof_H 	H 	0.3354	0.2247	0.73	0.037
Mof_H 	H 	0.3176	0.2762	0.733	0.033
Mof_C 	C 	0.2338	0.2106	0.6315	-0.019
Mof_H 	H 	0.1664	0.2073	0.6052	0.039
Mof_H 	H 	0.2448	0.1835	0.653	0.04
Mof_C 	C 	0.4016	0.2987	0.6477	-0.012
Mof_H 	H 	0.3942	0.3234	0.6726	0.027
Mof_H 	H 	0.4664	0.3043	0.6288	0.034
Mof_C 	C 	0.4266	0.2225	0.6423	0.001
Mof_H 	H 	0.491	0.227	0.6228	0.037
Mof_H 	H 	0.4386	0.1953	0.6636	0.041
Mof_C 	C 	0.3121	0.258	0.5706	-0.011
Mof_H 	H 	0.3759	0.2626	0.5506	0.042
Mof_H 	H 	0.2457	0.2555	0.5435	0.03
Mof_N 	N 	0.7408	0.22235	0.792	-0.199
Mof_N 	N 	0.664	0.18338	0.8643	-0.184
Mof_N 	N 	0.636	0.2618	0.8536	-0.094
Mof_N 	N 	0.5425	0.212	0.7863	-0.096
Mof_C 	C 	0.757	0.1863	0.8322	-0.042
Mof_H 	H 	0.8257	0.1912	0.8571	0.043
Mof_H 	H 	0.7642	0.1585	0.8129	0.052
Mof_C 	C 	0.6359	0.2142	0.7551	-0.013
Mof_H 	H 	0.6416	0.1866	0.7353	0.038
Mof_H 	H 	0.6237	0.2379	0.7279	0.037
Mof_C 	C 	0.7289	0.2637	0.8223	-0.029
Mof_H 	H 	0.7182	0.2881	0.7961	0.044
Mof_H 	H 	0.797	0.2692	0.8473	0.044
Mof_C 	C 	0.6546	0.2261	0.8923	-0.013
Mof_H 	H 	0.7228	0.2316	0.9174	0.031
Mof_H 	H 	0.593	0.2247	0.9144	0.04
Mof_C 	C 	0.5367	0.2527	0.8156	0.003
Mof_H 	H 	0.5244	0.2768	0.789	0.04
Mof_H 	H 	0.473	0.2517	0.8363	0.036
Mof_C 	C 	0.5615	0.1765	0.8262	-0.017
Mof_H 	H 	0.4985	0.1746	0.8472	0.032
Mof_H 	H 	0.5666	0.1486	0.8067	0.043
Mof_O 	O 	0.0289	0.30027	0.7093	-0.47
Mof_O 	O 	0.8612	0.29294	0.7344	-0.466
Mof_C 	C 	0.937	0.3144	0.718	0.391
Mof_C 	C 	0.9163	0.3618	0.7079	-0.112
Mof_C 	C 	0.9931	0.387	0.6867	0.004
Mof_H 	H 	0.0607	0.3742	0.6805	0.044
Mof_C 	C 	0.9739	0.4311	0.6741	-0.023
Mof_C 	C 	0.0509	0.4567	0.6511	-0.025
Mof_H 	H 	0.1174	0.4439	0.6433	0.047
Mof_C 	C 	0.0315	0.4991	0.6401	-0.075
Mof_H 	H 	0.0857	0.5162	0.626	0.062
Mof_C 	C 	0.9321	0.5184	0.6493	0.054
Mof_C 	C 	0.8561	0.4947	0.6717	-0.129
Mof_H 	H 	0.7898	0.508	0.6788	0.101
Mof_C 	C 	0.8753	0.45	0.6847	0.082
Mof_C 	C 	0.7956	0.4237	0.7054	-0.126
Mof_H 	H 	0.7274	0.436	0.7113	0.075
Mof_C 	C 	0.8158	0.3808	0.7169	0.046
Mof_H 	H 	0.7619	0.3637	0.7312	0.028
Mof_C 	C 	0.918	0.5639	0.6275	-0.109
Mof_O 	O 	0.825	0.579	0.6288	0.594
Mof_O 	O 	0.995	0.5849	0.6125	0.111
Mof_O 	O 	0.1366	0.24343	0.78759	-0.486
Mof_O 	O 	0.9842	0.247	0.82391	-0.461
Mof_C 	C 	0.0856	0.2477	0.8265	0.421
Mof_C 	C 	0.1532	0.2535	0.881	-0.107
Mof_C 	C 	0.2676	0.247	0.8858	0.034
Mof_H 	H 	0.3001	0.2391	0.8544	0.03
Mof_C 	C 	0.3325	0.2516	0.9345	-0.098
Mof_H 	H 	0.4095	0.2472	0.9367	0.066
Mof_C 	C 	0.2862	0.2629	0.9816	0.037
Mof_C 	C 	0.3507	0.2667	0.0334	-0.037
Mof_H 	H 	0.4277	0.2621	0.0362	0.059
Mof_C 	C 	0.3056	0.2768	0.0788	-0.074
Mof_C 	C 	0.1911	0.286	0.0746	0.006
Mof_H 	H 	0.1595	0.2944	0.106	0.04
Mof_C 	C 	0.1264	0.2827	0.025	-0.075
Mof_H 	H 	0.0502	0.2887	0.0226	0.058
Mof_C 	C 	0.1713	0.2706	0.9778	0.015
Mof_C 	C 	0.1059	0.2652	0.9263	-0.013
Mof_H 	H 	0.0289	0.2698	0.9232	0.05
Mof_C 	C 	0.3729	0.2771	0.1345	0.366
Mof_O 	O 	0.3223	0.28467	0.17482	-0.458
Mof_O 	O 	0.4741	0.26917	0.1372	-0.458
Mof_O 	O 	0.0935	0.17209	0.71953	-0.455
Mof_O 	O 	0.9464	0.16937	0.764	-0.466
Mof_C 	C 	0.0326	0.1535	0.749	0.363
Mof_C 	C 	0.062	0.1082	0.7688	-0.047
Mof_C 	C 	0.1656	0.0903	0.7614	-0.032
Mof_H 	H 	0.2162	0.1067	0.7437	0.054
Mof_C 	C 	0.1918	0.0492	0.7799	-0.024
Mof_H 	H 	0.2605	0.0371	0.7743	0.041
Mof_C 	C 	0.1203	0.0247	0.8068	-0.066
Mof_C 	C 	0.1444	0.9827	0.8269	0.097
Mof_H 	H 	0.2119	0.9698	0.8208	-0
Mof_C 	C 	0.0758	0.9596	0.8548	-0.282
Mof_C 	C 	0.9766	0.9786	0.8635	0.155
Mof_H 	H 	0.9274	0.9629	0.8827	-0.021
Mof_C 	C 	0.949	0.0192	0.8449	-0.199
Mof_H 	H 	0.8813	0.0316	0.8517	0.117
Mof_C 	C 	0.0196	0.0432	0.8158	0.111
Mof_C 	C 	0.9926	0.0853	0.7958	-0.089
Mof_H 	H 	0.9242	0.0977	0.8013	0.091
Mof_C 	C 	0.1039	0.9163	0.8809	0.4
Mof_O 	O 	0.0226	0.8958	0.8968	0.056
Mof_O 	O 	0.1978	0.9041	0.8834	-0.72
Mof_O 	O 	0.3705	0.33404	0.5092	-0.501
Mof_O 	O 	0.35	0.36485	0.42695	-0.488
Mof_C 	C 	0.4069	0.3502	0.468	0.387
Mof_C 	C 	0.5283	0.3514	0.468	-0.092
Mof_C 	C 	0.5978	0.3458	0.5158	-0.029
Mof_H 	H 	0.5684	0.3409	0.5488	0.055
Mof_C 	C 	0.712	0.3475	0.5158	0.03
Mof_C 	C 	0.7853	0.3419	0.5644	-0.089
Mof_H 	H 	0.7573	0.3376	0.598	0.067
Mof_C 	C 	0.8957	0.3428	0.5633	0.028
Mof_H 	H 	0.9441	0.3393	0.5961	0.04
Mof_C 	C 	0.9389	0.3489	0.5136	-0.103
Mof_C 	C 	0.8703	0.3554	0.4661	-0.022
Mof_H 	H 	0.9002	0.3603	0.4332	0.045
Mof_C 	C 	0.7543	0.3549	0.4658	0.021
Mof_C 	C 	0.6816	0.3612	0.4173	-0.081
Mof_H 	H 	0.7095	0.3667	0.3839	0.063
Mof_C 	C 	0.5709	0.3594	0.4187	0.019
Mof_H 	H 	0.5221	0.3636	0.3861	0.046
Mof_C 	C 	0.0593	0.3485	0.5115	0.387
Mof_O 	O 	0.0956	0.34001	0.4685	-0.517
Mof_O 	O 	0.119	0.3552	0.557	-0.477
Mof_C 	C 	0.888	0.5633	0.633	0.189
Mof_O 	O 	0.801	0.5799	0.645	-0.898
Mof_O 	O 	0.93	0.5865	0.6001	-0.495
Mof_C 	C 	0.133	0.9174	0.874	0.3
Mof_O 	O 	0.087	0.8949	0.9059	-0.574
Mof_O 	O 	0.216	0.8984	0.8572	0.173
_end
