data_functionalizedCrystal
_audit_creation_method	'EQeq! by Chris Wilmer'
_symmetry_space_group_name_H-M	'P1'
_symmetry_Int_Tables_number	1
_symmetry_cell_setting	triclinic
loop_
_symmetry_equiv_pos_as_xyz
  x,y,z
_cell_length_a	7.324
_cell_length_b	9.6503
_cell_length_c	11.409
_cell_angle_alpha	97.0914
_cell_angle_beta	90
_cell_angle_gamma	112.301
loop_
_atom_site_label
_atom_site_type_symbol
_atom_site_fract_x
_atom_site_fract_y
_atom_site_fract_z
_atom_site_charge
Mof_Co	Co	0.59524	0.49808	0.5031	1.223
Mof_Co	Co	0.09716	0.50192	0.4969	1.216
Mof_H 	H 	0.867	0.0274	0.3903	0.246
Mof_H 	H 	0.4114	0.2858	0.2698	0.006
Mof_H 	H 	0.4082	0.2804	0.0681	0.072
Mof_H 	H 	0.7789	0.7168	0.1159	0.086
Mof_H 	H 	0.7704	0.7098	0.3155	0.031
Mof_H 	H 	0.6007	0.7038	0.7332	0.022
Mof_H 	H 	0.6124	0.7152	0.9329	0.077
Mof_H 	H 	0.5849	0.286	0.8892	0.078
Mof_H 	H 	0.5891	0.294	0.69	0.023
Mof_H 	H 	0.2087	0.0044	0.3982	0.057
Mof_H 	H 	0.8396	0.9726	0.6097	0.234
Mof_H 	H 	0.1256	0.7142	0.7302	0.002
Mof_H 	H 	0.1278	0.7196	0.9319	0.074
Mof_H 	H 	0.0621	0.2832	0.8841	0.075
Mof_H 	H 	0.0606	0.2902	0.6845	0.02
Mof_H 	H 	0.8969	0.2962	0.2668	0.022
Mof_H 	H 	0.8972	0.2848	0.0671	0.068
Mof_H 	H 	0.2989	0.714	0.1108	0.069
Mof_H 	H 	0.2951	0.706	0.31	0.026
Mof_H 	H 	0.2043	0.9956	0.6018	0.075
Mof_C 	C 	0.4869	0.3728	0.238	0.077
Mof_C 	C 	0.4831	0.369	0.1166	-0.126
Mof_C 	C 	0.5934	0.5002	0.0668	0.056
Mof_C 	C 	0.7028	0.6278	0.1448	-0.121
Mof_C 	C 	0.6984	0.6224	0.265	0.075
Mof_C 	C 	0.6011	0.62	0.7657	0.078
Mof_C 	C 	0.6039	0.627	0.8857	-0.123
Mof_C 	C 	0.5937	0.5002	0.9373	0.055
Mof_C 	C 	0.5895	0.3728	0.8596	-0.121
Mof_C 	C 	0.5922	0.3788	0.7397	0.082
Mof_C 	C 	0.199	0.2092	0.4675	0.327
Mof_C 	C 	0.1112	0.0354	0.4407	-0.005
Mof_C 	C 	0.1141	0.6272	0.762	0.077
Mof_C 	C 	0.1141	0.631	0.8834	-0.137
Mof_C 	C 	0.0932	0.4998	0.9332	0.063
Mof_C 	C 	0.075	0.3722	0.8552	-0.135
Mof_C 	C 	0.076	0.3776	0.735	0.072
Mof_C 	C 	0.9811	0.38	0.2343	0.09
Mof_C 	C 	0.9769	0.373	0.1143	-0.079
Mof_C 	C 	0.0935	0.4998	0.0627	0.008
Mof_C 	C 	0.2167	0.6272	0.1404	-0.108
Mof_C 	C 	0.2134	0.6212	0.2603	0.062
Mof_C 	C 	0.9898	0.7908	0.5325	0.402
Mof_C 	C 	0.0758	0.9646	0.5593	-0.062
Mof_N 	N 	0.5989	0.4988	0.6905	-0.207
Mof_N 	N 	0.5952	0.4972	0.3123	-0.204
Mof_N 	N 	0.1001	0.5012	0.3095	-0.222
Mof_N 	N 	0.098	0.5028	0.6877	-0.21
Mof_O 	O 	0.385	0.2696	0.489	-0.371
Mof_O 	O 	0.0811	0.274	0.4653	-0.389
Mof_O 	O 	0.936	0.98	0.3688	-0.327
Mof_O 	O 	0.1154	0.7304	0.511	-0.408
Mof_O 	O 	0.8071	0.726	0.5347	-0.389
Mof_O 	O 	0.956	0.02	0.6312	-0.302
Mof_F 	F 	0.79979	0.40658	0.4894	-0.635
Mof_F 	F 	0.39321	0.59342	0.5106	-0.645
_end
