# CIF file generated by openbabel 3.1.0, see https://openbabel.org
data_I
_chemical_name_common 'image0'
_cell_length_a 28.552
_cell_length_b 27.8454
_cell_length_c 27.887
_cell_angle_alpha 90
_cell_angle_beta 120.61
_cell_angle_gamma 90
_space_group_name_H-M_alt 'P 1'
_space_group_name_Hall 'P 1'
loop_
    _symmetry_equiv_pos_as_xyz
    x,y,z
loop_
    _atom_site_label
    _atom_site_type_symbol
    _atom_site_fract_x
    _atom_site_fract_y
    _atom_site_fract_z
    _atom_site_occupancy
    W1       W        0.14493    0.62793    0.19992    1.000
    W2       W        0.22764    0.62804    0.14688    1.000
    W3       W        0.19343    0.57842    0.33850    1.000
    W4       W        0.26763    0.41135    0.35364    1.000
    W5       W        0.36485    0.57968    0.22854    1.000
    W6       W        0.35895    0.41194    0.29547    1.000
    W7       W        0.41043    0.53648    0.35685    1.000
    W8       W        0.14141    0.45450    0.27700    1.000
    W9       W        0.32045    0.53570    0.41408    1.000
    W10      W        0.31551    0.45545    0.16746    1.000
    W11      W        0.09327    0.50417    0.13620    1.000
    W12      W        0.11230    0.37155    0.16000    1.000
    W13      W        0.19790    0.37127    0.10803    1.000
    W14      W        0.17564    0.50341    0.08420    1.000
    W15      W        0.24136    0.32862    0.23843    1.000
    Ni1      Ni       0.42111    0.62610    0.45475    1.000
    Ni2      Ni       0.19318    0.70465    0.32315    1.000
    Ni3      Ni       0.34977    0.53122    0.55584    1.000
    Ni4      Ni       0.26293    0.70084    0.26481    1.000
    Ni5      Ni       0.38018    0.66170    0.33446    1.000
    Ni6      Ni       0.30331    0.66168    0.38333    1.000
    Ni7      Ni       0.34620    0.70489    0.22319    1.000
    P1       P        0.27889    0.58552    0.28321    1.000
    P2       P        0.22292    0.45127    0.21584    1.000
    O1       O        0.33980    0.59810    0.42290    1.000
    O2       O        0.34720    0.51090    0.20330    1.000
    O3       O        0.16980    0.51010    0.31500    1.000
    O4       O        0.16860    0.43200    0.07950    1.000
    O5       O        0.37970    0.68000    0.40400    1.000
    O6       O        0.26310    0.67620    0.19470    1.000
    O7       O        0.30000    0.63620    0.30950    1.000
    O8       O        0.16320    0.32120    0.20340    1.000
    O9       O        0.12410    0.39820    0.22740    1.000
    O10      O        0.26280    0.27060    0.26440    1.000
    O11      O        0.21930    0.45570    0.26810    1.000
    O12      O        0.15110    0.59120    0.26000    1.000
    O13      O        0.18530    0.48900    0.17070    1.000
    O14      O        0.34040    0.71950    0.29020    1.000
    O15      O        0.20210    0.40060    0.19130    1.000
    O16      O        0.22870    0.32120    0.16330    1.000
    O17      O        0.26320    0.55760    0.32130    1.000
    O18      O        0.22540    0.63590    0.35190    1.000
    O19      O        0.15930    0.64300    0.14120    1.000
    O20      O        0.32460    0.55850    0.28000    1.000
    O21      O        0.36870    0.51720    0.39130    1.000
    O22      O        0.32610    0.41330    0.33970    1.000
    O23      O        0.36380    0.41700    0.22900    1.000
    O24      O        0.30320    0.69160    0.44980    1.000
    O25      O        0.29230    0.59050    0.17120    1.000
    O26      O        0.28530    0.47010    0.38480    1.000
    O27      O        0.35500    0.51710    0.48360    1.000
    O28      O        0.18530    0.67610    0.24300    1.000
    O29      O        0.22930    0.59210    0.22450    1.000
    O30      O        0.10850    0.48890    0.20890    1.000
    O31      O        0.28110    0.45570    0.22890    1.000
    O32      O        0.26700    0.39930    0.13850    1.000
    O33      O        0.30680    0.35880    0.25740    1.000
    O34      O        0.24240    0.35820    0.29780    1.000
    O35      O        0.09160    0.43250    0.12850    1.000
    O36      O        0.18890    0.56480    0.10980    1.000
    O37      O        0.11600    0.56540    0.15580    1.000
    O38      O        0.38740    0.47060    0.31860    1.000
    O39      O        0.42290    0.55240    0.29720    1.000
    O40      O        0.25070    0.55130    0.40580    1.000
    O41      O        0.36990    0.63750    0.26020    1.000
    O42      O        0.08530    0.44800    0.28470    1.000
    O43      O        0.26700    0.71910    0.33570    1.000
    O44      O        0.12890    0.35410    0.10290    1.000
    O45      O        0.10410    0.50510    0.07380    1.000
    O46      O        0.34250    0.44980    0.12460    1.000
    O47      O        0.21900    0.72240    0.40520    1.000
    O48      O        0.42710    0.72200    0.26570    1.000
    O49      O        0.45180    0.69120    0.35380    1.000
    O50      O        0.24970    0.48940    0.11860    1.000
    O51      O        0.41330    0.59830    0.37870    1.000
    O52      O        0.19280    0.41520    0.33570    1.000
    N1       N        0.34490    0.68820    0.15150    1.000
    H1       H        0.37820    0.67850    0.15960    1.000
    H2       H        0.32150    0.66380    0.13430    1.000
    N2       N        0.00640    0.50620    0.30240    1.000
    H3       H        0.98320    0.50200    0.31480    1.000
    H4       H        0.04050    0.50810    0.33190    1.000
    N3       N        0.32140    0.77060    0.18350    1.000
    H5       H        0.29100    0.77970    0.18320    1.000
    H6       H        0.34740    0.79250    0.20320    1.000
    N4       N        0.37490    0.46150    0.58200    1.000
    H7       H        0.39850    0.45180    0.57150    1.000
    H8       H        0.39140    0.45950    0.61930    1.000
    N5       N        0.46570    0.56880    0.50340    1.000
    H9       H        0.45370    0.56020    0.52640    1.000
    H10      H        0.46220    0.54350    0.48180    1.000
    N6       N        0.49610    0.65590    0.47920    1.000
    H11      H        0.49590    0.67000    0.45000    1.000
    H12      H        0.50470    0.67810    0.50580    1.000
    N7       N        0.11650    0.68640    0.30440    1.000
    H13      H        0.10120    0.66650    0.27490    1.000
    H14      H        0.11760    0.67140    0.33350    1.000
    N8       N        0.15870    0.76960    0.29480    1.000
    H15      H        0.17470    0.79090    0.32290    1.000
    H16      H        0.16540    0.77910    0.26800    1.000
    N9       N        0.27290    0.50060    0.51440    1.000
    H17      H        0.25290    0.51140    0.52870    1.000
    H18      H        0.25570    0.50830    0.47800    1.000
    C1       C        0.26470    0.71460    0.44870    1.000
    C2       C        0.27400    0.73790    0.50110    1.000
    H19      H        0.30260    0.76160    0.51230    1.000
    H20      H        0.28730    0.71360    0.53000    1.000
    C3       C        0.31040    0.77010    0.12640    1.000
    H21      H        0.27150    0.77300    0.10120    1.000
    H22      H        0.32750    0.79810    0.12100    1.000
    C4       C        0.52120    0.58340    0.53490    1.000
    H23      H        0.54450    0.55530    0.54670    1.000
    H24      H        0.52740    0.60040    0.56800    1.000
    C5       C        0.46060    0.71230    0.31680    1.000
    C6       C        0.09830    0.77120    0.27160    1.000
    H25      H        0.08840    0.80030    0.28340    1.000
    H26      H        0.07910    0.77060    0.23120    1.000
    C7       C        0.08460    0.73130    0.29150    1.000
    H27      H        0.04710    0.72330    0.26440    1.000
    H28      H        0.08530    0.74100    0.32530    1.000
    C8       C        0.31500    0.72350    0.05070    1.000
    H29      H        0.27890    0.71030    0.02860    1.000
    H30      H        0.34090    0.70170    0.05070    1.000
    H31      H        0.31670    0.75370    0.03520    1.000
    C9       C        0.99300    0.54960    0.26800    1.000
    H32      H        0.95300    0.54700    0.24500    1.000
    C10      C        0.00100    0.59990    0.27900    1.000
    H33      H        0.03600    0.60870    0.31080    1.000
    H34      H        0.97130    0.61680    0.27890    1.000
    C11      C        0.27900    0.45220    0.52100    1.000
    H35      H        0.27000    0.45400    0.55000    1.000
    C12      C        0.23450    0.41690    0.49000    1.000
    H36      H        0.24960    0.38520    0.49560    1.000
    H37      H        0.21550    0.42440    0.45090    1.000
    H38      H        0.20960    0.41820    0.50350    1.000
    C13      C        0.32770    0.43280    0.55660    1.000
    H39      H        0.33410    0.40720    0.53710    1.000
    H40      H        0.32450    0.41800    0.58630    1.000
    C14      C        0.32770    0.73120    0.11230    1.000
    H41      H        0.36500    0.74300    0.12600    1.000
    C15      C        0.53620    0.61580    0.50110    1.000
    H42      H        0.52000    0.59600    0.46700    1.000
    C16      C        0.58470    0.61850    0.50900    1.000
    H43      H        0.58680    0.64530    0.48830    1.000
    H44      H        0.59290    0.58940    0.49580    1.000
    H45      H        0.61050    0.62270    0.54770    1.000
    C17      C        0.51900    0.72590    0.33300    1.000
    H46      H        0.51890    0.75760    0.31930    1.000
    H47      H        0.53220    0.70330    0.31670    1.000
    H48      H        0.54170    0.72540    0.37270    1.000
    W16      W        0.64493    0.12793    0.19992    1.000
    W17      W        0.72764    0.12804    0.14688    1.000
    W18      W        0.69343    0.07842    0.33850    1.000
    W19      W        0.76763    0.91135    0.35364    1.000
    W20      W        0.86485    0.07968    0.22854    1.000
    W21      W        0.85895    0.91194    0.29547    1.000
    W22      W        0.91043    0.03648    0.35685    1.000
    W23      W        0.64141    0.95450    0.27700    1.000
    W24      W        0.82045    0.03570    0.41408    1.000
    W25      W        0.81551    0.95545    0.16746    1.000
    W26      W        0.59327    0.00417    0.13620    1.000
    W27      W        0.61230    0.87155    0.16000    1.000
    W28      W        0.69790    0.87127    0.10803    1.000
    W29      W        0.67564    0.00341    0.08420    1.000
    W30      W        0.74136    0.82862    0.23843    1.000
    Ni8      Ni       0.92111    0.12610    0.45475    1.000
    Ni9      Ni       0.69318    0.20465    0.32315    1.000
    Ni10     Ni       0.84977    0.03122    0.55584    1.000
    Ni11     Ni       0.76293    0.20084    0.26481    1.000
    Ni12     Ni       0.88018    0.16170    0.33446    1.000
    Ni13     Ni       0.80331    0.16168    0.38333    1.000
    Ni14     Ni       0.84620    0.20489    0.22319    1.000
    P3       P        0.77889    0.08552    0.28321    1.000
    P4       P        0.72292    0.95127    0.21584    1.000
    O53      O        0.83980    0.09810    0.42290    1.000
    O54      O        0.84720    0.01090    0.20330    1.000
    O55      O        0.66980    0.01010    0.31500    1.000
    O56      O        0.66860    0.93200    0.07950    1.000
    O57      O        0.87970    0.18000    0.40400    1.000
    O58      O        0.76310    0.17620    0.19470    1.000
    O59      O        0.80000    0.13620    0.30950    1.000
    O60      O        0.66320    0.82120    0.20340    1.000
    O61      O        0.62410    0.89820    0.22740    1.000
    O62      O        0.76280    0.77060    0.26440    1.000
    O63      O        0.71930    0.95570    0.26810    1.000
    O64      O        0.65110    0.09120    0.26000    1.000
    O65      O        0.68530    0.98900    0.17070    1.000
    O66      O        0.84040    0.21950    0.29020    1.000
    O67      O        0.70210    0.90060    0.19130    1.000
    O68      O        0.72870    0.82120    0.16330    1.000
    O69      O        0.76320    0.05760    0.32130    1.000
    O70      O        0.72540    0.13590    0.35190    1.000
    O71      O        0.65930    0.14300    0.14120    1.000
    O72      O        0.82460    0.05850    0.28000    1.000
    O73      O        0.86870    0.01720    0.39130    1.000
    O74      O        0.82610    0.91330    0.33970    1.000
    O75      O        0.86380    0.91700    0.22900    1.000
    O76      O        0.80320    0.19160    0.44980    1.000
    O77      O        0.79230    0.09050    0.17120    1.000
    O78      O        0.78530    0.97010    0.38480    1.000
    O79      O        0.85500    0.01710    0.48360    1.000
    O80      O        0.68530    0.17610    0.24300    1.000
    O81      O        0.72930    0.09210    0.22450    1.000
    O82      O        0.60850    0.98890    0.20890    1.000
    O83      O        0.78110    0.95570    0.22890    1.000
    O84      O        0.76700    0.89930    0.13850    1.000
    O85      O        0.80680    0.85880    0.25740    1.000
    O86      O        0.74240    0.85820    0.29780    1.000
    O87      O        0.59160    0.93250    0.12850    1.000
    O88      O        0.68890    0.06480    0.10980    1.000
    O89      O        0.61600    0.06540    0.15580    1.000
    O90      O        0.88740    0.97060    0.31860    1.000
    O91      O        0.92290    0.05240    0.29720    1.000
    O92      O        0.75070    0.05130    0.40580    1.000
    O93      O        0.86990    0.13750    0.26020    1.000
    O94      O        0.58530    0.94800    0.28470    1.000
    O95      O        0.76700    0.21910    0.33570    1.000
    O96      O        0.62890    0.85410    0.10290    1.000
    O97      O        0.60410    0.00510    0.07380    1.000
    O98      O        0.84250    0.94980    0.12460    1.000
    O99      O        0.71900    0.22240    0.40520    1.000
    O100     O        0.92710    0.22200    0.26570    1.000
    O101     O        0.95180    0.19120    0.35380    1.000
    O102     O        0.74970    0.98940    0.11860    1.000
    O103     O        0.91330    0.09830    0.37870    1.000
    O104     O        0.69280    0.91520    0.33570    1.000
    N10      N        0.84490    0.18820    0.15150    1.000
    H49      H        0.87820    0.17850    0.15960    1.000
    H50      H        0.82150    0.16380    0.13430    1.000
    N11      N        0.50640    0.00620    0.30240    1.000
    H51      H        0.48320    0.00200    0.31480    1.000
    H52      H        0.54050    0.00810    0.33190    1.000
    N12      N        0.82140    0.27060    0.18350    1.000
    H53      H        0.79100    0.27970    0.18320    1.000
    H54      H        0.84740    0.29250    0.20320    1.000
    N13      N        0.87490    0.96150    0.58200    1.000
    H55      H        0.89850    0.95180    0.57150    1.000
    H56      H        0.89140    0.95950    0.61930    1.000
    N14      N        0.96570    0.06880    0.50340    1.000
    H57      H        0.95370    0.06020    0.52640    1.000
    H58      H        0.96220    0.04350    0.48180    1.000
    N15      N        0.99610    0.15590    0.47920    1.000
    H59      H        0.99590    0.17000    0.45000    1.000
    H60      H        0.00470    0.17810    0.50580    1.000
    N16      N        0.61650    0.18640    0.30440    1.000
    H61      H        0.60120    0.16650    0.27490    1.000
    H62      H        0.61760    0.17140    0.33350    1.000
    N17      N        0.65870    0.26960    0.29480    1.000
    H63      H        0.67470    0.29090    0.32290    1.000
    H64      H        0.66540    0.27910    0.26800    1.000
    N18      N        0.77290    0.00060    0.51440    1.000
    H65      H        0.75290    0.01140    0.52870    1.000
    H66      H        0.75570    0.00830    0.47800    1.000
    C18      C        0.76470    0.21460    0.44870    1.000
    C19      C        0.77400    0.23790    0.50110    1.000
    H67      H        0.80260    0.26160    0.51230    1.000
    H68      H        0.78730    0.21360    0.53000    1.000
    C20      C        0.81040    0.27010    0.12640    1.000
    H69      H        0.77150    0.27300    0.10120    1.000
    H70      H        0.82750    0.29810    0.12100    1.000
    C21      C        0.02120    0.08340    0.53490    1.000
    H71      H        0.04450    0.05530    0.54670    1.000
    H72      H        0.02740    0.10040    0.56800    1.000
    C22      C        0.96060    0.21230    0.31680    1.000
    C23      C        0.59830    0.27120    0.27160    1.000
    H73      H        0.58840    0.30030    0.28340    1.000
    H74      H        0.57910    0.27060    0.23120    1.000
    C24      C        0.58460    0.23130    0.29150    1.000
    H75      H        0.54710    0.22330    0.26440    1.000
    H76      H        0.58530    0.24100    0.32530    1.000
    C25      C        0.81500    0.22350    0.05070    1.000
    H77      H        0.77890    0.21030    0.02860    1.000
    H78      H        0.84090    0.20170    0.05070    1.000
    H79      H        0.81670    0.25370    0.03520    1.000
    C26      C        0.49300    0.04960    0.26800    1.000
    H80      H        0.45300    0.04700    0.24500    1.000
    C27      C        0.50100    0.09990    0.27900    1.000
    H81      H        0.53600    0.10870    0.31080    1.000
    H82      H        0.47130    0.11680    0.27890    1.000
    C28      C        0.77900    0.95220    0.52100    1.000
    H83      H        0.77000    0.95400    0.55000    1.000
    C29      C        0.73450    0.91690    0.49000    1.000
    H84      H        0.74960    0.88520    0.49560    1.000
    H85      H        0.71550    0.92440    0.45090    1.000
    H86      H        0.70960    0.91820    0.50350    1.000
    C30      C        0.82770    0.93280    0.55660    1.000
    H87      H        0.83410    0.90720    0.53710    1.000
    H88      H        0.82450    0.91800    0.58630    1.000
    C31      C        0.82770    0.23120    0.11230    1.000
    H89      H        0.86500    0.24300    0.12600    1.000
    C32      C        0.03620    0.11580    0.50110    1.000
    H90      H        0.02000    0.09600    0.46700    1.000
    C33      C        0.08470    0.11850    0.50900    1.000
    H91      H        0.08680    0.14530    0.48830    1.000
    H92      H        0.09290    0.08940    0.49580    1.000
    H93      H        0.11050    0.12270    0.54770    1.000
    C34      C        0.01900    0.22590    0.33300    1.000
    H94      H        0.01890    0.25760    0.31930    1.000
    H95      H        0.03220    0.20330    0.31670    1.000
    H96      H        0.04170    0.22540    0.37270    1.000
    W31      W        0.85507    0.62793    0.30008    1.000
    W32      W        0.77236    0.62804    0.35312    1.000
    W33      W        0.80657    0.57842    0.16150    1.000
    W34      W        0.73237    0.41135    0.14636    1.000
    W35      W        0.63515    0.57968    0.27146    1.000
    W36      W        0.64105    0.41194    0.20453    1.000
    W37      W        0.58957    0.53648    0.14315    1.000
    W38      W        0.85859    0.45450    0.22300    1.000
    W39      W        0.67955    0.53570    0.08592    1.000
    W40      W        0.68449    0.45545    0.33254    1.000
    W41      W        0.90673    0.50417    0.36380    1.000
    W42      W        0.88770    0.37155    0.34000    1.000
    W43      W        0.80210    0.37127    0.39197    1.000
    W44      W        0.82436    0.50341    0.41580    1.000
    W45      W        0.75864    0.32862    0.26157    1.000
    Ni15     Ni       0.57889    0.62610    0.04525    1.000
    Ni16     Ni       0.80682    0.70465    0.17685    1.000
    Ni17     Ni       0.65023    0.53122    0.94416    1.000
    Ni18     Ni       0.73707    0.70084    0.23519    1.000
    Ni19     Ni       0.61982    0.66170    0.16554    1.000
    Ni20     Ni       0.69669    0.66168    0.11667    1.000
    Ni21     Ni       0.65380    0.70489    0.27681    1.000
    P5       P        0.72111    0.58552    0.21679    1.000
    P6       P        0.77708    0.45127    0.28416    1.000
    O105     O        0.66020    0.59810    0.07710    1.000
    O106     O        0.65280    0.51090    0.29670    1.000
    O107     O        0.83020    0.51010    0.18500    1.000
    O108     O        0.83140    0.43200    0.42050    1.000
    O109     O        0.62030    0.68000    0.09600    1.000
    O110     O        0.73690    0.67620    0.30530    1.000
    O111     O        0.70000    0.63620    0.19050    1.000
    O112     O        0.83680    0.32120    0.29660    1.000
    O113     O        0.87590    0.39820    0.27260    1.000
    O114     O        0.73720    0.27060    0.23560    1.000
    O115     O        0.78070    0.45570    0.23190    1.000
    O116     O        0.84890    0.59120    0.24000    1.000
    O117     O        0.81470    0.48900    0.32930    1.000
    O118     O        0.65960    0.71950    0.20980    1.000
    O119     O        0.79790    0.40060    0.30870    1.000
    O120     O        0.77130    0.32120    0.33670    1.000
    O121     O        0.73680    0.55760    0.17870    1.000
    O122     O        0.77460    0.63590    0.14810    1.000
    O123     O        0.84070    0.64300    0.35880    1.000
    O124     O        0.67540    0.55850    0.22000    1.000
    O125     O        0.63130    0.51720    0.10870    1.000
    O126     O        0.67390    0.41330    0.16030    1.000
    O127     O        0.63620    0.41700    0.27100    1.000
    O128     O        0.69680    0.69160    0.05020    1.000
    O129     O        0.70770    0.59050    0.32880    1.000
    O130     O        0.71470    0.47010    0.11520    1.000
    O131     O        0.64500    0.51710    0.01640    1.000
    O132     O        0.81470    0.67610    0.25700    1.000
    O133     O        0.77070    0.59210    0.27550    1.000
    O134     O        0.89150    0.48890    0.29110    1.000
    O135     O        0.71890    0.45570    0.27110    1.000
    O136     O        0.73300    0.39930    0.36150    1.000
    O137     O        0.69320    0.35880    0.24260    1.000
    O138     O        0.75760    0.35820    0.20220    1.000
    O139     O        0.90840    0.43250    0.37150    1.000
    O140     O        0.81110    0.56480    0.39020    1.000
    O141     O        0.88400    0.56540    0.34420    1.000
    O142     O        0.61260    0.47060    0.18140    1.000
    O143     O        0.57710    0.55240    0.20280    1.000
    O144     O        0.74930    0.55130    0.09420    1.000
    O145     O        0.63010    0.63750    0.23980    1.000
    O146     O        0.91470    0.44800    0.21530    1.000
    O147     O        0.73300    0.71910    0.16430    1.000
    O148     O        0.87110    0.35410    0.39710    1.000
    O149     O        0.89590    0.50510    0.42620    1.000
    O150     O        0.65750    0.44980    0.37540    1.000
    O151     O        0.78100    0.72240    0.09480    1.000
    O152     O        0.57290    0.72200    0.23430    1.000
    O153     O        0.54820    0.69120    0.14620    1.000
    O154     O        0.75030    0.48940    0.38140    1.000
    O155     O        0.58670    0.59830    0.12130    1.000
    O156     O        0.80720    0.41520    0.16430    1.000
    N19      N        0.65510    0.68820    0.34850    1.000
    H97      H        0.62180    0.67850    0.34040    1.000
    H98      H        0.67850    0.66380    0.36570    1.000
    N20      N        0.99360    0.50620    0.19760    1.000
    H99      H        0.01680    0.50200    0.18520    1.000
    H100     H        0.95950    0.50810    0.16810    1.000
    N21      N        0.67860    0.77060    0.31650    1.000
    H101     H        0.70900    0.77970    0.31680    1.000
    H102     H        0.65260    0.79250    0.29680    1.000
    N22      N        0.62510    0.46150    0.91800    1.000
    H103     H        0.60150    0.45180    0.92850    1.000
    H104     H        0.60860    0.45950    0.88070    1.000
    N23      N        0.53430    0.56880    0.99660    1.000
    H105     H        0.54630    0.56020    0.97360    1.000
    H106     H        0.53780    0.54350    0.01820    1.000
    N24      N        0.50390    0.65590    0.02080    1.000
    H107     H        0.50410    0.67000    0.05000    1.000
    H108     H        0.49530    0.67810    0.99420    1.000
    N25      N        0.88350    0.68640    0.19560    1.000
    H109     H        0.89880    0.66650    0.22510    1.000
    H110     H        0.88240    0.67140    0.16650    1.000
    N26      N        0.84130    0.76960    0.20520    1.000
    H111     H        0.82530    0.79090    0.17710    1.000
    H112     H        0.83460    0.77910    0.23200    1.000
    N27      N        0.72710    0.50060    0.98560    1.000
    H113     H        0.74710    0.51140    0.97130    1.000
    H114     H        0.74430    0.50830    0.02200    1.000
    C35      C        0.73530    0.71460    0.05130    1.000
    C36      C        0.72600    0.73790    0.99890    1.000
    H115     H        0.69740    0.76160    0.98770    1.000
    H116     H        0.71270    0.71360    0.97000    1.000
    C37      C        0.68960    0.77010    0.37360    1.000
    H117     H        0.72850    0.77300    0.39880    1.000
    H118     H        0.67250    0.79810    0.37900    1.000
    C38      C        0.47880    0.58340    0.96510    1.000
    H119     H        0.45550    0.55530    0.95330    1.000
    H120     H        0.47260    0.60040    0.93200    1.000
    C39      C        0.53940    0.71230    0.18320    1.000
    C40      C        0.90170    0.77120    0.22840    1.000
    H121     H        0.91160    0.80030    0.21660    1.000
    H122     H        0.92090    0.77060    0.26880    1.000
    C41      C        0.91540    0.73130    0.20850    1.000
    H123     H        0.95290    0.72330    0.23560    1.000
    H124     H        0.91470    0.74100    0.17470    1.000
    C42      C        0.68500    0.72350    0.44930    1.000
    H125     H        0.72110    0.71030    0.47140    1.000
    H126     H        0.65910    0.70170    0.44930    1.000
    H127     H        0.68330    0.75370    0.46480    1.000
    C43      C        0.00700    0.54960    0.23200    1.000
    H128     H        0.04700    0.54700    0.25500    1.000
    C44      C        0.99900    0.59990    0.22100    1.000
    H129     H        0.96400    0.60870    0.18920    1.000
    H130     H        0.02870    0.61680    0.22110    1.000
    C45      C        0.72100    0.45220    0.97900    1.000
    H131     H        0.73000    0.45400    0.95000    1.000
    C46      C        0.76550    0.41690    0.01000    1.000
    H132     H        0.75040    0.38520    0.00440    1.000
    H133     H        0.78450    0.42440    0.04910    1.000
    H134     H        0.79040    0.41820    0.99650    1.000
    C47      C        0.67230    0.43280    0.94340    1.000
    H135     H        0.66590    0.40720    0.96290    1.000
    H136     H        0.67550    0.41800    0.91370    1.000
    C48      C        0.67230    0.73120    0.38770    1.000
    H137     H        0.63500    0.74300    0.37400    1.000
    C49      C        0.46380    0.61580    0.99890    1.000
    H138     H        0.48000    0.59600    0.03300    1.000
    C50      C        0.41530    0.61850    0.99100    1.000
    H139     H        0.41320    0.64530    0.01170    1.000
    H140     H        0.40710    0.58940    0.00420    1.000
    H141     H        0.38950    0.62270    0.95230    1.000
    C51      C        0.48100    0.72590    0.16700    1.000
    H142     H        0.48110    0.75760    0.18070    1.000
    H143     H        0.46780    0.70330    0.18330    1.000
    H144     H        0.45830    0.72540    0.12730    1.000
    W46      W        0.35507    0.12793    0.30008    1.000
    W47      W        0.27236    0.12804    0.35312    1.000
    W48      W        0.30657    0.07842    0.16150    1.000
    W49      W        0.23237    0.91135    0.14636    1.000
    W50      W        0.13515    0.07968    0.27146    1.000
    W51      W        0.14105    0.91194    0.20453    1.000
    W52      W        0.08957    0.03648    0.14315    1.000
    W53      W        0.35859    0.95450    0.22300    1.000
    W54      W        0.17955    0.03570    0.08592    1.000
    W55      W        0.18449    0.95545    0.33254    1.000
    W56      W        0.40673    0.00417    0.36380    1.000
    W57      W        0.38770    0.87155    0.34000    1.000
    W58      W        0.30210    0.87127    0.39197    1.000
    W59      W        0.32436    0.00341    0.41580    1.000
    W60      W        0.25864    0.82862    0.26157    1.000
    Ni22     Ni       0.07889    0.12610    0.04525    1.000
    Ni23     Ni       0.30682    0.20465    0.17685    1.000
    Ni24     Ni       0.15023    0.03122    0.94416    1.000
    Ni25     Ni       0.23707    0.20084    0.23519    1.000
    Ni26     Ni       0.11982    0.16170    0.16554    1.000
    Ni27     Ni       0.19669    0.16168    0.11667    1.000
    Ni28     Ni       0.15380    0.20489    0.27681    1.000
    P7       P        0.22111    0.08552    0.21679    1.000
    P8       P        0.27708    0.95127    0.28416    1.000
    O157     O        0.16020    0.09810    0.07710    1.000
    O158     O        0.15280    0.01090    0.29670    1.000
    O159     O        0.33020    0.01010    0.18500    1.000
    O160     O        0.33140    0.93200    0.42050    1.000
    O161     O        0.12030    0.18000    0.09600    1.000
    O162     O        0.23690    0.17620    0.30530    1.000
    O163     O        0.20000    0.13620    0.19050    1.000
    O164     O        0.33680    0.82120    0.29660    1.000
    O165     O        0.37590    0.89820    0.27260    1.000
    O166     O        0.23720    0.77060    0.23560    1.000
    O167     O        0.28070    0.95570    0.23190    1.000
    O168     O        0.34890    0.09120    0.24000    1.000
    O169     O        0.31470    0.98900    0.32930    1.000
    O170     O        0.15960    0.21950    0.20980    1.000
    O171     O        0.29790    0.90060    0.30870    1.000
    O172     O        0.27130    0.82120    0.33670    1.000
    O173     O        0.23680    0.05760    0.17870    1.000
    O174     O        0.27460    0.13590    0.14810    1.000
    O175     O        0.34070    0.14300    0.35880    1.000
    O176     O        0.17540    0.05850    0.22000    1.000
    O177     O        0.13130    0.01720    0.10870    1.000
    O178     O        0.17390    0.91330    0.16030    1.000
    O179     O        0.13620    0.91700    0.27100    1.000
    O180     O        0.19680    0.19160    0.05020    1.000
    O181     O        0.20770    0.09050    0.32880    1.000
    O182     O        0.21470    0.97010    0.11520    1.000
    O183     O        0.14500    0.01710    0.01640    1.000
    O184     O        0.31470    0.17610    0.25700    1.000
    O185     O        0.27070    0.09210    0.27550    1.000
    O186     O        0.39150    0.98890    0.29110    1.000
    O187     O        0.21890    0.95570    0.27110    1.000
    O188     O        0.23300    0.89930    0.36150    1.000
    O189     O        0.19320    0.85880    0.24260    1.000
    O190     O        0.25760    0.85820    0.20220    1.000
    O191     O        0.40840    0.93250    0.37150    1.000
    O192     O        0.31110    0.06480    0.39020    1.000
    O193     O        0.38400    0.06540    0.34420    1.000
    O194     O        0.11260    0.97060    0.18140    1.000
    O195     O        0.07710    0.05240    0.20280    1.000
    O196     O        0.24930    0.05130    0.09420    1.000
    O197     O        0.13010    0.13750    0.23980    1.000
    O198     O        0.41470    0.94800    0.21530    1.000
    O199     O        0.23300    0.21910    0.16430    1.000
    O200     O        0.37110    0.85410    0.39710    1.000
    O201     O        0.39590    0.00510    0.42620    1.000
    O202     O        0.15750    0.94980    0.37540    1.000
    O203     O        0.28100    0.22240    0.09480    1.000
    O204     O        0.07290    0.22200    0.23430    1.000
    O205     O        0.04820    0.19120    0.14620    1.000
    O206     O        0.25030    0.98940    0.38140    1.000
    O207     O        0.08670    0.09830    0.12130    1.000
    O208     O        0.30720    0.91520    0.16430    1.000
    N28      N        0.15510    0.18820    0.34850    1.000
    H145     H        0.12180    0.17850    0.34040    1.000
    H146     H        0.17850    0.16380    0.36570    1.000
    N29      N        0.49360    0.00620    0.19760    1.000
    H147     H        0.51680    0.00200    0.18520    1.000
    H148     H        0.45950    0.00810    0.16810    1.000
    N30      N        0.17860    0.27060    0.31650    1.000
    H149     H        0.20900    0.27970    0.31680    1.000
    H150     H        0.15260    0.29250    0.29680    1.000
    N31      N        0.12510    0.96150    0.91800    1.000
    H151     H        0.10150    0.95180    0.92850    1.000
    H152     H        0.10860    0.95950    0.88070    1.000
    N32      N        0.03430    0.06880    0.99660    1.000
    H153     H        0.04630    0.06020    0.97360    1.000
    H154     H        0.03780    0.04350    0.01820    1.000
    N33      N        0.00390    0.15590    0.02080    1.000
    H155     H        0.00410    0.17000    0.05000    1.000
    H156     H        0.99530    0.17810    0.99420    1.000
    N34      N        0.38350    0.18640    0.19560    1.000
    H157     H        0.39880    0.16650    0.22510    1.000
    H158     H        0.38240    0.17140    0.16650    1.000
    N35      N        0.34130    0.26960    0.20520    1.000
    H159     H        0.32530    0.29090    0.17710    1.000
    H160     H        0.33460    0.27910    0.23200    1.000
    N36      N        0.22710    0.00060    0.98560    1.000
    H161     H        0.24710    0.01140    0.97130    1.000
    H162     H        0.24430    0.00830    0.02200    1.000
    C52      C        0.23530    0.21460    0.05130    1.000
    C53      C        0.22600    0.23790    0.99890    1.000
    H163     H        0.19740    0.26160    0.98770    1.000
    H164     H        0.21270    0.21360    0.97000    1.000
    C54      C        0.18960    0.27010    0.37360    1.000
    H165     H        0.22850    0.27300    0.39880    1.000
    H166     H        0.17250    0.29810    0.37900    1.000
    C55      C        0.97880    0.08340    0.96510    1.000
    H167     H        0.95550    0.05530    0.95330    1.000
    H168     H        0.97260    0.10040    0.93200    1.000
    C56      C        0.03940    0.21230    0.18320    1.000
    C57      C        0.40170    0.27120    0.22840    1.000
    H169     H        0.41160    0.30030    0.21660    1.000
    H170     H        0.42090    0.27060    0.26880    1.000
    C58      C        0.41540    0.23130    0.20850    1.000
    H171     H        0.45290    0.22330    0.23560    1.000
    H172     H        0.41470    0.24100    0.17470    1.000
    C59      C        0.18500    0.22350    0.44930    1.000
    H173     H        0.22110    0.21030    0.47140    1.000
    H174     H        0.15910    0.20170    0.44930    1.000
    H175     H        0.18330    0.25370    0.46480    1.000
    C60      C        0.50700    0.04960    0.23200    1.000
    H176     H        0.54700    0.04700    0.25500    1.000
    C61      C        0.49900    0.09990    0.22100    1.000
    H177     H        0.46400    0.10870    0.18920    1.000
    H178     H        0.52870    0.11680    0.22110    1.000
    C62      C        0.22100    0.95220    0.97900    1.000
    H179     H        0.23000    0.95400    0.95000    1.000
    C63      C        0.26550    0.91690    0.01000    1.000
    H180     H        0.25040    0.88520    0.00440    1.000
    H181     H        0.28450    0.92440    0.04910    1.000
    H182     H        0.29040    0.91820    0.99650    1.000
    C64      C        0.17230    0.93280    0.94340    1.000
    H183     H        0.16590    0.90720    0.96290    1.000
    H184     H        0.17550    0.91800    0.91370    1.000
    C65      C        0.17230    0.23120    0.38770    1.000
    H185     H        0.13500    0.24300    0.37400    1.000
    C66      C        0.96380    0.11580    0.99890    1.000
    H186     H        0.98000    0.09600    0.03300    1.000
    C67      C        0.91530    0.11850    0.99100    1.000
    H187     H        0.91320    0.14530    0.01170    1.000
    H188     H        0.90710    0.08940    0.00420    1.000
    H189     H        0.88950    0.12270    0.95230    1.000
    C68      C        0.98100    0.22590    0.16700    1.000
    H190     H        0.98110    0.25760    0.18070    1.000
    H191     H        0.96780    0.20330    0.18330    1.000
    H192     H        0.95830    0.22540    0.12730    1.000
    W61      W        0.85507    0.37207    0.80008    1.000
    W62      W        0.77236    0.37196    0.85312    1.000
    W63      W        0.80657    0.42158    0.66150    1.000
    W64      W        0.73237    0.58865    0.64636    1.000
    W65      W        0.63515    0.42032    0.77146    1.000
    W66      W        0.64105    0.58806    0.70453    1.000
    W67      W        0.58957    0.46352    0.64315    1.000
    W68      W        0.85859    0.54550    0.72300    1.000
    W69      W        0.67955    0.46430    0.58592    1.000
    W70      W        0.68449    0.54455    0.83254    1.000
    W71      W        0.90673    0.49583    0.86380    1.000
    W72      W        0.88770    0.62845    0.84000    1.000
    W73      W        0.80210    0.62873    0.89197    1.000
    W74      W        0.82436    0.49659    0.91580    1.000
    W75      W        0.75864    0.67138    0.76157    1.000
    Ni29     Ni       0.57889    0.37390    0.54525    1.000
    Ni30     Ni       0.80682    0.29535    0.67685    1.000
    Ni31     Ni       0.65023    0.46878    0.44416    1.000
    Ni32     Ni       0.73707    0.29916    0.73519    1.000
    Ni33     Ni       0.61982    0.33830    0.66554    1.000
    Ni34     Ni       0.69669    0.33832    0.61667    1.000
    Ni35     Ni       0.65380    0.29511    0.77681    1.000
    P9       P        0.72111    0.41448    0.71679    1.000
    P10      P        0.77708    0.54873    0.78416    1.000
    O209     O        0.66020    0.40190    0.57710    1.000
    O210     O        0.65280    0.48910    0.79670    1.000
    O211     O        0.83020    0.48990    0.68500    1.000
    O212     O        0.83140    0.56800    0.92050    1.000
    O213     O        0.62030    0.32000    0.59600    1.000
    O214     O        0.73690    0.32380    0.80530    1.000
    O215     O        0.70000    0.36380    0.69050    1.000
    O216     O        0.83680    0.67880    0.79660    1.000
    O217     O        0.87590    0.60180    0.77260    1.000
    O218     O        0.73720    0.72940    0.73560    1.000
    O219     O        0.78070    0.54430    0.73190    1.000
    O220     O        0.84890    0.40880    0.74000    1.000
    O221     O        0.81470    0.51100    0.82930    1.000
    O222     O        0.65960    0.28050    0.70980    1.000
    O223     O        0.79790    0.59940    0.80870    1.000
    O224     O        0.77130    0.67880    0.83670    1.000
    O225     O        0.73680    0.44240    0.67870    1.000
    O226     O        0.77460    0.36410    0.64810    1.000
    O227     O        0.84070    0.35700    0.85880    1.000
    O228     O        0.67540    0.44150    0.72000    1.000
    O229     O        0.63130    0.48280    0.60870    1.000
    O230     O        0.67390    0.58670    0.66030    1.000
    O231     O        0.63620    0.58300    0.77100    1.000
    O232     O        0.69680    0.30840    0.55020    1.000
    O233     O        0.70770    0.40950    0.82880    1.000
    O234     O        0.71470    0.52990    0.61520    1.000
    O235     O        0.64500    0.48290    0.51640    1.000
    O236     O        0.81470    0.32390    0.75700    1.000
    O237     O        0.77070    0.40790    0.77550    1.000
    O238     O        0.89150    0.51110    0.79110    1.000
    O239     O        0.71890    0.54430    0.77110    1.000
    O240     O        0.73300    0.60070    0.86150    1.000
    O241     O        0.69320    0.64120    0.74260    1.000
    O242     O        0.75760    0.64180    0.70220    1.000
    O243     O        0.90840    0.56750    0.87150    1.000
    O244     O        0.81110    0.43520    0.89020    1.000
    O245     O        0.88400    0.43460    0.84420    1.000
    O246     O        0.61260    0.52940    0.68140    1.000
    O247     O        0.57710    0.44760    0.70280    1.000
    O248     O        0.74930    0.44870    0.59420    1.000
    O249     O        0.63010    0.36250    0.73980    1.000
    O250     O        0.91470    0.55200    0.71530    1.000
    O251     O        0.73300    0.28090    0.66430    1.000
    O252     O        0.87110    0.64590    0.89710    1.000
    O253     O        0.89590    0.49490    0.92620    1.000
    O254     O        0.65750    0.55020    0.87540    1.000
    O255     O        0.78100    0.27760    0.59480    1.000
    O256     O        0.57290    0.27800    0.73430    1.000
    O257     O        0.54820    0.30880    0.64620    1.000
    O258     O        0.75030    0.51060    0.88140    1.000
    O259     O        0.58670    0.40170    0.62130    1.000
    O260     O        0.80720    0.58480    0.66430    1.000
    N37      N        0.65510    0.31180    0.84850    1.000
    H193     H        0.62180    0.32150    0.84040    1.000
    H194     H        0.67850    0.33620    0.86570    1.000
    N38      N        0.99360    0.49380    0.69760    1.000
    H195     H        0.01680    0.49800    0.68520    1.000
    H196     H        0.95950    0.49190    0.66810    1.000
    N39      N        0.67860    0.22940    0.81650    1.000
    H197     H        0.70900    0.22030    0.81680    1.000
    H198     H        0.65260    0.20750    0.79680    1.000
    N40      N        0.62510    0.53850    0.41800    1.000
    H199     H        0.60150    0.54820    0.42850    1.000
    H200     H        0.60860    0.54050    0.38070    1.000
    N41      N        0.53430    0.43120    0.49660    1.000
    H201     H        0.54630    0.43980    0.47360    1.000
    H202     H        0.53780    0.45650    0.51820    1.000
    N42      N        0.50390    0.34410    0.52080    1.000
    H203     H        0.50410    0.33000    0.55000    1.000
    H204     H        0.49530    0.32190    0.49420    1.000
    N43      N        0.88350    0.31360    0.69560    1.000
    H205     H        0.89880    0.33350    0.72510    1.000
    H206     H        0.88240    0.32860    0.66650    1.000
    N44      N        0.84130    0.23040    0.70520    1.000
    H207     H        0.82530    0.20910    0.67710    1.000
    H208     H        0.83460    0.22090    0.73200    1.000
    N45      N        0.72710    0.49940    0.48560    1.000
    H209     H        0.74710    0.48860    0.47130    1.000
    H210     H        0.74430    0.49170    0.52200    1.000
    C69      C        0.73530    0.28540    0.55130    1.000
    C70      C        0.72600    0.26210    0.49890    1.000
    H211     H        0.69740    0.23840    0.48770    1.000
    H212     H        0.71270    0.28640    0.47000    1.000
    C71      C        0.68960    0.22990    0.87360    1.000
    H213     H        0.72850    0.22700    0.89880    1.000
    H214     H        0.67250    0.20190    0.87900    1.000
    C72      C        0.47880    0.41660    0.46510    1.000
    H215     H        0.45550    0.44470    0.45330    1.000
    H216     H        0.47260    0.39960    0.43200    1.000
    C73      C        0.53940    0.28770    0.68320    1.000
    C74      C        0.90170    0.22880    0.72840    1.000
    H217     H        0.91160    0.19970    0.71660    1.000
    H218     H        0.92090    0.22940    0.76880    1.000
    C75      C        0.91540    0.26870    0.70850    1.000
    H219     H        0.95290    0.27670    0.73560    1.000
    H220     H        0.91470    0.25900    0.67470    1.000
    C76      C        0.68500    0.27650    0.94930    1.000
    H221     H        0.72110    0.28970    0.97140    1.000
    H222     H        0.65910    0.29830    0.94930    1.000
    H223     H        0.68330    0.24630    0.96480    1.000
    C77      C        0.00700    0.45040    0.73200    1.000
    H224     H        0.04700    0.45300    0.75500    1.000
    C78      C        0.99900    0.40010    0.72100    1.000
    H225     H        0.96400    0.39130    0.68920    1.000
    H226     H        0.02870    0.38320    0.72110    1.000
    C79      C        0.72100    0.54780    0.47900    1.000
    H227     H        0.73000    0.54600    0.45000    1.000
    C80      C        0.76550    0.58310    0.51000    1.000
    H228     H        0.75040    0.61480    0.50440    1.000
    H229     H        0.78450    0.57560    0.54910    1.000
    H230     H        0.79040    0.58180    0.49650    1.000
    C81      C        0.67230    0.56720    0.44340    1.000
    H231     H        0.66590    0.59280    0.46290    1.000
    H232     H        0.67550    0.58200    0.41370    1.000
    C82      C        0.67230    0.26880    0.88770    1.000
    H233     H        0.63500    0.25700    0.87400    1.000
    C83      C        0.46380    0.38420    0.49890    1.000
    H234     H        0.48000    0.40400    0.53300    1.000
    C84      C        0.41530    0.38150    0.49100    1.000
    H235     H        0.41320    0.35470    0.51170    1.000
    H236     H        0.40710    0.41060    0.50420    1.000
    H237     H        0.38950    0.37730    0.45230    1.000
    C85      C        0.48100    0.27410    0.66700    1.000
    H238     H        0.48110    0.24240    0.68070    1.000
    H239     H        0.46780    0.29670    0.68330    1.000
    H240     H        0.45830    0.27460    0.62730    1.000
    W76      W        0.35507    0.87207    0.80008    1.000
    W77      W        0.27236    0.87196    0.85312    1.000
    W78      W        0.30657    0.92158    0.66150    1.000
    W79      W        0.23237    0.08865    0.64636    1.000
    W80      W        0.13515    0.92032    0.77146    1.000
    W81      W        0.14105    0.08806    0.70453    1.000
    W82      W        0.08957    0.96352    0.64315    1.000
    W83      W        0.35859    0.04550    0.72300    1.000
    W84      W        0.17955    0.96430    0.58592    1.000
    W85      W        0.18449    0.04455    0.83254    1.000
    W86      W        0.40673    0.99583    0.86380    1.000
    W87      W        0.38770    0.12845    0.84000    1.000
    W88      W        0.30210    0.12873    0.89197    1.000
    W89      W        0.32436    0.99659    0.91580    1.000
    W90      W        0.25864    0.17138    0.76157    1.000
    Ni36     Ni       0.07889    0.87390    0.54525    1.000
    Ni37     Ni       0.30682    0.79535    0.67685    1.000
    Ni38     Ni       0.15023    0.96878    0.44416    1.000
    Ni39     Ni       0.23707    0.79916    0.73519    1.000
    Ni40     Ni       0.11982    0.83830    0.66554    1.000
    Ni41     Ni       0.19669    0.83832    0.61667    1.000
    Ni42     Ni       0.15380    0.79511    0.77681    1.000
    P11      P        0.22111    0.91448    0.71679    1.000
    P12      P        0.27708    0.04873    0.78416    1.000
    O261     O        0.16020    0.90190    0.57710    1.000
    O262     O        0.15280    0.98910    0.79670    1.000
    O263     O        0.33020    0.98990    0.68500    1.000
    O264     O        0.33140    0.06800    0.92050    1.000
    O265     O        0.12030    0.82000    0.59600    1.000
    O266     O        0.23690    0.82380    0.80530    1.000
    O267     O        0.20000    0.86380    0.69050    1.000
    O268     O        0.33680    0.17880    0.79660    1.000
    O269     O        0.37590    0.10180    0.77260    1.000
    O270     O        0.23720    0.22940    0.73560    1.000
    O271     O        0.28070    0.04430    0.73190    1.000
    O272     O        0.34890    0.90880    0.74000    1.000
    O273     O        0.31470    0.01100    0.82930    1.000
    O274     O        0.15960    0.78050    0.70980    1.000
    O275     O        0.29790    0.09940    0.80870    1.000
    O276     O        0.27130    0.17880    0.83670    1.000
    O277     O        0.23680    0.94240    0.67870    1.000
    O278     O        0.27460    0.86410    0.64810    1.000
    O279     O        0.34070    0.85700    0.85880    1.000
    O280     O        0.17540    0.94150    0.72000    1.000
    O281     O        0.13130    0.98280    0.60870    1.000
    O282     O        0.17390    0.08670    0.66030    1.000
    O283     O        0.13620    0.08300    0.77100    1.000
    O284     O        0.19680    0.80840    0.55020    1.000
    O285     O        0.20770    0.90950    0.82880    1.000
    O286     O        0.21470    0.02990    0.61520    1.000
    O287     O        0.14500    0.98290    0.51640    1.000
    O288     O        0.31470    0.82390    0.75700    1.000
    O289     O        0.27070    0.90790    0.77550    1.000
    O290     O        0.39150    0.01110    0.79110    1.000
    O291     O        0.21890    0.04430    0.77110    1.000
    O292     O        0.23300    0.10070    0.86150    1.000
    O293     O        0.19320    0.14120    0.74260    1.000
    O294     O        0.25760    0.14180    0.70220    1.000
    O295     O        0.40840    0.06750    0.87150    1.000
    O296     O        0.31110    0.93520    0.89020    1.000
    O297     O        0.38400    0.93460    0.84420    1.000
    O298     O        0.11260    0.02940    0.68140    1.000
    O299     O        0.07710    0.94760    0.70280    1.000
    O300     O        0.24930    0.94870    0.59420    1.000
    O301     O        0.13010    0.86250    0.73980    1.000
    O302     O        0.41470    0.05200    0.71530    1.000
    O303     O        0.23300    0.78090    0.66430    1.000
    O304     O        0.37110    0.14590    0.89710    1.000
    O305     O        0.39590    0.99490    0.92620    1.000
    O306     O        0.15750    0.05020    0.87540    1.000
    O307     O        0.28100    0.77760    0.59480    1.000
    O308     O        0.07290    0.77800    0.73430    1.000
    O309     O        0.04820    0.80880    0.64620    1.000
    O310     O        0.25030    0.01060    0.88140    1.000
    O311     O        0.08670    0.90170    0.62130    1.000
    O312     O        0.30720    0.08480    0.66430    1.000
    N46      N        0.15510    0.81180    0.84850    1.000
    H241     H        0.12180    0.82150    0.84040    1.000
    H242     H        0.17850    0.83620    0.86570    1.000
    N47      N        0.49360    0.99380    0.69760    1.000
    H243     H        0.51680    0.99800    0.68520    1.000
    H244     H        0.45950    0.99190    0.66810    1.000
    N48      N        0.17860    0.72940    0.81650    1.000
    H245     H        0.20900    0.72030    0.81680    1.000
    H246     H        0.15260    0.70750    0.79680    1.000
    N49      N        0.12510    0.03850    0.41800    1.000
    H247     H        0.10150    0.04820    0.42850    1.000
    H248     H        0.10860    0.04050    0.38070    1.000
    N50      N        0.03430    0.93120    0.49660    1.000
    H249     H        0.04630    0.93980    0.47360    1.000
    H250     H        0.03780    0.95650    0.51820    1.000
    N51      N        0.00390    0.84410    0.52080    1.000
    H251     H        0.00410    0.83000    0.55000    1.000
    H252     H        0.99530    0.82190    0.49420    1.000
    N52      N        0.38350    0.81360    0.69560    1.000
    H253     H        0.39880    0.83350    0.72510    1.000
    H254     H        0.38240    0.82860    0.66650    1.000
    N53      N        0.34130    0.73040    0.70520    1.000
    H255     H        0.32530    0.70910    0.67710    1.000
    H256     H        0.33460    0.72090    0.73200    1.000
    N54      N        0.22710    0.99940    0.48560    1.000
    H257     H        0.24710    0.98860    0.47130    1.000
    H258     H        0.24430    0.99170    0.52200    1.000
    C86      C        0.23530    0.78540    0.55130    1.000
    C87      C        0.22600    0.76210    0.49890    1.000
    H259     H        0.19740    0.73840    0.48770    1.000
    H260     H        0.21270    0.78640    0.47000    1.000
    C88      C        0.18960    0.72990    0.87360    1.000
    H261     H        0.22850    0.72700    0.89880    1.000
    H262     H        0.17250    0.70190    0.87900    1.000
    C89      C        0.97880    0.91660    0.46510    1.000
    H263     H        0.95550    0.94470    0.45330    1.000
    H264     H        0.97260    0.89960    0.43200    1.000
    C90      C        0.03940    0.78770    0.68320    1.000
    C91      C        0.40170    0.72880    0.72840    1.000
    H265     H        0.41160    0.69970    0.71660    1.000
    H266     H        0.42090    0.72940    0.76880    1.000
    C92      C        0.41540    0.76870    0.70850    1.000
    H267     H        0.45290    0.77670    0.73560    1.000
    H268     H        0.41470    0.75900    0.67470    1.000
    C93      C        0.18500    0.77650    0.94930    1.000
    H269     H        0.22110    0.78970    0.97140    1.000
    H270     H        0.15910    0.79830    0.94930    1.000
    H271     H        0.18330    0.74630    0.96480    1.000
    C94      C        0.50700    0.95040    0.73200    1.000
    H272     H        0.54700    0.95300    0.75500    1.000
    C95      C        0.49900    0.90010    0.72100    1.000
    H273     H        0.46400    0.89130    0.68920    1.000
    H274     H        0.52870    0.88320    0.72110    1.000
    C96      C        0.22100    0.04780    0.47900    1.000
    H275     H        0.23000    0.04600    0.45000    1.000
    C97      C        0.26550    0.08310    0.51000    1.000
    H276     H        0.25040    0.11480    0.50440    1.000
    H277     H        0.28450    0.07560    0.54910    1.000
    H278     H        0.29040    0.08180    0.49650    1.000
    C98      C        0.17230    0.06720    0.44340    1.000
    H279     H        0.16590    0.09280    0.46290    1.000
    H280     H        0.17550    0.08200    0.41370    1.000
    C99      C        0.17230    0.76880    0.88770    1.000
    H281     H        0.13500    0.75700    0.87400    1.000
    C100     C        0.96380    0.88420    0.49890    1.000
    H282     H        0.98000    0.90400    0.53300    1.000
    C101     C        0.91530    0.88150    0.49100    1.000
    H283     H        0.91320    0.85470    0.51170    1.000
    H284     H        0.90710    0.91060    0.50420    1.000
    H285     H        0.88950    0.87730    0.45230    1.000
    C102     C        0.98100    0.77410    0.66700    1.000
    H286     H        0.98110    0.74240    0.68070    1.000
    H287     H        0.96780    0.79670    0.68330    1.000
    H288     H        0.95830    0.77460    0.62730    1.000
    W91      W        0.14493    0.37207    0.69992    1.000
    W92      W        0.22764    0.37196    0.64688    1.000
    W93      W        0.19343    0.42158    0.83850    1.000
    W94      W        0.26763    0.58865    0.85364    1.000
    W95      W        0.36485    0.42032    0.72854    1.000
    W96      W        0.35895    0.58806    0.79547    1.000
    W97      W        0.41043    0.46352    0.85685    1.000
    W98      W        0.14141    0.54550    0.77700    1.000
    W99      W        0.32045    0.46430    0.91408    1.000
    W100     W        0.31551    0.54455    0.66746    1.000
    W101     W        0.09327    0.49583    0.63620    1.000
    W102     W        0.11230    0.62845    0.66000    1.000
    W103     W        0.19790    0.62873    0.60803    1.000
    W104     W        0.17564    0.49659    0.58420    1.000
    W105     W        0.24136    0.67138    0.73843    1.000
    Ni43     Ni       0.42111    0.37390    0.95475    1.000
    Ni44     Ni       0.19318    0.29535    0.82315    1.000
    Ni45     Ni       0.34977    0.46878    0.05584    1.000
    Ni46     Ni       0.26293    0.29916    0.76481    1.000
    Ni47     Ni       0.38018    0.33830    0.83446    1.000
    Ni48     Ni       0.30331    0.33832    0.88333    1.000
    Ni49     Ni       0.34620    0.29511    0.72319    1.000
    P13      P        0.27889    0.41448    0.78321    1.000
    P14      P        0.22292    0.54873    0.71584    1.000
    O313     O        0.33980    0.40190    0.92290    1.000
    O314     O        0.34720    0.48910    0.70330    1.000
    O315     O        0.16980    0.48990    0.81500    1.000
    O316     O        0.16860    0.56800    0.57950    1.000
    O317     O        0.37970    0.32000    0.90400    1.000
    O318     O        0.26310    0.32380    0.69470    1.000
    O319     O        0.30000    0.36380    0.80950    1.000
    O320     O        0.16320    0.67880    0.70340    1.000
    O321     O        0.12410    0.60180    0.72740    1.000
    O322     O        0.26280    0.72940    0.76440    1.000
    O323     O        0.21930    0.54430    0.76810    1.000
    O324     O        0.15110    0.40880    0.76000    1.000
    O325     O        0.18530    0.51100    0.67070    1.000
    O326     O        0.34040    0.28050    0.79020    1.000
    O327     O        0.20210    0.59940    0.69130    1.000
    O328     O        0.22870    0.67880    0.66330    1.000
    O329     O        0.26320    0.44240    0.82130    1.000
    O330     O        0.22540    0.36410    0.85190    1.000
    O331     O        0.15930    0.35700    0.64120    1.000
    O332     O        0.32460    0.44150    0.78000    1.000
    O333     O        0.36870    0.48280    0.89130    1.000
    O334     O        0.32610    0.58670    0.83970    1.000
    O335     O        0.36380    0.58300    0.72900    1.000
    O336     O        0.30320    0.30840    0.94980    1.000
    O337     O        0.29230    0.40950    0.67120    1.000
    O338     O        0.28530    0.52990    0.88480    1.000
    O339     O        0.35500    0.48290    0.98360    1.000
    O340     O        0.18530    0.32390    0.74300    1.000
    O341     O        0.22930    0.40790    0.72450    1.000
    O342     O        0.10850    0.51110    0.70890    1.000
    O343     O        0.28110    0.54430    0.72890    1.000
    O344     O        0.26700    0.60070    0.63850    1.000
    O345     O        0.30680    0.64120    0.75740    1.000
    O346     O        0.24240    0.64180    0.79780    1.000
    O347     O        0.09160    0.56750    0.62850    1.000
    O348     O        0.18890    0.43520    0.60980    1.000
    O349     O        0.11600    0.43460    0.65580    1.000
    O350     O        0.38740    0.52940    0.81860    1.000
    O351     O        0.42290    0.44760    0.79720    1.000
    O352     O        0.25070    0.44870    0.90580    1.000
    O353     O        0.36990    0.36250    0.76020    1.000
    O354     O        0.08530    0.55200    0.78470    1.000
    O355     O        0.26700    0.28090    0.83570    1.000
    O356     O        0.12890    0.64590    0.60290    1.000
    O357     O        0.10410    0.49490    0.57380    1.000
    O358     O        0.34250    0.55020    0.62460    1.000
    O359     O        0.21900    0.27760    0.90520    1.000
    O360     O        0.42710    0.27800    0.76570    1.000
    O361     O        0.45180    0.30880    0.85380    1.000
    O362     O        0.24970    0.51060    0.61860    1.000
    O363     O        0.41330    0.40170    0.87870    1.000
    O364     O        0.19280    0.58480    0.83570    1.000
    N55      N        0.34490    0.31180    0.65150    1.000
    H289     H        0.37820    0.32150    0.65960    1.000
    H290     H        0.32150    0.33620    0.63430    1.000
    N56      N        0.00640    0.49380    0.80240    1.000
    H291     H        0.98320    0.49800    0.81480    1.000
    H292     H        0.04050    0.49190    0.83190    1.000
    N57      N        0.32140    0.22940    0.68350    1.000
    H293     H        0.29100    0.22030    0.68320    1.000
    H294     H        0.34740    0.20750    0.70320    1.000
    N58      N        0.37490    0.53850    0.08200    1.000
    H295     H        0.39850    0.54820    0.07150    1.000
    H296     H        0.39140    0.54050    0.11930    1.000
    N59      N        0.46570    0.43120    0.00340    1.000
    H297     H        0.45370    0.43980    0.02640    1.000
    H298     H        0.46220    0.45650    0.98180    1.000
    N60      N        0.49610    0.34410    0.97920    1.000
    H299     H        0.49590    0.33000    0.95000    1.000
    H300     H        0.50470    0.32190    0.00580    1.000
    N61      N        0.11650    0.31360    0.80440    1.000
    H301     H        0.10120    0.33350    0.77490    1.000
    H302     H        0.11760    0.32860    0.83350    1.000
    N62      N        0.15870    0.23040    0.79480    1.000
    H303     H        0.17470    0.20910    0.82290    1.000
    H304     H        0.16540    0.22090    0.76800    1.000
    N63      N        0.27290    0.49940    0.01440    1.000
    H305     H        0.25290    0.48860    0.02870    1.000
    H306     H        0.25570    0.49170    0.97800    1.000
    C103     C        0.26470    0.28540    0.94870    1.000
    C104     C        0.27400    0.26210    0.00110    1.000
    H307     H        0.30260    0.23840    0.01230    1.000
    H308     H        0.28730    0.28640    0.03000    1.000
    C105     C        0.31040    0.22990    0.62640    1.000
    H309     H        0.27150    0.22700    0.60120    1.000
    H310     H        0.32750    0.20190    0.62100    1.000
    C106     C        0.52120    0.41660    0.03490    1.000
    H311     H        0.54450    0.44470    0.04670    1.000
    H312     H        0.52740    0.39960    0.06800    1.000
    C107     C        0.46060    0.28770    0.81680    1.000
    C108     C        0.09830    0.22880    0.77160    1.000
    H313     H        0.08840    0.19970    0.78340    1.000
    H314     H        0.07910    0.22940    0.73120    1.000
    C109     C        0.08460    0.26870    0.79150    1.000
    H315     H        0.04710    0.27670    0.76440    1.000
    H316     H        0.08530    0.25900    0.82530    1.000
    C110     C        0.31500    0.27650    0.55070    1.000
    H317     H        0.27890    0.28970    0.52860    1.000
    H318     H        0.34090    0.29830    0.55070    1.000
    H319     H        0.31670    0.24630    0.53520    1.000
    C111     C        0.99300    0.45040    0.76800    1.000
    H320     H        0.95300    0.45300    0.74500    1.000
    C112     C        0.00100    0.40010    0.77900    1.000
    H321     H        0.03600    0.39130    0.81080    1.000
    H322     H        0.97130    0.38320    0.77890    1.000
    C113     C        0.27900    0.54780    0.02100    1.000
    H323     H        0.27000    0.54600    0.05000    1.000
    C114     C        0.23450    0.58310    0.99000    1.000
    H324     H        0.24960    0.61480    0.99560    1.000
    H325     H        0.21550    0.57560    0.95090    1.000
    H326     H        0.20960    0.58180    0.00350    1.000
    C115     C        0.32770    0.56720    0.05660    1.000
    H327     H        0.33410    0.59280    0.03710    1.000
    H328     H        0.32450    0.58200    0.08630    1.000
    C116     C        0.32770    0.26880    0.61230    1.000
    H329     H        0.36500    0.25700    0.62600    1.000
    C117     C        0.53620    0.38420    0.00110    1.000
    H330     H        0.52000    0.40400    0.96700    1.000
    C118     C        0.58470    0.38150    0.00900    1.000
    H331     H        0.58680    0.35470    0.98830    1.000
    H332     H        0.59290    0.41060    0.99580    1.000
    H333     H        0.61050    0.37730    0.04770    1.000
    C119     C        0.51900    0.27410    0.83300    1.000
    H334     H        0.51890    0.24240    0.81930    1.000
    H335     H        0.53220    0.29670    0.81670    1.000
    H336     H        0.54170    0.27460    0.87270    1.000
    W106     W        0.64493    0.87207    0.69992    1.000
    W107     W        0.72764    0.87196    0.64688    1.000
    W108     W        0.69343    0.92158    0.83850    1.000
    W109     W        0.76763    0.08865    0.85364    1.000
    W110     W        0.86485    0.92032    0.72854    1.000
    W111     W        0.85895    0.08806    0.79547    1.000
    W112     W        0.91043    0.96352    0.85685    1.000
    W113     W        0.64141    0.04550    0.77700    1.000
    W114     W        0.82045    0.96430    0.91408    1.000
    W115     W        0.81551    0.04455    0.66746    1.000
    W116     W        0.59327    0.99583    0.63620    1.000
    W117     W        0.61230    0.12845    0.66000    1.000
    W118     W        0.69790    0.12873    0.60803    1.000
    W119     W        0.67564    0.99659    0.58420    1.000
    W120     W        0.74136    0.17138    0.73843    1.000
    Ni50     Ni       0.92111    0.87390    0.95475    1.000
    Ni51     Ni       0.69318    0.79535    0.82315    1.000
    Ni52     Ni       0.84977    0.96878    0.05584    1.000
    Ni53     Ni       0.76293    0.79916    0.76481    1.000
    Ni54     Ni       0.88018    0.83830    0.83446    1.000
    Ni55     Ni       0.80331    0.83832    0.88333    1.000
    Ni56     Ni       0.84620    0.79511    0.72319    1.000
    P15      P        0.77889    0.91448    0.78321    1.000
    P16      P        0.72292    0.04873    0.71584    1.000
    O365     O        0.83980    0.90190    0.92290    1.000
    O366     O        0.84720    0.98910    0.70330    1.000
    O367     O        0.66980    0.98990    0.81500    1.000
    O368     O        0.66860    0.06800    0.57950    1.000
    O369     O        0.87970    0.82000    0.90400    1.000
    O370     O        0.76310    0.82380    0.69470    1.000
    O371     O        0.80000    0.86380    0.80950    1.000
    O372     O        0.66320    0.17880    0.70340    1.000
    O373     O        0.62410    0.10180    0.72740    1.000
    O374     O        0.76280    0.22940    0.76440    1.000
    O375     O        0.71930    0.04430    0.76810    1.000
    O376     O        0.65110    0.90880    0.76000    1.000
    O377     O        0.68530    0.01100    0.67070    1.000
    O378     O        0.84040    0.78050    0.79020    1.000
    O379     O        0.70210    0.09940    0.69130    1.000
    O380     O        0.72870    0.17880    0.66330    1.000
    O381     O        0.76320    0.94240    0.82130    1.000
    O382     O        0.72540    0.86410    0.85190    1.000
    O383     O        0.65930    0.85700    0.64120    1.000
    O384     O        0.82460    0.94150    0.78000    1.000
    O385     O        0.86870    0.98280    0.89130    1.000
    O386     O        0.82610    0.08670    0.83970    1.000
    O387     O        0.86380    0.08300    0.72900    1.000
    O388     O        0.80320    0.80840    0.94980    1.000
    O389     O        0.79230    0.90950    0.67120    1.000
    O390     O        0.78530    0.02990    0.88480    1.000
    O391     O        0.85500    0.98290    0.98360    1.000
    O392     O        0.68530    0.82390    0.74300    1.000
    O393     O        0.72930    0.90790    0.72450    1.000
    O394     O        0.60850    0.01110    0.70890    1.000
    O395     O        0.78110    0.04430    0.72890    1.000
    O396     O        0.76700    0.10070    0.63850    1.000
    O397     O        0.80680    0.14120    0.75740    1.000
    O398     O        0.74240    0.14180    0.79780    1.000
    O399     O        0.59160    0.06750    0.62850    1.000
    O400     O        0.68890    0.93520    0.60980    1.000
    O401     O        0.61600    0.93460    0.65580    1.000
    O402     O        0.88740    0.02940    0.81860    1.000
    O403     O        0.92290    0.94760    0.79720    1.000
    O404     O        0.75070    0.94870    0.90580    1.000
    O405     O        0.86990    0.86250    0.76020    1.000
    O406     O        0.58530    0.05200    0.78470    1.000
    O407     O        0.76700    0.78090    0.83570    1.000
    O408     O        0.62890    0.14590    0.60290    1.000
    O409     O        0.60410    0.99490    0.57380    1.000
    O410     O        0.84250    0.05020    0.62460    1.000
    O411     O        0.71900    0.77760    0.90520    1.000
    O412     O        0.92710    0.77800    0.76570    1.000
    O413     O        0.95180    0.80880    0.85380    1.000
    O414     O        0.74970    0.01060    0.61860    1.000
    O415     O        0.91330    0.90170    0.87870    1.000
    O416     O        0.69280    0.08480    0.83570    1.000
    N64      N        0.84490    0.81180    0.65150    1.000
    H337     H        0.87820    0.82150    0.65960    1.000
    H338     H        0.82150    0.83620    0.63430    1.000
    N65      N        0.50640    0.99380    0.80240    1.000
    H339     H        0.48320    0.99800    0.81480    1.000
    H340     H        0.54050    0.99190    0.83190    1.000
    N66      N        0.82140    0.72940    0.68350    1.000
    H341     H        0.79100    0.72030    0.68320    1.000
    H342     H        0.84740    0.70750    0.70320    1.000
    N67      N        0.87490    0.03850    0.08200    1.000
    H343     H        0.89850    0.04820    0.07150    1.000
    H344     H        0.89140    0.04050    0.11930    1.000
    N68      N        0.96570    0.93120    0.00340    1.000
    H345     H        0.95370    0.93980    0.02640    1.000
    H346     H        0.96220    0.95650    0.98180    1.000
    N69      N        0.99610    0.84410    0.97920    1.000
    H347     H        0.99590    0.83000    0.95000    1.000
    H348     H        0.00470    0.82190    0.00580    1.000
    N70      N        0.61650    0.81360    0.80440    1.000
    H349     H        0.60120    0.83350    0.77490    1.000
    H350     H        0.61760    0.82860    0.83350    1.000
    N71      N        0.65870    0.73040    0.79480    1.000
    H351     H        0.67470    0.70910    0.82290    1.000
    H352     H        0.66540    0.72090    0.76800    1.000
    N72      N        0.77290    0.99940    0.01440    1.000
    H353     H        0.75290    0.98860    0.02870    1.000
    H354     H        0.75570    0.99170    0.97800    1.000
    C120     C        0.76470    0.78540    0.94870    1.000
    C121     C        0.77400    0.76210    0.00110    1.000
    H355     H        0.80260    0.73840    0.01230    1.000
    H356     H        0.78730    0.78640    0.03000    1.000
    C122     C        0.81040    0.72990    0.62640    1.000
    H357     H        0.77150    0.72700    0.60120    1.000
    H358     H        0.82750    0.70190    0.62100    1.000
    C123     C        0.02120    0.91660    0.03490    1.000
    H359     H        0.04450    0.94470    0.04670    1.000
    H360     H        0.02740    0.89960    0.06800    1.000
    C124     C        0.96060    0.78770    0.81680    1.000
    C125     C        0.59830    0.72880    0.77160    1.000
    H361     H        0.58840    0.69970    0.78340    1.000
    H362     H        0.57910    0.72940    0.73120    1.000
    C126     C        0.58460    0.76870    0.79150    1.000
    H363     H        0.54710    0.77670    0.76440    1.000
    H364     H        0.58530    0.75900    0.82530    1.000
    C127     C        0.81500    0.77650    0.55070    1.000
    H365     H        0.77890    0.78970    0.52860    1.000
    H366     H        0.84090    0.79830    0.55070    1.000
    H367     H        0.81670    0.74630    0.53520    1.000
    C128     C        0.49300    0.95040    0.76800    1.000
    H368     H        0.45300    0.95300    0.74500    1.000
    C129     C        0.50100    0.90010    0.77900    1.000
    H369     H        0.53600    0.89130    0.81080    1.000
    H370     H        0.47130    0.88320    0.77890    1.000
    C130     C        0.77900    0.04780    0.02100    1.000
    H371     H        0.77000    0.04600    0.05000    1.000
    C131     C        0.73450    0.08310    0.99000    1.000
    H372     H        0.74960    0.11480    0.99560    1.000
    H373     H        0.71550    0.07560    0.95090    1.000
    H374     H        0.70960    0.08180    0.00350    1.000
    C132     C        0.82770    0.06720    0.05660    1.000
    H375     H        0.83410    0.09280    0.03710    1.000
    H376     H        0.82450    0.08200    0.08630    1.000
    C133     C        0.82770    0.76880    0.61230    1.000
    H377     H        0.86500    0.75700    0.62600    1.000
    C134     C        0.03620    0.88420    0.00110    1.000
    H378     H        0.02000    0.90400    0.96700    1.000
    C135     C        0.08470    0.88150    0.00900    1.000
    H379     H        0.08680    0.85470    0.98830    1.000
    H380     H        0.09290    0.91060    0.99580    1.000
    H381     H        0.11050    0.87730    0.04770    1.000
    C136     C        0.01900    0.77410    0.83300    1.000
    H382     H        0.01890    0.74240    0.81930    1.000
    H383     H        0.03220    0.79670    0.81670    1.000
    H384     H        0.04170    0.77460    0.87270    1.000
    Ni57     Ni       0.00000    0.44980    0.25000    1.000
    Ni58     Ni       0.50000    0.94980    0.25000    1.000
    Ni59     Ni       0.00000    0.55020    0.75000    1.000
    Ni60     Ni       0.50000    0.05020    0.75000    1.000
