data_functionalizedCrystal
_audit_creation_method	'EQeq! by Chris Wilmer'
_symmetry_space_group_name_H-M	'P1'
_symmetry_Int_Tables_number	1
_symmetry_cell_setting	triclinic
loop_
_symmetry_equiv_pos_as_xyz
  x,y,z
_cell_length_a	13.208
_cell_length_b	16.9219
_cell_length_c	31.712
_cell_angle_alpha	82.881
_cell_angle_beta	77.9802
_cell_angle_gamma	67.029
loop_
_atom_site_label
_atom_site_type_symbol
_atom_site_fract_x
_atom_site_fract_y
_atom_site_fract_z
_atom_site_charge
Mof_In	In	0.89936	0.20665	0.91217	1.799
Mof_In	In	0.98182	0.70665	0.41217	1.792
Mof_Ag	Ag	0.97531	0.73218	0.73088	0.695
Mof_Ag	Ag	0.56163	0.23218	0.23088	0.697
Mof_H 	H 	0.1652	0.1638	0.8692	-0.005
Mof_H 	H 	0.2779	0.0718	0.807	0.094
Mof_H 	H 	0.1708	0.9835	0.7951	0.063
Mof_H 	H 	0.7699	0.975	0.863	0.092
Mof_H 	H 	0.6148	0.056	0.9208	0.054
Mof_H 	H 	0.6691	0.163	0.9476	-0.002
Mof_H 	H 	0.8552	0.0349	0.7809	0.133
Mof_H 	H 	0.8844	0.9278	0.7344	0.018
Mof_H 	H 	0.1211	0.7618	0.7926	0.007
Mof_H 	H 	0.1008	0.8633	0.8403	0.088
Mof_H 	H 	0.8695	0.5596	0.4482	-0.011
Mof_H 	H 	0.8203	0.5097	0.5245	0.033
Mof_H 	H 	0.8693	0.5895	0.5717	0.059
Mof_H 	H 	0.0401	0.8338	0.5462	0.068
Mof_H 	H 	0.0864	0.9247	0.4813	0.047
Mof_H 	H 	0.0637	0.8652	0.417	-0.008
Mof_H 	H 	0.8097	0.8069	0.5889	0.095
Mof_H 	H 	0.8147	0.8102	0.6612	0.015
Mof_H 	H 	0.1067	0.6185	0.6509	0.007
Mof_H 	H 	0.1091	0.6102	0.5774	0.09
Mof_H 	H 	0.0499	0.2608	0.9652	-0.007
Mof_H 	H 	0.1182	0.3807	0.9493	0.044
Mof_H 	H 	0.0414	0.4667	0.8855	0.082
Mof_H 	H 	0.8003	0.4294	0.778	0.067
Mof_H 	H 	0.7039	0.3298	0.7756	0.079
Mof_H 	H 	0.7417	0.226	0.8388	0.004
Mof_H 	H 	0.0976	0.4219	0.8001	0.127
Mof_H 	H 	0.1108	0.5422	0.7592	0.046
Mof_H 	H 	0.789	0.6728	0.7934	-0.005
Mof_H 	H 	0.7657	0.5481	0.8303	0.09
Mof_H 	H 	0.8018	0.6638	0.3692	-0.005
Mof_H 	H 	0.8433	0.5718	0.307	0.093
Mof_H 	H 	0.0506	0.4835	0.2951	0.061
Mof_H 	H 	0.3921	0.475	0.363	0.097
Mof_H 	H 	0.4084	0.556	0.4208	0.051
Mof_H 	H 	0.2203	0.663	0.4476	-0.002
Mof_H 	H 	0.329	0.5349	0.2809	0.129
Mof_H 	H 	0.4534	0.4278	0.2344	0.017
Mof_H 	H 	0.3245	0.2618	0.2926	0.005
Mof_H 	H 	0.1956	0.3633	0.3403	0.09
Mof_H 	H 	0.1227	0.0596	0.9482	-0.012
Mof_H 	H 	0.1455	0.0097	0.0245	0.034
Mof_H 	H 	0.9695	0.0895	0.0717	0.057
Mof_H 	H 	0.5799	0.3338	0.0462	0.067
Mof_H 	H 	0.5076	0.4247	0.9813	0.047
Mof_H 	H 	0.6541	0.3652	0.917	-0.009
Mof_H 	H 	0.7945	0.3069	0.0889	0.095
Mof_H 	H 	0.7139	0.3102	0.1612	0.015
Mof_H 	H 	0.6239	0.1185	0.1509	0.008
Mof_H 	H 	0.7033	0.1102	0.0774	0.09
Mof_H 	H 	0.7241	0.7608	0.4652	-0.007
Mof_H 	H 	0.5518	0.8807	0.4493	0.045
Mof_H 	H 	0.6064	0.9667	0.3855	0.081
Mof_H 	H 	0.9923	0.9294	0.278	0.06
Mof_H 	H 	0.1907	0.8298	0.2756	0.082
Mof_H 	H 	0.1935	0.726	0.3388	0.003
Mof_H 	H 	0.6804	0.9219	0.3001	0.126
Mof_H 	H 	0.5878	0.0422	0.2592	0.046
Mof_H 	H 	0.7448	0.1728	0.2934	-0.004
Mof_H 	H 	0.8559	0.0481	0.3303	0.089
Mof_C 	C 	0.1421	0.1271	0.8565	0.063
Mof_C 	C 	0.2068	0.0746	0.8224	-0.067
Mof_C 	C 	0.1471	0.0269	0.8153	-0.089
Mof_C 	C 	0.0445	0.0555	0.8441	0.109
Mof_C 	C 	0.9558	0.0286	0.847	-0.155
Mof_C 	C 	0.8505	0.055	0.8746	0.124
Mof_C 	C 	0.7678	0.02	0.8788	-0.098
Mof_C 	C 	0.6829	0.0646	0.9108	-0.03
Mof_C 	C 	0.7136	0.1238	0.9258	0.032
Mof_C 	C 	0.9733	0.9612	0.8166	0.13
Mof_C 	C 	0.9102	0.9791	0.7843	-0.179
Mof_C 	C 	0.9279	0.914	0.7566	0.115
Mof_C 	C 	0.0658	0.8178	0.7906	0.088
Mof_C 	C 	0.0541	0.8783	0.8191	-0.168
Mof_C 	C 	0.8803	0.5799	0.4729	0.04
Mof_C 	C 	0.8524	0.5518	0.5154	-0.043
Mof_C 	C 	0.8795	0.5951	0.5411	-0.104
Mof_C 	C 	0.9266	0.6518	0.5142	0.114
Mof_C 	C 	0.9627	0.70987	0.52713	-0.168
Mof_C 	C 	0.0026	0.769	0.5026	0.119
Mof_C 	C 	0.0362	0.8284	0.5172	-0.103
Mof_C 	C 	0.0631	0.8782	0.4814	-0.052
Mof_C 	C 	0.0482	0.8449	0.4459	0.051
Mof_C 	C 	0.96	0.7105	0.5753	0.135
Mof_C 	C 	0.8726	0.7683	0.6007	-0.181
Mof_C 	C 	0.8764	0.7702	0.6438	0.087
Mof_C 	C 	0.0467	0.6583	0.6379	0.092
Mof_C 	C 	0.0486	0.6526	0.594	-0.175
Mof_C 	C 	0.037	0.3009	0.9413	0.033
Mof_C 	C 	0.0733	0.3687	0.9331	-0.031
Mof_C 	C 	0.0329	0.415	0.8978	-0.11
Mof_C 	C 	0.9761	0.3713	0.8829	0.13
Mof_C 	C 	0.9206	0.3961	0.8475	-0.164
Mof_C 	C 	0.8547	0.3586	0.8342	0.115
Mof_C 	C 	0.8001	0.3828	0.798	-0.094
Mof_C 	C 	0.7468	0.3285	0.7965	-0.051
Mof_C 	C 	0.7688	0.2712	0.8318	0.053
Mof_C 	C 	0.9312	0.4728	0.8204	0.146
Mof_C 	C 	0.0322	0.4721	0.7987	-0.178
Mof_C 	C 	0.0398	0.5445	0.7745	0.101
Mof_C 	C 	0.8519	0.6204	0.7936	0.096
Mof_C 	C 	0.838	0.5465	0.8171	-0.179
Mof_C 	C 	0.8743	0.6271	0.3565	0.063
Mof_C 	C 	0.8962	0.5746	0.3224	-0.067
Mof_C 	C 	0.0107	0.5269	0.3153	-0.089
Mof_C 	C 	0.0559	0.5555	0.3441	0.116
Mof_C 	C 	0.1686	0.5286	0.347	-0.167
Mof_C 	C 	0.2199	0.555	0.3746	0.129
Mof_C 	C 	0.3334	0.52	0.3788	-0.108
Mof_C 	C 	0.3417	0.5646	0.4108	-0.025
Mof_C 	C 	0.2368	0.6238	0.4258	0.029
Mof_C 	C 	0.2489	0.4612	0.3166	0.141
Mof_C 	C 	0.3264	0.4791	0.2843	-0.178
Mof_C 	C 	0.4015	0.414	0.2566	0.118
Mof_C 	C 	0.3258	0.3178	0.2906	0.092
Mof_C 	C 	0.2485	0.3783	0.3191	-0.178
Mof_C 	C 	0.0669	0.0799	0.9729	0.042
Mof_C 	C 	0.0804	0.0518	0.0154	-0.053
Mof_C 	C 	0.9843	0.0951	0.0411	-0.094
Mof_C 	C 	0.9074	0.1518	0.0142	0.111
Mof_C 	C 	0.8003	0.20987	0.02713	-0.165
Mof_C 	C 	0.7258	0.269	0.0026	0.116
Mof_C 	C 	0.6182	0.3284	0.0172	-0.102
Mof_C 	C 	0.5773	0.3782	0.9814	-0.053
Mof_C 	C 	0.661	0.3449	0.9459	0.051
Mof_C 	C 	0.7542	0.2105	0.0753	0.136
Mof_C 	C 	0.7584	0.2683	0.1007	-0.181
Mof_C 	C 	0.7096	0.2702	0.1438	0.088
Mof_C 	C 	0.6571	0.1583	0.1379	0.09
Mof_C 	C 	0.7048	0.1526	0.094	-0.176
Mof_C 	C 	0.7208	0.8009	0.4413	0.034
Mof_C 	C 	0.6249	0.8687	0.4331	-0.033
Mof_C 	C 	0.6543	0.915	0.3978	-0.107
Mof_C 	C 	0.7697	0.8713	0.3829	0.127
Mof_C 	C 	0.8358	0.8961	0.3475	-0.16
Mof_C 	C 	0.9525	0.8586	0.3342	0.106
Mof_C 	C 	0.0191	0.8828	0.298	-0.079
Mof_C 	C 	0.1282	0.8285	0.2965	-0.058
Mof_C 	C 	0.1282	0.7712	0.3318	0.056
Mof_C 	C 	0.7756	0.9728	0.3204	0.142
Mof_C 	C 	0.697	0.9721	0.2987	-0.176
Mof_C 	C 	0.6412	0.0445	0.2745	0.099
Mof_C 	C 	0.7341	0.1204	0.2936	0.095
Mof_C 	C 	0.7984	0.0465	0.3171	-0.175
Mof_N 	N 	0.0438	0.11881	0.86879	-0.316
Mof_N 	N 	0.81752	0.11744	0.90452	-0.309
Mof_N 	N 	0.0006	0.83632	0.75988	-0.204
Mof_N 	N 	0.9245	0.63992	0.47148	-0.314
Mof_N 	N 	0.0099	0.78177	0.45703	-0.32
Mof_N 	N 	0.964	0.7176	0.662	-0.203
Mof_N 	N 	0.9806	0.29987	0.91053	-0.313
Mof_N 	N 	0.8329	0.28711	0.85509	-0.307
Mof_N 	N 	0.951	0.617	0.772	-0.201
Mof_N 	N 	0.9686	0.61881	0.36879	-0.316
Mof_N 	N 	0.16052	0.61744	0.40452	-0.309
Mof_N 	N 	0.4032	0.33632	0.25988	-0.207
Mof_N 	N 	0.9641	0.13992	0.97148	-0.312
Mof_N 	N 	0.7513	0.28177	0.95703	-0.321
Mof_N 	N 	0.6564	0.2176	0.162	-0.202
Mof_N 	N 	0.809	0.79987	0.41053	-0.313
Mof_N 	N 	0.0249	0.78711	0.35509	-0.305
Mof_N 	N 	0.66	0.117	0.272	-0.2
Mof_In	In	0.01818	0.29335	0.58783	1.791
Mof_In	In	0.10064	0.79335	0.08783	1.798
Mof_Ag	Ag	0.43837	0.76782	0.76912	0.696
Mof_Ag	Ag	0.02469	0.26782	0.26912	0.694
Mof_H 	H 	0.1982	0.3362	0.6308	-0.005
Mof_H 	H 	0.1567	0.4282	0.693	0.093
Mof_H 	H 	0.9494	0.5165	0.7049	0.061
Mof_H 	H 	0.6079	0.525	0.637	0.097
Mof_H 	H 	0.5916	0.444	0.5792	0.051
Mof_H 	H 	0.7797	0.337	0.5524	-0.002
Mof_H 	H 	0.671	0.4651	0.7191	0.129
Mof_H 	H 	0.5466	0.5722	0.7656	0.017
Mof_H 	H 	0.6755	0.7382	0.7074	0.005
Mof_H 	H 	0.8044	0.6367	0.6597	0.09
Mof_H 	H 	0.8773	0.9404	0.0518	-0.012
Mof_H 	H 	0.8545	0.9903	0.9755	0.034
Mof_H 	H 	0.0305	0.9105	0.9283	0.057
Mof_H 	H 	0.4201	0.6662	0.9538	0.067
Mof_H 	H 	0.4924	0.5753	0.0187	0.047
Mof_H 	H 	0.3459	0.6348	0.083	-0.009
Mof_H 	H 	0.2055	0.6931	0.9111	0.095
Mof_H 	H 	0.2861	0.6898	0.8388	0.015
Mof_H 	H 	0.3761	0.8815	0.8491	0.008
Mof_H 	H 	0.2967	0.8898	0.9226	0.09
Mof_H 	H 	0.2759	0.2392	0.5348	-0.007
Mof_H 	H 	0.4482	0.1193	0.5507	0.045
Mof_H 	H 	0.3936	0.0333	0.6145	0.081
Mof_H 	H 	0.0077	0.0706	0.722	0.06
Mof_H 	H 	0.8093	0.1702	0.7244	0.082
Mof_H 	H 	0.8065	0.274	0.6612	0.003
Mof_H 	H 	0.3196	0.0781	0.6999	0.126
Mof_H 	H 	0.4122	0.9578	0.7408	0.046
Mof_H 	H 	0.2552	0.8272	0.7066	-0.004
Mof_H 	H 	0.1441	0.9519	0.6697	0.089
Mof_H 	H 	0.8348	0.8362	0.1308	-0.006
Mof_H 	H 	0.7221	0.9282	0.193	0.093
Mof_H 	H 	0.8292	0.0165	0.2049	0.062
Mof_H 	H 	0.2301	0.025	0.137	0.091
Mof_H 	H 	0.3852	0.944	0.0792	0.053
Mof_H 	H 	0.3309	0.837	0.0524	-0.003
Mof_H 	H 	0.1448	0.9651	0.2191	0.132
Mof_H 	H 	0.1156	0.0722	0.2656	0.017
Mof_H 	H 	0.8789	0.2382	0.2074	0.006
Mof_H 	H 	0.8992	0.1367	0.1597	0.087
Mof_H 	H 	0.1305	0.4404	0.5518	-0.011
Mof_H 	H 	0.1797	0.4903	0.4755	0.033
Mof_H 	H 	0.1307	0.4105	0.4283	0.059
Mof_H 	H 	0.9599	0.1662	0.4538	0.068
Mof_H 	H 	0.9136	0.0753	0.5187	0.047
Mof_H 	H 	0.9363	0.1348	0.583	-0.008
Mof_H 	H 	0.1903	0.1931	0.4111	0.095
Mof_H 	H 	0.1853	0.1898	0.3388	0.015
Mof_H 	H 	0.8933	0.3815	0.3491	0.007
Mof_H 	H 	0.8909	0.3898	0.4226	0.09
Mof_H 	H 	0.9501	0.7392	0.0348	-0.007
Mof_H 	H 	0.8818	0.6193	0.0507	0.044
Mof_H 	H 	0.9586	0.5333	0.1145	0.082
Mof_H 	H 	0.1997	0.5706	0.222	0.067
Mof_H 	H 	0.2961	0.6702	0.2244	0.079
Mof_H 	H 	0.2583	0.774	0.1612	0.004
Mof_H 	H 	0.9024	0.5781	0.1999	0.127
Mof_H 	H 	0.8892	0.4578	0.2408	0.046
Mof_H 	H 	0.211	0.3272	0.2066	-0.005
Mof_H 	H 	0.2343	0.4519	0.1697	0.09
Mof_C 	C 	0.1257	0.3729	0.6435	0.063
Mof_C 	C 	0.1038	0.4254	0.6776	-0.067
Mof_C 	C 	0.9893	0.4731	0.6847	-0.089
Mof_C 	C 	0.9441	0.4445	0.6559	0.116
Mof_C 	C 	0.8314	0.4714	0.653	-0.167
Mof_C 	C 	0.7801	0.445	0.6254	0.129
Mof_C 	C 	0.6666	0.48	0.6212	-0.108
Mof_C 	C 	0.6583	0.4354	0.5892	-0.025
Mof_C 	C 	0.7632	0.3762	0.5742	0.029
Mof_C 	C 	0.7511	0.5388	0.6834	0.141
Mof_C 	C 	0.6736	0.5209	0.7157	-0.178
Mof_C 	C 	0.5985	0.586	0.7434	0.118
Mof_C 	C 	0.6742	0.6822	0.7094	0.092
Mof_C 	C 	0.7515	0.6217	0.6809	-0.178
Mof_C 	C 	0.9331	0.9201	0.0271	0.042
Mof_C 	C 	0.9196	0.9482	0.9846	-0.053
Mof_C 	C 	0.0157	0.9049	0.9589	-0.094
Mof_C 	C 	0.0926	0.8482	0.9858	0.111
Mof_C 	C 	0.1997	0.79013	0.97287	-0.165
Mof_C 	C 	0.2742	0.731	0.9974	0.116
Mof_C 	C 	0.3818	0.6716	0.9828	-0.102
Mof_C 	C 	0.4227	0.6218	0.0186	-0.053
Mof_C 	C 	0.339	0.6551	0.0541	0.051
Mof_C 	C 	0.2458	0.7895	0.9247	0.136
Mof_C 	C 	0.2416	0.7317	0.8993	-0.181
Mof_C 	C 	0.2904	0.7298	0.8562	0.088
Mof_C 	C 	0.3429	0.8417	0.8621	0.09
Mof_C 	C 	0.2952	0.8474	0.906	-0.176
Mof_C 	C 	0.2792	0.1991	0.5587	0.034
Mof_C 	C 	0.3751	0.1313	0.5669	-0.033
Mof_C 	C 	0.3457	0.085	0.6022	-0.107
Mof_C 	C 	0.2303	0.1287	0.6171	0.127
Mof_C 	C 	0.1642	0.1039	0.6525	-0.16
Mof_C 	C 	0.0475	0.1414	0.6658	0.106
Mof_C 	C 	0.9809	0.1172	0.702	-0.079
Mof_C 	C 	0.8718	0.1715	0.7035	-0.058
Mof_C 	C 	0.8718	0.2288	0.6682	0.056
Mof_C 	C 	0.2244	0.0272	0.6796	0.142
Mof_C 	C 	0.303	0.0279	0.7013	-0.176
Mof_C 	C 	0.3588	0.9555	0.7255	0.099
Mof_C 	C 	0.2659	0.8796	0.7064	0.095
Mof_C 	C 	0.2016	0.9535	0.6829	-0.175
Mof_C 	C 	0.8579	0.8729	0.1435	0.063
Mof_C 	C 	0.7932	0.9254	0.1776	-0.067
Mof_C 	C 	0.8529	0.9731	0.1847	-0.089
Mof_C 	C 	0.9555	0.9445	0.1559	0.109
Mof_C 	C 	0.0442	0.9714	0.153	-0.155
Mof_C 	C 	0.1495	0.945	0.1254	0.124
Mof_C 	C 	0.2322	0.98	0.1212	-0.098
Mof_C 	C 	0.3171	0.9354	0.0892	-0.03
Mof_C 	C 	0.2864	0.8762	0.0742	0.032
Mof_C 	C 	0.0267	0.0388	0.1834	0.13
Mof_C 	C 	0.0898	0.0209	0.2157	-0.179
Mof_C 	C 	0.0721	0.086	0.2434	0.115
Mof_C 	C 	0.9342	0.1822	0.2094	0.088
Mof_C 	C 	0.9459	0.1217	0.1809	-0.168
Mof_C 	C 	0.1197	0.4201	0.5271	0.04
Mof_C 	C 	0.1476	0.4482	0.4846	-0.043
Mof_C 	C 	0.1205	0.4049	0.4589	-0.104
Mof_C 	C 	0.0734	0.3482	0.4858	0.114
Mof_C 	C 	0.0373	0.29013	0.47287	-0.168
Mof_C 	C 	0.9974	0.231	0.4974	0.119
Mof_C 	C 	0.9638	0.1716	0.4828	-0.103
Mof_C 	C 	0.9369	0.1218	0.5186	-0.052
Mof_C 	C 	0.9518	0.1551	0.5541	0.051
Mof_C 	C 	0.04	0.2895	0.4247	0.135
Mof_C 	C 	0.1274	0.2317	0.3993	-0.181
Mof_C 	C 	0.1236	0.2298	0.3562	0.087
Mof_C 	C 	0.9533	0.3417	0.3621	0.092
Mof_C 	C 	0.9514	0.3474	0.406	-0.175
Mof_C 	C 	0.963	0.6991	0.0587	0.033
Mof_C 	C 	0.9267	0.6313	0.0669	-0.031
Mof_C 	C 	0.9671	0.585	0.1022	-0.11
Mof_C 	C 	0.0239	0.6287	0.1171	0.13
Mof_C 	C 	0.0794	0.6039	0.1525	-0.164
Mof_C 	C 	0.1453	0.6414	0.1658	0.115
Mof_C 	C 	0.1999	0.6172	0.202	-0.094
Mof_C 	C 	0.2532	0.6715	0.2035	-0.051
Mof_C 	C 	0.2312	0.7288	0.1682	0.053
Mof_C 	C 	0.0688	0.5272	0.1796	0.146
Mof_C 	C 	0.9678	0.5279	0.2013	-0.178
Mof_C 	C 	0.9602	0.4555	0.2255	0.101
Mof_C 	C 	0.1481	0.3796	0.2064	0.096
Mof_C 	C 	0.162	0.4535	0.1829	-0.179
Mof_N 	N 	0.0314	0.38119	0.63121	-0.316
Mof_N 	N 	0.83948	0.38256	0.59548	-0.309
Mof_N 	N 	0.5968	0.66368	0.74012	-0.207
Mof_N 	N 	0.0359	0.86008	0.02852	-0.312
Mof_N 	N 	0.2487	0.71823	0.04297	-0.321
Mof_N 	N 	0.3436	0.7824	0.838	-0.202
Mof_N 	N 	0.191	0.20013	0.58947	-0.313
Mof_N 	N 	0.9751	0.21289	0.64491	-0.305
Mof_N 	N 	0.34	0.883	0.728	-0.2
Mof_N 	N 	0.9562	0.88119	0.13121	-0.316
Mof_N 	N 	0.18248	0.88256	0.09548	-0.309
Mof_N 	N 	0.9994	0.16368	0.24012	-0.204
Mof_N 	N 	0.0755	0.36008	0.52852	-0.314
Mof_N 	N 	0.9901	0.21823	0.54297	-0.32
Mof_N 	N 	0.036	0.2824	0.338	-0.203
Mof_N 	N 	0.0194	0.70013	0.08947	-0.313
Mof_N 	N 	0.1671	0.71289	0.14491	-0.307
Mof_N 	N 	0.049	0.383	0.228	-0.201
Mof_C 	C 	0.3543	0.5041	0.7457	0.744
Mof_S 	S 	0.31304	0.6138	0.72988	0.312
Mof_O 	O 	0.2017	0.6396	0.7222	-0.249
Mof_O 	O 	0.3988	0.618	0.6922	-0.193
Mof_O 	O 	0.3216	0.6515	0.7671	-0.242
Mof_F 	F 	0.2964	0.486	0.78	-0.497
Mof_F 	F 	0.3423	0.459	0.7138	-0.433
Mof_F 	F 	0.4673	0.4624	0.745	-0.455
Mof_C 	C 	0.6041	0.9959	0.7543	0.739
Mof_S 	S 	0.65672	0.8862	0.77012	0.313
Mof_O 	O 	0.5635	0.8604	0.7778	-0.25
Mof_O 	O 	0.709	0.882	0.8078	-0.194
Mof_O 	O 	0.7402	0.8485	0.7329	-0.243
Mof_F 	F 	0.5624	0.014	0.72	-0.495
Mof_F 	F 	0.5151	0.041	0.7862	-0.432
Mof_F 	F 	0.6747	0.0376	0.755	-0.453
Mof_C 	C 	0.6457	0.4959	0.2543	0.744
Mof_S 	S 	0.68696	0.3862	0.27012	0.312
Mof_O 	O 	0.7983	0.3604	0.2778	-0.249
Mof_O 	O 	0.6012	0.382	0.3078	-0.193
Mof_O 	O 	0.6784	0.3485	0.2329	-0.242
Mof_F 	F 	0.7036	0.514	0.22	-0.497
Mof_F 	F 	0.6577	0.541	0.2862	-0.433
Mof_F 	F 	0.5327	0.5376	0.255	-0.455
Mof_C 	C 	0.3959	0.0041	0.2457	0.739
Mof_S 	S 	0.34328	0.1138	0.22988	0.313
Mof_O 	O 	0.4365	0.1396	0.2222	-0.25
Mof_O 	O 	0.291	0.118	0.1922	-0.194
Mof_O 	O 	0.2598	0.1515	0.2671	-0.243
Mof_F 	F 	0.4376	0.986	0.28	-0.495
Mof_F 	F 	0.4849	0.959	0.2138	-0.432
Mof_F 	F 	0.3253	0.9624	0.245	-0.453
_end
