data_functionalizedCrystal
_audit_creation_method	'EQeq! by Chris Wilmer'
_symmetry_space_group_name_H-M	'P1'
_symmetry_Int_Tables_number	1
_symmetry_cell_setting	triclinic
loop_
_symmetry_equiv_pos_as_xyz
  x,y,z
_cell_length_a	12.4176
_cell_length_b	22.5346
_cell_length_c	10.1644
_cell_angle_alpha	90
_cell_angle_beta	107.054
_cell_angle_gamma	90
loop_
_atom_site_label
_atom_site_type_symbol
_atom_site_fract_x
_atom_site_fract_y
_atom_site_fract_z
_atom_site_charge
Mof_C 	C 	0.1578	0.64303	0.884	0.452
Mof_C 	C 	0.1161	0.70667	0.859	-0.271
Mof_H 	H 	0.161	0.7276	0.8073	0.122
Mof_H 	H 	0.0368	0.7062	0.8005	0.126
Mof_C 	C 	0.0399	0.74712	0.0415	0.064
Mof_H 	H 	0.9663	0.7309	0.008	-0.01
Mof_C 	C 	0.2169	0.77	0.0638	-0.055
Mof_H 	H 	0.2884	0.7721	0.0476	0.035
Mof_C 	C 	0.1877	0.7953	0.1683	0.023
Mof_H 	H 	0.2348	0.8191	0.2394	0.028
Mof_C 	C 	0.0112	0.7991	0.2441	-0.194
Mof_H 	H 	0.0601	0.7974	0.3405	0.099
Mof_H 	H 	0.9492	0.7704	0.2351	0.079
Mof_C 	C 	0.9613	0.86091	0.2161	0.371
Mof_C 	C 	0.5498	0.48951	0.8841	0.472
Mof_C 	C 	0.6592	0.497	0.8459	-0.288
Mof_H 	H 	0.6547	0.473	0.7627	0.126
Mof_H 	H 	0.6673	0.5391	0.8228	0.132
Mof_C 	C 	0.809	0.42393	0.9746	0.09
Mof_H 	H 	0.7867	0.3904	0.9163	0.014
Mof_C 	C 	0.8957	0.42639	0.0916	-0.095
Mof_H 	H 	0.9469	0.3953	0.1302	0.058
Mof_C 	C 	0.812	0.51405	0.0603	0.02
Mof_H 	H 	0.7935	0.5542	0.0726	0.022
Mof_C 	C 	0.983	0.5077	0.2603	-0.303
Mof_H 	H 	0.9954	0.4813	0.3411	0.124
Mof_H 	H 	0.959	0.547	0.285	0.121
Mof_C 	C 	0.0921	0.51418	0.2218	0.435
Mof_N 	N 	0.1227	0.74027	0.9845	-0.033
Mof_N 	N 	0.0773	0.78048	0.1532	-0.089
Mof_N 	N 	0.759	0.479	0.9558	-0.055
Mof_N 	N 	0.8953	0.48298	0.1443	-0.055
Mof_O 	O 	0.9121	0.87796	0.3016	-0.418
Mof_O 	O 	0.3559	0.54702	0.9935	-0.652
Mof_H 	H 	0.384	0.5795	0.028	0.222
Mof_O 	O 	0.2758	0.54084	0.6011	-0.735
Mof_H 	H 	0.225	0.5654	0.564	0.289
Mof_O 	O 	0.1728	0.62125	0.0025	-0.454
Mof_O 	O 	0.1682	0.61713	0.7804	-0.398
Mof_O 	O 	0.9723	0.88844	0.1135	-0.417
Mof_O 	O 	0.5578	0.48169	0.0096	-0.456
Mof_O 	O 	0.4612	0.49278	0.7869	-0.475
Mof_O 	O 	0.0812	0.52689	0.0979	-0.422
Mof_O 	O 	0.1835	0.50755	0.3138	-0.483
Mof_Cu	Cu	0.42268	0.46962	0.06485	0.925
Mof_Cu	Cu	0.31085	0.55299	0.796	0.938
Mof_Cu	Cu	0.21609	0.53871	0.04069	0.914
Mof_C 	C 	0.6578	0.14303	0.884	0.455
Mof_C 	C 	0.6161	0.20667	0.859	-0.273
Mof_H 	H 	0.661	0.2276	0.8073	0.122
Mof_H 	H 	0.5368	0.2062	0.8005	0.123
Mof_C 	C 	0.5399	0.24712	0.0415	0.022
Mof_H 	H 	0.4663	0.2309	0.008	0.019
Mof_C 	C 	0.7169	0.27	0.0638	-0.057
Mof_H 	H 	0.7884	0.2721	0.0476	0.033
Mof_C 	C 	0.6877	0.2953	0.1683	0.019
Mof_H 	H 	0.7348	0.3191	0.2394	0.027
Mof_C 	C 	0.5112	0.2991	0.2441	-0.256
Mof_H 	H 	0.5601	0.2974	0.3405	0.112
Mof_H 	H 	0.4492	0.2704	0.2351	0.108
Mof_C 	C 	0.4613	0.36091	0.2161	0.401
Mof_C 	C 	0.0498	0.98951	0.8841	0.487
Mof_C 	C 	0.1592	0.997	0.8459	-0.296
Mof_H 	H 	0.1547	0.973	0.7627	0.13
Mof_H 	H 	0.1673	0.0391	0.8228	0.136
Mof_C 	C 	0.309	0.92393	0.9746	0.085
Mof_H 	H 	0.2867	0.8904	0.9163	0.017
Mof_C 	C 	0.3957	0.92639	0.0916	-0.087
Mof_H 	H 	0.4469	0.8953	0.1302	0.061
Mof_C 	C 	0.312	0.01405	0.0603	0.027
Mof_H 	H 	0.2935	0.0542	0.0726	0.023
Mof_C 	C 	0.483	0.0077	0.2603	-0.28
Mof_H 	H 	0.4954	0.9813	0.3411	0.123
Mof_H 	H 	0.459	0.047	0.285	0.119
Mof_C 	C 	0.5921	0.01418	0.2218	0.417
Mof_N 	N 	0.6227	0.24027	0.9845	-0.024
Mof_N 	N 	0.5773	0.28048	0.1532	-0.076
Mof_N 	N 	0.259	0.979	0.9558	-0.055
Mof_N 	N 	0.3953	0.98298	0.1443	-0.057
Mof_O 	O 	0.4121	0.37796	0.3016	-0.422
Mof_O 	O 	0.8559	0.04702	0.9935	-0.649
Mof_H 	H 	0.884	0.0795	0.028	0.216
Mof_O 	O 	0.7758	0.04084	0.6011	-0.734
Mof_H 	H 	0.725	0.0654	0.564	0.287
Mof_O 	O 	0.6728	0.12125	0.0025	-0.46
Mof_O 	O 	0.6682	0.11713	0.7804	-0.402
Mof_O 	O 	0.4723	0.38844	0.1135	-0.416
Mof_O 	O 	0.0578	0.98169	0.0096	-0.449
Mof_O 	O 	0.9612	0.99278	0.7869	-0.489
Mof_O 	O 	0.5812	0.02689	0.0979	-0.425
Mof_O 	O 	0.6835	0.00755	0.3138	-0.48
Mof_Cu	Cu	0.92268	0.96962	0.06485	0.92
Mof_Cu	Cu	0.81085	0.05299	0.796	0.938
Mof_Cu	Cu	0.71609	0.03871	0.04069	0.912
Mof_C 	C 	0.1578	0.35697	0.384	0.388
Mof_C 	C 	0.1161	0.29333	0.359	-0.24
Mof_H 	H 	0.161	0.2724	0.3073	0.104
Mof_H 	H 	0.0368	0.2938	0.3005	0.109
Mof_C 	C 	0.0399	0.25288	0.5415	0.108
Mof_H 	H 	0.9663	0.2691	0.508	-0.006
Mof_C 	C 	0.2169	0.23	0.5638	-0
Mof_H 	H 	0.2884	0.2279	0.5476	0.032
Mof_C 	C 	0.1877	0.2047	0.6683	0.008
Mof_H 	H 	0.2348	0.1809	0.7394	0.042
Mof_C 	C 	0.0112	0.2009	0.7441	-0.204
Mof_H 	H 	0.0601	0.2026	0.8405	0.111
Mof_H 	H 	0.9492	0.2296	0.7351	0.091
Mof_C 	C 	0.9613	0.13909	0.7161	0.377
Mof_C 	C 	0.5498	0.51049	0.3841	0.41
Mof_C 	C 	0.6592	0.503	0.3459	-0.269
Mof_H 	H 	0.6547	0.527	0.2627	0.117
Mof_H 	H 	0.6673	0.4609	0.3228	0.118
Mof_C 	C 	0.809	0.57607	0.4746	-0
Mof_H 	H 	0.7867	0.6096	0.4163	0.03
Mof_C 	C 	0.8957	0.57361	0.5916	-0.008
Mof_H 	H 	0.9469	0.6047	0.6302	0.038
Mof_C 	C 	0.812	0.48595	0.5603	0.072
Mof_H 	H 	0.7935	0.4458	0.5726	0.018
Mof_C 	C 	0.983	0.4923	0.7603	-0.296
Mof_H 	H 	0.9954	0.5187	0.8411	0.134
Mof_H 	H 	0.959	0.453	0.785	0.128
Mof_C 	C 	0.0921	0.48582	0.7218	0.431
Mof_N 	N 	0.1227	0.25973	0.4845	-0.086
Mof_N 	N 	0.0773	0.21952	0.6532	-0.088
Mof_N 	N 	0.759	0.521	0.4558	-0.075
Mof_N 	N 	0.8953	0.51702	0.6443	-0.071
Mof_O 	O 	0.9121	0.12204	0.8016	-0.408
Mof_O 	O 	0.3559	0.45298	0.4935	-0.735
Mof_H 	H 	0.384	0.4205	0.528	0.286
Mof_O 	O 	0.2758	0.45916	0.1011	-0.743
Mof_H 	H 	0.225	0.4346	0.064	0.281
Mof_O 	O 	0.1728	0.37875	0.5025	-0.403
Mof_O 	O 	0.1682	0.38287	0.2804	-0.389
Mof_O 	O 	0.9723	0.11156	0.6135	-0.408
Mof_O 	O 	0.5578	0.51831	0.5096	-0.406
Mof_O 	O 	0.4612	0.50722	0.2869	-0.467
Mof_O 	O 	0.0812	0.47311	0.5979	-0.41
Mof_O 	O 	0.1835	0.49245	0.8138	-0.469
Mof_Cu	Cu	0.42268	0.53038	0.56485	0.937
Mof_Cu	Cu	0.31085	0.44701	0.296	0.936
Mof_Cu	Cu	0.21609	0.46129	0.54069	0.929
Mof_C 	C 	0.6578	0.85697	0.384	0.386
Mof_C 	C 	0.6161	0.79333	0.359	-0.241
Mof_H 	H 	0.661	0.7724	0.3073	0.102
Mof_H 	H 	0.5368	0.7938	0.3005	0.103
Mof_C 	C 	0.5399	0.75288	0.5415	0.074
Mof_H 	H 	0.4663	0.7691	0.508	0.016
Mof_C 	C 	0.7169	0.73	0.5638	0.001
Mof_H 	H 	0.7884	0.7279	0.5476	0.03
Mof_C 	C 	0.6877	0.7047	0.6683	0.003
Mof_H 	H 	0.7348	0.6809	0.7394	0.042
Mof_C 	C 	0.5112	0.7009	0.7441	-0.256
Mof_H 	H 	0.5601	0.7026	0.8405	0.122
Mof_H 	H 	0.4492	0.7296	0.7351	0.115
Mof_C 	C 	0.4613	0.63909	0.7161	0.403
Mof_C 	C 	0.0498	0.01049	0.3841	0.434
Mof_C 	C 	0.1592	0.003	0.3459	-0.278
Mof_H 	H 	0.1547	0.027	0.2627	0.123
Mof_H 	H 	0.1673	0.9609	0.3228	0.124
Mof_C 	C 	0.309	0.07607	0.4746	0
Mof_H 	H 	0.2867	0.1096	0.4163	0.032
Mof_C 	C 	0.3957	0.07361	0.5916	-0.005
Mof_H 	H 	0.4469	0.1047	0.6302	0.042
Mof_C 	C 	0.312	0.98595	0.5603	0.072
Mof_H 	H 	0.2935	0.9458	0.5726	0.019
Mof_C 	C 	0.483	0.9923	0.7603	-0.28
Mof_H 	H 	0.4954	0.0187	0.8411	0.136
Mof_H 	H 	0.459	0.953	0.785	0.127
Mof_C 	C 	0.5921	0.98582	0.7218	0.417
Mof_N 	N 	0.6227	0.75973	0.4845	-0.082
Mof_N 	N 	0.5773	0.71952	0.6532	-0.077
Mof_N 	N 	0.259	0.021	0.4558	-0.074
Mof_N 	N 	0.3953	0.01702	0.6443	-0.071
Mof_O 	O 	0.4121	0.62204	0.8016	-0.411
Mof_O 	O 	0.8559	0.95298	0.4935	-0.737
Mof_H 	H 	0.884	0.9205	0.528	0.283
Mof_O 	O 	0.7758	0.95916	0.1011	-0.744
Mof_H 	H 	0.725	0.9346	0.064	0.279
Mof_O 	O 	0.6728	0.87875	0.5025	-0.406
Mof_O 	O 	0.6682	0.88287	0.2804	-0.393
Mof_O 	O 	0.4723	0.61156	0.6135	-0.407
Mof_O 	O 	0.0578	0.01831	0.5096	-0.404
Mof_O 	O 	0.9612	0.00722	0.2869	-0.485
Mof_O 	O 	0.5812	0.97311	0.5979	-0.413
Mof_O 	O 	0.6835	0.99245	0.8138	-0.467
Mof_Cu	Cu	0.92268	0.03038	0.56485	0.934
Mof_Cu	Cu	0.81085	0.94701	0.296	0.935
Mof_Cu	Cu	0.71609	0.96129	0.54069	0.928
_end
