# CIF file generated by openbabel 3.1.0, see https://openbabel.org
data_I
_chemical_name_common 'image0'
_cell_length_a 12.203
_cell_length_b 21.711
_cell_length_c 22.709
_cell_angle_alpha 90
_cell_angle_beta 91.74
_cell_angle_gamma 90
_space_group_name_H-M_alt 'P 1'
_space_group_name_Hall 'P 1'
loop_
    _symmetry_equiv_pos_as_xyz
    x,y,z
loop_
    _atom_site_label
    _atom_site_type_symbol
    _atom_site_fract_x
    _atom_site_fract_y
    _atom_site_fract_z
    _atom_site_occupancy
    W1       W        0.67021    0.22416    0.82282    1.000
    W2       W        0.58380    0.99520    0.67803    1.000
    W3       W        0.95604    0.17928    0.83860    1.000
    W4       W        0.85025    0.95254    0.69138    1.000
    W5       W        0.49384    0.13955    0.73932    1.000
    W6       W        0.03872    0.04408    0.78221    1.000
    W7       W        0.77813    0.07442    0.60643    1.000
    W8       W        0.81558    0.96243    0.84966    1.000
    W9       W        0.69390    0.21710    0.67996    1.000
    W10      W        0.98050    0.16160    0.69749    1.000
    W11      W        0.74190    0.08785    0.91240    1.000
    W12      W        0.56091    0.01021    0.83836    1.000
    Pr1      Pr       0.65014    0.38421    0.58287    1.000
    Pr2      Pr       0.13427    0.28699    0.58403    1.000
    O1       O        0.44720    0.97000    0.86030    1.000
    O2       O        0.06720    0.20350    0.65200    1.000
    O3       O        0.68590    0.27680    0.62780    1.000
    O4       O        0.85150    0.89690    0.88770    1.000
    O5       O        0.33240    0.31690    0.58320    1.000
    O6       O        0.73660    0.10720    0.98640    1.000
    O7       O        0.66010    0.94320    0.85820    1.000
    O8       O        0.84790    0.36370    0.59650    1.000
    O9       O        0.98750    0.32460    0.64870    1.000
    O10      O        0.70800    0.14630    0.62760    1.000
    O11      O        0.49570    0.34250    0.62710    1.000
    O12      O        0.81380    0.93570    0.77180    1.000
    O13      O        0.94950    0.00400    0.83550    1.000
    O14      O        0.81040    0.00990    0.92570    1.000
    O15      O        0.08100    0.10070    0.72040    1.000
    O16      O        0.51960    0.07260    0.68830    1.000
    O17      O        0.67500    0.15300    0.75450    1.000
    O18      O        0.67020    0.16090    0.87750    1.000
    O19      O        0.74900    0.03880    0.70100    1.000
    O20      O        0.53920    0.19740    0.68260    1.000
    O21      O        0.87670    0.12650    0.89270    1.000
    O22      O        0.06490    0.11050    0.84090    1.000
    O23      O        0.59400    0.04800    0.91090    1.000
    O24      O        0.85800    0.99610    0.62080    1.000
    O25      O        0.72460    0.04580    0.82950    1.000
    O26      O        0.90690    0.11050    0.64260    1.000
    O27      O        0.52000    0.20330    0.80090    1.000
    O28      O        0.84900    0.21010    0.69060    1.000
    O29      O        0.67980    0.26800    0.74680    1.000
    O30      O        0.82680    0.22330    0.82890    1.000
    O31      O        0.49930    0.08200    0.80320    1.000
    O32      O        0.56100    0.97990    0.75660    1.000
    O33      O        0.64200    0.03260    0.60490    1.000
    O34      O        0.89900    0.11340    0.77070    1.000
    O35      O        0.96860    0.99470    0.72280    1.000
    O36      O        0.01000    0.20580    0.76780    1.000
    O37      O        0.69730    0.93210    0.67390    1.000
    C1       C        0.34900    0.31280    0.68850    1.000
    C2       C        0.39700    0.32590    0.62970    1.000
    C3       C        0.89400    0.35040    0.64370    1.000
    C4       C        0.83700    0.36580    0.70130    1.000
    C5       C        0.26500    0.29170    0.79270    1.000
    H1       H        0.23210    0.28560    0.82860    1.000
    C6       C        0.88700    0.35750    0.75750    1.000
    H2       H        0.95680    0.34020    0.76140    1.000
    C7       C        0.20600    0.28360    0.74170    1.000
    H3       H        0.13350    0.27000    0.74440    1.000
    C8       C        0.68700    0.40780    0.74170    1.000
    H4       H        0.61690    0.42500    0.73810    1.000
    C9       C        0.73600    0.39860    0.79890    1.000
    H5       H        0.69840    0.40940    0.83250    1.000
    C10      C        0.41500    0.32030    0.74220    1.000
    H6       H        0.48750    0.33320    0.74130    1.000
    N1       N        0.24410    0.29390    0.68770    1.000
    N2       N        0.73960    0.39220    0.69330    1.000
    N3       N        0.83500    0.37420    0.80330    1.000
    N4       N        0.36800    0.30810    0.79170    1.000
    W13      W        0.96770    0.16200    0.67890    1.000
    W14      W        0.76020    0.10650    0.90700    1.000
    W15      W        0.55090    0.01710    0.82000    1.000
    W16      W        0.71780    0.21400    0.66490    1.000
    W17      W        0.32979    0.72416    0.67718    1.000
    W18      W        0.41620    0.49520    0.82197    1.000
    W19      W        0.04396    0.67928    0.66140    1.000
    W20      W        0.14975    0.45254    0.80862    1.000
    W21      W        0.50616    0.63955    0.76068    1.000
    W22      W        0.96128    0.54408    0.71779    1.000
    W23      W        0.22187    0.57442    0.89357    1.000
    W24      W        0.18442    0.46243    0.65034    1.000
    W25      W        0.30610    0.71710    0.82004    1.000
    W26      W        0.01950    0.66160    0.80251    1.000
    W27      W        0.25810    0.58785    0.58760    1.000
    W28      W        0.43909    0.51021    0.66164    1.000
    Pr3      Pr       0.34986    0.88421    0.91713    1.000
    Pr4      Pr       0.86573    0.78699    0.91597    1.000
    O38      O        0.55280    0.47000    0.63970    1.000
    O39      O        0.93280    0.70350    0.84800    1.000
    O40      O        0.31410    0.77680    0.87220    1.000
    O41      O        0.14850    0.39690    0.61230    1.000
    O42      O        0.66760    0.81690    0.91680    1.000
    O43      O        0.26340    0.60720    0.51360    1.000
    O44      O        0.33990    0.44320    0.64180    1.000
    O45      O        0.15210    0.86370    0.90350    1.000
    O46      O        0.01250    0.82460    0.85130    1.000
    O47      O        0.29200    0.64630    0.87240    1.000
    O48      O        0.50430    0.84250    0.87290    1.000
    O49      O        0.18620    0.43570    0.72820    1.000
    O50      O        0.05050    0.50400    0.66450    1.000
    O51      O        0.18960    0.50990    0.57430    1.000
    O52      O        0.91900    0.60070    0.77960    1.000
    O53      O        0.48040    0.57260    0.81170    1.000
    O54      O        0.32500    0.65300    0.74550    1.000
    O55      O        0.32980    0.66090    0.62250    1.000
    O56      O        0.25100    0.53880    0.79900    1.000
    O57      O        0.46080    0.69740    0.81740    1.000
    O58      O        0.12330    0.62650    0.60730    1.000
    O59      O        0.93510    0.61050    0.65910    1.000
    O60      O        0.40600    0.54800    0.58910    1.000
    O61      O        0.14200    0.49610    0.87920    1.000
    O62      O        0.27540    0.54580    0.67050    1.000
    O63      O        0.09310    0.61050    0.85740    1.000
    O64      O        0.48000    0.70330    0.69910    1.000
    O65      O        0.15100    0.71010    0.80940    1.000
    O66      O        0.32020    0.76800    0.75320    1.000
    O67      O        0.17320    0.72330    0.67110    1.000
    O68      O        0.50070    0.58200    0.69680    1.000
    O69      O        0.43900    0.47990    0.74340    1.000
    O70      O        0.35800    0.53260    0.89510    1.000
    O71      O        0.10100    0.61340    0.72930    1.000
    O72      O        0.03140    0.49470    0.77720    1.000
    O73      O        0.99000    0.70580    0.73220    1.000
    O74      O        0.30270    0.43210    0.82610    1.000
    C11      C        0.65100    0.81280    0.81150    1.000
    C12      C        0.60300    0.82590    0.87030    1.000
    C13      C        0.10600    0.85040    0.85630    1.000
    C14      C        0.16300    0.86580    0.79870    1.000
    C15      C        0.73500    0.79170    0.70730    1.000
    H7       H        0.76790    0.78560    0.67140    1.000
    C16      C        0.11300    0.85750    0.74250    1.000
    H8       H        0.04320    0.84020    0.73860    1.000
    C17      C        0.79400    0.78360    0.75830    1.000
    H9       H        0.86650    0.77000    0.75560    1.000
    C18      C        0.31300    0.90780    0.75830    1.000
    H10      H        0.38310    0.92500    0.76190    1.000
    C19      C        0.26400    0.89860    0.70110    1.000
    H11      H        0.30160    0.90940    0.66750    1.000
    C20      C        0.58500    0.82030    0.75780    1.000
    H12      H        0.51250    0.83320    0.75870    1.000
    N5       N        0.75590    0.79390    0.81230    1.000
    N6       N        0.26040    0.89220    0.80670    1.000
    N7       N        0.16500    0.87420    0.69670    1.000
    N8       N        0.63200    0.80810    0.70830    1.000
    W29      W        0.03230    0.66200    0.82110    1.000
    W30      W        0.23980    0.60650    0.59300    1.000
    W31      W        0.44910    0.51710    0.68000    1.000
    W32      W        0.28220    0.71400    0.83510    1.000
    W33      W        0.32979    0.77584    0.17718    1.000
    W34      W        0.41620    0.00480    0.32197    1.000
    W35      W        0.04396    0.82072    0.16140    1.000
    W36      W        0.14975    0.04746    0.30862    1.000
    W37      W        0.50616    0.86045    0.26068    1.000
    W38      W        0.96128    0.95592    0.21779    1.000
    W39      W        0.22187    0.92558    0.39357    1.000
    W40      W        0.18442    0.03757    0.15034    1.000
    W41      W        0.30610    0.78290    0.32004    1.000
    W42      W        0.01950    0.83840    0.30251    1.000
    W43      W        0.25810    0.91215    0.08760    1.000
    W44      W        0.43909    0.98979    0.16164    1.000
    Pr5      Pr       0.34986    0.61579    0.41713    1.000
    Pr6      Pr       0.86573    0.71301    0.41597    1.000
    O75      O        0.55280    0.03000    0.13970    1.000
    O76      O        0.93280    0.79650    0.34800    1.000
    O77      O        0.31410    0.72320    0.37220    1.000
    O78      O        0.14850    0.10310    0.11230    1.000
    O79      O        0.66760    0.68310    0.41680    1.000
    O80      O        0.26340    0.89280    0.01360    1.000
    O81      O        0.33990    0.05680    0.14180    1.000
    O82      O        0.15210    0.63630    0.40350    1.000
    O83      O        0.01250    0.67540    0.35130    1.000
    O84      O        0.29200    0.85370    0.37240    1.000
    O85      O        0.50430    0.65750    0.37290    1.000
    O86      O        0.18620    0.06430    0.22820    1.000
    O87      O        0.05050    0.99600    0.16450    1.000
    O88      O        0.18960    0.99010    0.07430    1.000
    O89      O        0.91900    0.89930    0.27960    1.000
    O90      O        0.48040    0.92740    0.31170    1.000
    O91      O        0.32500    0.84700    0.24550    1.000
    O92      O        0.32980    0.83910    0.12250    1.000
    O93      O        0.25100    0.96120    0.29900    1.000
    O94      O        0.46080    0.80260    0.31740    1.000
    O95      O        0.12330    0.87350    0.10730    1.000
    O96      O        0.93510    0.88950    0.15910    1.000
    O97      O        0.40600    0.95200    0.08910    1.000
    O98      O        0.14200    0.00390    0.37920    1.000
    O99      O        0.27540    0.95420    0.17050    1.000
    O100     O        0.09310    0.88950    0.35740    1.000
    O101     O        0.48000    0.79670    0.19910    1.000
    O102     O        0.15100    0.78990    0.30940    1.000
    O103     O        0.32020    0.73200    0.25320    1.000
    O104     O        0.17320    0.77670    0.17110    1.000
    O105     O        0.50070    0.91800    0.19680    1.000
    O106     O        0.43900    0.02010    0.24340    1.000
    O107     O        0.35800    0.96740    0.39510    1.000
    O108     O        0.10100    0.88660    0.22930    1.000
    O109     O        0.03140    0.00530    0.27720    1.000
    O110     O        0.99000    0.79420    0.23220    1.000
    O111     O        0.30270    0.06790    0.32610    1.000
    C21      C        0.65100    0.68720    0.31150    1.000
    C22      C        0.60300    0.67410    0.37030    1.000
    C23      C        0.10600    0.64960    0.35630    1.000
    C24      C        0.16300    0.63420    0.29870    1.000
    C25      C        0.73500    0.70830    0.20730    1.000
    H13      H        0.76790    0.71440    0.17140    1.000
    C26      C        0.11300    0.64250    0.24250    1.000
    H14      H        0.04320    0.65980    0.23860    1.000
    C27      C        0.79400    0.71640    0.25830    1.000
    H15      H        0.86650    0.73000    0.25560    1.000
    C28      C        0.31300    0.59220    0.25830    1.000
    H16      H        0.38310    0.57500    0.26190    1.000
    C29      C        0.26400    0.60140    0.20110    1.000
    H17      H        0.30160    0.59060    0.16750    1.000
    C30      C        0.58500    0.67970    0.25780    1.000
    H18      H        0.51250    0.66680    0.25870    1.000
    N9       N        0.75590    0.70610    0.31230    1.000
    N10      N        0.26040    0.60780    0.30670    1.000
    N11      N        0.16500    0.62580    0.19670    1.000
    N12      N        0.63200    0.69190    0.20830    1.000
    W45      W        0.03230    0.83800    0.32110    1.000
    W46      W        0.23980    0.89350    0.09300    1.000
    W47      W        0.44910    0.98290    0.18000    1.000
    W48      W        0.28220    0.78600    0.33510    1.000
    W49      W        0.67021    0.27584    0.32282    1.000
    W50      W        0.58380    0.50480    0.17803    1.000
    W51      W        0.95604    0.32072    0.33860    1.000
    W52      W        0.85025    0.54746    0.19138    1.000
    W53      W        0.49384    0.36045    0.23932    1.000
    W54      W        0.03872    0.45592    0.28221    1.000
    W55      W        0.77813    0.42558    0.10643    1.000
    W56      W        0.81558    0.53757    0.34966    1.000
    W57      W        0.69390    0.28290    0.17996    1.000
    W58      W        0.98050    0.33840    0.19749    1.000
    W59      W        0.74190    0.41215    0.41240    1.000
    W60      W        0.56091    0.48979    0.33836    1.000
    Pr7      Pr       0.65014    0.11579    0.08287    1.000
    Pr8      Pr       0.13427    0.21301    0.08403    1.000
    O112     O        0.44720    0.53000    0.36030    1.000
    O113     O        0.06720    0.29650    0.15200    1.000
    O114     O        0.68590    0.22320    0.12780    1.000
    O115     O        0.85150    0.60310    0.38770    1.000
    O116     O        0.33240    0.18310    0.08320    1.000
    O117     O        0.73660    0.39280    0.48640    1.000
    O118     O        0.66010    0.55680    0.35820    1.000
    O119     O        0.84790    0.13630    0.09650    1.000
    O120     O        0.98750    0.17540    0.14870    1.000
    O121     O        0.70800    0.35370    0.12760    1.000
    O122     O        0.49570    0.15750    0.12710    1.000
    O123     O        0.81380    0.56430    0.27180    1.000
    O124     O        0.94950    0.49600    0.33550    1.000
    O125     O        0.81040    0.49010    0.42570    1.000
    O126     O        0.08100    0.39930    0.22040    1.000
    O127     O        0.51960    0.42740    0.18830    1.000
    O128     O        0.67500    0.34700    0.25450    1.000
    O129     O        0.67020    0.33910    0.37750    1.000
    O130     O        0.74900    0.46120    0.20100    1.000
    O131     O        0.53920    0.30260    0.18260    1.000
    O132     O        0.87670    0.37350    0.39270    1.000
    O133     O        0.06490    0.38950    0.34090    1.000
    O134     O        0.59400    0.45200    0.41090    1.000
    O135     O        0.85800    0.50390    0.12080    1.000
    O136     O        0.72460    0.45420    0.32950    1.000
    O137     O        0.90690    0.38950    0.14260    1.000
    O138     O        0.52000    0.29670    0.30090    1.000
    O139     O        0.84900    0.28990    0.19060    1.000
    O140     O        0.67980    0.23200    0.24680    1.000
    O141     O        0.82680    0.27670    0.32890    1.000
    O142     O        0.49930    0.41800    0.30320    1.000
    O143     O        0.56100    0.52010    0.25660    1.000
    O144     O        0.64200    0.46740    0.10490    1.000
    O145     O        0.89900    0.38660    0.27070    1.000
    O146     O        0.96860    0.50530    0.22280    1.000
    O147     O        0.01000    0.29420    0.26780    1.000
    O148     O        0.69730    0.56790    0.17390    1.000
    C31      C        0.34900    0.18720    0.18850    1.000
    C32      C        0.39700    0.17410    0.12970    1.000
    C33      C        0.89400    0.14960    0.14370    1.000
    C34      C        0.83700    0.13420    0.20130    1.000
    C35      C        0.26500    0.20830    0.29270    1.000
    H19      H        0.23210    0.21440    0.32860    1.000
    C36      C        0.88700    0.14250    0.25750    1.000
    H20      H        0.95680    0.15980    0.26140    1.000
    C37      C        0.20600    0.21640    0.24170    1.000
    H21      H        0.13350    0.23000    0.24440    1.000
    C38      C        0.68700    0.09220    0.24170    1.000
    H22      H        0.61690    0.07500    0.23810    1.000
    C39      C        0.73600    0.10140    0.29890    1.000
    H23      H        0.69840    0.09060    0.33250    1.000
    C40      C        0.41500    0.17970    0.24220    1.000
    H24      H        0.48750    0.16680    0.24130    1.000
    N13      N        0.24410    0.20610    0.18770    1.000
    N14      N        0.73960    0.10780    0.19330    1.000
    N15      N        0.83500    0.12580    0.30330    1.000
    N16      N        0.36800    0.19190    0.29170    1.000
    W61      W        0.96770    0.33800    0.17890    1.000
    W62      W        0.76020    0.39350    0.40700    1.000
    W63      W        0.55090    0.48290    0.32000    1.000
    W64      W        0.71780    0.28600    0.16490    1.000
