data_functionalizedCrystal
_audit_creation_method	'EQeq! by Chris Wilmer'
_symmetry_space_group_name_H-M	'P1'
_symmetry_Int_Tables_number	1
_symmetry_cell_setting	triclinic
loop_
_symmetry_equiv_pos_as_xyz
  x,y,z
_cell_length_a	13.6861
_cell_length_b	13.6861
_cell_length_c	16.383
_cell_angle_alpha	67.0707
_cell_angle_beta	67.0707
_cell_angle_gamma	75.6497
loop_
_atom_site_label
_atom_site_type_symbol
_atom_site_fract_x
_atom_site_fract_y
_atom_site_fract_z
_atom_site_charge
Mof_Eu	Eu	0.83237	0.54586	0.50184	2.099
Mof_Eu	Eu	0.45414	0.16763	0.99816	2.066
Mof_Eu	Eu	0.16763	0.45414	0.49816	2.099
Mof_Eu	Eu	0.54586	0.83237	0.00184	2.066
Mof_H 	H 	0.2235	0.3385	0.243	0.042
Mof_H 	H 	0.0817	0.3459	0.0669	0.101
Mof_H 	H 	0.9135	0.4533	0.2847	0.045
Mof_H 	H 	0.08	0.128	0.6528	0.057
Mof_H 	H 	0.6615	0.7765	0.257	0.041
Mof_H 	H 	0.6541	0.9183	0.4331	0.101
Mof_H 	H 	0.5467	0.0865	0.2153	0.043
Mof_H 	H 	0.872	0.92	0.8472	0.053
Mof_H 	H 	0.7765	0.6615	0.757	0.041
Mof_H 	H 	0.9183	0.6541	0.9331	0.1
Mof_H 	H 	0.0865	0.5467	0.7153	0.044
Mof_H 	H 	0.92	0.872	0.3472	0.056
Mof_H 	H 	0.3385	0.2235	0.743	0.041
Mof_H 	H 	0.3459	0.0817	0.5669	0.101
Mof_H 	H 	0.4533	0.9135	0.7847	0.043
Mof_H 	H 	0.128	0.08	0.1528	0.053
Mof_H 	H 	0.769	0.231	0.75	-0.016
Mof_H 	H 	0.231	0.769	0.25	-0.016
Mof_C 	C 	0.06373	0.42751	0.3593	0.496
Mof_C 	C 	0.26928	0.2809	0.0921	0.304
Mof_C 	C 	0.06842	0.4013	0.2765	-0.129
Mof_C 	C 	0.16325	0.35505	0.2249	0.03
Mof_C 	C 	0.16875	0.33339	0.1469	-0.051
Mof_C 	C 	0.0788	0.3582	0.1198	-0.051
Mof_C 	C 	0.98533	0.40135	0.1727	0.082
Mof_C 	C 	0.97774	0.4238	0.2506	-0.016
Mof_C 	C 	0.95061	0.30825	0.6226	0.512
Mof_C 	C 	0.01033	0.11485	0.6908	0.026
Mof_C 	C 	0.92711	0.19677	0.6896	-0.177
Mof_C 	C 	0.57249	0.93627	0.1407	0.479
Mof_C 	C 	0.7191	0.73072	0.4079	0.305
Mof_C 	C 	0.5987	0.93158	0.2235	-0.135
Mof_C 	C 	0.64495	0.83675	0.2751	0.029
Mof_C 	C 	0.66661	0.83125	0.3531	-0.051
Mof_C 	C 	0.6418	0.9212	0.3802	-0.058
Mof_C 	C 	0.59865	0.01467	0.3273	0.087
Mof_C 	C 	0.5762	0.02226	0.2494	-0.007
Mof_C 	C 	0.69175	0.04939	0.8774	0.497
Mof_C 	C 	0.88515	0.98967	0.8092	0.046
Mof_C 	C 	0.80323	0.07289	0.8104	-0.185
Mof_C 	C 	0.93627	0.57249	0.6407	0.496
Mof_C 	C 	0.73072	0.7191	0.9079	0.304
Mof_C 	C 	0.93158	0.5987	0.7235	-0.129
Mof_C 	C 	0.83675	0.64495	0.7751	0.03
Mof_C 	C 	0.83125	0.66661	0.8531	-0.051
Mof_C 	C 	0.9212	0.6418	0.8802	-0.051
Mof_C 	C 	0.01467	0.59865	0.8273	0.082
Mof_C 	C 	0.02226	0.5762	0.7494	-0.016
Mof_C 	C 	0.04939	0.69175	0.3774	0.512
Mof_C 	C 	0.98967	0.88515	0.3092	0.026
Mof_C 	C 	0.07289	0.80323	0.3104	-0.177
Mof_C 	C 	0.42751	0.06373	0.8593	0.479
Mof_C 	C 	0.2809	0.26928	0.5921	0.305
Mof_C 	C 	0.4013	0.06842	0.7765	-0.135
Mof_C 	C 	0.35505	0.16325	0.7249	0.029
Mof_C 	C 	0.33339	0.16875	0.6469	-0.051
Mof_C 	C 	0.3582	0.0788	0.6198	-0.058
Mof_C 	C 	0.40135	0.98533	0.6727	0.087
Mof_C 	C 	0.4238	0.97774	0.7506	-0.007
Mof_C 	C 	0.30825	0.95061	0.1226	0.497
Mof_C 	C 	0.11485	0.01033	0.1908	0.046
Mof_C 	C 	0.19677	0.92711	0.1896	-0.185
Mof_C 	C 	0.9867	0.0133	0.75	0.015
Mof_C 	C 	0.8244	0.1756	0.75	0.113
Mof_C 	C 	0.0133	0.9867	0.25	0.015
Mof_C 	C 	0.1756	0.8244	0.25	0.113
Mof_N 	N 	0.88936	0.4232	0.1455	-0.002
Mof_N 	N 	0.5768	0.11064	0.3545	-0.003
Mof_N 	N 	0.11064	0.5768	0.8545	-0.002
Mof_N 	N 	0.4232	0.88936	0.6455	-0.003
Mof_N 	N 	0.0747	0.9253	0.75	0.001
Mof_N 	N 	0.9253	0.0747	0.25	0.001
Mof_O 	O 	0.34734	0.24616	0.12254	-0.452
Mof_O 	O 	0.04717	0.32429	0.58599	-0.532
Mof_O 	O 	0.97576	0.46862	0.40228	-0.585
Mof_O 	O 	0.14792	0.4073	0.37908	-0.529
Mof_O 	O 	0.87268	0.37512	0.60892	-0.574
Mof_O 	O 	0.90103	0.42233	0.06816	-0.108
Mof_O 	O 	0.27198	0.27314	0.01724	-0.402
Mof_O 	O 	0.80298	0.44176	0.2015	-0.126
Mof_O 	O 	0.05173	0.83385	0.79075	-0.104
Mof_O 	O 	0.75384	0.65266	0.37746	-0.458
Mof_O 	O 	0.67571	0.95283	0.91401	-0.514
Mof_O 	O 	0.53138	0.02424	0.09772	-0.566
Mof_O 	O 	0.5927	0.85208	0.12092	-0.524
Mof_O 	O 	0.62488	0.12732	0.89108	-0.568
Mof_O 	O 	0.57767	0.09897	0.43184	-0.108
Mof_O 	O 	0.72686	0.72802	0.48276	-0.41
Mof_O 	O 	0.55824	0.19702	0.2985	-0.125
Mof_O 	O 	0.16615	0.94827	0.70925	-0.102
Mof_O 	O 	0.65266	0.75384	0.87746	-0.452
Mof_O 	O 	0.95283	0.67571	0.41401	-0.532
Mof_O 	O 	0.02424	0.53138	0.59772	-0.585
Mof_O 	O 	0.85208	0.5927	0.62092	-0.529
Mof_O 	O 	0.12732	0.62488	0.39108	-0.574
Mof_O 	O 	0.09897	0.57767	0.93184	-0.108
Mof_O 	O 	0.72802	0.72686	0.98276	-0.402
Mof_O 	O 	0.19702	0.55824	0.7985	-0.126
Mof_O 	O 	0.94827	0.16615	0.20925	-0.104
Mof_O 	O 	0.24616	0.34734	0.62254	-0.458
Mof_O 	O 	0.32429	0.04717	0.08599	-0.514
Mof_O 	O 	0.46862	0.97576	0.90228	-0.566
Mof_O 	O 	0.4073	0.14792	0.87908	-0.524
Mof_O 	O 	0.37512	0.87268	0.10892	-0.568
Mof_O 	O 	0.42233	0.90103	0.56816	-0.108
Mof_O 	O 	0.27314	0.27198	0.51724	-0.41
Mof_O 	O 	0.44176	0.80298	0.7015	-0.125
Mof_O 	O 	0.83385	0.05173	0.29075	-0.102
_end
