# CIF file generated by openbabel 3.1.0, see https://openbabel.org
data_I
_chemical_name_common 'XUMVEH_clean'
_cell_length_a 13.8542
_cell_length_b 13.8542
_cell_length_c 16.445
_cell_angle_alpha 67.1022
_cell_angle_beta 67.1022
_cell_angle_gamma 75.8689
_space_group_name_H-M_alt 'P 1'
_space_group_name_Hall 'P 1'
loop_
    _symmetry_equiv_pos_as_xyz
    x,y,z
loop_
    _atom_site_label
    _atom_site_type_symbol
    _atom_site_fract_x
    _atom_site_fract_y
    _atom_site_fract_z
    _atom_site_occupancy
    Nd1      Nd       0.95365    0.66626    0.49935    1.000
    Nd2      Nd       0.33374    0.04635    0.00065    1.000
    Nd3      Nd       0.04635    0.33374    0.50065    1.000
    Nd4      Nd       0.66626    0.95365    0.99935    1.000
    H1       H        0.72150    0.84010    0.74240    1.000
    H2       H        0.41800    0.95320    0.78170    1.000
    H3       H        0.58270    0.84330    0.56760    1.000
    H4       H        0.63000    0.57520    0.65360    1.000
    H5       H        0.15990    0.27850    0.75760    1.000
    H6       H        0.04680    0.58200    0.71830    1.000
    H7       H        0.15670    0.41730    0.93240    1.000
    H8       H        0.42480    0.37000    0.84640    1.000
    H9       H        0.27850    0.15990    0.25760    1.000
    H10      H        0.58200    0.04680    0.21830    1.000
    H11      H        0.41730    0.15670    0.43240    1.000
    H12      H        0.37000    0.42480    0.34640    1.000
    H13      H        0.84010    0.72150    0.24240    1.000
    H14      H        0.95320    0.41800    0.28170    1.000
    H15      H        0.84330    0.58270    0.06760    1.000
    H16      H        0.57520    0.63000    0.15360    1.000
    H17      H        0.73190    0.26810    0.75000    1.000
    H18      H        0.26810    0.73190    0.25000    1.000
    C1       C        0.66810    0.83330    0.64710    1.000
    C2       C        0.66210    0.85570    0.72440    1.000
    C3       C        0.56970    0.90110    0.77500    1.000
    C4       C        0.48130    0.92350    0.74830    1.000
    C5       C        0.48890    0.90070    0.67090    1.000
    C6       C        0.57990    0.85690    0.61960    1.000
    C7       C        0.76820    0.78060    0.59280    1.000
    C8       C        0.56410    0.92650    0.85840    1.000
    C9       C        0.69880    0.42420    0.69090    1.000
    C10      C        0.61714    0.50634    0.69160    1.000
    C11      C        0.80900    0.44820    0.62500    1.000
    C12      C        0.16670    0.33190    0.85290    1.000
    C13      C        0.14430    0.33790    0.77560    1.000
    C14      C        0.09890    0.43030    0.72500    1.000
    C15      C        0.07650    0.51870    0.75170    1.000
    C16      C        0.09930    0.51110    0.82910    1.000
    C17      C        0.14310    0.42010    0.88040    1.000
    C18      C        0.21940    0.23180    0.90720    1.000
    C19      C        0.07350    0.43590    0.64160    1.000
    C20      C        0.57580    0.30120    0.80910    1.000
    C21      C        0.49366    0.38286    0.80840    1.000
    C22      C        0.55180    0.19100    0.87500    1.000
    C23      C        0.33190    0.16670    0.35290    1.000
    C24      C        0.33790    0.14430    0.27560    1.000
    C25      C        0.43030    0.09890    0.22500    1.000
    C26      C        0.51870    0.07650    0.25170    1.000
    C27      C        0.51110    0.09930    0.32910    1.000
    C28      C        0.42010    0.14310    0.38040    1.000
    C29      C        0.23180    0.21940    0.40720    1.000
    C30      C        0.43590    0.07350    0.14160    1.000
    C31      C        0.30120    0.57580    0.30910    1.000
    C32      C        0.38286    0.49366    0.30840    1.000
    C33      C        0.19100    0.55180    0.37500    1.000
    C34      C        0.83330    0.66810    0.14710    1.000
    C35      C        0.85570    0.66210    0.22440    1.000
    C36      C        0.90110    0.56970    0.27500    1.000
    C37      C        0.92350    0.48130    0.24830    1.000
    C38      C        0.90070    0.48890    0.17090    1.000
    C39      C        0.85690    0.57990    0.11960    1.000
    C40      C        0.78060    0.76820    0.09280    1.000
    C41      C        0.92650    0.56410    0.35840    1.000
    C42      C        0.42420    0.69880    0.19090    1.000
    C43      C        0.50634    0.61714    0.19160    1.000
    C44      C        0.44820    0.80900    0.12500    1.000
    C45      C        0.67730    0.32270    0.75000    1.000
    C46      C        0.51710    0.48290    0.75000    1.000
    C47      C        0.32270    0.67730    0.25000    1.000
    C48      C        0.48290    0.51710    0.25000    1.000
    N1       N        0.39460    0.92380    0.64210    1.000
    N2       N        0.07620    0.60540    0.85790    1.000
    N3       N        0.60540    0.07620    0.35790    1.000
    N4       N        0.92380    0.39460    0.14210    1.000
    N5       N        0.43080    0.56920    0.75000    1.000
    N6       N        0.56920    0.43080    0.25000    1.000
    O1       O        0.77154    0.77058    0.51940    1.000
    O2       O        0.84483    0.74885    0.62320    1.000
    O3       O        0.64739    0.90703    0.87750    1.000
    O4       O        0.47754    0.96854    0.90050    1.000
    O5       O        0.31080    0.94580    0.69600    1.000
    O6       O        0.40680    0.91920    0.56680    1.000
    O7       O        0.87467    0.37177    0.61050    1.000
    O8       O        0.82501    0.54301    0.58910    1.000
    O9       O        0.33997    0.54737    0.79380    1.000
    O10      O        0.22942    0.22846    0.98060    1.000
    O11      O        0.25115    0.15517    0.87680    1.000
    O12      O        0.09297    0.35261    0.62250    1.000
    O13      O        0.03146    0.52246    0.59950    1.000
    O14      O        0.05420    0.68920    0.80400    1.000
    O15      O        0.08080    0.59320    0.93320    1.000
    O16      O        0.62823    0.12533    0.88950    1.000
    O17      O        0.45699    0.17499    0.91090    1.000
    O18      O        0.45263    0.66003    0.70620    1.000
    O19      O        0.22846    0.22942    0.48060    1.000
    O20      O        0.15517    0.25115    0.37680    1.000
    O21      O        0.35261    0.09297    0.12250    1.000
    O22      O        0.52246    0.03146    0.09950    1.000
    O23      O        0.68920    0.05420    0.30400    1.000
    O24      O        0.59320    0.08080    0.43320    1.000
    O25      O        0.12533    0.62823    0.38950    1.000
    O26      O        0.17499    0.45699    0.41090    1.000
    O27      O        0.66003    0.45263    0.20620    1.000
    O28      O        0.77058    0.77154    0.01940    1.000
    O29      O        0.74885    0.84483    0.12320    1.000
    O30      O        0.90703    0.64739    0.37750    1.000
    O31      O        0.96854    0.47754    0.40050    1.000
    O32      O        0.94580    0.31080    0.19600    1.000
    O33      O        0.91920    0.40680    0.06680    1.000
    O34      O        0.37177    0.87467    0.11050    1.000
    O35      O        0.54301    0.82501    0.08910    1.000
    O36      O        0.54737    0.33997    0.29380    1.000
