# CIF file generated by openbabel 3.1.0, see https://openbabel.org
data_I
_chemical_name_common 'image0'
_cell_length_a 8.0352
_cell_length_b 10.1895
_cell_length_c 16.0266
_cell_angle_alpha 93.349
_cell_angle_beta 94.504
_cell_angle_gamma 92.452
_space_group_name_H-M_alt 'P 1'
_space_group_name_Hall 'P 1'
loop_
    _symmetry_equiv_pos_as_xyz
    x,y,z
loop_
    _atom_site_label
    _atom_site_type_symbol
    _atom_site_fract_x
    _atom_site_fract_y
    _atom_site_fract_z
    _atom_site_occupancy
    Mn1      Mn       0.38842    0.55471    0.13608    1.000
    Mn2      Mn       0.25600    0.06321    0.28629    1.000
    Mn3      Mn       0.55567    0.24448    0.42358    1.000
    P1       P        0.74158    0.41041    0.06410    1.000
    P2       P        0.86969    0.16069    0.30598    1.000
    O1       O        0.60860    0.48770    0.09627    1.000
    O2       O        0.73310    0.38060    0.97172    1.000
    O3       O        0.90610    0.49370    0.09650    1.000
    H1       H        0.98640    0.46110    0.07600    1.000
    O4       O        0.75820    0.27670    0.10360    1.000
    H2       H        0.81070    0.28770    0.14960    1.000
    O5       O        0.76480    0.17110    0.37964    1.000
    O6       O        0.04480    0.12910    0.33444    1.000
    O7       O        0.86240    0.28120    0.25503    1.000
    O8       O        0.79890    0.03900    0.24428    1.000
    H3       H        0.69710    0.03140    0.24510    1.000
    O9       O        0.51310    0.74870    0.18150    1.000
    O10      O        0.45940    0.95130    0.23096    1.000
    O11      O        0.20390    0.66430    0.20875    1.000
    O12      O        0.15010    0.86600    0.25732    1.000
    O13      O        0.23260    0.36660    0.11926    1.000
    O14      O        0.21340    0.16720    0.16862    1.000
    O15      O        0.42650    0.45260    0.25792    1.000
    O16      O        0.40510    0.25200    0.30612    1.000
    O17      O        0.36640    0.35960    0.49034    1.000
    O18      O        0.32480    0.56120    0.54315    1.000
    O19      O        0.60350    0.14540    0.54306    1.000
    O20      O        0.59910    0.94350    0.59060    1.000
    C1       C        0.42180    0.83160    0.21120    1.000
    C2       C        0.24250    0.78290    0.22707    1.000
    C3       C        0.26390    0.28570    0.17290    1.000
    C4       C        0.37670    0.33630    0.25250    1.000
    C5       C        0.41080    0.47710    0.50997    1.000
    C6       C        0.55920    0.02750    0.53855    1.000
    Mn4      Mn       0.61158    0.44529    0.86392    1.000
    Mn5      Mn       0.74400    0.93679    0.71371    1.000
    Mn6      Mn       0.44433    0.75552    0.57642    1.000
    P3       P        0.25842    0.58959    0.93590    1.000
    P4       P        0.13031    0.83931    0.69402    1.000
    O21      O        0.39140    0.51230    0.90373    1.000
    O22      O        0.26690    0.61940    0.02828    1.000
    O23      O        0.09390    0.50630    0.90350    1.000
    H4       H        0.01360    0.53890    0.92400    1.000
    O24      O        0.24180    0.72330    0.89640    1.000
    H5       H        0.18930    0.71230    0.85040    1.000
    O25      O        0.23520    0.82890    0.62036    1.000
    O26      O        0.95520    0.87090    0.66556    1.000
    O27      O        0.13760    0.71880    0.74497    1.000
    O28      O        0.20110    0.96100    0.75572    1.000
    H6       H        0.30290    0.96860    0.75490    1.000
    O29      O        0.48690    0.25130    0.81850    1.000
    O30      O        0.54060    0.04870    0.76904    1.000
    O31      O        0.79610    0.33570    0.79125    1.000
    O32      O        0.84990    0.13400    0.74268    1.000
    O33      O        0.76740    0.63340    0.88074    1.000
    O34      O        0.78660    0.83280    0.83138    1.000
    O35      O        0.57350    0.54740    0.74208    1.000
    O36      O        0.59490    0.74800    0.69388    1.000
    O37      O        0.63360    0.64040    0.50966    1.000
    O38      O        0.67520    0.43880    0.45685    1.000
    O39      O        0.39650    0.85460    0.45694    1.000
    O40      O        0.40090    0.05650    0.40940    1.000
    C7       C        0.57820    0.16840    0.78880    1.000
    C8       C        0.75750    0.21710    0.77293    1.000
    C9       C        0.73610    0.71430    0.82710    1.000
    C10      C        0.62330    0.66370    0.74750    1.000
    C11      C        0.58920    0.52290    0.49003    1.000
    C12      C        0.44080    0.97250    0.46145    1.000
