# CIF file generated by openbabel 3.1.0, see https://openbabel.org
data_I
_chemical_name_common 'image0'
_cell_length_a 40.376
_cell_length_b 40.376
_cell_length_c 17.567
_cell_angle_alpha 90
_cell_angle_beta 90
_cell_angle_gamma 90
_space_group_name_H-M_alt 'P 1'
_space_group_name_Hall 'P 1'
loop_
    _symmetry_equiv_pos_as_xyz
    x,y,z
loop_
    _atom_site_label
    _atom_site_type_symbol
    _atom_site_fract_x
    _atom_site_fract_y
    _atom_site_fract_z
    _atom_site_occupancy
    Mn1      Mn       0.72027    0.13581    0.27818    1.000
    O1       O        0.74032    0.09797    0.31305    1.000
    O2       O        0.80300    0.13408    0.13892    1.000
    O3       O        0.70545    0.17652    0.23101    1.000
    N1       N        0.75612    0.14303    0.20730    1.000
    N2       N        0.75394    0.17329    0.16470    1.000
    N3       N        0.68864    0.10813    0.19240    1.000
    C1       C        0.76590    0.08064    0.28460    1.000
    C2       C        0.77264    0.04953    0.31600    1.000
    H1       H        0.75910    0.04130    0.35610    1.000
    C3       C        0.79848    0.03068    0.28970    1.000
    H2       H        0.80280    0.00980    0.31240    1.000
    C4       C        0.81824    0.04152    0.23070    1.000
    H3       H        0.83540    0.02790    0.21120    1.000
    C5       C        0.81267    0.07219    0.20090    1.000
    H4       H        0.82700    0.08010    0.16210    1.000
    C6       C        0.78651    0.09253    0.22530    1.000
    C7       C        0.78200    0.12477    0.18850    1.000
    C8       C        0.72638    0.18801    0.18200    1.000
    C9       C        0.71712    0.22021    0.14350    1.000
    H5       H        0.73670    0.22990    0.11800    1.000
    H6       H        0.70900    0.23630    0.18170    1.000
    C10      C        0.66827    0.08454    0.21280    1.000
    H7       H        0.66780    0.07860    0.26510    1.000
    C11      C        0.64753    0.06779    0.16450    1.000
    H8       H        0.63450    0.04980    0.18200    1.000
    C12      C        0.64624    0.07799    0.08940    1.000
    C13      C        0.66779    0.10253    0.06880    1.000
    H9       H        0.66800    0.11000    0.01760    1.000
    C14      C        0.68831    0.11611    0.11840    1.000
    H10      H        0.70350    0.13230    0.10070    1.000
    C15      C        0.62281    0.06170    0.03430    1.000
    H11      H        0.60400    0.05200    0.06300    1.000
    H12      H        0.61380    0.07870    0.99940    1.000
    Mn2      Mn       0.79573    0.17531    0.08203    1.000
    O4       O        0.77028    0.15369    0.00840    1.000
    O5       O        0.77569    0.25408    0.93783    1.000
    O6       O        0.82068    0.20431    0.14907    1.000
    N4       N        0.78911    0.21690    0.03020    1.000
    N5       N        0.80507    0.24448    0.06572    1.000
    C16      C        0.75357    0.16624    0.95070    1.000
    C17      C        0.73320    0.14370    0.91030    1.000
    H13      H        0.73220    0.12130    0.92610    1.000
    C18      C        0.71570    0.15340    0.85170    1.000
    H14      H        0.69710    0.14090    0.83530    1.000
    C19      C        0.72480    0.18230    0.81380    1.000
    H15      H        0.72270    0.18480    0.76020    1.000
    C20      C        0.73780    0.20810    0.86240    1.000
    H16      H        0.73450    0.23090    0.85100    1.000
    C21      C        0.75529    0.19827    0.92620    1.000
    C22      C        0.77468    0.22437    0.96640    1.000
    C23      C        0.82043    0.23458    0.12630    1.000
    C24      C        0.83815    0.26056    0.17280    1.000
    H17      H        0.82140    0.27490    0.19740    1.000
    H18      H        0.85140    0.27460    0.13810    1.000
    C25      C        0.86110    0.24650    0.23450    1.000
    H19      H        0.84820    0.23280    0.26980    1.000
    H20      H        0.87140    0.26480    0.26250    1.000
    H21      H        0.87840    0.23300    0.21060    1.000
    Mn3      Mn       0.71151    0.20922    0.49449    1.000
    O7       O        0.66935    0.20132    0.53273    1.000
    O8       O        0.68229    0.13381    0.34906    1.000
    O9       O        0.75423    0.21141    0.44491    1.000
    N6       N        0.70671    0.17387    0.42132    1.000
    N7       N        0.73522    0.16787    0.37690    1.000
    C26      C        0.64693    0.17926    0.51130    1.000
    C27      C        0.61668    0.17889    0.55040    1.000
    H22      H        0.61310    0.19440    0.59030    1.000
    C28      C        0.59190    0.15660    0.53230    1.000
    H23      H        0.57150    0.15710    0.55940    1.000
    C29      C        0.59651    0.13412    0.47640    1.000
    H24      H        0.57990    0.11810    0.46590    1.000
    C30      C        0.62534    0.13464    0.43480    1.000
    H25      H        0.62780    0.11950    0.39380    1.000
    C31      C        0.65114    0.15665    0.45100    1.000
    C32      C        0.68084    0.15461    0.40430    1.000
    C33      C        0.75811    0.18874    0.39370    1.000
    C34      C        0.79165    0.18558    0.35740    1.000
    H26      H        0.79570    0.20510    0.32480    1.000
    H27      H        0.79190    0.16570    0.32450    1.000
    C35      C        0.81888    0.18290    0.41510    1.000
    H28      H        0.81570    0.16280    0.44560    1.000
    H29      H        0.84030    0.18170    0.38890    1.000
    H30      H        0.81850    0.20240    0.44840    1.000
    N8       N        0.57408    0.98651    0.83140    1.000
    C36      C        0.56372    0.01699    0.86030    1.000
    H31      H        0.54180    0.02460    0.85100    1.000
    C37      C        0.58560    0.03640    0.90300    1.000
    H32      H        0.58170    0.05920    0.91230    1.000
    C38      C        0.61550    0.01910    0.93310    1.000
    C39      C        0.62430    0.99500    0.89550    1.000
    H33      H        0.64580    0.98580    0.90150    1.000
    C40      C        0.60210    0.98190    0.84440    1.000
    H34      H        0.61170    0.96550    0.81260    1.000
    C41      C        0.63850    0.03580    0.98960    1.000
    H35      H        0.65740    0.04550    0.96160    1.000
    H36      H        0.64740    0.01880    0.02470    1.000
    Mn4      Mn       0.22027    0.63581    0.77818    1.000
    O10      O        0.24032    0.59797    0.81305    1.000
    O11      O        0.30300    0.63408    0.63892    1.000
    O12      O        0.20545    0.67652    0.73101    1.000
    N9       N        0.25612    0.64303    0.70730    1.000
    N10      N        0.25394    0.67329    0.66470    1.000
    N11      N        0.18864    0.60813    0.69240    1.000
    C42      C        0.26590    0.58064    0.78460    1.000
    C43      C        0.27264    0.54953    0.81600    1.000
    H37      H        0.25910    0.54130    0.85610    1.000
    C44      C        0.29848    0.53068    0.78970    1.000
    H38      H        0.30280    0.50980    0.81240    1.000
    C45      C        0.31824    0.54152    0.73070    1.000
    H39      H        0.33540    0.52790    0.71120    1.000
    C46      C        0.31267    0.57219    0.70090    1.000
    H40      H        0.32700    0.58010    0.66210    1.000
    C47      C        0.28651    0.59253    0.72530    1.000
    C48      C        0.28200    0.62477    0.68850    1.000
    C49      C        0.22638    0.68801    0.68200    1.000
    C50      C        0.21712    0.72021    0.64350    1.000
    H41      H        0.23670    0.72990    0.61800    1.000
    H42      H        0.20900    0.73630    0.68170    1.000
    C51      C        0.16827    0.58454    0.71280    1.000
    H43      H        0.16780    0.57860    0.76510    1.000
    C52      C        0.14753    0.56779    0.66450    1.000
    H44      H        0.13450    0.54980    0.68200    1.000
    C53      C        0.14624    0.57799    0.58940    1.000
    C54      C        0.16779    0.60253    0.56880    1.000
    H45      H        0.16800    0.61000    0.51760    1.000
    C55      C        0.18831    0.61611    0.61840    1.000
    H46      H        0.20350    0.63230    0.60070    1.000
    C56      C        0.12281    0.56170    0.53430    1.000
    H47      H        0.10400    0.55200    0.56300    1.000
    H48      H        0.11380    0.57870    0.49940    1.000
    Mn5      Mn       0.29573    0.67531    0.58203    1.000
    O13      O        0.27028    0.65369    0.50840    1.000
    O14      O        0.27569    0.75408    0.43783    1.000
    O15      O        0.32068    0.70431    0.64907    1.000
    N12      N        0.28911    0.71690    0.53020    1.000
    N13      N        0.30507    0.74448    0.56572    1.000
    C57      C        0.25357    0.66624    0.45070    1.000
    C58      C        0.23320    0.64370    0.41030    1.000
    H49      H        0.23220    0.62130    0.42610    1.000
    C59      C        0.21570    0.65340    0.35170    1.000
    H50      H        0.19710    0.64090    0.33530    1.000
    C60      C        0.22480    0.68230    0.31380    1.000
    H51      H        0.22270    0.68480    0.26020    1.000
    C61      C        0.23780    0.70810    0.36240    1.000
    H52      H        0.23450    0.73090    0.35100    1.000
    C62      C        0.25529    0.69827    0.42620    1.000
    C63      C        0.27468    0.72437    0.46640    1.000
    C64      C        0.32043    0.73458    0.62630    1.000
    C65      C        0.33815    0.76056    0.67280    1.000
    H53      H        0.32140    0.77490    0.69740    1.000
    H54      H        0.35140    0.77460    0.63810    1.000
    C66      C        0.36110    0.74650    0.73450    1.000
    H55      H        0.34820    0.73280    0.76980    1.000
    H56      H        0.37140    0.76480    0.76250    1.000
    H57      H        0.37840    0.73300    0.71060    1.000
    Mn6      Mn       0.21151    0.70922    0.99449    1.000
    O16      O        0.16935    0.70132    0.03273    1.000
    O17      O        0.18229    0.63381    0.84906    1.000
    O18      O        0.25423    0.71141    0.94491    1.000
    N14      N        0.20671    0.67387    0.92132    1.000
    N15      N        0.23522    0.66787    0.87690    1.000
    C67      C        0.14693    0.67926    0.01130    1.000
    C68      C        0.11668    0.67889    0.05040    1.000
    H58      H        0.11310    0.69440    0.09030    1.000
    C69      C        0.09190    0.65660    0.03230    1.000
    H59      H        0.07150    0.65710    0.05940    1.000
    C70      C        0.09651    0.63412    0.97640    1.000
    H60      H        0.07990    0.61810    0.96590    1.000
    C71      C        0.12534    0.63464    0.93480    1.000
    H61      H        0.12780    0.61950    0.89380    1.000
    C72      C        0.15114    0.65665    0.95100    1.000
    C73      C        0.18084    0.65461    0.90430    1.000
    C74      C        0.25811    0.68874    0.89370    1.000
    C75      C        0.29165    0.68558    0.85740    1.000
    H62      H        0.29570    0.70510    0.82480    1.000
    H63      H        0.29190    0.66570    0.82450    1.000
    C76      C        0.31888    0.68290    0.91510    1.000
    H64      H        0.31570    0.66280    0.94560    1.000
    H65      H        0.34030    0.68170    0.88890    1.000
    H66      H        0.31850    0.70240    0.94840    1.000
    N16      N        0.07408    0.48651    0.33140    1.000
    C77      C        0.06372    0.51699    0.36030    1.000
    H67      H        0.04180    0.52460    0.35100    1.000
    C78      C        0.08560    0.53640    0.40300    1.000
    H68      H        0.08170    0.55920    0.41230    1.000
    C79      C        0.11550    0.51910    0.43310    1.000
    C80      C        0.12430    0.49500    0.39550    1.000
    H69      H        0.14580    0.48580    0.40150    1.000
    C81      C        0.10210    0.48190    0.34440    1.000
    H70      H        0.11170    0.46550    0.31260    1.000
    C82      C        0.13850    0.53580    0.48960    1.000
    H71      H        0.15740    0.54550    0.46160    1.000
    H72      H        0.14740    0.51880    0.52470    1.000
    Mn7      Mn       0.77973    0.86419    0.77818    1.000
    O19      O        0.75968    0.90203    0.81305    1.000
    O20      O        0.69700    0.86592    0.63892    1.000
    O21      O        0.79455    0.82348    0.73101    1.000
    N17      N        0.74388    0.85697    0.70730    1.000
    N18      N        0.74606    0.82671    0.66470    1.000
    N19      N        0.81136    0.89187    0.69240    1.000
    C83      C        0.73410    0.91936    0.78460    1.000
    C84      C        0.72736    0.95047    0.81600    1.000
    H73      H        0.74090    0.95870    0.85610    1.000
    C85      C        0.70152    0.96932    0.78970    1.000
    H74      H        0.69720    0.99020    0.81240    1.000
    C86      C        0.68176    0.95848    0.73070    1.000
    H75      H        0.66460    0.97210    0.71120    1.000
    C87      C        0.68733    0.92781    0.70090    1.000
    H76      H        0.67300    0.91990    0.66210    1.000
    C88      C        0.71349    0.90747    0.72530    1.000
    C89      C        0.71800    0.87523    0.68850    1.000
    C90      C        0.77362    0.81199    0.68200    1.000
    C91      C        0.78288    0.77979    0.64350    1.000
    H77      H        0.76330    0.77010    0.61800    1.000
    H78      H        0.79100    0.76370    0.68170    1.000
    C92      C        0.83173    0.91546    0.71280    1.000
    H79      H        0.83220    0.92140    0.76510    1.000
    C93      C        0.85247    0.93221    0.66450    1.000
    H80      H        0.86550    0.95020    0.68200    1.000
    C94      C        0.85376    0.92201    0.58940    1.000
    C95      C        0.83221    0.89747    0.56880    1.000
    H81      H        0.83200    0.89000    0.51760    1.000
    C96      C        0.81169    0.88389    0.61840    1.000
    H82      H        0.79650    0.86770    0.60070    1.000
    C97      C        0.87719    0.93830    0.53430    1.000
    H83      H        0.89600    0.94800    0.56300    1.000
    H84      H        0.88620    0.92130    0.49940    1.000
    Mn8      Mn       0.70427    0.82469    0.58203    1.000
    O22      O        0.72972    0.84631    0.50840    1.000
    O23      O        0.72431    0.74592    0.43783    1.000
    O24      O        0.67932    0.79569    0.64907    1.000
    N20      N        0.71089    0.78310    0.53020    1.000
    N21      N        0.69493    0.75552    0.56572    1.000
    C98      C        0.74643    0.83376    0.45070    1.000
    C99      C        0.76680    0.85630    0.41030    1.000
    H85      H        0.76780    0.87870    0.42610    1.000
    C100     C        0.78430    0.84660    0.35170    1.000
    H86      H        0.80290    0.85910    0.33530    1.000
    C101     C        0.77520    0.81770    0.31380    1.000
    H87      H        0.77730    0.81520    0.26020    1.000
    C102     C        0.76220    0.79190    0.36240    1.000
    H88      H        0.76550    0.76910    0.35100    1.000
    C103     C        0.74471    0.80173    0.42620    1.000
    C104     C        0.72532    0.77563    0.46640    1.000
    C105     C        0.67957    0.76542    0.62630    1.000
    C106     C        0.66185    0.73944    0.67280    1.000
    H89      H        0.67860    0.72510    0.69740    1.000
    H90      H        0.64860    0.72540    0.63810    1.000
    C107     C        0.63890    0.75350    0.73450    1.000
    H91      H        0.65180    0.76720    0.76980    1.000
    H92      H        0.62860    0.73520    0.76250    1.000
    H93      H        0.62160    0.76700    0.71060    1.000
    Mn9      Mn       0.78849    0.79078    0.99449    1.000
    O25      O        0.83065    0.79868    0.03273    1.000
    O26      O        0.81771    0.86619    0.84906    1.000
    O27      O        0.74577    0.78859    0.94491    1.000
    N22      N        0.79329    0.82613    0.92132    1.000
    N23      N        0.76478    0.83213    0.87690    1.000
    C108     C        0.85307    0.82074    0.01130    1.000
    C109     C        0.88332    0.82111    0.05040    1.000
    H94      H        0.88690    0.80560    0.09030    1.000
    C110     C        0.90810    0.84340    0.03230    1.000
    H95      H        0.92850    0.84290    0.05940    1.000
    C111     C        0.90349    0.86588    0.97640    1.000
    H96      H        0.92010    0.88190    0.96590    1.000
    C112     C        0.87466    0.86536    0.93480    1.000
    H97      H        0.87220    0.88050    0.89380    1.000
    C113     C        0.84886    0.84335    0.95100    1.000
    C114     C        0.81916    0.84539    0.90430    1.000
    C115     C        0.74189    0.81126    0.89370    1.000
    C116     C        0.70835    0.81442    0.85740    1.000
    H98      H        0.70430    0.79490    0.82480    1.000
    H99      H        0.70810    0.83430    0.82450    1.000
    C117     C        0.68112    0.81710    0.91510    1.000
    H100     H        0.68430    0.83720    0.94560    1.000
    H101     H        0.65970    0.81830    0.88890    1.000
    H102     H        0.68150    0.79760    0.94840    1.000
    N24      N        0.92592    0.01349    0.33140    1.000
    C118     C        0.93628    0.98301    0.36030    1.000
    H103     H        0.95820    0.97540    0.35100    1.000
    C119     C        0.91440    0.96360    0.40300    1.000
    H104     H        0.91830    0.94080    0.41230    1.000
    C120     C        0.88450    0.98090    0.43310    1.000
    C121     C        0.87570    0.00500    0.39550    1.000
    H105     H        0.85420    0.01420    0.40150    1.000
    C122     C        0.89790    0.01810    0.34440    1.000
    H106     H        0.88830    0.03450    0.31260    1.000
    C123     C        0.86150    0.96420    0.48960    1.000
    H107     H        0.84260    0.95450    0.46160    1.000
    H108     H        0.85260    0.98120    0.52470    1.000
    Mn10     Mn       0.27973    0.36419    0.27818    1.000
    O28      O        0.25968    0.40203    0.31305    1.000
    O29      O        0.19700    0.36592    0.13892    1.000
    O30      O        0.29455    0.32348    0.23101    1.000
    N25      N        0.24388    0.35697    0.20730    1.000
    N26      N        0.24606    0.32671    0.16470    1.000
    N27      N        0.31136    0.39187    0.19240    1.000
    C124     C        0.23410    0.41936    0.28460    1.000
    C125     C        0.22736    0.45047    0.31600    1.000
    H109     H        0.24090    0.45870    0.35610    1.000
    C126     C        0.20152    0.46932    0.28970    1.000
    H110     H        0.19720    0.49020    0.31240    1.000
    C127     C        0.18176    0.45848    0.23070    1.000
    H111     H        0.16460    0.47210    0.21120    1.000
    C128     C        0.18733    0.42781    0.20090    1.000
    H112     H        0.17300    0.41990    0.16210    1.000
    C129     C        0.21349    0.40747    0.22530    1.000
    C130     C        0.21800    0.37523    0.18850    1.000
    C131     C        0.27362    0.31199    0.18200    1.000
    C132     C        0.28288    0.27979    0.14350    1.000
    H113     H        0.26330    0.27010    0.11800    1.000
    H114     H        0.29100    0.26370    0.18170    1.000
    C133     C        0.33173    0.41546    0.21280    1.000
    H115     H        0.33220    0.42140    0.26510    1.000
    C134     C        0.35247    0.43221    0.16450    1.000
    H116     H        0.36550    0.45020    0.18200    1.000
    C135     C        0.35376    0.42201    0.08940    1.000
    C136     C        0.33221    0.39747    0.06880    1.000
    H117     H        0.33200    0.39000    0.01760    1.000
    C137     C        0.31169    0.38389    0.11840    1.000
    H118     H        0.29650    0.36770    0.10070    1.000
    C138     C        0.37719    0.43830    0.03430    1.000
    H119     H        0.39600    0.44800    0.06300    1.000
    H120     H        0.38620    0.42130    0.99940    1.000
    Mn11     Mn       0.20427    0.32469    0.08203    1.000
    O31      O        0.22972    0.34631    0.00840    1.000
    O32      O        0.22431    0.24592    0.93783    1.000
    O33      O        0.17932    0.29569    0.14907    1.000
    N28      N        0.21089    0.28310    0.03020    1.000
    N29      N        0.19493    0.25552    0.06572    1.000
    C139     C        0.24643    0.33376    0.95070    1.000
    C140     C        0.26680    0.35630    0.91030    1.000
    H121     H        0.26780    0.37870    0.92610    1.000
    C141     C        0.28430    0.34660    0.85170    1.000
    H122     H        0.30290    0.35910    0.83530    1.000
    C142     C        0.27520    0.31770    0.81380    1.000
    H123     H        0.27730    0.31520    0.76020    1.000
    C143     C        0.26220    0.29190    0.86240    1.000
    H124     H        0.26550    0.26910    0.85100    1.000
    C144     C        0.24471    0.30173    0.92620    1.000
    C145     C        0.22532    0.27563    0.96640    1.000
    C146     C        0.17957    0.26542    0.12630    1.000
    C147     C        0.16185    0.23944    0.17280    1.000
    H125     H        0.17860    0.22510    0.19740    1.000
    H126     H        0.14860    0.22540    0.13810    1.000
    C148     C        0.13890    0.25350    0.23450    1.000
    H127     H        0.15180    0.26720    0.26980    1.000
    H128     H        0.12860    0.23520    0.26250    1.000
    H129     H        0.12160    0.26700    0.21060    1.000
    Mn12     Mn       0.28849    0.29078    0.49449    1.000
    O34      O        0.33065    0.29868    0.53273    1.000
    O35      O        0.31771    0.36619    0.34906    1.000
    O36      O        0.24577    0.28859    0.44491    1.000
    N30      N        0.29329    0.32613    0.42132    1.000
    N31      N        0.26478    0.33213    0.37690    1.000
    C149     C        0.35307    0.32074    0.51130    1.000
    C150     C        0.38332    0.32111    0.55040    1.000
    H130     H        0.38690    0.30560    0.59030    1.000
    C151     C        0.40810    0.34340    0.53230    1.000
    H131     H        0.42850    0.34290    0.55940    1.000
    C152     C        0.40349    0.36588    0.47640    1.000
    H132     H        0.42010    0.38190    0.46590    1.000
    C153     C        0.37466    0.36536    0.43480    1.000
    H133     H        0.37220    0.38050    0.39380    1.000
    C154     C        0.34886    0.34335    0.45100    1.000
    C155     C        0.31916    0.34539    0.40430    1.000
    C156     C        0.24189    0.31126    0.39370    1.000
    C157     C        0.20835    0.31442    0.35740    1.000
    H134     H        0.20430    0.29490    0.32480    1.000
    H135     H        0.20810    0.33430    0.32450    1.000
    C158     C        0.18112    0.31710    0.41510    1.000
    H136     H        0.18430    0.33720    0.44560    1.000
    H137     H        0.15970    0.31830    0.38890    1.000
    H138     H        0.18150    0.29760    0.44840    1.000
    N32      N        0.42592    0.51349    0.83140    1.000
    C159     C        0.43628    0.48301    0.86030    1.000
    H139     H        0.45820    0.47540    0.85100    1.000
    C160     C        0.41440    0.46360    0.90300    1.000
    H140     H        0.41830    0.44080    0.91230    1.000
    C161     C        0.38450    0.48090    0.93310    1.000
    C162     C        0.37570    0.50500    0.89550    1.000
    H141     H        0.35420    0.51420    0.90150    1.000
    C163     C        0.39790    0.51810    0.84440    1.000
    H142     H        0.38830    0.53450    0.81260    1.000
    C164     C        0.36150    0.46420    0.98960    1.000
    H143     H        0.34260    0.45450    0.96160    1.000
    H144     H        0.35260    0.48120    0.02470    1.000
    Mn13     Mn       0.61419    0.97027    0.52818    1.000
    O37      O        0.65203    0.99032    0.56305    1.000
    O38      O        0.61592    0.05300    0.38892    1.000
    O39      O        0.57348    0.95545    0.48101    1.000
    N33      N        0.60697    0.00612    0.45730    1.000
    N34      N        0.57671    0.00394    0.41470    1.000
    N35      N        0.64187    0.93864    0.44240    1.000
    C165     C        0.66936    0.01590    0.53460    1.000
    C166     C        0.70047    0.02264    0.56600    1.000
    H145     H        0.70870    0.00910    0.60610    1.000
    C167     C        0.71932    0.04848    0.53970    1.000
    H146     H        0.74020    0.05280    0.56240    1.000
    C168     C        0.70848    0.06824    0.48070    1.000
    H147     H        0.72210    0.08540    0.46120    1.000
    C169     C        0.67781    0.06267    0.45090    1.000
    H148     H        0.66990    0.07700    0.41210    1.000
    C170     C        0.65747    0.03651    0.47530    1.000
    C171     C        0.62523    0.03200    0.43850    1.000
    C172     C        0.56199    0.97638    0.43200    1.000
    C173     C        0.52979    0.96712    0.39350    1.000
    H149     H        0.52010    0.98670    0.36800    1.000
    H150     H        0.51370    0.95900    0.43170    1.000
    C174     C        0.66546    0.91827    0.46280    1.000
    H151     H        0.67140    0.91780    0.51510    1.000
    C175     C        0.68221    0.89753    0.41450    1.000
    H152     H        0.70020    0.88450    0.43200    1.000
    C176     C        0.67201    0.89624    0.33940    1.000
    C177     C        0.64747    0.91779    0.31880    1.000
    H153     H        0.64000    0.91800    0.26760    1.000
    C178     C        0.63389    0.93831    0.36840    1.000
    H154     H        0.61770    0.95350    0.35070    1.000
    C179     C        0.68830    0.87281    0.28430    1.000
    H155     H        0.69800    0.85400    0.31300    1.000
    H156     H        0.67130    0.86380    0.24940    1.000
    Mn14     Mn       0.57469    0.04573    0.33203    1.000
    O40      O        0.59631    0.02028    0.25840    1.000
    O41      O        0.49592    0.02569    0.18783    1.000
    O42      O        0.54569    0.07068    0.39907    1.000
    N36      N        0.53310    0.03911    0.28020    1.000
    N37      N        0.50552    0.05507    0.31572    1.000
    C180     C        0.58376    0.00357    0.20070    1.000
    C181     C        0.60630    0.98320    0.16030    1.000
    H157     H        0.62870    0.98220    0.17610    1.000
    C182     C        0.59660    0.96570    0.10170    1.000
    H158     H        0.60910    0.94710    0.08530    1.000
    C183     C        0.56770    0.97480    0.06380    1.000
    H159     H        0.56520    0.97270    0.01020    1.000
    C184     C        0.54190    0.98780    0.11240    1.000
    H160     H        0.51910    0.98450    0.10100    1.000
    C185     C        0.55173    0.00529    0.17620    1.000
    C186     C        0.52563    0.02468    0.21640    1.000
    C187     C        0.51542    0.07043    0.37630    1.000
    C188     C        0.48944    0.08815    0.42280    1.000
    H161     H        0.47510    0.07140    0.44740    1.000
    H162     H        0.47540    0.10140    0.38810    1.000
    C189     C        0.50350    0.11110    0.48450    1.000
    H163     H        0.51720    0.09820    0.51980    1.000
    H164     H        0.48520    0.12140    0.51250    1.000
    H165     H        0.51700    0.12840    0.46060    1.000
    Mn15     Mn       0.54078    0.96151    0.74449    1.000
    O43      O        0.54868    0.91935    0.78273    1.000
    O44      O        0.61619    0.93229    0.59906    1.000
    O45      O        0.53859    0.00423    0.69491    1.000
    N38      N        0.57613    0.95671    0.67132    1.000
    N39      N        0.58213    0.98522    0.62690    1.000
    C190     C        0.57074    0.89693    0.76130    1.000
    C191     C        0.57111    0.86668    0.80040    1.000
    H166     H        0.55560    0.86310    0.84030    1.000
    C192     C        0.59340    0.84190    0.78230    1.000
    H167     H        0.59290    0.82150    0.80940    1.000
    C193     C        0.61588    0.84651    0.72640    1.000
    H168     H        0.63190    0.82990    0.71590    1.000
    C194     C        0.61536    0.87534    0.68480    1.000
    H169     H        0.63050    0.87780    0.64380    1.000
    C195     C        0.59335    0.90114    0.70100    1.000
    C196     C        0.59539    0.93084    0.65430    1.000
    C197     C        0.56126    0.00811    0.64370    1.000
    C198     C        0.56442    0.04165    0.60740    1.000
    H170     H        0.54490    0.04570    0.57480    1.000
    H171     H        0.58430    0.04190    0.57450    1.000
    C199     C        0.56710    0.06888    0.66510    1.000
    H172     H        0.58720    0.06570    0.69560    1.000
    H173     H        0.56830    0.09030    0.63890    1.000
    H174     H        0.54760    0.06850    0.69840    1.000
    N40      N        0.76349    0.82408    0.08140    1.000
    C200     C        0.73301    0.81372    0.11030    1.000
    H175     H        0.72540    0.79180    0.10100    1.000
    C201     C        0.71360    0.83560    0.15300    1.000
    H176     H        0.69080    0.83170    0.16230    1.000
    C202     C        0.73090    0.86550    0.18310    1.000
    C203     C        0.75500    0.87430    0.14550    1.000
    H177     H        0.76420    0.89580    0.15150    1.000
    C204     C        0.76810    0.85210    0.09440    1.000
    H178     H        0.78450    0.86170    0.06260    1.000
    C205     C        0.71420    0.88850    0.23960    1.000
    H179     H        0.70450    0.90740    0.21160    1.000
    H180     H        0.73120    0.89740    0.27470    1.000
    Mn16     Mn       0.11419    0.47027    0.02818    1.000
    O46      O        0.15203    0.49032    0.06305    1.000
    O47      O        0.11592    0.55300    0.88892    1.000
    O48      O        0.07348    0.45545    0.98101    1.000
    N41      N        0.10697    0.50612    0.95730    1.000
    N42      N        0.07671    0.50394    0.91470    1.000
    N43      N        0.14187    0.43864    0.94240    1.000
    C206     C        0.16936    0.51590    0.03460    1.000
    C207     C        0.20047    0.52264    0.06600    1.000
    H181     H        0.20870    0.50910    0.10610    1.000
    C208     C        0.21932    0.54848    0.03970    1.000
    H182     H        0.24020    0.55280    0.06240    1.000
    C209     C        0.20848    0.56824    0.98070    1.000
    H183     H        0.22210    0.58540    0.96120    1.000
    C210     C        0.17781    0.56267    0.95090    1.000
    H184     H        0.16990    0.57700    0.91210    1.000
    C211     C        0.15747    0.53651    0.97530    1.000
    C212     C        0.12523    0.53200    0.93850    1.000
    C213     C        0.06199    0.47638    0.93200    1.000
    C214     C        0.02979    0.46712    0.89350    1.000
    H185     H        0.02010    0.48670    0.86800    1.000
    H186     H        0.01370    0.45900    0.93170    1.000
    C215     C        0.16546    0.41827    0.96280    1.000
    H187     H        0.17140    0.41780    0.01510    1.000
    C216     C        0.18221    0.39753    0.91450    1.000
    H188     H        0.20020    0.38450    0.93200    1.000
    C217     C        0.17201    0.39624    0.83940    1.000
    C218     C        0.14747    0.41779    0.81880    1.000
    H189     H        0.14000    0.41800    0.76760    1.000
    C219     C        0.13389    0.43831    0.86840    1.000
    H190     H        0.11770    0.45350    0.85070    1.000
    C220     C        0.18830    0.37281    0.78430    1.000
    H191     H        0.19800    0.35400    0.81300    1.000
    H192     H        0.17130    0.36380    0.74940    1.000
    Mn17     Mn       0.07469    0.54573    0.83203    1.000
    O49      O        0.09631    0.52028    0.75840    1.000
    O50      O        0.99592    0.52569    0.68783    1.000
    O51      O        0.04569    0.57068    0.89907    1.000
    N44      N        0.03310    0.53911    0.78020    1.000
    N45      N        0.00552    0.55507    0.81572    1.000
    C221     C        0.08376    0.50357    0.70070    1.000
    C222     C        0.10630    0.48320    0.66030    1.000
    H193     H        0.12870    0.48220    0.67610    1.000
    C223     C        0.09660    0.46570    0.60170    1.000
    H194     H        0.10910    0.44710    0.58530    1.000
    C224     C        0.06770    0.47480    0.56380    1.000
    H195     H        0.06520    0.47270    0.51020    1.000
    C225     C        0.04190    0.48780    0.61240    1.000
    H196     H        0.01910    0.48450    0.60100    1.000
    C226     C        0.05173    0.50529    0.67620    1.000
    C227     C        0.02563    0.52468    0.71640    1.000
    C228     C        0.01542    0.57043    0.87630    1.000
    C229     C        0.98944    0.58815    0.92280    1.000
    H197     H        0.97510    0.57140    0.94740    1.000
    H198     H        0.97540    0.60140    0.88810    1.000
    C230     C        0.00350    0.61110    0.98450    1.000
    H199     H        0.01720    0.59820    0.01980    1.000
    H200     H        0.98520    0.62140    0.01250    1.000
    H201     H        0.01700    0.62840    0.96060    1.000
    Mn18     Mn       0.04078    0.46151    0.24449    1.000
    O52      O        0.04868    0.41935    0.28273    1.000
    O53      O        0.11619    0.43229    0.09906    1.000
    O54      O        0.03859    0.50423    0.19491    1.000
    N46      N        0.07613    0.45671    0.17132    1.000
    N47      N        0.08213    0.48522    0.12690    1.000
    C231     C        0.07074    0.39693    0.26130    1.000
    C232     C        0.07111    0.36668    0.30040    1.000
    H202     H        0.05560    0.36310    0.34030    1.000
    C233     C        0.09340    0.34190    0.28230    1.000
    H203     H        0.09290    0.32150    0.30940    1.000
    C234     C        0.11588    0.34651    0.22640    1.000
    H204     H        0.13190    0.32990    0.21590    1.000
    C235     C        0.11536    0.37534    0.18480    1.000
    H205     H        0.13050    0.37780    0.14380    1.000
    C236     C        0.09335    0.40114    0.20100    1.000
    C237     C        0.09539    0.43084    0.15430    1.000
    C238     C        0.06126    0.50811    0.14370    1.000
    C239     C        0.06442    0.54165    0.10740    1.000
    H206     H        0.04490    0.54570    0.07480    1.000
    H207     H        0.08430    0.54190    0.07450    1.000
    C240     C        0.06710    0.56888    0.16510    1.000
    H208     H        0.08720    0.56570    0.19560    1.000
    H209     H        0.06830    0.59030    0.13890    1.000
    H210     H        0.04760    0.56850    0.19840    1.000
    N48      N        0.26349    0.32408    0.58140    1.000
    C241     C        0.23301    0.31372    0.61030    1.000
    H211     H        0.22540    0.29180    0.60100    1.000
    C242     C        0.21360    0.33560    0.65300    1.000
    H212     H        0.19080    0.33170    0.66230    1.000
    C243     C        0.23090    0.36550    0.68310    1.000
    C244     C        0.25500    0.37430    0.64550    1.000
    H213     H        0.26420    0.39580    0.65150    1.000
    C245     C        0.26810    0.35210    0.59440    1.000
    H214     H        0.28450    0.36170    0.56260    1.000
    C246     C        0.21420    0.38850    0.73960    1.000
    H215     H        0.20450    0.40740    0.71160    1.000
    H216     H        0.23120    0.39740    0.77470    1.000
    Mn19     Mn       0.88581    0.02973    0.02818    1.000
    O55      O        0.84797    0.00968    0.06305    1.000
    O56      O        0.88408    0.94700    0.88892    1.000
    O57      O        0.92652    0.04455    0.98101    1.000
    N49      N        0.89303    0.99388    0.95730    1.000
    N50      N        0.92329    0.99606    0.91470    1.000
    N51      N        0.85813    0.06136    0.94240    1.000
    C247     C        0.83064    0.98410    0.03460    1.000
    C248     C        0.79953    0.97736    0.06600    1.000
    H217     H        0.79130    0.99090    0.10610    1.000
    C249     C        0.78068    0.95152    0.03970    1.000
    H218     H        0.75980    0.94720    0.06240    1.000
    C250     C        0.79152    0.93176    0.98070    1.000
    H219     H        0.77790    0.91460    0.96120    1.000
    C251     C        0.82219    0.93733    0.95090    1.000
    H220     H        0.83010    0.92300    0.91210    1.000
    C252     C        0.84253    0.96349    0.97530    1.000
    C253     C        0.87477    0.96800    0.93850    1.000
    C254     C        0.93801    0.02362    0.93200    1.000
    C255     C        0.97021    0.03288    0.89350    1.000
    H221     H        0.97990    0.01330    0.86800    1.000
    H222     H        0.98630    0.04100    0.93170    1.000
    C256     C        0.83454    0.08173    0.96280    1.000
    H223     H        0.82860    0.08220    0.01510    1.000
    C257     C        0.81779    0.10247    0.91450    1.000
    H224     H        0.79980    0.11550    0.93200    1.000
    C258     C        0.82799    0.10376    0.83940    1.000
    C259     C        0.85253    0.08221    0.81880    1.000
    H225     H        0.86000    0.08200    0.76760    1.000
    C260     C        0.86611    0.06169    0.86840    1.000
    H226     H        0.88230    0.04650    0.85070    1.000
    C261     C        0.81170    0.12719    0.78430    1.000
    H227     H        0.80200    0.14600    0.81300    1.000
    H228     H        0.82870    0.13620    0.74940    1.000
    Mn20     Mn       0.92531    0.95427    0.83203    1.000
    O58      O        0.90369    0.97972    0.75840    1.000
    O59      O        0.00408    0.97431    0.68783    1.000
    O60      O        0.95431    0.92932    0.89907    1.000
    N52      N        0.96690    0.96089    0.78020    1.000
    N53      N        0.99448    0.94493    0.81572    1.000
    C262     C        0.91624    0.99643    0.70070    1.000
    C263     C        0.89370    0.01680    0.66030    1.000
    H229     H        0.87130    0.01780    0.67610    1.000
    C264     C        0.90340    0.03430    0.60170    1.000
    H230     H        0.89090    0.05290    0.58530    1.000
    C265     C        0.93230    0.02520    0.56380    1.000
    H231     H        0.93480    0.02730    0.51020    1.000
    C266     C        0.95810    0.01220    0.61240    1.000
    H232     H        0.98090    0.01550    0.60100    1.000
    C267     C        0.94827    0.99471    0.67620    1.000
    C268     C        0.97437    0.97532    0.71640    1.000
    C269     C        0.98458    0.92957    0.87630    1.000
    C270     C        0.01056    0.91185    0.92280    1.000
    H233     H        0.02490    0.92860    0.94740    1.000
    H234     H        0.02460    0.89860    0.88810    1.000
    C271     C        0.99650    0.88890    0.98450    1.000
    H235     H        0.98280    0.90180    0.01980    1.000
    H236     H        0.01480    0.87860    0.01250    1.000
    H237     H        0.98300    0.87160    0.96060    1.000
    Mn21     Mn       0.95922    0.03849    0.24449    1.000
    O61      O        0.95132    0.08065    0.28273    1.000
    O62      O        0.88381    0.06771    0.09906    1.000
    O63      O        0.96141    0.99577    0.19491    1.000
    N54      N        0.92387    0.04329    0.17132    1.000
    N55      N        0.91787    0.01478    0.12690    1.000
    C272     C        0.92926    0.10307    0.26130    1.000
    C273     C        0.92889    0.13332    0.30040    1.000
    H238     H        0.94440    0.13690    0.34030    1.000
    C274     C        0.90660    0.15810    0.28230    1.000
    H239     H        0.90710    0.17850    0.30940    1.000
    C275     C        0.88412    0.15349    0.22640    1.000
    H240     H        0.86810    0.17010    0.21590    1.000
    C276     C        0.88464    0.12466    0.18480    1.000
    H241     H        0.86950    0.12220    0.14380    1.000
    C277     C        0.90665    0.09886    0.20100    1.000
    C278     C        0.90461    0.06916    0.15430    1.000
    C279     C        0.93874    0.99189    0.14370    1.000
    C280     C        0.93558    0.95835    0.10740    1.000
    H242     H        0.95510    0.95430    0.07480    1.000
    H243     H        0.91570    0.95810    0.07450    1.000
    C281     C        0.93290    0.93112    0.16510    1.000
    H244     H        0.91280    0.93430    0.19560    1.000
    H245     H        0.93170    0.90970    0.13890    1.000
    H246     H        0.95240    0.93150    0.19840    1.000
    N56      N        0.73651    0.17592    0.58140    1.000
    C282     C        0.76699    0.18628    0.61030    1.000
    H247     H        0.77460    0.20820    0.60100    1.000
    C283     C        0.78640    0.16440    0.65300    1.000
    H248     H        0.80920    0.16830    0.66230    1.000
    C284     C        0.76910    0.13450    0.68310    1.000
    C285     C        0.74500    0.12570    0.64550    1.000
    H249     H        0.73580    0.10420    0.65150    1.000
    C286     C        0.73190    0.14790    0.59440    1.000
    H250     H        0.71550    0.13830    0.56260    1.000
    C287     C        0.78580    0.11150    0.73960    1.000
    H251     H        0.79550    0.09260    0.71160    1.000
    H252     H        0.76880    0.10260    0.77470    1.000
    Mn22     Mn       0.38581    0.52973    0.52818    1.000
    O64      O        0.34797    0.50968    0.56305    1.000
    O65      O        0.38408    0.44700    0.38892    1.000
    O66      O        0.42652    0.54455    0.48101    1.000
    N57      N        0.39303    0.49388    0.45730    1.000
    N58      N        0.42329    0.49606    0.41470    1.000
    N59      N        0.35813    0.56136    0.44240    1.000
    C288     C        0.33064    0.48410    0.53460    1.000
    C289     C        0.29953    0.47736    0.56600    1.000
    H253     H        0.29130    0.49090    0.60610    1.000
    C290     C        0.28068    0.45152    0.53970    1.000
    H254     H        0.25980    0.44720    0.56240    1.000
    C291     C        0.29152    0.43176    0.48070    1.000
    H255     H        0.27790    0.41460    0.46120    1.000
    C292     C        0.32219    0.43733    0.45090    1.000
    H256     H        0.33010    0.42300    0.41210    1.000
    C293     C        0.34253    0.46349    0.47530    1.000
    C294     C        0.37477    0.46800    0.43850    1.000
    C295     C        0.43801    0.52362    0.43200    1.000
    C296     C        0.47021    0.53288    0.39350    1.000
    H257     H        0.47990    0.51330    0.36800    1.000
    H258     H        0.48630    0.54100    0.43170    1.000
    C297     C        0.33454    0.58173    0.46280    1.000
    H259     H        0.32860    0.58220    0.51510    1.000
    C298     C        0.31779    0.60247    0.41450    1.000
    H260     H        0.29980    0.61550    0.43200    1.000
    C299     C        0.32799    0.60376    0.33940    1.000
    C300     C        0.35253    0.58221    0.31880    1.000
    H261     H        0.36000    0.58200    0.26760    1.000
    C301     C        0.36611    0.56169    0.36840    1.000
    H262     H        0.38230    0.54650    0.35070    1.000
    C302     C        0.31170    0.62719    0.28430    1.000
    H263     H        0.30200    0.64600    0.31300    1.000
    H264     H        0.32870    0.63620    0.24940    1.000
    Mn23     Mn       0.42531    0.45427    0.33203    1.000
    O67      O        0.40369    0.47972    0.25840    1.000
    O68      O        0.50408    0.47431    0.18783    1.000
    O69      O        0.45431    0.42932    0.39907    1.000
    N60      N        0.46690    0.46089    0.28020    1.000
    N61      N        0.49448    0.44493    0.31572    1.000
    C303     C        0.41624    0.49643    0.20070    1.000
    C304     C        0.39370    0.51680    0.16030    1.000
    H265     H        0.37130    0.51780    0.17610    1.000
    C305     C        0.40340    0.53430    0.10170    1.000
    H266     H        0.39090    0.55290    0.08530    1.000
    C306     C        0.43230    0.52520    0.06380    1.000
    H267     H        0.43480    0.52730    0.01020    1.000
    C307     C        0.45810    0.51220    0.11240    1.000
    H268     H        0.48090    0.51550    0.10100    1.000
    C308     C        0.44827    0.49471    0.17620    1.000
    C309     C        0.47437    0.47532    0.21640    1.000
    C310     C        0.48458    0.42957    0.37630    1.000
    C311     C        0.51056    0.41185    0.42280    1.000
    H269     H        0.52490    0.42860    0.44740    1.000
    H270     H        0.52460    0.39860    0.38810    1.000
    C312     C        0.49650    0.38890    0.48450    1.000
    H271     H        0.48280    0.40180    0.51980    1.000
    H272     H        0.51480    0.37860    0.51250    1.000
    H273     H        0.48300    0.37160    0.46060    1.000
    Mn24     Mn       0.45922    0.53849    0.74449    1.000
    O70      O        0.45132    0.58065    0.78273    1.000
    O71      O        0.38381    0.56771    0.59906    1.000
    O72      O        0.46141    0.49577    0.69491    1.000
    N62      N        0.42387    0.54329    0.67132    1.000
    N63      N        0.41787    0.51478    0.62690    1.000
    C313     C        0.42926    0.60307    0.76130    1.000
    C314     C        0.42889    0.63332    0.80040    1.000
    H274     H        0.44440    0.63690    0.84030    1.000
    C315     C        0.40660    0.65810    0.78230    1.000
    H275     H        0.40710    0.67850    0.80940    1.000
    C316     C        0.38412    0.65349    0.72640    1.000
    H276     H        0.36810    0.67010    0.71590    1.000
    C317     C        0.38464    0.62466    0.68480    1.000
    H277     H        0.36950    0.62220    0.64380    1.000
    C318     C        0.40665    0.59886    0.70100    1.000
    C319     C        0.40461    0.56916    0.65430    1.000
    C320     C        0.43874    0.49189    0.64370    1.000
    C321     C        0.43558    0.45835    0.60740    1.000
    H278     H        0.45510    0.45430    0.57480    1.000
    H279     H        0.41570    0.45810    0.57450    1.000
    C322     C        0.43290    0.43112    0.66510    1.000
    H280     H        0.41280    0.43430    0.69560    1.000
    H281     H        0.43170    0.40970    0.63890    1.000
    H282     H        0.45240    0.43150    0.69840    1.000
    N64      N        0.23651    0.67592    0.08140    1.000
    C323     C        0.26699    0.68628    0.11030    1.000
    H283     H        0.27460    0.70820    0.10100    1.000
    C324     C        0.28640    0.66440    0.15300    1.000
    H284     H        0.30920    0.66830    0.16230    1.000
    C325     C        0.26910    0.63450    0.18310    1.000
    C326     C        0.24500    0.62570    0.14550    1.000
    H285     H        0.23580    0.60420    0.15150    1.000
    C327     C        0.23190    0.64790    0.09440    1.000
    H286     H        0.21550    0.63830    0.06260    1.000
    C328     C        0.28580    0.61150    0.23960    1.000
    H287     H        0.29550    0.59260    0.21160    1.000
    H288     H        0.26880    0.60260    0.27470    1.000
    Mn25     Mn       0.27973    0.86419    0.72182    1.000
    O73      O        0.25968    0.90203    0.68695    1.000
    O74      O        0.19700    0.86592    0.86108    1.000
    O75      O        0.29455    0.82348    0.76899    1.000
    N65      N        0.24388    0.85697    0.79270    1.000
    N66      N        0.24606    0.82671    0.83530    1.000
    N67      N        0.31136    0.89187    0.80760    1.000
    C329     C        0.23410    0.91936    0.71540    1.000
    C330     C        0.22736    0.95047    0.68400    1.000
    H289     H        0.24090    0.95870    0.64390    1.000
    C331     C        0.20152    0.96932    0.71030    1.000
    H290     H        0.19720    0.99020    0.68760    1.000
    C332     C        0.18176    0.95848    0.76930    1.000
    H291     H        0.16460    0.97210    0.78880    1.000
    C333     C        0.18733    0.92781    0.79910    1.000
    H292     H        0.17300    0.91990    0.83790    1.000
    C334     C        0.21349    0.90747    0.77470    1.000
    C335     C        0.21800    0.87523    0.81150    1.000
    C336     C        0.27362    0.81199    0.81800    1.000
    C337     C        0.28288    0.77979    0.85650    1.000
    H293     H        0.26330    0.77010    0.88200    1.000
    H294     H        0.29100    0.76370    0.81830    1.000
    C338     C        0.33173    0.91546    0.78720    1.000
    H295     H        0.33220    0.92140    0.73490    1.000
    C339     C        0.35247    0.93221    0.83550    1.000
    H296     H        0.36550    0.95020    0.81800    1.000
    C340     C        0.35376    0.92201    0.91060    1.000
    C341     C        0.33221    0.89747    0.93120    1.000
    H297     H        0.33200    0.89000    0.98240    1.000
    C342     C        0.31169    0.88389    0.88160    1.000
    H298     H        0.29650    0.86770    0.89930    1.000
    C343     C        0.37719    0.93830    0.96570    1.000
    H299     H        0.39600    0.94800    0.93700    1.000
    H300     H        0.38620    0.92130    0.00060    1.000
    Mn26     Mn       0.20427    0.82469    0.91797    1.000
    O76      O        0.22972    0.84631    0.99160    1.000
    O77      O        0.22431    0.74592    0.06217    1.000
    O78      O        0.17932    0.79569    0.85093    1.000
    N68      N        0.21089    0.78310    0.96980    1.000
    N69      N        0.19493    0.75552    0.93428    1.000
    C344     C        0.24643    0.83376    0.04930    1.000
    C345     C        0.26680    0.85630    0.08970    1.000
    H301     H        0.26780    0.87870    0.07390    1.000
    C346     C        0.28430    0.84660    0.14830    1.000
    H302     H        0.30290    0.85910    0.16470    1.000
    C347     C        0.27520    0.81770    0.18620    1.000
    H303     H        0.27730    0.81520    0.23980    1.000
    C348     C        0.26220    0.79190    0.13760    1.000
    H304     H        0.26550    0.76910    0.14900    1.000
    C349     C        0.24471    0.80173    0.07380    1.000
    C350     C        0.22532    0.77563    0.03360    1.000
    C351     C        0.17957    0.76542    0.87370    1.000
    C352     C        0.16185    0.73944    0.82720    1.000
    H305     H        0.17860    0.72510    0.80260    1.000
    H306     H        0.14860    0.72540    0.86190    1.000
    C353     C        0.13890    0.75350    0.76550    1.000
    H307     H        0.15180    0.76720    0.73020    1.000
    H308     H        0.12860    0.73520    0.73750    1.000
    H309     H        0.12160    0.76700    0.78940    1.000
    Mn27     Mn       0.28849    0.79078    0.50551    1.000
    O79      O        0.33065    0.79868    0.46727    1.000
    O80      O        0.31771    0.86619    0.65094    1.000
    O81      O        0.24577    0.78859    0.55509    1.000
    N70      N        0.29329    0.82613    0.57868    1.000
    N71      N        0.26478    0.83213    0.62310    1.000
    C354     C        0.35307    0.82074    0.48870    1.000
    C355     C        0.38332    0.82111    0.44960    1.000
    H310     H        0.38690    0.80560    0.40970    1.000
    C356     C        0.40810    0.84340    0.46770    1.000
    H311     H        0.42850    0.84290    0.44060    1.000
    C357     C        0.40349    0.86588    0.52360    1.000
    H312     H        0.42010    0.88190    0.53410    1.000
    C358     C        0.37466    0.86536    0.56520    1.000
    H313     H        0.37220    0.88050    0.60620    1.000
    C359     C        0.34886    0.84335    0.54900    1.000
    C360     C        0.31916    0.84539    0.59570    1.000
    C361     C        0.24189    0.81126    0.60630    1.000
    C362     C        0.20835    0.81442    0.64260    1.000
    H314     H        0.20430    0.79490    0.67520    1.000
    H315     H        0.20810    0.83430    0.67550    1.000
    C363     C        0.18112    0.81710    0.58490    1.000
    H316     H        0.18430    0.83720    0.55440    1.000
    H317     H        0.15970    0.81830    0.61110    1.000
    H318     H        0.18150    0.79760    0.55160    1.000
    N72      N        0.42592    0.01349    0.16860    1.000
    C364     C        0.43628    0.98301    0.13970    1.000
    H319     H        0.45820    0.97540    0.14900    1.000
    C365     C        0.41440    0.96360    0.09700    1.000
    H320     H        0.41830    0.94080    0.08770    1.000
    C366     C        0.38450    0.98090    0.06690    1.000
    C367     C        0.37570    0.00500    0.10450    1.000
    H321     H        0.35420    0.01420    0.09850    1.000
    C368     C        0.39790    0.01810    0.15560    1.000
    H322     H        0.38830    0.03450    0.18740    1.000
    C369     C        0.36150    0.96420    0.01040    1.000
    H323     H        0.34260    0.95450    0.03840    1.000
    H324     H        0.35260    0.98120    0.97530    1.000
    Mn28     Mn       0.77973    0.36419    0.22182    1.000
    O82      O        0.75968    0.40203    0.18695    1.000
    O83      O        0.69700    0.36592    0.36108    1.000
    O84      O        0.79455    0.32348    0.26899    1.000
    N73      N        0.74388    0.35697    0.29270    1.000
    N74      N        0.74606    0.32671    0.33530    1.000
    N75      N        0.81136    0.39187    0.30760    1.000
    C370     C        0.73410    0.41936    0.21540    1.000
    C371     C        0.72736    0.45047    0.18400    1.000
    H325     H        0.74090    0.45870    0.14390    1.000
    C372     C        0.70152    0.46932    0.21030    1.000
    H326     H        0.69720    0.49020    0.18760    1.000
    C373     C        0.68176    0.45848    0.26930    1.000
    H327     H        0.66460    0.47210    0.28880    1.000
    C374     C        0.68733    0.42781    0.29910    1.000
    H328     H        0.67300    0.41990    0.33790    1.000
    C375     C        0.71349    0.40747    0.27470    1.000
    C376     C        0.71800    0.37523    0.31150    1.000
    C377     C        0.77362    0.31199    0.31800    1.000
    C378     C        0.78288    0.27979    0.35650    1.000
    H329     H        0.76330    0.27010    0.38200    1.000
    H330     H        0.79100    0.26370    0.31830    1.000
    C379     C        0.83173    0.41546    0.28720    1.000
    H331     H        0.83220    0.42140    0.23490    1.000
    C380     C        0.85247    0.43221    0.33550    1.000
    H332     H        0.86550    0.45020    0.31800    1.000
    C381     C        0.85376    0.42201    0.41060    1.000
    C382     C        0.83221    0.39747    0.43120    1.000
    H333     H        0.83200    0.39000    0.48240    1.000
    C383     C        0.81169    0.38389    0.38160    1.000
    H334     H        0.79650    0.36770    0.39930    1.000
    C384     C        0.87719    0.43830    0.46570    1.000
    H335     H        0.89600    0.44800    0.43700    1.000
    H336     H        0.88620    0.42130    0.50060    1.000
    Mn29     Mn       0.70427    0.32469    0.41797    1.000
    O85      O        0.72972    0.34631    0.49160    1.000
    O86      O        0.72431    0.24592    0.56217    1.000
    O87      O        0.67932    0.29569    0.35093    1.000
    N76      N        0.71089    0.28310    0.46980    1.000
    N77      N        0.69493    0.25552    0.43428    1.000
    C385     C        0.74643    0.33376    0.54930    1.000
    C386     C        0.76680    0.35630    0.58970    1.000
    H337     H        0.76780    0.37870    0.57390    1.000
    C387     C        0.78430    0.34660    0.64830    1.000
    H338     H        0.80290    0.35910    0.66470    1.000
    C388     C        0.77520    0.31770    0.68620    1.000
    H339     H        0.77730    0.31520    0.73980    1.000
    C389     C        0.76220    0.29190    0.63760    1.000
    H340     H        0.76550    0.26910    0.64900    1.000
    C390     C        0.74471    0.30173    0.57380    1.000
    C391     C        0.72532    0.27563    0.53360    1.000
    C392     C        0.67957    0.26542    0.37370    1.000
    C393     C        0.66185    0.23944    0.32720    1.000
    H341     H        0.67860    0.22510    0.30260    1.000
    H342     H        0.64860    0.22540    0.36190    1.000
    C394     C        0.63890    0.25350    0.26550    1.000
    H343     H        0.65180    0.26720    0.23020    1.000
    H344     H        0.62860    0.23520    0.23750    1.000
    H345     H        0.62160    0.26700    0.28940    1.000
    Mn30     Mn       0.78849    0.29078    0.00551    1.000
    O88      O        0.83065    0.29868    0.96727    1.000
    O89      O        0.81771    0.36619    0.15094    1.000
    O90      O        0.74577    0.28859    0.05509    1.000
    N78      N        0.79329    0.32613    0.07868    1.000
    N79      N        0.76478    0.33213    0.12310    1.000
    C395     C        0.85307    0.32074    0.98870    1.000
    C396     C        0.88332    0.32111    0.94960    1.000
    H346     H        0.88690    0.30560    0.90970    1.000
    C397     C        0.90810    0.34340    0.96770    1.000
    H347     H        0.92850    0.34290    0.94060    1.000
    C398     C        0.90349    0.36588    0.02360    1.000
    H348     H        0.92010    0.38190    0.03410    1.000
    C399     C        0.87466    0.36536    0.06520    1.000
    H349     H        0.87220    0.38050    0.10620    1.000
    C400     C        0.84886    0.34335    0.04900    1.000
    C401     C        0.81916    0.34539    0.09570    1.000
    C402     C        0.74189    0.31126    0.10630    1.000
    C403     C        0.70835    0.31442    0.14260    1.000
    H350     H        0.70430    0.29490    0.17520    1.000
    H351     H        0.70810    0.33430    0.17550    1.000
    C404     C        0.68112    0.31710    0.08490    1.000
    H352     H        0.68430    0.33720    0.05440    1.000
    H353     H        0.65970    0.31830    0.11110    1.000
    H354     H        0.68150    0.29760    0.05160    1.000
    N80      N        0.92592    0.51349    0.66860    1.000
    C405     C        0.93628    0.48301    0.63970    1.000
    H355     H        0.95820    0.47540    0.64900    1.000
    C406     C        0.91440    0.46360    0.59700    1.000
    H356     H        0.91830    0.44080    0.58770    1.000
    C407     C        0.88450    0.48090    0.56690    1.000
    C408     C        0.87570    0.50500    0.60450    1.000
    H357     H        0.85420    0.51420    0.59850    1.000
    C409     C        0.89790    0.51810    0.65560    1.000
    H358     H        0.88830    0.53450    0.68740    1.000
    C410     C        0.86150    0.46420    0.51040    1.000
    H359     H        0.84260    0.45450    0.53840    1.000
    H360     H        0.85260    0.48120    0.47530    1.000
    Mn31     Mn       0.22027    0.13581    0.22182    1.000
    O91      O        0.24032    0.09797    0.18695    1.000
    O92      O        0.30300    0.13408    0.36108    1.000
    O93      O        0.20545    0.17652    0.26899    1.000
    N81      N        0.25612    0.14303    0.29270    1.000
    N82      N        0.25394    0.17329    0.33530    1.000
    N83      N        0.18864    0.10813    0.30760    1.000
    C411     C        0.26590    0.08064    0.21540    1.000
    C412     C        0.27264    0.04953    0.18400    1.000
    H361     H        0.25910    0.04130    0.14390    1.000
    C413     C        0.29848    0.03068    0.21030    1.000
    H362     H        0.30280    0.00980    0.18760    1.000
    C414     C        0.31824    0.04152    0.26930    1.000
    H363     H        0.33540    0.02790    0.28880    1.000
    C415     C        0.31267    0.07219    0.29910    1.000
    H364     H        0.32700    0.08010    0.33790    1.000
    C416     C        0.28651    0.09253    0.27470    1.000
    C417     C        0.28200    0.12477    0.31150    1.000
    C418     C        0.22638    0.18801    0.31800    1.000
    C419     C        0.21712    0.22021    0.35650    1.000
    H365     H        0.23670    0.22990    0.38200    1.000
    H366     H        0.20900    0.23630    0.31830    1.000
    C420     C        0.16827    0.08454    0.28720    1.000
    H367     H        0.16780    0.07860    0.23490    1.000
    C421     C        0.14753    0.06779    0.33550    1.000
    H368     H        0.13450    0.04980    0.31800    1.000
    C422     C        0.14624    0.07799    0.41060    1.000
    C423     C        0.16779    0.10253    0.43120    1.000
    H369     H        0.16800    0.11000    0.48240    1.000
    C424     C        0.18831    0.11611    0.38160    1.000
    H370     H        0.20350    0.13230    0.39930    1.000
    C425     C        0.12281    0.06170    0.46570    1.000
    H371     H        0.10400    0.05200    0.43700    1.000
    H372     H        0.11380    0.07870    0.50060    1.000
    Mn32     Mn       0.29573    0.17531    0.41797    1.000
    O94      O        0.27028    0.15369    0.49160    1.000
    O95      O        0.27569    0.25408    0.56217    1.000
    O96      O        0.32068    0.20431    0.35093    1.000
    N84      N        0.28911    0.21690    0.46980    1.000
    N85      N        0.30507    0.24448    0.43428    1.000
    C426     C        0.25357    0.16624    0.54930    1.000
    C427     C        0.23320    0.14370    0.58970    1.000
    H373     H        0.23220    0.12130    0.57390    1.000
    C428     C        0.21570    0.15340    0.64830    1.000
    H374     H        0.19710    0.14090    0.66470    1.000
    C429     C        0.22480    0.18230    0.68620    1.000
    H375     H        0.22270    0.18480    0.73980    1.000
    C430     C        0.23780    0.20810    0.63760    1.000
    H376     H        0.23450    0.23090    0.64900    1.000
    C431     C        0.25529    0.19827    0.57380    1.000
    C432     C        0.27468    0.22437    0.53360    1.000
    C433     C        0.32043    0.23458    0.37370    1.000
    C434     C        0.33815    0.26056    0.32720    1.000
    H377     H        0.32140    0.27490    0.30260    1.000
    H378     H        0.35140    0.27460    0.36190    1.000
    C435     C        0.36110    0.24650    0.26550    1.000
    H379     H        0.34820    0.23280    0.23020    1.000
    H380     H        0.37140    0.26480    0.23750    1.000
    H381     H        0.37840    0.23300    0.28940    1.000
    Mn33     Mn       0.21151    0.20922    0.00551    1.000
    O97      O        0.16935    0.20132    0.96727    1.000
    O98      O        0.18229    0.13381    0.15094    1.000
    O99      O        0.25423    0.21141    0.05509    1.000
    N86      N        0.20671    0.17387    0.07868    1.000
    N87      N        0.23522    0.16787    0.12310    1.000
    C436     C        0.14693    0.17926    0.98870    1.000
    C437     C        0.11668    0.17889    0.94960    1.000
    H382     H        0.11310    0.19440    0.90970    1.000
    C438     C        0.09190    0.15660    0.96770    1.000
    H383     H        0.07150    0.15710    0.94060    1.000
    C439     C        0.09651    0.13412    0.02360    1.000
    H384     H        0.07990    0.11810    0.03410    1.000
    C440     C        0.12534    0.13464    0.06520    1.000
    H385     H        0.12780    0.11950    0.10620    1.000
    C441     C        0.15114    0.15665    0.04900    1.000
    C442     C        0.18084    0.15461    0.09570    1.000
    C443     C        0.25811    0.18874    0.10630    1.000
    C444     C        0.29165    0.18558    0.14260    1.000
    H386     H        0.29570    0.20510    0.17520    1.000
    H387     H        0.29190    0.16570    0.17550    1.000
    C445     C        0.31888    0.18290    0.08490    1.000
    H388     H        0.31570    0.16280    0.05440    1.000
    H389     H        0.34030    0.18170    0.11110    1.000
    H390     H        0.31850    0.20240    0.05160    1.000
    N88      N        0.07408    0.98651    0.66860    1.000
    C446     C        0.06372    0.01699    0.63970    1.000
    H391     H        0.04180    0.02460    0.64900    1.000
    C447     C        0.08560    0.03640    0.59700    1.000
    H392     H        0.08170    0.05920    0.58770    1.000
    C448     C        0.11550    0.01910    0.56690    1.000
    C449     C        0.12430    0.99500    0.60450    1.000
    H393     H        0.14580    0.98580    0.59850    1.000
    C450     C        0.10210    0.98190    0.65560    1.000
    H394     H        0.11170    0.96550    0.68740    1.000
    C451     C        0.13850    0.03580    0.51040    1.000
    H395     H        0.15740    0.04550    0.53840    1.000
    H396     H        0.14740    0.01880    0.47530    1.000
    Mn34     Mn       0.72027    0.63581    0.72182    1.000
    O100     O        0.74032    0.59797    0.68695    1.000
    O101     O        0.80300    0.63408    0.86108    1.000
    O102     O        0.70545    0.67652    0.76899    1.000
    N89      N        0.75612    0.64303    0.79270    1.000
    N90      N        0.75394    0.67329    0.83530    1.000
    N91      N        0.68864    0.60813    0.80760    1.000
    C452     C        0.76590    0.58064    0.71540    1.000
    C453     C        0.77264    0.54953    0.68400    1.000
    H397     H        0.75910    0.54130    0.64390    1.000
    C454     C        0.79848    0.53068    0.71030    1.000
    H398     H        0.80280    0.50980    0.68760    1.000
    C455     C        0.81824    0.54152    0.76930    1.000
    H399     H        0.83540    0.52790    0.78880    1.000
    C456     C        0.81267    0.57219    0.79910    1.000
    H400     H        0.82700    0.58010    0.83790    1.000
    C457     C        0.78651    0.59253    0.77470    1.000
    C458     C        0.78200    0.62477    0.81150    1.000
    C459     C        0.72638    0.68801    0.81800    1.000
    C460     C        0.71712    0.72021    0.85650    1.000
    H401     H        0.73670    0.72990    0.88200    1.000
    H402     H        0.70900    0.73630    0.81830    1.000
    C461     C        0.66827    0.58454    0.78720    1.000
    H403     H        0.66780    0.57860    0.73490    1.000
    C462     C        0.64753    0.56779    0.83550    1.000
    H404     H        0.63450    0.54980    0.81800    1.000
    C463     C        0.64624    0.57799    0.91060    1.000
    C464     C        0.66779    0.60253    0.93120    1.000
    H405     H        0.66800    0.61000    0.98240    1.000
    C465     C        0.68831    0.61611    0.88160    1.000
    H406     H        0.70350    0.63230    0.89930    1.000
    C466     C        0.62281    0.56170    0.96570    1.000
    H407     H        0.60400    0.55200    0.93700    1.000
    H408     H        0.61380    0.57870    0.00060    1.000
    Mn35     Mn       0.79573    0.67531    0.91797    1.000
    O103     O        0.77028    0.65369    0.99160    1.000
    O104     O        0.77569    0.75408    0.06217    1.000
    O105     O        0.82068    0.70431    0.85093    1.000
    N92      N        0.78911    0.71690    0.96980    1.000
    N93      N        0.80507    0.74448    0.93428    1.000
    C467     C        0.75357    0.66624    0.04930    1.000
    C468     C        0.73320    0.64370    0.08970    1.000
    H409     H        0.73220    0.62130    0.07390    1.000
    C469     C        0.71570    0.65340    0.14830    1.000
    H410     H        0.69710    0.64090    0.16470    1.000
    C470     C        0.72480    0.68230    0.18620    1.000
    H411     H        0.72270    0.68480    0.23980    1.000
    C471     C        0.73780    0.70810    0.13760    1.000
    H412     H        0.73450    0.73090    0.14900    1.000
    C472     C        0.75529    0.69827    0.07380    1.000
    C473     C        0.77468    0.72437    0.03360    1.000
    C474     C        0.82043    0.73458    0.87370    1.000
    C475     C        0.83815    0.76056    0.82720    1.000
    H413     H        0.82140    0.77490    0.80260    1.000
    H414     H        0.85140    0.77460    0.86190    1.000
    C476     C        0.86110    0.74650    0.76550    1.000
    H415     H        0.84820    0.73280    0.73020    1.000
    H416     H        0.87140    0.76480    0.73750    1.000
    H417     H        0.87840    0.73300    0.78940    1.000
    Mn36     Mn       0.71151    0.70922    0.50551    1.000
    O106     O        0.66935    0.70132    0.46727    1.000
    O107     O        0.68229    0.63381    0.65094    1.000
    O108     O        0.75423    0.71141    0.55509    1.000
    N94      N        0.70671    0.67387    0.57868    1.000
    N95      N        0.73522    0.66787    0.62310    1.000
    C477     C        0.64693    0.67926    0.48870    1.000
    C478     C        0.61668    0.67889    0.44960    1.000
    H418     H        0.61310    0.69440    0.40970    1.000
    C479     C        0.59190    0.65660    0.46770    1.000
    H419     H        0.57150    0.65710    0.44060    1.000
    C480     C        0.59651    0.63412    0.52360    1.000
    H420     H        0.57990    0.61810    0.53410    1.000
    C481     C        0.62534    0.63464    0.56520    1.000
    H421     H        0.62780    0.61950    0.60620    1.000
    C482     C        0.65114    0.65665    0.54900    1.000
    C483     C        0.68084    0.65461    0.59570    1.000
    C484     C        0.75811    0.68874    0.60630    1.000
    C485     C        0.79165    0.68558    0.64260    1.000
    H422     H        0.79570    0.70510    0.67520    1.000
    H423     H        0.79190    0.66570    0.67550    1.000
    C486     C        0.81888    0.68290    0.58490    1.000
    H424     H        0.81570    0.66280    0.55440    1.000
    H425     H        0.84030    0.68170    0.61110    1.000
    H426     H        0.81850    0.70240    0.55160    1.000
    N96      N        0.57408    0.48651    0.16860    1.000
    C487     C        0.56372    0.51699    0.13970    1.000
    H427     H        0.54180    0.52460    0.14900    1.000
    C488     C        0.58560    0.53640    0.09700    1.000
    H428     H        0.58170    0.55920    0.08770    1.000
    C489     C        0.61550    0.51910    0.06690    1.000
    C490     C        0.62430    0.49500    0.10450    1.000
    H429     H        0.64580    0.48580    0.09850    1.000
    C491     C        0.60210    0.48190    0.15560    1.000
    H430     H        0.61170    0.46550    0.18740    1.000
    C492     C        0.63850    0.53580    0.01040    1.000
    H431     H        0.65740    0.54550    0.03840    1.000
    H432     H        0.64740    0.51880    0.97530    1.000
    Mn37     Mn       0.38581    0.02973    0.47182    1.000
    O109     O        0.34797    0.00968    0.43695    1.000
    O110     O        0.38408    0.94700    0.61108    1.000
    O111     O        0.42652    0.04455    0.51899    1.000
    N97      N        0.39303    0.99388    0.54270    1.000
    N98      N        0.42329    0.99606    0.58530    1.000
    N99      N        0.35813    0.06136    0.55760    1.000
    C493     C        0.33064    0.98410    0.46540    1.000
    C494     C        0.29953    0.97736    0.43400    1.000
    H433     H        0.29130    0.99090    0.39390    1.000
    C495     C        0.28068    0.95152    0.46030    1.000
    H434     H        0.25980    0.94720    0.43760    1.000
    C496     C        0.29152    0.93176    0.51930    1.000
    H435     H        0.27790    0.91460    0.53880    1.000
    C497     C        0.32219    0.93733    0.54910    1.000
    H436     H        0.33010    0.92300    0.58790    1.000
    C498     C        0.34253    0.96349    0.52470    1.000
    C499     C        0.37477    0.96800    0.56150    1.000
    C500     C        0.43801    0.02362    0.56800    1.000
    C501     C        0.47021    0.03288    0.60650    1.000
    H437     H        0.47990    0.01330    0.63200    1.000
    H438     H        0.48630    0.04100    0.56830    1.000
    C502     C        0.33454    0.08173    0.53720    1.000
    H439     H        0.32860    0.08220    0.48490    1.000
    C503     C        0.31779    0.10247    0.58550    1.000
    H440     H        0.29980    0.11550    0.56800    1.000
    C504     C        0.32799    0.10376    0.66060    1.000
    C505     C        0.35253    0.08221    0.68120    1.000
    H441     H        0.36000    0.08200    0.73240    1.000
    C506     C        0.36611    0.06169    0.63160    1.000
    H442     H        0.38230    0.04650    0.64930    1.000
    C507     C        0.31170    0.12719    0.71570    1.000
    H443     H        0.30200    0.14600    0.68700    1.000
    H444     H        0.32870    0.13620    0.75060    1.000
    Mn38     Mn       0.42531    0.95427    0.66797    1.000
    O112     O        0.40369    0.97972    0.74160    1.000
    O113     O        0.50408    0.97431    0.81217    1.000
    O114     O        0.45431    0.92932    0.60093    1.000
    N100     N        0.46690    0.96089    0.71980    1.000
    N101     N        0.49448    0.94493    0.68428    1.000
    C508     C        0.41624    0.99643    0.79930    1.000
    C509     C        0.39370    0.01680    0.83970    1.000
    H445     H        0.37130    0.01780    0.82390    1.000
    C510     C        0.40340    0.03430    0.89830    1.000
    H446     H        0.39090    0.05290    0.91470    1.000
    C511     C        0.43230    0.02520    0.93620    1.000
    H447     H        0.43480    0.02730    0.98980    1.000
    C512     C        0.45810    0.01220    0.88760    1.000
    H448     H        0.48090    0.01550    0.89900    1.000
    C513     C        0.44827    0.99471    0.82380    1.000
    C514     C        0.47437    0.97532    0.78360    1.000
    C515     C        0.48458    0.92957    0.62370    1.000
    C516     C        0.51056    0.91185    0.57720    1.000
    H449     H        0.52490    0.92860    0.55260    1.000
    H450     H        0.52460    0.89860    0.61190    1.000
    C517     C        0.49650    0.88890    0.51550    1.000
    H451     H        0.48280    0.90180    0.48020    1.000
    H452     H        0.51480    0.87860    0.48750    1.000
    H453     H        0.48300    0.87160    0.53940    1.000
    Mn39     Mn       0.45922    0.03849    0.25551    1.000
    O115     O        0.45132    0.08065    0.21727    1.000
    O116     O        0.38381    0.06771    0.40094    1.000
    O117     O        0.46141    0.99577    0.30509    1.000
    N102     N        0.42387    0.04329    0.32868    1.000
    N103     N        0.41787    0.01478    0.37310    1.000
    C518     C        0.42926    0.10307    0.23870    1.000
    C519     C        0.42889    0.13332    0.19960    1.000
    H454     H        0.44440    0.13690    0.15970    1.000
    C520     C        0.40660    0.15810    0.21770    1.000
    H455     H        0.40710    0.17850    0.19060    1.000
    C521     C        0.38412    0.15349    0.27360    1.000
    H456     H        0.36810    0.17010    0.28410    1.000
    C522     C        0.38464    0.12466    0.31520    1.000
    H457     H        0.36950    0.12220    0.35620    1.000
    C523     C        0.40665    0.09886    0.29900    1.000
    C524     C        0.40461    0.06916    0.34570    1.000
    C525     C        0.43874    0.99189    0.35630    1.000
    C526     C        0.43558    0.95835    0.39260    1.000
    H458     H        0.45510    0.95430    0.42520    1.000
    H459     H        0.41570    0.95810    0.42550    1.000
    C527     C        0.43290    0.93112    0.33490    1.000
    H460     H        0.41280    0.93430    0.30440    1.000
    H461     H        0.43170    0.90970    0.36110    1.000
    H462     H        0.45240    0.93150    0.30160    1.000
    N104     N        0.23651    0.17592    0.91860    1.000
    C528     C        0.26699    0.18628    0.88970    1.000
    H463     H        0.27460    0.20820    0.89900    1.000
    C529     C        0.28640    0.16440    0.84700    1.000
    H464     H        0.30920    0.16830    0.83770    1.000
    C530     C        0.26910    0.13450    0.81690    1.000
    C531     C        0.24500    0.12570    0.85450    1.000
    H465     H        0.23580    0.10420    0.84850    1.000
    C532     C        0.23190    0.14790    0.90560    1.000
    H466     H        0.21550    0.13830    0.93740    1.000
    C533     C        0.28580    0.11150    0.76040    1.000
    H467     H        0.29550    0.09260    0.78840    1.000
    H468     H        0.26880    0.10260    0.72530    1.000
    Mn40     Mn       0.88581    0.52973    0.97182    1.000
    O118     O        0.84797    0.50968    0.93695    1.000
    O119     O        0.88408    0.44700    0.11108    1.000
    O120     O        0.92652    0.54455    0.01899    1.000
    N105     N        0.89303    0.49388    0.04270    1.000
    N106     N        0.92329    0.49606    0.08530    1.000
    N107     N        0.85813    0.56136    0.05760    1.000
    C534     C        0.83064    0.48410    0.96540    1.000
    C535     C        0.79953    0.47736    0.93400    1.000
    H469     H        0.79130    0.49090    0.89390    1.000
    C536     C        0.78068    0.45152    0.96030    1.000
    H470     H        0.75980    0.44720    0.93760    1.000
    C537     C        0.79152    0.43176    0.01930    1.000
    H471     H        0.77790    0.41460    0.03880    1.000
    C538     C        0.82219    0.43733    0.04910    1.000
    H472     H        0.83010    0.42300    0.08790    1.000
    C539     C        0.84253    0.46349    0.02470    1.000
    C540     C        0.87477    0.46800    0.06150    1.000
    C541     C        0.93801    0.52362    0.06800    1.000
    C542     C        0.97021    0.53288    0.10650    1.000
    H473     H        0.97990    0.51330    0.13200    1.000
    H474     H        0.98630    0.54100    0.06830    1.000
    C543     C        0.83454    0.58173    0.03720    1.000
    H475     H        0.82860    0.58220    0.98490    1.000
    C544     C        0.81779    0.60247    0.08550    1.000
    H476     H        0.79980    0.61550    0.06800    1.000
    C545     C        0.82799    0.60376    0.16060    1.000
    C546     C        0.85253    0.58221    0.18120    1.000
    H477     H        0.86000    0.58200    0.23240    1.000
    C547     C        0.86611    0.56169    0.13160    1.000
    H478     H        0.88230    0.54650    0.14930    1.000
    C548     C        0.81170    0.62719    0.21570    1.000
    H479     H        0.80200    0.64600    0.18700    1.000
    H480     H        0.82870    0.63620    0.25060    1.000
    Mn41     Mn       0.92531    0.45427    0.16797    1.000
    O121     O        0.90369    0.47972    0.24160    1.000
    O122     O        0.00408    0.47431    0.31217    1.000
    O123     O        0.95431    0.42932    0.10093    1.000
    N108     N        0.96690    0.46089    0.21980    1.000
    N109     N        0.99448    0.44493    0.18428    1.000
    C549     C        0.91624    0.49643    0.29930    1.000
    C550     C        0.89370    0.51680    0.33970    1.000
    H481     H        0.87130    0.51780    0.32390    1.000
    C551     C        0.90340    0.53430    0.39830    1.000
    H482     H        0.89090    0.55290    0.41470    1.000
    C552     C        0.93230    0.52520    0.43620    1.000
    H483     H        0.93480    0.52730    0.48980    1.000
    C553     C        0.95810    0.51220    0.38760    1.000
    H484     H        0.98090    0.51550    0.39900    1.000
    C554     C        0.94827    0.49471    0.32380    1.000
    C555     C        0.97437    0.47532    0.28360    1.000
    C556     C        0.98458    0.42957    0.12370    1.000
    C557     C        0.01056    0.41185    0.07720    1.000
    H485     H        0.02490    0.42860    0.05260    1.000
    H486     H        0.02460    0.39860    0.11190    1.000
    C558     C        0.99650    0.38890    0.01550    1.000
    H487     H        0.98280    0.40180    0.98020    1.000
    H488     H        0.01480    0.37860    0.98750    1.000
    H489     H        0.98300    0.37160    0.03940    1.000
    Mn42     Mn       0.95922    0.53849    0.75551    1.000
    O124     O        0.95132    0.58065    0.71727    1.000
    O125     O        0.88381    0.56771    0.90094    1.000
    O126     O        0.96141    0.49577    0.80509    1.000
    N110     N        0.92387    0.54329    0.82868    1.000
    N111     N        0.91787    0.51478    0.87310    1.000
    C559     C        0.92926    0.60307    0.73870    1.000
    C560     C        0.92889    0.63332    0.69960    1.000
    H490     H        0.94440    0.63690    0.65970    1.000
    C561     C        0.90660    0.65810    0.71770    1.000
    H491     H        0.90710    0.67850    0.69060    1.000
    C562     C        0.88412    0.65349    0.77360    1.000
    H492     H        0.86810    0.67010    0.78410    1.000
    C563     C        0.88464    0.62466    0.81520    1.000
    H493     H        0.86950    0.62220    0.85620    1.000
    C564     C        0.90665    0.59886    0.79900    1.000
    C565     C        0.90461    0.56916    0.84570    1.000
    C566     C        0.93874    0.49189    0.85630    1.000
    C567     C        0.93558    0.45835    0.89260    1.000
    H494     H        0.95510    0.45430    0.92520    1.000
    H495     H        0.91570    0.45810    0.92550    1.000
    C568     C        0.93290    0.43112    0.83490    1.000
    H496     H        0.91280    0.43430    0.80440    1.000
    H497     H        0.93170    0.40970    0.86110    1.000
    H498     H        0.95240    0.43150    0.80160    1.000
    N112     N        0.73651    0.67592    0.41860    1.000
    C569     C        0.76699    0.68628    0.38970    1.000
    H499     H        0.77460    0.70820    0.39900    1.000
    C570     C        0.78640    0.66440    0.34700    1.000
    H500     H        0.80920    0.66830    0.33770    1.000
    C571     C        0.76910    0.63450    0.31690    1.000
    C572     C        0.74500    0.62570    0.35450    1.000
    H501     H        0.73580    0.60420    0.34850    1.000
    C573     C        0.73190    0.64790    0.40560    1.000
    H502     H        0.71550    0.63830    0.43740    1.000
    C574     C        0.78580    0.61150    0.26040    1.000
    H503     H        0.79550    0.59260    0.28840    1.000
    H504     H        0.76880    0.60260    0.22530    1.000
    Mn43     Mn       0.11419    0.97027    0.97182    1.000
    O127     O        0.15203    0.99032    0.93695    1.000
    O128     O        0.11592    0.05300    0.11108    1.000
    O129     O        0.07348    0.95545    0.01899    1.000
    N113     N        0.10697    0.00612    0.04270    1.000
    N114     N        0.07671    0.00394    0.08530    1.000
    N115     N        0.14187    0.93864    0.05760    1.000
    C575     C        0.16936    0.01590    0.96540    1.000
    C576     C        0.20047    0.02264    0.93400    1.000
    H505     H        0.20870    0.00910    0.89390    1.000
    C577     C        0.21932    0.04848    0.96030    1.000
    H506     H        0.24020    0.05280    0.93760    1.000
    C578     C        0.20848    0.06824    0.01930    1.000
    H507     H        0.22210    0.08540    0.03880    1.000
    C579     C        0.17781    0.06267    0.04910    1.000
    H508     H        0.16990    0.07700    0.08790    1.000
    C580     C        0.15747    0.03651    0.02470    1.000
    C581     C        0.12523    0.03200    0.06150    1.000
    C582     C        0.06199    0.97638    0.06800    1.000
    C583     C        0.02979    0.96712    0.10650    1.000
    H509     H        0.02010    0.98670    0.13200    1.000
    H510     H        0.01370    0.95900    0.06830    1.000
    C584     C        0.16546    0.91827    0.03720    1.000
    H511     H        0.17140    0.91780    0.98490    1.000
    C585     C        0.18221    0.89753    0.08550    1.000
    H512     H        0.20020    0.88450    0.06800    1.000
    C586     C        0.17201    0.89624    0.16060    1.000
    C587     C        0.14747    0.91779    0.18120    1.000
    H513     H        0.14000    0.91800    0.23240    1.000
    C588     C        0.13389    0.93831    0.13160    1.000
    H514     H        0.11770    0.95350    0.14930    1.000
    C589     C        0.18830    0.87281    0.21570    1.000
    H515     H        0.19800    0.85400    0.18700    1.000
    H516     H        0.17130    0.86380    0.25060    1.000
    Mn44     Mn       0.07469    0.04573    0.16797    1.000
    O130     O        0.09631    0.02028    0.24160    1.000
    O131     O        0.99592    0.02569    0.31217    1.000
    O132     O        0.04569    0.07068    0.10093    1.000
    N116     N        0.03310    0.03911    0.21980    1.000
    N117     N        0.00552    0.05507    0.18428    1.000
    C590     C        0.08376    0.00357    0.29930    1.000
    C591     C        0.10630    0.98320    0.33970    1.000
    H517     H        0.12870    0.98220    0.32390    1.000
    C592     C        0.09660    0.96570    0.39830    1.000
    H518     H        0.10910    0.94710    0.41470    1.000
    C593     C        0.06770    0.97480    0.43620    1.000
    H519     H        0.06520    0.97270    0.48980    1.000
    C594     C        0.04190    0.98780    0.38760    1.000
    H520     H        0.01910    0.98450    0.39900    1.000
    C595     C        0.05173    0.00529    0.32380    1.000
    C596     C        0.02563    0.02468    0.28360    1.000
    C597     C        0.01542    0.07043    0.12370    1.000
    C598     C        0.98944    0.08815    0.07720    1.000
    H521     H        0.97510    0.07140    0.05260    1.000
    H522     H        0.97540    0.10140    0.11190    1.000
    C599     C        0.00350    0.11110    0.01550    1.000
    H523     H        0.01720    0.09820    0.98020    1.000
    H524     H        0.98520    0.12140    0.98750    1.000
    H525     H        0.01700    0.12840    0.03940    1.000
    Mn45     Mn       0.04078    0.96151    0.75551    1.000
    O133     O        0.04868    0.91935    0.71727    1.000
    O134     O        0.11619    0.93229    0.90094    1.000
    O135     O        0.03859    0.00423    0.80509    1.000
    N118     N        0.07613    0.95671    0.82868    1.000
    N119     N        0.08213    0.98522    0.87310    1.000
    C600     C        0.07074    0.89693    0.73870    1.000
    C601     C        0.07111    0.86668    0.69960    1.000
    H526     H        0.05560    0.86310    0.65970    1.000
    C602     C        0.09340    0.84190    0.71770    1.000
    H527     H        0.09290    0.82150    0.69060    1.000
    C603     C        0.11588    0.84651    0.77360    1.000
    H528     H        0.13190    0.82990    0.78410    1.000
    C604     C        0.11536    0.87534    0.81520    1.000
    H529     H        0.13050    0.87780    0.85620    1.000
    C605     C        0.09335    0.90114    0.79900    1.000
    C606     C        0.09539    0.93084    0.84570    1.000
    C607     C        0.06126    0.00811    0.85630    1.000
    C608     C        0.06442    0.04165    0.89260    1.000
    H530     H        0.04490    0.04570    0.92520    1.000
    H531     H        0.08430    0.04190    0.92550    1.000
    C609     C        0.06710    0.06888    0.83490    1.000
    H532     H        0.08720    0.06570    0.80440    1.000
    H533     H        0.06830    0.09030    0.86110    1.000
    H534     H        0.04760    0.06850    0.80160    1.000
    N120     N        0.26349    0.82408    0.41860    1.000
    C610     C        0.23301    0.81372    0.38970    1.000
    H535     H        0.22540    0.79180    0.39900    1.000
    C611     C        0.21360    0.83560    0.34700    1.000
    H536     H        0.19080    0.83170    0.33770    1.000
    C612     C        0.23090    0.86550    0.31690    1.000
    C613     C        0.25500    0.87430    0.35450    1.000
    H537     H        0.26420    0.89580    0.34850    1.000
    C614     C        0.26810    0.85210    0.40560    1.000
    H538     H        0.28450    0.86170    0.43740    1.000
    C615     C        0.21420    0.88850    0.26040    1.000
    H539     H        0.20450    0.90740    0.28840    1.000
    H540     H        0.23120    0.89740    0.22530    1.000
    Mn46     Mn       0.61419    0.47027    0.47182    1.000
    O136     O        0.65203    0.49032    0.43695    1.000
    O137     O        0.61592    0.55300    0.61108    1.000
    O138     O        0.57348    0.45545    0.51899    1.000
    N121     N        0.60697    0.50612    0.54270    1.000
    N122     N        0.57671    0.50394    0.58530    1.000
    N123     N        0.64187    0.43864    0.55760    1.000
    C616     C        0.66936    0.51590    0.46540    1.000
    C617     C        0.70047    0.52264    0.43400    1.000
    H541     H        0.70870    0.50910    0.39390    1.000
    C618     C        0.71932    0.54848    0.46030    1.000
    H542     H        0.74020    0.55280    0.43760    1.000
    C619     C        0.70848    0.56824    0.51930    1.000
    H543     H        0.72210    0.58540    0.53880    1.000
    C620     C        0.67781    0.56267    0.54910    1.000
    H544     H        0.66990    0.57700    0.58790    1.000
    C621     C        0.65747    0.53651    0.52470    1.000
    C622     C        0.62523    0.53200    0.56150    1.000
    C623     C        0.56199    0.47638    0.56800    1.000
    C624     C        0.52979    0.46712    0.60650    1.000
    H545     H        0.52010    0.48670    0.63200    1.000
    H546     H        0.51370    0.45900    0.56830    1.000
    C625     C        0.66546    0.41827    0.53720    1.000
    H547     H        0.67140    0.41780    0.48490    1.000
    C626     C        0.68221    0.39753    0.58550    1.000
    H548     H        0.70020    0.38450    0.56800    1.000
    C627     C        0.67201    0.39624    0.66060    1.000
    C628     C        0.64747    0.41779    0.68120    1.000
    H549     H        0.64000    0.41800    0.73240    1.000
    C629     C        0.63389    0.43831    0.63160    1.000
    H550     H        0.61770    0.45350    0.64930    1.000
    C630     C        0.68830    0.37281    0.71570    1.000
    H551     H        0.69800    0.35400    0.68700    1.000
    H552     H        0.67130    0.36380    0.75060    1.000
    Mn47     Mn       0.57469    0.54573    0.66797    1.000
    O139     O        0.59631    0.52028    0.74160    1.000
    O140     O        0.49592    0.52569    0.81217    1.000
    O141     O        0.54569    0.57068    0.60093    1.000
    N124     N        0.53310    0.53911    0.71980    1.000
    N125     N        0.50552    0.55507    0.68428    1.000
    C631     C        0.58376    0.50357    0.79930    1.000
    C632     C        0.60630    0.48320    0.83970    1.000
    H553     H        0.62870    0.48220    0.82390    1.000
    C633     C        0.59660    0.46570    0.89830    1.000
    H554     H        0.60910    0.44710    0.91470    1.000
    C634     C        0.56770    0.47480    0.93620    1.000
    H555     H        0.56520    0.47270    0.98980    1.000
    C635     C        0.54190    0.48780    0.88760    1.000
    H556     H        0.51910    0.48450    0.89900    1.000
    C636     C        0.55173    0.50529    0.82380    1.000
    C637     C        0.52563    0.52468    0.78360    1.000
    C638     C        0.51542    0.57043    0.62370    1.000
    C639     C        0.48944    0.58815    0.57720    1.000
    H557     H        0.47510    0.57140    0.55260    1.000
    H558     H        0.47540    0.60140    0.61190    1.000
    C640     C        0.50350    0.61110    0.51550    1.000
    H559     H        0.51720    0.59820    0.48020    1.000
    H560     H        0.48520    0.62140    0.48750    1.000
    H561     H        0.51700    0.62840    0.53940    1.000
    Mn48     Mn       0.54078    0.46151    0.25551    1.000
    O142     O        0.54868    0.41935    0.21727    1.000
    O143     O        0.61619    0.43229    0.40094    1.000
    O144     O        0.53859    0.50423    0.30509    1.000
    N126     N        0.57613    0.45671    0.32868    1.000
    N127     N        0.58213    0.48522    0.37310    1.000
    C641     C        0.57074    0.39693    0.23870    1.000
    C642     C        0.57111    0.36668    0.19960    1.000
    H562     H        0.55560    0.36310    0.15970    1.000
    C643     C        0.59340    0.34190    0.21770    1.000
    H563     H        0.59290    0.32150    0.19060    1.000
    C644     C        0.61588    0.34651    0.27360    1.000
    H564     H        0.63190    0.32990    0.28410    1.000
    C645     C        0.61536    0.37534    0.31520    1.000
    H565     H        0.63050    0.37780    0.35620    1.000
    C646     C        0.59335    0.40114    0.29900    1.000
    C647     C        0.59539    0.43084    0.34570    1.000
    C648     C        0.56126    0.50811    0.35630    1.000
    C649     C        0.56442    0.54165    0.39260    1.000
    H566     H        0.54490    0.54570    0.42520    1.000
    H567     H        0.58430    0.54190    0.42550    1.000
    C650     C        0.56710    0.56888    0.33490    1.000
    H568     H        0.58720    0.56570    0.30440    1.000
    H569     H        0.56830    0.59030    0.36110    1.000
    H570     H        0.54760    0.56850    0.30160    1.000
    N128     N        0.76349    0.32408    0.91860    1.000
    C651     C        0.73301    0.31372    0.88970    1.000
    H571     H        0.72540    0.29180    0.89900    1.000
    C652     C        0.71360    0.33560    0.84700    1.000
    H572     H        0.69080    0.33170    0.83770    1.000
    C653     C        0.73090    0.36550    0.81690    1.000
    C654     C        0.75500    0.37430    0.85450    1.000
    H573     H        0.76420    0.39580    0.84850    1.000
    C655     C        0.76810    0.35210    0.90560    1.000
    H574     H        0.78450    0.36170    0.93740    1.000
    C656     C        0.71420    0.38850    0.76040    1.000
    H575     H        0.70450    0.40740    0.78840    1.000
    H576     H        0.73120    0.39740    0.72530    1.000
