data_functionalizedCrystal
_audit_creation_method	'EQeq! by Chris Wilmer'
_symmetry_space_group_name_H-M	'P1'
_symmetry_Int_Tables_number	1
_symmetry_cell_setting	triclinic
loop_
_symmetry_equiv_pos_as_xyz
  x,y,z
_cell_length_a	9.1351
_cell_length_b	17.419
_cell_length_c	15.583
_cell_angle_alpha	90
_cell_angle_beta	90
_cell_angle_gamma	90
loop_
_atom_site_label
_atom_site_type_symbol
_atom_site_fract_x
_atom_site_fract_y
_atom_site_fract_z
_atom_site_charge
Mof_Cd	Cd	7.88585e-33	0.25	0.03918	0.391
Mof_Cd	Cd	1.31277e-32	0.75	0.46082	0.39
Mof_Cd	Cd	-1.42154e-32	0.75	0.96082	0.391
Mof_Cd	Cd	2.38092e-32	0.25	0.53918	0.39
Mof_H 	H 	0.9607	0.421	0.964	0.046
Mof_H 	H 	0.8319	0.4967	0.8691	0.12
Mof_H 	H 	0.6642	0.3041	0.768	0.097
Mof_H 	H 	0.7951	0.2344	0.8668	0.021
Mof_H 	H 	0.6533	0.4385	0.688	0.07
Mof_H 	H 	0.4519	0.4562	0.8295	0.063
Mof_H 	H 	0.5022	0.36	0.633	0.108
Mof_H 	H 	0.3296	0.2876	0.5624	0.023
Mof_H 	H 	0.0217	0.3553	0.72	-0.005
Mof_H 	H 	0.1875	0.4259	0.7981	0.091
Mof_H 	H 	0.0393	0.079	0.964	0.011
Mof_H 	H 	0.1681	0.0033	0.8691	0.108
Mof_H 	H 	0.3358	0.1959	0.768	0.098
Mof_H 	H 	0.2049	0.2656	0.8668	0.012
Mof_H 	H 	0.3467	0.0615	0.688	0.068
Mof_H 	H 	0.5481	0.0438	0.8295	0.065
Mof_H 	H 	0.4978	0.14	0.633	0.108
Mof_H 	H 	0.6704	0.2124	0.5624	0.025
Mof_H 	H 	0.9783	0.1447	0.72	0.038
Mof_H 	H 	0.8125	0.0741	0.7981	0.106
Mof_H 	H 	0.9607	0.579	0.536	0.047
Mof_H 	H 	0.8319	0.5033	0.6309	0.121
Mof_H 	H 	0.6642	0.6959	0.732	0.098
Mof_H 	H 	0.7951	0.7656	0.6332	0.022
Mof_H 	H 	0.6533	0.5615	0.812	0.071
Mof_H 	H 	0.4519	0.5438	0.6705	0.064
Mof_H 	H 	0.5022	0.64	0.867	0.108
Mof_H 	H 	0.3296	0.7124	0.9376	0.023
Mof_H 	H 	0.0217	0.6447	0.78	-0.005
Mof_H 	H 	0.1875	0.5741	0.7019	0.091
Mof_H 	H 	0.0393	0.921	0.536	0.011
Mof_H 	H 	0.1681	0.9967	0.6309	0.108
Mof_H 	H 	0.3358	0.8041	0.732	0.098
Mof_H 	H 	0.2049	0.7344	0.6332	0.012
Mof_H 	H 	0.3467	0.9385	0.812	0.068
Mof_H 	H 	0.5481	0.9562	0.6705	0.065
Mof_H 	H 	0.4978	0.86	0.867	0.108
Mof_H 	H 	0.6704	0.7876	0.9376	0.025
Mof_H 	H 	0.9783	0.8553	0.78	0.038
Mof_H 	H 	0.8125	0.9259	0.7019	0.106
Mof_H 	H 	0.0393	0.579	0.036	0.011
Mof_H 	H 	0.1681	0.5033	0.1309	0.108
Mof_H 	H 	0.3358	0.6959	0.232	0.098
Mof_H 	H 	0.2049	0.7656	0.1332	0.012
Mof_H 	H 	0.3467	0.5615	0.312	0.068
Mof_H 	H 	0.5481	0.5438	0.1705	0.065
Mof_H 	H 	0.4978	0.64	0.367	0.108
Mof_H 	H 	0.6704	0.7124	0.4376	0.025
Mof_H 	H 	0.9783	0.6447	0.28	0.038
Mof_H 	H 	0.8125	0.5741	0.2019	0.106
Mof_H 	H 	0.9607	0.921	0.036	0.046
Mof_H 	H 	0.8319	0.9967	0.1309	0.121
Mof_H 	H 	0.6642	0.8041	0.232	0.098
Mof_H 	H 	0.7951	0.7344	0.1332	0.022
Mof_H 	H 	0.6533	0.9385	0.312	0.071
Mof_H 	H 	0.4519	0.9562	0.1705	0.064
Mof_H 	H 	0.5022	0.86	0.367	0.108
Mof_H 	H 	0.3296	0.7876	0.4376	0.023
Mof_H 	H 	0.0217	0.8553	0.28	-0.005
Mof_H 	H 	0.1875	0.9259	0.2019	0.091
Mof_H 	H 	0.0393	0.421	0.464	0.011
Mof_H 	H 	0.1681	0.4967	0.3691	0.108
Mof_H 	H 	0.3358	0.3041	0.268	0.098
Mof_H 	H 	0.2049	0.2344	0.3668	0.012
Mof_H 	H 	0.3467	0.4385	0.188	0.068
Mof_H 	H 	0.5481	0.4562	0.3295	0.065
Mof_H 	H 	0.4978	0.36	0.133	0.108
Mof_H 	H 	0.6704	0.2876	0.0624	0.025
Mof_H 	H 	0.9783	0.3553	0.22	0.038
Mof_H 	H 	0.8125	0.4259	0.2981	0.107
Mof_H 	H 	0.9607	0.079	0.464	0.047
Mof_H 	H 	0.8319	0.0033	0.3691	0.121
Mof_H 	H 	0.6642	0.1959	0.268	0.098
Mof_H 	H 	0.7951	0.2656	0.3668	0.022
Mof_H 	H 	0.6533	0.0615	0.188	0.071
Mof_H 	H 	0.4519	0.0438	0.3295	0.064
Mof_H 	H 	0.5022	0.14	0.133	0.108
Mof_H 	H 	0.3296	0.2124	0.0624	0.023
Mof_H 	H 	0.0217	0.1447	0.22	-0.005
Mof_H 	H 	0.1875	0.0741	0.2981	0.091
Mof_C 	C 	0.8976	0.39712	0.9246	0.104
Mof_C 	C 	0.8213	0.44304	0.8675	-0.163
Mof_C 	C 	0.7293	0.40922	0.80813	0.124
Mof_C 	C 	0.7227	0.32978	0.8085	-0.16
Mof_C 	C 	0.8016	0.28829	0.8679	0.104
Mof_C 	C 	0.6362	0.45549	0.74781	-0.069
Mof_C 	C 	0.4691	0.45719	0.7668	-0.068
Mof_C 	C 	0.3648	0.4036	0.72248	0.113
Mof_C 	C 	0.4046	0.36027	0.652	-0.171
Mof_C 	C 	0.3002	0.3174	0.6096	0.097
Mof_C 	C 	0.12	0.3565	0.7022	0.094
Mof_C 	C 	0.2184	0.39942	0.7488	-0.169
Mof_C 	C 	0.1024	0.10288	0.9246	0.094
Mof_C 	C 	0.1787	0.05696	0.8675	-0.177
Mof_C 	C 	0.2707	0.09078	0.80813	0.117
Mof_C 	C 	0.2773	0.17022	0.8085	-0.168
Mof_C 	C 	0.1984	0.21171	0.8679	0.093
Mof_C 	C 	0.3638	0.04451	0.74781	-0.071
Mof_C 	C 	0.5309	0.04281	0.7668	-0.067
Mof_C 	C 	0.6352	0.0964	0.72248	0.114
Mof_C 	C 	0.5954	0.13973	0.652	-0.168
Mof_C 	C 	0.6998	0.1826	0.6096	0.098
Mof_C 	C 	0.88	0.1435	0.7022	0.099
Mof_C 	C 	0.7816	0.10058	0.7488	-0.161
Mof_C 	C 	0.8976	0.60288	0.5754	0.104
Mof_C 	C 	0.8213	0.55696	0.6325	-0.163
Mof_C 	C 	0.7293	0.59078	0.69187	0.124
Mof_C 	C 	0.7227	0.67022	0.6915	-0.16
Mof_C 	C 	0.8016	0.71171	0.6321	0.104
Mof_C 	C 	0.6362	0.54451	0.75219	-0.069
Mof_C 	C 	0.4691	0.54281	0.7332	-0.068
Mof_C 	C 	0.3648	0.5964	0.77752	0.113
Mof_C 	C 	0.4046	0.63973	0.848	-0.171
Mof_C 	C 	0.3002	0.6826	0.8904	0.097
Mof_C 	C 	0.12	0.6435	0.7978	0.094
Mof_C 	C 	0.2184	0.60058	0.7512	-0.169
Mof_C 	C 	0.1024	0.89712	0.5754	0.094
Mof_C 	C 	0.1787	0.94304	0.6325	-0.177
Mof_C 	C 	0.2707	0.90922	0.69187	0.117
Mof_C 	C 	0.2773	0.82978	0.6915	-0.168
Mof_C 	C 	0.1984	0.78829	0.6321	0.093
Mof_C 	C 	0.3638	0.95549	0.75219	-0.071
Mof_C 	C 	0.5309	0.95719	0.7332	-0.067
Mof_C 	C 	0.6352	0.9036	0.77752	0.114
Mof_C 	C 	0.5954	0.86027	0.848	-0.168
Mof_C 	C 	0.6998	0.8174	0.8904	0.099
Mof_C 	C 	0.88	0.8565	0.7978	0.099
Mof_C 	C 	0.7816	0.89942	0.7512	-0.161
Mof_C 	C 	0.1024	0.60288	0.0754	0.094
Mof_C 	C 	0.1787	0.55696	0.1325	-0.177
Mof_C 	C 	0.2707	0.59078	0.19187	0.117
Mof_C 	C 	0.2773	0.67022	0.1915	-0.168
Mof_C 	C 	0.1984	0.71171	0.1321	0.093
Mof_C 	C 	0.3638	0.54451	0.25219	-0.071
Mof_C 	C 	0.5309	0.54281	0.2332	-0.067
Mof_C 	C 	0.6352	0.5964	0.27752	0.114
Mof_C 	C 	0.5954	0.63973	0.348	-0.168
Mof_C 	C 	0.6998	0.6826	0.3904	0.099
Mof_C 	C 	0.88	0.6435	0.2978	0.099
Mof_C 	C 	0.7816	0.60058	0.2512	-0.161
Mof_C 	C 	0.8976	0.89712	0.0754	0.104
Mof_C 	C 	0.8213	0.94304	0.1325	-0.163
Mof_C 	C 	0.7293	0.90922	0.19187	0.124
Mof_C 	C 	0.7227	0.82978	0.1915	-0.16
Mof_C 	C 	0.8016	0.78829	0.1321	0.104
Mof_C 	C 	0.6362	0.95549	0.25219	-0.07
Mof_C 	C 	0.4691	0.95719	0.2332	-0.068
Mof_C 	C 	0.3648	0.9036	0.27752	0.113
Mof_C 	C 	0.4046	0.86027	0.348	-0.171
Mof_C 	C 	0.3002	0.8174	0.3904	0.097
Mof_C 	C 	0.12	0.8565	0.2978	0.094
Mof_C 	C 	0.2184	0.89942	0.2512	-0.169
Mof_C 	C 	0.1024	0.39712	0.4246	0.094
Mof_C 	C 	0.1787	0.44304	0.3675	-0.177
Mof_C 	C 	0.2707	0.40922	0.30813	0.117
Mof_C 	C 	0.2773	0.32978	0.3085	-0.168
Mof_C 	C 	0.1984	0.28829	0.3679	0.093
Mof_C 	C 	0.3638	0.45549	0.24781	-0.071
Mof_C 	C 	0.5309	0.45719	0.2668	-0.067
Mof_C 	C 	0.6352	0.4036	0.22248	0.114
Mof_C 	C 	0.5954	0.36027	0.152	-0.168
Mof_C 	C 	0.6998	0.3174	0.1096	0.099
Mof_C 	C 	0.88	0.3565	0.2022	0.099
Mof_C 	C 	0.7816	0.39942	0.2488	-0.161
Mof_C 	C 	0.8976	0.10288	0.4246	0.104
Mof_C 	C 	0.8213	0.05696	0.3675	-0.163
Mof_C 	C 	0.7293	0.09078	0.30813	0.124
Mof_C 	C 	0.7227	0.17022	0.3085	-0.16
Mof_C 	C 	0.8016	0.21171	0.3679	0.104
Mof_C 	C 	0.6362	0.04451	0.24781	-0.069
Mof_C 	C 	0.4691	0.04281	0.2668	-0.068
Mof_C 	C 	0.3648	0.0964	0.22248	0.113
Mof_C 	C 	0.4046	0.13973	0.152	-0.171
Mof_C 	C 	0.3002	0.1826	0.1096	0.097
Mof_C 	C 	0.12	0.1435	0.2022	0.094
Mof_C 	C 	0.2184	0.10058	0.2488	-0.169
Mof_N 	N 	0.8865	0.32107	0.92661	-0.136
Mof_N 	N 	0.1588	0.31626	0.63277	-0.153
Mof_N 	N 	0.1135	0.17893	0.92661	-0.159
Mof_N 	N 	0.8412	0.18374	0.63277	-0.135
Mof_N 	N 	0.8865	0.67893	0.57339	-0.136
Mof_N 	N 	0.1588	0.68374	0.86723	-0.153
Mof_N 	N 	0.1135	0.82107	0.57339	-0.158
Mof_N 	N 	0.8412	0.81626	0.86723	-0.135
Mof_N 	N 	0.1135	0.67893	0.07339	-0.158
Mof_N 	N 	0.8412	0.68374	0.36723	-0.135
Mof_N 	N 	0.8865	0.82107	0.07339	-0.136
Mof_N 	N 	0.1588	0.81626	0.36723	-0.153
Mof_N 	N 	0.1135	0.32107	0.42661	-0.158
Mof_N 	N 	0.8412	0.31626	0.13277	-0.135
Mof_N 	N 	0.8865	0.17893	0.42661	-0.136
Mof_N 	N 	0.1588	0.18374	0.13277	-0.153
Mof_Cl	Cl	0.19519	0.35998	0.04894	-0.388
Mof_Cl	Cl	0.80481	0.14002	0.04894	-0.337
Mof_Cl	Cl	0.19519	0.64002	0.45106	-0.388
Mof_Cl	Cl	0.80481	0.85998	0.45106	-0.337
Mof_Cl	Cl	0.80481	0.64002	0.95106	-0.338
Mof_Cl	Cl	0.19519	0.85998	0.95106	-0.388
Mof_Cl	Cl	0.80481	0.35998	0.54894	-0.337
Mof_Cl	Cl	0.19519	0.14002	0.54894	-0.388
_end
