data_functionalizedCrystal
_audit_creation_method	'EQeq! by Chris Wilmer'
_symmetry_space_group_name_H-M	'P1'
_symmetry_Int_Tables_number	1
_symmetry_cell_setting	triclinic
loop_
_symmetry_equiv_pos_as_xyz
  x,y,z
_cell_length_a	23.362
_cell_length_b	22.491
_cell_length_c	22.738
_cell_angle_alpha	90
_cell_angle_beta	90
_cell_angle_gamma	90
loop_
_atom_site_label
_atom_site_type_symbol
_atom_site_fract_x
_atom_site_fract_y
_atom_site_fract_z
_atom_site_charge
Mof_Co	Co	0.51148	0.61571	0.11014	1.141
Mof_Co	Co	0.52874	0.64602	0.24645	1.139
Mof_O 	O 	0.4865	0.617	0.0067	-0.355
Mof_O 	O 	0.5491	0.5592	0.049	-0.426
Mof_O 	O 	0.6894	0.456	0.9398	-0.502
Mof_O 	O 	0.6746	0.4267	0.8478	-0.419
Mof_O 	O 	0.5222	0.5798	0.7873	-0.241
Mof_O 	O 	0.4509	0.5763	0.5233	-0.321
Mof_O 	O 	0.3031	0.4221	0.4741	-0.439
Mof_O 	O 	0.3051	0.4177	0.3764	-0.464
Mof_O 	O 	0.4998	0.5968	0.3118	-0.481
Mof_O 	O 	0.4457	0.5327	0.2641	-0.467
Mof_O 	O 	0.5422	0.5773	0.1856	-0.638
Mof_C 	C 	0.523	0.5806	0.004	0.375
Mof_C 	C 	0.5466	0.5594	0.944	-0.087
Mof_C 	C 	0.5255	0.5742	0.8957	-0.097
Mof_H 	H 	0.4924	0.5972	0.8964	0.075
Mof_C 	C 	0.5477	0.5588	0.8407	0.181
Mof_C 	C 	0.588	0.5201	0.8381	-0.141
Mof_H 	H 	0.5995	0.5043	0.8022	0.101
Mof_C 	C 	0.6136	0.5025	0.8893	-0.042
Mof_C 	C 	0.5917	0.5209	0.944	-0.008
Mof_H 	H 	0.6075	0.5073	0.979	0.02
Mof_C 	C 	0.6636	0.4571	0.8931	0.36
Mof_C 	C 	0.5537	0.585	0.735	0.132
Mof_H 	H 	0.5599	0.5463	0.7173	0.001
Mof_H 	H 	0.5905	0.6036	0.7423	0
Mof_C 	C 	0.5158	0.625	0.6946	-0.265
Mof_H 	H 	0.4759	0.6219	0.7061	0.126
Mof_H 	H 	0.5274	0.6663	0.698	0.116
Mof_C 	C 	0.5237	0.6031	0.6302	0.085
Mof_H 	H 	0.5628	0.61	0.6175	0.01
Mof_H 	H 	0.516	0.5608	0.6278	0.019
Mof_C 	C 	0.4817	0.6378	0.5901	-0.333
Mof_H 	H 	0.4427	0.6315	0.6037	0.149
Mof_H 	H 	0.4899	0.68	0.5923	0.134
Mof_C 	C 	0.4873	0.6165	0.5261	0.306
Mof_H 	H 	0.4788	0.6483	0.4986	-0.061
Mof_H 	H 	0.5254	0.6013	0.5182	-0.05
Mof_C 	C 	0.4321	0.5511	0.4727	0.227
Mof_C 	C 	0.4548	0.5667	0.419	-0.151
Mof_H 	H 	0.4843	0.5944	0.4169	0.099
Mof_C 	C 	0.4341	0.5412	0.3689	-0.033
Mof_C 	C 	0.3907	0.4998	0.3687	-0.013
Mof_H 	H 	0.3771	0.4845	0.3334	0.051
Mof_C 	C 	0.3673	0.481	0.422	-0.071
Mof_C 	C 	0.3893	0.5086	0.4744	-0.133
Mof_H 	H 	0.3742	0.4975	0.5106	0.099
Mof_C 	C 	0.3246	0.439	0.4249	0.348
Mof_C 	C 	0.4621	0.5577	0.3093	0.382
Mof_Co	Co	0.51148	0.11571	0.61014	1.137
Mof_Co	Co	0.52874	0.14602	0.74645	1.137
Mof_O 	O 	0.4865	0.117	0.5067	-0.364
Mof_O 	O 	0.5491	0.0592	0.549	-0.433
Mof_O 	O 	0.6894	0.956	0.4398	-0.489
Mof_O 	O 	0.6746	0.9267	0.3478	-0.414
Mof_O 	O 	0.5222	0.0798	0.2873	-0.258
Mof_O 	O 	0.4509	0.0763	0.0233	-0.354
Mof_O 	O 	0.3031	0.9221	0.9741	-0.451
Mof_O 	O 	0.3051	0.9177	0.8764	-0.456
Mof_O 	O 	0.4998	0.0968	0.8118	-0.483
Mof_O 	O 	0.4457	0.0327	0.7641	-0.476
Mof_O 	O 	0.5422	0.0773	0.6856	-0.645
Mof_C 	C 	0.523	0.0806	0.504	0.294
Mof_C 	C 	0.5466	0.0594	0.444	0.021
Mof_C 	C 	0.5255	0.0742	0.3957	-0.177
Mof_H 	H 	0.4924	0.0972	0.3964	0.11
Mof_C 	C 	0.5477	0.0588	0.3407	0.224
Mof_C 	C 	0.588	0.0201	0.3381	-0.178
Mof_H 	H 	0.5995	0.0043	0.3022	0.108
Mof_C 	C 	0.6136	0.0025	0.3893	-0.025
Mof_C 	C 	0.5917	0.0209	0.444	-0.063
Mof_H 	H 	0.6075	0.0073	0.479	0.052
Mof_C 	C 	0.6636	0.9571	0.3931	0.368
Mof_C 	C 	0.5537	0.085	0.235	0.162
Mof_H 	H 	0.5599	0.0463	0.2173	-0.012
Mof_H 	H 	0.5905	0.1036	0.2423	-0.009
Mof_C 	C 	0.5158	0.125	0.1946	-0.311
Mof_H 	H 	0.4759	0.1219	0.2061	0.138
Mof_H 	H 	0.5274	0.1663	0.198	0.131
Mof_C 	C 	0.5237	0.1031	0.1302	0.159
Mof_H 	H 	0.5628	0.11	0.1175	-0.009
Mof_H 	H 	0.516	0.0608	0.1278	-0.005
Mof_C 	C 	0.4817	0.1378	0.0901	-0.455
Mof_H 	H 	0.4427	0.1315	0.1037	0.189
Mof_H 	H 	0.4899	0.18	0.0923	0.179
Mof_C 	C 	0.4873	0.1165	0.0261	0.516
Mof_H 	H 	0.4788	0.1483	0.9986	-0.169
Mof_H 	H 	0.5254	0.1013	0.0182	-0.094
Mof_C 	C 	0.4321	0.0511	0.9727	0.27
Mof_C 	C 	0.4548	0.0667	0.919	-0.186
Mof_H 	H 	0.4843	0.0944	0.9169	0.103
Mof_C 	C 	0.4341	0.0412	0.8689	-0.027
Mof_C 	C 	0.3907	0.9998	0.8687	-0.036
Mof_H 	H 	0.3771	0.9845	0.8334	0.063
Mof_C 	C 	0.3673	0.981	0.922	0.022
Mof_C 	C 	0.3893	0.0086	0.9744	-0.35
Mof_H 	H 	0.3742	0.9975	0.0106	0.233
Mof_C 	C 	0.3246	0.939	0.9249	0.308
Mof_C 	C 	0.4621	0.0577	0.8093	0.377
Mof_Co	Co	0.01148	0.61571	0.61014	1.132
Mof_Co	Co	0.02874	0.64602	0.74645	1.13
Mof_O 	O 	0.9865	0.617	0.5067	-0.334
Mof_O 	O 	0.0491	0.5592	0.549	-0.421
Mof_O 	O 	0.1894	0.456	0.4398	-0.488
Mof_O 	O 	0.1746	0.4267	0.3478	-0.413
Mof_O 	O 	0.0222	0.5798	0.2873	-0.28
Mof_O 	O 	0.9509	0.5763	0.0233	-0.35
Mof_O 	O 	0.8031	0.4221	0.9741	-0.457
Mof_O 	O 	0.8051	0.4177	0.8764	-0.46
Mof_O 	O 	0.9998	0.5968	0.8118	-0.471
Mof_O 	O 	0.9457	0.5327	0.7641	-0.46
Mof_O 	O 	0.0422	0.5773	0.6856	-0.646
Mof_C 	C 	0.023	0.5806	0.504	0.248
Mof_C 	C 	0.0466	0.5594	0.444	0.087
Mof_C 	C 	0.0255	0.5742	0.3957	-0.27
Mof_H 	H 	0.9924	0.5972	0.3964	0.156
Mof_C 	C 	0.0477	0.5588	0.3407	0.28
Mof_C 	C 	0.088	0.5201	0.3381	-0.234
Mof_H 	H 	0.0995	0.5043	0.3022	0.132
Mof_C 	C 	0.1136	0.5025	0.3893	0.033
Mof_C 	C 	0.0917	0.5209	0.444	-0.116
Mof_H 	H 	0.1075	0.5073	0.479	0.076
Mof_C 	C 	0.1636	0.4571	0.3931	0.336
Mof_C 	C 	0.0537	0.585	0.235	0.19
Mof_H 	H 	0.0599	0.5463	0.2173	-0.018
Mof_H 	H 	0.0905	0.6036	0.2423	-0.017
Mof_C 	C 	0.0158	0.625	0.1946	-0.358
Mof_H 	H 	0.9759	0.6219	0.2061	0.166
Mof_H 	H 	0.0274	0.6663	0.198	0.141
Mof_C 	C 	0.0237	0.6031	0.1302	0.167
Mof_H 	H 	0.0628	0.61	0.1175	-0.012
Mof_H 	H 	0.016	0.5608	0.1278	-0.009
Mof_C 	C 	0.9817	0.6378	0.0901	-0.461
Mof_H 	H 	0.9427	0.6315	0.1037	0.194
Mof_H 	H 	0.9899	0.68	0.0923	0.186
Mof_C 	C 	0.9873	0.6165	0.0261	0.553
Mof_H 	H 	0.9788	0.6483	0.9986	-0.176
Mof_H 	H 	0.0254	0.6013	0.0182	-0.113
Mof_C 	C 	0.9321	0.5511	0.9727	0.254
Mof_C 	C 	0.9548	0.5667	0.919	-0.179
Mof_H 	H 	0.9843	0.5944	0.9169	0.106
Mof_C 	C 	0.9341	0.5412	0.8689	-0.006
Mof_C 	C 	0.8907	0.4998	0.8687	-0.049
Mof_H 	H 	0.8771	0.4845	0.8334	0.063
Mof_C 	C 	0.8673	0.481	0.922	-0.016
Mof_C 	C 	0.8893	0.5086	0.9744	-0.275
Mof_H 	H 	0.8742	0.4975	0.0106	0.194
Mof_C 	C 	0.8246	0.439	0.9249	0.322
Mof_C 	C 	0.9621	0.5577	0.8093	0.374
Mof_Co	Co	0.01148	0.11571	0.11014	1.132
Mof_Co	Co	0.02874	0.14602	0.24645	1.13
Mof_O 	O 	0.9865	0.117	0.0067	-0.33
Mof_O 	O 	0.0491	0.0592	0.049	-0.426
Mof_O 	O 	0.1894	0.956	0.9398	-0.499
Mof_O 	O 	0.1746	0.9267	0.8478	-0.418
Mof_O 	O 	0.0222	0.0798	0.7873	-0.266
Mof_O 	O 	0.9509	0.0763	0.5233	-0.353
Mof_O 	O 	0.8031	0.9221	0.4741	-0.432
Mof_O 	O 	0.8051	0.9177	0.3764	-0.458
Mof_O 	O 	0.9998	0.0968	0.3118	-0.471
Mof_O 	O 	0.9457	0.0327	0.2641	-0.468
Mof_O 	O 	0.0422	0.0773	0.1856	-0.647
Mof_C 	C 	0.023	0.0806	0.004	0.33
Mof_C 	C 	0.0466	0.0594	0.944	-0.048
Mof_C 	C 	0.0255	0.0742	0.8957	-0.172
Mof_H 	H 	0.9924	0.0972	0.8964	0.112
Mof_C 	C 	0.0477	0.0588	0.8407	0.209
Mof_C 	C 	0.088	0.0201	0.8381	-0.161
Mof_H 	H 	0.0995	0.0043	0.8022	0.1
Mof_C 	C 	0.1136	0.0025	0.8893	-0.048
Mof_C 	C 	0.0917	0.0209	0.944	-0.031
Mof_H 	H 	0.1075	0.0073	0.979	0.021
Mof_C 	C 	0.1636	0.9571	0.8931	0.376
Mof_C 	C 	0.0537	0.085	0.735	0.171
Mof_H 	H 	0.0599	0.0463	0.7173	-0.017
Mof_H 	H 	0.0905	0.1036	0.7423	-0.013
Mof_C 	C 	0.0158	0.125	0.6946	-0.333
Mof_H 	H 	0.9759	0.1219	0.7061	0.157
Mof_H 	H 	0.0274	0.1663	0.698	0.132
Mof_C 	C 	0.0237	0.1031	0.6302	0.116
Mof_H 	H 	0.0628	0.11	0.6175	-0.002
Mof_H 	H 	0.016	0.0608	0.6278	-0.001
Mof_C 	C 	0.9817	0.1378	0.5901	-0.367
Mof_H 	H 	0.9427	0.1315	0.6037	0.16
Mof_H 	H 	0.9899	0.18	0.5923	0.151
Mof_C 	C 	0.9873	0.1165	0.5261	0.386
Mof_H 	H 	0.9788	0.1483	0.4986	-0.082
Mof_H 	H 	0.0254	0.1013	0.5182	-0.089
Mof_C 	C 	0.9321	0.0511	0.4727	0.269
Mof_C 	C 	0.9548	0.0667	0.419	-0.172
Mof_H 	H 	0.9843	0.0944	0.4169	0.111
Mof_C 	C 	0.9341	0.0412	0.3689	-0.036
Mof_C 	C 	0.8907	0.9998	0.3687	-0.01
Mof_H 	H 	0.8771	0.9845	0.3334	0.056
Mof_C 	C 	0.8673	0.981	0.422	-0.025
Mof_C 	C 	0.8893	0.0086	0.4744	-0.217
Mof_H 	H 	0.8742	0.9975	0.5106	0.141
Mof_C 	C 	0.8246	0.939	0.4249	0.332
Mof_C 	C 	0.9621	0.0577	0.3093	0.38
Mof_Co	Co	0.48852	0.38429	0.11014	1.14
Mof_Co	Co	0.47126	0.35398	0.24645	1.138
Mof_O 	O 	0.5135	0.383	0.0067	-0.356
Mof_O 	O 	0.4509	0.4408	0.049	-0.427
Mof_O 	O 	0.3106	0.544	0.9398	-0.503
Mof_O 	O 	0.3254	0.5733	0.8478	-0.42
Mof_O 	O 	0.4778	0.4202	0.7873	-0.241
Mof_O 	O 	0.5491	0.4237	0.5233	-0.321
Mof_O 	O 	0.6969	0.5779	0.4741	-0.439
Mof_O 	O 	0.6949	0.5823	0.3764	-0.464
Mof_O 	O 	0.5002	0.4032	0.3118	-0.481
Mof_O 	O 	0.5543	0.4673	0.2641	-0.467
Mof_O 	O 	0.4578	0.4227	0.1856	-0.638
Mof_C 	C 	0.477	0.4194	0.004	0.375
Mof_C 	C 	0.4534	0.4406	0.944	-0.087
Mof_C 	C 	0.4745	0.4258	0.8957	-0.097
Mof_H 	H 	0.5076	0.4028	0.8964	0.075
Mof_C 	C 	0.4523	0.4412	0.8407	0.181
Mof_C 	C 	0.412	0.4799	0.8381	-0.141
Mof_H 	H 	0.4005	0.4957	0.8022	0.101
Mof_C 	C 	0.3864	0.4975	0.8893	-0.042
Mof_C 	C 	0.4083	0.4791	0.944	-0.008
Mof_H 	H 	0.3925	0.4927	0.979	0.02
Mof_C 	C 	0.3364	0.5429	0.8931	0.36
Mof_C 	C 	0.4463	0.415	0.735	0.132
Mof_H 	H 	0.4401	0.4537	0.7173	0.001
Mof_H 	H 	0.4095	0.3964	0.7423	0
Mof_C 	C 	0.4842	0.375	0.6946	-0.265
Mof_H 	H 	0.5241	0.3781	0.7061	0.126
Mof_H 	H 	0.4726	0.3337	0.698	0.116
Mof_C 	C 	0.4763	0.3969	0.6302	0.085
Mof_H 	H 	0.4372	0.39	0.6175	0.01
Mof_H 	H 	0.484	0.4392	0.6278	0.019
Mof_C 	C 	0.5183	0.3622	0.5901	-0.333
Mof_H 	H 	0.5573	0.3685	0.6037	0.149
Mof_H 	H 	0.5101	0.32	0.5923	0.135
Mof_C 	C 	0.5127	0.3835	0.5261	0.306
Mof_H 	H 	0.5212	0.3517	0.4986	-0.061
Mof_H 	H 	0.4746	0.3987	0.5182	-0.05
Mof_C 	C 	0.5679	0.4489	0.4727	0.227
Mof_C 	C 	0.5452	0.4333	0.419	-0.151
Mof_H 	H 	0.5157	0.4056	0.4169	0.099
Mof_C 	C 	0.5659	0.4588	0.3689	-0.033
Mof_C 	C 	0.6093	0.5002	0.3687	-0.013
Mof_H 	H 	0.6229	0.5155	0.3334	0.051
Mof_C 	C 	0.6327	0.519	0.422	-0.071
Mof_C 	C 	0.6107	0.4914	0.4744	-0.133
Mof_H 	H 	0.6258	0.5025	0.5106	0.099
Mof_C 	C 	0.6754	0.561	0.4249	0.348
Mof_C 	C 	0.5379	0.4423	0.3093	0.382
Mof_Co	Co	0.48852	0.88429	0.61014	1.139
Mof_Co	Co	0.47126	0.85398	0.74645	1.137
Mof_O 	O 	0.5135	0.883	0.5067	-0.357
Mof_O 	O 	0.4509	0.9408	0.549	-0.42
Mof_O 	O 	0.3106	0.044	0.4398	-0.492
Mof_O 	O 	0.3254	0.0733	0.3478	-0.414
Mof_O 	O 	0.4778	0.9202	0.2873	-0.257
Mof_O 	O 	0.5491	0.9237	0.0233	-0.32
Mof_O 	O 	0.6969	0.0779	0.9741	-0.464
Mof_O 	O 	0.6949	0.0823	0.8764	-0.467
Mof_O 	O 	0.5002	0.9032	0.8118	-0.479
Mof_O 	O 	0.5543	0.9673	0.7641	-0.455
Mof_O 	O 	0.4578	0.9227	0.6856	-0.633
Mof_C 	C 	0.477	0.9194	0.504	0.286
Mof_C 	C 	0.4534	0.9406	0.444	0.056
Mof_C 	C 	0.4745	0.9258	0.3957	-0.205
Mof_H 	H 	0.5076	0.9028	0.3964	0.124
Mof_C 	C 	0.4523	0.9412	0.3407	0.258
Mof_C 	C 	0.412	0.9799	0.3381	-0.22
Mof_H 	H 	0.4005	0.9957	0.3022	0.135
Mof_C 	C 	0.3864	0.9975	0.3893	0.043
Mof_C 	C 	0.4083	0.9791	0.444	-0.099
Mof_H 	H 	0.3925	0.9927	0.479	0.078
Mof_C 	C 	0.3364	0.0429	0.3931	0.319
Mof_C 	C 	0.4463	0.915	0.235	0.155
Mof_H 	H 	0.4401	0.9537	0.2173	-0.001
Mof_H 	H 	0.4095	0.8964	0.2423	-0.006
Mof_C 	C 	0.4842	0.875	0.1946	-0.297
Mof_H 	H 	0.5241	0.8781	0.2061	0.139
Mof_H 	H 	0.4726	0.8337	0.198	0.127
Mof_C 	C 	0.4763	0.8969	0.1302	0.139
Mof_H 	H 	0.4372	0.89	0.1175	-0
Mof_H 	H 	0.484	0.9392	0.1278	0.01
Mof_C 	C 	0.5183	0.8622	0.0901	-0.43
Mof_H 	H 	0.5573	0.8685	0.1037	0.184
Mof_H 	H 	0.5101	0.82	0.0923	0.172
Mof_C 	C 	0.5127	0.8835	0.0261	0.481
Mof_H 	H 	0.5212	0.8517	0.9986	-0.157
Mof_H 	H 	0.4746	0.8987	0.0182	-0.078
Mof_C 	C 	0.5679	0.9489	0.9727	0.212
Mof_C 	C 	0.5452	0.9333	0.919	-0.158
Mof_H 	H 	0.5157	0.9056	0.9169	0.095
Mof_C 	C 	0.5659	0.9588	0.8689	-0.002
Mof_C 	C 	0.6093	0.0002	0.8687	-0.054
Mof_H 	H 	0.6229	0.0155	0.8334	0.058
Mof_C 	C 	0.6327	0.019	0.922	-0.063
Mof_C 	C 	0.6107	0.9914	0.9744	-0.187
Mof_H 	H 	0.6258	0.0025	0.0106	0.15
Mof_C 	C 	0.6754	0.061	0.9249	0.339
Mof_C 	C 	0.5379	0.9423	0.8093	0.375
Mof_Co	Co	0.98852	0.38429	0.61014	1.145
Mof_Co	Co	0.97126	0.35398	0.74645	1.144
Mof_O 	O 	0.0135	0.383	0.5067	-0.388
Mof_O 	O 	0.9509	0.4408	0.549	-0.433
Mof_O 	O 	0.8106	0.544	0.4398	-0.492
Mof_O 	O 	0.8254	0.5733	0.3478	-0.416
Mof_O 	O 	0.9778	0.4202	0.2873	-0.233
Mof_O 	O 	0.0491	0.4237	0.0233	-0.321
Mof_O 	O 	0.1969	0.5779	0.9741	-0.459
Mof_O 	O 	0.1949	0.5823	0.8764	-0.463
Mof_O 	O 	0.0002	0.4032	0.8118	-0.491
Mof_O 	O 	0.0543	0.4673	0.7641	-0.471
Mof_O 	O 	0.9578	0.4227	0.6856	-0.633
Mof_C 	C 	0.977	0.4194	0.504	0.335
Mof_C 	C 	0.9534	0.4406	0.444	-0.013
Mof_C 	C 	0.9745	0.4258	0.3957	-0.108
Mof_H 	H 	0.0076	0.4028	0.3964	0.077
Mof_C 	C 	0.9523	0.4412	0.3407	0.198
Mof_C 	C 	0.912	0.4799	0.3381	-0.16
Mof_H 	H 	0.9005	0.4957	0.3022	0.109
Mof_C 	C 	0.8864	0.4975	0.3893	-0.018
Mof_C 	C 	0.9083	0.4791	0.444	-0.043
Mof_H 	H 	0.8925	0.4927	0.479	0.053
Mof_C 	C 	0.8364	0.5429	0.3931	0.353
Mof_C 	C 	0.9463	0.415	0.235	0.125
Mof_H 	H 	0.9401	0.4537	0.2173	0.006
Mof_H 	H 	0.9095	0.3964	0.2423	0.004
Mof_C 	C 	0.9842	0.375	0.1946	-0.246
Mof_H 	H 	0.0241	0.3781	0.2061	0.109
Mof_H 	H 	0.9726	0.3337	0.198	0.116
Mof_C 	C 	0.9763	0.3969	0.1302	0.128
Mof_H 	H 	0.9372	0.39	0.1175	0.003
Mof_H 	H 	0.984	0.4392	0.1278	0.015
Mof_C 	C 	0.0183	0.3622	0.0901	-0.421
Mof_H 	H 	0.0573	0.3685	0.1037	0.178
Mof_H 	H 	0.0101	0.32	0.0923	0.163
Mof_C 	C 	0.0127	0.3835	0.0261	0.438
Mof_H 	H 	0.0212	0.3517	0.9986	-0.147
Mof_H 	H 	0.9746	0.3987	0.0182	-0.056
Mof_C 	C 	0.0679	0.4489	0.9727	0.228
Mof_C 	C 	0.0452	0.4333	0.919	-0.164
Mof_H 	H 	0.0157	0.4056	0.9169	0.092
Mof_C 	C 	0.0659	0.4588	0.8689	-0.022
Mof_C 	C 	0.1093	0.5002	0.8687	-0.041
Mof_H 	H 	0.1229	0.5155	0.8334	0.058
Mof_C 	C 	0.1327	0.519	0.922	-0.026
Mof_C 	C 	0.1107	0.4914	0.9744	-0.262
Mof_H 	H 	0.1258	0.5025	0.0106	0.188
Mof_C 	C 	0.1754	0.561	0.9249	0.325
Mof_C 	C 	0.0379	0.4423	0.8093	0.378
Mof_Co	Co	0.98852	0.88429	0.11014	1.147
Mof_Co	Co	0.97126	0.85398	0.24645	1.145
Mof_O 	O 	0.0135	0.883	0.0067	-0.376
Mof_O 	O 	0.9509	0.9408	0.049	-0.426
Mof_O 	O 	0.8106	0.044	0.9398	-0.506
Mof_O 	O 	0.8254	0.0733	0.8478	-0.421
Mof_O 	O 	0.9778	0.9202	0.7873	-0.219
Mof_O 	O 	0.0491	0.9237	0.5233	-0.29
Mof_O 	O 	0.1969	0.0779	0.4741	-0.447
Mof_O 	O 	0.1949	0.0823	0.3764	-0.472
Mof_O 	O 	0.0002	0.9032	0.3118	-0.487
Mof_O 	O 	0.0543	0.9673	0.2641	-0.458
Mof_O 	O 	0.9578	0.9227	0.1856	-0.624
Mof_C 	C 	0.977	0.9194	0.004	0.408
Mof_C 	C 	0.9534	0.9406	0.944	-0.112
Mof_C 	C 	0.9745	0.9258	0.8957	-0.04
Mof_H 	H 	0.0076	0.9028	0.8964	0.049
Mof_C 	C 	0.9523	0.9412	0.8407	0.161
Mof_C 	C 	0.912	0.9799	0.8381	-0.128
Mof_H 	H 	0.9005	0.9957	0.8022	0.104
Mof_C 	C 	0.8864	0.9975	0.8893	-0.033
Mof_C 	C 	0.9083	0.9791	0.944	0.006
Mof_H 	H 	0.8925	0.9927	0.979	0.023
Mof_C 	C 	0.8364	0.0429	0.8931	0.345
Mof_C 	C 	0.9463	0.915	0.735	0.099
Mof_H 	H 	0.9401	0.9537	0.7173	0.017
Mof_H 	H 	0.9095	0.8964	0.7423	0.011
Mof_C 	C 	0.9842	0.875	0.6946	-0.207
Mof_H 	H 	0.0241	0.8781	0.7061	0.101
Mof_H 	H 	0.9726	0.8337	0.698	0.103
Mof_C 	C 	0.9763	0.8969	0.6302	0.057
Mof_H 	H 	0.9372	0.89	0.6175	0.021
Mof_H 	H 	0.984	0.9392	0.6278	0.037
Mof_C 	C 	0.0183	0.8622	0.5901	-0.302
Mof_H 	H 	0.0573	0.8685	0.6037	0.139
Mof_H 	H 	0.0101	0.82	0.5923	0.12
Mof_C 	C 	0.0127	0.8835	0.5261	0.235
Mof_H 	H 	0.0212	0.8517	0.4986	-0.042
Mof_H 	H 	0.9746	0.8987	0.5182	-0.016
Mof_C 	C 	0.0679	0.9489	0.4727	0.185
Mof_C 	C 	0.0452	0.9333	0.419	-0.13
Mof_H 	H 	0.0157	0.9056	0.4169	0.089
Mof_C 	C 	0.0659	0.9588	0.3689	-0.026
Mof_C 	C 	0.1093	0.0002	0.3687	-0.02
Mof_H 	H 	0.1229	0.0155	0.3334	0.046
Mof_C 	C 	0.1327	0.019	0.422	-0.121
Mof_C 	C 	0.1107	0.9914	0.4744	-0.039
Mof_H 	H 	0.1258	0.0025	0.5106	0.051
Mof_C 	C 	0.1754	0.061	0.4249	0.366
Mof_C 	C 	0.0379	0.9423	0.3093	0.382
Mof_Co	Co	0.76148	0.63429	0.36014	1.138
Mof_Co	Co	0.77874	0.60398	0.49645	1.138
Mof_O 	O 	0.7365	0.633	0.2567	-0.359
Mof_O 	O 	0.7991	0.6908	0.299	-0.426
Mof_O 	O 	0.9394	0.794	0.1898	-0.486
Mof_O 	O 	0.9246	0.8233	0.0978	-0.402
Mof_O 	O 	0.7722	0.6702	0.0373	-0.192
Mof_O 	O 	0.7009	0.6737	0.7733	-0.318
Mof_O 	O 	0.5531	0.8279	0.7241	-0.439
Mof_O 	O 	0.5551	0.8323	0.6264	-0.464
Mof_O 	O 	0.7498	0.6532	0.5618	-0.481
Mof_O 	O 	0.6957	0.7173	0.5141	-0.468
Mof_O 	O 	0.7922	0.6727	0.4356	-0.64
Mof_C 	C 	0.773	0.6694	0.254	0.292
Mof_C 	C 	0.7966	0.6906	0.194	0.034
Mof_C 	C 	0.7755	0.6758	0.1457	-0.181
Mof_H 	H 	0.7424	0.6528	0.1464	0.117
Mof_C 	C 	0.7977	0.6912	0.0907	0.23
Mof_C 	C 	0.838	0.7299	0.0881	-0.189
Mof_H 	H 	0.8495	0.7457	0.0522	0.134
Mof_C 	C 	0.8636	0.7475	0.1393	0.008
Mof_C 	C 	0.8417	0.7291	0.194	-0.078
Mof_H 	H 	0.8575	0.7427	0.229	0.065
Mof_C 	C 	0.9136	0.7929	0.1431	0.344
Mof_C 	C 	0.8037	0.665	0.985	0.04
Mof_H 	H 	0.8099	0.7037	0.9673	0.012
Mof_H 	H 	0.8405	0.6464	0.9923	0.01
Mof_C 	C 	0.7658	0.625	0.9446	-0.214
Mof_H 	H 	0.7259	0.6281	0.9561	0.097
Mof_H 	H 	0.7774	0.5837	0.948	0.094
Mof_C 	C 	0.7737	0.6469	0.8802	0.053
Mof_H 	H 	0.8128	0.64	0.8675	0.019
Mof_H 	H 	0.766	0.6892	0.8778	0.025
Mof_C 	C 	0.7317	0.6122	0.8401	-0.313
Mof_H 	H 	0.6927	0.6185	0.8537	0.141
Mof_H 	H 	0.7399	0.57	0.8423	0.128
Mof_C 	C 	0.7373	0.6335	0.7761	0.293
Mof_H 	H 	0.7288	0.6017	0.7486	-0.057
Mof_H 	H 	0.7754	0.6487	0.7682	-0.046
Mof_C 	C 	0.6821	0.6989	0.7227	0.225
Mof_C 	C 	0.7048	0.6833	0.669	-0.149
Mof_H 	H 	0.7343	0.6556	0.6669	0.098
Mof_C 	C 	0.6841	0.7088	0.6189	-0.035
Mof_C 	C 	0.6407	0.7502	0.6187	-0.012
Mof_H 	H 	0.6271	0.7655	0.5834	0.05
Mof_C 	C 	0.6173	0.769	0.672	-0.072
Mof_C 	C 	0.6393	0.7414	0.7244	-0.131
Mof_H 	H 	0.6242	0.7525	0.7606	0.097
Mof_C 	C 	0.5746	0.811	0.6749	0.349
Mof_C 	C 	0.7121	0.6923	0.5593	0.383
Mof_Co	Co	0.76148	0.13429	0.86014	1.137
Mof_Co	Co	0.77874	0.10398	0.99645	1.116
Mof_O 	O 	0.7365	0.133	0.7567	-0.364
Mof_O 	O 	0.7991	0.1908	0.799	-0.429
Mof_O 	O 	0.9394	0.294	0.6898	-0.487
Mof_O 	O 	0.9246	0.3233	0.5978	-0.411
Mof_O 	O 	0.7722	0.1702	0.5373	-0.254
Mof_O 	O 	0.7009	0.1737	0.2733	-0.321
Mof_O 	O 	0.5531	0.3279	0.2241	-0.438
Mof_O 	O 	0.5551	0.3323	0.1264	-0.458
Mof_O 	O 	0.7498	0.1532	0.0618	-0.455
Mof_O 	O 	0.6957	0.2173	0.0141	-0.432
Mof_O 	O 	0.7922	0.1727	0.9356	-0.658
Mof_C 	C 	0.773	0.1694	0.754	0.292
Mof_C 	C 	0.7966	0.1906	0.694	0.034
Mof_C 	C 	0.7755	0.1758	0.6457	-0.188
Mof_H 	H 	0.7424	0.1528	0.6464	0.115
Mof_C 	C 	0.7977	0.1912	0.5907	0.236
Mof_C 	C 	0.838	0.2299	0.5881	-0.195
Mof_H 	H 	0.8495	0.2457	0.5522	0.12
Mof_C 	C 	0.8636	0.2475	0.6393	0.007
Mof_C 	C 	0.8417	0.2291	0.694	-0.079
Mof_H 	H 	0.8575	0.2427	0.729	0.064
Mof_C 	C 	0.9136	0.2929	0.6431	0.344
Mof_C 	C 	0.8037	0.165	0.485	0.139
Mof_H 	H 	0.8099	0.2037	0.4673	-0.001
Mof_H 	H 	0.8405	0.1464	0.4923	-0.002
Mof_C 	C 	0.7658	0.125	0.4446	-0.265
Mof_H 	H 	0.7259	0.1281	0.4561	0.125
Mof_H 	H 	0.7774	0.0837	0.448	0.113
Mof_C 	C 	0.7737	0.1469	0.3802	0.082
Mof_H 	H 	0.8128	0.14	0.3675	0.01
Mof_H 	H 	0.766	0.1892	0.3778	0.02
Mof_C 	C 	0.7317	0.1122	0.3401	-0.33
Mof_H 	H 	0.6927	0.1185	0.3537	0.147
Mof_H 	H 	0.7399	0.07	0.3423	0.13
Mof_C 	C 	0.7373	0.1335	0.2761	0.304
Mof_H 	H 	0.7288	0.1017	0.2486	-0.061
Mof_H 	H 	0.7754	0.1487	0.2682	-0.05
Mof_C 	C 	0.6821	0.1989	0.2227	0.232
Mof_C 	C 	0.7048	0.1833	0.169	-0.157
Mof_H 	H 	0.7343	0.1556	0.1669	0.102
Mof_C 	C 	0.6841	0.2088	0.1189	-0.022
Mof_C 	C 	0.6407	0.2502	0.1187	-0.021
Mof_H 	H 	0.6271	0.2655	0.0834	0.061
Mof_C 	C 	0.6173	0.269	0.172	-0.064
Mof_C 	C 	0.6393	0.2414	0.2244	-0.137
Mof_H 	H 	0.6242	0.2525	0.2606	0.1
Mof_C 	C 	0.5746	0.311	0.1749	0.345
Mof_C 	C 	0.7121	0.1923	0.0593	0.373
Mof_Co	Co	0.26148	0.63429	0.86014	1.137
Mof_Co	Co	0.27874	0.60398	0.99645	1.117
Mof_O 	O 	0.2365	0.633	0.7567	-0.362
Mof_O 	O 	0.2991	0.6908	0.799	-0.429
Mof_O 	O 	0.4394	0.794	0.6898	-0.491
Mof_O 	O 	0.4246	0.8233	0.5978	-0.415
Mof_O 	O 	0.2722	0.6702	0.5373	-0.254
Mof_O 	O 	0.2009	0.6737	0.2733	-0.322
Mof_O 	O 	0.0531	0.8279	0.2241	-0.443
Mof_O 	O 	0.0551	0.8323	0.1264	-0.463
Mof_O 	O 	0.2498	0.6532	0.0618	-0.453
Mof_O 	O 	0.1957	0.7173	0.0141	-0.433
Mof_O 	O 	0.2922	0.6727	0.9356	-0.659
Mof_C 	C 	0.273	0.6694	0.754	0.292
Mof_C 	C 	0.2966	0.6906	0.694	0.035
Mof_C 	C 	0.2755	0.6758	0.6457	-0.187
Mof_H 	H 	0.2424	0.6528	0.6464	0.116
Mof_C 	C 	0.2977	0.6912	0.5907	0.237
Mof_C 	C 	0.338	0.7299	0.5881	-0.195
Mof_H 	H 	0.3495	0.7457	0.5522	0.12
Mof_C 	C 	0.3636	0.7475	0.6393	0.006
Mof_C 	C 	0.3417	0.7291	0.694	-0.078
Mof_H 	H 	0.3575	0.7427	0.729	0.063
Mof_C 	C 	0.4136	0.7929	0.6431	0.345
Mof_C 	C 	0.3037	0.665	0.485	0.142
Mof_H 	H 	0.3099	0.7037	0.4673	-0.003
Mof_H 	H 	0.3405	0.6464	0.4923	-0.003
Mof_C 	C 	0.2658	0.625	0.4446	-0.27
Mof_H 	H 	0.2259	0.6281	0.4561	0.128
Mof_H 	H 	0.2774	0.5837	0.448	0.118
Mof_C 	C 	0.2737	0.6469	0.3802	0.088
Mof_H 	H 	0.3128	0.64	0.3675	0.009
Mof_H 	H 	0.266	0.6892	0.3778	0.018
Mof_C 	C 	0.2317	0.6122	0.3401	-0.335
Mof_H 	H 	0.1927	0.6185	0.3537	0.149
Mof_H 	H 	0.2399	0.57	0.3423	0.135
Mof_C 	C 	0.2373	0.6335	0.2761	0.306
Mof_H 	H 	0.2288	0.6017	0.2486	-0.059
Mof_H 	H 	0.2754	0.6487	0.2682	-0.05
Mof_C 	C 	0.1821	0.6989	0.2227	0.232
Mof_C 	C 	0.2048	0.6833	0.169	-0.157
Mof_H 	H 	0.2343	0.6556	0.1669	0.103
Mof_C 	C 	0.1841	0.7088	0.1189	-0.022
Mof_C 	C 	0.1407	0.7502	0.1187	-0.021
Mof_H 	H 	0.1271	0.7655	0.0834	0.06
Mof_C 	C 	0.1173	0.769	0.172	-0.066
Mof_C 	C 	0.1393	0.7414	0.2244	-0.137
Mof_H 	H 	0.1242	0.7525	0.2606	0.099
Mof_C 	C 	0.0746	0.811	0.1749	0.346
Mof_C 	C 	0.2121	0.6923	0.0593	0.373
Mof_Co	Co	0.26148	0.13429	0.36014	1.138
Mof_Co	Co	0.27874	0.10398	0.49645	1.136
Mof_O 	O 	0.2365	0.133	0.2567	-0.363
Mof_O 	O 	0.2991	0.1908	0.299	-0.428
Mof_O 	O 	0.4394	0.294	0.1898	-0.491
Mof_O 	O 	0.4246	0.3233	0.0978	-0.406
Mof_O 	O 	0.2722	0.1702	0.0373	-0.192
Mof_O 	O 	0.2009	0.1737	0.7733	-0.317
Mof_O 	O 	0.0531	0.3279	0.7241	-0.447
Mof_O 	O 	0.0551	0.3323	0.6264	-0.472
Mof_O 	O 	0.2498	0.1532	0.5618	-0.483
Mof_O 	O 	0.1957	0.2173	0.5141	-0.47
Mof_O 	O 	0.2922	0.1727	0.4356	-0.641
Mof_C 	C 	0.273	0.1694	0.254	0.293
Mof_C 	C 	0.2966	0.1906	0.194	0.03
Mof_C 	C 	0.2755	0.1758	0.1457	-0.178
Mof_H 	H 	0.2424	0.1528	0.1464	0.114
Mof_C 	C 	0.2977	0.1912	0.0907	0.226
Mof_C 	C 	0.338	0.2299	0.0881	-0.186
Mof_H 	H 	0.3495	0.2457	0.0522	0.133
Mof_C 	C 	0.3636	0.2475	0.1393	0.005
Mof_C 	C 	0.3417	0.2291	0.194	-0.075
Mof_H 	H 	0.3575	0.2427	0.229	0.063
Mof_C 	C 	0.4136	0.2929	0.1431	0.345
Mof_C 	C 	0.3037	0.165	0.985	0.038
Mof_H 	H 	0.3099	0.2037	0.9673	0.013
Mof_H 	H 	0.3405	0.1464	0.9923	0.009
Mof_C 	C 	0.2658	0.125	0.9446	-0.209
Mof_H 	H 	0.2259	0.1281	0.9561	0.094
Mof_H 	H 	0.2774	0.0837	0.948	0.089
Mof_C 	C 	0.2737	0.1469	0.8802	0.048
Mof_H 	H 	0.3128	0.14	0.8675	0.019
Mof_H 	H 	0.266	0.1892	0.8778	0.026
Mof_C 	C 	0.2317	0.1122	0.8401	-0.309
Mof_H 	H 	0.1927	0.1185	0.8537	0.139
Mof_H 	H 	0.2399	0.07	0.8423	0.122
Mof_C 	C 	0.2373	0.1335	0.7761	0.291
Mof_H 	H 	0.2288	0.1017	0.7486	-0.059
Mof_H 	H 	0.2754	0.1487	0.7682	-0.047
Mof_C 	C 	0.1821	0.1989	0.7227	0.223
Mof_C 	C 	0.2048	0.1833	0.669	-0.147
Mof_H 	H 	0.2343	0.1556	0.6669	0.096
Mof_C 	C 	0.1841	0.2088	0.6189	-0.037
Mof_C 	C 	0.1407	0.2502	0.6187	-0.01
Mof_H 	H 	0.1271	0.2655	0.5834	0.048
Mof_C 	C 	0.1173	0.269	0.672	-0.076
Mof_C 	C 	0.1393	0.2414	0.7244	-0.129
Mof_H 	H 	0.1242	0.2525	0.7606	0.095
Mof_C 	C 	0.0746	0.311	0.6749	0.35
Mof_C 	C 	0.2121	0.1923	0.5593	0.384
Mof_Co	Co	0.73852	0.86571	0.36014	1.138
Mof_Co	Co	0.72126	0.89602	0.49645	1.14
Mof_O 	O 	0.7635	0.867	0.2567	-0.356
Mof_O 	O 	0.7009	0.8092	0.299	-0.426
Mof_O 	O 	0.5606	0.706	0.1898	-0.49
Mof_O 	O 	0.5754	0.6767	0.0978	-0.406
Mof_O 	O 	0.7278	0.8298	0.0373	-0.192
Mof_O 	O 	0.7991	0.8263	0.7733	-0.319
Mof_O 	O 	0.9469	0.6721	0.7241	-0.433
Mof_O 	O 	0.9449	0.6677	0.6264	-0.457
Mof_O 	O 	0.7502	0.8468	0.5618	-0.479
Mof_O 	O 	0.8043	0.7827	0.5141	-0.467
Mof_O 	O 	0.7078	0.8273	0.4356	-0.64
Mof_C 	C 	0.727	0.8306	0.254	0.291
Mof_C 	C 	0.7034	0.8094	0.194	0.035
Mof_C 	C 	0.7245	0.8242	0.1457	-0.181
Mof_H 	H 	0.7576	0.8472	0.1464	0.119
Mof_C 	C 	0.7023	0.8088	0.0907	0.231
Mof_C 	C 	0.662	0.7701	0.0881	-0.189
Mof_H 	H 	0.6505	0.7543	0.0522	0.134
Mof_C 	C 	0.6364	0.7525	0.1393	0.008
Mof_C 	C 	0.6583	0.7709	0.194	-0.078
Mof_H 	H 	0.6425	0.7573	0.229	0.064
Mof_C 	C 	0.5864	0.7071	0.1431	0.344
Mof_C 	C 	0.6963	0.835	0.985	0.044
Mof_H 	H 	0.6901	0.7963	0.9673	0.011
Mof_H 	H 	0.6595	0.8536	0.9923	0.009
Mof_C 	C 	0.7342	0.875	0.9446	-0.22
Mof_H 	H 	0.7741	0.8719	0.9561	0.1
Mof_H 	H 	0.7226	0.9163	0.948	0.1
Mof_C 	C 	0.7263	0.8531	0.8802	0.059
Mof_H 	H 	0.6872	0.86	0.8675	0.018
Mof_H 	H 	0.734	0.8108	0.8778	0.023
Mof_C 	C 	0.7683	0.8878	0.8401	-0.318
Mof_H 	H 	0.8073	0.8815	0.8537	0.143
Mof_H 	H 	0.7601	0.93	0.8423	0.134
Mof_C 	C 	0.7627	0.8665	0.7761	0.296
Mof_H 	H 	0.7712	0.8983	0.7486	-0.055
Mof_H 	H 	0.7246	0.8513	0.7682	-0.046
Mof_C 	C 	0.8179	0.8011	0.7227	0.226
Mof_C 	C 	0.7952	0.8167	0.669	-0.15
Mof_H 	H 	0.7657	0.8444	0.6669	0.1
Mof_C 	C 	0.8159	0.7912	0.6189	-0.033
Mof_C 	C 	0.8593	0.7498	0.6187	-0.013
Mof_H 	H 	0.8729	0.7345	0.5834	0.052
Mof_C 	C 	0.8827	0.731	0.672	-0.069
Mof_C 	C 	0.8607	0.7586	0.7244	-0.133
Mof_H 	H 	0.8758	0.7475	0.7606	0.098
Mof_C 	C 	0.9254	0.689	0.6749	0.348
Mof_C 	C 	0.7879	0.8077	0.5593	0.382
Mof_Co	Co	0.73852	0.36571	0.86014	1.137
Mof_Co	Co	0.72126	0.39602	0.99645	1.117
Mof_O 	O 	0.7635	0.367	0.7567	-0.361
Mof_O 	O 	0.7009	0.3092	0.799	-0.429
Mof_O 	O 	0.5606	0.206	0.6898	-0.491
Mof_O 	O 	0.5754	0.1767	0.5978	-0.415
Mof_O 	O 	0.7278	0.3298	0.5373	-0.253
Mof_O 	O 	0.7991	0.3263	0.2733	-0.322
Mof_O 	O 	0.9469	0.1721	0.2241	-0.431
Mof_O 	O 	0.9449	0.1677	0.1264	-0.451
Mof_O 	O 	0.7502	0.3468	0.0618	-0.453
Mof_O 	O 	0.8043	0.2827	0.0141	-0.431
Mof_O 	O 	0.7078	0.3273	0.9356	-0.659
Mof_C 	C 	0.727	0.3306	0.754	0.292
Mof_C 	C 	0.7034	0.3094	0.694	0.036
Mof_C 	C 	0.7245	0.3242	0.6457	-0.188
Mof_H 	H 	0.7576	0.3472	0.6464	0.116
Mof_C 	C 	0.7023	0.3088	0.5907	0.237
Mof_C 	C 	0.662	0.2701	0.5881	-0.195
Mof_H 	H 	0.6505	0.2543	0.5522	0.119
Mof_C 	C 	0.6364	0.2525	0.6393	0.006
Mof_C 	C 	0.6583	0.2709	0.694	-0.078
Mof_H 	H 	0.6425	0.2573	0.729	0.063
Mof_C 	C 	0.5864	0.2071	0.6431	0.345
Mof_C 	C 	0.6963	0.335	0.485	0.142
Mof_H 	H 	0.6901	0.2963	0.4673	-0.003
Mof_H 	H 	0.6595	0.3536	0.4923	-0.003
Mof_C 	C 	0.7342	0.375	0.4446	-0.271
Mof_H 	H 	0.7741	0.3719	0.4561	0.129
Mof_H 	H 	0.7226	0.4163	0.448	0.119
Mof_C 	C 	0.7263	0.3531	0.3802	0.088
Mof_H 	H 	0.6872	0.36	0.3675	0.009
Mof_H 	H 	0.734	0.3108	0.3778	0.018
Mof_C 	C 	0.7683	0.3878	0.3401	-0.335
Mof_H 	H 	0.8073	0.3815	0.3537	0.15
Mof_H 	H 	0.7601	0.43	0.3423	0.135
Mof_C 	C 	0.7627	0.3665	0.2761	0.307
Mof_H 	H 	0.7712	0.3983	0.2486	-0.06
Mof_H 	H 	0.7246	0.3513	0.2682	-0.05
Mof_C 	C 	0.8179	0.3011	0.2227	0.233
Mof_C 	C 	0.7952	0.3167	0.169	-0.159
Mof_H 	H 	0.7657	0.3444	0.1669	0.104
Mof_C 	C 	0.8159	0.2912	0.1189	-0.02
Mof_C 	C 	0.8593	0.2498	0.1187	-0.022
Mof_H 	H 	0.8729	0.2345	0.0834	0.063
Mof_C 	C 	0.8827	0.231	0.172	-0.061
Mof_C 	C 	0.8607	0.2586	0.2244	-0.139
Mof_H 	H 	0.8758	0.2475	0.2606	0.102
Mof_C 	C 	0.9254	0.189	0.1749	0.344
Mof_C 	C 	0.7879	0.3077	0.0593	0.372
Mof_Co	Co	0.23852	0.86571	0.86014	1.137
Mof_Co	Co	0.22126	0.89602	0.99645	1.119
Mof_O 	O 	0.2635	0.867	0.7567	-0.359
Mof_O 	O 	0.2009	0.8092	0.799	-0.429
Mof_O 	O 	0.0606	0.706	0.6898	-0.495
Mof_O 	O 	0.0754	0.6767	0.5978	-0.418
Mof_O 	O 	0.2278	0.8298	0.5373	-0.253
Mof_O 	O 	0.2991	0.8263	0.2733	-0.323
Mof_O 	O 	0.4469	0.6721	0.2241	-0.438
Mof_O 	O 	0.4449	0.6677	0.1264	-0.458
Mof_O 	O 	0.2502	0.8468	0.0618	-0.452
Mof_O 	O 	0.3043	0.7827	0.0141	-0.432
Mof_O 	O 	0.2078	0.8273	0.9356	-0.659
Mof_C 	C 	0.227	0.8306	0.754	0.291
Mof_C 	C 	0.2034	0.8094	0.694	0.037
Mof_C 	C 	0.2245	0.8242	0.6457	-0.188
Mof_H 	H 	0.2576	0.8472	0.6464	0.118
Mof_C 	C 	0.2023	0.8088	0.5907	0.238
Mof_C 	C 	0.162	0.7701	0.5881	-0.195
Mof_H 	H 	0.1505	0.7543	0.5522	0.119
Mof_C 	C 	0.1364	0.7525	0.6393	0.006
Mof_C 	C 	0.1583	0.7709	0.694	-0.078
Mof_H 	H 	0.1425	0.7573	0.729	0.062
Mof_C 	C 	0.0864	0.7071	0.6431	0.346
Mof_C 	C 	0.1963	0.835	0.485	0.146
Mof_H 	H 	0.1901	0.7963	0.4673	-0.004
Mof_H 	H 	0.1595	0.8536	0.4923	-0.003
Mof_C 	C 	0.2342	0.875	0.4446	-0.277
Mof_H 	H 	0.2741	0.8719	0.4561	0.131
Mof_H 	H 	0.2226	0.9163	0.448	0.125
Mof_C 	C 	0.2263	0.8531	0.3802	0.094
Mof_H 	H 	0.1872	0.86	0.3675	0.008
Mof_H 	H 	0.234	0.8108	0.3778	0.016
Mof_C 	C 	0.2683	0.8878	0.3401	-0.34
Mof_H 	H 	0.3073	0.8815	0.3537	0.152
Mof_H 	H 	0.2601	0.93	0.3423	0.142
Mof_C 	C 	0.2627	0.8665	0.2761	0.309
Mof_H 	H 	0.2712	0.8983	0.2486	-0.058
Mof_H 	H 	0.2246	0.8513	0.2682	-0.049
Mof_C 	C 	0.3179	0.8011	0.2227	0.234
Mof_C 	C 	0.2952	0.8167	0.169	-0.159
Mof_H 	H 	0.2657	0.8444	0.1669	0.105
Mof_C 	C 	0.3159	0.7912	0.1189	-0.02
Mof_C 	C 	0.3593	0.7498	0.1187	-0.022
Mof_H 	H 	0.3729	0.7345	0.0834	0.062
Mof_C 	C 	0.3827	0.731	0.172	-0.063
Mof_C 	C 	0.3607	0.7586	0.2244	-0.139
Mof_H 	H 	0.3758	0.7475	0.2606	0.101
Mof_C 	C 	0.4254	0.689	0.1749	0.345
Mof_C 	C 	0.2879	0.8077	0.0593	0.372
Mof_Co	Co	0.23852	0.36571	0.36014	1.138
Mof_Co	Co	0.22126	0.39602	0.49645	1.138
Mof_O 	O 	0.2635	0.367	0.2567	-0.36
Mof_O 	O 	0.2009	0.3092	0.299	-0.428
Mof_O 	O 	0.0606	0.206	0.1898	-0.495
Mof_O 	O 	0.0754	0.1767	0.0978	-0.41
Mof_O 	O 	0.2278	0.3298	0.0373	-0.192
Mof_O 	O 	0.2991	0.3263	0.7733	-0.318
Mof_O 	O 	0.4469	0.1721	0.7241	-0.44
Mof_O 	O 	0.4449	0.1677	0.6264	-0.466
Mof_O 	O 	0.2502	0.3468	0.5618	-0.481
Mof_O 	O 	0.3043	0.2827	0.5141	-0.469
Mof_O 	O 	0.2078	0.3273	0.4356	-0.641
Mof_C 	C 	0.227	0.3306	0.254	0.293
Mof_C 	C 	0.2034	0.3094	0.194	0.031
Mof_C 	C 	0.2245	0.3242	0.1457	-0.178
Mof_H 	H 	0.2576	0.3472	0.1464	0.116
Mof_C 	C 	0.2023	0.3088	0.0907	0.228
Mof_C 	C 	0.162	0.2701	0.0881	-0.186
Mof_H 	H 	0.1505	0.2543	0.0522	0.132
Mof_C 	C 	0.1364	0.2525	0.1393	0.004
Mof_C 	C 	0.1583	0.2709	0.194	-0.075
Mof_H 	H 	0.1425	0.2573	0.229	0.062
Mof_C 	C 	0.0864	0.2071	0.1431	0.346
Mof_C 	C 	0.1963	0.335	0.985	0.041
Mof_H 	H 	0.1901	0.2963	0.9673	0.011
Mof_H 	H 	0.1595	0.3536	0.9923	0.009
Mof_C 	C 	0.2342	0.375	0.9446	-0.215
Mof_H 	H 	0.2741	0.3719	0.9561	0.097
Mof_H 	H 	0.2226	0.4163	0.948	0.095
Mof_C 	C 	0.2263	0.3531	0.8802	0.054
Mof_H 	H 	0.1872	0.36	0.8675	0.018
Mof_H 	H 	0.234	0.3108	0.8778	0.024
Mof_C 	C 	0.2683	0.3878	0.8401	-0.314
Mof_H 	H 	0.3073	0.3815	0.8537	0.141
Mof_H 	H 	0.2601	0.43	0.8423	0.128
Mof_C 	C 	0.2627	0.3665	0.7761	0.294
Mof_H 	H 	0.2712	0.3983	0.7486	-0.057
Mof_H 	H 	0.2246	0.3513	0.7682	-0.047
Mof_C 	C 	0.3179	0.3011	0.7227	0.224
Mof_C 	C 	0.2952	0.3167	0.669	-0.148
Mof_H 	H 	0.2657	0.3444	0.6669	0.098
Mof_C 	C 	0.3159	0.2912	0.6189	-0.035
Mof_C 	C 	0.3593	0.2498	0.6187	-0.011
Mof_H 	H 	0.3729	0.2345	0.5834	0.049
Mof_C 	C 	0.3827	0.231	0.672	-0.073
Mof_C 	C 	0.3607	0.2586	0.7244	-0.131
Mof_H 	H 	0.3758	0.2475	0.7606	0.096
Mof_C 	C 	0.4254	0.189	0.6749	0.349
Mof_C 	C 	0.2879	0.3077	0.5593	0.383
Mof_Co	Co	0.5	0.5	0.19978	1.108
Mof_Co	Co	0.5	8.45161e-33	0.69978	1.097
Mof_Co	Co	2.55367e-33	0.5	0.69978	1.099
Mof_Co	Co	7.29048e-34	0	0.19978	1.091
Mof_Co	Co	0.75	0.75	0.44978	1.107
Mof_Co	Co	0.75	0.25	0.94978	1.085
Mof_Co	Co	0.25	0.75	0.94978	1.085
Mof_Co	Co	0.25	0.25	0.44978	1.106
_end
