data_functionalizedCrystal
_audit_creation_method	'EQeq! by Chris Wilmer'
_symmetry_space_group_name_H-M	'P1'
_symmetry_Int_Tables_number	1
_symmetry_cell_setting	triclinic
loop_
_symmetry_equiv_pos_as_xyz
  x,y,z
_cell_length_a	9.4806
_cell_length_b	18.127
_cell_length_c	18.693
_cell_angle_alpha	61.88
_cell_angle_beta	83.98
_cell_angle_gamma	86.35
loop_
_atom_site_label
_atom_site_type_symbol
_atom_site_fract_x
_atom_site_fract_y
_atom_site_fract_z
_atom_site_charge
Mof_Zn	Zn	0.34168	0.08069	0.64248	1.221
Mof_Zn	Zn	0.51099	0.50034	0.74484	1.207
Mof_Zn	Zn	0.65832	0.91931	0.35752	1.221
Mof_Zn	Zn	0.64357	0.07187	0.12946	1.219
Mof_Zn	Zn	0.35643	0.92813	0.87054	1.219
Mof_Zn	Zn	0.48901	0.49966	0.25516	1.207
Mof_H 	H 	0.1142	0.0446	0.895	0.061
Mof_H 	H 	0.4329	0.5931	0.498	0.314
Mof_H 	H 	0.8252	0.8935	0.5897	0.046
Mof_H 	H 	0.064	0.8602	0.5954	0.031
Mof_H 	H 	0.2689	0.429	0.6958	0.037
Mof_H 	H 	0.7644	0.316	0.5474	0.045
Mof_H 	H 	0.457	0.2625	0.1754	-0
Mof_H 	H 	0.098	0.209	0.9438	0.07
Mof_H 	H 	0.2677	0.9964	0.3911	0.064
Mof_H 	H 	0.4787	0.7285	0.3267	-0.003
Mof_H 	H 	0.2689	0.1917	0.0424	0.042
Mof_H 	H 	0.0372	0.6161	0.8425	0.03
Mof_H 	H 	0.4688	0.3436	0.4968	0.319
Mof_H 	H 	0.3793	0.2397	0.0611	0.036
Mof_H 	H 	0.4583	0.4392	0.4355	0.296
Mof_H 	H 	0.692	0.0528	0.8835	0.053
Mof_H 	H 	0.9628	0.3839	0.1575	0.03
Mof_H 	H 	0.5087	0.9119	0.5919	0.028
Mof_H 	H 	0.0835	0.214	0.2031	0.03
Mof_H 	H 	0.1074	0.338	0.6983	0.035
Mof_H 	H 	0.7908	0.6867	0.9064	0.091
Mof_H 	H 	0.308	0.9472	0.1165	0.053
Mof_H 	H 	0.9059	0.7095	0.9469	0.081
Mof_H 	H 	0.2092	0.3133	0.0936	0.091
Mof_H 	H 	0.1748	0.1065	0.4103	0.046
Mof_H 	H 	0.5213	0.2715	0.6733	-0.003
Mof_H 	H 	0.1389	0.7326	0.8741	0.291
Mof_H 	H 	0.6207	0.7603	0.9389	0.036
Mof_H 	H 	0.0168	0.277	0.3953	0.068
Mof_H 	H 	0.0248	0.7708	0.3399	0.321
Mof_H 	H 	0.809	0.2049	0.2159	0.292
Mof_H 	H 	0.6711	0.3164	0.8421	-0.003
Mof_H 	H 	0.9165	0.786	0.7969	0.03
Mof_H 	H 	0.0605	0.1663	0.7329	0.311
Mof_H 	H 	0.9752	0.2292	0.6601	0.321
Mof_H 	H 	0.2603	0.8256	0.4763	0.092
Mof_H 	H 	0.5671	0.4069	0.502	0.315
Mof_H 	H 	0.4913	0.0881	0.4081	0.028
Mof_H 	H 	0.8604	0.7817	0.3534	0.303
Mof_H 	H 	0.107	0.7225	0.4846	0.036
Mof_H 	H 	0.936	0.1398	0.4046	0.031
Mof_H 	H 	0.7792	0.0609	0.3815	0.068
Mof_H 	H 	0.216	0.1629	0.1917	0.048
Mof_H 	H 	0.9012	0.6921	0.7363	0.045
Mof_H 	H 	0.7703	0.178	0.6707	0.028
Mof_H 	H 	0.6946	0.1026	0.6728	0.028
Mof_H 	H 	0.7491	0.4422	0.175	0.037
Mof_H 	H 	0.543	0.7375	0.8246	-0
Mof_H 	H 	0.4591	0.5546	0.0787	0.313
Mof_H 	H 	0.4378	0.4033	0.0005	0.334
Mof_H 	H 	0.4605	0.1054	0.9102	0.026
Mof_H 	H 	0.2509	0.5578	0.825	0.037
Mof_H 	H 	0.2208	0.9391	0.6185	0.068
Mof_H 	H 	0.7212	0.2176	0.1443	0.276
Mof_H 	H 	0.7397	0.1744	0.5237	0.092
Mof_H 	H 	0.8858	0.9554	0.105	0.062
Mof_H 	H 	0.2788	0.7824	0.8557	0.276
Mof_H 	H 	0.5622	0.5967	0.9995	0.334
Mof_H 	H 	0.0142	0.2315	0.8237	0.026
Mof_H 	H 	0.5312	0.6564	0.5032	0.319
Mof_H 	H 	0.902	0.791	0.0562	0.07
Mof_H 	H 	0.5603	0.3504	0.9827	0.336
Mof_H 	H 	0.893	0.2775	0.5154	0.036
Mof_H 	H 	0.1055	0.9002	0.0908	0.028
Mof_H 	H 	0.9832	0.723	0.6047	0.068
Mof_H 	H 	0.5409	0.4454	0.9213	0.313
Mof_H 	H 	0.5417	0.5608	0.5645	0.296
Mof_H 	H 	0.9858	0.7685	0.1763	0.026
Mof_H 	H 	0.3834	0.7889	0.439	0.082
Mof_H 	H 	0.1396	0.2183	0.6466	0.303
Mof_H 	H 	0.9395	0.8337	0.2671	0.311
Mof_H 	H 	0.8945	0.0998	0.9092	0.028
Mof_H 	H 	0.7311	0.571	0.3042	0.037
Mof_H 	H 	0.0941	0.2905	0.0531	0.081
Mof_H 	H 	0.2356	0.684	0.4526	0.045
Mof_H 	H 	0.6166	0.2111	0.561	0.082
Mof_H 	H 	0.0988	0.3079	0.2637	0.045
Mof_H 	H 	0.7323	0.0036	0.6089	0.064
Mof_H 	H 	0.3571	0.3212	0.3565	0
Mof_H 	H 	0.784	0.8371	0.8083	0.048
Mof_H 	H 	0.4397	0.6496	0.0173	0.336
Mof_H 	H 	0.3054	0.8974	0.3272	0.028
Mof_H 	H 	0.8926	0.662	0.3017	0.035
Mof_H 	H 	0.8611	0.2674	0.1259	0.291
Mof_H 	H 	0.3289	0.6836	0.1579	-0.003
Mof_H 	H 	0.2974	0.0557	0.1496	0.056
Mof_H 	H 	0.191	0.7951	0.7841	0.292
Mof_H 	H 	0.2297	0.822	0.3293	0.028
Mof_H 	H 	0.7026	0.9443	0.8504	0.056
Mof_H 	H 	0.7311	0.8083	0.9576	0.042
Mof_H 	H 	0.5395	0.8946	0.0898	0.026
Mof_H 	H 	0.6429	0.6788	0.6435	0
Mof_C 	C 	0.3886	0.2821	0.3393	0.077
Mof_C 	C 	0.1329	0.2523	0.8943	-0.102
Mof_C 	C 	0.6591	0.3897	0.6808	0.398
Mof_C 	C 	0.8849	0.9256	0.6	-0.034
Mof_C 	C 	0.5955	0.6946	0.7434	-0.175
Mof_C 	C 	0.5325	0.8577	0.6296	0.081
Mof_C 	C 	0.3653	0.3942	0.193	0.375
Mof_C 	C 	0.4167	0.12	0.7661	0.431
Mof_C 	C 	0.4675	0.1423	0.3704	0.081
Mof_C 	C 	0.6096	0.8261	0.5142	0.344
Mof_C 	C 	0.4045	0.3054	0.2566	-0.175
Mof_C 	C 	0.8759	0.0486	0.3822	-0.127
Mof_C 	C 	0.0714	0.6251	0.7906	-0.023
Mof_C 	C 	0.9286	0.3749	0.2094	-0.023
Mof_C 	C 	0.7185	0.2021	0.5572	-0.174
Mof_C 	C 	0.9597	0.0405	0.1327	0.048
Mof_C 	C 	0.0306	0.1237	0.655	0.358
Mof_C 	C 	0.8682	0.8061	0.8329	-0.006
Mof_C 	C 	0.0811	0.0702	0.145	0.053
Mof_C 	C 	0.3767	0.7179	0.1714	0.089
Mof_C 	C 	0.2346	0.3045	0.8911	0.073
Mof_C 	C 	0.176	0.2691	0.0846	-0.172
Mof_C 	C 	0.4986	0.1553	0.8694	0.087
Mof_C 	C 	0.5514	0.7531	0.7693	0.096
Mof_C 	C 	0.6233	0.2821	0.8286	0.089
Mof_C 	C 	0.01	0.3276	0.2738	-0.026
Mof_C 	C 	0.1318	0.1939	0.1671	-0.006
Mof_C 	C 	0.3976	0.692	0.2523	-0.199
Mof_C 	C 	0.5197	0.8348	0.7133	-0.184
Mof_C 	C 	0.3957	0.8255	0.0233	0.349
Mof_C 	C 	0.8977	0.1468	0.1527	0.328
Mof_C 	C 	0.9028	0.0573	0.8944	-0.008
Mof_C 	C 	0.5291	0.1023	0.2592	0.43
Mof_C 	C 	0.6347	0.6058	0.807	0.375
Mof_C 	C 	0.1241	0.9514	0.6178	-0.127
Mof_C 	C 	0.5833	0.88	0.2339	0.431
Mof_C 	C 	0.0534	0.19	0.6754	-0.967
Mof_C 	C 	0.1151	0.0744	0.4	-0.034
Mof_C 	C 	0.7097	0.7544	0.9625	0.005
Mof_C 	C 	0.791	0.2862	0.5163	-0.003
Mof_C 	C 	0.815	0.2152	0.1604	-0.89
Mof_C 	C 	0.7792	0.0277	0.8796	-0.044
Mof_C 	C 	0.1386	0.3313	0.7466	-0.032
Mof_C 	C 	0.4486	0.2469	0.2307	0.096
Mof_C 	C 	0.1993	0.5914	0.7809	-0.101
Mof_C 	C 	0.5197	0.8204	0.2123	-0.183
Mof_C 	C 	0.7655	0.1451	0.6425	0.008
Mof_C 	C 	0.97	0.0946	0.3968	-0.007
Mof_C 	C 	0.9466	0.81	0.3246	-0.967
Mof_C 	C 	0.2208	0.9723	0.1204	-0.044
Mof_C 	C 	0.0403	0.9595	0.8673	0.048
Mof_C 	C 	0.0768	0.9639	0.373	0.052
Mof_C 	C 	0.0842	0.2658	0.8227	-0.016
Mof_C 	C 	0.8614	0.6687	0.2534	-0.032
Mof_C 	C 	0.6024	0.308	0.7477	-0.199
Mof_C 	C 	0.2883	0.3705	0.8176	0.034
Mof_C 	C 	0.4267	0.7948	0.1103	-0.147
Mof_C 	C 	0.5804	0.7999	0.6034	-0.144
Mof_C 	C 	0.2367	0.3842	0.7449	-0.088
Mof_C 	C 	0.3409	0.6103	0.3192	0.398
Mof_C 	C 	0.7499	0.3905	0.2985	0.035
Mof_C 	C 	0.9626	0.3093	0.352	-0.093
Mof_C 	C 	0.5077	0.6051	0.0414	-0.986
Mof_C 	C 	0.209	0.7138	0.4837	-0.003
Mof_C 	C 	0.5216	0.3941	0.4658	-0.936
Mof_C 	C 	0.03	0.9054	0.6032	-0.007
Mof_C 	C 	0.0972	0.9427	0.1056	-0.008
Mof_C 	C 	0.2165	0.0363	0.1401	-0.076
Mof_C 	C 	0.1023	0.8532	0.8473	0.328
Mof_C 	C 	0.1716	0.6585	0.6362	0.062
Mof_C 	C 	0.9672	0.9757	0.113	-0.128
Mof_C 	C 	0.9189	0.9298	0.855	0.053
Mof_C 	C 	0.4803	0.1796	0.7877	-0.183
Mof_C 	C 	0.4803	0.1652	0.2867	-0.184
Mof_C 	C 	0.9325	0.9839	0.3689	0.06
Mof_C 	C 	0.9694	0.8763	0.345	0.358
Mof_C 	C 	0.1713	0.0096	0.3887	-0.08
Mof_C 	C 	0.6032	0.6273	0.0855	0.354
Mof_C 	C 	0.4784	0.6059	0.5342	-0.936
Mof_C 	C 	0.3686	0.6176	0.5917	0.337
Mof_C 	C 	0.99	0.6724	0.7262	-0.026
Mof_C 	C 	0.0675	0.0161	0.6311	0.06
Mof_C 	C 	0.0374	0.6907	0.648	-0.093
Mof_C 	C 	0.8671	0.7477	0.1057	-0.102
Mof_C 	C 	0.9158	0.7342	0.1773	-0.016
Mof_C 	C 	0.4674	0.7447	0.2724	0.112
Mof_C 	C 	0.6314	0.3824	0.4083	0.337
Mof_C 	C 	0.7117	0.6295	0.1824	0.034
Mof_C 	C 	0.6114	0.7179	0.6607	0.077
Mof_C 	C 	0.3904	0.1739	0.4858	0.344
Mof_C 	C 	0.8287	0.9904	0.6113	-0.08
Mof_C 	C 	0.7654	0.6955	0.1089	0.073
Mof_C 	C 	0.3968	0.3727	0.9145	0.354
Mof_C 	C 	0.7633	0.6158	0.2551	-0.088
Mof_C 	C 	0.4709	0.8977	0.7408	0.43
Mof_C 	C 	0.0328	0.0243	0.887	-0.128
Mof_C 	C 	0.185	0.7848	0.8396	-0.89
Mof_C 	C 	0.2815	0.7979	0.4428	-0.174
Mof_C 	C 	0.5014	0.8447	0.1306	0.087
Mof_C 	C 	0.5326	0.2553	0.7276	0.112
Mof_C 	C 	0.5733	0.2052	0.8897	-0.147
Mof_C 	C 	0.2903	0.2456	0.0375	0.005
Mof_C 	C 	0.8007	0.4086	0.2191	-0.101
Mof_C 	C 	0.4923	0.3949	0.9586	-0.986
Mof_C 	C 	0.6043	0.1745	0.9767	0.349
Mof_C 	C 	0.8284	0.3415	0.3638	0.062
Mof_C 	C 	0.2345	0.8549	0.3575	0.008
Mof_C 	C 	0.824	0.7309	0.9154	-0.172
Mof_C 	C 	0.4196	0.2001	0.3966	-0.144
Mof_C 	C 	0.2501	0.6095	0.7015	0.035
Mof_C 	C 	0.7835	0.9637	0.8599	-0.076
Mof_C 	C 	0.9232	0.0361	0.627	0.052
Mof_N 	N 	0.1318	0.0718	0.649	-0.329
Mof_N 	N 	0.249	0.6635	0.567	-0.18
Mof_N 	N 	0.0964	0.8961	0.358	-0.184
Mof_N 	N 	0.751	0.3365	0.433	-0.18
Mof_N 	N 	0.8453	0.0887	0.1393	-0.326
Mof_N 	N 	0.8682	0.9282	0.351	-0.329
Mof_N 	N 	0.9627	0.8625	0.8416	-0.178
Mof_N 	N 	0.9036	0.1039	0.642	-0.184
Mof_N 	N 	0.3075	0.3072	0.9503	-0.184
Mof_N 	N 	0.6925	0.6928	0.0497	-0.184
Mof_N 	N 	0.0373	0.1375	0.1584	-0.178
Mof_N 	N 	0.6257	0.4158	0.3287	-0.325
Mof_N 	N 	0.389	0.4119	0.8336	-0.327
Mof_N 	N 	0.611	0.5881	0.1664	-0.327
Mof_N 	N 	0.1547	0.9113	0.8607	-0.326
Mof_N 	N 	0.3743	0.5842	0.6713	-0.325
Mof_O 	O 	0.5701	0.8997	0.4649	-0.441
Mof_O 	O 	0.3595	0.4507	0.2162	-0.482
Mof_O 	O 	0.6286	0.9481	0.1783	-0.516
Mof_O 	O 	0.5721	0.0993	0.0268	-0.455
Mof_O 	O 	0.6616	0.2206	0.9963	-0.362
Mof_O 	O 	0.3367	0.4045	0.1274	-0.323
Mof_O 	O 	0.5861	0.0371	0.3086	-0.518
Mof_O 	O 	0.4279	0.9007	0.9732	-0.455
Mof_O 	O 	0.4861	0.8804	0.8133	-0.504
Mof_O 	O 	0.3384	0.7794	0.0037	-0.362
Mof_O 	O 	0.6425	0.4545	0.6896	-0.496
Mof_O 	O 	0.5819	0.8584	0.3092	-0.513
Mof_O 	O 	0.2797	0.6102	0.38	-0.309
Mof_O 	O 	0.6633	0.5955	0.8726	-0.323
Mof_O 	O 	0.3305	0.2211	0.5092	-0.369
Mof_O 	O 	0.4139	0.9629	0.6914	-0.518
Mof_O 	O 	0.3575	0.5455	0.3104	-0.496
Mof_O 	O 	0.6695	0.7789	0.4908	-0.369
Mof_O 	O 	0.6405	0.5493	0.7838	-0.482
Mof_O 	O 	0.5139	0.1196	0.1867	-0.504
Mof_O 	O 	0.4299	0.1003	0.5351	-0.441
Mof_O 	O 	0.3714	0.0519	0.8217	-0.516
Mof_O 	O 	0.4181	0.1416	0.6908	-0.513
Mof_O 	O 	0.7203	0.3898	0.62	-0.309
_end
