data_functionalizedCrystal
_audit_creation_method	'EQeq! by Chris Wilmer'
_symmetry_space_group_name_H-M	'P1'
_symmetry_Int_Tables_number	1
_symmetry_cell_setting	triclinic
loop_
_symmetry_equiv_pos_as_xyz
  x,y,z
_cell_length_a	27.881
_cell_length_b	14.252
_cell_length_c	24.059
_cell_angle_alpha	90
_cell_angle_beta	111.799
_cell_angle_gamma	90
loop_
_atom_site_label
_atom_site_type_symbol
_atom_site_fract_x
_atom_site_fract_y
_atom_site_fract_z
_atom_site_charge
Mof_Ag	Ag	0.25384	0.71701	0.22063	0.49
Mof_P 	P 	0.24917	0.55883	0.17985	0.008
Mof_P 	P 	0.24557	0.36946	0.32564	0.011
Mof_N 	N 	0.33826	0.7084	0.29636	-0.179
Mof_N 	N 	0.41923	0.6659	0.34	-0.11
Mof_N 	N 	0.1675	0.6989	0.34376	-0.107
Mof_N 	N 	0.19953	0.7282	0.27488	-0.18
Mof_C 	C 	0.26287	0.4644	0.23554	-0.139
Mof_H 	H 	0.2606	0.4046	0.2154	0.055
Mof_H 	H 	0.298	0.4713	0.264	0.058
Mof_C 	C 	0.22672	0.4629	0.26936	-0.146
Mof_H 	H 	0.1916	0.4524	0.2416	0.06
Mof_H 	H 	0.2279	0.5229	0.2888	0.06
Mof_C 	C 	0.2987	0.5422	0.14815	-0.001
Mof_C 	C 	0.3348	0.4709	0.1648	-0.08
Mof_H 	H 	0.3328	0.4244	0.191	0.055
Mof_C 	C 	0.3737	0.4688	0.1423	-0.004
Mof_H 	H 	0.3987	0.422	0.1548	0.027
Mof_C 	C 	0.3762	0.5345	0.1021	-0.074
Mof_H 	H 	0.4016	0.5306	0.0858	0.052
Mof_C 	C 	0.3413	0.6051	0.0862	-0.005
Mof_H 	H 	0.3434	0.6507	0.0595	0.03
Mof_C 	C 	0.3026	0.6104	0.1091	-0.08
Mof_H 	H 	0.2793	0.6599	0.0982	0.04
Mof_C 	C 	0.18966	0.5226	0.12047	0.003
Mof_C 	C 	0.1454	0.5695	0.1135	-0.081
Mof_H 	H 	0.1464	0.6194	0.1388	0.035
Mof_C 	C 	0.0988	0.5444	0.0694	-0.01
Mof_H 	H 	0.0689	0.5779	0.0645	0.025
Mof_C 	C 	0.0974	0.4693	0.0329	-0.077
Mof_H 	H 	0.0661	0.4511	0.0038	0.049
Mof_C 	C 	0.1409	0.4218	0.0389	-0.004
Mof_H 	H 	0.1397	0.3714	0.0139	0.026
Mof_C 	C 	0.1871	0.4485	0.0824	-0.085
Mof_H 	H 	0.2171	0.4161	0.0862	0.06
Mof_C 	C 	0.2003	0.3803	0.3636	0.007
Mof_C 	C 	0.1486	0.3727	0.3307	-0.089
Mof_H 	H 	0.1376	0.366	0.2893	0.051
Mof_C 	C 	0.1124	0.3746	0.3567	0.003
Mof_H 	H 	0.0774	0.3687	0.3335	0.024
Mof_C 	C 	0.1285	0.3852	0.417	-0.084
Mof_H 	H 	0.1043	0.388	0.4351	0.055
Mof_C 	C 	0.1807	0.3918	0.4516	0.001
Mof_H 	H 	0.1914	0.3976	0.493	0.027
Mof_C 	C 	0.2164	0.39	0.4252	-0.092
Mof_H 	H 	0.2513	0.3951	0.4485	0.06
Mof_C 	C 	0.3057	0.4087	0.38	-0.012
Mof_C 	C 	0.3421	0.3426	0.4097	-0.064
Mof_H 	H 	0.3346	0.2794	0.4013	0.027
Mof_C 	C 	0.3899	0.3679	0.4518	-0.028
Mof_H 	H 	0.4142	0.3224	0.4714	0.031
Mof_C 	C 	0.4007	0.4626	0.4642	-0.059
Mof_H 	H 	0.4324	0.4802	0.4926	0.042
Mof_C 	C 	0.3664	0.5281	0.4363	-0.02
Mof_H 	H 	0.3742	0.5912	0.4449	0.034
Mof_C 	C 	0.3189	0.5018	0.3939	-0.065
Mof_H 	H 	0.2953	0.5483	0.3743	0.047
Mof_C 	C 	0.3757	0.6545	0.2938	0.088
Mof_H 	H 	0.3719	0.6129	0.2626	-0.004
Mof_C 	C 	0.3599	0.7565	0.3474	0.016
Mof_H 	H 	0.3429	0.8009	0.3616	0.018
Mof_C 	C 	0.4096	0.7321	0.3752	-0.02
Mof_H 	H 	0.4327	0.7557	0.4113	0.034
Mof_C 	C 	0.4675	0.6159	0.3524	-0.119
Mof_H 	H 	0.4636	0.5518	0.3636	0.064
Mof_H 	H 	0.4944	0.6453	0.3859	0.064
Mof_C 	C 	0.4838	0.6149	0.2982	0.056
Mof_C 	C 	0.4929	0.6983	0.2737	-0.067
Mof_H 	H 	0.4891	0.7551	0.2906	0.054
Mof_C 	C 	0.4925	0.5348	0.2738	-0.071
Mof_H 	H 	0.4882	0.4777	0.29	0.049
Mof_C 	C 	0.207	0.8016	0.4697	-0.077
Mof_H 	H 	0.1781	0.838	0.4494	0.059
Mof_C 	C 	0.2518	0.6591	0.4831	-0.077
Mof_H 	H 	0.2538	0.5972	0.4719	0.057
Mof_C 	C 	0.2085	0.7109	0.4532	0.067
Mof_C 	C 	0.1652	0.6689	0.4019	-0.136
Mof_H 	H 	0.1672	0.601	0.4047	0.075
Mof_H 	H 	0.1325	0.6882	0.4038	0.07
Mof_C 	C 	0.21045	0.7071	0.3316	0.083
Mof_H 	H 	0.2437	0.6989	0.3596	-0.004
Mof_C 	C 	0.12675	0.7177	0.292	-0.018
Mof_H 	H 	0.0919	0.718	0.2866	0.032
Mof_C 	C 	0.1467	0.7356	0.2509	0.006
Mof_H 	H 	0.1275	0.751	0.2113	0.013
Mof_Ag	Ag	0.75384	0.21701	0.22063	0.491
Mof_P 	P 	0.74917	0.05883	0.17985	0.009
Mof_P 	P 	0.74557	0.86946	0.32564	0.012
Mof_N 	N 	0.83826	0.2084	0.29636	-0.178
Mof_N 	N 	0.91923	0.1659	0.34	-0.109
Mof_N 	N 	0.6675	0.1989	0.34376	-0.106
Mof_N 	N 	0.69953	0.2282	0.27488	-0.179
Mof_C 	C 	0.76287	0.9644	0.23554	-0.138
Mof_H 	H 	0.7606	0.9046	0.2154	0.056
Mof_H 	H 	0.798	0.9713	0.264	0.059
Mof_C 	C 	0.72672	0.9629	0.26936	-0.144
Mof_H 	H 	0.6916	0.9524	0.2416	0.061
Mof_H 	H 	0.7279	0.0229	0.2888	0.06
Mof_C 	C 	0.7987	0.0422	0.14815	-0.001
Mof_C 	C 	0.8348	0.9709	0.1648	-0.08
Mof_H 	H 	0.8328	0.9244	0.191	0.055
Mof_C 	C 	0.8737	0.9688	0.1423	-0.003
Mof_H 	H 	0.8987	0.922	0.1548	0.027
Mof_C 	C 	0.8762	0.0345	0.1021	-0.075
Mof_H 	H 	0.9016	0.0306	0.0858	0.052
Mof_C 	C 	0.8413	0.1051	0.0862	-0.005
Mof_H 	H 	0.8434	0.1507	0.0595	0.03
Mof_C 	C 	0.8026	0.1104	0.1091	-0.081
Mof_H 	H 	0.7793	0.1599	0.0982	0.04
Mof_C 	C 	0.68966	0.0226	0.12047	0.002
Mof_C 	C 	0.6454	0.0695	0.1135	-0.08
Mof_H 	H 	0.6464	0.1194	0.1388	0.034
Mof_C 	C 	0.5988	0.0444	0.0694	-0.012
Mof_H 	H 	0.5689	0.0779	0.0645	0.025
Mof_C 	C 	0.5974	0.9693	0.0329	-0.075
Mof_H 	H 	0.5661	0.9511	0.0038	0.048
Mof_C 	C 	0.6409	0.9218	0.0389	-0.005
Mof_H 	H 	0.6397	0.8714	0.0139	0.026
Mof_C 	C 	0.6871	0.9485	0.0824	-0.084
Mof_H 	H 	0.7171	0.9161	0.0862	0.06
Mof_C 	C 	0.7003	0.8803	0.3636	0.007
Mof_C 	C 	0.6486	0.8727	0.3307	-0.089
Mof_H 	H 	0.6376	0.866	0.2893	0.051
Mof_C 	C 	0.6124	0.8746	0.3567	0.003
Mof_H 	H 	0.5774	0.8687	0.3335	0.024
Mof_C 	C 	0.6285	0.8852	0.417	-0.084
Mof_H 	H 	0.6043	0.888	0.4351	0.055
Mof_C 	C 	0.6807	0.8918	0.4516	0.001
Mof_H 	H 	0.6914	0.8976	0.493	0.027
Mof_C 	C 	0.7164	0.89	0.4252	-0.092
Mof_H 	H 	0.7513	0.8951	0.4485	0.06
Mof_C 	C 	0.8057	0.9087	0.38	-0.012
Mof_C 	C 	0.8421	0.8426	0.4097	-0.065
Mof_H 	H 	0.8346	0.7794	0.4013	0.027
Mof_C 	C 	0.8899	0.8679	0.4518	-0.028
Mof_H 	H 	0.9142	0.8224	0.4714	0.031
Mof_C 	C 	0.9007	0.9626	0.4642	-0.059
Mof_H 	H 	0.9324	0.9802	0.4926	0.042
Mof_C 	C 	0.8664	0.0281	0.4363	-0.02
Mof_H 	H 	0.8742	0.0912	0.4449	0.034
Mof_C 	C 	0.8189	0.0018	0.3939	-0.065
Mof_H 	H 	0.7953	0.0483	0.3743	0.047
Mof_C 	C 	0.8757	0.1545	0.2938	0.088
Mof_H 	H 	0.8719	0.1129	0.2626	-0.004
Mof_C 	C 	0.8599	0.2565	0.3474	0.016
Mof_H 	H 	0.8429	0.3009	0.3616	0.018
Mof_C 	C 	0.9096	0.2321	0.3752	-0.02
Mof_H 	H 	0.9327	0.2557	0.4113	0.034
Mof_C 	C 	0.9675	0.1159	0.3524	-0.119
Mof_H 	H 	0.9636	0.0518	0.3636	0.064
Mof_H 	H 	0.9944	0.1453	0.3859	0.064
Mof_C 	C 	0.9838	0.1149	0.2982	0.056
Mof_C 	C 	0.9929	0.1983	0.2737	-0.067
Mof_H 	H 	0.9891	0.2551	0.2906	0.054
Mof_C 	C 	0.9925	0.0348	0.2738	-0.071
Mof_H 	H 	0.9882	0.9777	0.29	0.049
Mof_C 	C 	0.707	0.3016	0.4697	-0.077
Mof_H 	H 	0.6781	0.338	0.4494	0.059
Mof_C 	C 	0.7518	0.1591	0.4831	-0.077
Mof_H 	H 	0.7538	0.0972	0.4719	0.057
Mof_C 	C 	0.7085	0.2109	0.4532	0.067
Mof_C 	C 	0.6652	0.1689	0.4019	-0.136
Mof_H 	H 	0.6672	0.101	0.4047	0.075
Mof_H 	H 	0.6325	0.1882	0.4038	0.07
Mof_C 	C 	0.71045	0.2071	0.3316	0.083
Mof_H 	H 	0.7437	0.1989	0.3596	-0.004
Mof_C 	C 	0.62675	0.2177	0.292	-0.018
Mof_H 	H 	0.5919	0.218	0.2866	0.032
Mof_C 	C 	0.6467	0.2356	0.2509	0.006
Mof_H 	H 	0.6275	0.251	0.2113	0.013
Mof_Ag	Ag	0.74615	0.71701	0.27937	0.491
Mof_P 	P 	0.75083	0.55883	0.32015	0.009
Mof_P 	P 	0.75443	0.36946	0.17436	0.012
Mof_N 	N 	0.66174	0.7084	0.20364	-0.178
Mof_N 	N 	0.58077	0.6659	0.16	-0.109
Mof_N 	N 	0.8325	0.6989	0.15624	-0.106
Mof_N 	N 	0.80047	0.7282	0.22512	-0.179
Mof_C 	C 	0.73713	0.4644	0.26446	-0.138
Mof_H 	H 	0.7394	0.4046	0.2846	0.056
Mof_H 	H 	0.702	0.4713	0.236	0.059
Mof_C 	C 	0.77328	0.4629	0.23064	-0.145
Mof_H 	H 	0.8084	0.4524	0.2584	0.061
Mof_H 	H 	0.7721	0.5229	0.2112	0.061
Mof_C 	C 	0.7013	0.5422	0.35185	-0
Mof_C 	C 	0.6652	0.4709	0.3352	-0.08
Mof_H 	H 	0.6672	0.4244	0.309	0.055
Mof_C 	C 	0.6263	0.4688	0.3577	-0.004
Mof_H 	H 	0.6013	0.422	0.3452	0.027
Mof_C 	C 	0.6238	0.5345	0.3979	-0.074
Mof_H 	H 	0.5984	0.5306	0.4142	0.052
Mof_C 	C 	0.6587	0.6051	0.4138	-0.005
Mof_H 	H 	0.6566	0.6507	0.4405	0.03
Mof_C 	C 	0.6974	0.6104	0.3909	-0.08
Mof_H 	H 	0.7207	0.6599	0.4018	0.04
Mof_C 	C 	0.81034	0.5226	0.37953	0.003
Mof_C 	C 	0.8546	0.5695	0.3865	-0.081
Mof_H 	H 	0.8536	0.6194	0.3612	0.035
Mof_C 	C 	0.9012	0.5444	0.4306	-0.01
Mof_H 	H 	0.9311	0.5779	0.4355	0.025
Mof_C 	C 	0.9026	0.4693	0.4671	-0.077
Mof_H 	H 	0.9339	0.4511	0.4962	0.049
Mof_C 	C 	0.8591	0.4218	0.4611	-0.004
Mof_H 	H 	0.8603	0.3714	0.4861	0.026
Mof_C 	C 	0.8129	0.4485	0.4176	-0.085
Mof_H 	H 	0.7829	0.4161	0.4138	0.06
Mof_C 	C 	0.7997	0.3803	0.1364	0.007
Mof_C 	C 	0.8514	0.3727	0.1693	-0.089
Mof_H 	H 	0.8624	0.366	0.2107	0.051
Mof_C 	C 	0.8876	0.3746	0.1433	0.003
Mof_H 	H 	0.9226	0.3687	0.1665	0.024
Mof_C 	C 	0.8715	0.3852	0.083	-0.084
Mof_H 	H 	0.8957	0.388	0.0649	0.055
Mof_C 	C 	0.8193	0.3918	0.0484	0.001
Mof_H 	H 	0.8086	0.3976	0.007	0.027
Mof_C 	C 	0.7836	0.39	0.0748	-0.092
Mof_H 	H 	0.7487	0.3951	0.0515	0.06
Mof_C 	C 	0.6943	0.4087	0.12	-0.012
Mof_C 	C 	0.6579	0.3426	0.0903	-0.065
Mof_H 	H 	0.6654	0.2794	0.0987	0.027
Mof_C 	C 	0.6101	0.3679	0.0482	-0.028
Mof_H 	H 	0.5858	0.3224	0.0286	0.031
Mof_C 	C 	0.5993	0.4626	0.0358	-0.059
Mof_H 	H 	0.5676	0.4802	0.0074	0.042
Mof_C 	C 	0.6336	0.5281	0.0637	-0.02
Mof_H 	H 	0.6258	0.5912	0.0551	0.034
Mof_C 	C 	0.6811	0.5018	0.1061	-0.065
Mof_H 	H 	0.7047	0.5483	0.1257	0.047
Mof_C 	C 	0.6243	0.6545	0.2062	0.088
Mof_H 	H 	0.6281	0.6129	0.2374	-0.004
Mof_C 	C 	0.6401	0.7565	0.1526	0.016
Mof_H 	H 	0.6571	0.8009	0.1384	0.018
Mof_C 	C 	0.5904	0.7321	0.1248	-0.02
Mof_H 	H 	0.5673	0.7557	0.0887	0.034
Mof_C 	C 	0.5325	0.6159	0.1476	-0.119
Mof_H 	H 	0.5364	0.5518	0.1364	0.064
Mof_H 	H 	0.5056	0.6453	0.1141	0.064
Mof_C 	C 	0.5162	0.6149	0.2018	0.056
Mof_C 	C 	0.5071	0.6983	0.2263	-0.067
Mof_H 	H 	0.5109	0.7551	0.2094	0.054
Mof_C 	C 	0.5075	0.5348	0.2262	-0.071
Mof_H 	H 	0.5118	0.4777	0.21	0.049
Mof_C 	C 	0.793	0.8016	0.0303	-0.076
Mof_H 	H 	0.8219	0.838	0.0506	0.059
Mof_C 	C 	0.7482	0.6591	0.0169	-0.077
Mof_H 	H 	0.7462	0.5972	0.0281	0.057
Mof_C 	C 	0.7915	0.7109	0.0468	0.067
Mof_C 	C 	0.8348	0.6689	0.0981	-0.136
Mof_H 	H 	0.8328	0.601	0.0953	0.075
Mof_H 	H 	0.8675	0.6882	0.0962	0.069
Mof_C 	C 	0.78955	0.7071	0.1684	0.083
Mof_H 	H 	0.7563	0.6989	0.1404	-0.004
Mof_C 	C 	0.87325	0.7177	0.208	-0.018
Mof_H 	H 	0.9081	0.718	0.2134	0.032
Mof_C 	C 	0.8533	0.7356	0.2491	0.006
Mof_H 	H 	0.8725	0.751	0.2887	0.013
Mof_Ag	Ag	0.24616	0.21701	0.27937	0.491
Mof_P 	P 	0.25083	0.05883	0.32015	0.009
Mof_P 	P 	0.25443	0.86946	0.17436	0.012
Mof_N 	N 	0.16174	0.2084	0.20364	-0.178
Mof_N 	N 	0.08077	0.1659	0.16	-0.109
Mof_N 	N 	0.3325	0.1989	0.15624	-0.106
Mof_N 	N 	0.30047	0.2282	0.22512	-0.179
Mof_C 	C 	0.23713	0.9644	0.26446	-0.138
Mof_H 	H 	0.2394	0.9046	0.2846	0.056
Mof_H 	H 	0.202	0.9713	0.236	0.059
Mof_C 	C 	0.27328	0.9629	0.23064	-0.144
Mof_H 	H 	0.3084	0.9524	0.2584	0.061
Mof_H 	H 	0.2721	0.0229	0.2112	0.06
Mof_C 	C 	0.2013	0.0422	0.35185	-0.001
Mof_C 	C 	0.1652	0.9709	0.3352	-0.08
Mof_H 	H 	0.1672	0.9244	0.309	0.055
Mof_C 	C 	0.1263	0.9688	0.3577	-0.004
Mof_H 	H 	0.1013	0.922	0.3452	0.027
Mof_C 	C 	0.1238	0.0345	0.3979	-0.074
Mof_H 	H 	0.0984	0.0306	0.4142	0.052
Mof_C 	C 	0.1587	0.1051	0.4138	-0.005
Mof_H 	H 	0.1566	0.1507	0.4405	0.03
Mof_C 	C 	0.1974	0.1104	0.3909	-0.08
Mof_H 	H 	0.2207	0.1599	0.4018	0.04
Mof_C 	C 	0.31034	0.0226	0.37953	0.003
Mof_C 	C 	0.3546	0.0695	0.3865	-0.081
Mof_H 	H 	0.3536	0.1194	0.3612	0.035
Mof_C 	C 	0.4012	0.0444	0.4306	-0.011
Mof_H 	H 	0.4311	0.0779	0.4355	0.025
Mof_C 	C 	0.4026	0.9693	0.4671	-0.077
Mof_H 	H 	0.4339	0.9511	0.4962	0.049
Mof_C 	C 	0.3591	0.9218	0.4611	-0.004
Mof_H 	H 	0.3603	0.8714	0.4861	0.026
Mof_C 	C 	0.3129	0.9485	0.4176	-0.085
Mof_H 	H 	0.2829	0.9161	0.4138	0.06
Mof_C 	C 	0.2997	0.8803	0.1364	0.007
Mof_C 	C 	0.3514	0.8727	0.1693	-0.089
Mof_H 	H 	0.3624	0.866	0.2107	0.051
Mof_C 	C 	0.3876	0.8746	0.1433	0.003
Mof_H 	H 	0.4226	0.8687	0.1665	0.024
Mof_C 	C 	0.3715	0.8852	0.083	-0.084
Mof_H 	H 	0.3957	0.888	0.0649	0.055
Mof_C 	C 	0.3193	0.8918	0.0484	0.001
Mof_H 	H 	0.3086	0.8976	0.007	0.027
Mof_C 	C 	0.2836	0.89	0.0748	-0.092
Mof_H 	H 	0.2487	0.8951	0.0515	0.06
Mof_C 	C 	0.1943	0.9087	0.12	-0.012
Mof_C 	C 	0.1579	0.8426	0.0903	-0.064
Mof_H 	H 	0.1654	0.7794	0.0987	0.027
Mof_C 	C 	0.1101	0.8679	0.0482	-0.028
Mof_H 	H 	0.0858	0.8224	0.0286	0.032
Mof_C 	C 	0.0993	0.9626	0.0358	-0.058
Mof_H 	H 	0.0676	0.9802	0.0074	0.042
Mof_C 	C 	0.1336	0.0281	0.0637	-0.021
Mof_H 	H 	0.1258	0.0912	0.0551	0.034
Mof_C 	C 	0.1811	0.0018	0.1061	-0.065
Mof_H 	H 	0.2047	0.0483	0.1257	0.047
Mof_C 	C 	0.1243	0.1545	0.2062	0.088
Mof_H 	H 	0.1281	0.1129	0.2374	-0.004
Mof_C 	C 	0.1401	0.2565	0.1526	0.016
Mof_H 	H 	0.1571	0.3009	0.1384	0.018
Mof_C 	C 	0.0904	0.2321	0.1248	-0.02
Mof_H 	H 	0.0673	0.2557	0.0887	0.034
Mof_C 	C 	0.0325	0.1159	0.1476	-0.119
Mof_H 	H 	0.0364	0.0518	0.1364	0.064
Mof_H 	H 	0.0056	0.1453	0.1141	0.064
Mof_C 	C 	0.0162	0.1149	0.2018	0.056
Mof_C 	C 	0.0071	0.1983	0.2263	-0.067
Mof_H 	H 	0.0109	0.2551	0.2094	0.054
Mof_C 	C 	0.0075	0.0348	0.2262	-0.071
Mof_H 	H 	0.0118	0.9777	0.21	0.049
Mof_C 	C 	0.293	0.3016	0.0303	-0.078
Mof_H 	H 	0.3219	0.338	0.0506	0.059
Mof_C 	C 	0.2482	0.1591	0.0169	-0.078
Mof_H 	H 	0.2462	0.0972	0.0281	0.057
Mof_C 	C 	0.2915	0.2109	0.0468	0.067
Mof_C 	C 	0.3348	0.1689	0.0981	-0.136
Mof_H 	H 	0.3328	0.101	0.0953	0.075
Mof_H 	H 	0.3675	0.1882	0.0962	0.07
Mof_C 	C 	0.28955	0.2071	0.1684	0.083
Mof_H 	H 	0.2563	0.1989	0.1404	-0.004
Mof_C 	C 	0.37325	0.2177	0.208	-0.018
Mof_H 	H 	0.4081	0.218	0.2134	0.032
Mof_C 	C 	0.3533	0.2356	0.2491	0.006
Mof_H 	H 	0.3725	0.251	0.2887	0.013
Mof_Ag	Ag	0.74615	0.28299	0.77937	0.491
Mof_P 	P 	0.75083	0.44117	0.82015	0.009
Mof_P 	P 	0.75443	0.63054	0.67436	0.012
Mof_N 	N 	0.66174	0.2916	0.70364	-0.178
Mof_N 	N 	0.58077	0.3341	0.66	-0.109
Mof_N 	N 	0.8325	0.3011	0.65624	-0.106
Mof_N 	N 	0.80047	0.2718	0.72512	-0.179
Mof_C 	C 	0.73713	0.5356	0.76446	-0.138
Mof_H 	H 	0.7394	0.5954	0.7846	0.056
Mof_H 	H 	0.702	0.5287	0.736	0.059
Mof_C 	C 	0.77328	0.5371	0.73064	-0.145
Mof_H 	H 	0.8084	0.5476	0.7584	0.061
Mof_H 	H 	0.7721	0.4771	0.7112	0.061
Mof_C 	C 	0.7013	0.4578	0.85185	-0
Mof_C 	C 	0.6652	0.5291	0.8352	-0.08
Mof_H 	H 	0.6672	0.5756	0.809	0.055
Mof_C 	C 	0.6263	0.5312	0.8577	-0.004
Mof_H 	H 	0.6013	0.578	0.8452	0.027
Mof_C 	C 	0.6238	0.4655	0.8979	-0.074
Mof_H 	H 	0.5984	0.4694	0.9142	0.052
Mof_C 	C 	0.6587	0.3949	0.9138	-0.005
Mof_H 	H 	0.6566	0.3493	0.9405	0.03
Mof_C 	C 	0.6974	0.3896	0.8909	-0.08
Mof_H 	H 	0.7207	0.3401	0.9018	0.04
Mof_C 	C 	0.81034	0.4774	0.87953	0.003
Mof_C 	C 	0.8546	0.4305	0.8865	-0.081
Mof_H 	H 	0.8536	0.3806	0.8612	0.035
Mof_C 	C 	0.9012	0.4556	0.9306	-0.01
Mof_H 	H 	0.9311	0.4221	0.9355	0.025
Mof_C 	C 	0.9026	0.5307	0.9671	-0.077
Mof_H 	H 	0.9339	0.5489	0.9962	0.049
Mof_C 	C 	0.8591	0.5782	0.9611	-0.004
Mof_H 	H 	0.8603	0.6286	0.9861	0.026
Mof_C 	C 	0.8129	0.5515	0.9176	-0.085
Mof_H 	H 	0.7829	0.5839	0.9138	0.06
Mof_C 	C 	0.7997	0.6197	0.6364	0.007
Mof_C 	C 	0.8514	0.6273	0.6693	-0.089
Mof_H 	H 	0.8624	0.634	0.7107	0.051
Mof_C 	C 	0.8876	0.6254	0.6433	0.003
Mof_H 	H 	0.9226	0.6313	0.6665	0.024
Mof_C 	C 	0.8715	0.6148	0.583	-0.084
Mof_H 	H 	0.8957	0.612	0.5649	0.055
Mof_C 	C 	0.8193	0.6082	0.5484	0.001
Mof_H 	H 	0.8086	0.6024	0.507	0.027
Mof_C 	C 	0.7836	0.61	0.5748	-0.092
Mof_H 	H 	0.7487	0.6049	0.5515	0.06
Mof_C 	C 	0.6943	0.5913	0.62	-0.012
Mof_C 	C 	0.6579	0.6574	0.5903	-0.064
Mof_H 	H 	0.6654	0.7206	0.5987	0.027
Mof_C 	C 	0.6101	0.6321	0.5482	-0.028
Mof_H 	H 	0.5858	0.6776	0.5286	0.031
Mof_C 	C 	0.5993	0.5374	0.5358	-0.059
Mof_H 	H 	0.5676	0.5198	0.5074	0.042
Mof_C 	C 	0.6336	0.4719	0.5637	-0.02
Mof_H 	H 	0.6258	0.4088	0.5551	0.034
Mof_C 	C 	0.6811	0.4982	0.6061	-0.065
Mof_H 	H 	0.7047	0.4517	0.6257	0.047
Mof_C 	C 	0.6243	0.3455	0.7062	0.088
Mof_H 	H 	0.6281	0.3871	0.7374	-0.004
Mof_C 	C 	0.6401	0.2435	0.6526	0.016
Mof_H 	H 	0.6571	0.1991	0.6384	0.018
Mof_C 	C 	0.5904	0.2679	0.6248	-0.02
Mof_H 	H 	0.5673	0.2443	0.5887	0.034
Mof_C 	C 	0.5325	0.3841	0.6476	-0.119
Mof_H 	H 	0.5364	0.4482	0.6364	0.064
Mof_H 	H 	0.5056	0.3547	0.6141	0.064
Mof_C 	C 	0.5162	0.3851	0.7018	0.056
Mof_C 	C 	0.5071	0.3017	0.7263	-0.067
Mof_H 	H 	0.5109	0.2449	0.7094	0.054
Mof_C 	C 	0.5075	0.4652	0.7262	-0.071
Mof_H 	H 	0.5118	0.5223	0.71	0.049
Mof_C 	C 	0.793	0.1984	0.5303	-0.077
Mof_H 	H 	0.8219	0.162	0.5506	0.059
Mof_C 	C 	0.7482	0.3409	0.5169	-0.077
Mof_H 	H 	0.7462	0.4028	0.5281	0.057
Mof_C 	C 	0.7915	0.2891	0.5468	0.067
Mof_C 	C 	0.8348	0.3311	0.5981	-0.136
Mof_H 	H 	0.8328	0.399	0.5953	0.075
Mof_H 	H 	0.8675	0.3118	0.5962	0.07
Mof_C 	C 	0.78955	0.2929	0.6684	0.083
Mof_H 	H 	0.7563	0.3011	0.6404	-0.004
Mof_C 	C 	0.87325	0.2823	0.708	-0.018
Mof_H 	H 	0.9081	0.282	0.7134	0.032
Mof_C 	C 	0.8533	0.2644	0.7491	0.006
Mof_H 	H 	0.8725	0.249	0.7887	0.013
Mof_Ag	Ag	0.24616	0.78299	0.77937	0.491
Mof_P 	P 	0.25083	0.94117	0.82015	0.009
Mof_P 	P 	0.25443	0.13054	0.67436	0.012
Mof_N 	N 	0.16174	0.7916	0.70364	-0.178
Mof_N 	N 	0.08077	0.8341	0.66	-0.109
Mof_N 	N 	0.3325	0.8011	0.65624	-0.106
Mof_N 	N 	0.30047	0.7718	0.72512	-0.179
Mof_C 	C 	0.23713	0.0356	0.76446	-0.138
Mof_H 	H 	0.2394	0.0954	0.7846	0.056
Mof_H 	H 	0.202	0.0287	0.736	0.059
Mof_C 	C 	0.27328	0.0371	0.73064	-0.144
Mof_H 	H 	0.3084	0.0476	0.7584	0.061
Mof_H 	H 	0.2721	0.9771	0.7112	0.06
Mof_C 	C 	0.2013	0.9578	0.85185	-0.001
Mof_C 	C 	0.1652	0.0291	0.8352	-0.08
Mof_H 	H 	0.1672	0.0756	0.809	0.055
Mof_C 	C 	0.1263	0.0312	0.8577	-0.003
Mof_H 	H 	0.1013	0.078	0.8452	0.027
Mof_C 	C 	0.1238	0.9655	0.8979	-0.075
Mof_H 	H 	0.0984	0.9694	0.9142	0.052
Mof_C 	C 	0.1587	0.8949	0.9138	-0.005
Mof_H 	H 	0.1566	0.8493	0.9405	0.03
Mof_C 	C 	0.1974	0.8896	0.8909	-0.081
Mof_H 	H 	0.2207	0.8401	0.9018	0.04
Mof_C 	C 	0.31034	0.9774	0.87953	0.002
Mof_C 	C 	0.3546	0.9305	0.8865	-0.08
Mof_H 	H 	0.3536	0.8806	0.8612	0.034
Mof_C 	C 	0.4012	0.9556	0.9306	-0.012
Mof_H 	H 	0.4311	0.9221	0.9355	0.025
Mof_C 	C 	0.4026	0.0307	0.9671	-0.075
Mof_H 	H 	0.4339	0.0489	0.9962	0.048
Mof_C 	C 	0.3591	0.0782	0.9611	-0.005
Mof_H 	H 	0.3603	0.1286	0.9861	0.026
Mof_C 	C 	0.3129	0.0515	0.9176	-0.084
Mof_H 	H 	0.2829	0.0839	0.9138	0.06
Mof_C 	C 	0.2997	0.1197	0.6364	0.007
Mof_C 	C 	0.3514	0.1273	0.6693	-0.089
Mof_H 	H 	0.3624	0.134	0.7107	0.051
Mof_C 	C 	0.3876	0.1254	0.6433	0.003
Mof_H 	H 	0.4226	0.1313	0.6665	0.024
Mof_C 	C 	0.3715	0.1148	0.583	-0.084
Mof_H 	H 	0.3957	0.112	0.5649	0.055
Mof_C 	C 	0.3193	0.1082	0.5484	0.001
Mof_H 	H 	0.3086	0.1024	0.507	0.027
Mof_C 	C 	0.2836	0.11	0.5748	-0.092
Mof_H 	H 	0.2487	0.1049	0.5515	0.06
Mof_C 	C 	0.1943	0.0913	0.62	-0.012
Mof_C 	C 	0.1579	0.1574	0.5903	-0.065
Mof_H 	H 	0.1654	0.2206	0.5987	0.027
Mof_C 	C 	0.1101	0.1321	0.5482	-0.028
Mof_H 	H 	0.0858	0.1776	0.5286	0.031
Mof_C 	C 	0.0993	0.0374	0.5358	-0.059
Mof_H 	H 	0.0676	0.0198	0.5074	0.042
Mof_C 	C 	0.1336	0.9719	0.5637	-0.02
Mof_H 	H 	0.1258	0.9088	0.5551	0.034
Mof_C 	C 	0.1811	0.9982	0.6061	-0.065
Mof_H 	H 	0.2047	0.9517	0.6257	0.047
Mof_C 	C 	0.1243	0.8455	0.7062	0.088
Mof_H 	H 	0.1281	0.8871	0.7374	-0.004
Mof_C 	C 	0.1401	0.7435	0.6526	0.016
Mof_H 	H 	0.1571	0.6991	0.6384	0.018
Mof_C 	C 	0.0904	0.7679	0.6248	-0.02
Mof_H 	H 	0.0673	0.7443	0.5887	0.034
Mof_C 	C 	0.0325	0.8841	0.6476	-0.119
Mof_H 	H 	0.0364	0.9482	0.6364	0.064
Mof_H 	H 	0.0056	0.8547	0.6141	0.064
Mof_C 	C 	0.0162	0.8851	0.7018	0.056
Mof_C 	C 	0.0071	0.8017	0.7263	-0.067
Mof_H 	H 	0.0109	0.7449	0.7094	0.054
Mof_C 	C 	0.0075	0.9652	0.7262	-0.071
Mof_H 	H 	0.0118	0.0223	0.71	0.049
Mof_C 	C 	0.293	0.6984	0.5303	-0.077
Mof_H 	H 	0.3219	0.662	0.5506	0.059
Mof_C 	C 	0.2482	0.8409	0.5169	-0.077
Mof_H 	H 	0.2462	0.9028	0.5281	0.057
Mof_C 	C 	0.2915	0.7891	0.5468	0.067
Mof_C 	C 	0.3348	0.8311	0.5981	-0.136
Mof_H 	H 	0.3328	0.899	0.5953	0.075
Mof_H 	H 	0.3675	0.8118	0.5962	0.07
Mof_C 	C 	0.28955	0.7929	0.6684	0.083
Mof_H 	H 	0.2563	0.8011	0.6404	-0.004
Mof_C 	C 	0.37325	0.7823	0.708	-0.018
Mof_H 	H 	0.4081	0.782	0.7134	0.032
Mof_C 	C 	0.3533	0.7644	0.7491	0.006
Mof_H 	H 	0.3725	0.749	0.7887	0.013
Mof_Ag	Ag	0.25384	0.28299	0.72063	0.491
Mof_P 	P 	0.24917	0.44117	0.67985	0.009
Mof_P 	P 	0.24557	0.63054	0.82564	0.012
Mof_N 	N 	0.33826	0.2916	0.79636	-0.178
Mof_N 	N 	0.41923	0.3341	0.84	-0.109
Mof_N 	N 	0.1675	0.3011	0.84376	-0.106
Mof_N 	N 	0.19953	0.2718	0.77488	-0.179
Mof_C 	C 	0.26287	0.5356	0.73554	-0.138
Mof_H 	H 	0.2606	0.5954	0.7154	0.056
Mof_H 	H 	0.298	0.5287	0.764	0.059
Mof_C 	C 	0.22672	0.5371	0.76936	-0.145
Mof_H 	H 	0.1916	0.5476	0.7416	0.061
Mof_H 	H 	0.2279	0.4771	0.7888	0.061
Mof_C 	C 	0.2987	0.4578	0.64815	-0
Mof_C 	C 	0.3348	0.5291	0.6648	-0.08
Mof_H 	H 	0.3328	0.5756	0.691	0.055
Mof_C 	C 	0.3737	0.5312	0.6423	-0.004
Mof_H 	H 	0.3987	0.578	0.6548	0.027
Mof_C 	C 	0.3762	0.4655	0.6021	-0.074
Mof_H 	H 	0.4016	0.4694	0.5858	0.052
Mof_C 	C 	0.3413	0.3949	0.5862	-0.005
Mof_H 	H 	0.3434	0.3493	0.5595	0.03
Mof_C 	C 	0.3026	0.3896	0.6091	-0.08
Mof_H 	H 	0.2793	0.3401	0.5982	0.04
Mof_C 	C 	0.18966	0.4774	0.62047	0.003
Mof_C 	C 	0.1454	0.4305	0.6135	-0.081
Mof_H 	H 	0.1464	0.3806	0.6388	0.035
Mof_C 	C 	0.0988	0.4556	0.5694	-0.01
Mof_H 	H 	0.0689	0.4221	0.5645	0.025
Mof_C 	C 	0.0974	0.5307	0.5329	-0.077
Mof_H 	H 	0.0661	0.5489	0.5038	0.049
Mof_C 	C 	0.1409	0.5782	0.5389	-0.004
Mof_H 	H 	0.1397	0.6286	0.5139	0.026
Mof_C 	C 	0.1871	0.5515	0.5824	-0.085
Mof_H 	H 	0.2171	0.5839	0.5862	0.06
Mof_C 	C 	0.2003	0.6197	0.8636	0.007
Mof_C 	C 	0.1486	0.6273	0.8307	-0.089
Mof_H 	H 	0.1376	0.634	0.7893	0.051
Mof_C 	C 	0.1124	0.6254	0.8567	0.003
Mof_H 	H 	0.0774	0.6313	0.8335	0.024
Mof_C 	C 	0.1285	0.6148	0.917	-0.084
Mof_H 	H 	0.1043	0.612	0.9351	0.055
Mof_C 	C 	0.1807	0.6082	0.9516	0.001
Mof_H 	H 	0.1914	0.6024	0.993	0.027
Mof_C 	C 	0.2164	0.61	0.9252	-0.092
Mof_H 	H 	0.2513	0.6049	0.9485	0.06
Mof_C 	C 	0.3057	0.5913	0.88	-0.012
Mof_C 	C 	0.3421	0.6574	0.9097	-0.065
Mof_H 	H 	0.3346	0.7206	0.9013	0.027
Mof_C 	C 	0.3899	0.6321	0.9518	-0.028
Mof_H 	H 	0.4142	0.6776	0.9714	0.031
Mof_C 	C 	0.4007	0.5374	0.9642	-0.059
Mof_H 	H 	0.4324	0.5198	0.9926	0.042
Mof_C 	C 	0.3664	0.4719	0.9363	-0.02
Mof_H 	H 	0.3742	0.4088	0.9449	0.034
Mof_C 	C 	0.3189	0.4982	0.8939	-0.065
Mof_H 	H 	0.2953	0.4517	0.8743	0.047
Mof_C 	C 	0.3757	0.3455	0.7938	0.088
Mof_H 	H 	0.3719	0.3871	0.7626	-0.004
Mof_C 	C 	0.3599	0.2435	0.8474	0.016
Mof_H 	H 	0.3429	0.1991	0.8616	0.018
Mof_C 	C 	0.4096	0.2679	0.8752	-0.02
Mof_H 	H 	0.4327	0.2443	0.9113	0.034
Mof_C 	C 	0.4675	0.3841	0.8524	-0.119
Mof_H 	H 	0.4636	0.4482	0.8636	0.064
Mof_H 	H 	0.4944	0.3547	0.8859	0.064
Mof_C 	C 	0.4838	0.3851	0.7982	0.056
Mof_C 	C 	0.4929	0.3017	0.7737	-0.067
Mof_H 	H 	0.4891	0.2449	0.7906	0.054
Mof_C 	C 	0.4925	0.4652	0.7738	-0.071
Mof_H 	H 	0.4882	0.5223	0.79	0.049
Mof_C 	C 	0.207	0.1984	0.9697	-0.076
Mof_H 	H 	0.1781	0.162	0.9494	0.059
Mof_C 	C 	0.2518	0.3409	0.9831	-0.077
Mof_H 	H 	0.2538	0.4028	0.9719	0.057
Mof_C 	C 	0.2085	0.2891	0.9532	0.067
Mof_C 	C 	0.1652	0.3311	0.9019	-0.136
Mof_H 	H 	0.1672	0.399	0.9047	0.075
Mof_H 	H 	0.1325	0.3118	0.9038	0.069
Mof_C 	C 	0.21045	0.2929	0.8316	0.083
Mof_H 	H 	0.2437	0.3011	0.8596	-0.004
Mof_C 	C 	0.12675	0.2823	0.792	-0.018
Mof_H 	H 	0.0919	0.282	0.7866	0.032
Mof_C 	C 	0.1467	0.2644	0.7509	0.006
Mof_H 	H 	0.1275	0.249	0.7113	0.013
Mof_Ag	Ag	0.75384	0.78299	0.72063	0.491
Mof_P 	P 	0.74917	0.94117	0.67985	0.009
Mof_P 	P 	0.74557	0.13054	0.82564	0.012
Mof_N 	N 	0.83826	0.7916	0.79636	-0.178
Mof_N 	N 	0.91923	0.8341	0.84	-0.109
Mof_N 	N 	0.6675	0.8011	0.84376	-0.106
Mof_N 	N 	0.69953	0.7718	0.77488	-0.179
Mof_C 	C 	0.76287	0.0356	0.73554	-0.138
Mof_H 	H 	0.7606	0.0954	0.7154	0.056
Mof_H 	H 	0.798	0.0287	0.764	0.059
Mof_C 	C 	0.72672	0.0371	0.76936	-0.144
Mof_H 	H 	0.6916	0.0476	0.7416	0.061
Mof_H 	H 	0.7279	0.9771	0.7888	0.06
Mof_C 	C 	0.7987	0.9578	0.64815	-0.001
Mof_C 	C 	0.8348	0.0291	0.6648	-0.08
Mof_H 	H 	0.8328	0.0756	0.691	0.055
Mof_C 	C 	0.8737	0.0312	0.6423	-0.004
Mof_H 	H 	0.8987	0.078	0.6548	0.027
Mof_C 	C 	0.8762	0.9655	0.6021	-0.074
Mof_H 	H 	0.9016	0.9694	0.5858	0.052
Mof_C 	C 	0.8413	0.8949	0.5862	-0.005
Mof_H 	H 	0.8434	0.8493	0.5595	0.03
Mof_C 	C 	0.8026	0.8896	0.6091	-0.08
Mof_H 	H 	0.7793	0.8401	0.5982	0.04
Mof_C 	C 	0.68966	0.9774	0.62047	0.003
Mof_C 	C 	0.6454	0.9305	0.6135	-0.081
Mof_H 	H 	0.6464	0.8806	0.6388	0.035
Mof_C 	C 	0.5988	0.9556	0.5694	-0.011
Mof_H 	H 	0.5689	0.9221	0.5645	0.025
Mof_C 	C 	0.5974	0.0307	0.5329	-0.077
Mof_H 	H 	0.5661	0.0489	0.5038	0.049
Mof_C 	C 	0.6409	0.0782	0.5389	-0.004
Mof_H 	H 	0.6397	0.1286	0.5139	0.026
Mof_C 	C 	0.6871	0.0515	0.5824	-0.085
Mof_H 	H 	0.7171	0.0839	0.5862	0.06
Mof_C 	C 	0.7003	0.1197	0.8636	0.007
Mof_C 	C 	0.6486	0.1273	0.8307	-0.089
Mof_H 	H 	0.6376	0.134	0.7893	0.051
Mof_C 	C 	0.6124	0.1254	0.8567	0.003
Mof_H 	H 	0.5774	0.1313	0.8335	0.024
Mof_C 	C 	0.6285	0.1148	0.917	-0.084
Mof_H 	H 	0.6043	0.112	0.9351	0.055
Mof_C 	C 	0.6807	0.1082	0.9516	0.001
Mof_H 	H 	0.6914	0.1024	0.993	0.027
Mof_C 	C 	0.7164	0.11	0.9252	-0.092
Mof_H 	H 	0.7513	0.1049	0.9485	0.06
Mof_C 	C 	0.8057	0.0913	0.88	-0.012
Mof_C 	C 	0.8421	0.1574	0.9097	-0.064
Mof_H 	H 	0.8346	0.2206	0.9013	0.027
Mof_C 	C 	0.8899	0.1321	0.9518	-0.028
Mof_H 	H 	0.9142	0.1776	0.9714	0.032
Mof_C 	C 	0.9007	0.0374	0.9642	-0.058
Mof_H 	H 	0.9324	0.0198	0.9926	0.042
Mof_C 	C 	0.8664	0.9719	0.9363	-0.021
Mof_H 	H 	0.8742	0.9088	0.9449	0.034
Mof_C 	C 	0.8189	0.9982	0.8939	-0.065
Mof_H 	H 	0.7953	0.9517	0.8743	0.047
Mof_C 	C 	0.8757	0.8455	0.7938	0.088
Mof_H 	H 	0.8719	0.8871	0.7626	-0.004
Mof_C 	C 	0.8599	0.7435	0.8474	0.016
Mof_H 	H 	0.8429	0.6991	0.8616	0.018
Mof_C 	C 	0.9096	0.7679	0.8752	-0.02
Mof_H 	H 	0.9327	0.7443	0.9113	0.034
Mof_C 	C 	0.9675	0.8841	0.8524	-0.119
Mof_H 	H 	0.9636	0.9482	0.8636	0.064
Mof_H 	H 	0.9944	0.8547	0.8859	0.064
Mof_C 	C 	0.9838	0.8851	0.7982	0.056
Mof_C 	C 	0.9929	0.8017	0.7737	-0.067
Mof_H 	H 	0.9891	0.7449	0.7906	0.054
Mof_C 	C 	0.9925	0.9652	0.7738	-0.071
Mof_H 	H 	0.9882	0.0223	0.79	0.049
Mof_C 	C 	0.707	0.6984	0.9697	-0.078
Mof_H 	H 	0.6781	0.662	0.9494	0.059
Mof_C 	C 	0.7518	0.8409	0.9831	-0.078
Mof_H 	H 	0.7538	0.9028	0.9719	0.057
Mof_C 	C 	0.7085	0.7891	0.9532	0.067
Mof_C 	C 	0.6652	0.8311	0.9019	-0.136
Mof_H 	H 	0.6672	0.899	0.9047	0.075
Mof_H 	H 	0.6325	0.8118	0.9038	0.07
Mof_C 	C 	0.71045	0.7929	0.8316	0.083
Mof_H 	H 	0.7437	0.8011	0.8596	-0.004
Mof_C 	C 	0.62675	0.7823	0.792	-0.018
Mof_H 	H 	0.5919	0.782	0.7866	0.032
Mof_C 	C 	0.6467	0.7644	0.7509	0.006
Mof_H 	H 	0.6275	0.749	0.7113	0.013
_end
