data_functionalizedCrystal
_audit_creation_method	'EQeq! by Chris Wilmer'
_symmetry_space_group_name_H-M	'P1'
_symmetry_Int_Tables_number	1
_symmetry_cell_setting	triclinic
loop_
_symmetry_equiv_pos_as_xyz
  x,y,z
_cell_length_a	24
_cell_length_b	11.0768
_cell_length_c	34.991
_cell_angle_alpha	90
_cell_angle_beta	99.66
_cell_angle_gamma	90
loop_
_atom_site_label
_atom_site_type_symbol
_atom_site_fract_x
_atom_site_fract_y
_atom_site_fract_z
_atom_site_charge
Mof_Mn	Mn	0.67387	0.53518	0.50519	0.833
Mof_Mn	Mn	0.7458	0.256	0.4987	0.44
Mof_C 	C 	0.77511	0.436	0.61449	-0.278
Mof_C 	C 	0.79659	0.3389	0.63604	0.231
Mof_H 	H 	0.7933	0.2628	0.6247	-0.037
Mof_C 	C 	0.823	0.3494	0.67405	-0.345
Mof_H 	H 	0.8366	0.2813	0.6882	0.155
Mof_C 	C 	0.8288	0.4617	0.69068	0.342
Mof_C 	C 	0.8069	0.5604	0.66949	-0.35
Mof_H 	H 	0.8096	0.6365	0.6809	0.164
Mof_C 	C 	0.7814	0.5476	0.63223	0.238
Mof_H 	H 	0.7678	0.6158	0.6182	-0.041
Mof_C 	C 	0.88705	0.3906	0.74925	0.017
Mof_H 	H 	0.8623	0.3313	0.7581	0.04
Mof_H 	H 	0.9106	0.3504	0.7332	0.037
Mof_C 	C 	0.92372	0.4523	0.78396	0.019
Mof_C 	C 	0.96422	0.5406	0.76973	-0.027
Mof_H 	H 	0.9862	0.583	0.7914	0.055
Mof_H 	H 	0.9434	0.5996	0.7524	0.054
Mof_C 	C 	0.8874	0.5196	0.80835	0.017
Mof_H 	H 	0.8664	0.5834	0.7933	0.043
Mof_H 	H 	0.9108	0.5555	0.8308	0.038
Mof_C 	C 	0.95557	0.3513	0.80827	0.028
Mof_H 	H 	0.9763	0.3023	0.7925	0.032
Mof_H 	H 	0.9293	0.2998	0.819	0.032
Mof_C 	C 	0.02292	0.3386	0.86686	0.347
Mof_C 	C 	0.0667	0.393	0.89057	-0.34
Mof_H 	H 	0.0751	0.4733	0.8864	0.165
Mof_C 	C 	0.09846	0.3313	0.92043	0.223
Mof_H 	H 	0.1284	0.37	0.936	-0.031
Mof_C 	C 	0.08681	0.2138	0.92763	-0.245
Mof_C 	C 	0.1224	0.1404	0.95926	0.419
Mof_C 	C 	0.0425	0.1583	0.90371	0.203
Mof_H 	H 	0.0337	0.0782	0.908	-0.026
Mof_C 	C 	0.0109	0.2214	0.87329	-0.329
Mof_H 	H 	0.9814	0.1832	0.8572	0.143
Mof_C 	C 	0.7481	0.4238	0.57305	0.448
Mof_C 	C 	0.7583	0.4936	0.95696	0.422
Mof_C 	C 	0.78237	0.4789	0.92048	-0.233
Mof_C 	C 	0.782	0.3691	0.90201	0.189
Mof_H 	H 	0.7666	0.3023	0.9125	-0.022
Mof_C 	C 	0.8275	0.4548	0.85315	0.306
Mof_C 	C 	0.8282	0.5666	0.87074	-0.298
Mof_H 	H 	0.8433	0.6335	0.8601	0.138
Mof_C 	C 	0.8038	0.3562	0.86848	-0.303
Mof_H 	H 	0.8027	0.2816	0.8561	0.145
Mof_C 	C 	0.8056	0.5765	0.90481	0.183
Mof_H 	H 	0.8064	0.6509	0.9172	-0.014
Mof_O 	O 	0.85449	0.4852	0.72782	-0.257
Mof_O 	O 	0.84937	0.4334	0.82037	-0.251
Mof_O 	O 	0.99356	0.4086	0.83865	-0.266
Mof_O 	O 	0.7505	0.3242	0.55702	-0.383
Mof_O 	O 	0.72506	0.5173	0.55694	-0.427
Mof_O 	O 	0.72513	0.413	0.96501	-0.39
Mof_O 	O 	0.11142	0.0323	0.96194	-0.406
Mof_O 	O 	0.16083	0.1942	0.98152	-0.391
Mof_O 	O 	0.7727	0.5834	0.97762	-0.386
Mof_Mn	Mn	0.17387	0.03518	0.50519	0.835
Mof_Mn	Mn	0.2458	0.756	0.4987	0.441
Mof_C 	C 	0.27511	0.936	0.61449	-0.277
Mof_C 	C 	0.29659	0.8389	0.63604	0.232
Mof_H 	H 	0.2933	0.7628	0.6247	-0.036
Mof_C 	C 	0.323	0.8494	0.67405	-0.344
Mof_H 	H 	0.3366	0.7813	0.6882	0.155
Mof_C 	C 	0.3288	0.9617	0.69068	0.342
Mof_C 	C 	0.3069	0.0604	0.66949	-0.35
Mof_H 	H 	0.3096	0.1365	0.6809	0.164
Mof_C 	C 	0.2814	0.0476	0.63223	0.238
Mof_H 	H 	0.2678	0.1158	0.6182	-0.041
Mof_C 	C 	0.38705	0.8906	0.74925	0.017
Mof_H 	H 	0.3623	0.8313	0.7581	0.041
Mof_H 	H 	0.4106	0.8504	0.7332	0.038
Mof_C 	C 	0.42372	0.9523	0.78396	0.019
Mof_C 	C 	0.46422	0.0406	0.76973	-0.022
Mof_H 	H 	0.4862	0.083	0.7914	0.055
Mof_H 	H 	0.4434	0.0996	0.7524	0.053
Mof_C 	C 	0.3874	0.0196	0.80835	0.017
Mof_H 	H 	0.3664	0.0834	0.7933	0.043
Mof_H 	H 	0.4108	0.0555	0.8308	0.038
Mof_C 	C 	0.45557	0.8513	0.80827	0.027
Mof_H 	H 	0.4763	0.8023	0.7925	0.034
Mof_H 	H 	0.4293	0.7998	0.819	0.033
Mof_C 	C 	0.52292	0.8386	0.86686	0.347
Mof_C 	C 	0.5667	0.893	0.89057	-0.342
Mof_H 	H 	0.5751	0.9733	0.8864	0.165
Mof_C 	C 	0.59846	0.8313	0.92043	0.226
Mof_H 	H 	0.6284	0.87	0.936	-0.032
Mof_C 	C 	0.58681	0.7138	0.92763	-0.248
Mof_C 	C 	0.6224	0.6404	0.95926	0.42
Mof_C 	C 	0.5425	0.6583	0.90371	0.209
Mof_H 	H 	0.5337	0.5782	0.908	-0.03
Mof_C 	C 	0.5109	0.7214	0.87329	-0.34
Mof_H 	H 	0.4814	0.6832	0.8572	0.15
Mof_C 	C 	0.2481	0.9238	0.57305	0.448
Mof_C 	C 	0.2583	0.9936	0.95696	0.422
Mof_C 	C 	0.28237	0.9789	0.92048	-0.233
Mof_C 	C 	0.282	0.8691	0.90201	0.189
Mof_H 	H 	0.2666	0.8023	0.9125	-0.022
Mof_C 	C 	0.3275	0.9548	0.85315	0.306
Mof_C 	C 	0.3282	0.0666	0.87074	-0.298
Mof_H 	H 	0.3433	0.1335	0.8601	0.138
Mof_C 	C 	0.3038	0.8562	0.86848	-0.303
Mof_H 	H 	0.3027	0.7816	0.8561	0.146
Mof_C 	C 	0.3056	0.0765	0.90481	0.183
Mof_H 	H 	0.3064	0.1509	0.9172	-0.014
Mof_O 	O 	0.35449	0.9852	0.72782	-0.257
Mof_O 	O 	0.34937	0.9334	0.82037	-0.251
Mof_O 	O 	0.49356	0.9086	0.83865	-0.263
Mof_O 	O 	0.2505	0.8242	0.55702	-0.383
Mof_O 	O 	0.22506	0.0173	0.55694	-0.427
Mof_O 	O 	0.22513	0.913	0.96501	-0.39
Mof_O 	O 	0.61142	0.5323	0.96194	-0.407
Mof_O 	O 	0.66083	0.6942	0.98152	-0.392
Mof_O 	O 	0.2727	0.0834	0.97762	-0.386
Mof_Mn	Mn	0.32613	0.53518	0.99481	0.835
Mof_Mn	Mn	0.2542	0.256	0.0013	0.442
Mof_C 	C 	0.22489	0.436	0.88551	-0.277
Mof_C 	C 	0.20341	0.3389	0.86396	0.233
Mof_H 	H 	0.2067	0.2628	0.8753	-0.036
Mof_C 	C 	0.177	0.3494	0.82595	-0.344
Mof_H 	H 	0.1634	0.2813	0.8118	0.156
Mof_C 	C 	0.1712	0.4617	0.80932	0.342
Mof_C 	C 	0.1931	0.5604	0.83051	-0.35
Mof_H 	H 	0.1904	0.6365	0.8191	0.164
Mof_C 	C 	0.2186	0.5476	0.86777	0.238
Mof_H 	H 	0.2322	0.6158	0.8818	-0.041
Mof_C 	C 	0.11295	0.3906	0.75075	0.015
Mof_H 	H 	0.1377	0.3313	0.7419	0.041
Mof_H 	H 	0.0894	0.3504	0.7668	0.039
Mof_C 	C 	0.07628	0.4523	0.71604	0.021
Mof_C 	C 	0.03578	0.5406	0.73027	-0.025
Mof_H 	H 	0.0138	0.583	0.7086	0.057
Mof_H 	H 	0.0566	0.5996	0.7476	0.055
Mof_C 	C 	0.1126	0.5196	0.69165	0.015
Mof_H 	H 	0.1336	0.5834	0.7067	0.044
Mof_H 	H 	0.0892	0.5555	0.6692	0.039
Mof_C 	C 	0.04443	0.3513	0.69173	0.025
Mof_H 	H 	0.0237	0.3023	0.7075	0.035
Mof_H 	H 	0.0707	0.2998	0.681	0.034
Mof_C 	C 	0.97708	0.3386	0.63314	0.347
Mof_C 	C 	0.9333	0.393	0.60943	-0.344
Mof_H 	H 	0.9249	0.4733	0.6136	0.165
Mof_C 	C 	0.90154	0.3313	0.57957	0.228
Mof_H 	H 	0.8716	0.37	0.564	-0.033
Mof_C 	C 	0.91319	0.2138	0.57237	-0.252
Mof_C 	C 	0.8776	0.1404	0.54074	0.421
Mof_C 	C 	0.9575	0.1583	0.59629	0.214
Mof_H 	H 	0.9663	0.0782	0.592	-0.033
Mof_C 	C 	0.9891	0.2214	0.62671	-0.35
Mof_H 	H 	0.0186	0.1832	0.6428	0.156
Mof_C 	C 	0.2519	0.4238	0.92695	0.448
Mof_C 	C 	0.2417	0.4936	0.54304	0.422
Mof_C 	C 	0.21763	0.4789	0.57952	-0.233
Mof_C 	C 	0.218	0.3691	0.59799	0.189
Mof_H 	H 	0.2334	0.3023	0.5875	-0.022
Mof_C 	C 	0.1725	0.4548	0.64685	0.306
Mof_C 	C 	0.1718	0.5666	0.62926	-0.298
Mof_H 	H 	0.1567	0.6335	0.6399	0.139
Mof_C 	C 	0.1962	0.3562	0.63152	-0.302
Mof_H 	H 	0.1973	0.2816	0.6439	0.146
Mof_C 	C 	0.1944	0.5765	0.59519	0.183
Mof_H 	H 	0.1936	0.6509	0.5828	-0.014
Mof_O 	O 	0.14551	0.4852	0.77218	-0.257
Mof_O 	O 	0.15063	0.4334	0.67963	-0.251
Mof_O 	O 	0.00644	0.4086	0.66135	-0.26
Mof_O 	O 	0.2495	0.3242	0.94298	-0.383
Mof_O 	O 	0.27494	0.5173	0.94306	-0.427
Mof_O 	O 	0.27487	0.413	0.53499	-0.39
Mof_O 	O 	0.88858	0.0323	0.53806	-0.408
Mof_O 	O 	0.83917	0.1942	0.51848	-0.393
Mof_O 	O 	0.2273	0.5834	0.52238	-0.386
Mof_Mn	Mn	0.82613	0.03518	0.99481	0.833
Mof_Mn	Mn	0.7542	0.756	0.0013	0.441
Mof_C 	C 	0.72489	0.936	0.88551	-0.277
Mof_C 	C 	0.70341	0.8389	0.86396	0.232
Mof_H 	H 	0.7067	0.7628	0.8753	-0.036
Mof_C 	C 	0.677	0.8494	0.82595	-0.344
Mof_H 	H 	0.6634	0.7813	0.8118	0.155
Mof_C 	C 	0.6712	0.9617	0.80932	0.342
Mof_C 	C 	0.6931	0.0604	0.83051	-0.35
Mof_H 	H 	0.6904	0.1365	0.8191	0.164
Mof_C 	C 	0.7186	0.0476	0.86777	0.238
Mof_H 	H 	0.7322	0.1158	0.8818	-0.041
Mof_C 	C 	0.61295	0.8906	0.75075	0.017
Mof_H 	H 	0.6377	0.8313	0.7419	0.041
Mof_H 	H 	0.5894	0.8504	0.7668	0.038
Mof_C 	C 	0.57628	0.9523	0.71604	0.019
Mof_C 	C 	0.53578	0.0406	0.73027	-0.022
Mof_H 	H 	0.5138	0.083	0.7086	0.055
Mof_H 	H 	0.5566	0.0996	0.7476	0.053
Mof_C 	C 	0.6126	0.0196	0.69165	0.017
Mof_H 	H 	0.6336	0.0834	0.7067	0.043
Mof_H 	H 	0.5892	0.0555	0.6692	0.038
Mof_C 	C 	0.54443	0.8513	0.69173	0.027
Mof_H 	H 	0.5237	0.8023	0.7075	0.034
Mof_H 	H 	0.5707	0.7998	0.681	0.033
Mof_C 	C 	0.47708	0.8386	0.63314	0.347
Mof_C 	C 	0.4333	0.893	0.60943	-0.342
Mof_H 	H 	0.4249	0.9733	0.6136	0.165
Mof_C 	C 	0.40154	0.8313	0.57957	0.226
Mof_H 	H 	0.3716	0.87	0.564	-0.032
Mof_C 	C 	0.41319	0.7138	0.57237	-0.248
Mof_C 	C 	0.3776	0.6404	0.54074	0.42
Mof_C 	C 	0.4575	0.6583	0.59629	0.209
Mof_H 	H 	0.4663	0.5782	0.592	-0.03
Mof_C 	C 	0.4891	0.7214	0.62671	-0.34
Mof_H 	H 	0.5186	0.6832	0.6428	0.15
Mof_C 	C 	0.7519	0.9238	0.92695	0.448
Mof_C 	C 	0.7417	0.9936	0.54304	0.422
Mof_C 	C 	0.71763	0.9789	0.57952	-0.233
Mof_C 	C 	0.718	0.8691	0.59799	0.189
Mof_H 	H 	0.7334	0.8023	0.5875	-0.022
Mof_C 	C 	0.6725	0.9548	0.64685	0.306
Mof_C 	C 	0.6718	0.0666	0.62926	-0.298
Mof_H 	H 	0.6567	0.1335	0.6399	0.138
Mof_C 	C 	0.6962	0.8562	0.63152	-0.303
Mof_H 	H 	0.6973	0.7816	0.6439	0.146
Mof_C 	C 	0.6944	0.0765	0.59519	0.183
Mof_H 	H 	0.6936	0.1509	0.5828	-0.014
Mof_O 	O 	0.64551	0.9852	0.77218	-0.257
Mof_O 	O 	0.65063	0.9334	0.67963	-0.251
Mof_O 	O 	0.50644	0.9086	0.66135	-0.263
Mof_O 	O 	0.7495	0.8242	0.94298	-0.383
Mof_O 	O 	0.77494	0.0173	0.94306	-0.427
Mof_O 	O 	0.77487	0.913	0.53499	-0.39
Mof_O 	O 	0.38858	0.5323	0.53806	-0.407
Mof_O 	O 	0.33917	0.6942	0.51848	-0.392
Mof_O 	O 	0.7273	0.0834	0.52238	-0.386
Mof_Mn	Mn	0.32613	0.46482	0.49481	0.834
Mof_Mn	Mn	0.2542	0.744	0.5013	0.441
Mof_C 	C 	0.22489	0.564	0.38551	-0.277
Mof_C 	C 	0.20341	0.6611	0.36396	0.233
Mof_H 	H 	0.2067	0.7372	0.3753	-0.036
Mof_C 	C 	0.177	0.6506	0.32595	-0.344
Mof_H 	H 	0.1634	0.7187	0.3118	0.156
Mof_C 	C 	0.1712	0.5383	0.30932	0.342
Mof_C 	C 	0.1931	0.4396	0.33051	-0.35
Mof_H 	H 	0.1904	0.3635	0.3191	0.164
Mof_C 	C 	0.2186	0.4524	0.36777	0.238
Mof_H 	H 	0.2322	0.3842	0.3818	-0.041
Mof_C 	C 	0.11295	0.6094	0.25075	0.015
Mof_H 	H 	0.1377	0.6687	0.2419	0.041
Mof_H 	H 	0.0894	0.6496	0.2668	0.039
Mof_C 	C 	0.07628	0.5477	0.21604	0.021
Mof_C 	C 	0.03578	0.4594	0.23027	-0.024
Mof_H 	H 	0.0138	0.417	0.2086	0.057
Mof_H 	H 	0.0566	0.4004	0.2476	0.055
Mof_C 	C 	0.1126	0.4804	0.19165	0.015
Mof_H 	H 	0.1336	0.4166	0.2067	0.043
Mof_H 	H 	0.0892	0.4445	0.1692	0.039
Mof_C 	C 	0.04443	0.6487	0.19173	0.025
Mof_H 	H 	0.0237	0.6977	0.2075	0.035
Mof_H 	H 	0.0707	0.7002	0.181	0.034
Mof_C 	C 	0.97708	0.6614	0.13314	0.347
Mof_C 	C 	0.9333	0.607	0.10943	-0.344
Mof_H 	H 	0.9249	0.5267	0.1136	0.165
Mof_C 	C 	0.90154	0.6687	0.07957	0.228
Mof_H 	H 	0.8716	0.63	0.064	-0.032
Mof_C 	C 	0.91319	0.7862	0.07237	-0.251
Mof_C 	C 	0.8776	0.8596	0.04074	0.421
Mof_C 	C 	0.9575	0.8417	0.09629	0.214
Mof_H 	H 	0.9663	0.9218	0.092	-0.032
Mof_C 	C 	0.9891	0.7786	0.12671	-0.35
Mof_H 	H 	0.0186	0.8168	0.1428	0.156
Mof_C 	C 	0.2519	0.5762	0.42695	0.448
Mof_C 	C 	0.2417	0.5064	0.04304	0.422
Mof_C 	C 	0.21763	0.5211	0.07952	-0.233
Mof_C 	C 	0.218	0.6309	0.09799	0.189
Mof_H 	H 	0.2334	0.6977	0.0875	-0.022
Mof_C 	C 	0.1725	0.5452	0.14685	0.306
Mof_C 	C 	0.1718	0.4334	0.12926	-0.298
Mof_H 	H 	0.1567	0.3665	0.1399	0.139
Mof_C 	C 	0.1962	0.6438	0.13152	-0.302
Mof_H 	H 	0.1973	0.7184	0.1439	0.146
Mof_C 	C 	0.1944	0.4235	0.09519	0.183
Mof_H 	H 	0.1936	0.3491	0.0828	-0.014
Mof_O 	O 	0.14551	0.5148	0.27218	-0.257
Mof_O 	O 	0.15063	0.5666	0.17963	-0.251
Mof_O 	O 	0.00644	0.5914	0.16135	-0.261
Mof_O 	O 	0.2495	0.6758	0.44298	-0.383
Mof_O 	O 	0.27494	0.4827	0.44306	-0.427
Mof_O 	O 	0.27487	0.587	0.03499	-0.39
Mof_O 	O 	0.88858	0.9677	0.03806	-0.408
Mof_O 	O 	0.83917	0.8058	0.01848	-0.392
Mof_O 	O 	0.2273	0.4166	0.02238	-0.386
Mof_Mn	Mn	0.82613	0.96482	0.49481	0.833
Mof_Mn	Mn	0.7542	0.244	0.5013	0.441
Mof_C 	C 	0.72489	0.064	0.38551	-0.277
Mof_C 	C 	0.70341	0.1611	0.36396	0.232
Mof_H 	H 	0.7067	0.2372	0.3753	-0.036
Mof_C 	C 	0.677	0.1506	0.32595	-0.344
Mof_H 	H 	0.6634	0.2187	0.3118	0.155
Mof_C 	C 	0.6712	0.0383	0.30932	0.342
Mof_C 	C 	0.6931	0.9396	0.33051	-0.35
Mof_H 	H 	0.6904	0.8635	0.3191	0.164
Mof_C 	C 	0.7186	0.9524	0.36777	0.238
Mof_H 	H 	0.7322	0.8842	0.3818	-0.041
Mof_C 	C 	0.61295	0.1094	0.25075	0.017
Mof_H 	H 	0.6377	0.1687	0.2419	0.041
Mof_H 	H 	0.5894	0.1496	0.2668	0.038
Mof_C 	C 	0.57628	0.0477	0.21604	0.019
Mof_C 	C 	0.53578	0.9594	0.23027	-0.022
Mof_H 	H 	0.5138	0.917	0.2086	0.055
Mof_H 	H 	0.5566	0.9004	0.2476	0.053
Mof_C 	C 	0.6126	0.9804	0.19165	0.017
Mof_H 	H 	0.6336	0.9166	0.2067	0.043
Mof_H 	H 	0.5892	0.9445	0.1692	0.038
Mof_C 	C 	0.54443	0.1487	0.19173	0.027
Mof_H 	H 	0.5237	0.1977	0.2075	0.034
Mof_H 	H 	0.5707	0.2002	0.181	0.033
Mof_C 	C 	0.47708	0.1614	0.13314	0.347
Mof_C 	C 	0.4333	0.107	0.10943	-0.342
Mof_H 	H 	0.4249	0.0267	0.1136	0.165
Mof_C 	C 	0.40154	0.1687	0.07957	0.226
Mof_H 	H 	0.3716	0.13	0.064	-0.032
Mof_C 	C 	0.41319	0.2862	0.07237	-0.248
Mof_C 	C 	0.3776	0.3596	0.04074	0.42
Mof_C 	C 	0.4575	0.3417	0.09629	0.209
Mof_H 	H 	0.4663	0.4218	0.092	-0.03
Mof_C 	C 	0.4891	0.2786	0.12671	-0.34
Mof_H 	H 	0.5186	0.3168	0.1428	0.15
Mof_C 	C 	0.7519	0.0762	0.42695	0.448
Mof_C 	C 	0.7417	0.0064	0.04304	0.422
Mof_C 	C 	0.71763	0.0211	0.07952	-0.233
Mof_C 	C 	0.718	0.1309	0.09799	0.189
Mof_H 	H 	0.7334	0.1977	0.0875	-0.022
Mof_C 	C 	0.6725	0.0452	0.14685	0.306
Mof_C 	C 	0.6718	0.9334	0.12926	-0.298
Mof_H 	H 	0.6567	0.8665	0.1399	0.138
Mof_C 	C 	0.6962	0.1438	0.13152	-0.303
Mof_H 	H 	0.6973	0.2184	0.1439	0.146
Mof_C 	C 	0.6944	0.9235	0.09519	0.183
Mof_H 	H 	0.6936	0.8491	0.0828	-0.014
Mof_O 	O 	0.64551	0.0148	0.27218	-0.257
Mof_O 	O 	0.65063	0.0666	0.17963	-0.251
Mof_O 	O 	0.50644	0.0914	0.16135	-0.263
Mof_O 	O 	0.7495	0.1758	0.44298	-0.383
Mof_O 	O 	0.77494	0.9827	0.44306	-0.427
Mof_O 	O 	0.77487	0.087	0.03499	-0.39
Mof_O 	O 	0.38858	0.4677	0.03806	-0.408
Mof_O 	O 	0.33917	0.3058	0.01848	-0.392
Mof_O 	O 	0.7273	0.9166	0.02238	-0.386
Mof_Mn	Mn	0.67387	0.46482	0.00519	0.834
Mof_Mn	Mn	0.7458	0.744	0.9987	0.442
Mof_C 	C 	0.77511	0.564	0.11449	-0.277
Mof_C 	C 	0.79659	0.6611	0.13604	0.232
Mof_H 	H 	0.7933	0.7372	0.1247	-0.036
Mof_C 	C 	0.823	0.6506	0.17405	-0.344
Mof_H 	H 	0.8366	0.7187	0.1882	0.155
Mof_C 	C 	0.8288	0.5383	0.19068	0.342
Mof_C 	C 	0.8069	0.4396	0.16949	-0.35
Mof_H 	H 	0.8096	0.3635	0.1809	0.164
Mof_C 	C 	0.7814	0.4524	0.13223	0.238
Mof_H 	H 	0.7678	0.3842	0.1182	-0.041
Mof_C 	C 	0.88705	0.6094	0.24925	0.017
Mof_H 	H 	0.8623	0.6687	0.2581	0.04
Mof_H 	H 	0.9106	0.6496	0.2332	0.037
Mof_C 	C 	0.92372	0.5477	0.28396	0.019
Mof_C 	C 	0.96422	0.4594	0.26973	-0.026
Mof_H 	H 	0.9862	0.417	0.2914	0.055
Mof_H 	H 	0.9434	0.4004	0.2524	0.054
Mof_C 	C 	0.8874	0.4804	0.30835	0.017
Mof_H 	H 	0.8664	0.4166	0.2933	0.043
Mof_H 	H 	0.9108	0.4445	0.3308	0.038
Mof_C 	C 	0.95557	0.6487	0.30827	0.028
Mof_H 	H 	0.9763	0.6977	0.2925	0.032
Mof_H 	H 	0.9293	0.7002	0.319	0.032
Mof_C 	C 	0.02292	0.6614	0.36686	0.347
Mof_C 	C 	0.0667	0.607	0.39057	-0.34
Mof_H 	H 	0.0751	0.5267	0.3864	0.165
Mof_C 	C 	0.09846	0.6687	0.42043	0.224
Mof_H 	H 	0.1284	0.63	0.436	-0.031
Mof_C 	C 	0.08681	0.7862	0.42763	-0.245
Mof_C 	C 	0.1224	0.8596	0.45926	0.419
Mof_C 	C 	0.0425	0.8417	0.40371	0.203
Mof_H 	H 	0.0337	0.9218	0.408	-0.027
Mof_C 	C 	0.0109	0.7786	0.37329	-0.33
Mof_H 	H 	0.9814	0.8168	0.3572	0.144
Mof_C 	C 	0.7481	0.5762	0.07305	0.448
Mof_C 	C 	0.7583	0.5064	0.45696	0.422
Mof_C 	C 	0.78237	0.5211	0.42048	-0.233
Mof_C 	C 	0.782	0.6309	0.40201	0.189
Mof_H 	H 	0.7666	0.6977	0.4125	-0.022
Mof_C 	C 	0.8275	0.5452	0.35315	0.306
Mof_C 	C 	0.8282	0.4334	0.37074	-0.298
Mof_H 	H 	0.8433	0.3665	0.3601	0.138
Mof_C 	C 	0.8038	0.6438	0.36848	-0.303
Mof_H 	H 	0.8027	0.7184	0.3561	0.145
Mof_C 	C 	0.8056	0.4235	0.40481	0.183
Mof_H 	H 	0.8064	0.3491	0.4172	-0.014
Mof_O 	O 	0.85449	0.5148	0.22782	-0.257
Mof_O 	O 	0.84937	0.5666	0.32037	-0.251
Mof_O 	O 	0.99356	0.5914	0.33865	-0.266
Mof_O 	O 	0.7505	0.6758	0.05702	-0.383
Mof_O 	O 	0.72506	0.4827	0.05694	-0.427
Mof_O 	O 	0.72513	0.587	0.46501	-0.39
Mof_O 	O 	0.11142	0.9677	0.46194	-0.407
Mof_O 	O 	0.16083	0.8058	0.48152	-0.392
Mof_O 	O 	0.7727	0.4166	0.47762	-0.386
Mof_Mn	Mn	0.17387	0.96482	0.00519	0.835
Mof_Mn	Mn	0.2458	0.244	0.9987	0.441
Mof_C 	C 	0.27511	0.064	0.11449	-0.277
Mof_C 	C 	0.29659	0.1611	0.13604	0.232
Mof_H 	H 	0.2933	0.2372	0.1247	-0.036
Mof_C 	C 	0.323	0.1506	0.17405	-0.344
Mof_H 	H 	0.3366	0.2187	0.1882	0.155
Mof_C 	C 	0.3288	0.0383	0.19068	0.342
Mof_C 	C 	0.3069	0.9396	0.16949	-0.35
Mof_H 	H 	0.3096	0.8635	0.1809	0.164
Mof_C 	C 	0.2814	0.9524	0.13223	0.238
Mof_H 	H 	0.2678	0.8842	0.1182	-0.041
Mof_C 	C 	0.38705	0.1094	0.24925	0.017
Mof_H 	H 	0.3623	0.1687	0.2581	0.041
Mof_H 	H 	0.4106	0.1496	0.2332	0.038
Mof_C 	C 	0.42372	0.0477	0.28396	0.019
Mof_C 	C 	0.46422	0.9594	0.26973	-0.022
Mof_H 	H 	0.4862	0.917	0.2914	0.055
Mof_H 	H 	0.4434	0.9004	0.2524	0.053
Mof_C 	C 	0.3874	0.9804	0.30835	0.017
Mof_H 	H 	0.3664	0.9166	0.2933	0.043
Mof_H 	H 	0.4108	0.9445	0.3308	0.038
Mof_C 	C 	0.45557	0.1487	0.30827	0.027
Mof_H 	H 	0.4763	0.1977	0.2925	0.034
Mof_H 	H 	0.4293	0.2002	0.319	0.033
Mof_C 	C 	0.52292	0.1614	0.36686	0.347
Mof_C 	C 	0.5667	0.107	0.39057	-0.342
Mof_H 	H 	0.5751	0.0267	0.3864	0.165
Mof_C 	C 	0.59846	0.1687	0.42043	0.226
Mof_H 	H 	0.6284	0.13	0.436	-0.032
Mof_C 	C 	0.58681	0.2862	0.42763	-0.248
Mof_C 	C 	0.6224	0.3596	0.45926	0.42
Mof_C 	C 	0.5425	0.3417	0.40371	0.209
Mof_H 	H 	0.5337	0.4218	0.408	-0.03
Mof_C 	C 	0.5109	0.2786	0.37329	-0.34
Mof_H 	H 	0.4814	0.3168	0.3572	0.15
Mof_C 	C 	0.2481	0.0762	0.07305	0.448
Mof_C 	C 	0.2583	0.0064	0.45696	0.422
Mof_C 	C 	0.28237	0.0211	0.42048	-0.233
Mof_C 	C 	0.282	0.1309	0.40201	0.189
Mof_H 	H 	0.2666	0.1977	0.4125	-0.022
Mof_C 	C 	0.3275	0.0452	0.35315	0.306
Mof_C 	C 	0.3282	0.9334	0.37074	-0.298
Mof_H 	H 	0.3433	0.8665	0.3601	0.138
Mof_C 	C 	0.3038	0.1438	0.36848	-0.303
Mof_H 	H 	0.3027	0.2184	0.3561	0.146
Mof_C 	C 	0.3056	0.9235	0.40481	0.183
Mof_H 	H 	0.3064	0.8491	0.4172	-0.014
Mof_O 	O 	0.35449	0.0148	0.22782	-0.257
Mof_O 	O 	0.34937	0.0666	0.32037	-0.251
Mof_O 	O 	0.49356	0.0914	0.33865	-0.263
Mof_O 	O 	0.2505	0.1758	0.05702	-0.383
Mof_O 	O 	0.22506	0.9827	0.05694	-0.427
Mof_O 	O 	0.22513	0.087	0.46501	-0.39
Mof_O 	O 	0.61142	0.4677	0.46194	-0.407
Mof_O 	O 	0.66083	0.3058	0.48152	-0.392
Mof_O 	O 	0.2727	0.9166	0.47762	-0.386
Mof_O 	O 	4.78781e-33	0.4721	0.75	-0.159
Mof_O 	O 	0.5	0.9721	0.75	-0.163
Mof_O 	O 	1.23974e-17	0.5279	0.25	-0.159
Mof_O 	O 	0.5	0.0279	0.25	-0.163
_end
