# CIF file generated by openbabel 3.1.0, see https://openbabel.org
data_I
_chemical_name_common 'image0'
_cell_length_a 10.4237
_cell_length_b 14.7281
_cell_length_c 25.599
_cell_angle_alpha 81.665
_cell_angle_beta 82.26
_cell_angle_gamma 71.667
_space_group_name_H-M_alt 'P 1'
_space_group_name_Hall 'P 1'
loop_
    _symmetry_equiv_pos_as_xyz
    x,y,z
loop_
    _atom_site_label
    _atom_site_type_symbol
    _atom_site_fract_x
    _atom_site_fract_y
    _atom_site_fract_z
    _atom_site_occupancy
    U1       U        0.03588    0.57406    0.32523    1.000
    U2       U        0.52521    0.09864    0.82611    1.000
    Si1      Si       0.72190    0.11017    0.47236    1.000
    Si2      Si       0.15720    0.63700    0.96918    1.000
    O1       O        0.47800    0.94710    0.82920    1.000
    O2       O        0.55160    0.03970    0.73950    1.000
    O3       O        0.61000    0.17160    0.73890    1.000
    O4       O        0.48510    0.17640    0.90800    1.000
    O5       O        0.54140    0.25730    0.83410    1.000
    O6       O        0.46900    0.99650    0.90600    1.000
    O7       O        0.84840    0.72070    0.33700    1.000
    O8       O        0.94270    0.64230    0.40910    1.000
    O9       O        0.13490    0.47040    0.40530    1.000
    O10      O        0.23220    0.42720    0.32670    1.000
    O11      O        0.13650    0.52430    0.23850    1.000
    O12      O        0.95710    0.65330    0.23800    1.000
    C1       C        0.74450    0.16210    0.57460    1.000
    H1       H        0.79640    0.20140    0.55600    1.000
    C2       C        0.70400    0.10430    0.54680    1.000
    C3       C        0.71180    0.16460    0.62900    1.000
    H2       H        0.73650    0.20780    0.64690    1.000
    C4       C        0.64250    0.10310    0.65670    1.000
    C5       C        0.74840    0.98810    0.45140    1.000
    C6       C        0.83440    0.90610    0.47670    1.000
    H3       H        0.86830    0.91050    0.50860    1.000
    C7       C        0.87170    0.81820    0.45670    1.000
    H4       H        0.93190    0.76300    0.47410    1.000
    C8       C        0.81920    0.81160    0.40980    1.000
    C9       C        0.87060    0.72050    0.38400    1.000
    C10      C        0.59800    0.10440    0.71440    1.000
    C11      C        0.05370    0.59530    0.21270    1.000
    C12      C        0.56550    0.19930    0.44760    1.000
    C13      C        0.44480    0.23730    0.47770    1.000
    H5       H        0.43590    0.21460    0.51430    1.000
    C14      C        0.33550    0.30830    0.45580    1.000
    H6       H        0.25480    0.33400    0.47780    1.000
    C15      C        0.34350    0.34160    0.40210    1.000
    C16      C        0.46210    0.30120    0.36990    1.000
    H7       H        0.46750    0.31960    0.33270    1.000
    C17      C        0.57150    0.23410    0.39290    1.000
    H8       H        0.65360    0.21050    0.37120    1.000
    C18      C        0.69320    0.97840    0.40590    1.000
    H9       H        0.63070    0.03280    0.38890    1.000
    C19      C        0.72980    0.88960    0.38560    1.000
    H10      H        0.69210    0.88370    0.35490    1.000
    C20      C        0.86900    0.24710    0.44040    1.000
    H11      H        0.79770    0.28900    0.46060    1.000
    C21      C        0.86600    0.15200    0.43900    1.000
    C22      C        0.97330    0.09450    0.40770    1.000
    H12      H        0.97690    0.02980    0.40580    1.000
    C23      C        0.60400    0.04160    0.63000    1.000
    H13      H        0.55800    0.99880    0.64910    1.000
    C24      C        0.63300    0.04300    0.57530    1.000
    H14      H        0.60450    0.00210    0.55700    1.000
    C25      C        0.48870    0.25410    0.88280    1.000
    C26      C        0.42280    0.34840    0.90640    1.000
    C27      C        0.35940    0.34580    0.95720    1.000
    H15      H        0.36580    0.28620    0.97820    1.000
    C28      C        0.23030    0.41650    0.37800    1.000
    C29      C        0.07680    0.60720    0.15460    1.000
    C30      C        0.20620    0.58310    0.12900    1.000
    H16      H        0.28160    0.55940    0.14960    1.000
    C31      C        0.96690    0.64380    0.12260    1.000
    H17      H        0.87680    0.66380    0.13910    1.000
    C32      C        0.97110    0.28090    0.41360    1.000
    H18      H        0.97040    0.34500    0.41570    1.000
    C33      C        0.07480    0.22110    0.38350    1.000
    H19      H        0.14670    0.24360    0.36560    1.000
    C34      C        0.07400    0.12930    0.37960    1.000
    H20      H        0.14300    0.08960    0.35750    1.000
    C35      C        0.98800    0.65100    0.06830    1.000
    H21      H        0.91280    0.67340    0.04760    1.000
    C36      C        0.22900    0.59220    0.07530    1.000
    H22      H        0.31980    0.57580    0.05930    1.000
    C37      C        0.41320    0.43570    0.87480    1.000
    H23      H        0.45570    0.43710    0.83960    1.000
    C38      C        0.34060    0.51950    0.89630    1.000
    H24      H        0.33540    0.57890    0.87520    1.000
    C39      C        0.28480    0.43330    0.97720    1.000
    H25      H        0.24050    0.43190    0.01210    1.000
    C40      C        0.23470    0.73450    0.94580    1.000
    C41      C        0.31110    0.76650    0.97600    1.000
    H26      H        0.31500    0.74240    0.01240    1.000
    C42      C        0.38070    0.83110    0.95560    1.000
    H27      H        0.42710    0.85280    0.97840    1.000
    C43      C        0.12210    0.62510    0.04310    1.000
    C44      C        0.27390    0.52160    0.94740    1.000
    C45      C        0.00060    0.67180    0.93430    1.000
    C46      C        0.96740    0.61350    0.90410    1.000
    H28      H        0.02680    0.54990    0.90230    1.000
    C47      C        0.85390    0.64110    0.87650    1.000
    H29      H        0.83640    0.59750    0.85650    1.000
    C48      C        0.32250    0.82880    0.87150    1.000
    H30      H        0.33390    0.84400    0.83420    1.000
    C49      C        0.38370    0.86390    0.90360    1.000
    C50      C        0.90800    0.76120    0.93750    1.000
    H31      H        0.92450    0.80400    0.95830    1.000
    C51      C        0.76690    0.73240    0.87840    1.000
    H32      H        0.69290    0.75390    0.85710    1.000
    C52      C        0.24090    0.76900    0.89390    1.000
    H33      H        0.18830    0.75250    0.87130    1.000
    C53      C        0.78400    0.79300    0.91020    1.000
    H34      H        0.71880    0.85370    0.91450    1.000
    C54      C        0.45040    0.93660    0.87900    1.000
    U3       U        0.96412    0.42594    0.67477    1.000
    U4       U        0.47479    0.90136    0.17389    1.000
    Si3      Si       0.27810    0.88983    0.52764    1.000
    Si4      Si       0.84280    0.36300    0.03082    1.000
    O13      O        0.52200    0.05290    0.17080    1.000
    O14      O        0.44840    0.96030    0.26050    1.000
    O15      O        0.39000    0.82840    0.26110    1.000
    O16      O        0.51490    0.82360    0.09200    1.000
    O17      O        0.45860    0.74270    0.16590    1.000
    O18      O        0.53100    0.00350    0.09400    1.000
    O19      O        0.15160    0.27930    0.66300    1.000
    O20      O        0.05730    0.35770    0.59090    1.000
    O21      O        0.86510    0.52960    0.59470    1.000
    O22      O        0.76780    0.57280    0.67330    1.000
    O23      O        0.86350    0.47570    0.76150    1.000
    O24      O        0.04290    0.34670    0.76200    1.000
    C55      C        0.25550    0.83790    0.42540    1.000
    H35      H        0.20360    0.79860    0.44400    1.000
    C56      C        0.29600    0.89570    0.45320    1.000
    C57      C        0.28820    0.83540    0.37100    1.000
    H36      H        0.26350    0.79220    0.35310    1.000
    C58      C        0.35750    0.89690    0.34330    1.000
    C59      C        0.25160    0.01190    0.54860    1.000
    C60      C        0.16560    0.09390    0.52330    1.000
    H37      H        0.13170    0.08950    0.49140    1.000
    C61      C        0.12830    0.18180    0.54330    1.000
    H38      H        0.06810    0.23700    0.52590    1.000
    C62      C        0.18080    0.18840    0.59020    1.000
    C63      C        0.12940    0.27950    0.61600    1.000
    C64      C        0.40200    0.89560    0.28560    1.000
    C65      C        0.94630    0.40470    0.78730    1.000
    C66      C        0.43450    0.80070    0.55240    1.000
    C67      C        0.55520    0.76270    0.52230    1.000
    H39      H        0.56410    0.78540    0.48570    1.000
    C68      C        0.66450    0.69170    0.54420    1.000
    H40      H        0.74520    0.66600    0.52220    1.000
    C69      C        0.65650    0.65840    0.59790    1.000
    C70      C        0.53790    0.69880    0.63010    1.000
    H41      H        0.53250    0.68040    0.66730    1.000
    C71      C        0.42850    0.76590    0.60710    1.000
    H42      H        0.34640    0.78950    0.62880    1.000
    C72      C        0.30680    0.02160    0.59410    1.000
    H43      H        0.36930    0.96720    0.61110    1.000
    C73      C        0.27020    0.11040    0.61440    1.000
    H44      H        0.30790    0.11630    0.64510    1.000
    C74      C        0.13100    0.75290    0.55960    1.000
    H45      H        0.20230    0.71100    0.53940    1.000
    C75      C        0.13400    0.84800    0.56100    1.000
    C76      C        0.02670    0.90550    0.59230    1.000
    H46      H        0.02310    0.97020    0.59420    1.000
    C77      C        0.39600    0.95840    0.37000    1.000
    H47      H        0.44200    0.00120    0.35090    1.000
    C78      C        0.36700    0.95700    0.42470    1.000
    H48      H        0.39550    0.99790    0.44300    1.000
    C79      C        0.51130    0.74590    0.11720    1.000
    C80      C        0.57720    0.65160    0.09360    1.000
    C81      C        0.64060    0.65420    0.04280    1.000
    H49      H        0.63420    0.71380    0.02180    1.000
    C82      C        0.76970    0.58350    0.62200    1.000
    C83      C        0.92320    0.39280    0.84540    1.000
    C84      C        0.79380    0.41690    0.87100    1.000
    H50      H        0.71840    0.44060    0.85040    1.000
    C85      C        0.03310    0.35620    0.87740    1.000
    H51      H        0.12320    0.33620    0.86090    1.000
    C86      C        0.02890    0.71910    0.58640    1.000
    H52      H        0.02960    0.65500    0.58430    1.000
    C87      C        0.92520    0.77890    0.61650    1.000
    H53      H        0.85330    0.75640    0.63440    1.000
    C88      C        0.92600    0.87070    0.62040    1.000
    H54      H        0.85700    0.91040    0.64250    1.000
    C89      C        0.01200    0.34900    0.93170    1.000
    H55      H        0.08720    0.32660    0.95240    1.000
    C90      C        0.77100    0.40780    0.92470    1.000
    H56      H        0.68020    0.42420    0.94070    1.000
    C91      C        0.58680    0.56430    0.12520    1.000
    H57      H        0.54430    0.56290    0.16040    1.000
    C92      C        0.65940    0.48050    0.10370    1.000
    H58      H        0.66460    0.42110    0.12480    1.000
    C93      C        0.71520    0.56670    0.02280    1.000
    H59      H        0.75950    0.56810    0.98790    1.000
    C94      C        0.76530    0.26550    0.05420    1.000
    C95      C        0.68890    0.23350    0.02400    1.000
    H60      H        0.68500    0.25760    0.98760    1.000
    C96      C        0.61930    0.16890    0.04440    1.000
    H61      H        0.57290    0.14720    0.02160    1.000
    C97      C        0.87790    0.37490    0.95690    1.000
    C98      C        0.72610    0.47840    0.05260    1.000
    C99      C        0.99940    0.32820    0.06570    1.000
    C100     C        0.03260    0.38650    0.09590    1.000
    H62      H        0.97320    0.45010    0.09770    1.000
    C101     C        0.14610    0.35890    0.12350    1.000
    H63      H        0.16360    0.40250    0.14350    1.000
    C102     C        0.67750    0.17120    0.12850    1.000
    H64      H        0.66610    0.15600    0.16580    1.000
    C103     C        0.61630    0.13610    0.09640    1.000
    C104     C        0.09200    0.23880    0.06250    1.000
    H65      H        0.07550    0.19600    0.04170    1.000
    C105     C        0.23310    0.26760    0.12160    1.000
    H66      H        0.30710    0.24610    0.14290    1.000
    C106     C        0.75910    0.23100    0.10610    1.000
    H67      H        0.81170    0.24750    0.12870    1.000
    C107     C        0.21600    0.20700    0.08980    1.000
    H68      H        0.28120    0.14630    0.08550    1.000
    C108     C        0.54960    0.06340    0.12100    1.000
