data_functionalizedCrystal
_audit_creation_method	'EQeq! by Chris Wilmer'
_symmetry_space_group_name_H-M	'P1'
_symmetry_Int_Tables_number	1
_symmetry_cell_setting	triclinic
loop_
_symmetry_equiv_pos_as_xyz
  x,y,z
_cell_length_a	29.0302
_cell_length_b	29.0302
_cell_length_c	29.0302
_cell_angle_alpha	90
_cell_angle_beta	90
_cell_angle_gamma	90
loop_
_atom_site_label
_atom_site_type_symbol
_atom_site_fract_x
_atom_site_fract_y
_atom_site_fract_z
_atom_site_charge
Mof_C 	C 	0.6056	0.974	0.1799	0.037
Mof_H 	H 	0.6053	0.9546	0.1545	0.024
Mof_C 	C 	0.6595	0.8743	0.1602	0.015
Mof_H 	H 	0.676	0.9017	0.1593	0.033
Mof_N 	N 	0.606	0.9624	0.2225	-0.232
Mof_N 	N 	0.6316	0.8606	0.1946	-0.239
Mof_O 	O 	0.6052	0.9635	0.3174	-0.152
Mof_O 	O 	0.5741	0.7538	0.1935	-0.171
Mof_C 	C 	0.1056	0.474	0.6799	0.029
Mof_H 	H 	0.1053	0.4546	0.6545	0.026
Mof_C 	C 	0.1595	0.3743	0.6602	0.015
Mof_H 	H 	0.176	0.4017	0.6593	0.033
Mof_N 	N 	0.106	0.4624	0.7225	-0.233
Mof_N 	N 	0.1316	0.3606	0.6946	-0.239
Mof_O 	O 	0.1052	0.4635	0.8174	-0.156
Mof_O 	O 	0.0741	0.2538	0.6935	-0.172
Mof_C 	C 	0.3944	0.026	0.1799	0.021
Mof_H 	H 	0.3947	0.0454	0.1545	0.028
Mof_C 	C 	0.3405	0.1257	0.1602	0.014
Mof_H 	H 	0.324	0.0983	0.1593	0.032
Mof_N 	N 	0.394	0.0376	0.2225	-0.232
Mof_N 	N 	0.3684	0.1394	0.1946	-0.239
Mof_O 	O 	0.3948	0.0365	0.3174	-0.157
Mof_O 	O 	0.4259	0.2462	0.1935	-0.171
Mof_C 	C 	0.8944	0.526	0.6799	0.03
Mof_H 	H 	0.8947	0.5454	0.6545	0.027
Mof_C 	C 	0.8405	0.6257	0.6602	0.015
Mof_H 	H 	0.824	0.5983	0.6593	0.033
Mof_N 	N 	0.894	0.5376	0.7225	-0.233
Mof_N 	N 	0.8684	0.6394	0.6946	-0.239
Mof_O 	O 	0.8948	0.5365	0.8174	-0.155
Mof_O 	O 	0.9259	0.7462	0.6935	-0.169
Mof_C 	C 	0.3944	0.974	0.8201	0.037
Mof_H 	H 	0.3947	0.9546	0.8455	0.026
Mof_C 	C 	0.3405	0.8743	0.8398	0.016
Mof_H 	H 	0.324	0.9017	0.8407	0.034
Mof_N 	N 	0.394	0.9624	0.7775	-0.231
Mof_N 	N 	0.3684	0.8606	0.8054	-0.238
Mof_O 	O 	0.3948	0.9635	0.6826	-0.151
Mof_O 	O 	0.4259	0.7538	0.8065	-0.17
Mof_C 	C 	0.8944	0.474	0.3201	0.031
Mof_H 	H 	0.8947	0.4546	0.3455	0.028
Mof_C 	C 	0.8405	0.3743	0.3398	0.016
Mof_H 	H 	0.824	0.4017	0.3407	0.034
Mof_N 	N 	0.894	0.4624	0.2775	-0.232
Mof_N 	N 	0.8684	0.3606	0.3054	-0.238
Mof_O 	O 	0.8948	0.4635	0.1826	-0.155
Mof_O 	O 	0.9259	0.2538	0.3065	-0.169
Mof_C 	C 	0.6056	0.026	0.8201	0.023
Mof_H 	H 	0.6053	0.0454	0.8455	0.029
Mof_C 	C 	0.6595	0.1257	0.8398	0.016
Mof_H 	H 	0.676	0.0983	0.8407	0.034
Mof_N 	N 	0.606	0.0376	0.7775	-0.231
Mof_N 	N 	0.6316	0.1394	0.8054	-0.238
Mof_O 	O 	0.6052	0.0365	0.6826	-0.156
Mof_O 	O 	0.5741	0.2462	0.8065	-0.17
Mof_C 	C 	0.1056	0.526	0.3201	0.03
Mof_H 	H 	0.1053	0.5454	0.3455	0.027
Mof_C 	C 	0.1595	0.6257	0.3398	0.016
Mof_H 	H 	0.176	0.5983	0.3407	0.034
Mof_N 	N 	0.106	0.5376	0.2775	-0.232
Mof_N 	N 	0.1316	0.6394	0.3054	-0.238
Mof_O 	O 	0.1052	0.5365	0.1826	-0.156
Mof_O 	O 	0.0741	0.7462	0.3065	-0.171
Mof_C 	C 	0.1799	0.6056	0.974	0.038
Mof_H 	H 	0.1545	0.6053	0.9546	0.025
Mof_C 	C 	0.1602	0.6595	0.8743	0.016
Mof_H 	H 	0.1593	0.676	0.9017	0.034
Mof_N 	N 	0.2225	0.606	0.9624	-0.231
Mof_N 	N 	0.1946	0.6316	0.8606	-0.238
Mof_O 	O 	0.3174	0.6052	0.9635	-0.151
Mof_O 	O 	0.1935	0.5741	0.7538	-0.17
Mof_C 	C 	0.6799	0.1056	0.474	0.03
Mof_H 	H 	0.6545	0.1053	0.4546	0.027
Mof_C 	C 	0.6602	0.1595	0.3743	0.016
Mof_H 	H 	0.6593	0.176	0.4017	0.034
Mof_N 	N 	0.7225	0.106	0.4624	-0.232
Mof_N 	N 	0.6946	0.1316	0.3606	-0.238
Mof_O 	O 	0.8174	0.1052	0.4635	-0.155
Mof_O 	O 	0.6935	0.0741	0.2538	-0.171
Mof_C 	C 	0.1799	0.3944	0.026	0.022
Mof_H 	H 	0.1545	0.3947	0.0454	0.029
Mof_C 	C 	0.1602	0.3405	0.1257	0.015
Mof_H 	H 	0.1593	0.324	0.0983	0.033
Mof_N 	N 	0.2225	0.394	0.0376	-0.231
Mof_N 	N 	0.1946	0.3684	0.1394	-0.238
Mof_O 	O 	0.3174	0.3948	0.0365	-0.156
Mof_O 	O 	0.1935	0.4259	0.2462	-0.17
Mof_C 	C 	0.6799	0.8944	0.526	0.031
Mof_H 	H 	0.6545	0.8947	0.5454	0.028
Mof_C 	C 	0.6602	0.8405	0.6257	0.016
Mof_H 	H 	0.6593	0.824	0.5983	0.034
Mof_N 	N 	0.7225	0.894	0.5376	-0.232
Mof_N 	N 	0.6946	0.8684	0.6394	-0.238
Mof_O 	O 	0.8174	0.8948	0.5365	-0.154
Mof_O 	O 	0.6935	0.9259	0.7462	-0.168
Mof_C 	C 	0.8201	0.3944	0.974	0.038
Mof_H 	H 	0.8455	0.3947	0.9546	0.026
Mof_C 	C 	0.8398	0.3405	0.8743	0.016
Mof_H 	H 	0.8407	0.324	0.9017	0.034
Mof_N 	N 	0.7775	0.394	0.9624	-0.231
Mof_N 	N 	0.8054	0.3684	0.8606	-0.238
Mof_O 	O 	0.6826	0.3948	0.9635	-0.151
Mof_O 	O 	0.8065	0.4259	0.7538	-0.17
Mof_C 	C 	0.3201	0.8944	0.474	0.031
Mof_H 	H 	0.3455	0.8947	0.4546	0.028
Mof_C 	C 	0.3398	0.8405	0.3743	0.016
Mof_H 	H 	0.3407	0.824	0.4017	0.034
Mof_N 	N 	0.2775	0.894	0.4624	-0.232
Mof_N 	N 	0.3054	0.8684	0.3606	-0.238
Mof_O 	O 	0.1826	0.8948	0.4635	-0.155
Mof_O 	O 	0.3065	0.9259	0.2538	-0.169
Mof_C 	C 	0.8201	0.6056	0.026	0.023
Mof_H 	H 	0.8455	0.6053	0.0454	0.029
Mof_C 	C 	0.8398	0.6595	0.1257	0.016
Mof_H 	H 	0.8407	0.676	0.0983	0.034
Mof_N 	N 	0.7775	0.606	0.0376	-0.231
Mof_N 	N 	0.8054	0.6316	0.1394	-0.238
Mof_O 	O 	0.6826	0.6052	0.0365	-0.156
Mof_O 	O 	0.8065	0.5741	0.2462	-0.17
Mof_C 	C 	0.3201	0.1056	0.526	0.03
Mof_H 	H 	0.3455	0.1053	0.5454	0.027
Mof_C 	C 	0.3398	0.1595	0.6257	0.016
Mof_H 	H 	0.3407	0.176	0.5983	0.034
Mof_N 	N 	0.2775	0.106	0.5376	-0.232
Mof_N 	N 	0.3054	0.1316	0.6394	-0.238
Mof_O 	O 	0.1826	0.1052	0.5365	-0.156
Mof_O 	O 	0.3065	0.0741	0.7462	-0.171
Mof_C 	C 	0.974	0.1799	0.6056	0.038
Mof_H 	H 	0.9546	0.1545	0.6053	0.025
Mof_C 	C 	0.8743	0.1602	0.6595	0.016
Mof_H 	H 	0.9017	0.1593	0.676	0.034
Mof_N 	N 	0.9624	0.2225	0.606	-0.231
Mof_N 	N 	0.8606	0.1946	0.6316	-0.238
Mof_O 	O 	0.9635	0.3174	0.6052	-0.151
Mof_O 	O 	0.7538	0.1935	0.5741	-0.17
Mof_C 	C 	0.474	0.6799	0.1056	0.03
Mof_H 	H 	0.4546	0.6545	0.1053	0.027
Mof_C 	C 	0.3743	0.6602	0.1595	0.016
Mof_H 	H 	0.4017	0.6593	0.176	0.034
Mof_N 	N 	0.4624	0.7225	0.106	-0.232
Mof_N 	N 	0.3606	0.6946	0.1316	-0.238
Mof_O 	O 	0.4635	0.8174	0.1052	-0.155
Mof_O 	O 	0.2538	0.6935	0.0741	-0.171
Mof_C 	C 	0.026	0.1799	0.3944	0.022
Mof_H 	H 	0.0454	0.1545	0.3947	0.029
Mof_C 	C 	0.1257	0.1602	0.3405	0.015
Mof_H 	H 	0.0983	0.1593	0.324	0.033
Mof_N 	N 	0.0376	0.2225	0.394	-0.231
Mof_N 	N 	0.1394	0.1946	0.3684	-0.238
Mof_O 	O 	0.0365	0.3174	0.3948	-0.156
Mof_O 	O 	0.2462	0.1935	0.4259	-0.17
Mof_C 	C 	0.526	0.6799	0.8944	0.031
Mof_H 	H 	0.5454	0.6545	0.8947	0.028
Mof_C 	C 	0.6257	0.6602	0.8405	0.016
Mof_H 	H 	0.5983	0.6593	0.824	0.034
Mof_N 	N 	0.5376	0.7225	0.894	-0.232
Mof_N 	N 	0.6394	0.6946	0.8684	-0.238
Mof_O 	O 	0.5365	0.8174	0.8948	-0.154
Mof_O 	O 	0.7462	0.6935	0.9259	-0.168
Mof_C 	C 	0.974	0.8201	0.3944	0.038
Mof_H 	H 	0.9546	0.8455	0.3947	0.026
Mof_C 	C 	0.8743	0.8398	0.3405	0.016
Mof_H 	H 	0.9017	0.8407	0.324	0.034
Mof_N 	N 	0.9624	0.7775	0.394	-0.231
Mof_N 	N 	0.8606	0.8054	0.3684	-0.238
Mof_O 	O 	0.9635	0.6826	0.3948	-0.151
Mof_O 	O 	0.7538	0.8065	0.4259	-0.17
Mof_C 	C 	0.474	0.3201	0.8944	0.031
Mof_H 	H 	0.4546	0.3455	0.8947	0.028
Mof_C 	C 	0.3743	0.3398	0.8405	0.016
Mof_H 	H 	0.4017	0.3407	0.824	0.034
Mof_N 	N 	0.4624	0.2775	0.894	-0.232
Mof_N 	N 	0.3606	0.3054	0.8684	-0.238
Mof_O 	O 	0.4635	0.1826	0.8948	-0.155
Mof_O 	O 	0.2538	0.3065	0.9259	-0.169
Mof_C 	C 	0.026	0.8201	0.6056	0.023
Mof_H 	H 	0.0454	0.8455	0.6053	0.029
Mof_C 	C 	0.1257	0.8398	0.6595	0.016
Mof_H 	H 	0.0983	0.8407	0.676	0.034
Mof_N 	N 	0.0376	0.7775	0.606	-0.231
Mof_N 	N 	0.1394	0.8054	0.6316	-0.238
Mof_O 	O 	0.0365	0.6826	0.6052	-0.156
Mof_O 	O 	0.2462	0.8065	0.5741	-0.17
Mof_C 	C 	0.526	0.3201	0.1056	0.03
Mof_H 	H 	0.5454	0.3455	0.1053	0.027
Mof_C 	C 	0.6257	0.3398	0.1595	0.016
Mof_H 	H 	0.5983	0.3407	0.176	0.034
Mof_N 	N 	0.5376	0.2775	0.106	-0.232
Mof_N 	N 	0.6394	0.3054	0.1316	-0.238
Mof_O 	O 	0.5365	0.1826	0.1052	-0.156
Mof_O 	O 	0.7462	0.3065	0.0741	-0.171
Mof_C 	C 	0.974	0.6056	0.8201	0.038
Mof_H 	H 	0.9546	0.6053	0.8455	0.026
Mof_C 	C 	0.8743	0.6595	0.8398	0.016
Mof_H 	H 	0.9017	0.676	0.8407	0.035
Mof_N 	N 	0.9624	0.606	0.7775	-0.231
Mof_N 	N 	0.8606	0.6316	0.8054	-0.238
Mof_O 	O 	0.9635	0.6052	0.6826	-0.151
Mof_O 	O 	0.7538	0.5741	0.8065	-0.17
Mof_C 	C 	0.474	0.1056	0.3201	0.03
Mof_H 	H 	0.4546	0.1053	0.3455	0.027
Mof_C 	C 	0.3743	0.1595	0.3398	0.016
Mof_H 	H 	0.4017	0.176	0.3407	0.034
Mof_N 	N 	0.4624	0.106	0.2775	-0.232
Mof_N 	N 	0.3606	0.1316	0.3054	-0.238
Mof_O 	O 	0.4635	0.1052	0.1826	-0.156
Mof_O 	O 	0.2538	0.0741	0.3065	-0.171
Mof_C 	C 	0.026	0.3944	0.8201	0.023
Mof_H 	H 	0.0454	0.3947	0.8455	0.029
Mof_C 	C 	0.1257	0.3405	0.8398	0.016
Mof_H 	H 	0.0983	0.324	0.8407	0.033
Mof_N 	N 	0.0376	0.394	0.7775	-0.231
Mof_N 	N 	0.1394	0.3684	0.8054	-0.238
Mof_O 	O 	0.0365	0.3948	0.6826	-0.156
Mof_O 	O 	0.2462	0.4259	0.8065	-0.17
Mof_C 	C 	0.526	0.8944	0.3201	0.031
Mof_H 	H 	0.5454	0.8947	0.3455	0.028
Mof_C 	C 	0.6257	0.8405	0.3398	0.016
Mof_H 	H 	0.5983	0.824	0.3407	0.034
Mof_N 	N 	0.5376	0.894	0.2775	-0.232
Mof_N 	N 	0.6394	0.8684	0.3054	-0.238
Mof_O 	O 	0.5365	0.8948	0.1826	-0.155
Mof_O 	O 	0.7462	0.9259	0.3065	-0.168
Mof_C 	C 	0.974	0.3944	0.1799	0.038
Mof_H 	H 	0.9546	0.3947	0.1545	0.025
Mof_C 	C 	0.8743	0.3405	0.1602	0.015
Mof_H 	H 	0.9017	0.324	0.1593	0.034
Mof_N 	N 	0.9624	0.394	0.2225	-0.231
Mof_N 	N 	0.8606	0.3684	0.1946	-0.238
Mof_O 	O 	0.9635	0.3948	0.3174	-0.151
Mof_O 	O 	0.7538	0.4259	0.1935	-0.17
Mof_C 	C 	0.474	0.8944	0.6799	0.031
Mof_H 	H 	0.4546	0.8947	0.6545	0.028
Mof_C 	C 	0.3743	0.8405	0.6602	0.016
Mof_H 	H 	0.4017	0.824	0.6593	0.034
Mof_N 	N 	0.4624	0.894	0.7225	-0.232
Mof_N 	N 	0.3606	0.8684	0.6946	-0.238
Mof_O 	O 	0.4635	0.8948	0.8174	-0.154
Mof_O 	O 	0.2538	0.9259	0.6935	-0.169
Mof_C 	C 	0.026	0.6056	0.1799	0.022
Mof_H 	H 	0.0454	0.6053	0.1545	0.029
Mof_C 	C 	0.1257	0.6595	0.1602	0.015
Mof_H 	H 	0.0983	0.676	0.1593	0.033
Mof_N 	N 	0.0376	0.606	0.2225	-0.231
Mof_N 	N 	0.1394	0.6316	0.1946	-0.238
Mof_O 	O 	0.0365	0.6052	0.3174	-0.156
Mof_O 	O 	0.2462	0.5741	0.1935	-0.17
Mof_C 	C 	0.526	0.1056	0.6799	0.03
Mof_H 	H 	0.5454	0.1053	0.6545	0.027
Mof_C 	C 	0.6257	0.1595	0.6602	0.016
Mof_H 	H 	0.5983	0.176	0.6593	0.034
Mof_N 	N 	0.5376	0.106	0.7225	-0.232
Mof_N 	N 	0.6394	0.1316	0.6946	-0.238
Mof_O 	O 	0.5365	0.1052	0.8174	-0.155
Mof_O 	O 	0.7462	0.0741	0.6935	-0.17
Mof_C 	C 	0.6056	0.1799	0.026	0.022
Mof_H 	H 	0.6053	0.1545	0.0454	0.029
Mof_C 	C 	0.6595	0.1602	0.1257	0.015
Mof_H 	H 	0.676	0.1593	0.0983	0.033
Mof_N 	N 	0.606	0.2225	0.0376	-0.231
Mof_N 	N 	0.6316	0.1946	0.1394	-0.238
Mof_O 	O 	0.6052	0.3174	0.0365	-0.156
Mof_O 	O 	0.5741	0.1935	0.2462	-0.17
Mof_C 	C 	0.1056	0.6799	0.526	0.03
Mof_H 	H 	0.1053	0.6545	0.5454	0.027
Mof_C 	C 	0.1595	0.6602	0.6257	0.016
Mof_H 	H 	0.176	0.6593	0.5983	0.034
Mof_N 	N 	0.106	0.7225	0.5376	-0.232
Mof_N 	N 	0.1316	0.6946	0.6394	-0.238
Mof_O 	O 	0.1052	0.8174	0.5365	-0.155
Mof_O 	O 	0.0741	0.6935	0.7462	-0.17
Mof_C 	C 	0.3944	0.1799	0.974	0.038
Mof_H 	H 	0.3947	0.1545	0.9546	0.025
Mof_C 	C 	0.3405	0.1602	0.8743	0.015
Mof_H 	H 	0.324	0.1593	0.9017	0.034
Mof_N 	N 	0.394	0.2225	0.9624	-0.231
Mof_N 	N 	0.3684	0.1946	0.8606	-0.238
Mof_O 	O 	0.3948	0.3174	0.9635	-0.151
Mof_O 	O 	0.4259	0.1935	0.7538	-0.17
Mof_C 	C 	0.8944	0.6799	0.474	0.031
Mof_H 	H 	0.8947	0.6545	0.4546	0.028
Mof_C 	C 	0.8405	0.6602	0.3743	0.016
Mof_H 	H 	0.824	0.6593	0.4017	0.034
Mof_N 	N 	0.894	0.7225	0.4624	-0.232
Mof_N 	N 	0.8684	0.6946	0.3606	-0.238
Mof_O 	O 	0.8948	0.8174	0.4635	-0.154
Mof_O 	O 	0.9259	0.6935	0.2538	-0.169
Mof_C 	C 	0.3944	0.8201	0.026	0.023
Mof_H 	H 	0.3947	0.8455	0.0454	0.029
Mof_C 	C 	0.3405	0.8398	0.1257	0.016
Mof_H 	H 	0.324	0.8407	0.0983	0.033
Mof_N 	N 	0.394	0.7775	0.0376	-0.231
Mof_N 	N 	0.3684	0.8054	0.1394	-0.238
Mof_O 	O 	0.3948	0.6826	0.0365	-0.156
Mof_O 	O 	0.4259	0.8065	0.2462	-0.17
Mof_C 	C 	0.8944	0.3201	0.526	0.031
Mof_H 	H 	0.8947	0.3455	0.5454	0.028
Mof_C 	C 	0.8405	0.3398	0.6257	0.016
Mof_H 	H 	0.824	0.3407	0.5983	0.034
Mof_N 	N 	0.894	0.2775	0.5376	-0.232
Mof_N 	N 	0.8684	0.3054	0.6394	-0.238
Mof_O 	O 	0.8948	0.1826	0.5365	-0.155
Mof_O 	O 	0.9259	0.3065	0.7462	-0.168
Mof_C 	C 	0.6056	0.8201	0.974	0.038
Mof_H 	H 	0.6053	0.8455	0.9546	0.026
Mof_C 	C 	0.6595	0.8398	0.8743	0.016
Mof_H 	H 	0.676	0.8407	0.9017	0.035
Mof_N 	N 	0.606	0.7775	0.9624	-0.231
Mof_N 	N 	0.6316	0.8054	0.8606	-0.238
Mof_O 	O 	0.6052	0.6826	0.9635	-0.151
Mof_O 	O 	0.5741	0.8065	0.7538	-0.17
Mof_C 	C 	0.1056	0.3201	0.474	0.03
Mof_H 	H 	0.1053	0.3455	0.4546	0.027
Mof_C 	C 	0.1595	0.3398	0.3743	0.016
Mof_H 	H 	0.176	0.3407	0.4017	0.034
Mof_N 	N 	0.106	0.2775	0.4624	-0.232
Mof_N 	N 	0.1316	0.3054	0.3606	-0.238
Mof_O 	O 	0.1052	0.1826	0.4635	-0.156
Mof_O 	O 	0.0741	0.3065	0.2538	-0.171
Mof_C 	C 	0.1799	0.974	0.3944	0.038
Mof_H 	H 	0.1545	0.9546	0.3947	0.025
Mof_C 	C 	0.1602	0.8743	0.3405	0.015
Mof_H 	H 	0.1593	0.9017	0.324	0.034
Mof_N 	N 	0.2225	0.9624	0.394	-0.231
Mof_N 	N 	0.1946	0.8606	0.3684	-0.238
Mof_O 	O 	0.3174	0.9635	0.3948	-0.151
Mof_O 	O 	0.1935	0.7538	0.4259	-0.17
Mof_C 	C 	0.6799	0.474	0.8944	0.031
Mof_H 	H 	0.6545	0.4546	0.8947	0.028
Mof_C 	C 	0.6602	0.3743	0.8405	0.016
Mof_H 	H 	0.6593	0.4017	0.824	0.034
Mof_N 	N 	0.7225	0.4624	0.894	-0.232
Mof_N 	N 	0.6946	0.3606	0.8684	-0.238
Mof_O 	O 	0.8174	0.4635	0.8948	-0.154
Mof_O 	O 	0.6935	0.2538	0.9259	-0.169
Mof_C 	C 	0.1799	0.026	0.6056	0.022
Mof_H 	H 	0.1545	0.0454	0.6053	0.029
Mof_C 	C 	0.1602	0.1257	0.6595	0.015
Mof_H 	H 	0.1593	0.0983	0.676	0.033
Mof_N 	N 	0.2225	0.0376	0.606	-0.231
Mof_N 	N 	0.1946	0.1394	0.6316	-0.238
Mof_O 	O 	0.3174	0.0365	0.6052	-0.156
Mof_O 	O 	0.1935	0.2462	0.5741	-0.17
Mof_C 	C 	0.6799	0.526	0.1056	0.03
Mof_H 	H 	0.6545	0.5454	0.1053	0.027
Mof_C 	C 	0.6602	0.6257	0.1595	0.016
Mof_H 	H 	0.6593	0.5983	0.176	0.034
Mof_N 	N 	0.7225	0.5376	0.106	-0.232
Mof_N 	N 	0.6946	0.6394	0.1316	-0.238
Mof_O 	O 	0.8174	0.5365	0.1052	-0.155
Mof_O 	O 	0.6935	0.7462	0.0741	-0.17
Mof_C 	C 	0.8201	0.974	0.6056	0.038
Mof_H 	H 	0.8455	0.9546	0.6053	0.026
Mof_C 	C 	0.8398	0.8743	0.6595	0.016
Mof_H 	H 	0.8407	0.9017	0.676	0.035
Mof_N 	N 	0.7775	0.9624	0.606	-0.231
Mof_N 	N 	0.8054	0.8606	0.6316	-0.238
Mof_O 	O 	0.6826	0.9635	0.6052	-0.151
Mof_O 	O 	0.8065	0.7538	0.5741	-0.17
Mof_C 	C 	0.3201	0.474	0.1056	0.03
Mof_H 	H 	0.3455	0.4546	0.1053	0.027
Mof_C 	C 	0.3398	0.3743	0.1595	0.016
Mof_H 	H 	0.3407	0.4017	0.176	0.034
Mof_N 	N 	0.2775	0.4624	0.106	-0.232
Mof_N 	N 	0.3054	0.3606	0.1316	-0.238
Mof_O 	O 	0.1826	0.4635	0.1052	-0.156
Mof_O 	O 	0.3065	0.2538	0.0741	-0.171
Mof_C 	C 	0.8201	0.026	0.3944	0.023
Mof_H 	H 	0.8455	0.0454	0.3947	0.029
Mof_C 	C 	0.8398	0.1257	0.3405	0.016
Mof_H 	H 	0.8407	0.0983	0.324	0.033
Mof_N 	N 	0.7775	0.0376	0.394	-0.231
Mof_N 	N 	0.8054	0.1394	0.3684	-0.238
Mof_O 	O 	0.6826	0.0365	0.3948	-0.156
Mof_O 	O 	0.8065	0.2462	0.4259	-0.17
Mof_C 	C 	0.3201	0.526	0.8944	0.031
Mof_H 	H 	0.3455	0.5454	0.8947	0.028
Mof_C 	C 	0.3398	0.6257	0.8405	0.016
Mof_H 	H 	0.3407	0.5983	0.824	0.034
Mof_N 	N 	0.2775	0.5376	0.894	-0.232
Mof_N 	N 	0.3054	0.6394	0.8684	-0.238
Mof_O 	O 	0.1826	0.5365	0.8948	-0.155
Mof_O 	O 	0.3065	0.7462	0.9259	-0.168
Mof_C 	C 	0.3944	0.026	0.8201	0.023
Mof_H 	H 	0.3947	0.0454	0.8455	0.029
Mof_C 	C 	0.3405	0.1257	0.8398	0.016
Mof_H 	H 	0.324	0.0983	0.8407	0.033
Mof_N 	N 	0.394	0.0376	0.7775	-0.231
Mof_N 	N 	0.3684	0.1394	0.8054	-0.238
Mof_O 	O 	0.3948	0.0365	0.6826	-0.156
Mof_O 	O 	0.4259	0.2462	0.8065	-0.17
Mof_C 	C 	0.8944	0.526	0.3201	0.031
Mof_H 	H 	0.8947	0.5454	0.3455	0.028
Mof_C 	C 	0.8405	0.6257	0.3398	0.016
Mof_H 	H 	0.824	0.5983	0.3407	0.034
Mof_N 	N 	0.894	0.5376	0.2775	-0.232
Mof_N 	N 	0.8684	0.6394	0.3054	-0.238
Mof_O 	O 	0.8948	0.5365	0.1826	-0.155
Mof_O 	O 	0.9259	0.7462	0.3065	-0.168
Mof_C 	C 	0.6056	0.974	0.8201	0.038
Mof_H 	H 	0.6053	0.9546	0.8455	0.026
Mof_C 	C 	0.6595	0.8743	0.8398	0.016
Mof_H 	H 	0.676	0.9017	0.8407	0.035
Mof_N 	N 	0.606	0.9624	0.7775	-0.231
Mof_N 	N 	0.6316	0.8606	0.8054	-0.238
Mof_O 	O 	0.6052	0.9635	0.6826	-0.151
Mof_O 	O 	0.5741	0.7538	0.8065	-0.17
Mof_C 	C 	0.1056	0.474	0.3201	0.03
Mof_H 	H 	0.1053	0.4546	0.3455	0.027
Mof_C 	C 	0.1595	0.3743	0.3398	0.016
Mof_H 	H 	0.176	0.4017	0.3407	0.034
Mof_N 	N 	0.106	0.4624	0.2775	-0.232
Mof_N 	N 	0.1316	0.3606	0.3054	-0.238
Mof_O 	O 	0.1052	0.4635	0.1826	-0.156
Mof_O 	O 	0.0741	0.2538	0.3065	-0.171
Mof_C 	C 	0.6056	0.026	0.1799	0.022
Mof_H 	H 	0.6053	0.0454	0.1545	0.029
Mof_C 	C 	0.6595	0.1257	0.1602	0.015
Mof_H 	H 	0.676	0.0983	0.1593	0.033
Mof_N 	N 	0.606	0.0376	0.2225	-0.231
Mof_N 	N 	0.6316	0.1394	0.1946	-0.238
Mof_O 	O 	0.6052	0.0365	0.3174	-0.156
Mof_O 	O 	0.5741	0.2462	0.1935	-0.17
Mof_C 	C 	0.1056	0.526	0.6799	0.03
Mof_H 	H 	0.1053	0.5454	0.6545	0.027
Mof_C 	C 	0.1595	0.6257	0.6602	0.016
Mof_H 	H 	0.176	0.5983	0.6593	0.034
Mof_N 	N 	0.106	0.5376	0.7225	-0.232
Mof_N 	N 	0.1316	0.6394	0.6946	-0.238
Mof_O 	O 	0.1052	0.5365	0.8174	-0.155
Mof_O 	O 	0.0741	0.7462	0.6935	-0.17
Mof_C 	C 	0.3944	0.974	0.1799	0.038
Mof_H 	H 	0.3947	0.9546	0.1545	0.025
Mof_C 	C 	0.3405	0.8743	0.1602	0.015
Mof_H 	H 	0.324	0.9017	0.1593	0.034
Mof_N 	N 	0.394	0.9624	0.2225	-0.231
Mof_N 	N 	0.3684	0.8606	0.1946	-0.238
Mof_O 	O 	0.3948	0.9635	0.3174	-0.151
Mof_O 	O 	0.4259	0.7538	0.1935	-0.17
Mof_C 	C 	0.8944	0.474	0.6799	0.031
Mof_H 	H 	0.8947	0.4546	0.6545	0.028
Mof_C 	C 	0.8405	0.3743	0.6602	0.016
Mof_H 	H 	0.824	0.4017	0.6593	0.034
Mof_N 	N 	0.894	0.4624	0.7225	-0.232
Mof_N 	N 	0.8684	0.3606	0.6946	-0.238
Mof_O 	O 	0.8948	0.4635	0.8174	-0.154
Mof_O 	O 	0.9259	0.2538	0.6935	-0.169
Mof_C 	C 	0.8201	0.3944	0.026	0.023
Mof_H 	H 	0.8455	0.3947	0.0454	0.029
Mof_C 	C 	0.8398	0.3405	0.1257	0.016
Mof_H 	H 	0.8407	0.324	0.0983	0.033
Mof_N 	N 	0.7775	0.394	0.0376	-0.231
Mof_N 	N 	0.8054	0.3684	0.1394	-0.238
Mof_O 	O 	0.6826	0.3948	0.0365	-0.156
Mof_O 	O 	0.8065	0.4259	0.2462	-0.17
Mof_C 	C 	0.3201	0.8944	0.526	0.031
Mof_H 	H 	0.3455	0.8947	0.5454	0.028
Mof_C 	C 	0.3398	0.8405	0.6257	0.016
Mof_H 	H 	0.3407	0.824	0.5983	0.034
Mof_N 	N 	0.2775	0.894	0.5376	-0.232
Mof_N 	N 	0.3054	0.8684	0.6394	-0.238
Mof_O 	O 	0.1826	0.8948	0.5365	-0.155
Mof_O 	O 	0.3065	0.9259	0.7462	-0.168
Mof_C 	C 	0.8201	0.6056	0.974	0.038
Mof_H 	H 	0.8455	0.6053	0.9546	0.026
Mof_C 	C 	0.8398	0.6595	0.8743	0.016
Mof_H 	H 	0.8407	0.676	0.9017	0.035
Mof_N 	N 	0.7775	0.606	0.9624	-0.231
Mof_N 	N 	0.8054	0.6316	0.8606	-0.238
Mof_O 	O 	0.6826	0.6052	0.9635	-0.151
Mof_O 	O 	0.8065	0.5741	0.7538	-0.17
Mof_C 	C 	0.3201	0.1056	0.474	0.03
Mof_H 	H 	0.3455	0.1053	0.4546	0.027
Mof_C 	C 	0.3398	0.1595	0.3743	0.016
Mof_H 	H 	0.3407	0.176	0.4017	0.034
Mof_N 	N 	0.2775	0.106	0.4624	-0.232
Mof_N 	N 	0.3054	0.1316	0.3606	-0.238
Mof_O 	O 	0.1826	0.1052	0.4635	-0.156
Mof_O 	O 	0.3065	0.0741	0.2538	-0.171
Mof_C 	C 	0.1799	0.6056	0.026	0.022
Mof_H 	H 	0.1545	0.6053	0.0454	0.029
Mof_C 	C 	0.1602	0.6595	0.1257	0.015
Mof_H 	H 	0.1593	0.676	0.0983	0.033
Mof_N 	N 	0.2225	0.606	0.0376	-0.231
Mof_N 	N 	0.1946	0.6316	0.1394	-0.238
Mof_O 	O 	0.3174	0.6052	0.0365	-0.156
Mof_O 	O 	0.1935	0.5741	0.2462	-0.17
Mof_C 	C 	0.6799	0.1056	0.526	0.03
Mof_H 	H 	0.6545	0.1053	0.5454	0.027
Mof_C 	C 	0.6602	0.1595	0.6257	0.016
Mof_H 	H 	0.6593	0.176	0.5983	0.034
Mof_N 	N 	0.7225	0.106	0.5376	-0.232
Mof_N 	N 	0.6946	0.1316	0.6394	-0.238
Mof_O 	O 	0.8174	0.1052	0.5365	-0.155
Mof_O 	O 	0.6935	0.0741	0.7462	-0.17
Mof_C 	C 	0.1799	0.3944	0.974	0.038
Mof_H 	H 	0.1545	0.3947	0.9546	0.025
Mof_C 	C 	0.1602	0.3405	0.8743	0.015
Mof_H 	H 	0.1593	0.324	0.9017	0.034
Mof_N 	N 	0.2225	0.394	0.9624	-0.231
Mof_N 	N 	0.1946	0.3684	0.8606	-0.238
Mof_O 	O 	0.3174	0.3948	0.9635	-0.151
Mof_O 	O 	0.1935	0.4259	0.7538	-0.17
Mof_C 	C 	0.6799	0.8944	0.474	0.031
Mof_H 	H 	0.6545	0.8947	0.4546	0.028
Mof_C 	C 	0.6602	0.8405	0.3743	0.016
Mof_H 	H 	0.6593	0.824	0.4017	0.034
Mof_N 	N 	0.7225	0.894	0.4624	-0.232
Mof_N 	N 	0.6946	0.8684	0.3606	-0.238
Mof_O 	O 	0.8174	0.8948	0.4635	-0.154
Mof_O 	O 	0.6935	0.9259	0.2538	-0.169
Mof_C 	C 	0.026	0.8201	0.3944	0.023
Mof_H 	H 	0.0454	0.8455	0.3947	0.029
Mof_C 	C 	0.1257	0.8398	0.3405	0.016
Mof_H 	H 	0.0983	0.8407	0.324	0.033
Mof_N 	N 	0.0376	0.7775	0.394	-0.231
Mof_N 	N 	0.1394	0.8054	0.3684	-0.238
Mof_O 	O 	0.0365	0.6826	0.3948	-0.156
Mof_O 	O 	0.2462	0.8065	0.4259	-0.17
Mof_C 	C 	0.526	0.3201	0.8944	0.031
Mof_H 	H 	0.5454	0.3455	0.8947	0.028
Mof_C 	C 	0.6257	0.3398	0.8405	0.016
Mof_H 	H 	0.5983	0.3407	0.824	0.034
Mof_N 	N 	0.5376	0.2775	0.894	-0.232
Mof_N 	N 	0.6394	0.3054	0.8684	-0.238
Mof_O 	O 	0.5365	0.1826	0.8948	-0.155
Mof_O 	O 	0.7462	0.3065	0.9259	-0.168
Mof_C 	C 	0.974	0.8201	0.6056	0.038
Mof_H 	H 	0.9546	0.8455	0.6053	0.026
Mof_C 	C 	0.8743	0.8398	0.6595	0.016
Mof_H 	H 	0.9017	0.8407	0.676	0.035
Mof_N 	N 	0.9624	0.7775	0.606	-0.231
Mof_N 	N 	0.8606	0.8054	0.6316	-0.238
Mof_O 	O 	0.9635	0.6826	0.6052	-0.151
Mof_O 	O 	0.7538	0.8065	0.5741	-0.17
Mof_C 	C 	0.474	0.3201	0.1056	0.03
Mof_H 	H 	0.4546	0.3455	0.1053	0.027
Mof_C 	C 	0.3743	0.3398	0.1595	0.016
Mof_H 	H 	0.4017	0.3407	0.176	0.034
Mof_N 	N 	0.4624	0.2775	0.106	-0.232
Mof_N 	N 	0.3606	0.3054	0.1316	-0.238
Mof_O 	O 	0.4635	0.1826	0.1052	-0.156
Mof_O 	O 	0.2538	0.3065	0.0741	-0.171
Mof_C 	C 	0.026	0.1799	0.6056	0.022
Mof_H 	H 	0.0454	0.1545	0.6053	0.029
Mof_C 	C 	0.1257	0.1602	0.6595	0.015
Mof_H 	H 	0.0983	0.1593	0.676	0.033
Mof_N 	N 	0.0376	0.2225	0.606	-0.231
Mof_N 	N 	0.1394	0.1946	0.6316	-0.238
Mof_O 	O 	0.0365	0.3174	0.6052	-0.156
Mof_O 	O 	0.2462	0.1935	0.5741	-0.17
Mof_C 	C 	0.526	0.6799	0.1056	0.03
Mof_H 	H 	0.5454	0.6545	0.1053	0.027
Mof_C 	C 	0.6257	0.6602	0.1595	0.016
Mof_H 	H 	0.5983	0.6593	0.176	0.034
Mof_N 	N 	0.5376	0.7225	0.106	-0.232
Mof_N 	N 	0.6394	0.6946	0.1316	-0.238
Mof_O 	O 	0.5365	0.8174	0.1052	-0.155
Mof_O 	O 	0.7462	0.6935	0.0741	-0.17
Mof_C 	C 	0.974	0.1799	0.3944	0.038
Mof_H 	H 	0.9546	0.1545	0.3947	0.025
Mof_C 	C 	0.8743	0.1602	0.3405	0.015
Mof_H 	H 	0.9017	0.1593	0.324	0.034
Mof_N 	N 	0.9624	0.2225	0.394	-0.231
Mof_N 	N 	0.8606	0.1946	0.3684	-0.238
Mof_O 	O 	0.9635	0.3174	0.3948	-0.151
Mof_O 	O 	0.7538	0.1935	0.4259	-0.17
Mof_C 	C 	0.474	0.6799	0.8944	0.031
Mof_H 	H 	0.4546	0.6545	0.8947	0.028
Mof_C 	C 	0.3743	0.6602	0.8405	0.016
Mof_H 	H 	0.4017	0.6593	0.824	0.034
Mof_N 	N 	0.4624	0.7225	0.894	-0.232
Mof_N 	N 	0.3606	0.6946	0.8684	-0.238
Mof_O 	O 	0.4635	0.8174	0.8948	-0.154
Mof_O 	O 	0.2538	0.6935	0.9259	-0.169
Mof_C 	C 	0.026	0.3944	0.1799	0.022
Mof_H 	H 	0.0454	0.3947	0.1545	0.029
Mof_C 	C 	0.1257	0.3405	0.1602	0.015
Mof_H 	H 	0.0983	0.324	0.1593	0.033
Mof_N 	N 	0.0376	0.394	0.2225	-0.231
Mof_N 	N 	0.1394	0.3684	0.1946	-0.238
Mof_O 	O 	0.0365	0.3948	0.3174	-0.156
Mof_O 	O 	0.2462	0.4259	0.1935	-0.17
Mof_C 	C 	0.526	0.8944	0.6799	0.031
Mof_H 	H 	0.5454	0.8947	0.6545	0.028
Mof_C 	C 	0.6257	0.8405	0.6602	0.016
Mof_H 	H 	0.5983	0.824	0.6593	0.034
Mof_N 	N 	0.5376	0.894	0.7225	-0.232
Mof_N 	N 	0.6394	0.8684	0.6946	-0.238
Mof_O 	O 	0.5365	0.8948	0.8174	-0.154
Mof_O 	O 	0.7462	0.9259	0.6935	-0.168
Mof_C 	C 	0.974	0.6056	0.1799	0.038
Mof_H 	H 	0.9546	0.6053	0.1545	0.025
Mof_C 	C 	0.8743	0.6595	0.1602	0.016
Mof_H 	H 	0.9017	0.676	0.1593	0.034
Mof_N 	N 	0.9624	0.606	0.2225	-0.231
Mof_N 	N 	0.8606	0.6316	0.1946	-0.238
Mof_O 	O 	0.9635	0.6052	0.3174	-0.151
Mof_O 	O 	0.7538	0.5741	0.1935	-0.17
Mof_C 	C 	0.474	0.1056	0.6799	0.03
Mof_H 	H 	0.4546	0.1053	0.6545	0.027
Mof_C 	C 	0.3743	0.1595	0.6602	0.016
Mof_H 	H 	0.4017	0.176	0.6593	0.034
Mof_N 	N 	0.4624	0.106	0.7225	-0.232
Mof_N 	N 	0.3606	0.1316	0.6946	-0.238
Mof_O 	O 	0.4635	0.1052	0.8174	-0.155
Mof_O 	O 	0.2538	0.0741	0.6935	-0.171
Mof_C 	C 	0.026	0.6056	0.8201	0.023
Mof_H 	H 	0.0454	0.6053	0.8455	0.029
Mof_C 	C 	0.1257	0.6595	0.8398	0.016
Mof_H 	H 	0.0983	0.676	0.8407	0.034
Mof_N 	N 	0.0376	0.606	0.7775	-0.231
Mof_N 	N 	0.1394	0.6316	0.8054	-0.238
Mof_O 	O 	0.0365	0.6052	0.6826	-0.156
Mof_O 	O 	0.2462	0.5741	0.8065	-0.17
Mof_C 	C 	0.526	0.1056	0.3201	0.03
Mof_H 	H 	0.5454	0.1053	0.3455	0.027
Mof_C 	C 	0.6257	0.1595	0.3398	0.016
Mof_H 	H 	0.5983	0.176	0.3407	0.034
Mof_N 	N 	0.5376	0.106	0.2775	-0.232
Mof_N 	N 	0.6394	0.1316	0.3054	-0.238
Mof_O 	O 	0.5365	0.1052	0.1826	-0.156
Mof_O 	O 	0.7462	0.0741	0.3065	-0.171
Mof_C 	C 	0.974	0.3944	0.8201	0.038
Mof_H 	H 	0.9546	0.3947	0.8455	0.026
Mof_C 	C 	0.8743	0.3405	0.8398	0.016
Mof_H 	H 	0.9017	0.324	0.8407	0.034
Mof_N 	N 	0.9624	0.394	0.7775	-0.231
Mof_N 	N 	0.8606	0.3684	0.8054	-0.238
Mof_O 	O 	0.9635	0.3948	0.6826	-0.151
Mof_O 	O 	0.7538	0.4259	0.8065	-0.17
Mof_C 	C 	0.474	0.8944	0.3201	0.031
Mof_H 	H 	0.4546	0.8947	0.3455	0.028
Mof_C 	C 	0.3743	0.8405	0.3398	0.016
Mof_H 	H 	0.4017	0.824	0.3407	0.034
Mof_N 	N 	0.4624	0.894	0.2775	-0.232
Mof_N 	N 	0.3606	0.8684	0.3054	-0.238
Mof_O 	O 	0.4635	0.8948	0.1826	-0.155
Mof_O 	O 	0.2538	0.9259	0.3065	-0.169
Mof_C 	C 	0.3944	0.8201	0.974	0.038
Mof_H 	H 	0.3947	0.8455	0.9546	0.026
Mof_C 	C 	0.3405	0.8398	0.8743	0.016
Mof_H 	H 	0.324	0.8407	0.9017	0.034
Mof_N 	N 	0.394	0.7775	0.9624	-0.231
Mof_N 	N 	0.3684	0.8054	0.8606	-0.238
Mof_O 	O 	0.3948	0.6826	0.9635	-0.151
Mof_O 	O 	0.4259	0.8065	0.7538	-0.17
Mof_C 	C 	0.8944	0.3201	0.474	0.031
Mof_H 	H 	0.8947	0.3455	0.4546	0.028
Mof_C 	C 	0.8405	0.3398	0.3743	0.016
Mof_H 	H 	0.824	0.3407	0.4017	0.034
Mof_N 	N 	0.894	0.2775	0.4624	-0.232
Mof_N 	N 	0.8684	0.3054	0.3606	-0.238
Mof_O 	O 	0.8948	0.1826	0.4635	-0.155
Mof_O 	O 	0.9259	0.3065	0.2538	-0.169
Mof_C 	C 	0.6056	0.8201	0.026	0.023
Mof_H 	H 	0.6053	0.8455	0.0454	0.029
Mof_C 	C 	0.6595	0.8398	0.1257	0.016
Mof_H 	H 	0.676	0.8407	0.0983	0.034
Mof_N 	N 	0.606	0.7775	0.0376	-0.231
Mof_N 	N 	0.6316	0.8054	0.1394	-0.238
Mof_O 	O 	0.6052	0.6826	0.0365	-0.156
Mof_O 	O 	0.5741	0.8065	0.2462	-0.17
Mof_C 	C 	0.1056	0.3201	0.526	0.03
Mof_H 	H 	0.1053	0.3455	0.5454	0.027
Mof_C 	C 	0.1595	0.3398	0.6257	0.016
Mof_H 	H 	0.176	0.3407	0.5983	0.034
Mof_N 	N 	0.106	0.2775	0.5376	-0.232
Mof_N 	N 	0.1316	0.3054	0.6394	-0.238
Mof_O 	O 	0.1052	0.1826	0.5365	-0.156
Mof_O 	O 	0.0741	0.3065	0.7462	-0.171
Mof_C 	C 	0.6056	0.1799	0.974	0.038
Mof_H 	H 	0.6053	0.1545	0.9546	0.025
Mof_C 	C 	0.6595	0.1602	0.8743	0.016
Mof_H 	H 	0.676	0.1593	0.9017	0.034
Mof_N 	N 	0.606	0.2225	0.9624	-0.231
Mof_N 	N 	0.6316	0.1946	0.8606	-0.238
Mof_O 	O 	0.6052	0.3174	0.9635	-0.151
Mof_O 	O 	0.5741	0.1935	0.7538	-0.17
Mof_C 	C 	0.1056	0.6799	0.474	0.03
Mof_H 	H 	0.1053	0.6545	0.4546	0.027
Mof_C 	C 	0.1595	0.6602	0.3743	0.016
Mof_H 	H 	0.176	0.6593	0.4017	0.034
Mof_N 	N 	0.106	0.7225	0.4624	-0.232
Mof_N 	N 	0.1316	0.6946	0.3606	-0.238
Mof_O 	O 	0.1052	0.8174	0.4635	-0.155
Mof_O 	O 	0.0741	0.6935	0.2538	-0.171
Mof_C 	C 	0.3944	0.1799	0.026	0.022
Mof_H 	H 	0.3947	0.1545	0.0454	0.029
Mof_C 	C 	0.3405	0.1602	0.1257	0.015
Mof_H 	H 	0.324	0.1593	0.0983	0.033
Mof_N 	N 	0.394	0.2225	0.0376	-0.231
Mof_N 	N 	0.3684	0.1946	0.1394	-0.238
Mof_O 	O 	0.3948	0.3174	0.0365	-0.156
Mof_O 	O 	0.4259	0.1935	0.2462	-0.17
Mof_C 	C 	0.8944	0.6799	0.526	0.031
Mof_H 	H 	0.8947	0.6545	0.5454	0.028
Mof_C 	C 	0.8405	0.6602	0.6257	0.016
Mof_H 	H 	0.824	0.6593	0.5983	0.034
Mof_N 	N 	0.894	0.7225	0.5376	-0.232
Mof_N 	N 	0.8684	0.6946	0.6394	-0.238
Mof_O 	O 	0.8948	0.8174	0.5365	-0.154
Mof_O 	O 	0.9259	0.6935	0.7462	-0.168
Mof_C 	C 	0.8201	0.026	0.6056	0.023
Mof_H 	H 	0.8455	0.0454	0.6053	0.029
Mof_C 	C 	0.8398	0.1257	0.6595	0.016
Mof_H 	H 	0.8407	0.0983	0.676	0.034
Mof_N 	N 	0.7775	0.0376	0.606	-0.231
Mof_N 	N 	0.8054	0.1394	0.6316	-0.238
Mof_O 	O 	0.6826	0.0365	0.6052	-0.156
Mof_O 	O 	0.8065	0.2462	0.5741	-0.17
Mof_C 	C 	0.3201	0.526	0.1056	0.03
Mof_H 	H 	0.3455	0.5454	0.1053	0.027
Mof_C 	C 	0.3398	0.6257	0.1595	0.016
Mof_H 	H 	0.3407	0.5983	0.176	0.034
Mof_N 	N 	0.2775	0.5376	0.106	-0.232
Mof_N 	N 	0.3054	0.6394	0.1316	-0.238
Mof_O 	O 	0.1826	0.5365	0.1052	-0.156
Mof_O 	O 	0.3065	0.7462	0.0741	-0.171
Mof_C 	C 	0.8201	0.974	0.3944	0.038
Mof_H 	H 	0.8455	0.9546	0.3947	0.026
Mof_C 	C 	0.8398	0.8743	0.3405	0.016
Mof_H 	H 	0.8407	0.9017	0.324	0.034
Mof_N 	N 	0.7775	0.9624	0.394	-0.231
Mof_N 	N 	0.8054	0.8606	0.3684	-0.238
Mof_O 	O 	0.6826	0.9635	0.3948	-0.151
Mof_O 	O 	0.8065	0.7538	0.4259	-0.17
Mof_C 	C 	0.3201	0.474	0.8944	0.031
Mof_H 	H 	0.3455	0.4546	0.8947	0.028
Mof_C 	C 	0.3398	0.3743	0.8405	0.016
Mof_H 	H 	0.3407	0.4017	0.824	0.034
Mof_N 	N 	0.2775	0.4624	0.894	-0.232
Mof_N 	N 	0.3054	0.3606	0.8684	-0.238
Mof_O 	O 	0.1826	0.4635	0.8948	-0.155
Mof_O 	O 	0.3065	0.2538	0.9259	-0.169
Mof_C 	C 	0.1799	0.026	0.3944	0.022
Mof_H 	H 	0.1545	0.0454	0.3947	0.029
Mof_C 	C 	0.1602	0.1257	0.3405	0.015
Mof_H 	H 	0.1593	0.0983	0.324	0.033
Mof_N 	N 	0.2225	0.0376	0.394	-0.231
Mof_N 	N 	0.1946	0.1394	0.3684	-0.238
Mof_O 	O 	0.3174	0.0365	0.3948	-0.156
Mof_O 	O 	0.1935	0.2462	0.4259	-0.17
Mof_C 	C 	0.6799	0.526	0.8944	0.031
Mof_H 	H 	0.6545	0.5454	0.8947	0.028
Mof_C 	C 	0.6602	0.6257	0.8405	0.016
Mof_H 	H 	0.6593	0.5983	0.824	0.034
Mof_N 	N 	0.7225	0.5376	0.894	-0.232
Mof_N 	N 	0.6946	0.6394	0.8684	-0.238
Mof_O 	O 	0.8174	0.5365	0.8948	-0.154
Mof_O 	O 	0.6935	0.7462	0.9259	-0.168
Mof_C 	C 	0.1799	0.974	0.6056	0.038
Mof_H 	H 	0.1545	0.9546	0.6053	0.025
Mof_C 	C 	0.1602	0.8743	0.6595	0.016
Mof_H 	H 	0.1593	0.9017	0.676	0.034
Mof_N 	N 	0.2225	0.9624	0.606	-0.231
Mof_N 	N 	0.1946	0.8606	0.6316	-0.238
Mof_O 	O 	0.3174	0.9635	0.6052	-0.151
Mof_O 	O 	0.1935	0.7538	0.5741	-0.17
Mof_C 	C 	0.6799	0.474	0.1056	0.03
Mof_H 	H 	0.6545	0.4546	0.1053	0.027
Mof_C 	C 	0.6602	0.3743	0.1595	0.016
Mof_H 	H 	0.6593	0.4017	0.176	0.034
Mof_N 	N 	0.7225	0.4624	0.106	-0.232
Mof_N 	N 	0.6946	0.3606	0.1316	-0.238
Mof_O 	O 	0.8174	0.4635	0.1052	-0.155
Mof_O 	O 	0.6935	0.2538	0.0741	-0.171
Mof_C 	C 	0.6156	0.8187	0.1813	0.14
Mof_N 	N 	0.5865	0.791	0.209	-0.019
Mof_C 	C 	0.1156	0.3187	0.6813	0.14
Mof_N 	N 	0.0865	0.291	0.709	-0.018
Mof_C 	C 	0.3844	0.1813	0.1813	0.14
Mof_N 	N 	0.4135	0.209	0.209	-0.019
Mof_C 	C 	0.8844	0.6813	0.6813	0.14
Mof_N 	N 	0.9135	0.709	0.709	-0.019
Mof_C 	C 	0.3844	0.8187	0.8187	0.14
Mof_N 	N 	0.4135	0.791	0.791	-0.019
Mof_C 	C 	0.8844	0.3187	0.3187	0.14
Mof_N 	N 	0.9135	0.291	0.291	-0.019
Mof_C 	C 	0.6156	0.1813	0.8187	0.14
Mof_N 	N 	0.5865	0.209	0.791	-0.019
Mof_C 	C 	0.1156	0.6813	0.3187	0.14
Mof_N 	N 	0.0865	0.709	0.291	-0.018
Mof_C 	C 	0.1813	0.6156	0.8187	0.14
Mof_N 	N 	0.209	0.5865	0.791	-0.019
Mof_C 	C 	0.6813	0.1156	0.3187	0.14
Mof_N 	N 	0.709	0.0865	0.291	-0.018
Mof_C 	C 	0.1813	0.3844	0.1813	0.14
Mof_N 	N 	0.209	0.4135	0.209	-0.019
Mof_C 	C 	0.6813	0.8844	0.6813	0.14
Mof_N 	N 	0.709	0.9135	0.709	-0.019
Mof_C 	C 	0.8187	0.3844	0.8187	0.14
Mof_N 	N 	0.791	0.4135	0.791	-0.019
Mof_C 	C 	0.3187	0.8844	0.3187	0.14
Mof_N 	N 	0.291	0.9135	0.291	-0.019
Mof_C 	C 	0.8187	0.6156	0.1813	0.14
Mof_N 	N 	0.791	0.5865	0.209	-0.019
Mof_C 	C 	0.3187	0.1156	0.6813	0.14
Mof_N 	N 	0.291	0.0865	0.709	-0.018
Mof_C 	C 	0.8187	0.1813	0.6156	0.14
Mof_N 	N 	0.791	0.209	0.5865	-0.019
Mof_C 	C 	0.3187	0.6813	0.1156	0.14
Mof_N 	N 	0.291	0.709	0.0865	-0.018
Mof_C 	C 	0.1813	0.1813	0.3844	0.14
Mof_N 	N 	0.209	0.209	0.4135	-0.019
Mof_C 	C 	0.6813	0.6813	0.8844	0.14
Mof_N 	N 	0.709	0.709	0.9135	-0.019
Mof_C 	C 	0.8187	0.8187	0.3844	0.14
Mof_N 	N 	0.791	0.791	0.4135	-0.019
Mof_C 	C 	0.3187	0.3187	0.8844	0.14
Mof_N 	N 	0.291	0.291	0.9135	-0.019
Mof_C 	C 	0.1813	0.8187	0.6156	0.14
Mof_N 	N 	0.209	0.791	0.5865	-0.019
Mof_C 	C 	0.6813	0.3187	0.1156	0.14
Mof_N 	N 	0.709	0.291	0.0865	-0.018
Mof_C 	C 	0.8187	0.6156	0.8187	0.14
Mof_N 	N 	0.791	0.5865	0.791	-0.019
Mof_C 	C 	0.3187	0.1156	0.3187	0.14
Mof_N 	N 	0.291	0.0865	0.291	-0.018
Mof_C 	C 	0.1813	0.3844	0.8187	0.14
Mof_N 	N 	0.209	0.4135	0.791	-0.019
Mof_C 	C 	0.6813	0.8844	0.3187	0.14
Mof_N 	N 	0.709	0.9135	0.291	-0.019
Mof_C 	C 	0.8187	0.3844	0.1813	0.14
Mof_N 	N 	0.791	0.4135	0.209	-0.019
Mof_C 	C 	0.3187	0.8844	0.6813	0.14
Mof_N 	N 	0.291	0.9135	0.709	-0.019
Mof_C 	C 	0.1813	0.6156	0.1813	0.14
Mof_N 	N 	0.209	0.5865	0.209	-0.019
Mof_C 	C 	0.6813	0.1156	0.6813	0.14
Mof_N 	N 	0.709	0.0865	0.709	-0.019
Mof_C 	C 	0.6156	0.1813	0.1813	0.14
Mof_N 	N 	0.5865	0.209	0.209	-0.019
Mof_C 	C 	0.1156	0.6813	0.6813	0.14
Mof_N 	N 	0.0865	0.709	0.709	-0.019
Mof_C 	C 	0.3844	0.1813	0.8187	0.14
Mof_N 	N 	0.4135	0.209	0.791	-0.019
Mof_C 	C 	0.8844	0.6813	0.3187	0.14
Mof_N 	N 	0.9135	0.709	0.291	-0.019
Mof_C 	C 	0.3844	0.8187	0.1813	0.14
Mof_N 	N 	0.4135	0.791	0.209	-0.019
Mof_C 	C 	0.8844	0.3187	0.6813	0.14
Mof_N 	N 	0.9135	0.291	0.709	-0.019
Mof_C 	C 	0.6156	0.8187	0.8187	0.14
Mof_N 	N 	0.5865	0.791	0.791	-0.019
Mof_C 	C 	0.1156	0.3187	0.3187	0.14
Mof_N 	N 	0.0865	0.291	0.291	-0.018
Mof_C 	C 	0.1813	0.8187	0.3844	0.14
Mof_N 	N 	0.209	0.791	0.4135	-0.019
Mof_C 	C 	0.6813	0.3187	0.8844	0.14
Mof_N 	N 	0.709	0.291	0.9135	-0.019
Mof_C 	C 	0.1813	0.1813	0.6156	0.14
Mof_N 	N 	0.209	0.209	0.5865	-0.019
Mof_C 	C 	0.6813	0.6813	0.1156	0.14
Mof_N 	N 	0.709	0.709	0.0865	-0.019
Mof_C 	C 	0.8187	0.8187	0.6156	0.14
Mof_N 	N 	0.791	0.791	0.5865	-0.019
Mof_C 	C 	0.3187	0.3187	0.1156	0.14
Mof_N 	N 	0.291	0.291	0.0865	-0.018
Mof_C 	C 	0.8187	0.1813	0.3844	0.14
Mof_N 	N 	0.791	0.209	0.4135	-0.019
Mof_C 	C 	0.3187	0.6813	0.8844	0.14
Mof_N 	N 	0.291	0.709	0.9135	-0.019
Mof_C 	C 	0.6069	0	0.25	0.149
Mof_N 	N 	0.6077	2.06362e-33	0.2954	-0.035
Mof_C 	C 	0.1069	0.5	0.75	0.154
Mof_N 	N 	0.1077	0.5	0.7954	-0.033
Mof_C 	C 	0.3931	0	0.25	0.149
Mof_N 	N 	0.3923	2.06362e-33	0.2954	-0.035
Mof_C 	C 	0.8931	0.5	0.75	0.155
Mof_N 	N 	0.8923	0.5	0.7954	-0.033
Mof_C 	C 	0.3931	8.25449e-33	0.75	0.149
Mof_N 	N 	0.3923	8.25449e-33	0.7046	-0.035
Mof_C 	C 	0.8931	0.5	0.25	0.155
Mof_N 	N 	0.8923	0.5	0.2046	-0.033
Mof_C 	C 	0.6069	8.25449e-33	0.75	0.149
Mof_N 	N 	0.6077	8.25449e-33	0.7046	-0.035
Mof_C 	C 	0.1069	0.5	0.25	0.154
Mof_N 	N 	0.1077	0.5	0.2046	-0.033
Mof_C 	C 	0.25	0.6069	-0	0.149
Mof_N 	N 	0.2954	0.6077	-0	-0.035
Mof_C 	C 	0.75	0.1069	0.5	0.154
Mof_N 	N 	0.7954	0.1077	0.5	-0.033
Mof_C 	C 	0.25	0.3931	-0	0.149
Mof_N 	N 	0.2954	0.3923	-0	-0.035
Mof_C 	C 	0.75	0.8931	0.5	0.155
Mof_N 	N 	0.7954	0.8923	0.5	-0.033
Mof_C 	C 	0.75	0.3931	-0	0.149
Mof_N 	N 	0.7046	0.3923	-0	-0.035
Mof_C 	C 	0.25	0.8931	0.5	0.155
Mof_N 	N 	0.2046	0.8923	0.5	-0.033
Mof_C 	C 	0.75	0.6069	-0	0.149
Mof_N 	N 	0.7046	0.6077	-0	-0.035
Mof_C 	C 	0.25	0.1069	0.5	0.154
Mof_N 	N 	0.2046	0.1077	0.5	-0.033
Mof_C 	C 	-1.85174e-33	0.25	0.6069	0.149
Mof_N 	N 	2.27851e-33	0.2954	0.6077	-0.035
Mof_C 	C 	0.5	0.75	0.1069	0.154
Mof_N 	N 	0.5	0.7954	0.1077	-0.033
Mof_C 	C 	1.47389e-33	0.25	0.3931	0.149
Mof_N 	N 	1.47089e-33	0.2954	0.3923	-0.035
Mof_C 	C 	0.5	0.75	0.8931	0.155
Mof_N 	N 	0.5	0.7954	0.8923	-0.033
Mof_C 	C 	1.47389e-33	0.75	0.3931	0.149
Mof_N 	N 	1.38526e-32	0.7046	0.3923	-0.035
Mof_C 	C 	0.5	0.25	0.8931	0.155
Mof_N 	N 	0.5	0.2046	0.8923	-0.033
Mof_C 	C 	6.40276e-33	0.75	0.6069	0.149
Mof_N 	N 	2.27851e-33	0.7046	0.6077	-0.035
Mof_C 	C 	0.5	0.25	0.1069	0.154
Mof_N 	N 	0.5	0.2046	0.1077	-0.033
Mof_C 	C 	1.10665e-32	0.6069	0.75	0.149
Mof_N 	N 	2.64183e-33	0.6077	0.7046	-0.035
Mof_C 	C 	0.5	0.1069	0.25	0.154
Mof_N 	N 	0.5	0.1077	0.2046	-0.033
Mof_C 	C 	-5.44244e-33	0.3931	0.75	0.149
Mof_N 	N 	1.08963e-32	0.3923	0.7046	-0.035
Mof_C 	C 	0.5	0.8931	0.25	0.155
Mof_N 	N 	0.5	0.8923	0.2046	-0.033
Mof_C 	C 	5.0646e-33	0.3931	0.25	0.149
Mof_N 	N 	1.10757e-33	0.3923	0.2954	-0.035
Mof_C 	C 	0.5	0.8931	0.75	0.155
Mof_N 	N 	0.5	0.8923	0.7954	-0.033
Mof_C 	C 	9.3735e-34	0.6069	0.25	0.149
Mof_N 	N 	5.23482e-33	0.6077	0.2954	-0.035
Mof_C 	C 	0.5	0.1069	0.75	0.154
Mof_N 	N 	0.5	0.1077	0.7954	-0.033
Mof_C 	C 	0.6069	0.25	-0	0.149
Mof_N 	N 	0.6077	0.2954	-0	-0.035
Mof_C 	C 	0.1069	0.75	0.5	0.154
Mof_N 	N 	0.1077	0.7954	0.5	-0.033
Mof_C 	C 	0.3931	0.25	-0	0.149
Mof_N 	N 	0.3923	0.2954	-0	-0.035
Mof_C 	C 	0.8931	0.75	0.5	0.155
Mof_N 	N 	0.8923	0.7954	0.5	-0.033
Mof_C 	C 	0.3931	0.75	-0	0.149
Mof_N 	N 	0.3923	0.7046	-0	-0.035
Mof_C 	C 	0.8931	0.25	0.5	0.155
Mof_N 	N 	0.8923	0.2046	0.5	-0.033
Mof_C 	C 	0.6069	0.75	-0	0.149
Mof_N 	N 	0.6077	0.7046	-0	-0.035
Mof_C 	C 	0.1069	0.25	0.5	0.154
Mof_N 	N 	0.1077	0.2046	0.5	-0.033
Mof_C 	C 	0.25	0	0.3931	0.149
Mof_N 	N 	0.2954	0	0.3923	-0.035
Mof_C 	C 	0.75	0.5	0.8931	0.155
Mof_N 	N 	0.7954	0.5	0.8923	-0.033
Mof_C 	C 	0.25	0	0.6069	0.149
Mof_N 	N 	0.2954	0	0.6077	-0.035
Mof_C 	C 	0.75	0.5	0.1069	0.154
Mof_N 	N 	0.7954	0.5	0.1077	-0.033
Mof_C 	C 	0.75	0	0.6069	0.149
Mof_N 	N 	0.7046	0	0.6077	-0.035
Mof_C 	C 	0.25	0.5	0.1069	0.154
Mof_N 	N 	0.2046	0.5	0.1077	-0.033
Mof_C 	C 	0.75	0	0.3931	0.149
Mof_N 	N 	0.7046	0	0.3923	-0.035
Mof_C 	C 	0.25	0.5	0.8931	0.155
Mof_N 	N 	0.2046	0.5	0.8923	-0.033
Mof_Co	Co	0.605	0.895	0.25	1.134
Mof_Co	Co	0.395	0.105	0.25	1.134
Mof_Co	Co	0.395	0.895	0.75	1.134
Mof_Co	Co	0.605	0.105	0.75	1.134
Mof_Co	Co	0.25	0.605	0.895	1.134
Mof_Co	Co	0.25	0.395	0.105	1.134
Mof_Co	Co	0.75	0.395	0.895	1.134
Mof_Co	Co	0.75	0.605	0.105	1.134
Mof_Co	Co	0.895	0.25	0.605	1.134
Mof_Co	Co	0.105	0.25	0.395	1.134
Mof_Co	Co	0.895	0.75	0.395	1.134
Mof_Co	Co	0.105	0.75	0.605	1.134
Mof_Co	Co	0.895	0.605	0.75	1.134
Mof_Co	Co	0.105	0.395	0.75	1.134
Mof_Co	Co	0.895	0.395	0.25	1.134
Mof_Co	Co	0.105	0.605	0.25	1.134
Mof_Co	Co	0.605	0.25	0.105	1.134
Mof_Co	Co	0.395	0.25	0.895	1.134
Mof_Co	Co	0.395	0.75	0.105	1.134
Mof_Co	Co	0.605	0.75	0.895	1.134
Mof_Co	Co	0.25	0.895	0.395	1.134
Mof_Co	Co	0.25	0.105	0.605	1.134
Mof_Co	Co	0.75	0.895	0.605	1.134
Mof_Co	Co	0.75	0.105	0.395	1.134
Mof_Co	Co	0.395	0.105	0.75	1.134
Mof_Co	Co	0.605	0.895	0.75	1.134
Mof_Co	Co	0.605	0.105	0.25	1.134
Mof_Co	Co	0.395	0.895	0.25	1.134
Mof_Co	Co	0.75	0.395	0.105	1.134
Mof_Co	Co	0.75	0.605	0.895	1.134
Mof_Co	Co	0.25	0.605	0.105	1.134
Mof_Co	Co	0.25	0.395	0.895	1.134
Mof_Co	Co	0.105	0.75	0.395	1.134
Mof_Co	Co	0.895	0.75	0.605	1.134
Mof_Co	Co	0.105	0.25	0.605	1.134
Mof_Co	Co	0.895	0.25	0.395	1.134
Mof_Co	Co	0.105	0.395	0.25	1.134
Mof_Co	Co	0.895	0.605	0.25	1.134
Mof_Co	Co	0.105	0.605	0.75	1.134
Mof_Co	Co	0.895	0.395	0.75	1.134
Mof_Co	Co	0.395	0.75	0.895	1.134
Mof_Co	Co	0.605	0.75	0.105	1.134
Mof_Co	Co	0.605	0.25	0.895	1.134
Mof_Co	Co	0.395	0.25	0.105	1.134
Mof_Co	Co	0.75	0.105	0.605	1.134
Mof_Co	Co	0.75	0.895	0.395	1.134
Mof_Co	Co	0.25	0.105	0.395	1.134
Mof_Co	Co	0.25	0.895	0.605	1.134
_end
