data_functionalizedCrystal
_audit_creation_method	'EQeq! by Chris Wilmer'
_symmetry_space_group_name_H-M	'P1'
_symmetry_Int_Tables_number	1
_symmetry_cell_setting	triclinic
loop_
_symmetry_equiv_pos_as_xyz
  x,y,z
_cell_length_a	19.118
_cell_length_b	23.024
_cell_length_c	30.075
_cell_angle_alpha	90.07
_cell_angle_beta	97.36
_cell_angle_gamma	90.09
loop_
_atom_site_label
_atom_site_type_symbol
_atom_site_fract_x
_atom_site_fract_y
_atom_site_fract_z
_atom_site_charge
Mof_Zn	Zn	0.99396	0.76256	0.18433	1.208
Mof_Zn	Zn	0.00354	0.90576	0.61603	1.207
Mof_Zn	Zn	0.4227	0.33467	0.60608	1.208
Mof_Zn	Zn	0.9301	0.82903	0.68021	1.213
Mof_Zn	Zn	0.50329	0.25853	0.68744	1.178
Mof_Zn	Zn	0.88847	0.83078	0.10995	1.172
Mof_Zn	Zn	0.47987	0.40163	0.11433	1.206
Mof_Zn	Zn	0.58894	0.33992	0.62234	1.215
Mof_Zn	Zn	0.09601	0.83456	0.68938	1.207
Mof_Zn	Zn	0.01443	0.77059	0.60111	1.175
Mof_Zn	Zn	0.56117	0.33073	0.19296	1.215
Mof_Zn	Zn	0.05955	0.83735	0.11266	1.216
Mof_Zn	Zn	0.50322	0.39722	0.6904	1.211
Mof_Zn	Zn	0.48831	0.26939	0.10539	1.212
Mof_Zn	Zn	0.38914	0.32492	0.17288	1.18
Mof_Zn	Zn	0.98903	0.89608	0.1889	1.208
Mof_H 	H 	0.1415	0.6326	0.1901	0.058
Mof_H 	H 	0.1627	0.1404	0.5885	0.071
Mof_H 	H 	0.3417	0.1307	0.0634	0.037
Mof_H 	H 	0.6328	0.5422	0.716	0.036
Mof_H 	H 	0.8688	0.6116	0.1915	0.059
Mof_H 	H 	0.838	0.1475	0.6019	0.063
Mof_H 	H 	0.1341	0.8285	0.9086	0.06
Mof_H 	H 	0.1406	0.6376	0.6129	0.035
Mof_H 	H 	0.1959	0.5542	0.5712	0.054
Mof_H 	H 	0.8205	0.5226	0.2214	0.064
Mof_H 	H 	0.5494	0.2315	0.8962	0.05
Mof_H 	H 	0.6995	0.6249	0.7209	0.056
Mof_H 	H 	0.639	0.1234	0.675	0.046
Mof_H 	H 	0.4847	0.4528	0.9034	0.074
Mof_H 	H 	0.6176	0.3681	0.4861	0.031
Mof_H 	H 	0.3598	0.5532	0.1153	0.056
Mof_H 	H 	0.6381	0.5181	0.1032	0.05
Mof_H 	H 	0.3125	0.1574	0.1918	0.051
Mof_H 	H 	0.7766	0.6812	0.0742	0.029
Mof_H 	H 	0.5185	0.2703	0.9687	0.049
Mof_H 	H 	0.3665	0.3082	0.309	0.03
Mof_H 	H 	0.7203	0.4872	0.6076	0.049
Mof_H 	H 	0.4755	0.4412	0.9774	0.032
Mof_H 	H 	0.0706	0.8333	0.9757	0.055
Mof_H 	H 	0.2407	0.2132	0.5839	0.034
Mof_H 	H 	0.2718	0.475	0.5754	0.036
Mof_H 	H 	0.2312	0.7267	0.1	0.038
Mof_H 	H 	0.7063	0.1899	0.2303	0.041
Mof_H 	H 	0.3913	0.1214	0.6591	0.036
Mof_H 	H 	0.6831	0.6109	0.0726	0.053
Mof_H 	H 	0.7827	0.9903	0.0723	0.027
Mof_H 	H 	0.9108	0.8486	0.8214	0.056
Mof_H 	H 	0.2686	0.0484	0.0591	0.055
Mof_H 	H 	0.4116	0.316	0.4623	0.054
Mof_H 	H 	0.997	0.9125	0.3296	0.065
Mof_H 	H 	0.753	0.9434	0.6906	0.035
Mof_H 	H 	0.8419	0.0306	0.2055	0.055
Mof_H 	H 	0.5697	0.242	0.8241	0.031
Mof_H 	H 	0.1932	0.984	0.0948	0.051
Mof_H 	H 	0.5125	0.415	0.8305	0.068
Mof_H 	H 	0.2516	0.6983	0.7251	0.041
Mof_H 	H 	0.2268	0.098	0.2273	0.06
Mof_H 	H 	0.7334	0.4527	0.2208	0.036
Mof_H 	H 	0.8534	0.847	0.8882	0.064
Mof_H 	H 	0.871	0.0453	0.6181	0.057
Mof_H 	H 	0.004	0.9543	0.4757	0.044
Mof_H 	H 	0.3683	0.2826	0.3846	0.064
Mof_H 	H 	0.2779	0.9518	0.6953	0.037
Mof_H 	H 	0.5711	0.3563	0.3351	0.059
Mof_H 	H 	0.8017	0.5514	0.5752	0.057
Mof_H 	H 	0.0061	0.9612	0.4019	0.068
Mof_H 	H 	0.9718	0.7817	0.4717	0.039
Mof_H 	H 	0.8599	0.6414	0.5739	0.032
Mof_H 	H 	0.275	0.4602	0.2085	0.027
Mof_H 	H 	0.7587	0.2243	0.6059	0.037
Mof_H 	H 	0.3135	0.6549	0.0953	0.063
Mof_H 	H 	0.6183	0.3825	0.4129	0.068
Mof_H 	H 	0.361	0.0253	0.6916	0.052
Mof_H 	H 	0.7238	0.0788	0.0647	0.059
Mof_H 	H 	0.1458	0.0238	0.2228	0.042
Mof_H 	H 	0.1844	0.5306	0.2065	0.06
Mof_H 	H 	0.975	0.7266	0.3987	0.057
Mof_H 	H 	0.3289	0.6229	0.7276	0.067
Mof_H 	H 	0.6576	0.1571	0.0985	0.057
Mof_H 	H 	0.1304	0.0462	0.6178	0.061
Mof_H 	H 	0.7786	0.1105	0.2394	0.066
Mof_H 	H 	0.8609	0.8491	0.9662	0.028
Mof_H 	H 	0.7975	0.6835	0.6933	0.052
Mof_H 	H 	0.6751	0.0198	0.6947	0.057
Mof_H 	H 	0.1293	0.8316	0.8323	0.044
Mof_H 	H 	0.9914	0.7334	0.3263	0.034
Mof_H 	H 	0.3642	0.5282	0.6966	0.058
Mof_C 	C 	0.4785	0.3241	0.2652	0.388
Mof_C 	C 	0.2088	0.137	0.6044	-0.103
Mof_C 	C 	0.5126	0.3075	0.9551	-0.021
Mof_C 	C 	0.2741	0.5017	0.5997	0.016
Mof_C 	C 	0.8237	0.0052	0.1395	-0.104
Mof_C 	C 	0.9025	0.8459	0.9521	0.027
Mof_C 	C 	0.2913	0.625	0.7038	-0.091
Mof_C 	C 	0.3245	0.1759	0.6235	-0.103
Mof_C 	C 	0.4606	0.3228	0.4066	0.021
Mof_C 	C 	0.6791	0.4779	0.159	-0.105
Mof_C 	C 	0.7422	0.0652	0.0936	-0.092
Mof_C 	C 	0.2526	0.0507	0.1268	0.014
Mof_C 	C 	0.9608	0.8461	0.8832	0.032
Mof_C 	C 	0.68	0.1282	0.6605	-0.019
Mof_C 	C 	0.9558	0.8457	0.8387	-0.036
Mof_C 	C 	0.7979	0.5798	0.5978	-0.084
Mof_C 	C 	0.142	0.9465	0.6607	0.371
Mof_C 	C 	0.9911	0.817	0.4117	0.015
Mof_C 	C 	0.691	0.1807	0.6422	-0.1
Mof_C 	C 	0.0184	0.841	0.8163	-0.094
Mof_C 	C 	0.3144	0.0299	0.6767	-0.081
Mof_C 	C 	0.2303	0.6924	0.1174	0.021
Mof_C 	C 	0.5781	0.3648	0.4228	-0.104
Mof_C 	C 	0.0151	0.8412	0.7678	0.382
Mof_C 	C 	0.6722	0.178	0.1641	-0.082
Mof_C 	C 	0.3726	0.4431	0.6404	0.385
Mof_C 	C 	0.303	0.1357	0.1648	-0.039
Mof_C 	C 	0.246	0.6696	0.7022	0.021
Mof_C 	C 	0.2271	0.5908	0.1701	0.027
Mof_C 	C 	0.8704	0.9402	0.6498	0.386
Mof_C 	C 	0.2285	0.5485	0.5975	-0.088
Mof_C 	C 	0.4071	0.3025	0.3748	-0.086
Mof_C 	C 	0.2784	0.6496	0.1147	-0.084
Mof_C 	C 	0.2253	0.0871	0.6302	0.036
Mof_C 	C 	0.0023	0.924	0.415	-0.098
Mof_C 	C 	0.3197	0.1194	0.0886	0.004
Mof_C 	C 	0.1896	0.6743	0.6666	-0.095
Mof_C 	C 	0.1254	0.7317	0.148	0.395
Mof_C 	C 	0.2839	0.5803	0.67	0.025
Mof_C 	C 	0.6189	0.2242	0.1578	0.329
Mof_C 	C 	0.7648	0.0863	0.1724	0.021
Mof_C 	C 	0.9824	0.8167	0.4572	-0.041
Mof_C 	C 	0.1776	0.6361	0.1713	-0.034
Mof_C 	C 	0.6233	0.4353	0.1574	0.367
Mof_C 	C 	0.1688	0.987	0.1593	-0.106
Mof_C 	C 	0.3274	0.5506	0.1366	-0.021
Mof_C 	C 	0.6708	0.5057	0.6623	-0.121
Mof_C 	C 	0.3436	0.1259	0.6464	-0.028
Mof_C 	C 	0.676	0.5189	0.127	-0.016
Mof_C 	C 	0.535	0.3306	0.8184	-0.08
Mof_C 	C 	0.7548	0.5707	0.6308	0.018
Mof_C 	C 	0.1363	0.7232	0.6661	0.366
Mof_C 	C 	0.09	0.8339	0.8906	-0.078
Mof_C 	C 	0.2295	0.5866	0.6324	0.016
Mof_C 	C 	0.1769	0.0429	0.6332	-0.043
Mof_C 	C 	0.7548	0.12	0.2107	-0.089
Mof_C 	C 	0.8851	0.7	0.1388	0.361
Mof_C 	C 	0.8306	0.0405	0.6332	-0.03
Mof_C 	C 	0.1806	0.6348	0.635	-0.026
Mof_C 	C 	0.6813	0.1463	0.127	-0.038
Mof_C 	C 	0.7288	0.564	0.1278	0.009
Mof_C 	C 	0.329	0.5332	0.6716	-0.034
Mof_C 	C 	0.4886	0.3471	0.0283	0.377
Mof_C 	C 	0.5213	0.315	0.9099	0.003
Mof_C 	C 	0.7763	0.6528	0.0971	-0.007
Mof_C 	C 	0.5289	0.3432	0.3455	-0.033
Mof_C 	C 	0.493	0.4155	0.9164	-0.109
Mof_C 	C 	0.5422	0.2687	0.8826	-0.074
Mof_C 	C 	0.711	0.1655	0.2053	0.017
Mof_C 	C 	0.8357	0.6316	0.5985	0.016
Mof_C 	C 	0.0267	0.8378	0.9574	-0.023
Mof_C 	C 	0.2755	0.4943	0.1909	0.009
Mof_C 	C 	0.3288	0.1529	0.1271	-0.083
Mof_C 	C 	0.2649	0.9865	0.6793	0.008
Mof_C 	C 	0.3289	0.5048	0.1623	-0.099
Mof_C 	C 	0.7154	0.5156	0.6299	-0.013
Mof_C 	C 	0.8153	0.0387	0.1773	-0.025
Mof_C 	C 	0.9993	0.9197	0.4584	0.019
Mof_C 	C 	0.8306	0.6519	0.1355	-0.085
Mof_C 	C 	0.9873	0.8666	0.532	0.353
Mof_C 	C 	0.3229	0.4938	0.6371	-0.096
Mof_C 	C 	0.9987	0.8762	0.3447	-0.053
Mof_C 	C 	0.5114	0.3707	0.8897	0.042
Mof_C 	C 	0.8384	0.6702	0.6362	-0.098
Mof_C 	C 	0.2618	0.0851	0.1632	0.02
Mof_C 	C 	0.4953	0.3546	0.97943	-0.105
Mof_C 	C 	0.7226	0.6095	0.0952	-0.075
Mof_C 	C 	0.1745	0.0292	0.1996	0.014
Mof_C 	C 	0.4552	0.3259	0.4521	-0.019
Mof_C 	C 	0.2789	0.0695	0.0863	-0.081
Mof_C 	C 	0.4087	0.3106	0.3294	0.024
Mof_C 	C 	0.8325	0.6097	0.1667	-0.042
Mof_C 	C 	0.7606	0.9796	0.6768	0.019
Mof_C 	C 	0.7834	0.0868	0.6349	0.029
Mof_C 	C 	0.7255	0.0803	0.6595	0.016
Mof_C 	C 	0.5764	0.3602	0.4658	0.034
Mof_C 	C 	0.087	0.8349	0.84563	0.014
Mof_C 	C 	0.8832	0.7221	0.6378	0.385
Mof_C 	C 	0.5187	0.3778	0.8439	-0.049
Mof_C 	C 	0.2785	0.597	0.1396	0.019
Mof_C 	C 	0.6265	0.4548	0.6597	0.407
Mof_C 	C 	0.7505	0.188	0.6193	0.022
Mof_C 	C 	0.8189	0.9876	0.6534	-0.095
Mof_C 	C 	0.1187	0.9432	0.15758	0.363
Mof_C 	C 	0.386	0.2013	0.1312	0.369
Mof_C 	C 	0.7822	0.0161	0.0969	0.017
Mof_C 	C 	0.525	0.3454	0.3908	0.035
Mof_C 	C 	0.2238	0.5381	0.191	-0.087
Mof_C 	C 	0.6412	0.2297	0.6461	0.393
Mof_C 	C 	0.5101	0.3418	0.5315	0.393
Mof_C 	C 	0.2031	0.0039	0.1226	-0.019
Mof_C 	C 	0.9897	0.8683	0.4804	-0.087
Mof_C 	C 	0.0257	0.841	0.912	0.015
Mof_C 	C 	0.9667	0.8408	0.9773	-0.1
Mof_C 	C 	0.784	0.5628	0.1652	0.035
Mof_C 	C 	0.3806	0.4542	0.1581	0.421
Mof_C 	C 	0.7971	0.1421	0.6163	-0.089
Mof_C 	C 	0.196	0.9935	0.6585	-0.089
Mof_C 	C 	0.7056	0.5972	0.6982	-0.098
Mof_C 	C 	0.715	0.0251	0.6793	-0.082
Mof_C 	C 	0.9716	0.838	0.0281	0.404
Mof_C 	C 	0.7968	0.6569	0.6691	-0.031
Mof_C 	C 	0.7536	0.6076	0.6701	0.028
Mof_C 	C 	0.4864	0.4088	0.96003	0.034
Mof_C 	C 	0.7834	0.5221	0.1971	-0.098
Mof_C 	C 	0.7272	0.0961	0.131	0.024
Mof_C 	C 	0.7329	0.4797	0.1969	0.025
Mof_C 	C 	0.5523	0.2734	0.84	-0.007
Mof_C 	C 	0.0001	0.8185	0.3198	-0.091
Mof_C 	C 	0.9842	0.7629	0.3857	-0.095
Mof_C 	C 	0.001	0.8232	0.2698	0.382
Mof_C 	C 	0.3764	0.2239	0.6229	0.339
Mof_C 	C 	0.8984	0.8464	0.9056	-0.096
Mof_C 	C 	0.9918	0.7684	0.34297	0.025
Mof_C 	C 	0.2548	0.1798	0.6012	0.03
Mof_C 	C 	0.5392	0.3384	0.7693	0.35
Mof_C 	C 	0.5112	0.3428	0.483	-0.108
Mof_C 	C 	0.6655	0.548	0.6951	0.036
Mof_C 	C 	0.2205	0.0737	0.2015	-0.085
Mof_C 	C 	0.296	0.081	0.6519	0.01
Mof_C 	C 	0.181	0.6851	0.1456	-0.091
Mof_C 	C 	0.9999	0.8722	0.3871	0.034
Mof_C 	C 	0.8768	0.9589	0.1422	0.37
Mof_C 	C 	0.4742	0.3226	0.3136	-0.097
Mof_O 	O 	0.5725	0.4551	0.6796	-0.509
Mof_O 	O 	0.9625	0.8236	0.54761	-0.506
Mof_O 	O 	0.8766	0.758	0.67041	-0.482
Mof_O 	O 	0.6558	0.2774	0.62756	-0.486
Mof_O 	O 	0.4211	0.2071	0.09884	-0.499
Mof_O 	O 	0.0739	0.8417	0.75149	-0.488
Mof_O 	O 	0.0333	0.8373	0.04849	-0.495
Mof_O 	O 	0.1565	0.7667	0.69062	-0.489
Mof_O 	O 	0.9161	0.9542	0.18031	-0.492
Mof_O 	O 	0.0773	0.9385	0.18866	-0.481
Mof_O 	O 	0.9831	0.83186	0.14804	-0.965
Mof_O 	O 	0.4482	0.3333	0.54488	-0.477
Mof_O 	O 	0.9166	0.8361	0.04559	-0.493
Mof_O 	O 	0.3529	0.2725	0.6052	-0.469
Mof_O 	O 	0.9258	0.7017	0.17599	-0.494
Mof_O 	O 	0.3796	0.2369	0.1614	-0.52
Mof_O 	O 	0.0107	0.83342	0.64814	-0.959
Mof_O 	O 	0.8615	0.89305	0.66913	-0.49
Mof_O 	O 	0.1593	0.9012	0.68198	-0.499
Mof_O 	O 	0.9217	0.7284	0.60836	-0.491
Mof_O 	O 	0.4261	0.3104	0.23962	-0.488
Mof_O 	O 	0.5151	0.3863	0.75403	-0.493
Mof_O 	O 	0.4398	0.2155	0.63619	-0.5
Mof_O 	O 	0.0823	0.7236	0.17647	-0.496
Mof_O 	O 	0.4176	0.463	0.12746	-0.521
Mof_O 	O 	0.4154	0.4392	0.67566	-0.513
Mof_O 	O 	0.3822	0.4149	0.1833	-0.545
Mof_O 	O 	0.5404	0.3359	0.25395	-0.482
Mof_O 	O 	0.1272	0.7733	0.12307	-0.506
Mof_O 	O 	0.6284	0.3945	0.18776	-0.476
Mof_O 	O 	0.5915	0.2213	0.66785	-0.498
Mof_O 	O 	0.48092	0.33053	0.14738	-0.964
Mof_O 	O 	0.9557	0.8365	0.74512	-0.495
Mof_O 	O 	0.5776	0.2292	0.12074	-0.477
Mof_O 	O 	0.9968	0.8716	0.25191	-0.51
Mof_O 	O 	0.1158	0.9082	0.12423	-0.48
Mof_O 	O 	0.6192	0.2614	0.19148	-0.463
Mof_O 	O 	0.4977	0.2968	0.04524	-0.504
Mof_O 	O 	0.6423	0.4123	0.63647	-0.494
Mof_O 	O 	0.0802	0.956	0.63998	-0.508
Mof_O 	O 	0.5053	0.33155	0.65062	-0.952
Mof_O 	O 	0.5726	0.4394	0.12642	-0.492
Mof_O 	O 	0.0039	0.7748	0.24924	-0.492
Mof_O 	O 	0.0782	0.7156	0.644	-0.511
Mof_O 	O 	0.9221	0.9507	0.62839	-0.5
Mof_O 	O 	0.4759	0.3921	0.04972	-0.507
Mof_O 	O 	0.5643	0.3489	0.55695	-0.502
Mof_O 	O 	0.5563	0.2958	0.7466	-0.499
Mof_O 	O 	0.3689	0.4073	0.60846	-0.497
Mof_O 	O 	0.883	0.7363	0.10884	-0.501
Mof_O 	O 	0.8758	0.923	0.1116	-0.501
Mof_O 	O 	0.0024	0.9137	0.5516	-0.485
Mof_Zn	Zn	0.99646	0.09424	0.38397	1.208
Mof_Zn	Zn	0.01097	0.10392	0.8111	1.208
Mof_Zn	Zn	0.00604	0.23744	0.81567	1.209
Mof_Zn	Zn	0.52013	0.59837	0.88567	1.207
Mof_Zn	Zn	0.90399	0.16544	0.31062	1.207
Mof_Zn	Zn	0.0699	0.17097	0.31979	1.214
Mof_Zn	Zn	0.49671	0.74147	0.31256	1.179
Mof_Zn	Zn	0.41106	0.66008	0.37766	1.216
Mof_Zn	Zn	0.49678	0.60278	0.3096	1.211
Mof_Zn	Zn	0.43883	0.66927	0.80704	1.215
Mof_Zn	Zn	0.11153	0.16922	0.89005	1.173
Mof_Zn	Zn	0.51169	0.73061	0.89461	1.212
Mof_Zn	Zn	0.98557	0.22941	0.39889	1.175
Mof_Zn	Zn	0.94045	0.16265	0.88734	1.216
Mof_Zn	Zn	0.5773	0.66533	0.39392	1.209
Mof_Zn	Zn	0.61086	0.67508	0.82712	1.18
Mof_H 	H 	0.162	0.8525	0.3981	0.063
Mof_H 	H 	0.6087	0.8786	0.3409	0.036
Mof_H 	H 	0.8585	0.3674	0.8099	0.058
Mof_H 	H 	0.003	0.0875	0.6704	0.065
Mof_H 	H 	0.5153	0.5472	0.0966	0.074
Mof_H 	H 	0.025	0.2734	0.6013	0.057
Mof_H 	H 	0.9939	0.0388	0.5981	0.068
Mof_H 	H 	0.3169	0.3891	0.9274	0.053
Mof_H 	H 	0.7282	0.525	0.4246	0.036
Mof_H 	H 	0.6711	0.3771	0.2724	0.067
Mof_H 	H 	0.5884	0.684	0.5377	0.054
Mof_H 	H 	0.1312	0.3884	0.8085	0.059
Mof_H 	H 	0.1983	0.4486	0.4248	0.057
Mof_H 	H 	0.1581	0.9694	0.7945	0.055
Mof_H 	H 	0.3824	0.6319	0.5139	0.031
Mof_H 	H 	0.7688	0.2733	0.9	0.038
Mof_H 	H 	0.1795	0.4774	0.7786	0.064
Mof_H 	H 	0.2666	0.5473	0.7792	0.036
Mof_H 	H 	0.8156	0.4694	0.7935	0.06
Mof_H 	H 	0.247	0.0566	0.3094	0.035
Mof_H 	H 	0.2025	0.3165	0.3067	0.052
Mof_H 	H 	0.4303	0.758	0.1759	0.031
Mof_H 	H 	0.6583	0.8693	0.9366	0.037
Mof_H 	H 	0.7314	0.9516	0.9409	0.055
Mof_H 	H 	0.4289	0.6437	0.6649	0.059
Mof_H 	H 	0.639	0.9747	0.3084	0.052
Mof_H 	H 	0.0282	0.2183	0.5283	0.039
Mof_H 	H 	0.7593	0.7868	0.4161	0.034
Mof_H 	H 	0.2413	0.7757	0.3941	0.037
Mof_H 	H 	0.3817	0.6175	0.5871	0.068
Mof_H 	H 	0.7221	0.0482	0.3047	0.037
Mof_H 	H 	0.8594	0.3624	0.3871	0.035
Mof_H 	H 	0.6317	0.7174	0.6154	0.064
Mof_H 	H 	0.8373	0.8596	0.4115	0.071
Mof_H 	H 	0.2937	0.8101	0.7697	0.041
Mof_H 	H 	0.9294	0.1667	0.0243	0.055
Mof_H 	H 	0.8068	0.016	0.9052	0.051
Mof_H 	H 	0.4815	0.7297	0.0313	0.049
Mof_H 	H 	0.4506	0.7685	0.1038	0.05
Mof_H 	H 	0.7484	0.3017	0.2749	0.041
Mof_H 	H 	0.2173	0.0097	0.9277	0.027
Mof_H 	H 	0.361	0.8766	0.325	0.046
Mof_H 	H 	0.8542	0.9762	0.7772	0.042
Mof_H 	H 	0.4875	0.585	0.1695	0.068
Mof_H 	H 	0.0892	0.1514	0.1786	0.056
Mof_H 	H 	0.1466	0.153	0.1118	0.064
Mof_H 	H 	0.8707	0.1684	0.1677	0.044
Mof_H 	H 	0.2797	0.5128	0.3924	0.049
Mof_H 	H 	0.6875	0.8426	0.8082	0.051
Mof_H 	H 	0.8696	0.9538	0.3822	0.061
Mof_H 	H 	0.725	0.5398	0.7915	0.027
Mof_H 	H 	0.129	0.9547	0.3819	0.057
Mof_H 	H 	0.6358	0.4718	0.3034	0.058
Mof_H 	H 	0.3424	0.8429	0.9015	0.057
Mof_H 	H 	0.1391	0.1509	0.0338	0.028
Mof_H 	H 	0.5245	0.5588	0.0226	0.032
Mof_H 	H 	0.1401	0.3586	0.4261	0.032
Mof_H 	H 	0.3249	0.9802	0.3053	0.057
Mof_H 	H 	0.8659	0.1715	0.0914	0.06
Mof_H 	H 	0.2214	0.8895	0.7606	0.066
Mof_H 	H 	0.3005	0.3751	0.2791	0.056
Mof_H 	H 	0.8041	0.4458	0.4288	0.054
Mof_H 	H 	0.0086	0.2666	0.6737	0.034
Mof_H 	H 	0.996	0.0457	0.5243	0.044
Mof_H 	H 	0.2762	0.9212	0.9353	0.059
Mof_H 	H 	0.3619	0.4819	0.8968	0.05
Mof_H 	H 	0.7732	0.902	0.7727	0.06
Mof_H 	H 	0.2234	0.3188	0.9258	0.029
Mof_H 	H 	0.6402	0.4468	0.8847	0.056
Mof_H 	H 	0.6865	0.3451	0.9047	0.063
Mof_H 	H 	0.6335	0.6918	0.691	0.03
Mof_H 	H 	0.3672	0.4578	0.284	0.036
Mof_C 	C 	0.289	0.8345	0.7947	0.017
Mof_C 	C 	0.6274	0.5569	0.3596	0.385
Mof_C 	C 	0.0103	0.1317	0.5196	-0.087
Mof_C 	C 	0.5394	0.6772	0.5934	0.021
Mof_C 	C 	0.5215	0.6759	0.7348	0.388
Mof_C 	C 	0.507	0.5845	0.0836	-0.109
Mof_C 	C 	0.6564	0.8741	0.3536	-0.028
Mof_C 	C 	0.2944	0.4028	0.3018	-0.098
Mof_C 	C 	0.2745	0.9197	0.3405	0.016
Mof_C 	C 	0.2021	0.4202	0.4022	-0.084
Mof_C 	C 	0.7697	0.3076	0.8826	0.021
Mof_C 	C 	0.2237	0.3472	0.9029	-0.007
Mof_C 	C 	0.5114	0.6529	0.9717	0.377
Mof_C 	C 	0.2452	0.88	0.7893	-0.089
Mof_C 	C 	0.3811	0.7758	0.8422	0.329
Mof_C 	C 	0.8813	0.0568	0.84242	0.363
Mof_C 	C 	0.4477	0.7266	0.16	-0.007
Mof_C 	C 	0.0284	0.162	0.9719	0.404
Mof_C 	C 	0.8194	0.3652	0.365	-0.026
Mof_C 	C 	0.6771	0.5062	0.3629	-0.096
Mof_C 	C 	0.1016	0.1536	0.0944	-0.096
Mof_C 	C 	0.9733	0.1622	0.0426	-0.023
Mof_C 	C 	0.6711	0.4952	0.8377	-0.099
Mof_C 	C 	0.7474	0.9493	0.8732	0.014
Mof_C 	C 	0.2671	0.5203	0.8031	0.025
Mof_C 	C 	0.7351	0.0135	0.3207	0.008
Mof_C 	C 	0.6726	0.4494	0.8634	-0.021
Mof_C 	C 	0.1847	0.9613	0.8227	-0.025
Mof_C 	C 	0.0392	0.1539	0.1168	0.032
Mof_C 	C 	0.8637	0.2768	0.3339	0.366
Mof_C 	C 	0.7161	0.4197	0.33	0.025
Mof_C 	C 	0.2578	0.9348	0.9064	-0.092
Mof_C 	C 	0.32	0.8718	0.3395	-0.019
Mof_C 	C 	0.0442	0.1543	0.1613	-0.036
Mof_C 	C 	0.2394	0.0204	0.3232	0.019
Mof_C 	C 	0.8746	0.2683	0.852	0.395
Mof_C 	C 	0.7795	0.9263	0.7985	-0.085
Mof_C 	C 	0.3292	0.4943	0.3377	-0.121
Mof_C 	C 	0.6712	0.8471	0.8729	-0.083
Mof_C 	C 	0.0089	0.183	0.5883	0.015
Mof_C 	C 	0.91	0.1661	0.1094	-0.078
Mof_C 	C 	0.3588	0.7703	0.3539	0.393
Mof_C 	C 	0.7087	0.375	0.2962	-0.091
Mof_C 	C 	0.1643	0.3684	0.4015	0.016
Mof_C 	C 	0.2464	0.3924	0.3299	0.028
Mof_C 	C 	0.4874	0.6925	0.0449	-0.021
Mof_C 	C 	0.1694	0.3481	0.8645	-0.085
Mof_C 	C 	0.1149	0.3	0.8612	0.361
Mof_C 	C 	0.671	0.4668	0.3284	-0.034
Mof_C 	C 	0.0176	0.1833	0.5428	-0.041
Mof_C 	C 	0.6755	0.8241	0.3765	-0.103
Mof_C 	C 	0.1694	0.9595	0.3668	-0.03
Mof_C 	C 	0.804	0.0065	0.3415	-0.089
Mof_C 	C 	0.5136	0.5912	0.03997	0.034
Mof_C 	C 	0.1616	0.3298	0.3638	-0.098
Mof_C 	C 	0.1675	0.3903	0.8333	-0.042
Mof_C 	C 	0.6236	0.7761	0.3771	0.339
Mof_C 	C 	0.7762	0.4619	0.809	-0.087
Mof_C 	C 	0.7245	0.5057	0.8091	0.009
Mof_C 	C 	0.6803	0.8806	0.9114	0.004
Mof_C 	C 	0.6856	0.9701	0.3233	-0.081
Mof_C 	C 	0.5047	0.6454	0.02057	-0.105
Mof_C 	C 	0.3735	0.5452	0.3403	0.407
Mof_C 	C 	0.7715	0.4515	0.4025	-0.088
Mof_C 	C 	0.2728	0.9039	0.869	0.024
Mof_C 	C 	0.7215	0.403	0.8604	0.019
Mof_C 	C 	0.7729	0.4092	0.8299	0.027
Mof_C 	C 	0.2712	0.436	0.8722	0.009
Mof_C 	C 	0.3187	0.8537	0.873	-0.038
Mof_C 	C 	0.2178	0.9839	0.9031	0.017
Mof_C 	C 	0.7259	0.4983	0.4003	0.016
Mof_C 	C 	0.2029	0.8579	0.3837	-0.089
Mof_C 	C 	0.8255	0.9708	0.8004	0.014
Mof_C 	C 	0.9977	0.076	0.585	-0.098
Mof_C 	C 	0.285	0.9749	0.3207	-0.082
Mof_C 	C 	0.2452	0.4293	0.3692	0.018
Mof_C 	C 	0.5448	0.6741	0.5479	-0.019
Mof_C 	C 	0.4608	0.6616	0.2307	0.35
Mof_C 	C 	0.4787	0.685	0.0901	0.003
Mof_C 	C 	0.465	0.6694	0.1816	-0.08
Mof_C 	C 	0.324	0.4811	0.873	-0.016
Mof_C 	C 	0.7382	0.9149	0.8368	0.02
Mof_C 	C 	0.3278	0.822	0.8359	-0.082
Mof_C 	C 	0.8104	0.3257	0.3334	-0.095
Mof_C 	C 	0.3209	0.5221	0.841	-0.105
Mof_C 	C 	0.3345	0.452	0.3049	0.036
Mof_C 	C 	0.754	0.3304	0.2978	0.021
Mof_C 	C 	0.0001	0.1278	0.6129	0.034
Mof_C 	C 	0.2495	0.812	0.3807	0.022
Mof_C 	C 	0.5258	0.6774	0.6864	-0.097
Mof_C 	C 	0.0007	0.0803	0.5416	0.019
Mof_C 	C 	0.7912	0.863	0.3956	-0.103
Mof_C 	C 	0.704	0.919	0.3481	0.01
Mof_C 	C 	0.4886	0.6293	0.1103	0.042
Mof_C 	C 	0.5913	0.6894	0.6706	0.024
Mof_C 	C 	0.7705	0.4134	0.3676	0.016
Mof_C 	C 	0.913	0.1651	0.15437	0.014
Mof_C 	C 	0.2352	0.9137	0.8276	0.021
Mof_C 	C 	0.1168	0.2779	0.3622	0.385
Mof_C 	C 	0.7747	0.9129	0.3698	0.036
Mof_C 	C 	0.2846	0.4844	0.3701	-0.013
Mof_C 	C 	0.7216	0.3504	0.8853	-0.084
Mof_C 	C 	0.9999	0.1815	0.6802	-0.091
Mof_C 	C 	0.8231	0.9571	0.3668	-0.043
Mof_C 	C 	0.999	0.1768	0.7302	0.382
Mof_C 	C 	0.1811	0.0124	0.3466	-0.095
Mof_C 	C 	0.819	0.3149	0.8544	-0.091
Mof_C 	C 	0.0333	0.1592	0.0227	-0.1
Mof_C 	C 	0.2032	0.3431	0.3309	-0.031
Mof_C 	C 	0.6194	0.5458	0.8419	0.421
Mof_C 	C 	0.8312	0.013	0.8407	-0.106
Mof_C 	C 	0.4219	0.6352	0.5772	-0.104
Mof_C 	C 	0.0127	0.1334	0.468	0.353
Mof_C 	C 	0.2166	0.4779	0.8029	-0.098
Mof_C 	C 	0.1296	0.0598	0.3502	0.386
Mof_C 	C 	0.9849	0.1588	0.2322	0.382
Mof_C 	C 	0.216	0.4372	0.8348	0.035
Mof_C 	C 	0.0975	0.1541	0.0479	0.027
Mof_C 	C 	0.2166	0.9132	0.3651	0.029
Mof_C 	C 	0.0013	0.1238	0.6553	-0.053
Mof_C 	C 	0.4888	0.6572	0.517	-0.108
Mof_C 	C 	0.614	0.7987	0.8688	0.369
Mof_C 	C 	0.0082	0.2316	0.65703	0.025
Mof_C 	C 	0.0158	0.2371	0.6143	-0.095
Mof_C 	C 	0.475	0.6546	0.6092	0.035
Mof_C 	C 	0.4578	0.7313	0.1174	-0.074
Mof_C 	C 	0.4813	0.6222	0.1561	-0.049
Mof_C 	C 	0.8224	0.3639	0.8287	-0.034
Mof_C 	C 	0.858	0.0535	0.3393	0.371
Mof_C 	C 	0.7452	0.8202	0.3988	0.03
Mof_C 	C 	0.4236	0.6398	0.5342	0.034
Mof_C 	C 	0.3767	0.5647	0.8426	0.367
Mof_C 	C 	0.7211	0.9305	0.9137	-0.081
Mof_C 	C 	0.309	0.8193	0.3578	-0.1
Mof_C 	C 	0.9743	0.159	0.088	0.015
Mof_C 	C 	0.4899	0.6582	0.4685	0.393
Mof_C 	C 	0.4711	0.6568	0.6545	-0.033
Mof_C 	C 	0.1232	0.0411	0.8578	0.37
Mof_C 	C 	0.1763	0.9948	0.8605	-0.104
Mof_C 	C 	0.697	0.8643	0.8352	-0.039
Mof_C 	C 	0.2774	0.3905	0.9048	-0.075
Mof_C 	C 	0.7969	0.9961	0.8774	-0.019
Mof_C 	C 	0.5929	0.6975	0.6252	-0.086
Mof_C 	C 	0.9816	0.159	0.1837	-0.094
Mof_O 	O 	0.8728	0.2267	0.87693	-0.506
Mof_O 	O 	0.3716	0.6055	0.81224	-0.476
Mof_O 	O 	0.8435	0.2333	0.30938	-0.489
Mof_O 	O 	0.5023	0.7032	0.95476	-0.504
Mof_O 	O 	0.3808	0.7386	0.80852	-0.463
Mof_O 	O 	0.1234	0.242	0.32959	-0.482
Mof_O 	O 	0.9667	0.1627	0.95151	-0.495
Mof_O 	O 	0.9893	0.16658	0.35186	-0.959
Mof_O 	O 	0.6178	0.5851	0.8167	-0.545
Mof_O 	O 	0.117	0.2637	0.89116	-0.501
Mof_O 	O 	0.0834	0.1639	0.95441	-0.493
Mof_O 	O 	0.5824	0.537	0.87254	-0.521
Mof_O 	O 	0.4947	0.66845	0.34938	-0.952
Mof_O 	O 	0.6204	0.7631	0.8386	-0.52
Mof_O 	O 	0.4849	0.6137	0.24597	-0.493
Mof_O 	O 	0.5241	0.6079	0.95028	-0.507
Mof_O 	O 	0.1242	0.077	0.8884	-0.501
Mof_O 	O 	0.4274	0.5606	0.87358	-0.492
Mof_O 	O 	0.9198	0.044	0.36002	-0.508
Mof_O 	O 	0.9976	0.0863	0.4484	-0.485
Mof_O 	O 	0.5846	0.5608	0.32434	-0.513
Mof_O 	O 	0.0839	0.0458	0.81969	-0.492
Mof_O 	O 	0.3577	0.5877	0.36353	-0.494
Mof_O 	O 	0.5789	0.7929	0.90116	-0.499
Mof_O 	O 	0.4357	0.6511	0.44305	-0.502
Mof_O 	O 	0.4596	0.6641	0.74605	-0.482
Mof_O 	O 	0.0169	0.16814	0.85196	-0.965
Mof_O 	O 	0.5518	0.6667	0.45512	-0.477
Mof_O 	O 	0.4085	0.7787	0.33215	-0.498
Mof_O 	O 	0.4275	0.5449	0.3204	-0.509
Mof_O 	O 	0.0375	0.1764	0.45239	-0.506
Mof_O 	O 	0.9961	0.2252	0.75076	-0.492
Mof_O 	O 	0.1385	0.10695	0.33087	-0.49
Mof_O 	O 	0.9227	0.0615	0.81134	-0.481
Mof_O 	O 	0.8842	0.0918	0.87577	-0.48
Mof_O 	O 	0.0443	0.1635	0.25488	-0.495
Mof_O 	O 	0.6471	0.7275	0.3948	-0.469
Mof_O 	O 	0.8407	0.0988	0.31802	-0.499
Mof_O 	O 	0.9261	0.1583	0.24851	-0.488
Mof_O 	O 	0.6311	0.5927	0.39154	-0.497
Mof_O 	O 	0.9218	0.2844	0.356	-0.511
Mof_O 	O 	0.5602	0.7845	0.36381	-0.5
Mof_O 	O 	0.3442	0.7226	0.37244	-0.486
Mof_O 	O 	0.4224	0.7708	0.87926	-0.477
Mof_O 	O 	0.5739	0.6896	0.76038	-0.488
Mof_O 	O 	0.0032	0.1284	0.74809	-0.51
Mof_O 	O 	0.51908	0.66947	0.85262	-0.964
Mof_O 	O 	0.9177	0.2764	0.82353	-0.496
Mof_O 	O 	0.0742	0.2983	0.82401	-0.494
Mof_O 	O 	0.0779	0.0493	0.37161	-0.5
Mof_O 	O 	0.4437	0.7042	0.2534	-0.499
Mof_O 	O 	0.0783	0.2716	0.39164	-0.491
_end
