data_functionalizedCrystal
_audit_creation_method	'EQeq! by Chris Wilmer'
_symmetry_space_group_name_H-M	'P1'
_symmetry_Int_Tables_number	1
_symmetry_cell_setting	triclinic
loop_
_symmetry_equiv_pos_as_xyz
  x,y,z
_cell_length_a	10.7029
_cell_length_b	28.176
_cell_length_c	34.014
_cell_angle_alpha	90
_cell_angle_beta	90
_cell_angle_gamma	90
loop_
_atom_site_label
_atom_site_type_symbol
_atom_site_fract_x
_atom_site_fract_y
_atom_site_fract_z
_atom_site_charge
Mof_O 	O 	0.3237	0.3577	0.55644	-0.243
Mof_O 	O 	0.1278	0.2406	0.70413	-0.592
Mof_O 	O 	0.016	0.3066	0.70909	-0.584
Mof_O 	O 	0.2676	0.3609	0.4604	-0.249
Mof_O 	O 	0.0169	0.1303	0.70644	-0.586
Mof_O 	O 	0.0772	0.0556	0.7025	-0.557
Mof_O 	O 	0.5787	0.352	0.4406	-0.242
Mof_O 	O 	0.8744	0.2124	0.71	-0.591
Mof_O 	O 	0.7567	0.2772	0.70341	-0.572
Mof_O 	O 	0.6437	0.3669	0.53748	-0.244
Mof_O 	O 	0.2024	0.9607	0.7996	-0.549
Mof_O 	O 	0.8711	0.3882	0.70735	-0.569
Mof_C 	C 	0.4543	0.3598	0.4992	-0.002
Mof_C 	C 	0.3953	0.3285	0.5307	0.034
Mof_H 	H 	0.3407	0.3045	0.5182	0.033
Mof_H 	H 	0.4612	0.3118	0.5457	0.029
Mof_C 	C 	0.3582	0.3913	0.478	0.034
Mof_H 	H 	0.3174	0.413	0.497	0.039
Mof_H 	H 	0.4	0.4107	0.4576	0.032
Mof_C 	C 	0.5147	0.325	0.4699	0.033
Mof_H 	H 	0.5743	0.3039	0.4837	0.035
Mof_H 	H 	0.4496	0.305	0.4574	0.028
Mof_C 	C 	0.5471	0.3944	0.5177	0.022
Mof_H 	H 	0.585	0.4146	0.4971	0.042
Mof_H 	H 	0.5038	0.4151	0.5368	0.034
Mof_C 	C 	0.2724	0.3368	0.5892	0.28
Mof_C 	C 	0.2902	0.2898	0.5997	-0.27
Mof_H 	H 	0.3393	0.2695	0.5836	0.12
Mof_C 	C 	0.2358	0.2724	0.634	0.172
Mof_H 	H 	0.2516	0.2407	0.642	-0.02
Mof_C 	C 	0.1583	0.3013	0.6566	-0.254
Mof_C 	C 	0.1422	0.3485	0.646	0.18
Mof_H 	H 	0.0917	0.3688	0.6617	-0.009
Mof_C 	C 	0.1995	0.3661	0.6126	-0.266
Mof_H 	H 	0.1888	0.3985	0.6056	0.138
Mof_C 	C 	0.0959	0.2811	0.6932	0.568
Mof_C 	C 	0.2148	0.3752	0.4255	0.311
Mof_C 	C 	0.1542	0.3394	0.4046	-0.309
Mof_H 	H 	0.1479	0.3084	0.4155	0.147
Mof_C 	C 	0.1039	0.349	0.3685	0.234
Mof_H 	H 	0.0619	0.3247	0.3544	-0.048
Mof_C 	C 	0.1138	0.394	0.3524	-0.319
Mof_C 	C 	0.1659	0.43	0.3743	0.233
Mof_H 	H 	0.1674	0.4614	0.3641	-0.036
Mof_C 	C 	0.2162	0.4208	0.4111	-0.312
Mof_H 	H 	0.2513	0.4458	0.4263	0.139
Mof_C 	C 	0.0676	0.0969	0.6885	0.599
Mof_C 	C 	0.6258	0.3279	0.4087	0.284
Mof_C 	C 	0.602	0.2804	0.4006	-0.275
Mof_H 	H 	0.5517	0.262	0.4179	0.122
Mof_C 	C 	0.6529	0.2603	0.367	0.182
Mof_H 	H 	0.634	0.2283	0.3606	-0.022
Mof_C 	C 	0.7307	0.2863	0.3428	-0.262
Mof_C 	C 	0.7536	0.3333	0.3514	0.197
Mof_H 	H 	0.8064	0.3514	0.3347	-0.01
Mof_C 	C 	0.7014	0.3542	0.3836	-0.277
Mof_H 	H 	0.7167	0.3868	0.3889	0.144
Mof_C 	C 	0.7911	0.2362	0.6931	0.55
Mof_C 	C 	0.6851	0.3828	0.5727	0.288
Mof_C 	C 	0.757	0.3507	0.5938	-0.28
Mof_H 	H 	0.7768	0.3205	0.5829	0.138
Mof_C 	C 	0.7995	0.363	0.631	0.198
Mof_H 	H 	0.8471	0.3408	0.6457	-0.035
Mof_C 	C 	0.7738	0.4071	0.647	-0.28
Mof_C 	C 	0.7053	0.4396	0.6253	0.187
Mof_H 	H 	0.6886	0.4701	0.636	-0.017
Mof_C 	C 	0.6602	0.4281	0.5878	-0.271
Mof_H 	H 	0.6137	0.4506	0.5729	0.124
Mof_C 	C 	0.8169	0.4198	0.6878	0.568
Mof_O 	O 	0.6763	0.6423	0.05644	-0.242
Mof_O 	O 	0.8722	0.7594	0.20413	-0.591
Mof_O 	O 	0.984	0.6934	0.20909	-0.584
Mof_O 	O 	0.7324	0.6391	0.9604	-0.249
Mof_O 	O 	0.9831	0.8697	0.20644	-0.586
Mof_O 	O 	0.9228	0.9444	0.2025	-0.557
Mof_O 	O 	0.4213	0.648	0.9406	-0.242
Mof_O 	O 	0.1256	0.7876	0.21	-0.591
Mof_O 	O 	0.2433	0.7228	0.20341	-0.572
Mof_O 	O 	0.3563	0.6331	0.03748	-0.244
Mof_O 	O 	0.7976	0.0393	0.2996	-0.549
Mof_O 	O 	0.1289	0.6118	0.20735	-0.569
Mof_C 	C 	0.5457	0.6402	0.9992	-0.002
Mof_C 	C 	0.6047	0.6715	0.0307	0.033
Mof_H 	H 	0.6593	0.6955	0.0182	0.033
Mof_H 	H 	0.5388	0.6882	0.0457	0.029
Mof_C 	C 	0.6418	0.6087	0.978	0.034
Mof_H 	H 	0.6826	0.587	0.997	0.039
Mof_H 	H 	0.6	0.5893	0.9576	0.032
Mof_C 	C 	0.4853	0.675	0.9699	0.033
Mof_H 	H 	0.4257	0.6961	0.9837	0.035
Mof_H 	H 	0.5504	0.695	0.9574	0.028
Mof_C 	C 	0.4529	0.6056	0.0177	0.021
Mof_H 	H 	0.415	0.5854	0.9971	0.042
Mof_H 	H 	0.4962	0.5849	0.0368	0.034
Mof_C 	C 	0.7276	0.6632	0.0892	0.28
Mof_C 	C 	0.7098	0.7102	0.0997	-0.27
Mof_H 	H 	0.6607	0.7305	0.0836	0.12
Mof_C 	C 	0.7642	0.7276	0.134	0.172
Mof_H 	H 	0.7484	0.7593	0.142	-0.02
Mof_C 	C 	0.8417	0.6987	0.1566	-0.254
Mof_C 	C 	0.8578	0.6515	0.146	0.18
Mof_H 	H 	0.9083	0.6312	0.1617	-0.009
Mof_C 	C 	0.8005	0.6339	0.1126	-0.266
Mof_H 	H 	0.8112	0.6015	0.1056	0.138
Mof_C 	C 	0.9041	0.7189	0.1932	0.568
Mof_C 	C 	0.7852	0.6248	0.9255	0.311
Mof_C 	C 	0.8458	0.6606	0.9046	-0.309
Mof_H 	H 	0.8521	0.6916	0.9155	0.147
Mof_C 	C 	0.8961	0.651	0.8685	0.234
Mof_H 	H 	0.9381	0.6753	0.8544	-0.048
Mof_C 	C 	0.8862	0.606	0.8524	-0.319
Mof_C 	C 	0.8341	0.57	0.8743	0.233
Mof_H 	H 	0.8326	0.5386	0.8641	-0.036
Mof_C 	C 	0.7838	0.5792	0.9111	-0.312
Mof_H 	H 	0.7487	0.5542	0.9263	0.139
Mof_C 	C 	0.9324	0.9031	0.1885	0.599
Mof_C 	C 	0.3742	0.6721	0.9087	0.284
Mof_C 	C 	0.398	0.7196	0.9006	-0.275
Mof_H 	H 	0.4483	0.738	0.9179	0.122
Mof_C 	C 	0.3471	0.7397	0.867	0.182
Mof_H 	H 	0.366	0.7717	0.8606	-0.022
Mof_C 	C 	0.2693	0.7137	0.8428	-0.262
Mof_C 	C 	0.2464	0.6667	0.8514	0.197
Mof_H 	H 	0.1936	0.6486	0.8347	-0.01
Mof_C 	C 	0.2986	0.6458	0.8836	-0.277
Mof_H 	H 	0.2833	0.6132	0.8889	0.144
Mof_C 	C 	0.2089	0.7638	0.1931	0.55
Mof_C 	C 	0.3149	0.6172	0.0727	0.288
Mof_C 	C 	0.243	0.6493	0.0938	-0.28
Mof_H 	H 	0.2232	0.6795	0.0829	0.138
Mof_C 	C 	0.2005	0.637	0.131	0.198
Mof_H 	H 	0.1529	0.6592	0.1457	-0.035
Mof_C 	C 	0.2262	0.5929	0.147	-0.28
Mof_C 	C 	0.2947	0.5604	0.1253	0.187
Mof_H 	H 	0.3114	0.5299	0.136	-0.017
Mof_C 	C 	0.3398	0.5719	0.0878	-0.271
Mof_H 	H 	0.3863	0.5494	0.0729	0.124
Mof_C 	C 	0.1831	0.5802	0.1878	0.568
Mof_O 	O 	0.6763	0.8577	0.94356	-0.243
Mof_O 	O 	0.8722	0.7406	0.79587	-0.591
Mof_O 	O 	0.984	0.8066	0.79091	-0.585
Mof_O 	O 	0.7324	0.8609	0.0396	-0.249
Mof_O 	O 	0.9831	0.6303	0.79356	-0.586
Mof_O 	O 	0.9228	0.5556	0.7975	-0.557
Mof_O 	O 	0.4213	0.852	0.0594	-0.242
Mof_O 	O 	0.1256	0.7124	0.79	-0.591
Mof_O 	O 	0.2433	0.7772	0.79659	-0.573
Mof_O 	O 	0.3563	0.8669	0.96252	-0.244
Mof_O 	O 	0.7976	0.4607	0.7004	-0.55
Mof_O 	O 	0.1289	0.8882	0.79265	-0.568
Mof_C 	C 	0.5457	0.8598	0.0008	-0.003
Mof_C 	C 	0.6047	0.8285	0.9693	0.034
Mof_H 	H 	0.6593	0.8045	0.9818	0.033
Mof_H 	H 	0.5388	0.8118	0.9543	0.029
Mof_C 	C 	0.6418	0.8913	0.022	0.034
Mof_H 	H 	0.6826	0.913	0.003	0.038
Mof_H 	H 	0.6	0.9107	0.0424	0.031
Mof_C 	C 	0.4853	0.825	0.0301	0.034
Mof_H 	H 	0.4257	0.8039	0.0163	0.034
Mof_H 	H 	0.5504	0.805	0.0426	0.028
Mof_C 	C 	0.4529	0.8944	0.9823	0.023
Mof_H 	H 	0.415	0.9146	0.0029	0.042
Mof_H 	H 	0.4962	0.9151	0.9632	0.034
Mof_C 	C 	0.7276	0.8368	0.9108	0.281
Mof_C 	C 	0.7098	0.7898	0.9003	-0.27
Mof_H 	H 	0.6607	0.7695	0.9164	0.12
Mof_C 	C 	0.7642	0.7724	0.866	0.172
Mof_H 	H 	0.7484	0.7407	0.858	-0.02
Mof_C 	C 	0.8417	0.8013	0.8434	-0.254
Mof_C 	C 	0.8578	0.8485	0.854	0.18
Mof_H 	H 	0.9083	0.8688	0.8383	-0.009
Mof_C 	C 	0.8005	0.8661	0.8874	-0.266
Mof_H 	H 	0.8112	0.8985	0.8944	0.138
Mof_C 	C 	0.9041	0.7811	0.8068	0.568
Mof_C 	C 	0.7852	0.8752	0.0745	0.311
Mof_C 	C 	0.8458	0.8394	0.0954	-0.309
Mof_H 	H 	0.8521	0.8084	0.0845	0.147
Mof_C 	C 	0.8961	0.849	0.1315	0.234
Mof_H 	H 	0.9381	0.8247	0.1456	-0.049
Mof_C 	C 	0.8862	0.894	0.1476	-0.319
Mof_C 	C 	0.8341	0.93	0.1257	0.233
Mof_H 	H 	0.8326	0.9614	0.1359	-0.036
Mof_C 	C 	0.7838	0.9208	0.0889	-0.313
Mof_H 	H 	0.7487	0.9458	0.0737	0.139
Mof_C 	C 	0.9324	0.5969	0.8115	0.599
Mof_C 	C 	0.3742	0.8279	0.0913	0.284
Mof_C 	C 	0.398	0.7804	0.0994	-0.275
Mof_H 	H 	0.4483	0.762	0.0821	0.122
Mof_C 	C 	0.3471	0.7603	0.133	0.182
Mof_H 	H 	0.366	0.7283	0.1394	-0.022
Mof_C 	C 	0.2693	0.7863	0.1572	-0.262
Mof_C 	C 	0.2464	0.8333	0.1486	0.197
Mof_H 	H 	0.1936	0.8514	0.1653	-0.01
Mof_C 	C 	0.2986	0.8542	0.1164	-0.277
Mof_H 	H 	0.2833	0.8868	0.1111	0.144
Mof_C 	C 	0.2089	0.7362	0.8069	0.55
Mof_C 	C 	0.3149	0.8828	0.9273	0.288
Mof_C 	C 	0.243	0.8507	0.9062	-0.28
Mof_H 	H 	0.2232	0.8205	0.9171	0.138
Mof_C 	C 	0.2005	0.863	0.869	0.198
Mof_H 	H 	0.1529	0.8408	0.8543	-0.035
Mof_C 	C 	0.2262	0.9071	0.853	-0.28
Mof_C 	C 	0.2947	0.9396	0.8747	0.187
Mof_H 	H 	0.3114	0.9701	0.864	-0.016
Mof_C 	C 	0.3398	0.9281	0.9122	-0.271
Mof_H 	H 	0.3863	0.9506	0.9271	0.125
Mof_C 	C 	0.1831	0.9198	0.8122	0.568
Mof_O 	O 	0.3237	0.1423	0.44356	-0.242
Mof_O 	O 	0.1278	0.2594	0.29587	-0.591
Mof_O 	O 	0.016	0.1934	0.29091	-0.585
Mof_O 	O 	0.2676	0.1391	0.5396	-0.249
Mof_O 	O 	0.0169	0.3697	0.29356	-0.586
Mof_O 	O 	0.0772	0.4444	0.2975	-0.557
Mof_O 	O 	0.5787	0.148	0.5594	-0.242
Mof_O 	O 	0.8744	0.2876	0.29	-0.591
Mof_O 	O 	0.7567	0.2228	0.29659	-0.573
Mof_O 	O 	0.6437	0.1331	0.46252	-0.244
Mof_O 	O 	0.2024	0.5393	0.2004	-0.55
Mof_O 	O 	0.8711	0.1118	0.29265	-0.568
Mof_C 	C 	0.4543	0.1402	0.5008	-0.002
Mof_C 	C 	0.3953	0.1715	0.4693	0.034
Mof_H 	H 	0.3407	0.1955	0.4818	0.033
Mof_H 	H 	0.4612	0.1882	0.4543	0.029
Mof_C 	C 	0.3582	0.1087	0.522	0.034
Mof_H 	H 	0.3174	0.087	0.503	0.039
Mof_H 	H 	0.4	0.0893	0.5424	0.032
Mof_C 	C 	0.5147	0.175	0.5301	0.033
Mof_H 	H 	0.5743	0.1961	0.5163	0.035
Mof_H 	H 	0.4496	0.195	0.5426	0.028
Mof_C 	C 	0.5471	0.1056	0.4823	0.022
Mof_H 	H 	0.585	0.0854	0.5029	0.042
Mof_H 	H 	0.5038	0.0849	0.4632	0.034
Mof_C 	C 	0.2724	0.1632	0.4108	0.281
Mof_C 	C 	0.2902	0.2102	0.4003	-0.27
Mof_H 	H 	0.3393	0.2305	0.4164	0.12
Mof_C 	C 	0.2358	0.2276	0.366	0.172
Mof_H 	H 	0.2516	0.2593	0.358	-0.02
Mof_C 	C 	0.1583	0.1987	0.3434	-0.254
Mof_C 	C 	0.1422	0.1515	0.354	0.18
Mof_H 	H 	0.0917	0.1312	0.3383	-0.009
Mof_C 	C 	0.1995	0.1339	0.3874	-0.266
Mof_H 	H 	0.1888	0.1015	0.3944	0.138
Mof_C 	C 	0.0959	0.2189	0.3068	0.568
Mof_C 	C 	0.2148	0.1248	0.5745	0.311
Mof_C 	C 	0.1542	0.1606	0.5954	-0.309
Mof_H 	H 	0.1479	0.1916	0.5845	0.147
Mof_C 	C 	0.1039	0.151	0.6315	0.234
Mof_H 	H 	0.0619	0.1753	0.6456	-0.049
Mof_C 	C 	0.1138	0.106	0.6476	-0.319
Mof_C 	C 	0.1659	0.07	0.6257	0.233
Mof_H 	H 	0.1674	0.0386	0.6359	-0.036
Mof_C 	C 	0.2162	0.0792	0.5889	-0.312
Mof_H 	H 	0.2513	0.0542	0.5737	0.139
Mof_C 	C 	0.0676	0.4031	0.3115	0.599
Mof_C 	C 	0.6258	0.1721	0.5913	0.284
Mof_C 	C 	0.602	0.2196	0.5994	-0.275
Mof_H 	H 	0.5517	0.238	0.5821	0.122
Mof_C 	C 	0.6529	0.2397	0.633	0.182
Mof_H 	H 	0.634	0.2717	0.6394	-0.022
Mof_C 	C 	0.7307	0.2137	0.6572	-0.262
Mof_C 	C 	0.7536	0.1667	0.6486	0.197
Mof_H 	H 	0.8064	0.1486	0.6653	-0.01
Mof_C 	C 	0.7014	0.1458	0.6164	-0.277
Mof_H 	H 	0.7167	0.1132	0.6111	0.144
Mof_C 	C 	0.7911	0.2638	0.3069	0.55
Mof_C 	C 	0.6851	0.1172	0.4273	0.288
Mof_C 	C 	0.757	0.1493	0.4062	-0.28
Mof_H 	H 	0.7768	0.1795	0.4171	0.138
Mof_C 	C 	0.7995	0.137	0.369	0.198
Mof_H 	H 	0.8471	0.1592	0.3543	-0.035
Mof_C 	C 	0.7738	0.0929	0.353	-0.28
Mof_C 	C 	0.7053	0.0604	0.3747	0.187
Mof_H 	H 	0.6886	0.0299	0.364	-0.016
Mof_C 	C 	0.6602	0.0719	0.4122	-0.271
Mof_H 	H 	0.6137	0.0494	0.4271	0.124
Mof_C 	C 	0.8169	0.0802	0.3122	0.568
Mof_O 	O 	0.6763	0.6423	0.44356	-0.242
Mof_O 	O 	0.8722	0.7594	0.29587	-0.591
Mof_O 	O 	0.984	0.6934	0.29091	-0.584
Mof_O 	O 	0.7324	0.6391	0.5396	-0.249
Mof_O 	O 	0.9831	0.8697	0.29356	-0.586
Mof_O 	O 	0.9228	0.9444	0.2975	-0.557
Mof_O 	O 	0.4213	0.648	0.5594	-0.242
Mof_O 	O 	0.1256	0.7876	0.29	-0.591
Mof_O 	O 	0.2433	0.7228	0.29659	-0.572
Mof_O 	O 	0.3563	0.6331	0.46252	-0.244
Mof_O 	O 	0.7976	0.0393	0.2004	-0.549
Mof_O 	O 	0.1289	0.6118	0.29265	-0.569
Mof_C 	C 	0.5457	0.6402	0.5008	-0.002
Mof_C 	C 	0.6047	0.6715	0.4693	0.034
Mof_H 	H 	0.6593	0.6955	0.4818	0.033
Mof_H 	H 	0.5388	0.6882	0.4543	0.029
Mof_C 	C 	0.6418	0.6087	0.522	0.034
Mof_H 	H 	0.6826	0.587	0.503	0.039
Mof_H 	H 	0.6	0.5893	0.5424	0.032
Mof_C 	C 	0.4853	0.675	0.5301	0.033
Mof_H 	H 	0.4257	0.6961	0.5163	0.035
Mof_H 	H 	0.5504	0.695	0.5426	0.028
Mof_C 	C 	0.4529	0.6056	0.4823	0.022
Mof_H 	H 	0.415	0.5854	0.5029	0.042
Mof_H 	H 	0.4962	0.5849	0.4632	0.034
Mof_C 	C 	0.7276	0.6632	0.4108	0.28
Mof_C 	C 	0.7098	0.7102	0.4003	-0.27
Mof_H 	H 	0.6607	0.7305	0.4164	0.12
Mof_C 	C 	0.7642	0.7276	0.366	0.172
Mof_H 	H 	0.7484	0.7593	0.358	-0.02
Mof_C 	C 	0.8417	0.6987	0.3434	-0.254
Mof_C 	C 	0.8578	0.6515	0.354	0.18
Mof_H 	H 	0.9083	0.6312	0.3383	-0.009
Mof_C 	C 	0.8005	0.6339	0.3874	-0.266
Mof_H 	H 	0.8112	0.6015	0.3944	0.138
Mof_C 	C 	0.9041	0.7189	0.3068	0.568
Mof_C 	C 	0.7852	0.6248	0.5745	0.311
Mof_C 	C 	0.8458	0.6606	0.5954	-0.309
Mof_H 	H 	0.8521	0.6916	0.5845	0.147
Mof_C 	C 	0.8961	0.651	0.6315	0.234
Mof_H 	H 	0.9381	0.6753	0.6456	-0.048
Mof_C 	C 	0.8862	0.606	0.6476	-0.319
Mof_C 	C 	0.8341	0.57	0.6257	0.233
Mof_H 	H 	0.8326	0.5386	0.6359	-0.036
Mof_C 	C 	0.7838	0.5792	0.5889	-0.312
Mof_H 	H 	0.7487	0.5542	0.5737	0.139
Mof_C 	C 	0.9324	0.9031	0.3115	0.599
Mof_C 	C 	0.3742	0.6721	0.5913	0.284
Mof_C 	C 	0.398	0.7196	0.5994	-0.275
Mof_H 	H 	0.4483	0.738	0.5821	0.122
Mof_C 	C 	0.3471	0.7397	0.633	0.182
Mof_H 	H 	0.366	0.7717	0.6394	-0.022
Mof_C 	C 	0.2693	0.7137	0.6572	-0.262
Mof_C 	C 	0.2464	0.6667	0.6486	0.197
Mof_H 	H 	0.1936	0.6486	0.6653	-0.01
Mof_C 	C 	0.2986	0.6458	0.6164	-0.277
Mof_H 	H 	0.2833	0.6132	0.6111	0.144
Mof_C 	C 	0.2089	0.7638	0.3069	0.55
Mof_C 	C 	0.3149	0.6172	0.4273	0.288
Mof_C 	C 	0.243	0.6493	0.4062	-0.28
Mof_H 	H 	0.2232	0.6795	0.4171	0.138
Mof_C 	C 	0.2005	0.637	0.369	0.198
Mof_H 	H 	0.1529	0.6592	0.3543	-0.035
Mof_C 	C 	0.2262	0.5929	0.353	-0.28
Mof_C 	C 	0.2947	0.5604	0.3747	0.187
Mof_H 	H 	0.3114	0.5299	0.364	-0.017
Mof_C 	C 	0.3398	0.5719	0.4122	-0.271
Mof_H 	H 	0.3863	0.5494	0.4271	0.124
Mof_C 	C 	0.1831	0.5802	0.3122	0.568
Mof_O 	O 	0.3237	0.3577	0.94356	-0.242
Mof_O 	O 	0.1278	0.2406	0.79587	-0.591
Mof_O 	O 	0.016	0.3066	0.79091	-0.584
Mof_O 	O 	0.2676	0.3609	0.0396	-0.249
Mof_O 	O 	0.0169	0.1303	0.79356	-0.586
Mof_O 	O 	0.0772	0.0556	0.7975	-0.557
Mof_O 	O 	0.5787	0.352	0.0594	-0.242
Mof_O 	O 	0.8744	0.2124	0.79	-0.591
Mof_O 	O 	0.7567	0.2772	0.79659	-0.572
Mof_O 	O 	0.6437	0.3669	0.96252	-0.244
Mof_O 	O 	0.2024	0.9607	0.7004	-0.549
Mof_O 	O 	0.8711	0.3882	0.79265	-0.569
Mof_C 	C 	0.4543	0.3598	0.0008	-0.002
Mof_C 	C 	0.3953	0.3285	0.9693	0.033
Mof_H 	H 	0.3407	0.3045	0.9818	0.033
Mof_H 	H 	0.4612	0.3118	0.9543	0.029
Mof_C 	C 	0.3582	0.3913	0.022	0.034
Mof_H 	H 	0.3174	0.413	0.003	0.039
Mof_H 	H 	0.4	0.4107	0.0424	0.032
Mof_C 	C 	0.5147	0.325	0.0301	0.033
Mof_H 	H 	0.5743	0.3039	0.0163	0.035
Mof_H 	H 	0.4496	0.305	0.0426	0.028
Mof_C 	C 	0.5471	0.3944	0.9823	0.021
Mof_H 	H 	0.585	0.4146	0.0029	0.042
Mof_H 	H 	0.5038	0.4151	0.9632	0.034
Mof_C 	C 	0.2724	0.3368	0.9108	0.28
Mof_C 	C 	0.2902	0.2898	0.9003	-0.27
Mof_H 	H 	0.3393	0.2695	0.9164	0.12
Mof_C 	C 	0.2358	0.2724	0.866	0.172
Mof_H 	H 	0.2516	0.2407	0.858	-0.02
Mof_C 	C 	0.1583	0.3013	0.8434	-0.254
Mof_C 	C 	0.1422	0.3485	0.854	0.18
Mof_H 	H 	0.0917	0.3688	0.8383	-0.009
Mof_C 	C 	0.1995	0.3661	0.8874	-0.266
Mof_H 	H 	0.1888	0.3985	0.8944	0.138
Mof_C 	C 	0.0959	0.2811	0.8068	0.568
Mof_C 	C 	0.2148	0.3752	0.0745	0.311
Mof_C 	C 	0.1542	0.3394	0.0954	-0.309
Mof_H 	H 	0.1479	0.3084	0.0845	0.147
Mof_C 	C 	0.1039	0.349	0.1315	0.234
Mof_H 	H 	0.0619	0.3247	0.1456	-0.048
Mof_C 	C 	0.1138	0.394	0.1476	-0.319
Mof_C 	C 	0.1659	0.43	0.1257	0.233
Mof_H 	H 	0.1674	0.4614	0.1359	-0.036
Mof_C 	C 	0.2162	0.4208	0.0889	-0.312
Mof_H 	H 	0.2513	0.4458	0.0737	0.139
Mof_C 	C 	0.0676	0.0969	0.8115	0.599
Mof_C 	C 	0.6258	0.3279	0.0913	0.284
Mof_C 	C 	0.602	0.2804	0.0994	-0.275
Mof_H 	H 	0.5517	0.262	0.0821	0.122
Mof_C 	C 	0.6529	0.2603	0.133	0.182
Mof_H 	H 	0.634	0.2283	0.1394	-0.022
Mof_C 	C 	0.7307	0.2863	0.1572	-0.262
Mof_C 	C 	0.7536	0.3333	0.1486	0.197
Mof_H 	H 	0.8064	0.3514	0.1653	-0.01
Mof_C 	C 	0.7014	0.3542	0.1164	-0.277
Mof_H 	H 	0.7167	0.3868	0.1111	0.144
Mof_C 	C 	0.7911	0.2362	0.8069	0.55
Mof_C 	C 	0.6851	0.3828	0.9273	0.288
Mof_C 	C 	0.757	0.3507	0.9062	-0.28
Mof_H 	H 	0.7768	0.3205	0.9171	0.138
Mof_C 	C 	0.7995	0.363	0.869	0.198
Mof_H 	H 	0.8471	0.3408	0.8543	-0.035
Mof_C 	C 	0.7738	0.4071	0.853	-0.28
Mof_C 	C 	0.7053	0.4396	0.8747	0.187
Mof_H 	H 	0.6886	0.4701	0.864	-0.017
Mof_C 	C 	0.6602	0.4281	0.9122	-0.271
Mof_H 	H 	0.6137	0.4506	0.9271	0.124
Mof_C 	C 	0.8169	0.4198	0.8122	0.568
Mof_O 	O 	0.3237	0.1423	0.05644	-0.243
Mof_O 	O 	0.1278	0.2594	0.20413	-0.591
Mof_O 	O 	0.016	0.1934	0.20909	-0.585
Mof_O 	O 	0.2676	0.1391	0.9604	-0.249
Mof_O 	O 	0.0169	0.3697	0.20644	-0.586
Mof_O 	O 	0.0772	0.4444	0.2025	-0.557
Mof_O 	O 	0.5787	0.148	0.9406	-0.242
Mof_O 	O 	0.8744	0.2876	0.21	-0.591
Mof_O 	O 	0.7567	0.2228	0.20341	-0.573
Mof_O 	O 	0.6437	0.1331	0.03748	-0.244
Mof_O 	O 	0.2024	0.5393	0.2996	-0.55
Mof_O 	O 	0.8711	0.1118	0.20735	-0.568
Mof_C 	C 	0.4543	0.1402	0.9992	-0.003
Mof_C 	C 	0.3953	0.1715	0.0307	0.034
Mof_H 	H 	0.3407	0.1955	0.0182	0.033
Mof_H 	H 	0.4612	0.1882	0.0457	0.029
Mof_C 	C 	0.3582	0.1087	0.978	0.034
Mof_H 	H 	0.3174	0.087	0.997	0.038
Mof_H 	H 	0.4	0.0893	0.9576	0.031
Mof_C 	C 	0.5147	0.175	0.9699	0.034
Mof_H 	H 	0.5743	0.1961	0.9837	0.034
Mof_H 	H 	0.4496	0.195	0.9574	0.028
Mof_C 	C 	0.5471	0.1056	0.0177	0.023
Mof_H 	H 	0.585	0.0854	0.9971	0.042
Mof_H 	H 	0.5038	0.0849	0.0368	0.034
Mof_C 	C 	0.2724	0.1632	0.0892	0.281
Mof_C 	C 	0.2902	0.2102	0.0997	-0.27
Mof_H 	H 	0.3393	0.2305	0.0836	0.12
Mof_C 	C 	0.2358	0.2276	0.134	0.172
Mof_H 	H 	0.2516	0.2593	0.142	-0.02
Mof_C 	C 	0.1583	0.1987	0.1566	-0.254
Mof_C 	C 	0.1422	0.1515	0.146	0.18
Mof_H 	H 	0.0917	0.1312	0.1617	-0.009
Mof_C 	C 	0.1995	0.1339	0.1126	-0.266
Mof_H 	H 	0.1888	0.1015	0.1056	0.138
Mof_C 	C 	0.0959	0.2189	0.1932	0.568
Mof_C 	C 	0.2148	0.1248	0.9255	0.311
Mof_C 	C 	0.1542	0.1606	0.9046	-0.309
Mof_H 	H 	0.1479	0.1916	0.9155	0.147
Mof_C 	C 	0.1039	0.151	0.8685	0.234
Mof_H 	H 	0.0619	0.1753	0.8544	-0.049
Mof_C 	C 	0.1138	0.106	0.8524	-0.319
Mof_C 	C 	0.1659	0.07	0.8743	0.233
Mof_H 	H 	0.1674	0.0386	0.8641	-0.036
Mof_C 	C 	0.2162	0.0792	0.9111	-0.313
Mof_H 	H 	0.2513	0.0542	0.9263	0.139
Mof_C 	C 	0.0676	0.4031	0.1885	0.599
Mof_C 	C 	0.6258	0.1721	0.9087	0.284
Mof_C 	C 	0.602	0.2196	0.9006	-0.275
Mof_H 	H 	0.5517	0.238	0.9179	0.122
Mof_C 	C 	0.6529	0.2397	0.867	0.182
Mof_H 	H 	0.634	0.2717	0.8606	-0.022
Mof_C 	C 	0.7307	0.2137	0.8428	-0.262
Mof_C 	C 	0.7536	0.1667	0.8514	0.197
Mof_H 	H 	0.8064	0.1486	0.8347	-0.01
Mof_C 	C 	0.7014	0.1458	0.8836	-0.277
Mof_H 	H 	0.7167	0.1132	0.8889	0.144
Mof_C 	C 	0.7911	0.2638	0.1931	0.55
Mof_C 	C 	0.6851	0.1172	0.0727	0.288
Mof_C 	C 	0.757	0.1493	0.0938	-0.28
Mof_H 	H 	0.7768	0.1795	0.0829	0.138
Mof_C 	C 	0.7995	0.137	0.131	0.198
Mof_H 	H 	0.8471	0.1592	0.1457	-0.035
Mof_C 	C 	0.7738	0.0929	0.147	-0.28
Mof_C 	C 	0.7053	0.0604	0.1253	0.187
Mof_H 	H 	0.6886	0.0299	0.136	-0.016
Mof_C 	C 	0.6602	0.0719	0.0878	-0.271
Mof_H 	H 	0.6137	0.0494	0.0729	0.125
Mof_C 	C 	0.8169	0.0802	0.1878	0.568
Mof_O 	O 	0.6763	0.8577	0.55644	-0.242
Mof_O 	O 	0.8722	0.7406	0.70413	-0.591
Mof_O 	O 	0.984	0.8066	0.70909	-0.585
Mof_O 	O 	0.7324	0.8609	0.4604	-0.249
Mof_O 	O 	0.9831	0.6303	0.70644	-0.586
Mof_O 	O 	0.9228	0.5556	0.7025	-0.557
Mof_O 	O 	0.4213	0.852	0.4406	-0.242
Mof_O 	O 	0.1256	0.7124	0.71	-0.591
Mof_O 	O 	0.2433	0.7772	0.70341	-0.573
Mof_O 	O 	0.3563	0.8669	0.53748	-0.244
Mof_O 	O 	0.7976	0.4607	0.7996	-0.55
Mof_O 	O 	0.1289	0.8882	0.70735	-0.568
Mof_C 	C 	0.5457	0.8598	0.4992	-0.002
Mof_C 	C 	0.6047	0.8285	0.5307	0.034
Mof_H 	H 	0.6593	0.8045	0.5182	0.033
Mof_H 	H 	0.5388	0.8118	0.5457	0.029
Mof_C 	C 	0.6418	0.8913	0.478	0.034
Mof_H 	H 	0.6826	0.913	0.497	0.039
Mof_H 	H 	0.6	0.9107	0.4576	0.032
Mof_C 	C 	0.4853	0.825	0.4699	0.033
Mof_H 	H 	0.4257	0.8039	0.4837	0.035
Mof_H 	H 	0.5504	0.805	0.4574	0.028
Mof_C 	C 	0.4529	0.8944	0.5177	0.022
Mof_H 	H 	0.415	0.9146	0.4971	0.042
Mof_H 	H 	0.4962	0.9151	0.5368	0.034
Mof_C 	C 	0.7276	0.8368	0.5892	0.281
Mof_C 	C 	0.7098	0.7898	0.5997	-0.27
Mof_H 	H 	0.6607	0.7695	0.5836	0.12
Mof_C 	C 	0.7642	0.7724	0.634	0.172
Mof_H 	H 	0.7484	0.7407	0.642	-0.02
Mof_C 	C 	0.8417	0.8013	0.6566	-0.254
Mof_C 	C 	0.8578	0.8485	0.646	0.18
Mof_H 	H 	0.9083	0.8688	0.6617	-0.009
Mof_C 	C 	0.8005	0.8661	0.6126	-0.266
Mof_H 	H 	0.8112	0.8985	0.6056	0.138
Mof_C 	C 	0.9041	0.7811	0.6932	0.568
Mof_C 	C 	0.7852	0.8752	0.4255	0.311
Mof_C 	C 	0.8458	0.8394	0.4046	-0.309
Mof_H 	H 	0.8521	0.8084	0.4155	0.147
Mof_C 	C 	0.8961	0.849	0.3685	0.234
Mof_H 	H 	0.9381	0.8247	0.3544	-0.049
Mof_C 	C 	0.8862	0.894	0.3524	-0.319
Mof_C 	C 	0.8341	0.93	0.3743	0.233
Mof_H 	H 	0.8326	0.9614	0.3641	-0.036
Mof_C 	C 	0.7838	0.9208	0.4111	-0.312
Mof_H 	H 	0.7487	0.9458	0.4263	0.139
Mof_C 	C 	0.9324	0.5969	0.6885	0.599
Mof_C 	C 	0.3742	0.8279	0.4087	0.284
Mof_C 	C 	0.398	0.7804	0.4006	-0.275
Mof_H 	H 	0.4483	0.762	0.4179	0.122
Mof_C 	C 	0.3471	0.7603	0.367	0.182
Mof_H 	H 	0.366	0.7283	0.3606	-0.022
Mof_C 	C 	0.2693	0.7863	0.3428	-0.262
Mof_C 	C 	0.2464	0.8333	0.3514	0.197
Mof_H 	H 	0.1936	0.8514	0.3347	-0.01
Mof_C 	C 	0.2986	0.8542	0.3836	-0.277
Mof_H 	H 	0.2833	0.8868	0.3889	0.144
Mof_C 	C 	0.2089	0.7362	0.6931	0.55
Mof_C 	C 	0.3149	0.8828	0.5727	0.288
Mof_C 	C 	0.243	0.8507	0.5938	-0.28
Mof_H 	H 	0.2232	0.8205	0.5829	0.138
Mof_C 	C 	0.2005	0.863	0.631	0.198
Mof_H 	H 	0.1529	0.8408	0.6457	-0.035
Mof_C 	C 	0.2262	0.9071	0.647	-0.28
Mof_C 	C 	0.2947	0.9396	0.6253	0.187
Mof_H 	H 	0.3114	0.9701	0.636	-0.016
Mof_C 	C 	0.3398	0.9281	0.5878	-0.271
Mof_H 	H 	0.3863	0.9506	0.5729	0.124
Mof_C 	C 	0.1831	0.9198	0.6878	0.568
Mof_Dy	Dy	0.03356	0.19094	0.75	2.27
Mof_Dy	Dy	0.85371	0.32561	0.75	2.206
Mof_Dy	Dy	0.1789	0.01253	0.75	1.269
Mof_N 	N 	0.9166	0.996	0.75	0.091
Mof_O 	O 	0.954	0.0359	0.75	-0.331
Mof_O 	O 	0.9863	0.9636	0.75	-0.43
Mof_O 	O 	0.8058	0.9889	0.75	-0.078
Mof_O 	O 	0.4	0.5698	0.75	-0.074
Mof_Dy	Dy	0.8861	0.50574	0.75	1.209
Mof_N 	N 	0.624	0.5302	0.75	0.101
Mof_O 	O 	0.6563	0.4894	0.75	-0.397
Mof_O 	O 	0.7025	0.5603	0.75	-0.461
Mof_O 	O 	0.517	0.5401	0.75	-0.068
Mof_Dy	Dy	0.96644	0.80906	0.25	2.27
Mof_Dy	Dy	0.14629	0.67439	0.25	2.206
Mof_Dy	Dy	0.8211	0.98747	0.25	1.269
Mof_N 	N 	0.0834	0.004	0.25	0.091
Mof_O 	O 	0.046	0.9641	0.25	-0.331
Mof_O 	O 	0.0137	0.0364	0.25	-0.43
Mof_O 	O 	0.1942	0.0111	0.25	-0.078
Mof_O 	O 	0.6	0.4302	0.25	-0.074
Mof_Dy	Dy	0.1139	0.49426	0.25	1.209
Mof_N 	N 	0.376	0.4698	0.25	0.101
Mof_O 	O 	0.3437	0.5106	0.25	-0.397
Mof_O 	O 	0.2975	0.4397	0.25	-0.461
Mof_O 	O 	0.483	0.4599	0.25	-0.068
Mof_Dy	Dy	0.96644	0.69094	0.75	2.27
Mof_Dy	Dy	0.14629	0.82561	0.75	2.206
Mof_Dy	Dy	0.8211	0.51253	0.75	1.27
Mof_N 	N 	0.0834	0.496	0.75	0.092
Mof_O 	O 	0.046	0.5359	0.75	-0.332
Mof_O 	O 	0.0137	0.4636	0.75	-0.43
Mof_O 	O 	0.1942	0.4889	0.75	-0.078
Mof_O 	O 	0.6	0.0698	0.75	-0.074
Mof_Dy	Dy	0.1139	0.00574	0.75	1.208
Mof_N 	N 	0.376	0.0302	0.75	0.101
Mof_O 	O 	0.3437	0.9894	0.75	-0.396
Mof_O 	O 	0.2975	0.0603	0.75	-0.46
Mof_O 	O 	0.483	0.0401	0.75	-0.068
Mof_Dy	Dy	0.03356	0.30906	0.25	2.27
Mof_Dy	Dy	0.85371	0.17439	0.25	2.206
Mof_Dy	Dy	0.1789	0.48747	0.25	1.27
Mof_N 	N 	0.9166	0.504	0.25	0.092
Mof_O 	O 	0.954	0.4641	0.25	-0.332
Mof_O 	O 	0.9863	0.5364	0.25	-0.43
Mof_O 	O 	0.8058	0.5111	0.25	-0.078
Mof_O 	O 	0.4	0.9302	0.25	-0.074
Mof_Dy	Dy	0.8861	0.99426	0.25	1.208
Mof_N 	N 	0.624	0.9698	0.25	0.101
Mof_O 	O 	0.6563	0.0106	0.25	-0.396
Mof_O 	O 	0.7025	0.9397	0.25	-0.46
Mof_O 	O 	0.517	0.9599	0.25	-0.068
_end
