# CIF file generated by openbabel 3.1.0, see https://openbabel.org
data_I
_chemical_name_common 'NASMEB_clean'
_cell_length_a 10.179
_cell_length_b 10.9184
_cell_length_c 13.8704
_cell_angle_alpha 78.682
_cell_angle_beta 79.271
_cell_angle_gamma 86.079
_space_group_name_H-M_alt 'P 1'
_space_group_name_Hall 'P 1'
loop_
    _symmetry_equiv_pos_as_xyz
    x,y,z
loop_
    _atom_site_label
    _atom_site_type_symbol
    _atom_site_fract_x
    _atom_site_fract_y
    _atom_site_fract_z
    _atom_site_occupancy
    Eu1      Eu       0.68011    0.07666    0.70336    1.000
    Eu2      Eu       0.31989    0.92334    0.29664    1.000
    Mn1      Mn       0.00000    0.50000    0.50000    1.000
    H1       H        0.17340    0.08680    0.72150    1.000
    H2       H        0.91170    0.15290    0.96050    1.000
    H3       H        0.30590    0.14690    0.96270    1.000
    H4       H        0.98790    0.16640    0.28100    1.000
    H5       H        0.96530    0.24790    0.42530    1.000
    H6       H        0.98510    0.58880    0.27260    1.000
    H7       H        0.99090    0.51870    0.12500    1.000
    H8       H        0.67040    0.33090    0.84670    1.000
    H9       H        0.65230    0.66810    0.92290    1.000
    H10      H        0.71440    0.63910    0.63310    1.000
    H11      H        0.65600    0.22580    0.14690    1.000
    H12      H        0.64600    0.11770    0.30970    1.000
    H13      H        0.63740    0.42590    0.41080    1.000
    H14      H        0.64400    0.54340    0.25440    1.000
    H15      H        0.12290    0.15820    0.11590    1.000
    H16      H        0.61920    0.35360    0.01690    1.000
    H17      H        0.82660    0.91320    0.27850    1.000
    H18      H        0.08830    0.84710    0.03950    1.000
    H19      H        0.69410    0.85310    0.03730    1.000
    H20      H        0.01210    0.83360    0.71900    1.000
    H21      H        0.03470    0.75210    0.57470    1.000
    H22      H        0.01490    0.41120    0.72740    1.000
    H23      H        0.00910    0.48130    0.87500    1.000
    H24      H        0.32960    0.66910    0.15330    1.000
    H25      H        0.34770    0.33190    0.07710    1.000
    H26      H        0.28560    0.36090    0.36690    1.000
    H27      H        0.34400    0.77420    0.85310    1.000
    H28      H        0.35400    0.88230    0.69030    1.000
    H29      H        0.36260    0.57410    0.58920    1.000
    H30      H        0.35600    0.45660    0.74560    1.000
    H31      H        0.87710    0.84180    0.88410    1.000
    H32      H        0.38080    0.64640    0.98310    1.000
    C1       C        0.40490    0.09910    0.78580    1.000
    C2       C        0.26200    0.11450    0.83310    1.000
    C3       C        0.15640    0.10410    0.78570    1.000
    C4       C        0.02730    0.11900    0.83220    1.000
    C5       C        0.99960    0.14550    0.92800    1.000
    C6       C        0.10610    0.16080    0.97480    1.000
    C7       C        0.23570    0.14170    0.92940    1.000
    C8       C        0.90790    0.10680    0.78440    1.000
    C9       C        0.99610    0.29390    0.08890    1.000
    C10      C        0.99120    0.33390    0.18660    1.000
    C11      C        0.98510    0.25240    0.27770    1.000
    C12      C        0.97470    0.30240    0.36400    1.000
    C13      C        0.98400    0.50330    0.27430    1.000
    C14      C        0.98910    0.46190    0.18470    1.000
    C15      C        0.72810    0.39490    0.64700    1.000
    C16      C        0.70000    0.47190    0.72690    1.000
    C17      C        0.67700    0.41720    0.82820    1.000
    C18      C        0.66360    0.48940    0.90150    1.000
    C19      C        0.66430    0.61870    0.87420    1.000
    C20      C        0.68310    0.67470    0.77260    1.000
    C21      C        0.70130    0.60140    0.70020    1.000
    C22      C        0.68720    0.81070    0.74750    1.000
    C23      C        0.66660    0.48090    0.07930    1.000
    C24      C        0.65180    0.39770    0.18120    1.000
    C25      C        0.65210    0.26890    0.19900    1.000
    C26      C        0.64630    0.20450    0.29770    1.000
    C27      C        0.64080    0.38550    0.35720    1.000
    C28      C        0.64530    0.45670    0.26340    1.000
    C29      C        0.59510    0.90090    0.21420    1.000
    C30      C        0.73800    0.88550    0.16690    1.000
    C31      C        0.84360    0.89590    0.21430    1.000
    C32      C        0.97270    0.88100    0.16780    1.000
    C33      C        0.00040    0.85450    0.07200    1.000
    C34      C        0.89390    0.83920    0.02520    1.000
    C35      C        0.76430    0.85830    0.07060    1.000
    C36      C        0.09210    0.89320    0.21560    1.000
    C37      C        0.00390    0.70610    0.91110    1.000
    C38      C        0.00880    0.66610    0.81340    1.000
    C39      C        0.01490    0.74760    0.72230    1.000
    C40      C        0.02530    0.69760    0.63600    1.000
    C41      C        0.01600    0.49670    0.72570    1.000
    C42      C        0.01090    0.53810    0.81530    1.000
    C43      C        0.27190    0.60510    0.35300    1.000
    C44      C        0.30000    0.52810    0.27310    1.000
    C45      C        0.32300    0.58280    0.17180    1.000
    C46      C        0.33640    0.51060    0.09850    1.000
    C47      C        0.33570    0.38130    0.12580    1.000
    C48      C        0.31690    0.32530    0.22740    1.000
    C49      C        0.29870    0.39860    0.29980    1.000
    C50      C        0.31280    0.18930    0.25250    1.000
    C51      C        0.33340    0.51910    0.92070    1.000
    C52      C        0.34820    0.60230    0.81880    1.000
    C53      C        0.34790    0.73110    0.80100    1.000
    C54      C        0.35370    0.79550    0.70230    1.000
    C55      C        0.35920    0.61450    0.64280    1.000
    C56      C        0.35470    0.54330    0.73660    1.000
    N1       N        0.08190    0.19790    0.06970    1.000
    N2       N        0.97770    0.42560    0.36270    1.000
    N3       N        0.64560    0.42920    0.00280    1.000
    N4       N        0.64120    0.26130    0.37470    1.000
    N5       N        0.91810    0.80210    0.93030    1.000
    N6       N        0.02230    0.57440    0.63730    1.000
    N7       N        0.35440    0.57080    0.99720    1.000
    N8       N        0.35880    0.73870    0.62530    1.000
    O1       O        0.43790    0.09880    0.69200    1.000
    O2       O        0.49450    0.08600    0.83790    1.000
    O3       O        0.92750    0.09480    0.69210    1.000
    O4       O        0.79450    0.11130    0.83370    1.000
    O5       O        0.92380    0.34730    0.03140    1.000
    O6       O        0.67860    0.28790    0.66650    1.000
    O7       O        0.80060    0.43740    0.56660    1.000
    O8       O        0.67410    0.86930    0.66100    1.000
    O9       O        0.70420    0.87370    0.81090    1.000
    O10      O        0.69420    0.58830    0.07130    1.000
    O11      O        0.56210    0.90120    0.30800    1.000
    O12      O        0.50550    0.91400    0.16210    1.000
    O13      O        0.07250    0.90520    0.30790    1.000
    O14      O        0.20550    0.88870    0.16630    1.000
    O15      O        0.07620    0.65270    0.96860    1.000
    O16      O        0.32140    0.71210    0.33350    1.000
    O17      O        0.19940    0.56260    0.43340    1.000
    O18      O        0.32590    0.13070    0.33900    1.000
    O19      O        0.29580    0.12630    0.18910    1.000
    O20      O        0.30580    0.41170    0.92870    1.000
