data_functionalizedCrystal
_audit_creation_method	'EQeq! by Chris Wilmer'
_symmetry_space_group_name_H-M	'P1'
_symmetry_Int_Tables_number	1
_symmetry_cell_setting	triclinic
loop_
_symmetry_equiv_pos_as_xyz
  x,y,z
_cell_length_a	8.8353
_cell_length_b	14.2682
_cell_length_c	22.808
_cell_angle_alpha	92.475
_cell_angle_beta	91.101
_cell_angle_gamma	105.445
loop_
_atom_site_label
_atom_site_type_symbol
_atom_site_fract_x
_atom_site_fract_y
_atom_site_fract_z
_atom_site_charge
Mof_Mn	Mn	0.00833	0.54815	0.07958	0.853
Mof_Mn	Mn	0.50575	0.95296	0.42616	0.904
Mof_Mn	Mn	0.2566	0.82634	0.30181	0.678
Mof_C 	C 	0.6972	0.8214	0.4771	0.374
Mof_C 	C 	0.7121	0.7198	0.47833	-0.134
Mof_C 	C 	0.6157	0.6465	0.44123	0.058
Mof_H 	H 	0.5405	0.6611	0.4168	0.03
Mof_C 	C 	0.6308	0.5528	0.44054	-0.13
Mof_H 	H 	0.5657	0.5045	0.4158	0.082
Mof_C 	C 	0.7434	0.5301	0.47672	0.074
Mof_C 	C 	0.8373	0.6021	0.51422	-0.132
Mof_H 	H 	0.911	0.5871	0.5392	0.089
Mof_C 	C 	0.8223	0.6968	0.51475	0.059
Mof_H 	H 	0.8868	0.7448	0.5398	0.035
Mof_C 	C 	0.7571	0.428	0.47723	-0.004
Mof_C 	C 	0.767	0.3715	0.42571	-0.039
Mof_C 	C 	0.7664	0.2742	0.43073	-0.009
Mof_H 	H 	0.77	0.2362	0.3969	0.04
Mof_C 	C 	0.7603	0.2324	0.48515	-0.086
Mof_C 	C 	0.7567	0.2898	0.53588	-0.029
Mof_C 	C 	0.7563	0.386	0.53105	-0.048
Mof_H 	H 	0.7554	0.424	0.5651	0.062
Mof_C 	C 	0.7512	0.2489	0.59546	0.303
Mof_C 	C 	0.7608	0.1275	0.485	0.393
Mof_C 	C 	0.9002	0.5	0.35771	-0.178
Mof_H 	H 	0.9516	0.5382	0.3899	0.107
Mof_C 	C 	0.7892	0.4117	0.36615	0.105
Mof_C 	C 	0.7119	0.3584	0.31754	-0.157
Mof_H 	H 	0.6355	0.3006	0.3226	0.082
Mof_C 	C 	0.7458	0.3893	0.26095	0.075
Mof_H 	H 	0.6925	0.352	0.2287	0.014
Mof_C 	C 	0.8588	0.4757	0.25269	-0.15
Mof_C 	C 	0.9338	0.5305	0.30148	0.131
Mof_H 	H 	0.0084	0.5892	0.2964	-0.02
Mof_C 	C 	0.9034	0.5066	0.19132	0.348
Mof_C 	C 	0.7432	0.3752	0.02284	0.376
Mof_C 	C 	0.7455	0.2698	0.02497	-0.095
Mof_C 	C 	0.7482	0.2118	0.97467	-0.02
Mof_C 	C 	0.7495	0.1152	0.98069	-0.024
Mof_H 	H 	0.7506	0.0764	0.947	0.053
Mof_C 	C 	0.7493	0.0747	0.03466	-0.027
Mof_C 	C 	0.7391	0.1317	0.08553	-0.042
Mof_C 	C 	0.7396	0.2289	0.07957	-0.009
Mof_H 	H 	0.7359	0.2675	0.1131	0.045
Mof_C 	C 	0.7448	0.2479	0.91346	0.313
Mof_C 	C 	0.7151	0.0899	0.14516	0.124
Mof_C 	C 	0.7966	0.139	0.19442	-0.186
Mof_H 	H 	0.8717	0.1978	0.1907	0.099
Mof_C 	C 	0.7674	0.1011	0.24965	0.104
Mof_H 	H 	0.8216	0.1353	0.2827	0.004
Mof_C 	C 	0.6565	0.0118	0.25529	-0.207
Mof_C 	C 	0.5779	0.962	0.2059	0.147
Mof_H 	H 	0.5055	0.9019	0.2093	-0.021
Mof_C 	C 	0.6057	0.0004	0.15104	-0.221
Mof_H 	H 	0.551	0.9663	0.118	0.123
Mof_C 	C 	0.76	0.9719	0.036	0.063
Mof_C 	C 	0.8727	0.9476	0.07145	-0.127
Mof_H 	H 	0.9399	0.9955	0.0957	0.086
Mof_C 	C 	0.8859	0.8529	0.07103	0.06
Mof_H 	H 	0.9614	0.8378	0.0951	0.032
Mof_C 	C 	0.7864	0.7801	0.0347	-0.147
Mof_C 	C 	0.6748	0.8047	0.99901	0.078
Mof_H 	H 	0.6079	0.7571	0.9744	0.029
Mof_C 	C 	0.6626	0.8994	0.99987	-0.112
Mof_H 	H 	0.5875	0.9146	0.9757	0.083
Mof_C 	C 	0.8004	0.6779	0.03322	0.355
Mof_C 	C 	0.6154	0.9759	0.31516	0.376
Mof_O 	O 	0.5973	0.83653	0.44125	-0.381
Mof_O 	O 	0.7821	0.8858	0.51261	-0.363
Mof_O 	O 	0.75	0.30171	0.64014	-0.327
Mof_O 	O 	0.7443	0.15869	0.59958	-0.393
Mof_O 	O 	0.6276	0.06523	0.48983	-0.449
Mof_O 	O 	0.8869	0.10772	0.47782	-0.379
Mof_O 	O 	0.0247	0.5751	0.18502	-0.336
Mof_O 	O 	0.8214	0.4629	0.14815	-0.32
Mof_O 	O 	0.6148	0.39331	0.03158	-0.371
Mof_O 	O 	0.8715	0.43776	0.01425	-0.418
Mof_O 	O 	0.7587	0.33701	0.90786	-0.327
Mof_O 	O 	0.7273	0.18537	0.87171	-0.268
Mof_O 	O 	0.7173	0.6172	0.99543	-0.346
Mof_O 	O 	0.8978	0.6598	0.06879	-0.36
Mof_O 	O 	0.498	0.9028	0.32065	-0.416
Mof_O 	O 	0.6937	0.0179	0.35958	-0.362
Mof_Mn	Mn	0.99167	0.45185	0.92042	0.929
Mof_Mn	Mn	0.49425	0.04704	0.57384	0.882
Mof_Mn	Mn	0.7434	0.17366	0.69819	0.681
Mof_C 	C 	0.3028	0.1786	0.5229	0.376
Mof_C 	C 	0.2879	0.2802	0.52167	-0.144
Mof_C 	C 	0.3843	0.3535	0.55877	0.062
Mof_H 	H 	0.4595	0.3389	0.5832	0.027
Mof_C 	C 	0.3692	0.4472	0.55946	-0.138
Mof_H 	H 	0.4343	0.4955	0.5842	0.086
Mof_C 	C 	0.2566	0.4699	0.52328	0.08
Mof_C 	C 	0.1627	0.3979	0.48578	-0.142
Mof_H 	H 	0.089	0.4129	0.4608	0.078
Mof_C 	C 	0.1777	0.3032	0.48525	0.061
Mof_H 	H 	0.1132	0.2552	0.4602	0.021
Mof_C 	C 	0.2429	0.572	0.52277	-0.021
Mof_C 	C 	0.233	0.6285	0.57429	-0.018
Mof_C 	C 	0.2336	0.7258	0.56927	-0.026
Mof_H 	H 	0.23	0.7638	0.6031	0.043
Mof_C 	C 	0.2397	0.7676	0.51485	-0.083
Mof_C 	C 	0.2433	0.7102	0.46412	-0.04
Mof_C 	C 	0.2437	0.614	0.46895	-0.043
Mof_H 	H 	0.2446	0.576	0.4349	0.054
Mof_C 	C 	0.2488	0.7511	0.40454	0.302
Mof_C 	C 	0.2392	0.8725	0.515	0.391
Mof_C 	C 	0.0998	0.5	0.64229	-0.085
Mof_H 	H 	0.0484	0.4618	0.6101	0.06
Mof_C 	C 	0.2108	0.5883	0.63385	0.046
Mof_C 	C 	0.2881	0.6416	0.68246	-0.099
Mof_H 	H 	0.3645	0.6994	0.6774	0.065
Mof_C 	C 	0.2542	0.6107	0.73905	0.008
Mof_H 	H 	0.3075	0.648	0.7713	0.039
Mof_C 	C 	0.1412	0.5243	0.74731	-0.069
Mof_C 	C 	0.0662	0.4695	0.69852	-0.026
Mof_H 	H 	0.9916	0.4108	0.7036	0.062
Mof_C 	C 	0.0966	0.4934	0.80868	0.27
Mof_C 	C 	0.2568	0.6248	0.97716	0.367
Mof_C 	C 	0.2545	0.7302	0.97503	-0.047
Mof_C 	C 	0.2518	0.7882	0.02533	-0.061
Mof_C 	C 	0.2505	0.8848	0.01931	-0.073
Mof_H 	H 	0.2494	0.9236	0.053	0.063
Mof_C 	C 	0.2507	0.9253	0.96534	0.017
Mof_C 	C 	0.2609	0.8683	0.91447	-0.013
Mof_C 	C 	0.2604	0.7711	0.92043	-0.038
Mof_H 	H 	0.2641	0.7325	0.8869	0.054
Mof_C 	C 	0.2552	0.7521	0.08654	0.315
Mof_C 	C 	0.2849	0.9101	0.85484	0.037
Mof_C 	C 	0.2034	0.861	0.80558	-0.094
Mof_H 	H 	0.1283	0.8022	0.8093	0.062
Mof_C 	C 	0.2326	0.8989	0.75035	0.002
Mof_H 	H 	0.1784	0.8647	0.7173	0.036
Mof_C 	C 	0.3435	0.9882	0.74471	-0.071
Mof_C 	C 	0.4221	0.038	0.7941	-0.033
Mof_H 	H 	0.4945	0.0981	0.7907	0.039
Mof_C 	C 	0.3943	0.9996	0.84896	-0.047
Mof_H 	H 	0.449	0.0337	0.882	0.053
Mof_C 	C 	0.24	0.0281	0.964	0.069
Mof_C 	C 	0.1273	0.0524	0.92855	-0.123
Mof_H 	H 	0.0601	0.0045	0.9043	0.069
Mof_C 	C 	0.1141	0.1471	0.92897	0.048
Mof_H 	H 	0.0386	0.1622	0.9049	0.023
Mof_C 	C 	0.2136	0.2199	0.9653	-0.116
Mof_C 	C 	0.3252	0.1953	0.00099	0.028
Mof_H 	H 	0.3921	0.2429	0.0256	0.037
Mof_C 	C 	0.3374	0.1006	0.00013	-0.142
Mof_H 	H 	0.4125	0.0854	0.0243	0.077
Mof_C 	C 	0.1996	0.3221	0.96678	0.399
Mof_C 	C 	0.3846	0.0241	0.68484	0.289
Mof_O 	O 	0.4027	0.16347	0.55875	-0.385
Mof_O 	O 	0.2179	0.1142	0.48739	-0.382
Mof_O 	O 	0.25	0.69829	0.35986	-0.331
Mof_O 	O 	0.2557	0.84131	0.40042	-0.397
Mof_O 	O 	0.3724	0.93477	0.51017	-0.439
Mof_O 	O 	0.1131	0.89228	0.52218	-0.391
Mof_O 	O 	0.9753	0.4249	0.81498	-0.292
Mof_O 	O 	0.1786	0.5371	0.85185	-0.313
Mof_O 	O 	0.3852	0.60669	0.96842	-0.357
Mof_O 	O 	0.1285	0.56224	0.98575	-0.412
Mof_O 	O 	0.2413	0.66299	0.09214	-0.335
Mof_O 	O 	0.2727	0.81463	0.12829	-0.274
Mof_O 	O 	0.2827	0.3828	0.00457	-0.395
Mof_O 	O 	0.1022	0.3402	0.93121	-0.393
Mof_O 	O 	0.502	0.0972	0.67935	-0.398
Mof_O 	O 	0.3063	0.9821	0.64042	-0.325
Mof_Mn	Mn	0.5	0.5	-0	0.818
Mof_Mn	Mn	-5.13503e-18	0	0.5	0.81
_end
