# CIF file generated by openbabel 3.1.0, see https://openbabel.org
data_I
_chemical_name_common 'image0'
_cell_length_a 6.798
_cell_length_b 13.285
_cell_length_c 16.457
_cell_angle_alpha 90
_cell_angle_beta 90
_cell_angle_gamma 90
_space_group_name_H-M_alt 'P 1'
_space_group_name_Hall 'P 1'
loop_
    _symmetry_equiv_pos_as_xyz
    x,y,z
loop_
    _atom_site_label
    _atom_site_type_symbol
    _atom_site_fract_x
    _atom_site_fract_y
    _atom_site_fract_z
    _atom_site_occupancy
    C1       C        0.77470    0.60950    0.90450    1.000
    C2       C        0.75920    0.53490    0.83650    1.000
    C3       C        0.92860    0.48970    0.80650    1.000
    H1       H        0.04930    0.50230    0.83110    1.000
    C4       C        0.57840    0.51260    0.80240    1.000
    H2       H        0.46440    0.53960    0.82480    1.000
    C5       C        0.56620    0.45070    0.73560    1.000
    H3       H        0.44440    0.43750    0.71220    1.000
    C6       C        0.91770    0.42550    0.73990    1.000
    H4       H        0.03090    0.39470    0.72020    1.000
    C7       C        0.73700    0.40750    0.70260    1.000
    C8       C        0.72580    0.34580    0.62740    1.000
    O1       O        0.28370    0.68960    0.00960    1.000
    O2       O        0.88340    0.31380    0.59850    1.000
    O3       O        0.61460    0.64640    0.92940    1.000
    O4       O        0.55660    0.33070    0.59820    1.000
    O5       O        0.94420    0.63200    0.92980    1.000
    V1       V        0.06409    0.73509    0.00142    1.000
    C9       C        0.72530    0.39050    0.40450    1.000
    C10      C        0.74080    0.46510    0.33650    1.000
    C11      C        0.57140    0.51030    0.30650    1.000
    H5       H        0.45070    0.49770    0.33110    1.000
    C12      C        0.92160    0.48740    0.30240    1.000
    H6       H        0.03560    0.46040    0.32480    1.000
    C13      C        0.93380    0.54930    0.23560    1.000
    H7       H        0.05560    0.56250    0.21220    1.000
    C14      C        0.58230    0.57450    0.23990    1.000
    H8       H        0.46910    0.60530    0.22020    1.000
    C15      C        0.76300    0.59250    0.20260    1.000
    C16      C        0.77420    0.65420    0.12740    1.000
    O6       O        0.21630    0.31040    0.50960    1.000
    O7       O        0.61660    0.68620    0.09850    1.000
    O8       O        0.88540    0.35360    0.42940    1.000
    O9       O        0.94340    0.66930    0.09820    1.000
    O10      O        0.55580    0.36800    0.42980    1.000
    V2       V        0.43591    0.26491    0.50142    1.000
    C17      C        0.22530    0.10950    0.59550    1.000
    C18      C        0.24080    0.03490    0.66350    1.000
    C19      C        0.07140    0.98970    0.69350    1.000
    H9       H        0.95070    0.00230    0.66890    1.000
    C20      C        0.42160    0.01260    0.69760    1.000
    H10      H        0.53560    0.03960    0.67520    1.000
    C21      C        0.43380    0.95070    0.76440    1.000
    H11      H        0.55560    0.93750    0.78780    1.000
    C22      C        0.08230    0.92550    0.76010    1.000
    H12      H        0.96910    0.89470    0.77980    1.000
    C23      C        0.26300    0.90750    0.79740    1.000
    C24      C        0.27420    0.84580    0.87260    1.000
    O11      O        0.71630    0.18960    0.49040    1.000
    O12      O        0.11660    0.81380    0.90150    1.000
    O13      O        0.38540    0.14640    0.57060    1.000
    O14      O        0.44340    0.83070    0.90180    1.000
    O15      O        0.05580    0.13200    0.57020    1.000
    V3       V        0.93591    0.23509    0.49858    1.000
    C25      C        0.27470    0.89050    0.09550    1.000
    C26      C        0.25920    0.96510    0.16350    1.000
    C27      C        0.42860    0.01030    0.19350    1.000
    H13      H        0.54930    0.99770    0.16890    1.000
    C28      C        0.07840    0.98740    0.19760    1.000
    H14      H        0.96440    0.96040    0.17520    1.000
    C29      C        0.06620    0.04930    0.26440    1.000
    H15      H        0.94440    0.06250    0.28780    1.000
    C30      C        0.41770    0.07450    0.26010    1.000
    H16      H        0.53090    0.10530    0.27980    1.000
    C31      C        0.23700    0.09250    0.29740    1.000
    C32      C        0.22580    0.15420    0.37260    1.000
    O16      O        0.78370    0.81040    0.99040    1.000
    O17      O        0.38340    0.18620    0.40150    1.000
    O18      O        0.11460    0.85360    0.07060    1.000
    O19      O        0.05660    0.16930    0.40180    1.000
    O20      O        0.44420    0.86800    0.07020    1.000
    V4       V        0.56409    0.76491    0.99858    1.000
