# CIF file generated by openbabel 3.1.0, see https://openbabel.org
data_I
_chemical_name_common 'image0'
_cell_length_a 35.0615
_cell_length_b 14.9665
_cell_length_c 30.3099
_cell_angle_alpha 90
_cell_angle_beta 101.487
_cell_angle_gamma 90
_space_group_name_H-M_alt 'P 1'
_space_group_name_Hall 'P 1'
loop_
    _symmetry_equiv_pos_as_xyz
    x,y,z
loop_
    _atom_site_label
    _atom_site_type_symbol
    _atom_site_fract_x
    _atom_site_fract_y
    _atom_site_fract_z
    _atom_site_occupancy
    I1       I        0.35278    0.58690    0.51617    1.000
    Zn1      Zn       0.37213    0.59356    0.44379    1.000
    N1       N        0.32990    0.53130    0.39690    1.000
    N2       N        0.41880    0.51040    0.44640    1.000
    I2       I        0.38626    0.73630    0.41507    1.000
    C1       C        0.30590    0.57620    0.36500    1.000
    C2       C        0.32340    0.44490    0.40070    1.000
    H1       H        0.30920    0.63900    0.36310    1.000
    C3       C        0.27700    0.53640    0.33500    1.000
    C4       C        0.29500    0.39890    0.37130    1.000
    H2       H        0.33900    0.41290    0.42480    1.000
    H3       H        0.26120    0.57090    0.31200    1.000
    C5       C        0.27060    0.44460    0.33780    1.000
    H4       H        0.29240    0.33610    0.37420    1.000
    C6       C        0.23950    0.40080    0.30590    1.000
    N3       N        0.21953    0.45130    0.27280    1.000
    N4       N        0.23333    0.31260    0.31150    1.000
    C7       C        0.19020    0.40970    0.24580    1.000
    C8       C        0.20440    0.27820    0.28120    1.000
    C9       C        0.16660    0.46030    0.20820    1.000
    N5       N        0.18103    0.32340    0.24900    1.000
    C10      C        0.19740    0.17960    0.28160    1.000
    C11      C        0.17470    0.54910    0.20000    1.000
    C12      C        0.13620    0.42070    0.17980    1.000
    C13      C        0.16880    0.14260    0.24970    1.000
    C14      C        0.22040    0.12320    0.31100    1.000
    C15      C        0.15120    0.59210    0.16390    1.000
    H5       H        0.19580    0.57950    0.21860    1.000
    H6       H        0.13070    0.35920    0.18310    1.000
    C16      C        0.11400    0.46950    0.14690    1.000
    C17      C        0.16350    0.05170    0.24930    1.000
    H7       H        0.15280    0.17920    0.22800    1.000
    H8       H        0.24070    0.14590    0.33380    1.000
    C18      C        0.21350    0.03300    0.30700    1.000
    H9       H        0.15750    0.65180    0.15740    1.000
    N6       N        0.12111    0.55480    0.13861    1.000
    H10      H        0.09210    0.44150    0.12860    1.000
    H11      H        0.14270    0.02730    0.22770    1.000
    N7       N        0.18540    0.99670    0.27700    1.000
    H12      H        0.23000    0.99430    0.32710    1.000
    Zn2      Zn       0.08049    0.62609    0.09246    1.000
    Zn3      Zn       0.17140    0.86060    0.26990    1.000
    I3       I        0.02507    0.65405    0.13411    1.000
    I4       I        0.11341    0.74100    0.05450    1.000
    N8       N        0.06331    0.52370    0.04638    1.000
    N9       N        0.13940    0.84400    0.32030    1.000
    I5       I        0.23860    0.77460    0.30360    1.000
    I6       I        0.12664    0.83840    0.19357    1.000
    C19      C        0.10540    0.88310    0.31490    1.000
    C20      C        0.14990    0.78900    0.35550    1.000
    C21      C        0.08020    0.87060    0.34450    1.000
    H13      H        0.09760    0.92150    0.28980    1.000
    C22      C        0.12590    0.77120    0.38560    1.000
    H14      H        0.17470    0.76120    0.35990    1.000
    C23      C        0.09040    0.81160    0.38040    1.000
    H15      H        0.05620    0.90220    0.34030    1.000
    H16      H        0.13410    0.73090    0.40990    1.000
    C24      C        0.06490    0.79660    0.41210    1.000
    N10      N        0.07140    0.72290    0.43770    1.000
    N11      N        0.03620    0.85600    0.41390    1.000
    C25      C        0.04740    0.71320    0.46660    1.000
    C26      C        0.01510    0.83850    0.44470    1.000
    N12      N        0.01999    0.77020    0.47283    1.000
    C27      C        0.05260    0.62920    0.49450    1.000
    C28      C        0.98250    0.89980    0.44580    1.000
    C29      C        0.08030    0.56830    0.48910    1.000
    C30      C        0.02890    0.61090    0.52400    1.000
    C31      C        0.96490    0.94660    0.40900    1.000
    C32      C        0.96600    0.90800    0.48410    1.000
    C33      C        0.08500    0.49310    0.51620    1.000
    H17      H        0.09600    0.57730    0.46720    1.000
    H18      H        0.00840    0.65050    0.52710    1.000
    C34      C        0.03520    0.53370    0.54940    1.000
    C35      C        0.93380    0.99950    0.40960    1.000
    H19      H        0.97470    0.94200    0.38210    1.000
    C36      C        0.93500    0.96360    0.48300    1.000
    H20      H        0.97640    0.87520    0.51060    1.000
    H21      H        0.10470    0.45150    0.51310    1.000
    H22      H        0.01870    0.52120    0.57000    1.000
    H23      H        0.92220    0.03010    0.38280    1.000
    H24      H        0.92440    0.96930    0.50930    1.000
    Zn4      Zn       0.35920    0.58860    0.46090    1.000
    Zn5      Zn       0.67760    0.36080    0.27940    1.000
    I7       I        0.34260    0.55920    0.52460    1.000
    I8       I        0.39200    0.74000    0.40180    1.000
    I9       I        0.03040    0.65660    0.12820    1.000
    I10      I        0.12130    0.73510    0.05350    1.000
    I11      I        0.73200    0.26700    0.29378    1.000
    I12      I        0.73900    0.29120    0.31900    1.000
    I13      I        0.63580    0.32870    0.20130    1.000
    I14      I        0.85278    0.08690    0.51617    1.000
    Zn6      Zn       0.87213    0.09356    0.44379    1.000
    N13      N        0.82990    0.03130    0.39690    1.000
    N14      N        0.91880    0.01040    0.44640    1.000
    I15      I        0.88626    0.23630    0.41507    1.000
    C37      C        0.80590    0.07620    0.36500    1.000
    C38      C        0.82340    0.94490    0.40070    1.000
    H25      H        0.80920    0.13900    0.36310    1.000
    C39      C        0.77700    0.03640    0.33500    1.000
    C40      C        0.79500    0.89890    0.37130    1.000
    H26      H        0.83900    0.91290    0.42480    1.000
    H27      H        0.76120    0.07090    0.31200    1.000
    C41      C        0.77060    0.94460    0.33780    1.000
    H28      H        0.79240    0.83610    0.37420    1.000
    C42      C        0.73950    0.90080    0.30590    1.000
    N15      N        0.71953    0.95130    0.27280    1.000
    N16      N        0.73333    0.81260    0.31150    1.000
    C43      C        0.69020    0.90970    0.24580    1.000
    C44      C        0.70440    0.77820    0.28120    1.000
    C45      C        0.66660    0.96030    0.20820    1.000
    N17      N        0.68103    0.82340    0.24900    1.000
    C46      C        0.69740    0.67960    0.28160    1.000
    C47      C        0.67470    0.04910    0.20000    1.000
    C48      C        0.63620    0.92070    0.17980    1.000
    C49      C        0.66880    0.64260    0.24970    1.000
    C50      C        0.72040    0.62320    0.31100    1.000
    C51      C        0.65120    0.09210    0.16390    1.000
    H29      H        0.69580    0.07950    0.21860    1.000
    H30      H        0.63070    0.85920    0.18310    1.000
    C52      C        0.61400    0.96950    0.14690    1.000
    C53      C        0.66350    0.55170    0.24930    1.000
    H31      H        0.65280    0.67920    0.22800    1.000
    H32      H        0.74070    0.64590    0.33380    1.000
    C54      C        0.71350    0.53300    0.30700    1.000
    H33      H        0.65750    0.15180    0.15740    1.000
    N18      N        0.62111    0.05480    0.13861    1.000
    H34      H        0.59210    0.94150    0.12860    1.000
    H35      H        0.64270    0.52730    0.22770    1.000
    N19      N        0.68540    0.49670    0.27700    1.000
    H36      H        0.73000    0.49430    0.32710    1.000
    Zn7      Zn       0.58049    0.12609    0.09246    1.000
    Zn8      Zn       0.67140    0.36060    0.26990    1.000
    I16      I        0.52507    0.15405    0.13411    1.000
    I17      I        0.61341    0.24100    0.05450    1.000
    N20      N        0.56331    0.02370    0.04638    1.000
    N21      N        0.63940    0.34400    0.32030    1.000
    I18      I        0.73860    0.27460    0.30360    1.000
    I19      I        0.62664    0.33840    0.19357    1.000
    C55      C        0.60540    0.38310    0.31490    1.000
    C56      C        0.64990    0.28900    0.35550    1.000
    C57      C        0.58020    0.37060    0.34450    1.000
    H37      H        0.59760    0.42150    0.28980    1.000
    C58      C        0.62590    0.27120    0.38560    1.000
    H38      H        0.67470    0.26120    0.35990    1.000
    C59      C        0.59040    0.31160    0.38040    1.000
    H39      H        0.55620    0.40220    0.34030    1.000
    H40      H        0.63410    0.23090    0.40990    1.000
    C60      C        0.56490    0.29660    0.41210    1.000
    N22      N        0.57140    0.22290    0.43770    1.000
    N23      N        0.53620    0.35600    0.41390    1.000
    C61      C        0.54740    0.21320    0.46660    1.000
    C62      C        0.51510    0.33850    0.44470    1.000
    N24      N        0.51999    0.27020    0.47283    1.000
    C63      C        0.55260    0.12920    0.49450    1.000
    C64      C        0.48250    0.39980    0.44580    1.000
    C65      C        0.58030    0.06830    0.48910    1.000
    C66      C        0.52890    0.11090    0.52400    1.000
    C67      C        0.46490    0.44660    0.40900    1.000
    C68      C        0.46600    0.40800    0.48410    1.000
    C69      C        0.58500    0.99310    0.51620    1.000
    H41      H        0.59600    0.07730    0.46720    1.000
    H42      H        0.50840    0.15050    0.52710    1.000
    C70      C        0.53520    0.03370    0.54940    1.000
    C71      C        0.43380    0.49950    0.40960    1.000
    H43      H        0.47470    0.44200    0.38210    1.000
    C72      C        0.43500    0.46360    0.48300    1.000
    H44      H        0.47640    0.37520    0.51060    1.000
    H45      H        0.60470    0.95150    0.51310    1.000
    H46      H        0.51870    0.02120    0.57000    1.000
    H47      H        0.42220    0.53010    0.38280    1.000
    H48      H        0.42440    0.46930    0.50930    1.000
    Zn9      Zn       0.85920    0.08860    0.46090    1.000
    Zn10     Zn       0.17760    0.86080    0.27940    1.000
    I20      I        0.84260    0.05920    0.52460    1.000
    I21      I        0.89200    0.24000    0.40180    1.000
    I22      I        0.53040    0.15660    0.12820    1.000
    I23      I        0.62130    0.23510    0.05350    1.000
    I24      I        0.23200    0.76700    0.29378    1.000
    I25      I        0.23900    0.79120    0.31900    1.000
    I26      I        0.13580    0.82870    0.20130    1.000
    I27      I        0.35278    0.41310    0.01617    1.000
    Zn11     Zn       0.37213    0.40644    0.94379    1.000
    N25      N        0.32990    0.46870    0.89690    1.000
    N26      N        0.41880    0.48960    0.94640    1.000
    I28      I        0.38626    0.26370    0.91507    1.000
    C73      C        0.30590    0.42380    0.86500    1.000
    C74      C        0.32340    0.55510    0.90070    1.000
    H49      H        0.30920    0.36100    0.86310    1.000
    C75      C        0.27700    0.46360    0.83500    1.000
    C76      C        0.29500    0.60110    0.87130    1.000
    H50      H        0.33900    0.58710    0.92480    1.000
    H51      H        0.26120    0.42910    0.81200    1.000
    C77      C        0.27060    0.55540    0.83780    1.000
    H52      H        0.29240    0.66390    0.87420    1.000
    C78      C        0.23950    0.59920    0.80590    1.000
    N27      N        0.21953    0.54870    0.77280    1.000
    N28      N        0.23333    0.68740    0.81150    1.000
    C79      C        0.19020    0.59030    0.74580    1.000
    C80      C        0.20440    0.72180    0.78120    1.000
    C81      C        0.16660    0.53970    0.70820    1.000
    N29      N        0.18103    0.67660    0.74900    1.000
    C82      C        0.19740    0.82040    0.78160    1.000
    C83      C        0.17470    0.45090    0.70000    1.000
    C84      C        0.13620    0.57930    0.67980    1.000
    C85      C        0.16880    0.85740    0.74970    1.000
    C86      C        0.22040    0.87680    0.81100    1.000
    C87      C        0.15120    0.40790    0.66390    1.000
    H53      H        0.19580    0.42050    0.71860    1.000
    H54      H        0.13070    0.64080    0.68310    1.000
    C88      C        0.11400    0.53050    0.64690    1.000
    C89      C        0.16350    0.94830    0.74930    1.000
    H55      H        0.15280    0.82080    0.72800    1.000
    H56      H        0.24070    0.85410    0.83380    1.000
    C90      C        0.21350    0.96700    0.80700    1.000
    H57      H        0.15750    0.34820    0.65740    1.000
    N30      N        0.12111    0.44520    0.63861    1.000
    H58      H        0.09210    0.55850    0.62860    1.000
    H59      H        0.14270    0.97270    0.72770    1.000
    N31      N        0.18540    0.00330    0.77700    1.000
    H60      H        0.23000    0.00570    0.82710    1.000
    Zn12     Zn       0.08049    0.37391    0.59246    1.000
    Zn13     Zn       0.17140    0.13940    0.76990    1.000
    I29      I        0.02507    0.34595    0.63411    1.000
    I30      I        0.11341    0.25900    0.55450    1.000
    N32      N        0.06331    0.47630    0.54638    1.000
    N33      N        0.13940    0.15600    0.82030    1.000
    I31      I        0.23860    0.22540    0.80360    1.000
    I32      I        0.12664    0.16160    0.69357    1.000
    C91      C        0.10540    0.11690    0.81490    1.000
    C92      C        0.14990    0.21100    0.85550    1.000
    C93      C        0.08020    0.12940    0.84450    1.000
    H61      H        0.09760    0.07850    0.78980    1.000
    C94      C        0.12590    0.22880    0.88560    1.000
    H62      H        0.17470    0.23880    0.85990    1.000
    C95      C        0.09040    0.18840    0.88040    1.000
    H63      H        0.05620    0.09780    0.84030    1.000
    H64      H        0.13410    0.26910    0.90990    1.000
    C96      C        0.06490    0.20340    0.91210    1.000
    N34      N        0.07140    0.27710    0.93770    1.000
    N35      N        0.03620    0.14400    0.91390    1.000
    C97      C        0.04740    0.28680    0.96660    1.000
    C98      C        0.01510    0.16150    0.94470    1.000
    N36      N        0.01999    0.22980    0.97283    1.000
    C99      C        0.05260    0.37080    0.99450    1.000
    C100     C        0.98250    0.10020    0.94580    1.000
    C101     C        0.08030    0.43170    0.98910    1.000
    C102     C        0.02890    0.38910    0.02400    1.000
    C103     C        0.96490    0.05340    0.90900    1.000
    C104     C        0.96600    0.09200    0.98410    1.000
    C105     C        0.08500    0.50690    0.01620    1.000
    H65      H        0.09600    0.42270    0.96720    1.000
    H66      H        0.00840    0.34950    0.02710    1.000
    C106     C        0.03520    0.46630    0.04940    1.000
    C107     C        0.93380    0.00050    0.90960    1.000
    H67      H        0.97470    0.05800    0.88210    1.000
    C108     C        0.93500    0.03640    0.98300    1.000
    H68      H        0.97640    0.12480    0.01060    1.000
    H69      H        0.10470    0.54850    0.01310    1.000
    H70      H        0.01870    0.47880    0.07000    1.000
    H71      H        0.92220    0.96990    0.88280    1.000
    H72      H        0.92440    0.03070    0.00930    1.000
    Zn14     Zn       0.35920    0.41140    0.96090    1.000
    Zn15     Zn       0.67760    0.63920    0.77940    1.000
    I33      I        0.34260    0.44080    0.02460    1.000
    I34      I        0.39200    0.26000    0.90180    1.000
    I35      I        0.03040    0.34340    0.62820    1.000
    I36      I        0.12130    0.26490    0.55350    1.000
    I37      I        0.73200    0.73300    0.79378    1.000
    I38      I        0.73900    0.70880    0.81900    1.000
    I39      I        0.63580    0.67130    0.70130    1.000
    I40      I        0.85278    0.91310    0.01617    1.000
    Zn16     Zn       0.87213    0.90644    0.94379    1.000
    N37      N        0.82990    0.96870    0.89690    1.000
    N38      N        0.91880    0.98960    0.94640    1.000
    I41      I        0.88626    0.76370    0.91507    1.000
    C109     C        0.80590    0.92380    0.86500    1.000
    C110     C        0.82340    0.05510    0.90070    1.000
    H73      H        0.80920    0.86100    0.86310    1.000
    C111     C        0.77700    0.96360    0.83500    1.000
    C112     C        0.79500    0.10110    0.87130    1.000
    H74      H        0.83900    0.08710    0.92480    1.000
    H75      H        0.76120    0.92910    0.81200    1.000
    C113     C        0.77060    0.05540    0.83780    1.000
    H76      H        0.79240    0.16390    0.87420    1.000
    C114     C        0.73950    0.09920    0.80590    1.000
    N39      N        0.71953    0.04870    0.77280    1.000
    N40      N        0.73333    0.18740    0.81150    1.000
    C115     C        0.69020    0.09030    0.74580    1.000
    C116     C        0.70440    0.22180    0.78120    1.000
    C117     C        0.66660    0.03970    0.70820    1.000
    N41      N        0.68103    0.17660    0.74900    1.000
    C118     C        0.69740    0.32040    0.78160    1.000
    C119     C        0.67470    0.95090    0.70000    1.000
    C120     C        0.63620    0.07930    0.67980    1.000
    C121     C        0.66880    0.35740    0.74970    1.000
    C122     C        0.72040    0.37680    0.81100    1.000
    C123     C        0.65120    0.90790    0.66390    1.000
    H77      H        0.69580    0.92050    0.71860    1.000
    H78      H        0.63070    0.14080    0.68310    1.000
    C124     C        0.61400    0.03050    0.64690    1.000
    C125     C        0.66350    0.44830    0.74930    1.000
    H79      H        0.65280    0.32080    0.72800    1.000
    H80      H        0.74070    0.35410    0.83380    1.000
    C126     C        0.71350    0.46700    0.80700    1.000
    H81      H        0.65750    0.84820    0.65740    1.000
    N42      N        0.62111    0.94520    0.63861    1.000
    H82      H        0.59210    0.05850    0.62860    1.000
    H83      H        0.64270    0.47270    0.72770    1.000
    N43      N        0.68540    0.50330    0.77700    1.000
    H84      H        0.73000    0.50570    0.82710    1.000
    Zn17     Zn       0.58049    0.87391    0.59246    1.000
    Zn18     Zn       0.67140    0.63940    0.76990    1.000
    I42      I        0.52507    0.84595    0.63411    1.000
    I43      I        0.61341    0.75900    0.55450    1.000
    N44      N        0.56331    0.97630    0.54638    1.000
    N45      N        0.63940    0.65600    0.82030    1.000
    I44      I        0.73860    0.72540    0.80360    1.000
    I45      I        0.62664    0.66160    0.69357    1.000
    C127     C        0.60540    0.61690    0.81490    1.000
    C128     C        0.64990    0.71100    0.85550    1.000
    C129     C        0.58020    0.62940    0.84450    1.000
    H85      H        0.59760    0.57850    0.78980    1.000
    C130     C        0.62590    0.72880    0.88560    1.000
    H86      H        0.67470    0.73880    0.85990    1.000
    C131     C        0.59040    0.68840    0.88040    1.000
    H87      H        0.55620    0.59780    0.84030    1.000
    H88      H        0.63410    0.76910    0.90990    1.000
    C132     C        0.56490    0.70340    0.91210    1.000
    N46      N        0.57140    0.77710    0.93770    1.000
    N47      N        0.53620    0.64400    0.91390    1.000
    C133     C        0.54740    0.78680    0.96660    1.000
    C134     C        0.51510    0.66150    0.94470    1.000
    N48      N        0.51999    0.72980    0.97283    1.000
    C135     C        0.55260    0.87080    0.99450    1.000
    C136     C        0.48250    0.60020    0.94580    1.000
    C137     C        0.58030    0.93170    0.98910    1.000
    C138     C        0.52890    0.88910    0.02400    1.000
    C139     C        0.46490    0.55340    0.90900    1.000
    C140     C        0.46600    0.59200    0.98410    1.000
    C141     C        0.58500    0.00690    0.01620    1.000
    H89      H        0.59600    0.92270    0.96720    1.000
    H90      H        0.50840    0.84950    0.02710    1.000
    C142     C        0.53520    0.96630    0.04940    1.000
    C143     C        0.43380    0.50050    0.90960    1.000
    H91      H        0.47470    0.55800    0.88210    1.000
    C144     C        0.43500    0.53640    0.98300    1.000
    H92      H        0.47640    0.62480    0.01060    1.000
    H93      H        0.60470    0.04850    0.01310    1.000
    H94      H        0.51870    0.97880    0.07000    1.000
    H95      H        0.42220    0.46990    0.88280    1.000
    H96      H        0.42440    0.53070    0.00930    1.000
    Zn19     Zn       0.85920    0.91140    0.96090    1.000
    Zn20     Zn       0.17760    0.13920    0.77940    1.000
    I46      I        0.84260    0.94080    0.02460    1.000
    I47      I        0.89200    0.76000    0.90180    1.000
    I48      I        0.53040    0.84340    0.62820    1.000
    I49      I        0.62130    0.76490    0.55350    1.000
    I50      I        0.23200    0.23300    0.79378    1.000
    I51      I        0.23900    0.20880    0.81900    1.000
    I52      I        0.13580    0.17130    0.70130    1.000
    I53      I        0.64722    0.58690    0.98383    1.000
    Zn21     Zn       0.62787    0.59356    0.05621    1.000
    N49      N        0.67010    0.53130    0.10310    1.000
    N50      N        0.58120    0.51040    0.05360    1.000
    I54      I        0.61374    0.73630    0.08493    1.000
    C145     C        0.69410    0.57620    0.13500    1.000
    C146     C        0.67660    0.44490    0.09930    1.000
    H97      H        0.69080    0.63900    0.13690    1.000
    C147     C        0.72300    0.53640    0.16500    1.000
    C148     C        0.70500    0.39890    0.12870    1.000
    H98      H        0.66100    0.41290    0.07520    1.000
    H99      H        0.73880    0.57090    0.18800    1.000
    C149     C        0.72940    0.44460    0.16220    1.000
    H100     H        0.70760    0.33610    0.12580    1.000
    C150     C        0.76050    0.40080    0.19410    1.000
    N51      N        0.78047    0.45130    0.22720    1.000
    N52      N        0.76667    0.31260    0.18850    1.000
    C151     C        0.80980    0.40970    0.25420    1.000
    C152     C        0.79560    0.27820    0.21880    1.000
    C153     C        0.83340    0.46030    0.29180    1.000
    N53      N        0.81897    0.32340    0.25100    1.000
    C154     C        0.80260    0.17960    0.21840    1.000
    C155     C        0.82530    0.54910    0.30000    1.000
    C156     C        0.86380    0.42070    0.32020    1.000
    C157     C        0.83120    0.14260    0.25030    1.000
    C158     C        0.77960    0.12320    0.18900    1.000
    C159     C        0.84880    0.59210    0.33610    1.000
    H101     H        0.80420    0.57950    0.28140    1.000
    H102     H        0.86930    0.35920    0.31690    1.000
    C160     C        0.88600    0.46950    0.35310    1.000
    C161     C        0.83650    0.05170    0.25070    1.000
    H103     H        0.84720    0.17920    0.27200    1.000
    H104     H        0.75930    0.14590    0.16620    1.000
    C162     C        0.78650    0.03300    0.19300    1.000
    H105     H        0.84250    0.65180    0.34260    1.000
    N54      N        0.87889    0.55480    0.36139    1.000
    H106     H        0.90790    0.44150    0.37140    1.000
    H107     H        0.85730    0.02730    0.27230    1.000
    N55      N        0.81460    0.99670    0.22300    1.000
    H108     H        0.77000    0.99430    0.17290    1.000
    Zn22     Zn       0.91951    0.62609    0.40754    1.000
    Zn23     Zn       0.82860    0.86060    0.23010    1.000
    I55      I        0.97493    0.65405    0.36589    1.000
    I56      I        0.88659    0.74100    0.44550    1.000
    N56      N        0.93669    0.52370    0.45362    1.000
    N57      N        0.86060    0.84400    0.17970    1.000
    I57      I        0.76140    0.77460    0.19640    1.000
    I58      I        0.87336    0.83840    0.30643    1.000
    C163     C        0.89460    0.88310    0.18510    1.000
    C164     C        0.85010    0.78900    0.14450    1.000
    C165     C        0.91980    0.87060    0.15550    1.000
    H109     H        0.90240    0.92150    0.21020    1.000
    C166     C        0.87410    0.77120    0.11440    1.000
    H110     H        0.82530    0.76120    0.14010    1.000
    C167     C        0.90960    0.81160    0.11960    1.000
    H111     H        0.94380    0.90220    0.15970    1.000
    H112     H        0.86590    0.73090    0.09010    1.000
    C168     C        0.93510    0.79660    0.08790    1.000
    N58      N        0.92860    0.72290    0.06230    1.000
    N59      N        0.96380    0.85600    0.08610    1.000
    C169     C        0.95260    0.71320    0.03340    1.000
    C170     C        0.98490    0.83850    0.05530    1.000
    N60      N        0.98001    0.77020    0.02717    1.000
    C171     C        0.94740    0.62920    0.00550    1.000
    C172     C        0.01750    0.89980    0.05420    1.000
    C173     C        0.91970    0.56830    0.01090    1.000
    C174     C        0.97110    0.61090    0.97600    1.000
    C175     C        0.03510    0.94660    0.09100    1.000
    C176     C        0.03400    0.90800    0.01590    1.000
    C177     C        0.91500    0.49310    0.98380    1.000
    H113     H        0.90400    0.57730    0.03280    1.000
    H114     H        0.99160    0.65050    0.97290    1.000
    C178     C        0.96480    0.53370    0.95060    1.000
    C179     C        0.06620    0.99950    0.09040    1.000
    H115     H        0.02530    0.94200    0.11790    1.000
    C180     C        0.06500    0.96360    0.01700    1.000
    H116     H        0.02360    0.87520    0.98940    1.000
    H117     H        0.89530    0.45150    0.98690    1.000
    H118     H        0.98130    0.52120    0.93000    1.000
    H119     H        0.07780    0.03010    0.11720    1.000
    H120     H        0.07560    0.96930    0.99070    1.000
    Zn24     Zn       0.64080    0.58860    0.03910    1.000
    Zn25     Zn       0.32240    0.36080    0.22060    1.000
    I59      I        0.65740    0.55920    0.97540    1.000
    I60      I        0.60800    0.74000    0.09820    1.000
    I61      I        0.96960    0.65660    0.37180    1.000
    I62      I        0.87870    0.73510    0.44650    1.000
    I63      I        0.26800    0.26700    0.20622    1.000
    I64      I        0.26100    0.29120    0.18100    1.000
    I65      I        0.36420    0.32870    0.29870    1.000
    I66      I        0.14722    0.08690    0.98383    1.000
    Zn26     Zn       0.12787    0.09356    0.05621    1.000
    N61      N        0.17010    0.03130    0.10310    1.000
    N62      N        0.08120    0.01040    0.05360    1.000
    I67      I        0.11374    0.23630    0.08493    1.000
    C181     C        0.19410    0.07620    0.13500    1.000
    C182     C        0.17660    0.94490    0.09930    1.000
    H121     H        0.19080    0.13900    0.13690    1.000
    C183     C        0.22300    0.03640    0.16500    1.000
    C184     C        0.20500    0.89890    0.12870    1.000
    H122     H        0.16100    0.91290    0.07520    1.000
    H123     H        0.23880    0.07090    0.18800    1.000
    C185     C        0.22940    0.94460    0.16220    1.000
    H124     H        0.20760    0.83610    0.12580    1.000
    C186     C        0.26050    0.90080    0.19410    1.000
    N63      N        0.28047    0.95130    0.22720    1.000
    N64      N        0.26667    0.81260    0.18850    1.000
    C187     C        0.30980    0.90970    0.25420    1.000
    C188     C        0.29560    0.77820    0.21880    1.000
    C189     C        0.33340    0.96030    0.29180    1.000
    N65      N        0.31897    0.82340    0.25100    1.000
    C190     C        0.30260    0.67960    0.21840    1.000
    C191     C        0.32530    0.04910    0.30000    1.000
    C192     C        0.36380    0.92070    0.32020    1.000
    C193     C        0.33120    0.64260    0.25030    1.000
    C194     C        0.27960    0.62320    0.18900    1.000
    C195     C        0.34880    0.09210    0.33610    1.000
    H125     H        0.30420    0.07950    0.28140    1.000
    H126     H        0.36930    0.85920    0.31690    1.000
    C196     C        0.38600    0.96950    0.35310    1.000
    C197     C        0.33650    0.55170    0.25070    1.000
    H127     H        0.34720    0.67920    0.27200    1.000
    H128     H        0.25930    0.64590    0.16620    1.000
    C198     C        0.28650    0.53300    0.19300    1.000
    H129     H        0.34250    0.15180    0.34260    1.000
    N66      N        0.37889    0.05480    0.36139    1.000
    H130     H        0.40790    0.94150    0.37140    1.000
    H131     H        0.35730    0.52730    0.27230    1.000
    N67      N        0.31460    0.49670    0.22300    1.000
    H132     H        0.27000    0.49430    0.17290    1.000
    Zn27     Zn       0.41951    0.12609    0.40754    1.000
    Zn28     Zn       0.32860    0.36060    0.23010    1.000
    I68      I        0.47493    0.15405    0.36589    1.000
    I69      I        0.38659    0.24100    0.44550    1.000
    N68      N        0.43669    0.02370    0.45362    1.000
    N69      N        0.36060    0.34400    0.17970    1.000
    I70      I        0.26140    0.27460    0.19640    1.000
    I71      I        0.37336    0.33840    0.30643    1.000
    C199     C        0.39460    0.38310    0.18510    1.000
    C200     C        0.35010    0.28900    0.14450    1.000
    C201     C        0.41980    0.37060    0.15550    1.000
    H133     H        0.40240    0.42150    0.21020    1.000
    C202     C        0.37410    0.27120    0.11440    1.000
    H134     H        0.32530    0.26120    0.14010    1.000
    C203     C        0.40960    0.31160    0.11960    1.000
    H135     H        0.44380    0.40220    0.15970    1.000
    H136     H        0.36590    0.23090    0.09010    1.000
    C204     C        0.43510    0.29660    0.08790    1.000
    N70      N        0.42860    0.22290    0.06230    1.000
    N71      N        0.46380    0.35600    0.08610    1.000
    C205     C        0.45260    0.21320    0.03340    1.000
    C206     C        0.48490    0.33850    0.05530    1.000
    N72      N        0.48001    0.27020    0.02717    1.000
    C207     C        0.44740    0.12920    0.00550    1.000
    C208     C        0.51750    0.39980    0.05420    1.000
    C209     C        0.41970    0.06830    0.01090    1.000
    C210     C        0.47110    0.11090    0.97600    1.000
    C211     C        0.53510    0.44660    0.09100    1.000
    C212     C        0.53400    0.40800    0.01590    1.000
    C213     C        0.41500    0.99310    0.98380    1.000
    H137     H        0.40400    0.07730    0.03280    1.000
    H138     H        0.49160    0.15050    0.97290    1.000
    C214     C        0.46480    0.03370    0.95060    1.000
    C215     C        0.56620    0.49950    0.09040    1.000
    H139     H        0.52530    0.44200    0.11790    1.000
    C216     C        0.56500    0.46360    0.01700    1.000
    H140     H        0.52360    0.37520    0.98940    1.000
    H141     H        0.39530    0.95150    0.98690    1.000
    H142     H        0.48130    0.02120    0.93000    1.000
    H143     H        0.57780    0.53010    0.11720    1.000
    H144     H        0.57560    0.46930    0.99070    1.000
    Zn29     Zn       0.14080    0.08860    0.03910    1.000
    Zn30     Zn       0.82240    0.86080    0.22060    1.000
    I72      I        0.15740    0.05920    0.97540    1.000
    I73      I        0.10800    0.24000    0.09820    1.000
    I74      I        0.46960    0.15660    0.37180    1.000
    I75      I        0.37870    0.23510    0.44650    1.000
    I76      I        0.76800    0.76700    0.20622    1.000
    I77      I        0.76100    0.79120    0.18100    1.000
    I78      I        0.86420    0.82870    0.29870    1.000
    I79      I        0.64722    0.41310    0.48383    1.000
    Zn31     Zn       0.62787    0.40644    0.55621    1.000
    N73      N        0.67010    0.46870    0.60310    1.000
    N74      N        0.58120    0.48960    0.55360    1.000
    I80      I        0.61374    0.26370    0.58493    1.000
    C217     C        0.69410    0.42380    0.63500    1.000
    C218     C        0.67660    0.55510    0.59930    1.000
    H145     H        0.69080    0.36100    0.63690    1.000
    C219     C        0.72300    0.46360    0.66500    1.000
    C220     C        0.70500    0.60110    0.62870    1.000
    H146     H        0.66100    0.58710    0.57520    1.000
    H147     H        0.73880    0.42910    0.68800    1.000
    C221     C        0.72940    0.55540    0.66220    1.000
    H148     H        0.70760    0.66390    0.62580    1.000
    C222     C        0.76050    0.59920    0.69410    1.000
    N75      N        0.78047    0.54870    0.72720    1.000
    N76      N        0.76667    0.68740    0.68850    1.000
    C223     C        0.80980    0.59030    0.75420    1.000
    C224     C        0.79560    0.72180    0.71880    1.000
    C225     C        0.83340    0.53970    0.79180    1.000
    N77      N        0.81897    0.67660    0.75100    1.000
    C226     C        0.80260    0.82040    0.71840    1.000
    C227     C        0.82530    0.45090    0.80000    1.000
    C228     C        0.86380    0.57930    0.82020    1.000
    C229     C        0.83120    0.85740    0.75030    1.000
    C230     C        0.77960    0.87680    0.68900    1.000
    C231     C        0.84880    0.40790    0.83610    1.000
    H149     H        0.80420    0.42050    0.78140    1.000
    H150     H        0.86930    0.64080    0.81690    1.000
    C232     C        0.88600    0.53050    0.85310    1.000
    C233     C        0.83650    0.94830    0.75070    1.000
    H151     H        0.84720    0.82080    0.77200    1.000
    H152     H        0.75930    0.85410    0.66620    1.000
    C234     C        0.78650    0.96700    0.69300    1.000
    H153     H        0.84250    0.34820    0.84260    1.000
    N78      N        0.87889    0.44520    0.86139    1.000
    H154     H        0.90790    0.55850    0.87140    1.000
    H155     H        0.85730    0.97270    0.77230    1.000
    N79      N        0.81460    0.00330    0.72300    1.000
    H156     H        0.77000    0.00570    0.67290    1.000
    Zn32     Zn       0.91951    0.37391    0.90754    1.000
    Zn33     Zn       0.82860    0.13940    0.73010    1.000
    I81      I        0.97493    0.34595    0.86589    1.000
    I82      I        0.88659    0.25900    0.94550    1.000
    N80      N        0.93669    0.47630    0.95362    1.000
    N81      N        0.86060    0.15600    0.67970    1.000
    I83      I        0.76140    0.22540    0.69640    1.000
    I84      I        0.87336    0.16160    0.80643    1.000
    C235     C        0.89460    0.11690    0.68510    1.000
    C236     C        0.85010    0.21100    0.64450    1.000
    C237     C        0.91980    0.12940    0.65550    1.000
    H157     H        0.90240    0.07850    0.71020    1.000
    C238     C        0.87410    0.22880    0.61440    1.000
    H158     H        0.82530    0.23880    0.64010    1.000
    C239     C        0.90960    0.18840    0.61960    1.000
    H159     H        0.94380    0.09780    0.65970    1.000
    H160     H        0.86590    0.26910    0.59010    1.000
    C240     C        0.93510    0.20340    0.58790    1.000
    N82      N        0.92860    0.27710    0.56230    1.000
    N83      N        0.96380    0.14400    0.58610    1.000
    C241     C        0.95260    0.28680    0.53340    1.000
    C242     C        0.98490    0.16150    0.55530    1.000
    N84      N        0.98001    0.22980    0.52717    1.000
    C243     C        0.94740    0.37080    0.50550    1.000
    C244     C        0.01750    0.10020    0.55420    1.000
    C245     C        0.91970    0.43170    0.51090    1.000
    C246     C        0.97110    0.38910    0.47600    1.000
    C247     C        0.03510    0.05340    0.59100    1.000
    C248     C        0.03400    0.09200    0.51590    1.000
    C249     C        0.91500    0.50690    0.48380    1.000
    H161     H        0.90400    0.42270    0.53280    1.000
    H162     H        0.99160    0.34950    0.47290    1.000
    C250     C        0.96480    0.46630    0.45060    1.000
    C251     C        0.06620    0.00050    0.59040    1.000
    H163     H        0.02530    0.05800    0.61790    1.000
    C252     C        0.06500    0.03640    0.51700    1.000
    H164     H        0.02360    0.12480    0.48940    1.000
    H165     H        0.89530    0.54850    0.48690    1.000
    H166     H        0.98130    0.47880    0.43000    1.000
    H167     H        0.07780    0.96990    0.61720    1.000
    H168     H        0.07560    0.03070    0.49070    1.000
    Zn34     Zn       0.64080    0.41140    0.53910    1.000
    Zn35     Zn       0.32240    0.63920    0.72060    1.000
    I85      I        0.65740    0.44080    0.47540    1.000
    I86      I        0.60800    0.26000    0.59820    1.000
    I87      I        0.96960    0.34340    0.87180    1.000
    I88      I        0.87870    0.26490    0.94650    1.000
    I89      I        0.26800    0.73300    0.70622    1.000
    I90      I        0.26100    0.70880    0.68100    1.000
    I91      I        0.36420    0.67130    0.79870    1.000
    I92      I        0.14722    0.91310    0.48383    1.000
    Zn36     Zn       0.12787    0.90644    0.55621    1.000
    N85      N        0.17010    0.96870    0.60310    1.000
    N86      N        0.08120    0.98960    0.55360    1.000
    I93      I        0.11374    0.76370    0.58493    1.000
    C253     C        0.19410    0.92380    0.63500    1.000
    C254     C        0.17660    0.05510    0.59930    1.000
    H169     H        0.19080    0.86100    0.63690    1.000
    C255     C        0.22300    0.96360    0.66500    1.000
    C256     C        0.20500    0.10110    0.62870    1.000
    H170     H        0.16100    0.08710    0.57520    1.000
    H171     H        0.23880    0.92910    0.68800    1.000
    C257     C        0.22940    0.05540    0.66220    1.000
    H172     H        0.20760    0.16390    0.62580    1.000
    C258     C        0.26050    0.09920    0.69410    1.000
    N87      N        0.28047    0.04870    0.72720    1.000
    N88      N        0.26667    0.18740    0.68850    1.000
    C259     C        0.30980    0.09030    0.75420    1.000
    C260     C        0.29560    0.22180    0.71880    1.000
    C261     C        0.33340    0.03970    0.79180    1.000
    N89      N        0.31897    0.17660    0.75100    1.000
    C262     C        0.30260    0.32040    0.71840    1.000
    C263     C        0.32530    0.95090    0.80000    1.000
    C264     C        0.36380    0.07930    0.82020    1.000
    C265     C        0.33120    0.35740    0.75030    1.000
    C266     C        0.27960    0.37680    0.68900    1.000
    C267     C        0.34880    0.90790    0.83610    1.000
    H173     H        0.30420    0.92050    0.78140    1.000
    H174     H        0.36930    0.14080    0.81690    1.000
    C268     C        0.38600    0.03050    0.85310    1.000
    C269     C        0.33650    0.44830    0.75070    1.000
    H175     H        0.34720    0.32080    0.77200    1.000
    H176     H        0.25930    0.35410    0.66620    1.000
    C270     C        0.28650    0.46700    0.69300    1.000
    H177     H        0.34250    0.84820    0.84260    1.000
    N90      N        0.37889    0.94520    0.86139    1.000
    H178     H        0.40790    0.05850    0.87140    1.000
    H179     H        0.35730    0.47270    0.77230    1.000
    N91      N        0.31460    0.50330    0.72300    1.000
    H180     H        0.27000    0.50570    0.67290    1.000
    Zn37     Zn       0.41951    0.87391    0.90754    1.000
    Zn38     Zn       0.32860    0.63940    0.73010    1.000
    I94      I        0.47493    0.84595    0.86589    1.000
    I95      I        0.38659    0.75900    0.94550    1.000
    N92      N        0.43669    0.97630    0.95362    1.000
    N93      N        0.36060    0.65600    0.67970    1.000
    I96      I        0.26140    0.72540    0.69640    1.000
    I97      I        0.37336    0.66160    0.80643    1.000
    C271     C        0.39460    0.61690    0.68510    1.000
    C272     C        0.35010    0.71100    0.64450    1.000
    C273     C        0.41980    0.62940    0.65550    1.000
    H181     H        0.40240    0.57850    0.71020    1.000
    C274     C        0.37410    0.72880    0.61440    1.000
    H182     H        0.32530    0.73880    0.64010    1.000
    C275     C        0.40960    0.68840    0.61960    1.000
    H183     H        0.44380    0.59780    0.65970    1.000
    H184     H        0.36590    0.76910    0.59010    1.000
    C276     C        0.43510    0.70340    0.58790    1.000
    N94      N        0.42860    0.77710    0.56230    1.000
    N95      N        0.46380    0.64400    0.58610    1.000
    C277     C        0.45260    0.78680    0.53340    1.000
    C278     C        0.48490    0.66150    0.55530    1.000
    N96      N        0.48001    0.72980    0.52717    1.000
    C279     C        0.44740    0.87080    0.50550    1.000
    C280     C        0.51750    0.60020    0.55420    1.000
    C281     C        0.41970    0.93170    0.51090    1.000
    C282     C        0.47110    0.88910    0.47600    1.000
    C283     C        0.53510    0.55340    0.59100    1.000
    C284     C        0.53400    0.59200    0.51590    1.000
    C285     C        0.41500    0.00690    0.48380    1.000
    H185     H        0.40400    0.92270    0.53280    1.000
    H186     H        0.49160    0.84950    0.47290    1.000
    C286     C        0.46480    0.96630    0.45060    1.000
    C287     C        0.56620    0.50050    0.59040    1.000
    H187     H        0.52530    0.55800    0.61790    1.000
    C288     C        0.56500    0.53640    0.51700    1.000
    H188     H        0.52360    0.62480    0.48940    1.000
    H189     H        0.39530    0.04850    0.48690    1.000
    H190     H        0.48130    0.97880    0.43000    1.000
    H191     H        0.57780    0.46990    0.61720    1.000
    H192     H        0.57560    0.53070    0.49070    1.000
    Zn39     Zn       0.14080    0.91140    0.53910    1.000
    Zn40     Zn       0.82240    0.13920    0.72060    1.000
    I98      I        0.15740    0.94080    0.47540    1.000
    I99      I        0.10800    0.76000    0.59820    1.000
    I100     I        0.46960    0.84340    0.87180    1.000
    I101     I        0.37870    0.76490    0.94650    1.000
    I102     I        0.76800    0.23300    0.70622    1.000
    I103     I        0.76100    0.20880    0.68100    1.000
    I104     I        0.86420    0.17130    0.79870    1.000
