# CIF file generated by openbabel 3.1.0, see https://openbabel.org
data_I
_chemical_name_common 'OKIWEL02_charged'
_cell_length_a 15.8721
_cell_length_b 15.8721
_cell_length_c 21.636
_cell_angle_alpha 90
_cell_angle_beta 90
_cell_angle_gamma 90
_space_group_name_H-M_alt 'P 1'
_space_group_name_Hall 'P 1'
loop_
    _symmetry_equiv_pos_as_xyz
    x,y,z
loop_
    _atom_site_label
    _atom_site_type_symbol
    _atom_site_fract_x
    _atom_site_fract_y
    _atom_site_fract_z
    _atom_site_occupancy
    Cd1      Cd       0.55831    0.44169    0.25000    1.000
    Cd2      Cd       0.44169    0.55831    0.75000    1.000
    Cd3      Cd       0.05831    0.05831    0.50000    1.000
    Cd4      Cd       0.94169    0.94169    0.00000    1.000
    H1       H        0.03930    0.11040    0.34930    1.000
    H2       H        0.08660    0.21460    0.28330    1.000
    H3       H        0.28490    0.24480    0.39790    1.000
    H4       H        0.23030    0.13870    0.45910    1.000
    H5       H        0.15190    0.29890    0.21980    1.000
    H6       H        0.20430    0.41210    0.16440    1.000
    H7       H        0.30080    0.50590    0.20880    1.000
    H8       H        0.30160    0.36410    0.36400    1.000
    H9       H        0.54610    0.62060    0.46020    1.000
    H10      H        0.56440    0.73170    0.53070    1.000
    H11      H        0.46530    0.83770    0.53720    1.000
    H12      H        0.32670    0.72340    0.40450    1.000
    H13      H        0.34720    0.89780    0.56480    1.000
    H14      H        0.23390    0.98840    0.57580    1.000
    H15      H        0.16000    0.94270    0.40700    1.000
    H16      H        0.26780    0.84760    0.39180    1.000
    H17      H        0.24280    0.52790    0.39200    1.000
    H18      H        0.24200    0.60480    0.35310    1.000
    H19      H        0.96070    0.88960    0.84930    1.000
    H20      H        0.91340    0.78540    0.78330    1.000
    H21      H        0.71510    0.75520    0.89790    1.000
    H22      H        0.76970    0.86130    0.95910    1.000
    H23      H        0.84810    0.70110    0.71980    1.000
    H24      H        0.79570    0.58790    0.66440    1.000
    H25      H        0.69920    0.49410    0.70880    1.000
    H26      H        0.69840    0.63590    0.86400    1.000
    H27      H        0.45390    0.37940    0.96020    1.000
    H28      H        0.43560    0.26830    0.03070    1.000
    H29      H        0.53470    0.16230    0.03720    1.000
    H30      H        0.67330    0.27660    0.90450    1.000
    H31      H        0.65280    0.10220    0.06480    1.000
    H32      H        0.76610    0.01160    0.07580    1.000
    H33      H        0.84000    0.05730    0.90700    1.000
    H34      H        0.73220    0.15240    0.89180    1.000
    H35      H        0.75720    0.47210    0.89200    1.000
    H36      H        0.75800    0.39520    0.85310    1.000
    H37      H        0.38960    0.53930    0.59930    1.000
    H38      H        0.28540    0.58660    0.53330    1.000
    H39      H        0.25520    0.78490    0.64790    1.000
    H40      H        0.36130    0.73030    0.70910    1.000
    H41      H        0.20110    0.65190    0.46980    1.000
    H42      H        0.08790    0.70430    0.41440    1.000
    H43      H        0.99410    0.80080    0.45880    1.000
    H44      H        0.13590    0.80160    0.61400    1.000
    H45      H        0.87940    0.04610    0.71020    1.000
    H46      H        0.76830    0.06440    0.78070    1.000
    H47      H        0.66230    0.96530    0.78720    1.000
    H48      H        0.77660    0.82670    0.65450    1.000
    H49      H        0.60220    0.84720    0.81480    1.000
    H50      H        0.51160    0.73390    0.82580    1.000
    H51      H        0.55730    0.66000    0.65700    1.000
    H52      H        0.65240    0.76780    0.64180    1.000
    H53      H        0.97210    0.74280    0.64200    1.000
    H54      H        0.89520    0.74200    0.60310    1.000
    H55      H        0.61040    0.46070    0.09930    1.000
    H56      H        0.71460    0.41340    0.03330    1.000
    H57      H        0.74480    0.21510    0.14790    1.000
    H58      H        0.63870    0.26970    0.20910    1.000
    H59      H        0.79890    0.34810    0.96980    1.000
    H60      H        0.91210    0.29570    0.91440    1.000
    H61      H        0.00590    0.19920    0.95880    1.000
    H62      H        0.86410    0.19840    0.11400    1.000
    H63      H        0.12060    0.95390    0.21020    1.000
    H64      H        0.23170    0.93560    0.28070    1.000
    H65      H        0.33770    0.03470    0.28720    1.000
    H66      H        0.22340    0.17330    0.15450    1.000
    H67      H        0.39780    0.15280    0.31480    1.000
    H68      H        0.48840    0.26610    0.32580    1.000
    H69      H        0.44270    0.34000    0.15700    1.000
    H70      H        0.34760    0.23220    0.14180    1.000
    H71      H        0.02790    0.25720    0.14200    1.000
    H72      H        0.10480    0.25800    0.10310    1.000
    H73      H        0.46070    0.61040    0.90070    1.000
    H74      H        0.41340    0.71460    0.96670    1.000
    H75      H        0.21510    0.74480    0.85210    1.000
    H76      H        0.26970    0.63870    0.79090    1.000
    H77      H        0.34810    0.79890    0.03020    1.000
    H78      H        0.29570    0.91210    0.08560    1.000
    H79      H        0.19920    0.00590    0.04120    1.000
    H80      H        0.19840    0.86410    0.88600    1.000
    H81      H        0.95390    0.12060    0.78980    1.000
    H82      H        0.93560    0.23170    0.71930    1.000
    H83      H        0.03470    0.33770    0.71280    1.000
    H84      H        0.17330    0.22340    0.84550    1.000
    H85      H        0.15280    0.39780    0.68520    1.000
    H86      H        0.26610    0.48840    0.67420    1.000
    H87      H        0.34000    0.44270    0.84300    1.000
    H88      H        0.23220    0.34760    0.85820    1.000
    H89      H        0.25720    0.02790    0.85800    1.000
    H90      H        0.25800    0.10480    0.89690    1.000
    H91      H        0.53930    0.38960    0.40070    1.000
    H92      H        0.58660    0.28540    0.46670    1.000
    H93      H        0.78490    0.25520    0.35210    1.000
    H94      H        0.73030    0.36130    0.29090    1.000
    H95      H        0.65190    0.20110    0.53020    1.000
    H96      H        0.70430    0.08790    0.58560    1.000
    H97      H        0.80080    0.99410    0.54120    1.000
    H98      H        0.80160    0.13590    0.38600    1.000
    H99      H        0.04610    0.87940    0.28980    1.000
    H100     H        0.06440    0.76830    0.21930    1.000
    H101     H        0.96530    0.66230    0.21280    1.000
    H102     H        0.82670    0.77660    0.34550    1.000
    H103     H        0.84720    0.60220    0.18520    1.000
    H104     H        0.73390    0.51160    0.17420    1.000
    H105     H        0.66000    0.55730    0.34300    1.000
    H106     H        0.76780    0.65240    0.35820    1.000
    H107     H        0.74280    0.97210    0.35800    1.000
    H108     H        0.74200    0.89520    0.39690    1.000
    H109     H        0.11040    0.03930    0.65070    1.000
    H110     H        0.21460    0.08660    0.71670    1.000
    H111     H        0.24480    0.28490    0.60210    1.000
    H112     H        0.13870    0.23030    0.54090    1.000
    H113     H        0.29890    0.15190    0.78020    1.000
    H114     H        0.41210    0.20430    0.83560    1.000
    H115     H        0.50590    0.30080    0.79120    1.000
    H116     H        0.36410    0.30160    0.63600    1.000
    H117     H        0.62060    0.54610    0.53980    1.000
    H118     H        0.73170    0.56440    0.46930    1.000
    H119     H        0.83770    0.46530    0.46280    1.000
    H120     H        0.72340    0.32670    0.59550    1.000
    H121     H        0.89780    0.34720    0.43520    1.000
    H122     H        0.98840    0.23390    0.42420    1.000
    H123     H        0.94270    0.16000    0.59300    1.000
    H124     H        0.84760    0.26780    0.60820    1.000
    H125     H        0.52790    0.24280    0.60800    1.000
    H126     H        0.60480    0.24200    0.64690    1.000
    H127     H        0.88960    0.96070    0.15070    1.000
    H128     H        0.78540    0.91340    0.21670    1.000
    H129     H        0.75520    0.71510    0.10210    1.000
    H130     H        0.86130    0.76970    0.04090    1.000
    H131     H        0.70110    0.84810    0.28020    1.000
    H132     H        0.58790    0.79570    0.33560    1.000
    H133     H        0.49410    0.69920    0.29120    1.000
    H134     H        0.63590    0.69840    0.13600    1.000
    H135     H        0.37940    0.45390    0.03980    1.000
    H136     H        0.26830    0.43560    0.96930    1.000
    H137     H        0.16230    0.53470    0.96280    1.000
    H138     H        0.27660    0.67330    0.09550    1.000
    H139     H        0.10220    0.65280    0.93520    1.000
    H140     H        0.01160    0.76610    0.92420    1.000
    H141     H        0.05730    0.84000    0.09300    1.000
    H142     H        0.15240    0.73220    0.10820    1.000
    H143     H        0.47210    0.75720    0.10800    1.000
    H144     H        0.39520    0.75800    0.14690    1.000
    C1       C        0.08870    0.14060    0.36030    1.000
    C2       C        0.11670    0.20220    0.32020    1.000
    C3       C        0.19140    0.24660    0.33540    1.000
    C4       C        0.23250    0.21980    0.38700    1.000
    C5       C        0.19920    0.15690    0.42410    1.000
    C6       C        0.22060    0.31900    0.29780    1.000
    C7       C        0.19260    0.33490    0.23820    1.000
    C8       C        0.22340    0.40280    0.20540    1.000
    C9       C        0.28170    0.45790    0.23100    1.000
    C10      C        0.31130    0.44040    0.29010    1.000
    C11      C        0.28140    0.37380    0.32330    1.000
    C12      C        0.37390    0.49690    0.32000    1.000
    C13      C        0.42530    0.59150    0.38270    1.000
    C14      C        0.43330    0.66240    0.42710    1.000
    C15      C        0.50510    0.66390    0.46350    1.000
    C16      C        0.51590    0.73010    0.50490    1.000
    C17      C        0.45680    0.79290    0.50870    1.000
    C18      C        0.38480    0.79280    0.47190    1.000
    C19      C        0.37480    0.72520    0.43050    1.000
    C20      C        0.31930    0.85850    0.47750    1.000
    C21      C        0.30850    0.90440    0.53170    1.000
    C22      C        0.24140    0.96000    0.53760    1.000
    C23      C        0.19840    0.93290    0.43990    1.000
    C24      C        0.26260    0.87550    0.43050    1.000
    C25      C        0.91130    0.85940    0.86030    1.000
    C26      C        0.88330    0.79780    0.82020    1.000
    C27      C        0.80860    0.75340    0.83540    1.000
    C28      C        0.76750    0.78020    0.88700    1.000
    C29      C        0.80080    0.84310    0.92410    1.000
    C30      C        0.77940    0.68100    0.79780    1.000
    C31      C        0.80740    0.66510    0.73820    1.000
    C32      C        0.77660    0.59720    0.70540    1.000
    C33      C        0.71830    0.54210    0.73100    1.000
    C34      C        0.68870    0.55960    0.79010    1.000
    C35      C        0.71860    0.62620    0.82330    1.000
    C36      C        0.62610    0.50310    0.82000    1.000
    C37      C        0.57470    0.40850    0.88270    1.000
    C38      C        0.56670    0.33760    0.92710    1.000
    C39      C        0.49490    0.33610    0.96350    1.000
    C40      C        0.48410    0.26990    0.00490    1.000
    C41      C        0.54320    0.20710    0.00870    1.000
    C42      C        0.61520    0.20720    0.97190    1.000
    C43      C        0.62520    0.27480    0.93050    1.000
    C44      C        0.68070    0.14150    0.97750    1.000
    C45      C        0.69150    0.09560    0.03170    1.000
    C46      C        0.75860    0.04000    0.03760    1.000
    C47      C        0.80160    0.06710    0.93990    1.000
    C48      C        0.73740    0.12450    0.93050    1.000
    C49      C        0.35940    0.58870    0.61030    1.000
    C50      C        0.29780    0.61670    0.57020    1.000
    C51      C        0.25340    0.69140    0.58540    1.000
    C52      C        0.28020    0.73250    0.63700    1.000
    C53      C        0.34310    0.69920    0.67410    1.000
    C54      C        0.18100    0.72060    0.54780    1.000
    C55      C        0.16510    0.69260    0.48820    1.000
    C56      C        0.09720    0.72340    0.45540    1.000
    C57      C        0.04210    0.78170    0.48100    1.000
    C58      C        0.05960    0.81130    0.54010    1.000
    C59      C        0.12620    0.78140    0.57330    1.000
    C60      C        0.00310    0.87390    0.57000    1.000
    C61      C        0.90850    0.92530    0.63270    1.000
    C62      C        0.83760    0.93330    0.67710    1.000
    C63      C        0.83610    0.00510    0.71350    1.000
    C64      C        0.76990    0.01590    0.75490    1.000
    C65      C        0.70710    0.95680    0.75870    1.000
    C66      C        0.70720    0.88480    0.72190    1.000
    C67      C        0.77480    0.87480    0.68050    1.000
    C68      C        0.64150    0.81930    0.72750    1.000
    C69      C        0.59560    0.80850    0.78170    1.000
    C70      C        0.54000    0.74140    0.78760    1.000
    C71      C        0.56710    0.69840    0.68990    1.000
    C72      C        0.62450    0.76260    0.68050    1.000
    C73      C        0.64060    0.41130    0.11030    1.000
    C74      C        0.70220    0.38330    0.07020    1.000
    C75      C        0.74660    0.30860    0.08540    1.000
    C76      C        0.71980    0.26750    0.13700    1.000
    C77      C        0.65690    0.30080    0.17410    1.000
    C78      C        0.81900    0.27940    0.04780    1.000
    C79      C        0.83490    0.30740    0.98820    1.000
    C80      C        0.90280    0.27660    0.95540    1.000
    C81      C        0.95790    0.21830    0.98100    1.000
    C82      C        0.94040    0.18870    0.04010    1.000
    C83      C        0.87380    0.21860    0.07330    1.000
    C84      C        0.99690    0.12610    0.07000    1.000
    C85      C        0.09150    0.07470    0.13270    1.000
    C86      C        0.16240    0.06670    0.17710    1.000
    C87      C        0.16390    0.99490    0.21350    1.000
    C88      C        0.23010    0.98410    0.25490    1.000
    C89      C        0.29290    0.04320    0.25870    1.000
    C90      C        0.29280    0.11520    0.22190    1.000
    C91      C        0.22520    0.12520    0.18050    1.000
    C92      C        0.35850    0.18070    0.22750    1.000
    C93      C        0.40440    0.19150    0.28170    1.000
    C94      C        0.46000    0.25860    0.28760    1.000
    C95      C        0.43290    0.30160    0.18990    1.000
    C96      C        0.37550    0.23740    0.18050    1.000
    C97      C        0.41130    0.64060    0.88970    1.000
    C98      C        0.38330    0.70220    0.92980    1.000
    C99      C        0.30860    0.74660    0.91460    1.000
    C100     C        0.26750    0.71980    0.86300    1.000
    C101     C        0.30080    0.65690    0.82590    1.000
    C102     C        0.27940    0.81900    0.95220    1.000
    C103     C        0.30740    0.83490    0.01180    1.000
    C104     C        0.27660    0.90280    0.04460    1.000
    C105     C        0.21830    0.95790    0.01900    1.000
    C106     C        0.18870    0.94040    0.95990    1.000
    C107     C        0.21860    0.87380    0.92670    1.000
    C108     C        0.12610    0.99690    0.93000    1.000
    C109     C        0.07470    0.09150    0.86730    1.000
    C110     C        0.06670    0.16240    0.82290    1.000
    C111     C        0.99490    0.16390    0.78650    1.000
    C112     C        0.98410    0.23010    0.74510    1.000
    C113     C        0.04320    0.29290    0.74130    1.000
    C114     C        0.11520    0.29280    0.77810    1.000
    C115     C        0.12520    0.22520    0.81950    1.000
    C116     C        0.18070    0.35850    0.77250    1.000
    C117     C        0.19150    0.40440    0.71830    1.000
    C118     C        0.25860    0.46000    0.71240    1.000
    C119     C        0.30160    0.43290    0.81010    1.000
    C120     C        0.23740    0.37550    0.81950    1.000
    C121     C        0.58870    0.35940    0.38970    1.000
    C122     C        0.61670    0.29780    0.42980    1.000
    C123     C        0.69140    0.25340    0.41460    1.000
    C124     C        0.73250    0.28020    0.36300    1.000
    C125     C        0.69920    0.34310    0.32590    1.000
    C126     C        0.72060    0.18100    0.45220    1.000
    C127     C        0.69260    0.16510    0.51180    1.000
    C128     C        0.72340    0.09720    0.54460    1.000
    C129     C        0.78170    0.04210    0.51900    1.000
    C130     C        0.81130    0.05960    0.45990    1.000
    C131     C        0.78140    0.12620    0.42670    1.000
    C132     C        0.87390    0.00310    0.43000    1.000
    C133     C        0.92530    0.90850    0.36730    1.000
    C134     C        0.93330    0.83760    0.32290    1.000
    C135     C        0.00510    0.83610    0.28650    1.000
    C136     C        0.01590    0.76990    0.24510    1.000
    C137     C        0.95680    0.70710    0.24130    1.000
    C138     C        0.88480    0.70720    0.27810    1.000
    C139     C        0.87480    0.77480    0.31950    1.000
    C140     C        0.81930    0.64150    0.27250    1.000
    C141     C        0.80850    0.59560    0.21830    1.000
    C142     C        0.74140    0.54000    0.21240    1.000
    C143     C        0.69840    0.56710    0.31010    1.000
    C144     C        0.76260    0.62450    0.31950    1.000
    C145     C        0.14060    0.08870    0.63970    1.000
    C146     C        0.20220    0.11670    0.67980    1.000
    C147     C        0.24660    0.19140    0.66460    1.000
    C148     C        0.21980    0.23250    0.61300    1.000
    C149     C        0.15690    0.19920    0.57590    1.000
    C150     C        0.31900    0.22060    0.70220    1.000
    C151     C        0.33490    0.19260    0.76180    1.000
    C152     C        0.40280    0.22340    0.79460    1.000
    C153     C        0.45790    0.28170    0.76900    1.000
    C154     C        0.44040    0.31130    0.70990    1.000
    C155     C        0.37380    0.28140    0.67670    1.000
    C156     C        0.49690    0.37390    0.68000    1.000
    C157     C        0.59150    0.42530    0.61730    1.000
    C158     C        0.66240    0.43330    0.57290    1.000
    C159     C        0.66390    0.50510    0.53650    1.000
    C160     C        0.73010    0.51590    0.49510    1.000
    C161     C        0.79290    0.45680    0.49130    1.000
    C162     C        0.79280    0.38480    0.52810    1.000
    C163     C        0.72520    0.37480    0.56950    1.000
    C164     C        0.85850    0.31930    0.52250    1.000
    C165     C        0.90440    0.30850    0.46830    1.000
    C166     C        0.96000    0.24140    0.46240    1.000
    C167     C        0.93290    0.19840    0.56010    1.000
    C168     C        0.87550    0.26260    0.56950    1.000
    C169     C        0.85940    0.91130    0.13970    1.000
    C170     C        0.79780    0.88330    0.17980    1.000
    C171     C        0.75340    0.80860    0.16460    1.000
    C172     C        0.78020    0.76750    0.11300    1.000
    C173     C        0.84310    0.80080    0.07590    1.000
    C174     C        0.68100    0.77940    0.20220    1.000
    C175     C        0.66510    0.80740    0.26180    1.000
    C176     C        0.59720    0.77660    0.29460    1.000
    C177     C        0.54210    0.71830    0.26900    1.000
    C178     C        0.55960    0.68870    0.20990    1.000
    C179     C        0.62620    0.71860    0.17670    1.000
    C180     C        0.50310    0.62610    0.18000    1.000
    C181     C        0.40850    0.57470    0.11730    1.000
    C182     C        0.33760    0.56670    0.07290    1.000
    C183     C        0.33610    0.49490    0.03650    1.000
    C184     C        0.26990    0.48410    0.99510    1.000
    C185     C        0.20710    0.54320    0.99130    1.000
    C186     C        0.20720    0.61520    0.02810    1.000
    C187     C        0.27480    0.62520    0.06950    1.000
    C188     C        0.14150    0.68070    0.02250    1.000
    C189     C        0.09560    0.69150    0.96830    1.000
    C190     C        0.04000    0.75860    0.96240    1.000
    C191     C        0.06710    0.80160    0.06010    1.000
    C192     C        0.12450    0.73740    0.06950    1.000
    N1       N        0.12530    0.12110    0.41230    1.000
    N2       N        0.45560    0.49390    0.31630    1.000
    N3       N        0.48900    0.55470    0.35570    1.000
    N4       N        0.35190    0.55760    0.36150    1.000
    N5       N        0.27040    0.57660    0.38300    1.000
    N6       N        0.18710    0.97520    0.49200    1.000
    N7       N        0.87470    0.87890    0.91230    1.000
    N8       N        0.54440    0.50610    0.81630    1.000
    N9       N        0.51100    0.44530    0.85570    1.000
    N10      N        0.64810    0.44240    0.86150    1.000
    N11      N        0.72960    0.42340    0.88300    1.000
    N12      N        0.81290    0.02480    0.99200    1.000
    N13      N        0.37890    0.62530    0.66230    1.000
    N14      N        0.00610    0.95560    0.56630    1.000
    N15      N        0.94530    0.98900    0.60570    1.000
    N16      N        0.94240    0.85190    0.61150    1.000
    N17      N        0.92340    0.77040    0.63300    1.000
    N18      N        0.52480    0.68710    0.74200    1.000
    N19      N        0.62110    0.37470    0.16230    1.000
    N20      N        0.99390    0.04440    0.06630    1.000
    N21      N        0.05470    0.01100    0.10570    1.000
    N22      N        0.05760    0.14810    0.11150    1.000
    N23      N        0.07660    0.22960    0.13300    1.000
    N24      N        0.47520    0.31290    0.24200    1.000
    N25      N        0.37470    0.62110    0.83770    1.000
    N26      N        0.04440    0.99390    0.93370    1.000
    N27      N        0.01100    0.05470    0.89430    1.000
    N28      N        0.14810    0.05760    0.88850    1.000
    N29      N        0.22960    0.07660    0.86700    1.000
    N30      N        0.31290    0.47520    0.75800    1.000
    N31      N        0.62530    0.37890    0.33770    1.000
    N32      N        0.95560    0.00610    0.43370    1.000
    N33      N        0.98900    0.94530    0.39430    1.000
    N34      N        0.85190    0.94240    0.38850    1.000
    N35      N        0.77040    0.92340    0.36700    1.000
    N36      N        0.68710    0.52480    0.25800    1.000
    N37      N        0.12110    0.12530    0.58770    1.000
    N38      N        0.49390    0.45560    0.68370    1.000
    N39      N        0.55470    0.48900    0.64430    1.000
    N40      N        0.55760    0.35190    0.63850    1.000
    N41      N        0.57660    0.27040    0.61700    1.000
    N42      N        0.97520    0.18710    0.50800    1.000
    N43      N        0.87890    0.87470    0.08770    1.000
    N44      N        0.50610    0.54440    0.18370    1.000
    N45      N        0.44530    0.51100    0.14430    1.000
    N46      N        0.44240    0.64810    0.13850    1.000
    N47      N        0.42340    0.72960    0.11700    1.000
    N48      N        0.02480    0.81290    0.00800    1.000
    Cl1      Cl       0.23077    0.23077    0.00000    1.000
    O1       O        0.26130    0.26810    0.05280    1.000
    O2       O        0.28630    0.15590    0.00800    1.000
    O3       O        0.26810    0.26130    0.94720    1.000
    O4       O        0.15590    0.28630    0.99200    1.000
    Cl2      Cl       0.62008    0.62008    0.00000    1.000
    O5       O        0.65470    0.55280    0.96920    1.000
    O6       O        0.67290    0.59530    0.05070    1.000
    O7       O        0.55280    0.65470    0.03080    1.000
    O8       O        0.59530    0.67290    0.94930    1.000
    Cl3      Cl       0.76923    0.76923    0.50000    1.000
    O9       O        0.73870    0.73190    0.55280    1.000
    O10      O        0.71370    0.84410    0.50800    1.000
    O11      O        0.73190    0.73870    0.44720    1.000
    O12      O        0.84410    0.71370    0.49200    1.000
    Cl4      Cl       0.37992    0.37992    0.50000    1.000
    O13      O        0.34530    0.44720    0.46920    1.000
    O14      O        0.32710    0.40470    0.55070    1.000
    O15      O        0.44720    0.34530    0.53080    1.000
    O16      O        0.40470    0.32710    0.44930    1.000
    Cl5      Cl       0.26923    0.73077    0.25000    1.000
    O17      O        0.23190    0.76130    0.30280    1.000
    O18      O        0.34410    0.78630    0.25800    1.000
    O19      O        0.23870    0.76810    0.19720    1.000
    O20      O        0.21370    0.65590    0.24200    1.000
    Cl6      Cl       0.87992    0.12008    0.25000    1.000
    O21      O        0.94720    0.15470    0.21920    1.000
    O22      O        0.90470    0.17290    0.30070    1.000
    O23      O        0.84530    0.05280    0.28080    1.000
    O24      O        0.82710    0.09530    0.19930    1.000
    Cl7      Cl       0.73077    0.26923    0.75000    1.000
    O25      O        0.76810    0.23870    0.80280    1.000
    O26      O        0.65590    0.21370    0.75800    1.000
    O27      O        0.76130    0.23190    0.69720    1.000
    O28      O        0.78630    0.34410    0.74200    1.000
    Cl8      Cl       0.12008    0.87992    0.75000    1.000
    O29      O        0.05280    0.84530    0.71920    1.000
    O30      O        0.09530    0.82710    0.80070    1.000
    O31      O        0.15470    0.94720    0.78080    1.000
    O32      O        0.17290    0.90470    0.69930    1.000
