data_functionalizedCrystal
_audit_creation_method	'EQeq! by Chris Wilmer'
_symmetry_space_group_name_H-M	'P1'
_symmetry_Int_Tables_number	1
_symmetry_cell_setting	triclinic
loop_
_symmetry_equiv_pos_as_xyz
  x,y,z
_cell_length_a	16.7033
_cell_length_b	20.0195
_cell_length_c	17.4602
_cell_angle_alpha	90
_cell_angle_beta	100.423
_cell_angle_gamma	90
loop_
_atom_site_label
_atom_site_type_symbol
_atom_site_fract_x
_atom_site_fract_y
_atom_site_fract_z
_atom_site_charge
Mof_Co	Co	0.95911	0.1658	0.24332	1.207
Mof_Co	Co	0.85349	0.12517	0.05558	1.131
Mof_Co	Co	0.08528	0.14594	0.43907	1.146
Mof_S 	S 	0.05238	0.77511	0.26585	0.276
Mof_S 	S 	0.60313	0.01649	0.46048	0.272
Mof_S 	S 	0.44446	0.06989	0.1656	0.272
Mof_O 	O 	0.4784	0.2651	0.6626	-0.422
Mof_O 	O 	0.939	0.1007	0.3308	-0.451
Mof_O 	O 	0.0804	0.1369	0.249	-0.435
Mof_O 	O 	0.6635	0.6935	0.2669	-0.417
Mof_O 	O 	0.5082	0.7403	0.1722	-0.434
Mof_O 	O 	0.9265	0.08666	0.1644	-0.505
Mof_O 	O 	0.7184	0.6845	0.3934	-0.474
Mof_O 	O 	0.4381	0.3059	0.5421	-0.453
Mof_O 	O 	0.9329	0.0438	0.0515	-0.419
Mof_O 	O 	0.9845	0.1086	0.4579	-0.485
Mof_O 	O 	0.1469	0.1069	0.3669	-0.497
Mof_O 	O 	0.4117	0.7436	0.0657	-0.467
Mof_O 	O 	0.0719	0.732	0.2062	-0.215
Mof_O 	O 	0.1069	0.7799	0.3385	-0.21
Mof_O 	O 	0.5519	0.0012	0.3877	-0.217
Mof_O 	O 	0.6144	0.9674	0.5213	-0.218
Mof_O 	O 	0.5134	0.0869	0.2235	-0.208
Mof_O 	O 	0.4342	0.1014	0.0909	-0.21
Mof_C 	C 	0.9498	0.0401	0.1234	0.357
Mof_C 	C 	0.9885	0.9791	0.1614	-0.114
Mof_C 	C 	0.0052	0.9267	0.1158	0.02
Mof_H 	H 	0.0011	0.9332	0.0625	0.047
Mof_C 	C 	0.0279	0.8649	0.1471	-0.088
Mof_H 	H 	0.0373	0.8296	0.1154	0.07
Mof_C 	C 	0.0362	0.8567	0.2256	0.006
Mof_C 	C 	0.0245	0.909	0.2744	-0.082
Mof_H 	H 	0.0317	0.9028	0.328	0.067
Mof_C 	C 	0.0017	0.9711	0.2414	0.026
Mof_H 	H 	0.9953	0.0072	0.2733	0.034
Mof_C 	C 	0.9553	0.7525	0.2829	0.013
Mof_C 	C 	0.8926	0.7427	0.2207	-0.076
Mof_H 	H 	0.9021	0.747	0.1701	0.069
Mof_C 	C 	0.8163	0.7266	0.2333	0.028
Mof_H 	H 	0.7737	0.721	0.1915	0.039
Mof_C 	C 	0.8033	0.7189	0.309	-0.111
Mof_C 	C 	0.8677	0.7276	0.3712	0.022
Mof_H 	H 	0.8594	0.7204	0.4219	0.032
Mof_C 	C 	0.9433	0.7468	0.3584	-0.08
Mof_H 	H 	0.9853	0.7556	0.3999	0.074
Mof_C 	C 	0.7204	0.6973	0.323	0.391
Mof_C 	C 	0.93	0.0964	0.3997	0.405
Mof_C 	C 	0.8498	0.0737	0.4146	-0.137
Mof_C 	C 	0.7823	0.0794	0.3553	0.05
Mof_H 	H 	0.7882	0.0948	0.3063	0.029
Mof_C 	C 	0.7062	0.0618	0.3699	-0.105
Mof_H 	H 	0.66	0.0663	0.3316	0.091
Mof_C 	C 	0.7006	0.0377	0.4425	0.021
Mof_C 	C 	0.767	0.0304	0.501	-0.109
Mof_H 	H 	0.761	0.0134	0.5492	0.078
Mof_C 	C 	0.8425	0.0488	0.4873	0.047
Mof_H 	H 	0.8882	0.0446	0.5263	0.019
Mof_C 	C 	0.5687	0.0907	0.4971	0.021
Mof_C 	C 	0.5244	0.1369	0.4468	-0.084
Mof_H 	H 	0.5152	0.13	0.3933	0.089
Mof_C 	C 	0.4944	0.1925	0.477	0.044
Mof_H 	H 	0.4642	0.2233	0.4438	0.037
Mof_C 	C 	0.5085	0.2036	0.5565	-0.116
Mof_C 	C 	0.5544	0.1581	0.6058	0.043
Mof_H 	H 	0.5654	0.166	0.6592	0.034
Mof_C 	C 	0.584	0.101	0.576	-0.078
Mof_H 	H 	0.6138	0.0699	0.6092	0.075
Mof_C 	C 	0.4724	0.2631	0.5897	0.392
Mof_C 	C 	0.1409	0.117	0.2956	0.414
Mof_C 	C 	0.2164	0.1039	0.2624	-0.124
Mof_C 	C 	0.2872	0.0819	0.3111	0.042
Mof_H 	H 	0.2871	0.0743	0.3636	0.041
Mof_C 	C 	0.3575	0.0715	0.2815	-0.086
Mof_H 	H 	0.4048	0.0566	0.3135	0.088
Mof_C 	C 	0.3559	0.0836	0.2032	0.019
Mof_C 	C 	0.2876	0.1076	0.1553	-0.087
Mof_H 	H 	0.2887	0.1175	0.1034	0.08
Mof_C 	C 	0.2174	0.117	0.1849	0.044
Mof_H 	H 	0.1705	0.1322	0.1526	0.035
Mof_C 	C 	0.4463	0.9822	0.1528	0.015
Mof_C 	C 	0.4862	0.9427	0.2123	-0.095
Mof_H 	H 	0.5105	0.9619	0.2593	0.093
Mof_C 	C 	0.4899	0.8746	0.2015	0.037
Mof_H 	H 	0.5185	0.8481	0.2409	0.041
Mof_C 	C 	0.451	0.8449	0.132	-0.118
Mof_C 	C 	0.4079	0.8865	0.074	0.039
Mof_H 	H 	0.3801	0.8674	0.0282	0.018
Mof_C 	C 	0.4059	0.9531	0.083	-0.095
Mof_H 	H 	0.3779	0.9799	0.0435	0.065
Mof_C 	C 	0.4576	0.771	0.1234	0.384
Mof_Co	Co	0.54089	0.6658	0.25668	1.206
Mof_Co	Co	0.64651	0.62517	0.44442	1.13
Mof_Co	Co	0.41472	0.64594	0.06093	1.145
Mof_S 	S 	0.44762	0.27511	0.23415	0.275
Mof_S 	S 	0.89687	0.51649	0.03952	0.271
Mof_S 	S 	0.05554	0.56989	0.3344	0.272
Mof_O 	O 	0.0216	0.7651	0.8374	-0.423
Mof_O 	O 	0.561	0.6007	0.1692	-0.452
Mof_O 	O 	0.4196	0.6369	0.251	-0.435
Mof_O 	O 	0.8365	0.1935	0.2331	-0.417
Mof_O 	O 	0.9918	0.2403	0.3278	-0.434
Mof_O 	O 	0.5735	0.58666	0.3356	-0.505
Mof_O 	O 	0.7816	0.1845	0.1066	-0.474
Mof_O 	O 	0.0619	0.8059	0.9579	-0.454
Mof_O 	O 	0.5671	0.5438	0.4485	-0.419
Mof_O 	O 	0.5155	0.6086	0.0421	-0.485
Mof_O 	O 	0.3531	0.6069	0.1331	-0.497
Mof_O 	O 	0.0883	0.2436	0.4343	-0.468
Mof_O 	O 	0.4281	0.232	0.2938	-0.215
Mof_O 	O 	0.3931	0.2799	0.1615	-0.21
Mof_O 	O 	0.9481	0.5012	0.1123	-0.217
Mof_O 	O 	0.8856	0.4674	0.9787	-0.217
Mof_O 	O 	0.9866	0.5869	0.2765	-0.209
Mof_O 	O 	0.0658	0.6014	0.4091	-0.21
Mof_C 	C 	0.5502	0.5401	0.3766	0.355
Mof_C 	C 	0.5115	0.4791	0.3386	-0.109
Mof_C 	C 	0.4948	0.4267	0.3842	0.016
Mof_H 	H 	0.4989	0.4332	0.4375	0.048
Mof_C 	C 	0.4721	0.3649	0.3529	-0.085
Mof_H 	H 	0.4627	0.3296	0.3846	0.069
Mof_C 	C 	0.4638	0.3567	0.2744	0.004
Mof_C 	C 	0.4755	0.409	0.2256	-0.079
Mof_H 	H 	0.4683	0.4028	0.172	0.065
Mof_C 	C 	0.4983	0.4711	0.2586	0.022
Mof_H 	H 	0.5047	0.5072	0.2267	0.036
Mof_C 	C 	0.5447	0.2525	0.2171	0.014
Mof_C 	C 	0.6074	0.2427	0.2793	-0.077
Mof_H 	H 	0.5979	0.247	0.3299	0.069
Mof_C 	C 	0.6837	0.2266	0.2667	0.029
Mof_H 	H 	0.7263	0.221	0.3085	0.039
Mof_C 	C 	0.6967	0.2189	0.191	-0.111
Mof_C 	C 	0.6323	0.2276	0.1288	0.023
Mof_H 	H 	0.6406	0.2204	0.0781	0.032
Mof_C 	C 	0.5567	0.2468	0.1416	-0.08
Mof_H 	H 	0.5147	0.2556	0.1001	0.075
Mof_C 	C 	0.7796	0.1973	0.177	0.391
Mof_C 	C 	0.57	0.5964	0.1003	0.405
Mof_C 	C 	0.6502	0.5737	0.0854	-0.136
Mof_C 	C 	0.7177	0.5794	0.1447	0.049
Mof_H 	H 	0.7118	0.5948	0.1937	0.029
Mof_C 	C 	0.7938	0.5618	0.1301	-0.104
Mof_H 	H 	0.84	0.5663	0.1684	0.091
Mof_C 	C 	0.7994	0.5377	0.0575	0.02
Mof_C 	C 	0.733	0.5304	0.999	-0.107
Mof_H 	H 	0.739	0.5134	0.9508	0.077
Mof_C 	C 	0.6575	0.5488	0.0127	0.045
Mof_H 	H 	0.6118	0.5446	0.9737	0.019
Mof_C 	C 	0.9313	0.5907	0.0029	0.021
Mof_C 	C 	0.9756	0.6369	0.0532	-0.086
Mof_H 	H 	0.9848	0.63	0.1067	0.089
Mof_C 	C 	0.0056	0.6925	0.023	0.046
Mof_H 	H 	0.0358	0.7233	0.0562	0.037
Mof_C 	C 	0.9915	0.7036	0.9435	-0.117
Mof_C 	C 	0.9456	0.6581	0.8942	0.043
Mof_H 	H 	0.9346	0.666	0.8408	0.034
Mof_C 	C 	0.916	0.601	0.924	-0.078
Mof_H 	H 	0.8862	0.5699	0.8908	0.075
Mof_C 	C 	0.0276	0.7631	0.9103	0.392
Mof_C 	C 	0.3591	0.617	0.2044	0.414
Mof_C 	C 	0.2836	0.6039	0.2376	-0.124
Mof_C 	C 	0.2128	0.5819	0.1889	0.042
Mof_H 	H 	0.2129	0.5743	0.1364	0.041
Mof_C 	C 	0.1425	0.5715	0.2185	-0.085
Mof_H 	H 	0.0952	0.5566	0.1865	0.088
Mof_C 	C 	0.1441	0.5836	0.2968	0.019
Mof_C 	C 	0.2124	0.6076	0.3447	-0.087
Mof_H 	H 	0.2113	0.6175	0.3966	0.079
Mof_C 	C 	0.2826	0.617	0.3151	0.044
Mof_H 	H 	0.3295	0.6322	0.3474	0.035
Mof_C 	C 	0.0537	0.4822	0.3472	0.014
Mof_C 	C 	0.0138	0.4427	0.2877	-0.095
Mof_H 	H 	0.9895	0.4619	0.2407	0.093
Mof_C 	C 	0.0101	0.3746	0.2985	0.037
Mof_H 	H 	0.9815	0.3481	0.2591	0.041
Mof_C 	C 	0.049	0.3449	0.368	-0.118
Mof_C 	C 	0.0921	0.3865	0.426	0.039
Mof_H 	H 	0.1199	0.3674	0.4718	0.018
Mof_C 	C 	0.0941	0.4531	0.417	-0.095
Mof_H 	H 	0.1221	0.4799	0.4565	0.065
Mof_C 	C 	0.0424	0.271	0.3766	0.384
Mof_Co	Co	0.04089	0.8342	0.75668	1.206
Mof_Co	Co	0.14651	0.87483	0.94442	1.13
Mof_Co	Co	0.91472	0.85406	0.56093	1.145
Mof_S 	S 	0.94762	0.22489	0.73415	0.275
Mof_S 	S 	0.39687	0.98351	0.53952	0.271
Mof_S 	S 	0.55554	0.93011	0.8344	0.271
Mof_O 	O 	0.5216	0.7349	0.3374	-0.423
Mof_O 	O 	0.061	0.8993	0.6692	-0.452
Mof_O 	O 	0.9196	0.8631	0.751	-0.435
Mof_O 	O 	0.3365	0.3065	0.7331	-0.417
Mof_O 	O 	0.4918	0.2597	0.8278	-0.434
Mof_O 	O 	0.0735	0.91334	0.8356	-0.505
Mof_O 	O 	0.2816	0.3155	0.6066	-0.474
Mof_O 	O 	0.5619	0.6941	0.4579	-0.453
Mof_O 	O 	0.0671	0.9562	0.9485	-0.419
Mof_O 	O 	0.0155	0.8914	0.5421	-0.485
Mof_O 	O 	0.8531	0.8931	0.6331	-0.497
Mof_O 	O 	0.5883	0.2564	0.9343	-0.467
Mof_O 	O 	0.9281	0.268	0.7938	-0.215
Mof_O 	O 	0.8931	0.2201	0.6615	-0.21
Mof_O 	O 	0.4481	0.9988	0.6123	-0.217
Mof_O 	O 	0.3856	0.0326	0.4787	-0.218
Mof_O 	O 	0.4866	0.9131	0.7765	-0.208
Mof_O 	O 	0.5658	0.8986	0.9091	-0.21
Mof_C 	C 	0.0502	0.9599	0.8766	0.357
Mof_C 	C 	0.0115	0.0209	0.8386	-0.114
Mof_C 	C 	0.9948	0.0733	0.8842	0.02
Mof_H 	H 	0.9989	0.0668	0.9375	0.047
Mof_C 	C 	0.9721	0.1351	0.8529	-0.088
Mof_H 	H 	0.9627	0.1704	0.8846	0.07
Mof_C 	C 	0.9638	0.1433	0.7744	0.006
Mof_C 	C 	0.9755	0.091	0.7256	-0.082
Mof_H 	H 	0.9683	0.0972	0.672	0.067
Mof_C 	C 	0.9983	0.0289	0.7586	0.026
Mof_H 	H 	0.0047	0.9928	0.7267	0.034
Mof_C 	C 	0.0447	0.2475	0.7171	0.013
Mof_C 	C 	0.1074	0.2573	0.7793	-0.076
Mof_H 	H 	0.0979	0.253	0.8299	0.069
Mof_C 	C 	0.1837	0.2734	0.7667	0.028
Mof_H 	H 	0.2263	0.279	0.8085	0.039
Mof_C 	C 	0.1967	0.2811	0.691	-0.111
Mof_C 	C 	0.1323	0.2724	0.6288	0.022
Mof_H 	H 	0.1406	0.2796	0.5781	0.032
Mof_C 	C 	0.0567	0.2532	0.6416	-0.08
Mof_H 	H 	0.0147	0.2444	0.6001	0.074
Mof_C 	C 	0.2796	0.3027	0.677	0.391
Mof_C 	C 	0.07	0.9036	0.6003	0.405
Mof_C 	C 	0.1502	0.9263	0.5854	-0.137
Mof_C 	C 	0.2177	0.9206	0.6447	0.05
Mof_H 	H 	0.2118	0.9052	0.6937	0.029
Mof_C 	C 	0.2938	0.9382	0.6301	-0.105
Mof_H 	H 	0.34	0.9337	0.6684	0.091
Mof_C 	C 	0.2994	0.9623	0.5575	0.021
Mof_C 	C 	0.233	0.9696	0.499	-0.109
Mof_H 	H 	0.239	0.9866	0.4508	0.078
Mof_C 	C 	0.1575	0.9512	0.5127	0.047
Mof_H 	H 	0.1118	0.9554	0.4737	0.019
Mof_C 	C 	0.4313	0.9093	0.5029	0.021
Mof_C 	C 	0.4756	0.8631	0.5532	-0.084
Mof_H 	H 	0.4848	0.87	0.6067	0.089
Mof_C 	C 	0.5056	0.8075	0.523	0.044
Mof_H 	H 	0.5358	0.7767	0.5562	0.037
Mof_C 	C 	0.4915	0.7964	0.4435	-0.116
Mof_C 	C 	0.4456	0.8419	0.3942	0.043
Mof_H 	H 	0.4346	0.834	0.3408	0.034
Mof_C 	C 	0.416	0.899	0.424	-0.078
Mof_H 	H 	0.3862	0.9301	0.3908	0.075
Mof_C 	C 	0.5276	0.7369	0.4103	0.392
Mof_C 	C 	0.8591	0.883	0.7044	0.414
Mof_C 	C 	0.7836	0.8961	0.7376	-0.124
Mof_C 	C 	0.7128	0.9181	0.6889	0.042
Mof_H 	H 	0.7129	0.9257	0.6364	0.041
Mof_C 	C 	0.6425	0.9285	0.7185	-0.086
Mof_H 	H 	0.5952	0.9434	0.6865	0.088
Mof_C 	C 	0.6441	0.9164	0.7968	0.019
Mof_C 	C 	0.7124	0.8924	0.8447	-0.087
Mof_H 	H 	0.7113	0.8825	0.8966	0.08
Mof_C 	C 	0.7826	0.883	0.8151	0.044
Mof_H 	H 	0.8295	0.8678	0.8474	0.035
Mof_C 	C 	0.5537	0.0178	0.8472	0.015
Mof_C 	C 	0.5138	0.0573	0.7877	-0.095
Mof_H 	H 	0.4895	0.0381	0.7407	0.093
Mof_C 	C 	0.5101	0.1254	0.7985	0.037
Mof_H 	H 	0.4815	0.1519	0.7591	0.041
Mof_C 	C 	0.549	0.1551	0.868	-0.118
Mof_C 	C 	0.5921	0.1135	0.926	0.039
Mof_H 	H 	0.6199	0.1326	0.9718	0.018
Mof_C 	C 	0.5941	0.0469	0.917	-0.095
Mof_H 	H 	0.6221	0.0201	0.9565	0.065
Mof_C 	C 	0.5424	0.229	0.8766	0.384
Mof_Co	Co	0.45911	0.3342	0.74332	1.206
Mof_Co	Co	0.35349	0.37483	0.55558	1.13
Mof_Co	Co	0.58528	0.35406	0.93907	1.145
Mof_S 	S 	0.55238	0.72489	0.76585	0.275
Mof_S 	S 	0.10313	0.48351	0.96048	0.271
Mof_S 	S 	0.94446	0.43011	0.6656	0.272
Mof_O 	O 	0.9784	0.2349	0.1626	-0.423
Mof_O 	O 	0.439	0.3993	0.8308	-0.452
Mof_O 	O 	0.5804	0.3631	0.749	-0.435
Mof_O 	O 	0.1635	0.8065	0.7669	-0.417
Mof_O 	O 	0.0082	0.7597	0.6722	-0.434
Mof_O 	O 	0.4265	0.41334	0.6644	-0.505
Mof_O 	O 	0.2184	0.8155	0.8934	-0.474
Mof_O 	O 	0.9381	0.1941	0.0421	-0.454
Mof_O 	O 	0.4329	0.4562	0.5515	-0.419
Mof_O 	O 	0.4845	0.3914	0.9579	-0.485
Mof_O 	O 	0.6469	0.3931	0.8669	-0.497
Mof_O 	O 	0.9117	0.7564	0.5657	-0.468
Mof_O 	O 	0.5719	0.768	0.7062	-0.215
Mof_O 	O 	0.6069	0.7201	0.8385	-0.21
Mof_O 	O 	0.0519	0.4988	0.8877	-0.217
Mof_O 	O 	0.1144	0.5326	0.0213	-0.217
Mof_O 	O 	0.0134	0.4131	0.7235	-0.209
Mof_O 	O 	0.9342	0.3986	0.5909	-0.21
Mof_C 	C 	0.4498	0.4599	0.6234	0.355
Mof_C 	C 	0.4885	0.5209	0.6614	-0.109
Mof_C 	C 	0.5052	0.5733	0.6158	0.016
Mof_H 	H 	0.5011	0.5668	0.5625	0.048
Mof_C 	C 	0.5279	0.6351	0.6471	-0.085
Mof_H 	H 	0.5373	0.6704	0.6154	0.069
Mof_C 	C 	0.5362	0.6433	0.7256	0.004
Mof_C 	C 	0.5245	0.591	0.7744	-0.079
Mof_H 	H 	0.5317	0.5972	0.828	0.065
Mof_C 	C 	0.5017	0.5289	0.7414	0.022
Mof_H 	H 	0.4953	0.4928	0.7733	0.036
Mof_C 	C 	0.4553	0.7475	0.7829	0.014
Mof_C 	C 	0.3926	0.7573	0.7207	-0.077
Mof_H 	H 	0.4021	0.753	0.6701	0.069
Mof_C 	C 	0.3163	0.7734	0.7333	0.029
Mof_H 	H 	0.2737	0.779	0.6915	0.039
Mof_C 	C 	0.3033	0.7811	0.809	-0.111
Mof_C 	C 	0.3677	0.7724	0.8712	0.023
Mof_H 	H 	0.3594	0.7796	0.9219	0.032
Mof_C 	C 	0.4433	0.7532	0.8584	-0.08
Mof_H 	H 	0.4853	0.7444	0.8999	0.075
Mof_C 	C 	0.2204	0.8027	0.823	0.391
Mof_C 	C 	0.43	0.4036	0.8997	0.405
Mof_C 	C 	0.3498	0.4263	0.9146	-0.136
Mof_C 	C 	0.2823	0.4206	0.8553	0.049
Mof_H 	H 	0.2882	0.4052	0.8063	0.029
Mof_C 	C 	0.2062	0.4382	0.8699	-0.104
Mof_H 	H 	0.16	0.4337	0.8316	0.091
Mof_C 	C 	0.2006	0.4623	0.9425	0.02
Mof_C 	C 	0.267	0.4696	0.001	-0.107
Mof_H 	H 	0.261	0.4866	0.0492	0.077
Mof_C 	C 	0.3425	0.4512	0.9873	0.045
Mof_H 	H 	0.3882	0.4554	0.0263	0.019
Mof_C 	C 	0.0687	0.4093	0.9971	0.021
Mof_C 	C 	0.0244	0.3631	0.9468	-0.086
Mof_H 	H 	0.0152	0.37	0.8933	0.089
Mof_C 	C 	0.9944	0.3075	0.977	0.046
Mof_H 	H 	0.9642	0.2767	0.9438	0.037
Mof_C 	C 	0.0085	0.2964	0.0565	-0.117
Mof_C 	C 	0.0544	0.3419	0.1058	0.043
Mof_H 	H 	0.0654	0.334	0.1592	0.034
Mof_C 	C 	0.084	0.399	0.076	-0.078
Mof_H 	H 	0.1138	0.4301	0.1092	0.075
Mof_C 	C 	0.9724	0.2369	0.0897	0.392
Mof_C 	C 	0.6409	0.383	0.7956	0.414
Mof_C 	C 	0.7164	0.3961	0.7624	-0.124
Mof_C 	C 	0.7872	0.4181	0.8111	0.042
Mof_H 	H 	0.7871	0.4257	0.8636	0.041
Mof_C 	C 	0.8575	0.4285	0.7815	-0.085
Mof_H 	H 	0.9048	0.4434	0.8135	0.088
Mof_C 	C 	0.8559	0.4164	0.7032	0.019
Mof_C 	C 	0.7876	0.3924	0.6553	-0.087
Mof_H 	H 	0.7887	0.3825	0.6034	0.079
Mof_C 	C 	0.7174	0.383	0.6849	0.044
Mof_H 	H 	0.6705	0.3678	0.6526	0.035
Mof_C 	C 	0.9463	0.5178	0.6528	0.014
Mof_C 	C 	0.9862	0.5573	0.7123	-0.095
Mof_H 	H 	0.0105	0.5381	0.7593	0.093
Mof_C 	C 	0.9899	0.6254	0.7015	0.037
Mof_H 	H 	0.0185	0.6519	0.7409	0.041
Mof_C 	C 	0.951	0.6551	0.632	-0.118
Mof_C 	C 	0.9079	0.6135	0.574	0.039
Mof_H 	H 	0.8801	0.6326	0.5282	0.018
Mof_C 	C 	0.9059	0.5469	0.583	-0.095
Mof_H 	H 	0.8779	0.5201	0.5435	0.065
Mof_C 	C 	0.9576	0.729	0.6234	0.384
_end
