data_functionalizedCrystal
_audit_creation_method	'EQeq! by Chris Wilmer'
_symmetry_space_group_name_H-M	'P1'
_symmetry_Int_Tables_number	1
_symmetry_cell_setting	triclinic
loop_
_symmetry_equiv_pos_as_xyz
  x,y,z
_cell_length_a	10.6636
_cell_length_b	13.3253
_cell_length_c	20.0859
_cell_angle_alpha	90
_cell_angle_beta	90
_cell_angle_gamma	90
loop_
_atom_site_label
_atom_site_type_symbol
_atom_site_fract_x
_atom_site_fract_y
_atom_site_fract_z
_atom_site_charge
Mof_O 	O 	0.6576	0.3917	0.184	-0.168
Mof_O 	O 	0.7668	0.3053	0.1064	-0.164
Mof_O 	O 	0.8629	0.1266	0.3158	-0.17
Mof_O 	O 	0.768	0.2208	0.3939	-0.167
Mof_C 	C 	0.7974	0.1992	0.3351	0.306
Mof_C 	C 	0.7313	0.3233	0.1652	0.296
Mof_C 	C 	0.785	0.2585	0.2197	-0.083
Mof_H 	H 	0.849	0.2137	0.2094	0.108
Mof_C 	C 	0.7442	0.2633	0.281	-0.097
Mof_H 	H 	0.6802	0.3081	0.2913	0.114
Mof_O 	O 	0.354	0.491	0.0562	0.007
Mof_O 	O 	0.5095	0.3854	0.054	0.007
Mof_C 	C 	0.011	0.356	0.0235	0.243
Mof_O 	O 	0.2977	0.4878	0.0708	-0.025
Mof_O 	O 	0.5136	0.3406	0.077	-0.033
Mof_O 	O 	0.3424	0.6083	0.184	-0.167
Mof_O 	O 	0.2332	0.6947	0.1064	-0.165
Mof_O 	O 	0.1371	0.8734	0.3158	-0.17
Mof_O 	O 	0.232	0.7792	0.3939	-0.167
Mof_C 	C 	0.2026	0.8008	0.3351	0.306
Mof_C 	C 	0.2687	0.6767	0.1652	0.296
Mof_C 	C 	0.215	0.7415	0.2197	-0.083
Mof_H 	H 	0.151	0.7863	0.2094	0.108
Mof_C 	C 	0.2558	0.7367	0.281	-0.097
Mof_H 	H 	0.3198	0.6919	0.2913	0.114
Mof_O 	O 	0.646	0.509	0.0562	0.007
Mof_O 	O 	0.4905	0.6146	0.054	0.007
Mof_C 	C 	0.989	0.644	0.0235	0.248
Mof_O 	O 	0.7023	0.5122	0.0708	-0.024
Mof_O 	O 	0.4864	0.6594	0.077	-0.032
Mof_O 	O 	0.8424	0.8917	0.316	-0.165
Mof_O 	O 	0.7332	0.8053	0.3936	-0.163
Mof_O 	O 	0.6371	0.6266	0.1842	-0.171
Mof_O 	O 	0.732	0.7208	0.1061	-0.167
Mof_C 	C 	0.7026	0.6992	0.1649	0.307
Mof_C 	C 	0.7687	0.8233	0.3348	0.295
Mof_C 	C 	0.715	0.7585	0.2803	-0.081
Mof_H 	H 	0.651	0.7137	0.2906	0.108
Mof_C 	C 	0.7558	0.7633	0.219	-0.097
Mof_H 	H 	0.8198	0.8081	0.2087	0.114
Mof_O 	O 	0.146	0.991	0.4438	0
Mof_O 	O 	0.9905	0.8854	0.446	0.005
Mof_C 	C 	0.489	0.856	0.4765	0.211
Mof_O 	O 	0.2023	0.9878	0.4292	-0.017
Mof_O 	O 	0.9864	0.8406	0.423	-0.03
Mof_O 	O 	0.1576	0.1083	0.316	-0.168
Mof_O 	O 	0.2668	0.1947	0.3936	-0.164
Mof_O 	O 	0.3629	0.3734	0.1842	-0.171
Mof_O 	O 	0.268	0.2792	0.1061	-0.168
Mof_C 	C 	0.2974	0.3008	0.1649	0.306
Mof_C 	C 	0.2313	0.1767	0.3348	0.296
Mof_C 	C 	0.285	0.2415	0.2803	-0.083
Mof_H 	H 	0.349	0.2863	0.2906	0.108
Mof_C 	C 	0.2442	0.2367	0.219	-0.097
Mof_H 	H 	0.1802	0.1919	0.2087	0.113
Mof_O 	O 	0.854	0.009	0.4438	0.001
Mof_O 	O 	0.0095	0.1146	0.446	0.001
Mof_C 	C 	0.511	0.144	0.4765	0.21
Mof_O 	O 	0.7977	0.0122	0.4292	-0.021
Mof_O 	O 	0.0136	0.1594	0.423	-0.03
Mof_O 	O 	0.3424	0.6083	0.816	-0.167
Mof_O 	O 	0.2332	0.6947	0.8936	-0.17
Mof_O 	O 	0.1371	0.8734	0.6842	-0.171
Mof_O 	O 	0.232	0.7792	0.6061	-0.167
Mof_C 	C 	0.2026	0.8008	0.6649	0.306
Mof_C 	C 	0.2687	0.6767	0.8348	0.297
Mof_C 	C 	0.215	0.7415	0.7803	-0.083
Mof_H 	H 	0.151	0.7863	0.7906	0.108
Mof_C 	C 	0.2558	0.7367	0.719	-0.097
Mof_H 	H 	0.3198	0.6919	0.7087	0.113
Mof_O 	O 	0.646	0.509	0.9438	-0.01
Mof_O 	O 	0.4905	0.6146	0.946	-0.005
Mof_C 	C 	0.989	0.644	0.9765	0.149
Mof_O 	O 	0.7023	0.5122	0.9292	-0.018
Mof_O 	O 	0.4864	0.6594	0.923	-0.032
Mof_O 	O 	0.6576	0.3917	0.816	-0.167
Mof_O 	O 	0.7668	0.3053	0.8936	-0.169
Mof_O 	O 	0.8629	0.1266	0.6842	-0.171
Mof_O 	O 	0.768	0.2208	0.6061	-0.167
Mof_C 	C 	0.7974	0.1992	0.6649	0.306
Mof_C 	C 	0.7313	0.3233	0.8348	0.297
Mof_C 	C 	0.785	0.2585	0.7803	-0.083
Mof_H 	H 	0.849	0.2137	0.7906	0.108
Mof_C 	C 	0.7442	0.2633	0.719	-0.097
Mof_H 	H 	0.6802	0.3081	0.7087	0.113
Mof_O 	O 	0.354	0.491	0.9438	-0.009
Mof_O 	O 	0.5095	0.3854	0.946	-0.005
Mof_C 	C 	0.011	0.356	0.9765	0.144
Mof_O 	O 	0.2977	0.4878	0.9292	-0.019
Mof_O 	O 	0.5136	0.3406	0.923	-0.032
Mof_O 	O 	0.1576	0.1083	0.684	-0.169
Mof_O 	O 	0.2668	0.1947	0.6064	-0.164
Mof_O 	O 	0.3629	0.3734	0.8158	-0.172
Mof_O 	O 	0.268	0.2792	0.8939	-0.174
Mof_C 	C 	0.2974	0.3008	0.8351	0.307
Mof_C 	C 	0.2313	0.1767	0.6652	0.296
Mof_C 	C 	0.285	0.2415	0.7197	-0.083
Mof_H 	H 	0.349	0.2863	0.7094	0.108
Mof_C 	C 	0.2442	0.2367	0.781	-0.098
Mof_H 	H 	0.1802	0.1919	0.7913	0.112
Mof_O 	O 	0.854	0.009	0.5562	0.001
Mof_O 	O 	0.0095	0.1146	0.554	0.001
Mof_C 	C 	0.511	0.144	0.5235	0.21
Mof_O 	O 	0.7977	0.0122	0.5708	-0.021
Mof_O 	O 	0.0136	0.1594	0.577	-0.03
Mof_O 	O 	0.8424	0.8917	0.684	-0.165
Mof_O 	O 	0.7332	0.8053	0.6064	-0.163
Mof_O 	O 	0.6371	0.6266	0.8158	-0.172
Mof_O 	O 	0.732	0.7208	0.8939	-0.173
Mof_C 	C 	0.7026	0.6992	0.8351	0.308
Mof_C 	C 	0.7687	0.8233	0.6652	0.295
Mof_C 	C 	0.715	0.7585	0.7197	-0.081
Mof_H 	H 	0.651	0.7137	0.7094	0.108
Mof_C 	C 	0.7558	0.7633	0.781	-0.099
Mof_H 	H 	0.8198	0.8081	0.7913	0.114
Mof_O 	O 	0.146	0.991	0.5562	0
Mof_O 	O 	0.9905	0.8854	0.554	0.005
Mof_C 	C 	0.489	0.856	0.5235	0.21
Mof_O 	O 	0.2023	0.9878	0.5708	-0.018
Mof_O 	O 	0.9864	0.8406	0.577	-0.03
Mof_U 	U 	0.5	0.5	0.13779	0.042
Mof_U 	U 	2.55805e-33	0	0.36221	0.039
Mof_U 	U 	0.5	0.5	0.86221	0.043
Mof_U 	U 	-4.34031e-33	0	0.63779	0.039
Mof_U 	U 	0.33732	0.34711	-0	0.055
Mof_U 	U 	0.68772	0.36737	-0	0.054
Mof_O 	O 	0.6327	0.1925	-0	-0.163
Mof_O 	O 	0.425	0.1784	-0	-0.167
Mof_C 	C 	0.5486	0.031	-0	-0.098
Mof_H 	H 	0.6292	0.0043	-0	0.118
Mof_C 	C 	0.5328	0.143	-0	0.31
Mof_O 	O 	0.9119	0.3846	-0	-0.181
Mof_O 	O 	0.1136	0.3589	-0	-0.19
Mof_U 	U 	0.66268	0.65289	-0	0.055
Mof_U 	U 	0.31228	0.63263	-0	0.054
Mof_O 	O 	0.3673	0.8075	-0	-0.161
Mof_O 	O 	0.575	0.8216	-0	-0.165
Mof_C 	C 	0.4514	0.969	-0	-0.083
Mof_H 	H 	0.3708	0.9957	-0	0.115
Mof_C 	C 	0.4672	0.857	-0	0.306
Mof_O 	O 	0.0881	0.6154	-0	-0.187
Mof_O 	O 	0.8864	0.6411	-0	-0.192
Mof_U 	U 	0.16268	0.84711	0.5	0.048
Mof_U 	U 	0.81228	0.86737	0.5	0.048
Mof_O 	O 	0.8673	0.6925	0.5	-0.167
Mof_O 	O 	0.075	0.6784	0.5	-0.172
Mof_C 	C 	0.9514	0.531	0.5	-0.088
Mof_H 	H 	0.8708	0.5043	0.5	0.114
Mof_C 	C 	0.9672	0.643	0.5	0.309
Mof_O 	O 	0.5881	0.8846	0.5	-0.201
Mof_O 	O 	0.3864	0.8589	0.5	-0.209
Mof_U 	U 	0.83732	0.15289	0.5	0.049
Mof_U 	U 	0.18772	0.13263	0.5	0.046
Mof_O 	O 	0.1327	0.3075	0.5	-0.167
Mof_O 	O 	0.925	0.3216	0.5	-0.168
Mof_C 	C 	0.0486	0.469	0.5	-0.095
Mof_H 	H 	0.1292	0.4957	0.5	0.115
Mof_C 	C 	0.0328	0.357	0.5	0.305
Mof_O 	O 	0.4119	0.1154	0.5	-0.203
Mof_O 	O 	0.6136	0.1411	0.5	-0.209
_end
