data_functionalizedCrystal
_audit_creation_method	'EQeq! by Chris Wilmer'
_symmetry_space_group_name_H-M	'P1'
_symmetry_Int_Tables_number	1
_symmetry_cell_setting	triclinic
loop_
_symmetry_equiv_pos_as_xyz
  x,y,z
_cell_length_a	15.2764
_cell_length_b	15.4318
_cell_length_c	15.4318
_cell_angle_alpha	120
_cell_angle_beta	90
_cell_angle_gamma	90
loop_
_atom_site_label
_atom_site_type_symbol
_atom_site_fract_x
_atom_site_fract_y
_atom_site_fract_z
_atom_site_charge
Mof_Nd	Nd	0.75	0.33333	0.66666	2.476
Mof_Nd	Nd	0.75	0.66667	0.33334	2.476
Mof_Nd	Nd	0.25	0.66667	0.33334	2.445
Mof_Nd	Nd	0.25	0.33333	0.66666	2.445
Mof_Co	Co	-0	0.5	0.5	1.095
Mof_Co	Co	-0	0	0.5	1.059
Mof_Co	Co	-0	0.5	-0	1.059
Mof_Co	Co	0.5	0	0.5	1.124
Mof_Co	Co	0.5	0.5	0.5	1.161
Mof_Co	Co	0.5	0.5	-0	1.124
Mof_H 	H 	0.8444	0.7129	0.7659	0.074
Mof_H 	H 	0.8444	0.053	0.2871	0.043
Mof_H 	H 	0.8444	0.2341	0.947	0.081
Mof_H 	H 	0.8444	0.2871	0.2341	0.058
Mof_H 	H 	0.8444	0.947	0.7129	0.089
Mof_H 	H 	0.8444	0.7659	0.053	0.05
Mof_H 	H 	0.6556	0.947	0.2341	0.062
Mof_H 	H 	0.6556	0.7659	0.7129	0.054
Mof_H 	H 	0.6556	0.2871	0.053	0.022
Mof_H 	H 	0.6556	0.053	0.7659	0.03
Mof_H 	H 	0.6556	0.2341	0.2871	0.037
Mof_H 	H 	0.6556	0.7129	0.947	0.069
Mof_H 	H 	0.1556	0.2871	0.2341	0.016
Mof_H 	H 	0.1556	0.947	0.7129	0.048
Mof_H 	H 	0.1556	0.7659	0.053	0.009
Mof_H 	H 	0.1556	0.7129	0.7659	0.032
Mof_H 	H 	0.1556	0.053	0.2871	0
Mof_H 	H 	0.1556	0.2341	0.947	0.041
Mof_H 	H 	0.3444	0.053	0.7659	0.027
Mof_H 	H 	0.3444	0.2341	0.2871	0.034
Mof_H 	H 	0.3444	0.7129	0.947	0.067
Mof_H 	H 	0.3444	0.947	0.2341	0.059
Mof_H 	H 	0.3444	0.7659	0.7129	0.051
Mof_H 	H 	0.3444	0.2871	0.053	0.019
Mof_H 	H 	0.75	0.8	0.9	0.07
Mof_H 	H 	0.75	0.1	0.2	0.02
Mof_H 	H 	0.75	0.1	0.9	0.045
Mof_H 	H 	0.75	0.2	0.1	0.02
Mof_H 	H 	0.75	0.9	0.8	0.071
Mof_H 	H 	0.75	0.9	0.1	0.045
Mof_H 	H 	0.25	0.2	0.1	0.013
Mof_H 	H 	0.25	0.9	0.8	0.065
Mof_H 	H 	0.25	0.9	0.1	0.039
Mof_H 	H 	0.25	0.8	0.9	0.065
Mof_H 	H 	0.25	0.1	0.2	0.013
Mof_H 	H 	0.25	0.1	0.9	0.039
Mof_C 	C 	0.8612	0.5115	0.6465	0.369
Mof_C 	C 	0.8034	0.5754	0.735	-0.021
Mof_C 	C 	0.806	0.679	0.7854	-0.017
Mof_C 	C 	0.8612	0.135	0.4885	0.369
Mof_C 	C 	0.8034	0.1596	0.4246	-0.039
Mof_C 	C 	0.806	0.1064	0.321	-0.029
Mof_C 	C 	0.8612	0.3535	0.865	0.364
Mof_C 	C 	0.8034	0.265	0.8404	-0.019
Mof_C 	C 	0.806	0.2146	0.8936	-0.023
Mof_C 	C 	0.8612	0.4885	0.3535	0.367
Mof_C 	C 	0.8034	0.4246	0.265	-0.032
Mof_C 	C 	0.806	0.321	0.2146	-0.028
Mof_C 	C 	0.8612	0.865	0.5115	0.365
Mof_C 	C 	0.8034	0.8404	0.5754	-0.014
Mof_C 	C 	0.806	0.8936	0.679	-0.017
Mof_C 	C 	0.8612	0.6465	0.135	0.37
Mof_C 	C 	0.8034	0.735	0.1596	-0.034
Mof_C 	C 	0.806	0.7854	0.1064	-0.024
Mof_C 	C 	0.6388	0.865	0.3535	0.369
Mof_C 	C 	0.6966	0.8404	0.265	-0.033
Mof_C 	C 	0.694	0.8936	0.2146	-0.022
Mof_C 	C 	0.6388	0.6465	0.5115	0.375
Mof_C 	C 	0.6966	0.735	0.5754	-0.036
Mof_C 	C 	0.694	0.7854	0.679	-0.016
Mof_C 	C 	0.6388	0.4885	0.135	0.374
Mof_C 	C 	0.6966	0.4246	0.1596	-0.053
Mof_C 	C 	0.694	0.321	0.1064	-0.027
Mof_C 	C 	0.6388	0.135	0.6465	0.376
Mof_C 	C 	0.6966	0.1596	0.735	-0.048
Mof_C 	C 	0.694	0.1064	0.7854	-0.022
Mof_C 	C 	0.6388	0.3535	0.4885	0.373
Mof_C 	C 	0.6966	0.265	0.4246	-0.047
Mof_C 	C 	0.694	0.2146	0.321	-0.027
Mof_C 	C 	0.6388	0.5115	0.865	0.37
Mof_C 	C 	0.6966	0.5754	0.8404	-0.028
Mof_C 	C 	0.694	0.679	0.8936	-0.016
Mof_C 	C 	0.1388	0.4885	0.3535	0.373
Mof_C 	C 	0.1966	0.4246	0.265	-0.065
Mof_C 	C 	0.194	0.321	0.2146	-0.019
Mof_C 	C 	0.1388	0.865	0.5115	0.37
Mof_C 	C 	0.1966	0.8404	0.5754	-0.046
Mof_C 	C 	0.194	0.8936	0.679	-0.008
Mof_C 	C 	0.1388	0.6465	0.135	0.376
Mof_C 	C 	0.1966	0.735	0.1596	-0.066
Mof_C 	C 	0.194	0.7854	0.1064	-0.014
Mof_C 	C 	0.1388	0.5115	0.6465	0.375
Mof_C 	C 	0.1966	0.5754	0.735	-0.054
Mof_C 	C 	0.194	0.679	0.7854	-0.008
Mof_C 	C 	0.1388	0.135	0.4885	0.375
Mof_C 	C 	0.1966	0.1596	0.4246	-0.072
Mof_C 	C 	0.194	0.1064	0.321	-0.02
Mof_C 	C 	0.1388	0.3535	0.865	0.369
Mof_C 	C 	0.1966	0.265	0.8404	-0.051
Mof_C 	C 	0.194	0.2146	0.8936	-0.014
Mof_C 	C 	0.3612	0.135	0.6465	0.376
Mof_C 	C 	0.3034	0.1596	0.735	-0.055
Mof_C 	C 	0.306	0.1064	0.7854	-0.015
Mof_C 	C 	0.3612	0.3535	0.4885	0.374
Mof_C 	C 	0.3034	0.265	0.4246	-0.054
Mof_C 	C 	0.306	0.2146	0.321	-0.019
Mof_C 	C 	0.3612	0.5115	0.865	0.371
Mof_C 	C 	0.3034	0.5754	0.8404	-0.035
Mof_C 	C 	0.306	0.679	0.8936	-0.008
Mof_C 	C 	0.3612	0.865	0.3535	0.37
Mof_C 	C 	0.3034	0.8404	0.265	-0.04
Mof_C 	C 	0.306	0.8936	0.2146	-0.014
Mof_C 	C 	0.3612	0.6465	0.5115	0.376
Mof_C 	C 	0.3034	0.735	0.5754	-0.043
Mof_C 	C 	0.306	0.7854	0.679	-0.008
Mof_C 	C 	0.3612	0.4885	0.135	0.375
Mof_C 	C 	0.3034	0.4246	0.1596	-0.061
Mof_C 	C 	0.306	0.321	0.1064	-0.02
Mof_C 	C 	0.75	0.7304	0.8652	-0.031
Mof_C 	C 	0.75	0.1348	0.2696	-0.051
Mof_C 	C 	0.75	0.1348	0.8652	-0.041
Mof_C 	C 	0.75	0.2696	0.1348	-0.051
Mof_C 	C 	0.75	0.8652	0.7304	-0.031
Mof_C 	C 	0.75	0.8652	0.1348	-0.04
Mof_C 	C 	0.25	0.2696	0.1348	-0.073
Mof_C 	C 	0.25	0.8652	0.7304	-0.052
Mof_C 	C 	0.25	0.8652	0.1348	-0.062
Mof_C 	C 	0.25	0.7304	0.8652	-0.052
Mof_C 	C 	0.25	0.1348	0.2696	-0.073
Mof_C 	C 	0.25	0.1348	0.8652	-0.062
Mof_N 	N 	0.75	0.5249	0.76245	-0.22
Mof_N 	N 	0.75	0.23755	0.4751	-0.221
Mof_N 	N 	0.75	0.23755	0.76245	-0.22
Mof_N 	N 	0.75	0.4751	0.23755	-0.221
Mof_N 	N 	0.75	0.76245	0.5249	-0.22
Mof_N 	N 	0.75	0.76245	0.23755	-0.221
Mof_N 	N 	0.25	0.4751	0.23755	-0.216
Mof_N 	N 	0.25	0.76245	0.5249	-0.216
Mof_N 	N 	0.25	0.76245	0.23755	-0.216
Mof_N 	N 	0.25	0.5249	0.76245	-0.216
Mof_N 	N 	0.25	0.23755	0.4751	-0.216
Mof_N 	N 	0.25	0.23755	0.76245	-0.216
Mof_O 	O 	0.8585	0.4174	0.6134	-0.479
Mof_O 	O 	0.906	0.5546	0.6126	-0.365
Mof_O 	O 	0.8585	0.196	0.5826	-0.489
Mof_O 	O 	0.906	0.058	0.4454	-0.395
Mof_O 	O 	0.8585	0.3866	0.804	-0.468
Mof_O 	O 	0.906	0.3874	0.942	-0.331
Mof_O 	O 	0.8585	0.5826	0.3866	-0.481
Mof_O 	O 	0.906	0.4454	0.3874	-0.37
Mof_O 	O 	0.8585	0.804	0.4174	-0.468
Mof_O 	O 	0.906	0.942	0.5546	-0.328
Mof_O 	O 	0.8585	0.6134	0.196	-0.488
Mof_O 	O 	0.906	0.6126	0.058	-0.392
Mof_O 	O 	0.6415	0.804	0.3866	-0.5
Mof_O 	O 	0.594	0.942	0.3874	-0.392
Mof_O 	O 	0.6415	0.6134	0.4174	-0.511
Mof_O 	O 	0.594	0.6126	0.5546	-0.428
Mof_O 	O 	0.6415	0.5826	0.196	-0.521
Mof_O 	O 	0.594	0.4454	0.058	-0.458
Mof_O 	O 	0.6415	0.196	0.6134	-0.52
Mof_O 	O 	0.594	0.058	0.6126	-0.455
Mof_O 	O 	0.6415	0.3866	0.5826	-0.513
Mof_O 	O 	0.594	0.3874	0.4454	-0.434
Mof_O 	O 	0.6415	0.4174	0.804	-0.499
Mof_O 	O 	0.594	0.5546	0.942	-0.389
Mof_O 	O 	0.1415	0.5826	0.3866	-0.534
Mof_O 	O 	0.094	0.4454	0.3874	-0.471
Mof_O 	O 	0.1415	0.804	0.4174	-0.52
Mof_O 	O 	0.094	0.942	0.5546	-0.425
Mof_O 	O 	0.1415	0.6134	0.196	-0.541
Mof_O 	O 	0.094	0.6126	0.058	-0.492
Mof_O 	O 	0.1415	0.4174	0.6134	-0.532
Mof_O 	O 	0.094	0.5546	0.6126	-0.465
Mof_O 	O 	0.1415	0.196	0.5826	-0.542
Mof_O 	O 	0.094	0.058	0.4454	-0.495
Mof_O 	O 	0.1415	0.3866	0.804	-0.521
Mof_O 	O 	0.094	0.3874	0.942	-0.428
Mof_O 	O 	0.3585	0.196	0.6134	-0.517
Mof_O 	O 	0.406	0.058	0.6126	-0.456
Mof_O 	O 	0.3585	0.3866	0.5826	-0.51
Mof_O 	O 	0.406	0.3874	0.4454	-0.434
Mof_O 	O 	0.3585	0.4174	0.804	-0.496
Mof_O 	O 	0.406	0.5546	0.942	-0.389
Mof_O 	O 	0.3585	0.804	0.3866	-0.497
Mof_O 	O 	0.406	0.942	0.3874	-0.392
Mof_O 	O 	0.3585	0.6134	0.4174	-0.508
Mof_O 	O 	0.406	0.6126	0.5546	-0.428
Mof_O 	O 	0.3585	0.5826	0.196	-0.518
Mof_O 	O 	0.406	0.4454	0.058	-0.458
_end
