data_functionalizedCrystal
_audit_creation_method	'EQeq! by Chris Wilmer'
_symmetry_space_group_name_H-M	'P1'
_symmetry_Int_Tables_number	1
_symmetry_cell_setting	triclinic
loop_
_symmetry_equiv_pos_as_xyz
  x,y,z
_cell_length_a	13.289
_cell_length_b	13.711
_cell_length_c	16.467
_cell_angle_alpha	90
_cell_angle_beta	90
_cell_angle_gamma	117.02
loop_
_atom_site_label
_atom_site_type_symbol
_atom_site_fract_x
_atom_site_fract_y
_atom_site_fract_z
_atom_site_charge
Mof_Zn	Zn	0.09252	0.11422	0.50296	1.214
Mof_Zn	Zn	0.90748	0.38578	0.00296	1.213
Mof_Zn	Zn	0.90748	0.88578	0.49704	1.215
Mof_Zn	Zn	0.09252	0.61422	0.99704	1.214
Mof_H 	H 	0.3355	0.1859	0.5203	0.002
Mof_H 	H 	0.5067	0.3402	0.5193	0.076
Mof_H 	H 	0.3418	0.5189	0.4788	0.08
Mof_H 	H 	0.1754	0.359	0.4791	-0.001
Mof_H 	H 	0.925	0.2655	0.3469	0.082
Mof_H 	H 	0.8375	0.3074	0.2394	0.011
Mof_H 	H 	0.7057	0.1691	0.1599	0.121
Mof_H 	H 	0.7453	0.9445	0.2956	0.11
Mof_H 	H 	0.5094	0.88	0.2903	0.087
Mof_H 	H 	0.4249	0.6977	0.3319	0.07
Mof_H 	H 	0.5663	0.6211	0.1423	0.076
Mof_H 	H 	0.6515	0.8035	0.1009	0.077
Mof_H 	H 	0.3332	0.3461	0.3211	0.122
Mof_H 	H 	0.1485	0.2202	0.2929	0.014
Mof_H 	H 	0.0418	0.2638	0.2017	0.086
Mof_H 	H 	0.3023	0.5648	0.172	0.109
Mof_H 	H 	0.6645	0.3141	0.0203	0.002
Mof_H 	H 	0.4933	0.1598	0.0193	0.077
Mof_H 	H 	0.6582	0.9811	0.9788	0.078
Mof_H 	H 	0.8246	0.141	0.9791	0
Mof_H 	H 	0.075	0.2345	0.8469	0.081
Mof_H 	H 	0.1625	0.1926	0.7394	0.011
Mof_H 	H 	0.2943	0.3309	0.6599	0.121
Mof_H 	H 	0.2547	0.5555	0.7956	0.109
Mof_H 	H 	0.4906	0.62	0.7903	0.087
Mof_H 	H 	0.5751	0.8023	0.8319	0.07
Mof_H 	H 	0.4337	0.8789	0.6423	0.076
Mof_H 	H 	0.3485	0.6965	0.6009	0.077
Mof_H 	H 	0.6668	0.1539	0.8211	0.122
Mof_H 	H 	0.8515	0.2798	0.7929	0.015
Mof_H 	H 	0.9582	0.2362	0.7017	0.085
Mof_H 	H 	0.6977	0.9352	0.672	0.107
Mof_H 	H 	0.6645	0.8141	0.4797	0.002
Mof_H 	H 	0.4933	0.6598	0.4807	0.076
Mof_H 	H 	0.6582	0.4811	0.5212	0.08
Mof_H 	H 	0.8246	0.641	0.5209	-0.001
Mof_H 	H 	0.075	0.7345	0.6531	0.082
Mof_H 	H 	0.1625	0.6926	0.7606	0.011
Mof_H 	H 	0.2943	0.8309	0.8401	0.121
Mof_H 	H 	0.2547	0.0555	0.7044	0.11
Mof_H 	H 	0.4906	0.12	0.7097	0.087
Mof_H 	H 	0.5751	0.3023	0.6681	0.07
Mof_H 	H 	0.4337	0.3789	0.8577	0.076
Mof_H 	H 	0.3485	0.1965	0.8991	0.077
Mof_H 	H 	0.6668	0.6539	0.6789	0.122
Mof_H 	H 	0.8515	0.7798	0.7071	0.014
Mof_H 	H 	0.9582	0.7362	0.7983	0.086
Mof_H 	H 	0.6977	0.4352	0.828	0.109
Mof_H 	H 	0.3355	0.6859	0.9797	0.002
Mof_H 	H 	0.5067	0.8402	0.9807	0.077
Mof_H 	H 	0.3418	0.0189	0.0212	0.078
Mof_H 	H 	0.1754	0.859	0.0209	0
Mof_H 	H 	0.925	0.7655	0.1531	0.081
Mof_H 	H 	0.8375	0.8074	0.2606	0.011
Mof_H 	H 	0.7057	0.6691	0.3401	0.121
Mof_H 	H 	0.7453	0.4445	0.2044	0.109
Mof_H 	H 	0.5094	0.38	0.2097	0.087
Mof_H 	H 	0.4249	0.1977	0.1681	0.07
Mof_H 	H 	0.5663	0.1211	0.3577	0.076
Mof_H 	H 	0.6515	0.3035	0.3991	0.077
Mof_H 	H 	0.3332	0.8461	0.1789	0.122
Mof_H 	H 	0.1485	0.7202	0.2071	0.015
Mof_H 	H 	0.0418	0.7638	0.2983	0.085
Mof_H 	H 	0.3023	0.0648	0.328	0.107
Mof_C 	C 	0.33711	0.25368	0.51184	0.066
Mof_C 	C 	0.44061	0.34652	0.51153	-0.121
Mof_C 	C 	0.44564	0.44912	0.49961	0.066
Mof_C 	C 	0.34293	0.45234	0.48728	-0.121
Mof_C 	C 	0.24283	0.35546	0.48789	0.08
Mof_C 	C 	0.90274	0.07115	0.39774	0.345
Mof_C 	C 	0.84412	0.10093	0.33153	0.007
Mof_C 	C 	0.87195	0.20985	0.31512	-0.105
Mof_C 	C 	0.81942	0.23475	0.25048	0.073
Mof_C 	C 	0.74062	0.15214	0.2027	-0.203
Mof_C 	C 	0.7142	0.0435	0.21936	0.233
Mof_C 	C 	0.76452	0.01721	0.28406	-0.177
Mof_C 	C 	0.58927	0.85822	0.19275	0.173
Mof_C 	C 	0.52117	0.82799	0.2612	-0.115
Mof_C 	C 	0.4707	0.71938	0.28598	-0.092
Mof_C 	C 	0.48981	0.64375	0.24105	0.158
Mof_C 	C 	0.55587	0.67348	0.172	-0.096
Mof_C 	C 	0.60661	0.78217	0.14723	-0.106
Mof_C 	C 	0.33519	0.46737	0.24923	0.228
Mof_C 	C 	0.28978	0.36407	0.28555	-0.205
Mof_C 	C 	0.17966	0.28864	0.26817	0.072
Mof_C 	C 	0.11538	0.31502	0.21371	-0.102
Mof_C 	C 	0.16128	0.41814	0.17727	0.007
Mof_C 	C 	0.2717	0.49558	0.19542	-0.172
Mof_C 	C 	0.094	0.44591	0.11665	0.345
Mof_C 	C 	0.66289	0.24632	0.01184	0.067
Mof_C 	C 	0.55939	0.15348	0.01153	-0.125
Mof_C 	C 	0.55436	0.05088	0.99961	0.068
Mof_C 	C 	0.65707	0.04766	0.98728	-0.118
Mof_C 	C 	0.75717	0.14454	0.98789	0.083
Mof_C 	C 	0.09726	0.42885	0.89774	0.346
Mof_C 	C 	0.15588	0.39907	0.83153	0.007
Mof_C 	C 	0.12805	0.29015	0.81512	-0.105
Mof_C 	C 	0.18058	0.26525	0.75048	0.073
Mof_C 	C 	0.25938	0.34786	0.7027	-0.203
Mof_C 	C 	0.2858	0.4565	0.71936	0.234
Mof_C 	C 	0.23548	0.48279	0.78406	-0.176
Mof_C 	C 	0.41073	0.64178	0.69275	0.172
Mof_C 	C 	0.47883	0.67201	0.7612	-0.115
Mof_C 	C 	0.5293	0.78062	0.78598	-0.093
Mof_C 	C 	0.51019	0.85625	0.74105	0.158
Mof_C 	C 	0.44413	0.82652	0.672	-0.097
Mof_C 	C 	0.39339	0.71783	0.64723	-0.107
Mof_C 	C 	0.66481	0.03263	0.74923	0.228
Mof_C 	C 	0.71022	0.13593	0.78555	-0.204
Mof_C 	C 	0.82034	0.21136	0.76817	0.072
Mof_C 	C 	0.88462	0.18498	0.71371	-0.101
Mof_C 	C 	0.83872	0.08186	0.67727	0.005
Mof_C 	C 	0.7283	0.00442	0.69542	-0.17
Mof_C 	C 	0.906	0.05409	0.61665	0.347
Mof_C 	C 	0.66289	0.74632	0.48816	0.066
Mof_C 	C 	0.55939	0.65348	0.48847	-0.121
Mof_C 	C 	0.55436	0.55088	0.50039	0.066
Mof_C 	C 	0.65707	0.54766	0.51272	-0.121
Mof_C 	C 	0.75717	0.64454	0.51211	0.08
Mof_C 	C 	0.09726	0.92885	0.60226	0.345
Mof_C 	C 	0.15588	0.89907	0.66847	0.007
Mof_C 	C 	0.12805	0.79015	0.68488	-0.105
Mof_C 	C 	0.18058	0.76525	0.74952	0.073
Mof_C 	C 	0.25938	0.84786	0.7973	-0.203
Mof_C 	C 	0.2858	0.9565	0.78064	0.233
Mof_C 	C 	0.23548	0.98279	0.71594	-0.177
Mof_C 	C 	0.41073	0.14178	0.80725	0.173
Mof_C 	C 	0.47883	0.17201	0.7388	-0.115
Mof_C 	C 	0.5293	0.28062	0.71402	-0.092
Mof_C 	C 	0.51019	0.35625	0.75895	0.158
Mof_C 	C 	0.44413	0.32652	0.828	-0.096
Mof_C 	C 	0.39339	0.21783	0.85277	-0.106
Mof_C 	C 	0.66481	0.53263	0.75077	0.228
Mof_C 	C 	0.71022	0.63593	0.71445	-0.205
Mof_C 	C 	0.82034	0.71136	0.73183	0.072
Mof_C 	C 	0.88462	0.68498	0.78629	-0.102
Mof_C 	C 	0.83872	0.58186	0.82273	0.007
Mof_C 	C 	0.7283	0.50442	0.80458	-0.172
Mof_C 	C 	0.906	0.55409	0.88335	0.345
Mof_C 	C 	0.33711	0.75368	0.98816	0.067
Mof_C 	C 	0.44061	0.84652	0.98847	-0.125
Mof_C 	C 	0.44564	0.94912	0.00039	0.068
Mof_C 	C 	0.34293	0.95234	0.01272	-0.118
Mof_C 	C 	0.24283	0.85546	0.01211	0.083
Mof_C 	C 	0.90274	0.57115	0.10226	0.346
Mof_C 	C 	0.84412	0.60093	0.16847	0.007
Mof_C 	C 	0.87195	0.70985	0.18488	-0.105
Mof_C 	C 	0.81942	0.73475	0.24952	0.073
Mof_C 	C 	0.74062	0.65214	0.2973	-0.203
Mof_C 	C 	0.7142	0.5435	0.28064	0.234
Mof_C 	C 	0.76452	0.51721	0.21594	-0.176
Mof_C 	C 	0.58927	0.35822	0.30725	0.172
Mof_C 	C 	0.52117	0.32799	0.2388	-0.115
Mof_C 	C 	0.4707	0.21938	0.21402	-0.093
Mof_C 	C 	0.48981	0.14375	0.25895	0.158
Mof_C 	C 	0.55587	0.17348	0.328	-0.097
Mof_C 	C 	0.60661	0.28217	0.35277	-0.107
Mof_C 	C 	0.33519	0.96737	0.25077	0.228
Mof_C 	C 	0.28978	0.86407	0.21445	-0.204
Mof_C 	C 	0.17966	0.78864	0.23183	0.072
Mof_C 	C 	0.11538	0.81502	0.28629	-0.101
Mof_C 	C 	0.16128	0.91814	0.32273	0.005
Mof_C 	C 	0.2717	0.99558	0.30458	-0.17
Mof_C 	C 	0.094	0.94591	0.38335	0.347
Mof_N 	N 	0.23879	0.25781	0.50043	-0.25
Mof_N 	N 	0.76121	0.24219	0.00043	-0.253
Mof_N 	N 	0.76121	0.74219	0.49957	-0.25
Mof_N 	N 	0.23879	0.75781	0.99957	-0.253
Mof_O 	O 	0.99217	0.14679	0.42611	-0.445
Mof_O 	O 	0.85917	0.9723	0.41882	-0.459
Mof_O 	O 	0.63924	0.96613	0.16676	-0.262
Mof_O 	O 	0.44554	0.53576	0.26847	-0.261
Mof_O 	O 	0.13586	0.54299	0.09129	-0.451
Mof_O 	O 	0.00072	0.36927	0.0949	-0.442
Mof_O 	O 	0.00783	0.35321	0.92611	-0.447
Mof_O 	O 	0.14083	0.5277	0.91882	-0.459
Mof_O 	O 	0.36076	0.53387	0.66676	-0.263
Mof_O 	O 	0.55446	0.96424	0.76847	-0.262
Mof_O 	O 	0.86414	0.95701	0.59129	-0.454
Mof_O 	O 	0.99928	0.13073	0.5949	-0.444
Mof_O 	O 	0.00783	0.85321	0.57389	-0.445
Mof_O 	O 	0.14083	0.0277	0.58118	-0.459
Mof_O 	O 	0.36076	0.03387	0.83324	-0.262
Mof_O 	O 	0.55446	0.46424	0.73153	-0.261
Mof_O 	O 	0.86414	0.45701	0.90871	-0.451
Mof_O 	O 	0.99928	0.63073	0.9051	-0.442
Mof_O 	O 	0.99217	0.64679	0.07389	-0.447
Mof_O 	O 	0.85917	0.4723	0.08118	-0.459
Mof_O 	O 	0.63924	0.46613	0.33324	-0.263
Mof_O 	O 	0.44554	0.03576	0.23153	-0.262
Mof_O 	O 	0.13586	0.04299	0.40871	-0.454
Mof_O 	O 	0.00072	0.86927	0.4051	-0.444
_end
