# CIF file generated by openbabel 3.1.0, see https://openbabel.org
data_I
_chemical_name_common 'image0'
_cell_length_a 20.0164
_cell_length_b 7.3972
_cell_length_c 25.712
_cell_angle_alpha 90
_cell_angle_beta 105.093
_cell_angle_gamma 90
_space_group_name_H-M_alt 'P 1'
_space_group_name_Hall 'P 1'
loop_
    _symmetry_equiv_pos_as_xyz
    x,y,z
loop_
    _atom_site_label
    _atom_site_type_symbol
    _atom_site_fract_x
    _atom_site_fract_y
    _atom_site_fract_z
    _atom_site_occupancy
    C1       C        0.07403    0.97604    0.09608    1.000
    H1       H        0.05650    0.85970    0.08890    1.000
    C2       C        0.20945    0.95983    0.47847    1.000
    C3       C        0.14977    0.18815    0.15679    1.000
    C4       C        0.14117    0.85632    0.18221    1.000
    C5       C        0.12149    0.01063    0.14491    1.000
    C6       C        0.22269    0.99740    0.42914    1.000
    H2       H        0.24570    0.91280    0.41340    1.000
    C7       C        0.20175    0.16103    0.40315    1.000
    C8       C        0.05209    0.10931    0.05786    1.000
    C9       C        0.12489    0.32140    0.11765    1.000
    H3       H        0.14100    0.43920    0.12440    1.000
    C10      C        0.07774    0.28415    0.06990    1.000
    H4       H        0.06260    0.37650    0.04510    1.000
    C11      C        0.15246    0.24621    0.47640    1.000
    H5       H        0.12810    0.32780    0.49200    1.000
    C12      C        0.21631    0.20075    0.35033    1.000
    C13      C        0.16724    0.28742    0.42801    1.000
    C14      C        0.17404    0.08417    0.50123    1.000
    H6       H        0.16460    0.05770    0.53400    1.000
    Ce1      Ce       0.20261    0.53716    0.24894    1.000
    H7       H        0.16040    0.46610    0.37700    1.000
    N1       N        0.23072    0.79919    0.50886    1.000
    N2       N        0.00692    0.08100    0.00571    1.000
    O1       O        0.19700    0.23033    0.20192    1.000
    O2       O        0.19110    0.86942    0.22445    1.000
    O3       O        0.10987    0.70813    0.17297    1.000
    O4       O        0.20535    0.36010    0.33246    1.000
    O5       O        0.23798    0.07631    0.32581    1.000
    O6       O        0.14794    0.45176    0.40600    1.000
    C15      C        0.57403    0.47604    0.09608    1.000
    H8       H        0.55650    0.35970    0.08890    1.000
    C16      C        0.70945    0.45983    0.47847    1.000
    C17      C        0.64977    0.68815    0.15679    1.000
    C18      C        0.64117    0.35632    0.18221    1.000
    C19      C        0.62149    0.51063    0.14491    1.000
    C20      C        0.72269    0.49740    0.42914    1.000
    H9       H        0.74570    0.41280    0.41340    1.000
    C21      C        0.70175    0.66103    0.40315    1.000
    C22      C        0.55209    0.60931    0.05786    1.000
    C23      C        0.62489    0.82140    0.11765    1.000
    H10      H        0.64100    0.93920    0.12440    1.000
    C24      C        0.57774    0.78415    0.06990    1.000
    H11      H        0.56260    0.87650    0.04510    1.000
    C25      C        0.65246    0.74621    0.47640    1.000
    H12      H        0.62810    0.82780    0.49200    1.000
    C26      C        0.71631    0.70075    0.35033    1.000
    C27      C        0.66724    0.78742    0.42801    1.000
    C28      C        0.67404    0.58417    0.50123    1.000
    H13      H        0.66460    0.55770    0.53400    1.000
    Ce2      Ce       0.70261    0.03716    0.24894    1.000
    H14      H        0.66040    0.96610    0.37700    1.000
    N3       N        0.73072    0.29919    0.50886    1.000
    N4       N        0.50692    0.58100    0.00571    1.000
    O7       O        0.69700    0.73033    0.20192    1.000
    O8       O        0.69110    0.36942    0.22445    1.000
    O9       O        0.60987    0.20813    0.17297    1.000
    O10      O        0.70535    0.86010    0.33246    1.000
    O11      O        0.73798    0.57631    0.32581    1.000
    O12      O        0.64794    0.95176    0.40600    1.000
    C29      C        0.92597    0.97604    0.40392    1.000
    H15      H        0.94350    0.85970    0.41110    1.000
    C30      C        0.79055    0.95983    0.02153    1.000
    C31      C        0.85023    0.18815    0.34321    1.000
    C32      C        0.85883    0.85632    0.31779    1.000
    C33      C        0.87851    0.01063    0.35509    1.000
    C34      C        0.77731    0.99740    0.07086    1.000
    H16      H        0.75430    0.91280    0.08660    1.000
    C35      C        0.79825    0.16103    0.09685    1.000
    C36      C        0.94791    0.10931    0.44214    1.000
    C37      C        0.87511    0.32140    0.38235    1.000
    H17      H        0.85900    0.43920    0.37560    1.000
    C38      C        0.92226    0.28415    0.43010    1.000
    H18      H        0.93740    0.37650    0.45490    1.000
    C39      C        0.84754    0.24621    0.02360    1.000
    H19      H        0.87190    0.32780    0.00800    1.000
    C40      C        0.78369    0.20075    0.14967    1.000
    C41      C        0.83276    0.28742    0.07199    1.000
    C42      C        0.82596    0.08417    0.99877    1.000
    H20      H        0.83540    0.05770    0.96600    1.000
    Ce3      Ce       0.79739    0.53716    0.25106    1.000
    H21      H        0.83960    0.46610    0.12300    1.000
    N5       N        0.76928    0.79919    0.99114    1.000
    N6       N        0.99308    0.08100    0.49429    1.000
    O13      O        0.80300    0.23033    0.29808    1.000
    O14      O        0.80890    0.86942    0.27555    1.000
    O15      O        0.89013    0.70813    0.32703    1.000
    O16      O        0.79465    0.36010    0.16754    1.000
    O17      O        0.76202    0.07631    0.17419    1.000
    O18      O        0.85206    0.45176    0.09400    1.000
    C43      C        0.42597    0.47604    0.40392    1.000
    H22      H        0.44350    0.35970    0.41110    1.000
    C44      C        0.29055    0.45983    0.02153    1.000
    C45      C        0.35023    0.68815    0.34321    1.000
    C46      C        0.35883    0.35632    0.31779    1.000
    C47      C        0.37851    0.51063    0.35509    1.000
    C48      C        0.27731    0.49740    0.07086    1.000
    H23      H        0.25430    0.41280    0.08660    1.000
    C49      C        0.29825    0.66103    0.09685    1.000
    C50      C        0.44791    0.60931    0.44214    1.000
    C51      C        0.37511    0.82140    0.38235    1.000
    H24      H        0.35900    0.93920    0.37560    1.000
    C52      C        0.42226    0.78415    0.43010    1.000
    H25      H        0.43740    0.87650    0.45490    1.000
    C53      C        0.34754    0.74621    0.02360    1.000
    H26      H        0.37190    0.82780    0.00800    1.000
    C54      C        0.28369    0.70075    0.14967    1.000
    C55      C        0.33276    0.78742    0.07199    1.000
    C56      C        0.32596    0.58417    0.99877    1.000
    H27      H        0.33540    0.55770    0.96600    1.000
    Ce4      Ce       0.29739    0.03716    0.25106    1.000
    H28      H        0.33960    0.96610    0.12300    1.000
    N7       N        0.26928    0.29919    0.99114    1.000
    N8       N        0.49308    0.58100    0.49429    1.000
    O19      O        0.30300    0.73033    0.29808    1.000
    O20      O        0.30890    0.36942    0.27555    1.000
    O21      O        0.39013    0.20813    0.32703    1.000
    O22      O        0.29465    0.86010    0.16754    1.000
    O23      O        0.26202    0.57631    0.17419    1.000
    O24      O        0.35206    0.95176    0.09400    1.000
    C57      C        0.92597    0.02396    0.90392    1.000
    H29      H        0.94350    0.14030    0.91110    1.000
    C58      C        0.79055    0.04017    0.52153    1.000
    C59      C        0.85023    0.81185    0.84321    1.000
    C60      C        0.85883    0.14368    0.81779    1.000
    C61      C        0.87851    0.98937    0.85509    1.000
    C62      C        0.77731    0.00260    0.57086    1.000
    H30      H        0.75430    0.08720    0.58660    1.000
    C63      C        0.79825    0.83897    0.59685    1.000
    C64      C        0.94791    0.89069    0.94214    1.000
    C65      C        0.87511    0.67860    0.88235    1.000
    H31      H        0.85900    0.56080    0.87560    1.000
    C66      C        0.92226    0.71585    0.93010    1.000
    H32      H        0.93740    0.62350    0.95490    1.000
    C67      C        0.84754    0.75379    0.52360    1.000
    H33      H        0.87190    0.67220    0.50800    1.000
    C68      C        0.78369    0.79925    0.64967    1.000
    C69      C        0.83276    0.71258    0.57199    1.000
    C70      C        0.82596    0.91583    0.49877    1.000
    H34      H        0.83540    0.94230    0.46600    1.000
    Ce5      Ce       0.79739    0.46284    0.75106    1.000
    H35      H        0.83960    0.53390    0.62300    1.000
    N9       N        0.76928    0.20081    0.49114    1.000
    N10      N        0.99308    0.91900    0.99429    1.000
    O25      O        0.80300    0.76967    0.79808    1.000
    O26      O        0.80890    0.13058    0.77555    1.000
    O27      O        0.89013    0.29187    0.82703    1.000
    O28      O        0.79465    0.63990    0.66754    1.000
    O29      O        0.76202    0.92369    0.67419    1.000
    O30      O        0.85206    0.54824    0.59400    1.000
    C71      C        0.42597    0.52396    0.90392    1.000
    H36      H        0.44350    0.64030    0.91110    1.000
    C72      C        0.29055    0.54017    0.52153    1.000
    C73      C        0.35023    0.31185    0.84321    1.000
    C74      C        0.35883    0.64368    0.81779    1.000
    C75      C        0.37851    0.48937    0.85509    1.000
    C76      C        0.27731    0.50260    0.57086    1.000
    H37      H        0.25430    0.58720    0.58660    1.000
    C77      C        0.29825    0.33897    0.59685    1.000
    C78      C        0.44791    0.39069    0.94214    1.000
    C79      C        0.37511    0.17860    0.88235    1.000
    H38      H        0.35900    0.06080    0.87560    1.000
    C80      C        0.42226    0.21585    0.93010    1.000
    H39      H        0.43740    0.12350    0.95490    1.000
    C81      C        0.34754    0.25379    0.52360    1.000
    H40      H        0.37190    0.17220    0.50800    1.000
    C82      C        0.28369    0.29925    0.64967    1.000
    C83      C        0.33276    0.21258    0.57199    1.000
    C84      C        0.32596    0.41583    0.49877    1.000
    H41      H        0.33540    0.44230    0.46600    1.000
    Ce6      Ce       0.29739    0.96284    0.75106    1.000
    H42      H        0.33960    0.03390    0.62300    1.000
    N11      N        0.26928    0.70081    0.49114    1.000
    N12      N        0.49308    0.41900    0.99429    1.000
    O31      O        0.30300    0.26967    0.79808    1.000
    O32      O        0.30890    0.63058    0.77555    1.000
    O33      O        0.39013    0.79187    0.82703    1.000
    O34      O        0.29465    0.13990    0.66754    1.000
    O35      O        0.26202    0.42369    0.67419    1.000
    O36      O        0.35206    0.04824    0.59400    1.000
    C85      C        0.07403    0.02396    0.59608    1.000
    H43      H        0.05650    0.14030    0.58890    1.000
    C86      C        0.20945    0.04017    0.97847    1.000
    C87      C        0.14977    0.81185    0.65679    1.000
    C88      C        0.14117    0.14368    0.68221    1.000
    C89      C        0.12149    0.98937    0.64491    1.000
    C90      C        0.22269    0.00260    0.92914    1.000
    H44      H        0.24570    0.08720    0.91340    1.000
    C91      C        0.20175    0.83897    0.90315    1.000
    C92      C        0.05209    0.89069    0.55786    1.000
    C93      C        0.12489    0.67860    0.61765    1.000
    H45      H        0.14100    0.56080    0.62440    1.000
    C94      C        0.07774    0.71585    0.56990    1.000
    H46      H        0.06260    0.62350    0.54510    1.000
    C95      C        0.15246    0.75379    0.97640    1.000
    H47      H        0.12810    0.67220    0.99200    1.000
    C96      C        0.21631    0.79925    0.85033    1.000
    C97      C        0.16724    0.71258    0.92801    1.000
    C98      C        0.17404    0.91583    0.00123    1.000
    H48      H        0.16460    0.94230    0.03400    1.000
    Ce7      Ce       0.20261    0.46284    0.74894    1.000
    H49      H        0.16040    0.53390    0.87700    1.000
    N13      N        0.23072    0.20081    0.00886    1.000
    N14      N        0.00692    0.91900    0.50571    1.000
    O37      O        0.19700    0.76967    0.70192    1.000
    O38      O        0.19110    0.13058    0.72445    1.000
    O39      O        0.10987    0.29187    0.67297    1.000
    O40      O        0.20535    0.63990    0.83246    1.000
    O41      O        0.23798    0.92369    0.82581    1.000
    O42      O        0.14794    0.54824    0.90600    1.000
    C99      C        0.57403    0.52396    0.59608    1.000
    H50      H        0.55650    0.64030    0.58890    1.000
    C100     C        0.70945    0.54017    0.97847    1.000
    C101     C        0.64977    0.31185    0.65679    1.000
    C102     C        0.64117    0.64368    0.68221    1.000
    C103     C        0.62149    0.48937    0.64491    1.000
    C104     C        0.72269    0.50260    0.92914    1.000
    H51      H        0.74570    0.58720    0.91340    1.000
    C105     C        0.70175    0.33897    0.90315    1.000
    C106     C        0.55209    0.39069    0.55786    1.000
    C107     C        0.62489    0.17860    0.61765    1.000
    H52      H        0.64100    0.06080    0.62440    1.000
    C108     C        0.57774    0.21585    0.56990    1.000
    H53      H        0.56260    0.12350    0.54510    1.000
    C109     C        0.65246    0.25379    0.97640    1.000
    H54      H        0.62810    0.17220    0.99200    1.000
    C110     C        0.71631    0.29925    0.85033    1.000
    C111     C        0.66724    0.21258    0.92801    1.000
    C112     C        0.67404    0.41583    0.00123    1.000
    H55      H        0.66460    0.44230    0.03400    1.000
    Ce8      Ce       0.70261    0.96284    0.74894    1.000
    H56      H        0.66040    0.03390    0.87700    1.000
    N15      N        0.73072    0.70081    0.00886    1.000
    N16      N        0.50692    0.41900    0.50571    1.000
    O43      O        0.69700    0.26967    0.70192    1.000
    O44      O        0.69110    0.63058    0.72445    1.000
    O45      O        0.60987    0.79187    0.67297    1.000
    O46      O        0.70535    0.13990    0.83246    1.000
    O47      O        0.73798    0.42369    0.82581    1.000
    O48      O        0.64794    0.04824    0.90600    1.000
