# CIF file generated by openbabel 3.1.0, see https://openbabel.org
data_I
_chemical_name_common 'image0'
_cell_length_a 26.7974
_cell_length_b 9.8459
_cell_length_c 18.5441
_cell_angle_alpha 90
_cell_angle_beta 90
_cell_angle_gamma 90
_space_group_name_H-M_alt 'P 1'
_space_group_name_Hall 'P 1'
loop_
    _symmetry_equiv_pos_as_xyz
    x,y,z
loop_
    _atom_site_label
    _atom_site_type_symbol
    _atom_site_fract_x
    _atom_site_fract_y
    _atom_site_fract_z
    _atom_site_occupancy
    H1       H        0.43700    0.07300    0.64800    1.000
    H2       H        0.42200    0.41200    0.96000    1.000
    H3       H        0.35500    0.50800    0.72900    1.000
    H4       H        0.68800    0.08000    0.64600    1.000
    H5       H        0.40800    0.44500    0.39000    1.000
    H6       H        0.58400    0.52900    0.71700    1.000
    H7       H        0.31300    0.92300    0.49200    1.000
    H8       H        0.27200    0.62300    0.49600    1.000
    H9       H        0.49200    0.37300    0.60700    1.000
    In1      In       0.40038    0.23682    0.80539    1.000
    In2      In       0.40107    0.73078    0.56957    1.000
    In3      In       0.65009    0.24873    0.80811    1.000
    In4      In       0.34876    0.25515    0.07099    1.000
    In5      In       0.35529    0.24232    0.54460    1.000
    In6      In       0.39443    0.75311    0.03502    1.000
    O1       O        0.57190    0.26730    0.82610    1.000
    O2       O        0.27260    0.31300    0.90010    1.000
    H10      H        0.29940    0.34140    0.91530    1.000
    O3       O        0.41600    0.35640    0.71360    1.000
    O4       O        0.38870    0.89390    0.94990    1.000
    O5       O        0.33880    0.08440    0.00480    1.000
    O6       O        0.39370    0.88520    0.49230    1.000
    O7       O        0.32350    0.71830    0.58710    1.000
    O8       O        0.36070    0.08480    0.62400    1.000
    O9       O        0.23100    0.76330    0.58250    1.000
    O10      O        0.40210    0.57720    0.48740    1.000
    O11      O        0.34823    0.38680    0.97720    1.000
    O12      O        0.40550    0.86750    0.65980    1.000
    O13      O        0.34880    0.40180    0.62070    1.000
    O14      O        0.64310    0.87590    0.66260    1.000
    O15      O        0.43340    0.25640    0.53090    1.000
    O16      O        0.60120    0.09320    0.61830    1.000
    O17      O        0.47960    0.22430    0.82460    1.000
    O18      O        0.27638    0.21500    0.56110    1.000
    O19      O        0.22930    0.24820    0.78490    1.000
    O20      O        0.32130    0.23740    0.78900    1.000
    O21      O        0.33920    0.39020    0.46250    1.000
    O22      O        0.52559    0.22360    0.52240    1.000
    O23      O        0.33740    0.59780    0.38570    1.000
    O24      O        0.47930    0.74730    0.55030    1.000
    O25      O        0.39980    0.05170    0.74700    1.000
    O26      O        0.65630    0.57460    0.63800    1.000
    O27      O        0.63720    0.07430    0.74400    1.000
    O28      O        0.41640    0.57670    0.64790    1.000
    O29      O        0.39200    0.42910    0.85900    1.000
    O30      O        0.57250    0.73600    0.56840    1.000
    O31      O        0.39840    0.12960    0.90300    1.000
    O32      O        0.33540    0.90390    0.38440    1.000
    O33      O        0.18310    0.23620    0.55210    1.000
    O34      O        0.35210    0.10680    0.45730    1.000
    O35      O        0.64800    0.38150    0.72070    1.000
    O36      O        0.39000    0.61230    0.94940    1.000
    O37      O        0.58990    0.39700    0.61300    1.000
    O38      O        0.26210    0.53400    0.60890    1.000
    H11      H        0.28430    0.47860    0.60100    1.000
    O39      O        0.49030    0.44750    0.49620    1.000
    H12      H        0.46920    0.50370    0.50780    1.000
    O40      O        0.24210    0.32090    0.45190    1.000
    H13      H        0.26750    0.29850    0.43040    1.000
    O41      O        0.52170    0.93920    0.60110    1.000
    H14      H        0.54520    0.96580    0.62570    1.000
    O42      O        0.52490    0.17930    0.71490    1.000
    H15      H        0.54780    0.20240    0.68830    1.000
    O43      O        0.27940    0.44610    0.82510    1.000
    H16      H        0.30610    0.46500    0.84440    1.000
    P1       P        0.36312    0.02944    0.93787    1.000
    H17      H        0.32890    0.01050    0.90500    1.000
    P2       P        0.40311    0.02140    0.66696    1.000
    P3       P        0.39188    0.45910    0.93986    1.000
    P4       P        0.52317    0.78200    0.59599    1.000
    P5       P        0.38394    0.46329    0.67702    1.000
    P6       P        0.52407    0.27380    0.78372    1.000
    H18      H        0.51020    0.42350    0.76020    1.000
    P7       P        0.64311    0.03250    0.66544    1.000
    P8       P        0.37085    0.50587    0.43069    1.000
    P9       P        0.61959    0.47230    0.66932    1.000
    P10      P        0.27516    0.30000    0.81801    1.000
    P11      P        0.23161    0.21910    0.51228    1.000
    H19      H        0.22900    0.10270    0.46340    1.000
    P12      P        0.34749    0.95280    0.45988    1.000
    P13      P        0.27258    0.66610    0.56601    1.000
    P14      P        0.48378    0.31820    0.54195    1.000
    H20      H        0.56300    0.92700    0.14800    1.000
    H21      H        0.57800    0.58800    0.46000    1.000
    H22      H        0.64500    0.49200    0.22900    1.000
    H23      H        0.31200    0.92000    0.14600    1.000
    H24      H        0.59200    0.55500    0.89000    1.000
    H25      H        0.41600    0.47100    0.21700    1.000
    H26      H        0.68700    0.07700    0.99200    1.000
    H27      H        0.72800    0.37700    0.99600    1.000
    H28      H        0.50800    0.62700    0.10700    1.000
    In7      In       0.59962    0.76318    0.30539    1.000
    In8      In       0.59893    0.26922    0.06957    1.000
    In9      In       0.34991    0.75127    0.30811    1.000
    In10     In       0.65124    0.74485    0.57099    1.000
    In11     In       0.64471    0.75768    0.04460    1.000
    In12     In       0.60557    0.24689    0.53502    1.000
    O44      O        0.42810    0.73270    0.32610    1.000
    O45      O        0.72740    0.68700    0.40010    1.000
    H29      H        0.70060    0.65860    0.41530    1.000
    O46      O        0.58400    0.64360    0.21360    1.000
    O47      O        0.61130    0.10610    0.44990    1.000
    O48      O        0.66120    0.91560    0.50480    1.000
    O49      O        0.60630    0.11480    0.99230    1.000
    O50      O        0.67650    0.28170    0.08710    1.000
    O51      O        0.63930    0.91520    0.12400    1.000
    O52      O        0.76900    0.23670    0.08250    1.000
    O53      O        0.59790    0.42280    0.98740    1.000
    O54      O        0.65177    0.61320    0.47720    1.000
    O55      O        0.59450    0.13250    0.15980    1.000
    O56      O        0.65120    0.59820    0.12070    1.000
    O57      O        0.35690    0.12410    0.16260    1.000
    O58      O        0.56660    0.74360    0.03090    1.000
    O59      O        0.39880    0.90680    0.11830    1.000
    O60      O        0.52040    0.77570    0.32460    1.000
    O61      O        0.72362    0.78500    0.06110    1.000
    O62      O        0.77070    0.75180    0.28490    1.000
    O63      O        0.67870    0.76260    0.28900    1.000
    O64      O        0.66080    0.60980    0.96250    1.000
    O65      O        0.47441    0.77640    0.02240    1.000
    O66      O        0.66260    0.40220    0.88570    1.000
    O67      O        0.52070    0.25270    0.05030    1.000
    O68      O        0.60020    0.94830    0.24700    1.000
    O69      O        0.34370    0.42540    0.13800    1.000
    O70      O        0.36280    0.92570    0.24400    1.000
    O71      O        0.58360    0.42330    0.14790    1.000
    O72      O        0.60800    0.57090    0.35900    1.000
    O73      O        0.42750    0.26400    0.06840    1.000
    O74      O        0.60160    0.87040    0.40300    1.000
    O75      O        0.66460    0.09610    0.88440    1.000
    O76      O        0.81690    0.76380    0.05210    1.000
    O77      O        0.64790    0.89320    0.95730    1.000
    O78      O        0.35200    0.61850    0.22070    1.000
    O79      O        0.61000    0.38770    0.44940    1.000
    O80      O        0.41010    0.60300    0.11300    1.000
    O81      O        0.73790    0.46600    0.10890    1.000
    H30      H        0.71570    0.52140    0.10100    1.000
    O82      O        0.50970    0.55250    0.99620    1.000
    H31      H        0.53080    0.49630    0.00780    1.000
    O83      O        0.75790    0.67910    0.95190    1.000
    H32      H        0.73250    0.70150    0.93040    1.000
    O84      O        0.47830    0.06080    0.10110    1.000
    H33      H        0.45480    0.03420    0.12570    1.000
    O85      O        0.47510    0.82070    0.21490    1.000
    H34      H        0.45220    0.79760    0.18830    1.000
    O86      O        0.72060    0.55390    0.32510    1.000
    H35      H        0.69390    0.53500    0.34440    1.000
    P15      P        0.63688    0.97056    0.43787    1.000
    H36      H        0.67110    0.98950    0.40500    1.000
    P16      P        0.59689    0.97860    0.16696    1.000
    P17      P        0.60812    0.54090    0.43986    1.000
    P18      P        0.47683    0.21800    0.09599    1.000
    P19      P        0.61606    0.53671    0.17702    1.000
    P20      P        0.47593    0.72620    0.28372    1.000
    H37      H        0.48980    0.57650    0.26020    1.000
    P21      P        0.35689    0.96750    0.16544    1.000
    P22      P        0.62915    0.49413    0.93069    1.000
    P23      P        0.38041    0.52770    0.16932    1.000
    P24      P        0.72484    0.70000    0.31801    1.000
    P25      P        0.76839    0.78090    0.01228    1.000
    H38      H        0.77100    0.89730    0.96340    1.000
    P26      P        0.65251    0.04720    0.95988    1.000
    P27      P        0.72742    0.33390    0.06601    1.000
    P28      P        0.51622    0.68180    0.04195    1.000
    H39      H        0.93700    0.42700    0.64800    1.000
    H40      H        0.92200    0.08800    0.96000    1.000
    H41      H        0.85500    0.99200    0.72900    1.000
    H42      H        0.18800    0.42000    0.64600    1.000
    H43      H        0.90800    0.05500    0.39000    1.000
    H44      H        0.08400    0.97100    0.71700    1.000
    H45      H        0.81300    0.57700    0.49200    1.000
    H46      H        0.77200    0.87700    0.49600    1.000
    H47      H        0.99200    0.12700    0.60700    1.000
    In13     In       0.90038    0.26318    0.80539    1.000
    In14     In       0.90107    0.76922    0.56957    1.000
    In15     In       0.15009    0.25127    0.80811    1.000
    In16     In       0.84876    0.24485    0.07099    1.000
    In17     In       0.85529    0.25768    0.54460    1.000
    In18     In       0.89443    0.74689    0.03502    1.000
    O87      O        0.07190    0.23270    0.82610    1.000
    O88      O        0.77260    0.18700    0.90010    1.000
    H48      H        0.79940    0.15860    0.91530    1.000
    O89      O        0.91600    0.14360    0.71360    1.000
    O90      O        0.88870    0.60610    0.94990    1.000
    O91      O        0.83880    0.41560    0.00480    1.000
    O92      O        0.89370    0.61480    0.49230    1.000
    O93      O        0.82350    0.78170    0.58710    1.000
    O94      O        0.86070    0.41520    0.62400    1.000
    O95      O        0.73100    0.73670    0.58250    1.000
    O96      O        0.90210    0.92280    0.48740    1.000
    O97      O        0.84823    0.11320    0.97720    1.000
    O98      O        0.90550    0.63250    0.65980    1.000
    O99      O        0.84880    0.09820    0.62070    1.000
    O100     O        0.14310    0.62410    0.66260    1.000
    O101     O        0.93340    0.24360    0.53090    1.000
    O102     O        0.10120    0.40680    0.61830    1.000
    O103     O        0.97960    0.27570    0.82460    1.000
    O104     O        0.77638    0.28500    0.56110    1.000
    O105     O        0.72930    0.25180    0.78490    1.000
    O106     O        0.82130    0.26260    0.78900    1.000
    O107     O        0.83920    0.10980    0.46250    1.000
    O108     O        0.02559    0.27640    0.52240    1.000
    O109     O        0.83740    0.90220    0.38570    1.000
    O110     O        0.97930    0.75270    0.55030    1.000
    O111     O        0.89980    0.44830    0.74700    1.000
    O112     O        0.15630    0.92540    0.63800    1.000
    O113     O        0.13720    0.42570    0.74400    1.000
    O114     O        0.91640    0.92330    0.64790    1.000
    O115     O        0.89200    0.07090    0.85900    1.000
    O116     O        0.07250    0.76400    0.56840    1.000
    O117     O        0.89840    0.37040    0.90300    1.000
    O118     O        0.83540    0.59610    0.38440    1.000
    O119     O        0.68310    0.26380    0.55210    1.000
    O120     O        0.85210    0.39320    0.45730    1.000
    O121     O        0.14800    0.11850    0.72070    1.000
    O122     O        0.89000    0.88770    0.94940    1.000
    O123     O        0.08990    0.10300    0.61300    1.000
    O124     O        0.76210    0.96600    0.60890    1.000
    H49      H        0.78430    0.02140    0.60100    1.000
    O125     O        0.99030    0.05250    0.49620    1.000
    H50      H        0.96920    0.99630    0.50780    1.000
    O126     O        0.74210    0.17910    0.45190    1.000
    H51      H        0.76750    0.20150    0.43040    1.000
    O127     O        0.02170    0.56080    0.60110    1.000
    H52      H        0.04520    0.53420    0.62570    1.000
    O128     O        0.02490    0.32070    0.71490    1.000
    H53      H        0.04780    0.29760    0.68830    1.000
    O129     O        0.77940    0.05390    0.82510    1.000
    H54      H        0.80610    0.03500    0.84440    1.000
    P29      P        0.86312    0.47056    0.93787    1.000
    H55      H        0.82890    0.48950    0.90500    1.000
    P30      P        0.90311    0.47860    0.66696    1.000
    P31      P        0.89188    0.04090    0.93986    1.000
    P32      P        0.02317    0.71800    0.59599    1.000
    P33      P        0.88394    0.03671    0.67702    1.000
    P34      P        0.02407    0.22620    0.78372    1.000
    H56      H        0.01020    0.07650    0.76020    1.000
    P35      P        0.14311    0.46750    0.66544    1.000
    P36      P        0.87085    0.99413    0.43069    1.000
    P37      P        0.11959    0.02770    0.66932    1.000
    P38      P        0.77516    0.20000    0.81801    1.000
    P39      P        0.73161    0.28090    0.51228    1.000
    H57      H        0.72900    0.39730    0.46340    1.000
    P40      P        0.84749    0.54720    0.45988    1.000
    P41      P        0.77258    0.83390    0.56601    1.000
    P42      P        0.98378    0.18180    0.54195    1.000
    H58      H        0.06300    0.57300    0.14800    1.000
    H59      H        0.07800    0.91200    0.46000    1.000
    H60      H        0.14500    0.00800    0.22900    1.000
    H61      H        0.81200    0.58000    0.14600    1.000
    H62      H        0.09200    0.94500    0.89000    1.000
    H63      H        0.91600    0.02900    0.21700    1.000
    H64      H        0.18700    0.42300    0.99200    1.000
    H65      H        0.22800    0.12300    0.99600    1.000
    H66      H        0.00800    0.87300    0.10700    1.000
    In19     In       0.09962    0.73682    0.30539    1.000
    In20     In       0.09893    0.23078    0.06957    1.000
    In21     In       0.84991    0.74873    0.30811    1.000
    In22     In       0.15124    0.75515    0.57099    1.000
    In23     In       0.14471    0.74232    0.04460    1.000
    In24     In       0.10557    0.25311    0.53502    1.000
    O130     O        0.92810    0.76730    0.32610    1.000
    O131     O        0.22740    0.81300    0.40010    1.000
    H67      H        0.20060    0.84140    0.41530    1.000
    O132     O        0.08400    0.85640    0.21360    1.000
    O133     O        0.11130    0.39390    0.44990    1.000
    O134     O        0.16120    0.58440    0.50480    1.000
    O135     O        0.10630    0.38520    0.99230    1.000
    O136     O        0.17650    0.21830    0.08710    1.000
    O137     O        0.13930    0.58480    0.12400    1.000
    O138     O        0.26900    0.26330    0.08250    1.000
    O139     O        0.09790    0.07720    0.98740    1.000
    O140     O        0.15177    0.88680    0.47720    1.000
    O141     O        0.09450    0.36750    0.15980    1.000
    O142     O        0.15120    0.90180    0.12070    1.000
    O143     O        0.85690    0.37590    0.16260    1.000
    O144     O        0.06660    0.75640    0.03090    1.000
    O145     O        0.89880    0.59320    0.11830    1.000
    O146     O        0.02040    0.72430    0.32460    1.000
    O147     O        0.22362    0.71500    0.06110    1.000
    O148     O        0.27070    0.74820    0.28490    1.000
    O149     O        0.17870    0.73740    0.28900    1.000
    O150     O        0.16080    0.89020    0.96250    1.000
    O151     O        0.97441    0.72360    0.02240    1.000
    O152     O        0.16260    0.09780    0.88570    1.000
    O153     O        0.02070    0.24730    0.05030    1.000
    O154     O        0.10020    0.55170    0.24700    1.000
    O155     O        0.84370    0.07460    0.13800    1.000
    O156     O        0.86280    0.57430    0.24400    1.000
    O157     O        0.08360    0.07670    0.14790    1.000
    O158     O        0.10800    0.92910    0.35900    1.000
    O159     O        0.92750    0.23600    0.06840    1.000
    O160     O        0.10160    0.62960    0.40300    1.000
    O161     O        0.16460    0.40390    0.88440    1.000
    O162     O        0.31690    0.73620    0.05210    1.000
    O163     O        0.14790    0.60680    0.95730    1.000
    O164     O        0.85200    0.88150    0.22070    1.000
    O165     O        0.11000    0.11230    0.44940    1.000
    O166     O        0.91010    0.89700    0.11300    1.000
    O167     O        0.23790    0.03400    0.10890    1.000
    H68      H        0.21570    0.97860    0.10100    1.000
    O168     O        0.00970    0.94750    0.99620    1.000
    H69      H        0.03080    0.00370    0.00780    1.000
    O169     O        0.25790    0.82090    0.95190    1.000
    H70      H        0.23250    0.79850    0.93040    1.000
    O170     O        0.97830    0.43920    0.10110    1.000
    H71      H        0.95480    0.46580    0.12570    1.000
    O171     O        0.97510    0.67930    0.21490    1.000
    H72      H        0.95220    0.70240    0.18830    1.000
    O172     O        0.22060    0.94610    0.32510    1.000
    H73      H        0.19390    0.96500    0.34440    1.000
    P43      P        0.13688    0.52944    0.43787    1.000
    H74      H        0.17110    0.51050    0.40500    1.000
    P44      P        0.09689    0.52140    0.16696    1.000
    P45      P        0.10812    0.95910    0.43986    1.000
    P46      P        0.97683    0.28200    0.09599    1.000
    P47      P        0.11606    0.96329    0.17702    1.000
    P48      P        0.97593    0.77380    0.28372    1.000
    H75      H        0.98980    0.92350    0.26020    1.000
    P49      P        0.85689    0.53250    0.16544    1.000
    P50      P        0.12915    0.00587    0.93069    1.000
    P51      P        0.88041    0.97230    0.16932    1.000
    P52      P        0.22484    0.80000    0.31801    1.000
    P53      P        0.26839    0.71910    0.01228    1.000
    H76      H        0.27100    0.60270    0.96340    1.000
    P54      P        0.15251    0.45280    0.95988    1.000
    P55      P        0.22742    0.16610    0.06601    1.000
    P56      P        0.01622    0.81820    0.04195    1.000
