data_functionalizedCrystal
_audit_creation_method	'EQeq! by Chris Wilmer'
_symmetry_space_group_name_H-M	'P1'
_symmetry_Int_Tables_number	1
_symmetry_cell_setting	triclinic
loop_
_symmetry_equiv_pos_as_xyz
  x,y,z
_cell_length_a	9.8064
_cell_length_b	10.6685
_cell_length_c	13.9712
_cell_angle_alpha	95.3024
_cell_angle_beta	110.546
_cell_angle_gamma	74.7329
loop_
_atom_site_label
_atom_site_type_symbol
_atom_site_fract_x
_atom_site_fract_y
_atom_site_fract_z
_atom_site_charge
Mof_Co	Co	0.62243	0.88012	0.24882	1.18
Mof_Co	Co	0.87488	0.38395	0.74792	1.181
Mof_Co	Co	0.37361	0.38012	0.75118	1.187
Mof_Co	Co	0.12696	0.88395	0.25208	1.18
Mof_H 	H 	0.833	0.7673	0.1258	0.009
Mof_H 	H 	0.8428	0.6398	0.9834	0.059
Mof_H 	H 	0.418	0.6146	0.9356	0.069
Mof_H 	H 	0.4231	0.742	0.0808	0.02
Mof_H 	H 	0.9047	0.4907	0.5622	0.014
Mof_H 	H 	0.7616	0.6119	0.4152	0.065
Mof_H 	H 	0.3907	0.6369	0.4894	0.064
Mof_H 	H 	0.5453	0.511	0.6336	0.019
Mof_H 	H 	0.5062	0.1669	0.3084	0.023
Mof_H 	H 	0.5048	0.2963	0.4512	0.042
Mof_H 	H 	0.7435	0.9827	0.6296	-0.021
Mof_H 	H 	0.7289	0.8581	0.4846	0.052
Mof_H 	H 	0.9789	0.4065	0.9862	0.003
Mof_H 	H 	0.1133	0.2822	0.1326	0.054
Mof_H 	H 	0.224	0.9802	0.9526	0.01
Mof_H 	H 	0.0676	0.1074	0.8112	0.045
Mof_H 	H 	0.7072	0.2673	0.8742	0.013
Mof_H 	H 	0.8594	0.1398	0.0166	0.071
Mof_H 	H 	0.4824	0.1146	0.0644	0.077
Mof_H 	H 	0.3423	0.242	0.9192	0.021
Mof_H 	H 	0.3425	0.9907	0.4378	-0.041
Mof_H 	H 	0.3464	0.1119	0.5848	0.1
Mof_H 	H 	0.9013	0.1369	0.5106	0.098
Mof_H 	H 	0.9117	0.011	0.3664	-0.014
Mof_H 	H 	0.1978	0.6669	0.6916	0.019
Mof_H 	H 	0.0536	0.7963	0.5488	0.054
Mof_H 	H 	0.1139	0.4827	0.3704	0.06
Mof_H 	H 	0.2443	0.3581	0.5154	0.022
Mof_H 	H 	0.9927	0.9065	0.0138	-0.004
Mof_H 	H 	0.9807	0.7822	0.8674	0.028
Mof_H 	H 	0.2714	0.4802	0.0474	0.051
Mof_H 	H 	0.2564	0.6074	0.1888	0.026
Mof_C 	C 	0.74818	0.7353	0.08696	0.042
Mof_C 	C 	0.75461	0.6602	0.00142	-0.052
Mof_C 	C 	0.62945	0.6152	0.9423	-0.056
Mof_C 	C 	0.50461	0.6451	0.97322	-0.056
Mof_C 	C 	0.50919	0.7206	0.06038	0.042
Mof_C 	C 	0.6318	0.5335	0.8478	0.377
Mof_C 	C 	0.79931	0.521	0.54722	0.044
Mof_C 	C 	0.71486	0.594	0.45972	-0.059
Mof_C 	C 	0.56235	0.6404	0.4379	-0.058
Mof_C 	C 	0.49614	0.6083	0.50328	-0.052
Mof_C 	C 	0.58939	0.5334	0.58898	0.037
Mof_C 	C 	0.4652	0.7261	0.346	0.373
Mof_C 	C 	0.55325	0.1285	0.3743	0.043
Mof_C 	C 	0.55271	0.2062	0.45922	-0.018
Mof_C 	C 	0.62239	0.1519	0.55618	-0.12
Mof_C 	C 	0.69129	0.022	0.56418	0.103
Mof_C 	C 	0.68481	0.9489	0.47742	-0.075
Mof_C 	C 	0.6196	0.2333	0.6506	0.39
Mof_C 	C 	0.02628	0.3179	0.97916	0.05
Mof_C 	C 	0.10899	0.2448	0.06758	-0.037
Mof_C 	C 	0.1856	0.1162	0.06	-0.095
Mof_C 	C 	0.17157	0.0665	0.96154	0.028
Mof_C 	C 	0.08068	0.1444	0.87736	0
Mof_C 	C 	0.2807	0.0323	0.1522	0.424
Mof_C 	C 	0.66122	0.2353	0.91304	0.053
Mof_C 	C 	0.75319	0.1602	0.99858	-0.065
Mof_C 	C 	0.68715	0.1152	0.0577	-0.04
Mof_C 	C 	0.53139	0.1451	0.02678	-0.06
Mof_C 	C 	0.44881	0.2206	0.93962	0.048
Mof_C 	C 	0.784	0.0335	0.1522	0.373
Mof_C 	C 	0.25209	0.021	0.45278	0.166
Mof_C 	C 	0.25514	0.094	0.54028	-0.137
Mof_C 	C 	0.12445	0.1404	0.5621	0.013
Mof_C 	C 	0.99286	0.1083	0.49672	-0.146
Mof_C 	C 	0.00041	0.0334	0.41102	0.146
Mof_C 	C 	0.1192	0.2261	0.654	0.368
Mof_C 	C 	0.17895	0.6285	0.6257	0.039
Mof_C 	C 	0.09349	0.7062	0.54078	-0.058
Mof_C 	C 	0.06621	0.6519	0.44382	-0.036
Mof_C 	C 	0.12711	0.522	0.43582	-0.057
Mof_C 	C 	0.20739	0.4489	0.52258	0.036
Mof_C 	C 	0.969	0.7333	0.3494	0.325
Mof_C 	C 	0.04712	0.8179	0.02084	0.039
Mof_C 	C 	0.04141	0.7448	0.93242	-0.015
Mof_C 	C 	0.1256	0.6162	0.94	-0.074
Mof_C 	C 	0.21003	0.5665	0.03846	-0.041
Mof_C 	C 	0.20332	0.6444	0.12264	0.028
Mof_C 	C 	0.1285	0.5323	0.8478	0.377
Mof_N 	N 	0.62944	0.7647	0.11708	-0.21
Mof_N 	N 	0.73837	0.4913	0.61174	-0.209
Mof_N 	N 	0.61891	0.9993	0.38222	-0.203
Mof_N 	N 	0.00939	0.2705	0.88438	-0.195
Mof_N 	N 	0.51236	0.2647	0.88292	-0.209
Mof_N 	N 	0.12663	0.9913	0.38826	-0.268
Mof_N 	N 	0.23669	0.4993	0.61778	-0.204
Mof_N 	N 	0.12501	0.7705	0.11562	-0.206
Mof_O 	O 	0.75424	0.5032	0.83188	-0.422
Mof_O 	O 	0.5091	0.5088	0.7932	-0.424
Mof_O 	O 	0.52483	0.7494	0.28586	-0.423
Mof_O 	O 	0.32857	0.7672	0.33674	-0.425
Mof_O 	O 	0.73931	0.2512	0.71422	-0.42
Mof_O 	O 	0.49046	0.273	0.65812	-0.417
Mof_O 	O 	0.21939	0.0223	0.21578	-0.406
Mof_O 	O 	0.41244	0.9854	0.15648	-0.462
Mof_O 	O 	0.92236	0.0032	0.16812	-0.408
Mof_O 	O 	0.7159	0.0088	0.2068	-0.405
Mof_O 	O 	0.23897	0.2494	0.71414	-0.417
Mof_O 	O 	0.99183	0.2672	0.66326	-0.431
Mof_O 	O 	0.02509	0.7512	0.28578	-0.395
Mof_O 	O 	0.83234	0.773	0.34188	-0.409
Mof_O 	O 	0.00361	0.5223	0.78422	-0.402
Mof_O 	O 	0.25596	0.4854	0.84352	-0.423
_end
