data_functionalizedCrystal
_audit_creation_method	'EQeq! by Chris Wilmer'
_symmetry_space_group_name_H-M	'P1'
_symmetry_Int_Tables_number	1
_symmetry_cell_setting	triclinic
loop_
_symmetry_equiv_pos_as_xyz
  x,y,z
_cell_length_a	9.8873
_cell_length_b	14.7768
_cell_length_c	19.2254
_cell_angle_alpha	90
_cell_angle_beta	97.9768
_cell_angle_gamma	90
loop_
_atom_site_label
_atom_site_type_symbol
_atom_site_fract_x
_atom_site_fract_y
_atom_site_fract_z
_atom_site_charge
Mof_Eu	Eu	0.40568	0.07387	0.63765	2.341
Mof_Eu	Eu	0.54303	0.48478	0.66615	2.393
Mof_O 	O 	0.4741	0.1113	0.525	-0.456
Mof_O 	O 	0.5692	0.059	0.4344	-0.447
Mof_O 	O 	0.549	0.1908	0.6988	-0.437
Mof_O 	O 	0.6131	0.3358	0.6982	-0.454
Mof_O 	O 	0.332	0.2278	0.6045	-0.451
Mof_O 	O 	0.3906	0.3735	0.6071	-0.455
Mof_O 	O 	0.6328	0.4513	0.5567	-0.428
Mof_O 	O 	0.5887	0.4456	0.4393	-0.421
Mof_O 	O 	0.7926	0.4829	0.6804	-0.428
Mof_O 	O 	0.9877	0.5057	0.752	-0.416
Mof_O 	O 	0.6495	0.528	0.7827	-0.47
Mof_O 	O 	0.8434	0.538	0.858	-0.416
Mof_O 	O 	0.3734	0.5851	0.699	-0.47
Mof_O 	O 	0.2338	0.6243	0.7754	-0.45
Mof_O 	O 	0.3959	0.4194	0.7538	-0.387
Mof_O 	O 	0.2405	0.4546	0.8244	-0.431
Mof_C 	C 	0.5118	0.0496	0.4879	0.282
Mof_C 	C 	0.5338	0.271	0.6788	0.282
Mof_C 	C 	0.4064	0.293	0.6249	0.308
Mof_C 	C 	0.564	0.47	0.4987	0.275
Mof_C 	C 	0.8596	0.5036	0.7384	0.269
Mof_C 	C 	0.7762	0.5267	0.7989	0.291
Mof_C 	C 	0.3062	0.5695	0.7483	0.311
Mof_C 	C 	0.3145	0.4715	0.7782	0.26
Mof_Eu	Eu	0.09432	0.57387	0.86235	2.348
Mof_Eu	Eu	0.95697	0.98478	0.83385	2.373
Mof_O 	O 	0.0259	0.6113	0.975	-0.454
Mof_O 	O 	0.9308	0.559	0.0656	-0.447
Mof_O 	O 	0.951	0.6908	0.8012	-0.438
Mof_O 	O 	0.8869	0.8358	0.8018	-0.453
Mof_O 	O 	0.168	0.7278	0.8955	-0.452
Mof_O 	O 	0.1094	0.8735	0.8929	-0.451
Mof_O 	O 	0.8672	0.9513	0.9433	-0.429
Mof_O 	O 	0.9113	0.9456	0.0607	-0.42
Mof_O 	O 	0.7074	0.9829	0.8196	-0.431
Mof_O 	O 	0.5123	0.0057	0.748	-0.416
Mof_O 	O 	0.8505	0.028	0.7173	-0.463
Mof_O 	O 	0.6566	0.038	0.642	-0.414
Mof_O 	O 	0.1266	0.0851	0.801	-0.468
Mof_O 	O 	0.2662	0.1243	0.7246	-0.449
Mof_O 	O 	0.1041	0.9194	0.7462	-0.383
Mof_O 	O 	0.2595	0.9546	0.6756	-0.43
Mof_C 	C 	0.9882	0.5496	0.0121	0.281
Mof_C 	C 	0.9662	0.771	0.8212	0.277
Mof_C 	C 	0.0936	0.793	0.8751	0.312
Mof_C 	C 	0.936	0.97	0.0013	0.275
Mof_C 	C 	0.6404	0.0036	0.7616	0.275
Mof_C 	C 	0.7238	0.0267	0.7011	0.289
Mof_C 	C 	0.1938	0.0695	0.7517	0.307
Mof_C 	C 	0.1855	0.9715	0.7218	0.264
Mof_Eu	Eu	0.59432	0.92613	0.36235	2.342
Mof_Eu	Eu	0.45697	0.51522	0.33385	2.394
Mof_O 	O 	0.5259	0.8887	0.475	-0.455
Mof_O 	O 	0.4308	0.941	0.5656	-0.446
Mof_O 	O 	0.451	0.8092	0.3012	-0.437
Mof_O 	O 	0.3869	0.6642	0.3018	-0.454
Mof_O 	O 	0.668	0.7722	0.3955	-0.451
Mof_O 	O 	0.6094	0.6265	0.3929	-0.455
Mof_O 	O 	0.3672	0.5487	0.4433	-0.428
Mof_O 	O 	0.4113	0.5544	0.5607	-0.421
Mof_O 	O 	0.2074	0.5171	0.3196	-0.428
Mof_O 	O 	0.0123	0.4943	0.248	-0.416
Mof_O 	O 	0.3505	0.472	0.2173	-0.47
Mof_O 	O 	0.1566	0.462	0.142	-0.416
Mof_O 	O 	0.6266	0.4149	0.301	-0.47
Mof_O 	O 	0.7662	0.3757	0.2246	-0.45
Mof_O 	O 	0.6041	0.5806	0.2462	-0.387
Mof_O 	O 	0.7595	0.5454	0.1756	-0.431
Mof_C 	C 	0.4882	0.9504	0.5121	0.282
Mof_C 	C 	0.4662	0.729	0.3212	0.282
Mof_C 	C 	0.5936	0.707	0.3751	0.308
Mof_C 	C 	0.436	0.53	0.5013	0.275
Mof_C 	C 	0.1404	0.4964	0.2616	0.269
Mof_C 	C 	0.2238	0.4733	0.2011	0.291
Mof_C 	C 	0.6938	0.4305	0.2517	0.311
Mof_C 	C 	0.6855	0.5285	0.2218	0.26
Mof_Eu	Eu	0.90568	0.42613	0.13765	2.348
Mof_Eu	Eu	0.04303	0.01522	0.16615	2.373
Mof_O 	O 	0.9741	0.3887	0.025	-0.454
Mof_O 	O 	0.0692	0.441	0.9344	-0.447
Mof_O 	O 	0.049	0.3092	0.1988	-0.438
Mof_O 	O 	0.1131	0.1642	0.1982	-0.453
Mof_O 	O 	0.832	0.2722	0.1045	-0.452
Mof_O 	O 	0.8906	0.1265	0.1071	-0.451
Mof_O 	O 	0.1328	0.0487	0.0567	-0.429
Mof_O 	O 	0.0887	0.0544	0.9393	-0.42
Mof_O 	O 	0.2926	0.0171	0.1804	-0.431
Mof_O 	O 	0.4877	0.9943	0.252	-0.416
Mof_O 	O 	0.1495	0.972	0.2827	-0.463
Mof_O 	O 	0.3434	0.962	0.358	-0.414
Mof_O 	O 	0.8734	0.9149	0.199	-0.468
Mof_O 	O 	0.7338	0.8757	0.2754	-0.449
Mof_O 	O 	0.8959	0.0806	0.2538	-0.383
Mof_O 	O 	0.7405	0.0454	0.3244	-0.43
Mof_C 	C 	0.0118	0.4504	0.9879	0.281
Mof_C 	C 	0.0338	0.229	0.1788	0.277
Mof_C 	C 	0.9064	0.207	0.1249	0.312
Mof_C 	C 	0.064	0.03	0.9987	0.275
Mof_C 	C 	0.3596	0.9964	0.2384	0.275
Mof_C 	C 	0.2762	0.9733	0.2989	0.289
Mof_C 	C 	0.8062	0.9305	0.2483	0.307
Mof_C 	C 	0.8145	0.0285	0.2782	0.264
_end
