data_functionalizedCrystal
_audit_creation_method	'EQeq! by Chris Wilmer'
_symmetry_space_group_name_H-M	'P1'
_symmetry_Int_Tables_number	1
_symmetry_cell_setting	triclinic
loop_
_symmetry_equiv_pos_as_xyz
  x,y,z
_cell_length_a	29.511
_cell_length_b	12.05
_cell_length_c	13.908
_cell_angle_alpha	90
_cell_angle_beta	111.457
_cell_angle_gamma	90
loop_
_atom_site_label
_atom_site_type_symbol
_atom_site_fract_x
_atom_site_fract_y
_atom_site_fract_z
_atom_site_charge
Mof_Zn	Zn	0.15151	0.95255	0.75428	1.211
Mof_Zn	Zn	0.84438	0.03743	0.82833	1.21
Mof_C 	C 	0.3648	0.6703	0.0195	0.118
Mof_H 	H 	0.3825	0.6124	0.0603	0.007
Mof_C 	C 	0.3197	0.7628	0.8923	0.037
Mof_H 	H 	0.2997	0.7819	0.8254	0.011
Mof_C 	C 	0.3296	0.8309	0.9744	0.004
Mof_H 	H 	0.3187	0.9033	0.9751	0.062
Mof_C 	C 	0.3794	0.8051	0.1658	-0.136
Mof_H 	H 	0.4046	0.7531	0.2042	0.11
Mof_H 	H 	0.3944	0.8775	0.1702	0.144
Mof_C 	C 	0.3427	0.8107	0.2135	0.053
Mof_H 	H 	0.3296	0.7368	0.2131	0.028
Mof_H 	H 	0.3587	0.8327	0.2851	0.06
Mof_C 	C 	0.3155	0.9952	0.1875	0.026
Mof_H 	H 	0.3408	0.0159	0.1618	0.061
Mof_H 	H 	0.3279	0.0068	0.2616	0.058
Mof_C 	C 	0.2714	0.0647	0.1373	-0.091
Mof_H 	H 	0.2454	0.0389	0.1588	0.064
Mof_H 	H 	0.2786	0.141	0.1602	0.083
Mof_C 	C 	0.2188	0.9986	0.9628	0.084
Mof_H 	H 	0.2011	0.9488	0.9864	0.01
Mof_C 	C 	0.2461	0.0915	0.8634	0.019
Mof_H 	H 	0.2503	0.1177	0.8043	0.029
Mof_C 	C 	0.2737	0.1215	0.9633	-0.012
Mof_H 	H 	0.2993	0.1717	0.9852	0.062
Mof_C 	C 	0.1173	0.1106	0.6076	0.264
Mof_C 	C 	0.0838	0.1918	0.5341	0.071
Mof_C 	C 	0.0545	0.2585	0.565	-0.207
Mof_H 	H 	0.053	0.2474	0.63	0.155
Mof_C 	C 	0.026	0.3442	0.5015	0.304
Mof_C 	C 	0.029	0.3574	0.4044	-0.225
Mof_H 	H 	0.0125	0.4155	0.3619	0.206
Mof_C 	C 	0.0565	0.2849	0.3707	0.114
Mof_H 	H 	0.0573	0.2939	0.3049	0.069
Mof_C 	C 	0.0828	0.1992	0.4328	-0.111
Mof_C 	C 	0.1076	0.1122	0.386	0.368
Mof_C 	C 	0.9965	0.4193	0.5447	-0.469
Mof_C 	C 	0.9623	0.3506	0.5839	0.335
Mof_C 	C 	0.9551	0.3779	0.675	-0.235
Mof_H 	H 	0.9719	0.4369	0.7157	0.222
Mof_C 	C 	0.9224	0.315	0.7037	0.139
Mof_H 	H 	0.9175	0.3325	0.7643	0.05
Mof_C 	C 	0.8971	0.2277	0.6443	-0.134
Mof_C 	C 	0.9035	0.2035	0.5541	0.082
Mof_C 	C 	0.9377	0.2633	0.5243	-0.227
Mof_H 	H 	0.9434	0.2434	0.4651	0.159
Mof_C 	C 	0.8646	0.1667	0.6868	0.359
Mof_C 	C 	0.8724	0.1143	0.4804	0.282
Mof_C 	C 	0.9631	0.4989	0.4599	0.943
Mof_C 	C 	0.0327	0.4935	0.6282	0.998
Mof_C 	C 	0.7748	0.9604	0.6305	0.085
Mof_H 	H 	0.7915	0.9987	0.5958	0.019
Mof_C 	C 	0.7525	0.8943	0.749	0.022
Mof_H 	H 	0.7509	0.8812	0.8136	0.03
Mof_C 	C 	0.7249	0.846	0.6633	-0.003
Mof_H 	H 	0.7014	0.7922	0.6565	0.063
Mof_C 	C 	0.7157	0.8661	0.4722	-0.087
Mof_H 	H 	0.7061	0.7888	0.4605	0.071
Mof_H 	H 	0.74	0.8801	0.4418	0.065
Mof_C 	C 	0.6716	0.9402	0.4211	0.031
Mof_H 	H 	0.6569	0.9244	0.3477	0.067
Mof_H 	H 	0.6474	0.9287	0.4521	0.07
Mof_C 	C 	0.6548	0.1279	0.3834	0.129
Mof_C 	C 	0.6191	0.1888	0.4208	0.1
Mof_C 	C 	0.6461	0.3304	0.5629	0.127
Mof_H 	H 	0.6263	0.3844	0.52	0.018
Mof_C 	C 	0.6887	0.2395	0.6982	0.03
Mof_H 	H 	0.7044	0.2201	0.7672	0.009
Mof_C 	C 	0.687	0.1763	0.6163	0.015
Mof_H 	H 	0.7008	0.1068	0.6172	0.061
Mof_N 	N 	0.3422	0.6643	0.918	-0.269
Mof_N 	N 	0.3589	0.7703	0.0563	-0.08
Mof_N 	N 	0.2548	0.0606	0.0236	-0.09
Mof_N 	N 	0.2111	0.016	0.8652	-0.261
Mof_N 	N 	0.7835	0.9661	0.7301	-0.261
Mof_N 	N 	0.7372	0.8891	0.5866	-0.096
Mof_N 	N 	0.6595	0.2398	0.53	-0.112
Mof_N 	N 	0.664	0.3361	0.6639	-0.26
Mof_O 	O 	0.30328	0.8849	0.1656	-0.181
Mof_O 	O 	0.10197	0.0551	0.6693	-0.41
Mof_O 	O 	0.16058	0.1043	0.6125	-0.296
Mof_O 	O 	0.1011	0.0151	0.3966	-0.304
Mof_O 	O 	0.1299	0.1563	0.3345	-0.446
Mof_O 	O 	0.8886	0.0765	0.4133	-0.417
Mof_O 	O 	0.8354	0.0837	0.4905	-0.306
Mof_O 	O 	0.82482	0.205	0.6793	-0.321
Mof_O 	O 	0.8815	0.0778	0.7382	-0.414
Mof_O 	O 	0.6887	0.0456	0.437	-0.187
Mof_F 	F 	0.01253	0.5799	0.6569	-0.5
Mof_F 	F 	0.05492	0.4357	0.7143	-0.532
Mof_F 	F 	0.0655	0.5353	0.597	-0.506
Mof_F 	F 	0.98848	0.5758	0.431	-0.469
Mof_F 	F 	0.9313	0.5536	0.4944	-0.473
Mof_F 	F 	0.93458	0.4454	0.3758	-0.537
Mof_C 	C 	0.6662	0.2268	0.4167	-0.022
Mof_Zn	Zn	0.65151	0.45255	0.75428	1.213
Mof_Zn	Zn	0.34438	0.53743	0.82833	1.211
Mof_C 	C 	0.8648	0.1703	0.0195	0.119
Mof_H 	H 	0.8825	0.1124	0.0603	0.01
Mof_C 	C 	0.8197	0.2628	0.8923	0.038
Mof_H 	H 	0.7997	0.2819	0.8254	0.011
Mof_C 	C 	0.8296	0.3309	0.9744	0.004
Mof_H 	H 	0.8187	0.4033	0.9751	0.062
Mof_C 	C 	0.8794	0.3051	0.1658	-0.138
Mof_H 	H 	0.9046	0.2531	0.2042	0.113
Mof_H 	H 	0.8944	0.3775	0.1702	0.146
Mof_C 	C 	0.8427	0.3107	0.2135	0.055
Mof_H 	H 	0.8296	0.2368	0.2131	0.027
Mof_H 	H 	0.8587	0.3327	0.2851	0.059
Mof_C 	C 	0.8155	0.4952	0.1875	0.027
Mof_H 	H 	0.8408	0.5159	0.1618	0.061
Mof_H 	H 	0.8279	0.5068	0.2616	0.058
Mof_C 	C 	0.7714	0.5647	0.1373	-0.092
Mof_H 	H 	0.7454	0.5389	0.1588	0.064
Mof_H 	H 	0.7786	0.641	0.1602	0.084
Mof_C 	C 	0.7188	0.4986	0.9628	0.084
Mof_H 	H 	0.7011	0.4488	0.9864	0.01
Mof_C 	C 	0.7461	0.5915	0.8634	0.019
Mof_H 	H 	0.7503	0.6177	0.8043	0.029
Mof_C 	C 	0.7737	0.6215	0.9633	-0.013
Mof_H 	H 	0.7993	0.6717	0.9852	0.061
Mof_C 	C 	0.6173	0.6106	0.6076	0.261
Mof_C 	C 	0.5838	0.6918	0.5341	0.081
Mof_C 	C 	0.5545	0.7585	0.565	-0.222
Mof_H 	H 	0.553	0.7474	0.63	0.164
Mof_C 	C 	0.526	0.8442	0.5015	0.334
Mof_C 	C 	0.529	0.8574	0.4044	-0.241
Mof_H 	H 	0.5125	0.9155	0.3619	0.218
Mof_C 	C 	0.5565	0.7849	0.3707	0.127
Mof_H 	H 	0.5573	0.7939	0.3049	0.066
Mof_C 	C 	0.5828	0.6992	0.4328	-0.117
Mof_C 	C 	0.6076	0.6122	0.386	0.371
Mof_C 	C 	0.4965	0.9193	0.5447	-0.5
Mof_C 	C 	0.4623	0.8506	0.5839	0.34
Mof_C 	C 	0.4551	0.8779	0.675	-0.24
Mof_H 	H 	0.4719	0.9369	0.7157	0.219
Mof_C 	C 	0.4224	0.815	0.7037	0.14
Mof_H 	H 	0.4175	0.8325	0.7643	0.048
Mof_C 	C 	0.3971	0.7277	0.6443	-0.136
Mof_C 	C 	0.4035	0.7035	0.5541	0.082
Mof_C 	C 	0.4377	0.7633	0.5243	-0.233
Mof_H 	H 	0.4434	0.7434	0.4651	0.157
Mof_C 	C 	0.3646	0.6667	0.6868	0.36
Mof_C 	C 	0.3724	0.6143	0.4804	0.281
Mof_C 	C 	0.4631	0.9989	0.4599	0.948
Mof_C 	C 	0.5327	0.9935	0.6282	1.016
Mof_C 	C 	0.2748	0.4604	0.6305	0.085
Mof_H 	H 	0.2915	0.4987	0.5958	0.019
Mof_C 	C 	0.2525	0.3943	0.749	0.022
Mof_H 	H 	0.2509	0.3812	0.8136	0.03
Mof_C 	C 	0.2249	0.346	0.6633	-0.003
Mof_H 	H 	0.2014	0.2922	0.6565	0.063
Mof_C 	C 	0.2157	0.3661	0.4722	-0.087
Mof_H 	H 	0.2061	0.2888	0.4605	0.072
Mof_H 	H 	0.24	0.3801	0.4418	0.065
Mof_C 	C 	0.1716	0.4402	0.4211	0.031
Mof_H 	H 	0.1569	0.4244	0.3477	0.066
Mof_H 	H 	0.1474	0.4287	0.4521	0.07
Mof_C 	C 	0.1548	0.6279	0.3834	0.129
Mof_C 	C 	0.1191	0.6888	0.4208	0.097
Mof_C 	C 	0.1461	0.8304	0.5629	0.126
Mof_H 	H 	0.1263	0.8844	0.52	0.017
Mof_C 	C 	0.1887	0.7395	0.6982	0.03
Mof_H 	H 	0.2044	0.7201	0.7672	0.009
Mof_C 	C 	0.187	0.6763	0.6163	0.014
Mof_H 	H 	0.2008	0.6068	0.6172	0.061
Mof_N 	N 	0.8422	0.1643	0.918	-0.269
Mof_N 	N 	0.8589	0.2703	0.0563	-0.079
Mof_N 	N 	0.7548	0.5606	0.0236	-0.09
Mof_N 	N 	0.7111	0.516	0.8652	-0.261
Mof_N 	N 	0.2835	0.4661	0.7301	-0.261
Mof_N 	N 	0.2372	0.3891	0.5866	-0.096
Mof_N 	N 	0.1595	0.7398	0.53	-0.112
Mof_N 	N 	0.164	0.8361	0.6639	-0.26
Mof_O 	O 	0.80328	0.3849	0.1656	-0.182
Mof_O 	O 	0.60197	0.5551	0.6693	-0.407
Mof_O 	O 	0.66058	0.6043	0.6125	-0.295
Mof_O 	O 	0.6011	0.5151	0.3966	-0.303
Mof_O 	O 	0.6299	0.6563	0.3345	-0.446
Mof_O 	O 	0.3886	0.5765	0.4133	-0.419
Mof_O 	O 	0.3354	0.5837	0.4905	-0.306
Mof_O 	O 	0.32482	0.705	0.6793	-0.321
Mof_O 	O 	0.3815	0.5778	0.7382	-0.417
Mof_O 	O 	0.1887	0.5456	0.437	-0.188
Mof_F 	F 	0.51253	0.0799	0.6569	-0.496
Mof_F 	F 	0.55492	0.9357	0.7143	-0.532
Mof_F 	F 	0.5655	0.0353	0.597	-0.506
Mof_F 	F 	0.48848	0.0758	0.431	-0.477
Mof_F 	F 	0.4313	0.0536	0.4944	-0.475
Mof_F 	F 	0.43458	0.9454	0.3758	-0.54
Mof_C 	C 	0.1662	0.7268	0.4167	-0.022
Mof_Zn	Zn	0.15151	0.04745	0.25428	1.213
Mof_Zn	Zn	0.84438	0.96257	0.32833	1.211
Mof_C 	C 	0.3648	0.3297	0.5195	0.109
Mof_H 	H 	0.3825	0.3876	0.5603	0.009
Mof_C 	C 	0.3197	0.2372	0.3923	0.034
Mof_H 	H 	0.2997	0.2181	0.3254	0.013
Mof_C 	C 	0.3296	0.1691	0.4744	0.014
Mof_H 	H 	0.3187	0.0967	0.4751	0.061
Mof_C 	C 	0.3794	0.1949	0.6658	-0.136
Mof_H 	H 	0.4046	0.2469	0.7042	0.109
Mof_H 	H 	0.3944	0.1225	0.6702	0.143
Mof_C 	C 	0.3427	0.1893	0.7135	0.054
Mof_H 	H 	0.3296	0.2632	0.7131	0.027
Mof_H 	H 	0.3587	0.1673	0.7851	0.059
Mof_C 	C 	0.3155	0.0048	0.6875	0.029
Mof_H 	H 	0.3408	0.9841	0.6618	0.059
Mof_H 	H 	0.3279	0.9932	0.7616	0.057
Mof_C 	C 	0.2714	0.9353	0.6373	-0.092
Mof_H 	H 	0.2454	0.9611	0.6588	0.063
Mof_H 	H 	0.2786	0.859	0.6602	0.083
Mof_C 	C 	0.2188	0.0014	0.4628	0.094
Mof_H 	H 	0.2011	0.0512	0.4864	0.01
Mof_C 	C 	0.2461	0.9085	0.3634	0.015
Mof_H 	H 	0.2503	0.8823	0.3043	0.03
Mof_C 	C 	0.2737	0.8785	0.4633	-0.003
Mof_H 	H 	0.2993	0.8283	0.4852	0.061
Mof_C 	C 	0.1173	0.8894	0.1076	0.258
Mof_C 	C 	0.0838	0.8082	0.0341	0.091
Mof_C 	C 	0.0545	0.7415	0.065	-0.221
Mof_H 	H 	0.053	0.7526	0.13	0.16
Mof_C 	C 	0.026	0.6558	0.0015	0.324
Mof_C 	C 	0.029	0.6426	0.9044	-0.25
Mof_H 	H 	0.0125	0.5845	0.8619	0.213
Mof_C 	C 	0.0565	0.7151	0.8707	0.132
Mof_H 	H 	0.0573	0.7061	0.8049	0.062
Mof_C 	C 	0.0828	0.8008	0.9328	-0.131
Mof_C 	C 	0.1076	0.8878	0.886	0.374
Mof_C 	C 	0.9965	0.5807	0.0447	-0.466
Mof_C 	C 	0.9623	0.6494	0.0839	0.329
Mof_C 	C 	0.9551	0.6221	0.175	-0.23
Mof_H 	H 	0.9719	0.5631	0.2157	0.221
Mof_C 	C 	0.9224	0.685	0.2037	0.136
Mof_H 	H 	0.9175	0.6675	0.2643	0.051
Mof_C 	C 	0.8971	0.7723	0.1443	-0.131
Mof_C 	C 	0.9035	0.7965	0.0541	0.083
Mof_C 	C 	0.9377	0.7367	0.0243	-0.209
Mof_H 	H 	0.9434	0.7566	0.9651	0.146
Mof_C 	C 	0.8646	0.8333	0.1868	0.359
Mof_C 	C 	0.8724	0.8857	0.9804	0.276
Mof_C 	C 	0.9631	0.5011	0.9599	0.937
Mof_C 	C 	0.0327	0.5065	0.1282	0.998
Mof_C 	C 	0.7748	0.0396	0.1305	0.085
Mof_H 	H 	0.7915	0.0013	0.0958	0.022
Mof_C 	C 	0.7525	0.1057	0.249	0.022
Mof_H 	H 	0.7509	0.1188	0.3136	0.031
Mof_C 	C 	0.7249	0.154	0.1633	-0.003
Mof_H 	H 	0.7014	0.2078	0.1565	0.064
Mof_C 	C 	0.7157	0.1339	0.9722	-0.097
Mof_H 	H 	0.7061	0.2112	0.9605	0.073
Mof_H 	H 	0.74	0.1199	0.9418	0.067
Mof_C 	C 	0.6716	0.0598	0.9211	0.038
Mof_H 	H 	0.6569	0.0756	0.8477	0.065
Mof_H 	H 	0.6474	0.0713	0.9521	0.066
Mof_C 	C 	0.6548	0.8721	0.8834	0.131
Mof_C 	C 	0.6191	0.8112	0.9208	0.095
Mof_C 	C 	0.6461	0.6696	0.0629	0.127
Mof_H 	H 	0.6263	0.6156	0.02	0.021
Mof_C 	C 	0.6887	0.7605	0.1982	0.03
Mof_H 	H 	0.7044	0.7799	0.2672	0.009
Mof_C 	C 	0.687	0.8237	0.1163	0.015
Mof_H 	H 	0.7008	0.8932	0.1172	0.063
Mof_N 	N 	0.3422	0.3357	0.418	-0.264
Mof_N 	N 	0.3589	0.2297	0.5563	-0.083
Mof_N 	N 	0.2548	0.9394	0.5236	-0.099
Mof_N 	N 	0.2111	0.984	0.3652	-0.262
Mof_N 	N 	0.7835	0.0339	0.2301	-0.261
Mof_N 	N 	0.7372	0.1109	0.0866	-0.091
Mof_N 	N 	0.6595	0.7602	0.03	-0.108
Mof_N 	N 	0.664	0.6639	0.1639	-0.259
Mof_O 	O 	0.30328	0.1151	0.6656	-0.183
Mof_O 	O 	0.10197	0.9449	0.1693	-0.408
Mof_O 	O 	0.16058	0.8957	0.1125	-0.292
Mof_O 	O 	0.1011	0.9849	0.8966	-0.309
Mof_O 	O 	0.1299	0.8437	0.8345	-0.448
Mof_O 	O 	0.8886	0.9235	0.9133	-0.419
Mof_O 	O 	0.8354	0.9163	0.9905	-0.309
Mof_O 	O 	0.82482	0.795	0.1793	-0.32
Mof_O 	O 	0.8815	0.9222	0.2382	-0.413
Mof_O 	O 	0.6887	0.9544	0.937	-0.192
Mof_F 	F 	0.01253	0.4201	0.1569	-0.498
Mof_F 	F 	0.05492	0.5643	0.2143	-0.532
Mof_F 	F 	0.0655	0.4647	0.097	-0.504
Mof_F 	F 	0.98848	0.4242	0.931	-0.471
Mof_F 	F 	0.9313	0.4464	0.9944	-0.476
Mof_F 	F 	0.93458	0.5546	0.8758	-0.537
Mof_C 	C 	0.6662	0.7732	0.9167	-0.027
Mof_Zn	Zn	0.65151	0.54745	0.25428	1.213
Mof_Zn	Zn	0.34438	0.46257	0.32833	1.211
Mof_C 	C 	0.8648	0.8297	0.5195	0.109
Mof_H 	H 	0.8825	0.8876	0.5603	0.011
Mof_C 	C 	0.8197	0.7372	0.3923	0.034
Mof_H 	H 	0.7997	0.7181	0.3254	0.013
Mof_C 	C 	0.8296	0.6691	0.4744	0.014
Mof_H 	H 	0.8187	0.5967	0.4751	0.061
Mof_C 	C 	0.8794	0.6949	0.6658	-0.138
Mof_H 	H 	0.9046	0.7469	0.7042	0.112
Mof_H 	H 	0.8944	0.6225	0.6702	0.145
Mof_C 	C 	0.8427	0.6893	0.7135	0.055
Mof_H 	H 	0.8296	0.7632	0.7131	0.027
Mof_H 	H 	0.8587	0.6673	0.7851	0.059
Mof_C 	C 	0.8155	0.5048	0.6875	0.027
Mof_H 	H 	0.8408	0.4841	0.6618	0.06
Mof_H 	H 	0.8279	0.4932	0.7616	0.057
Mof_C 	C 	0.7714	0.4353	0.6373	-0.091
Mof_H 	H 	0.7454	0.4611	0.6588	0.063
Mof_H 	H 	0.7786	0.359	0.6602	0.082
Mof_C 	C 	0.7188	0.5014	0.4628	0.094
Mof_H 	H 	0.7011	0.5512	0.4864	0.01
Mof_C 	C 	0.7461	0.4085	0.3634	0.015
Mof_H 	H 	0.7503	0.3823	0.3043	0.03
Mof_C 	C 	0.7737	0.3785	0.4633	-0.003
Mof_H 	H 	0.7993	0.3283	0.4852	0.061
Mof_C 	C 	0.6173	0.3894	0.1076	0.256
Mof_C 	C 	0.5838	0.3082	0.0341	0.099
Mof_C 	C 	0.5545	0.2415	0.065	-0.235
Mof_H 	H 	0.553	0.2526	0.13	0.168
Mof_C 	C 	0.526	0.1558	0.0015	0.351
Mof_C 	C 	0.529	0.1426	0.9044	-0.264
Mof_H 	H 	0.5125	0.0845	0.8619	0.225
Mof_C 	C 	0.5565	0.2151	0.8707	0.144
Mof_H 	H 	0.5573	0.2061	0.8049	0.06
Mof_C 	C 	0.5828	0.3008	0.9328	-0.136
Mof_C 	C 	0.6076	0.3878	0.886	0.376
Mof_C 	C 	0.4965	0.0807	0.0447	-0.497
Mof_C 	C 	0.4623	0.1494	0.0839	0.334
Mof_C 	C 	0.4551	0.1221	0.175	-0.235
Mof_H 	H 	0.4719	0.0631	0.2157	0.218
Mof_C 	C 	0.4224	0.185	0.2037	0.138
Mof_H 	H 	0.4175	0.1675	0.2643	0.049
Mof_C 	C 	0.3971	0.2723	0.1443	-0.134
Mof_C 	C 	0.4035	0.2965	0.0541	0.084
Mof_C 	C 	0.4377	0.2367	0.0243	-0.216
Mof_H 	H 	0.4434	0.2566	0.9651	0.146
Mof_C 	C 	0.3646	0.3333	0.1868	0.36
Mof_C 	C 	0.3724	0.3857	0.9804	0.276
Mof_C 	C 	0.4631	0.0011	0.9599	0.943
Mof_C 	C 	0.5327	0.0065	0.1282	1.017
Mof_C 	C 	0.2748	0.5396	0.1305	0.085
Mof_H 	H 	0.2915	0.5013	0.0958	0.022
Mof_C 	C 	0.2525	0.6057	0.249	0.022
Mof_H 	H 	0.2509	0.6188	0.3136	0.031
Mof_C 	C 	0.2249	0.654	0.1633	-0.003
Mof_H 	H 	0.2014	0.7078	0.1565	0.064
Mof_C 	C 	0.2157	0.6339	0.9722	-0.097
Mof_H 	H 	0.2061	0.7112	0.9605	0.073
Mof_H 	H 	0.24	0.6199	0.9418	0.067
Mof_C 	C 	0.1716	0.5598	0.9211	0.037
Mof_H 	H 	0.1569	0.5756	0.8477	0.064
Mof_H 	H 	0.1474	0.5713	0.9521	0.066
Mof_C 	C 	0.1548	0.3721	0.8834	0.131
Mof_C 	C 	0.1191	0.3112	0.9208	0.092
Mof_C 	C 	0.1461	0.1696	0.0629	0.127
Mof_H 	H 	0.1263	0.1156	0.02	0.021
Mof_C 	C 	0.1887	0.2605	0.1982	0.03
Mof_H 	H 	0.2044	0.2799	0.2672	0.009
Mof_C 	C 	0.187	0.3237	0.1163	0.015
Mof_H 	H 	0.2008	0.3932	0.1172	0.063
Mof_N 	N 	0.8422	0.8357	0.418	-0.263
Mof_N 	N 	0.8589	0.7297	0.5563	-0.083
Mof_N 	N 	0.7548	0.4394	0.5236	-0.099
Mof_N 	N 	0.7111	0.484	0.3652	-0.262
Mof_N 	N 	0.2835	0.5339	0.2301	-0.261
Mof_N 	N 	0.2372	0.6109	0.0866	-0.091
Mof_N 	N 	0.1595	0.2602	0.03	-0.108
Mof_N 	N 	0.164	0.1639	0.1639	-0.26
Mof_O 	O 	0.80328	0.6151	0.6656	-0.183
Mof_O 	O 	0.60197	0.4449	0.1693	-0.405
Mof_O 	O 	0.66058	0.3957	0.1125	-0.291
Mof_O 	O 	0.6011	0.4849	0.8966	-0.307
Mof_O 	O 	0.6299	0.3437	0.8345	-0.448
Mof_O 	O 	0.3886	0.4235	0.9133	-0.42
Mof_O 	O 	0.3354	0.4163	0.9905	-0.309
Mof_O 	O 	0.32482	0.295	0.1793	-0.32
Mof_O 	O 	0.3815	0.4222	0.2382	-0.415
Mof_O 	O 	0.1887	0.4544	0.937	-0.192
Mof_F 	F 	0.51253	0.9201	0.1569	-0.494
Mof_F 	F 	0.55492	0.0643	0.2143	-0.532
Mof_F 	F 	0.5655	0.9647	0.097	-0.505
Mof_F 	F 	0.48848	0.9242	0.931	-0.479
Mof_F 	F 	0.4313	0.9464	0.9944	-0.478
Mof_F 	F 	0.43458	0.0546	0.8758	-0.541
Mof_C 	C 	0.1662	0.2732	0.9167	-0.026
_end
