data_functionalizedCrystal
_audit_creation_method	'EQeq! by Chris Wilmer'
_symmetry_space_group_name_H-M	'P1'
_symmetry_Int_Tables_number	1
_symmetry_cell_setting	triclinic
loop_
_symmetry_equiv_pos_as_xyz
  x,y,z
_cell_length_a	20.27
_cell_length_b	16.336
_cell_length_c	24.664
_cell_angle_alpha	90
_cell_angle_beta	101.671
_cell_angle_gamma	90
loop_
_atom_site_label
_atom_site_type_symbol
_atom_site_fract_x
_atom_site_fract_y
_atom_site_fract_z
_atom_site_charge
Mof_Co	Co	0.13335	0.75376	0.1	1.183
Mof_Co	Co	0.30033	0.76655	0.10662	1.188
Mof_Co	Co	0.18867	0.86937	0.01175	1.167
Mof_O 	O 	0.20787	0.76615	0.05416	-0.828
Mof_H 	H 	0.2057	0.7262	0.0318	0.257
Mof_O 	O 	0.33507	0.341	0.34093	-0.442
Mof_O 	O 	0.22557	0.3517	0.34107	-0.444
Mof_O 	O 	0.2879	0.6732	0.1578	-0.438
Mof_O 	O 	0.17698	0.6583	0.14792	-0.435
Mof_C 	C 	0.2778	0.3696	0.324	0.383
Mof_C 	C 	0.2361	0.6374	0.16579	0.38
Mof_C 	C 	0.2693	0.4334	0.2796	-0.093
Mof_C 	C 	0.2486	0.5629	0.2027	-0.086
Mof_C 	C 	0.3006	0.501	0.2912	-0.009
Mof_H 	H 	0.3289	0.5051	0.3259	0.03
Mof_C 	C 	0.2968	0.5732	0.256	0.018
Mof_H 	H 	0.3218	0.6205	0.2658	0.004
Mof_C 	C 	0.2186	0.4853	0.1862	-0.032
Mof_C 	C 	0.177	0.4738	0.1339	-0.195
Mof_H 	H 	0.1706	0.5162	0.1082	0.108
Mof_C 	C 	0.1463	0.4006	0.121	-0.152
Mof_H 	H 	0.1179	0.3936	0.0867	0.086
Mof_C 	C 	0.1564	0.3358	0.1584	0.204
Mof_H 	H 	0.137	0.2852	0.1476	-0.053
Mof_C 	C 	0.1937	0.3449	0.2097	0.072
Mof_H 	H 	0.198	0.3023	0.2352	-0.062
Mof_C 	C 	0.2258	0.4198	0.2238	0.053
Mof_O 	O 	0.57991	0.3561	0.05162	-0.448
Mof_O 	O 	0.64462	0.46	0.0423	-0.449
Mof_O 	O 	0.34713	0.67929	0.06192	-0.557
Mof_O 	O 	0.41413	0.7296	0.13456	-0.337
Mof_C 	C 	0.5919	0.4309	0.05456	0.354
Mof_C 	C 	0.4041	0.6793	0.09694	0.352
Mof_C 	C 	0.5429	0.4915	0.07102	-0.089
Mof_C 	C 	0.4538	0.614	0.09054	-0.114
Mof_C 	C 	0.5538	0.5732	0.0597	-0.005
Mof_H 	H 	0.5915	0.5868	0.0454	0.031
Mof_C 	C 	0.5105	0.6352	0.069	0.01
Mof_H 	H 	0.5188	0.6894	0.0611	0.012
Mof_C 	C 	0.4417	0.535	0.101	0.001
Mof_C 	C 	0.3841	0.5131	0.1258	-0.031
Mof_H 	H 	0.3561	0.5545	0.134	0.049
Mof_C 	C 	0.3705	0.4345	0.1372	-0.013
Mof_H 	H 	0.331	0.4213	0.149	0.032
Mof_C 	C 	0.4163	0.3737	0.1309	0.002
Mof_H 	H 	0.4092	0.3211	0.143	0.035
Mof_C 	C 	0.4725	0.3875	0.1076	-0.016
Mof_H 	H 	0.4996	0.3449	0.0998	0.024
Mof_C 	C 	0.4856	0.4694	0.0965	0.022
Mof_O 	O 	0.0791	0.6684	0.04261	-0.386
Mof_O 	O 	0.03827	0.7085	0.11292	-0.361
Mof_O 	O 	0.84088	0.3613	0.07122	-0.456
Mof_O 	O 	0.77341	0.4175	3e-05	-0.482
Mof_C 	C 	0.035	0.6646	0.0706	0.31
Mof_C 	C 	0.8268	0.4163	0.03651	0.398
Mof_C 	C 	0.9788	0.6034	0.0565	-0.078
Mof_C 	C 	0.8773	0.4842	0.03881	-0.109
Mof_C 	C 	0.9902	0.5266	0.0855	-0.123
Mof_H 	H 	0.0305	0.5163	0.1101	0.073
Mof_C 	C 	0.939	0.4681	0.0757	-0.068
Mof_H 	H 	0.9455	0.4178	0.0937	0.067
Mof_C 	C 	0.8665	0.5608	0.0126	-0.046
Mof_C 	C 	0.8066	0.5826	0.9773	-0.136
Mof_H 	H 	0.7707	0.546	0.9714	0.085
Mof_C 	C 	0.7997	0.6551	0.9519	0.054
Mof_H 	H 	0.7606	0.6667	0.9261	0.008
Mof_C 	C 	0.9097	0.6975	0.999	-0.113
Mof_H 	H 	0.9437	0.7366	0.0071	0.066
Mof_C 	C 	0.8527	0.7157	0.9642	-0.021
Mof_H 	H 	0.8468	0.7671	0.9477	0.031
Mof_C 	C 	0.9193	0.6201	0.0236	-0.041
Mof_C 	C 	0.3119	0.5035	0.285	0.004
Mof_H 	H 	0.3469	0.5106	0.3155	0.015
Mof_C 	C 	0.2985	0.5622	0.2418	-0.043
Mof_H 	H 	0.3299	0.6039	0.2425	0.055
Mof_C 	C 	0.2022	0.4946	0.1954	0.059
Mof_C 	C 	0.1486	0.4836	0.1493	0.147
Mof_H 	H 	0.1399	0.5242	0.1223	-0.024
Mof_C 	C 	0.1083	0.4134	0.1434	0.067
Mof_H 	H 	0.0697	0.411	0.1156	0.002
Mof_C 	C 	0.1259	0.3473	0.1788	-0.261
Mof_H 	H 	0.1038	0.2974	0.171	0.124
Mof_C 	C 	0.1763	0.3557	0.2256	-0.098
Mof_H 	H 	0.1848	0.3126	0.2507	0.123
Mof_C 	C 	0.2152	0.4285	0.2363	-0.023
Mof_C 	C 	0.5611	0.5733	0.0734	-0.012
Mof_H 	H 	0.6034	0.5885	0.0678	0.024
Mof_C 	C 	0.5159	0.6337	0.0843	-0.015
Mof_H 	H 	0.5294	0.6882	0.0872	0.03
Mof_C 	C 	0.4327	0.5271	0.0936	0.03
Mof_C 	C 	0.3709	0.5059	0.1049	-0.037
Mof_H 	H 	0.3417	0.5466	0.1118	0.016
Mof_C 	C 	0.3526	0.4272	0.106	-0.024
Mof_H 	H 	0.3116	0.4134	0.1148	0.027
Mof_C 	C 	0.3964	0.3654	0.0938	-0.054
Mof_H 	H 	0.384	0.3106	0.0935	0.043
Mof_C 	C 	0.4557	0.3876	0.0828	-0.04
Mof_H 	H 	0.4846	0.3456	0.0771	0.049
Mof_C 	C 	0.4789	0.4687	0.0789	0.014
Mof_C 	C 	0.993	0.5229	0.053	0.09
Mof_H 	H 	0.0372	0.5069	0.0537	0.006
Mof_C 	C 	0.9423	0.4626	0.0482	0.052
Mof_H 	H 	0.9541	0.4076	0.0516	0.026
Mof_C 	C 	0.8587	0.5683	0.0303	0.093
Mof_C 	C 	0.7926	0.5952	0.0089	0.045
Mof_H 	H 	0.7571	0.5581	0.0045	0.003
Mof_C 	C 	0.7801	0.6761	0.9942	-0.092
Mof_H 	H 	0.7364	0.6921	0.9782	0.055
Mof_C 	C 	0.8309	0.7338	0.0029	-0.047
Mof_H 	H 	0.8216	0.7878	0.9921	0.037
Mof_C 	C 	0.893	0.7117	0.0265	0.045
Mof_H 	H 	0.9264	0.7514	0.0351	0.005
Mof_C 	C 	0.9094	0.6281	0.0389	0.07
Mof_Co	Co	0.63335	0.25376	0.1	1.184
Mof_Co	Co	0.80033	0.26655	0.10662	1.189
Mof_Co	Co	0.68867	0.36937	0.01175	1.168
Mof_O 	O 	0.70787	0.26615	0.05416	-0.827
Mof_H 	H 	0.7057	0.2262	0.0318	0.258
Mof_O 	O 	0.83507	0.841	0.34093	-0.441
Mof_O 	O 	0.72557	0.8517	0.34107	-0.443
Mof_O 	O 	0.7879	0.1732	0.1578	-0.437
Mof_O 	O 	0.67698	0.1583	0.14792	-0.434
Mof_C 	C 	0.7778	0.8696	0.324	0.384
Mof_C 	C 	0.7361	0.1374	0.16579	0.381
Mof_C 	C 	0.7693	0.9334	0.2796	-0.092
Mof_C 	C 	0.7486	0.0629	0.2027	-0.086
Mof_C 	C 	0.8006	0.001	0.2912	-0.008
Mof_H 	H 	0.8289	0.0051	0.3259	0.031
Mof_C 	C 	0.7968	0.0732	0.256	0.019
Mof_H 	H 	0.8218	0.1205	0.2658	0.005
Mof_C 	C 	0.7186	0.9853	0.1862	-0.03
Mof_C 	C 	0.677	0.9738	0.1339	-0.192
Mof_H 	H 	0.6706	0.0162	0.1082	0.108
Mof_C 	C 	0.6463	0.9006	0.121	-0.151
Mof_H 	H 	0.6179	0.8936	0.0867	0.086
Mof_C 	C 	0.6564	0.8358	0.1584	0.202
Mof_H 	H 	0.637	0.7852	0.1476	-0.052
Mof_C 	C 	0.6937	0.8449	0.2097	0.072
Mof_H 	H 	0.698	0.8023	0.2352	-0.062
Mof_C 	C 	0.7258	0.9198	0.2238	0.053
Mof_O 	O 	0.07991	0.8561	0.05162	-0.448
Mof_O 	O 	0.14462	0.96	0.0423	-0.449
Mof_O 	O 	0.84713	0.17929	0.06192	-0.558
Mof_O 	O 	0.91413	0.2296	0.13456	-0.337
Mof_C 	C 	0.0919	0.9309	0.05456	0.354
Mof_C 	C 	0.9041	0.1793	0.09694	0.352
Mof_C 	C 	0.0429	0.9915	0.07102	-0.09
Mof_C 	C 	0.9538	0.114	0.09054	-0.114
Mof_C 	C 	0.0538	0.0732	0.0597	-0.005
Mof_H 	H 	0.0915	0.0868	0.0454	0.03
Mof_C 	C 	0.0105	0.1352	0.069	0.01
Mof_H 	H 	0.0188	0.1894	0.0611	0.012
Mof_C 	C 	0.9417	0.035	0.101	0.001
Mof_C 	C 	0.8841	0.0131	0.1258	-0.031
Mof_H 	H 	0.8561	0.0545	0.134	0.049
Mof_C 	C 	0.8705	0.9345	0.1372	-0.013
Mof_H 	H 	0.831	0.9213	0.149	0.032
Mof_C 	C 	0.9163	0.8737	0.1309	0.002
Mof_H 	H 	0.9092	0.8211	0.143	0.035
Mof_C 	C 	0.9725	0.8875	0.1076	-0.016
Mof_H 	H 	0.9996	0.8449	0.0998	0.024
Mof_C 	C 	0.9856	0.9694	0.0965	0.022
Mof_O 	O 	0.5791	0.1684	0.04261	-0.386
Mof_O 	O 	0.53827	0.2085	0.11292	-0.361
Mof_O 	O 	0.34088	0.8613	0.07122	-0.456
Mof_O 	O 	0.27341	0.9175	3e-05	-0.482
Mof_C 	C 	0.535	0.1646	0.0706	0.311
Mof_C 	C 	0.3268	0.9163	0.03651	0.398
Mof_C 	C 	0.4788	0.1034	0.0565	-0.078
Mof_C 	C 	0.3773	0.9842	0.03881	-0.109
Mof_C 	C 	0.4902	0.0266	0.0855	-0.116
Mof_H 	H 	0.5305	0.0163	0.1101	0.07
Mof_C 	C 	0.439	0.9681	0.0757	-0.063
Mof_H 	H 	0.4455	0.9178	0.0937	0.066
Mof_C 	C 	0.3665	0.0608	0.0126	-0.036
Mof_C 	C 	0.3066	0.0826	0.9773	-0.126
Mof_H 	H 	0.2707	0.046	0.9714	0.081
Mof_C 	C 	0.2997	0.1551	0.9519	0.046
Mof_H 	H 	0.2606	0.1667	0.9261	0.01
Mof_C 	C 	0.4097	0.1975	0.999	-0.101
Mof_H 	H 	0.4437	0.2366	0.0071	0.061
Mof_C 	C 	0.3527	0.2157	0.9642	-0.024
Mof_H 	H 	0.3468	0.2671	0.9477	0.032
Mof_C 	C 	0.4193	0.1201	0.0236	-0.031
Mof_C 	C 	0.8119	0.0035	0.285	0.004
Mof_H 	H 	0.8469	0.0106	0.3155	0.015
Mof_C 	C 	0.7985	0.0622	0.2418	-0.043
Mof_H 	H 	0.8299	0.1039	0.2425	0.055
Mof_C 	C 	0.7022	0.9946	0.1954	0.059
Mof_C 	C 	0.6486	0.9836	0.1493	0.146
Mof_H 	H 	0.6399	0.0242	0.1223	-0.024
Mof_C 	C 	0.6083	0.9134	0.1434	0.067
Mof_H 	H 	0.5697	0.911	0.1156	0.003
Mof_C 	C 	0.6259	0.8473	0.1788	-0.26
Mof_H 	H 	0.6038	0.7974	0.171	0.123
Mof_C 	C 	0.6763	0.8557	0.2256	-0.098
Mof_H 	H 	0.6848	0.8126	0.2507	0.122
Mof_C 	C 	0.7152	0.9285	0.2363	-0.024
Mof_C 	C 	0.0611	0.0733	0.0734	-0.012
Mof_H 	H 	0.1034	0.0885	0.0678	0.024
Mof_C 	C 	0.0159	0.1337	0.0843	-0.015
Mof_H 	H 	0.0294	0.1882	0.0872	0.03
Mof_C 	C 	0.9327	0.0271	0.0936	0.03
Mof_C 	C 	0.8709	0.0059	0.1049	-0.037
Mof_H 	H 	0.8417	0.0466	0.1118	0.016
Mof_C 	C 	0.8526	0.9272	0.106	-0.023
Mof_H 	H 	0.8116	0.9134	0.1148	0.026
Mof_C 	C 	0.8964	0.8654	0.0938	-0.054
Mof_H 	H 	0.884	0.8106	0.0935	0.043
Mof_C 	C 	0.9557	0.8876	0.0828	-0.04
Mof_H 	H 	0.9846	0.8456	0.0771	0.049
Mof_C 	C 	0.9789	0.9687	0.0789	0.014
Mof_C 	C 	0.493	0.0229	0.053	0.083
Mof_H 	H 	0.5372	0.0069	0.0537	0.008
Mof_C 	C 	0.4423	0.9626	0.0482	0.048
Mof_H 	H 	0.4541	0.9076	0.0516	0.027
Mof_C 	C 	0.3587	0.0683	0.0303	0.082
Mof_C 	C 	0.2926	0.0952	0.0089	0.035
Mof_H 	H 	0.2571	0.0581	0.0045	0.007
Mof_C 	C 	0.2801	0.1761	0.9942	-0.084
Mof_H 	H 	0.2364	0.1921	0.9782	0.053
Mof_C 	C 	0.3309	0.2338	0.0029	-0.045
Mof_H 	H 	0.3216	0.2878	0.9921	0.036
Mof_C 	C 	0.393	0.2117	0.0265	0.034
Mof_H 	H 	0.4264	0.2514	0.0351	0.009
Mof_C 	C 	0.4094	0.1281	0.0389	0.06
Mof_Co	Co	0.86665	0.75376	0.4	1.184
Mof_Co	Co	0.69967	0.76655	0.39338	1.189
Mof_Co	Co	0.81133	0.86937	0.48825	1.168
Mof_O 	O 	0.79213	0.76615	0.44584	-0.827
Mof_H 	H 	0.7943	0.7262	0.4682	0.258
Mof_O 	O 	0.66493	0.341	0.15907	-0.441
Mof_O 	O 	0.77443	0.3517	0.15893	-0.443
Mof_O 	O 	0.7121	0.6732	0.3422	-0.437
Mof_O 	O 	0.82302	0.6583	0.35208	-0.434
Mof_C 	C 	0.7222	0.3696	0.176	0.384
Mof_C 	C 	0.7639	0.6374	0.33421	0.381
Mof_C 	C 	0.7307	0.4334	0.2204	-0.092
Mof_C 	C 	0.7514	0.5629	0.2973	-0.085
Mof_C 	C 	0.6994	0.501	0.2088	-0.008
Mof_H 	H 	0.6711	0.5051	0.1741	0.031
Mof_C 	C 	0.7032	0.5732	0.244	0.019
Mof_H 	H 	0.6782	0.6205	0.2342	0.005
Mof_C 	C 	0.7814	0.4853	0.3138	-0.031
Mof_C 	C 	0.823	0.4738	0.3661	-0.194
Mof_H 	H 	0.8294	0.5162	0.3918	0.109
Mof_C 	C 	0.8537	0.4006	0.379	-0.152
Mof_H 	H 	0.8821	0.3936	0.4133	0.086
Mof_C 	C 	0.8436	0.3358	0.3416	0.203
Mof_H 	H 	0.863	0.2852	0.3524	-0.053
Mof_C 	C 	0.8063	0.3449	0.2903	0.072
Mof_H 	H 	0.802	0.3023	0.2648	-0.062
Mof_C 	C 	0.7742	0.4198	0.2762	0.053
Mof_O 	O 	0.42009	0.3561	0.44838	-0.448
Mof_O 	O 	0.35538	0.46	0.4577	-0.449
Mof_O 	O 	0.65287	0.67929	0.43808	-0.557
Mof_O 	O 	0.58587	0.7296	0.36544	-0.337
Mof_C 	C 	0.4081	0.4309	0.44544	0.354
Mof_C 	C 	0.5959	0.6793	0.40306	0.352
Mof_C 	C 	0.4571	0.4915	0.42898	-0.089
Mof_C 	C 	0.5462	0.614	0.40946	-0.114
Mof_C 	C 	0.4462	0.5732	0.4403	-0.005
Mof_H 	H 	0.4085	0.5868	0.4546	0.03
Mof_C 	C 	0.4895	0.6352	0.431	0.01
Mof_H 	H 	0.4812	0.6894	0.4389	0.012
Mof_C 	C 	0.5583	0.535	0.399	0.001
Mof_C 	C 	0.6159	0.5131	0.3742	-0.031
Mof_H 	H 	0.6439	0.5545	0.366	0.049
Mof_C 	C 	0.6295	0.4345	0.3628	-0.013
Mof_H 	H 	0.669	0.4213	0.351	0.032
Mof_C 	C 	0.5837	0.3737	0.3691	0.002
Mof_H 	H 	0.5908	0.3211	0.357	0.035
Mof_C 	C 	0.5275	0.3875	0.3924	-0.016
Mof_H 	H 	0.5004	0.3449	0.4002	0.024
Mof_C 	C 	0.5144	0.4694	0.4035	0.022
Mof_O 	O 	0.9209	0.6684	0.45739	-0.386
Mof_O 	O 	0.96173	0.7085	0.38708	-0.361
Mof_O 	O 	0.15912	0.3613	0.42878	-0.456
Mof_O 	O 	0.22659	0.4175	0.49997	-0.482
Mof_C 	C 	0.965	0.6646	0.4294	0.31
Mof_C 	C 	0.1732	0.4163	0.46349	0.398
Mof_C 	C 	0.0212	0.6034	0.4435	-0.078
Mof_C 	C 	0.1227	0.4842	0.46119	-0.109
Mof_C 	C 	0.0098	0.5266	0.4145	-0.121
Mof_H 	H 	0.9695	0.5163	0.3899	0.072
Mof_C 	C 	0.061	0.4681	0.4243	-0.066
Mof_H 	H 	0.0545	0.4178	0.4063	0.067
Mof_C 	C 	0.1335	0.5608	0.4874	-0.043
Mof_C 	C 	0.1934	0.5826	0.5227	-0.133
Mof_H 	H 	0.2293	0.546	0.5286	0.084
Mof_C 	C 	0.2003	0.6551	0.5481	0.051
Mof_H 	H 	0.2394	0.6667	0.5739	0.009
Mof_C 	C 	0.0903	0.6975	0.501	-0.109
Mof_H 	H 	0.0563	0.7366	0.4929	0.064
Mof_C 	C 	0.1473	0.7157	0.5358	-0.022
Mof_H 	H 	0.1532	0.7671	0.5523	0.031
Mof_C 	C 	0.0807	0.6201	0.4764	-0.037
Mof_C 	C 	0.6881	0.5035	0.215	0.004
Mof_H 	H 	0.6531	0.5106	0.1845	0.015
Mof_C 	C 	0.7015	0.5622	0.2582	-0.043
Mof_H 	H 	0.6701	0.6039	0.2575	0.055
Mof_C 	C 	0.7978	0.4946	0.3046	0.059
Mof_C 	C 	0.8514	0.4836	0.3507	0.147
Mof_H 	H 	0.8601	0.5242	0.3777	-0.024
Mof_C 	C 	0.8917	0.4134	0.3566	0.067
Mof_H 	H 	0.9303	0.411	0.3844	0.002
Mof_C 	C 	0.8741	0.3473	0.3212	-0.261
Mof_H 	H 	0.8962	0.2974	0.329	0.123
Mof_C 	C 	0.8237	0.3557	0.2744	-0.098
Mof_H 	H 	0.8152	0.3126	0.2493	0.123
Mof_C 	C 	0.7848	0.4285	0.2637	-0.024
Mof_C 	C 	0.4389	0.5733	0.4266	-0.012
Mof_H 	H 	0.3966	0.5885	0.4322	0.024
Mof_C 	C 	0.4841	0.6337	0.4157	-0.015
Mof_H 	H 	0.4706	0.6882	0.4128	0.03
Mof_C 	C 	0.5673	0.5271	0.4064	0.03
Mof_C 	C 	0.6291	0.5059	0.3951	-0.037
Mof_H 	H 	0.6583	0.5466	0.3882	0.016
Mof_C 	C 	0.6474	0.4272	0.394	-0.024
Mof_H 	H 	0.6884	0.4134	0.3852	0.027
Mof_C 	C 	0.6036	0.3654	0.4062	-0.054
Mof_H 	H 	0.616	0.3106	0.4065	0.043
Mof_C 	C 	0.5443	0.3876	0.4172	-0.04
Mof_H 	H 	0.5154	0.3456	0.4229	0.049
Mof_C 	C 	0.5211	0.4687	0.4211	0.014
Mof_C 	C 	0.007	0.5229	0.447	0.087
Mof_H 	H 	0.9628	0.5069	0.4463	0.007
Mof_C 	C 	0.0577	0.4626	0.4518	0.051
Mof_H 	H 	0.0459	0.4076	0.4484	0.026
Mof_C 	C 	0.1413	0.5683	0.4697	0.09
Mof_C 	C 	0.2074	0.5952	0.4911	0.042
Mof_H 	H 	0.2429	0.5581	0.4955	0.004
Mof_C 	C 	0.2199	0.6761	0.5058	-0.089
Mof_H 	H 	0.2636	0.6921	0.5218	0.054
Mof_C 	C 	0.1691	0.7338	0.4971	-0.047
Mof_H 	H 	0.1784	0.7878	0.5079	0.037
Mof_C 	C 	0.107	0.7117	0.4735	0.041
Mof_H 	H 	0.0736	0.7514	0.4649	0.006
Mof_C 	C 	0.0906	0.6281	0.4611	0.066
Mof_Co	Co	0.36665	0.25376	0.4	1.184
Mof_Co	Co	0.19967	0.26655	0.39338	1.189
Mof_Co	Co	0.31133	0.36937	0.48825	1.168
Mof_O 	O 	0.29213	0.26615	0.44584	-0.827
Mof_H 	H 	0.2943	0.2262	0.4682	0.258
Mof_O 	O 	0.16493	0.841	0.15907	-0.441
Mof_O 	O 	0.27443	0.8517	0.15893	-0.443
Mof_O 	O 	0.2121	0.1732	0.3422	-0.437
Mof_O 	O 	0.32302	0.1583	0.35208	-0.434
Mof_C 	C 	0.2222	0.8696	0.176	0.384
Mof_C 	C 	0.2639	0.1374	0.33421	0.381
Mof_C 	C 	0.2307	0.9334	0.2204	-0.092
Mof_C 	C 	0.2514	0.0629	0.2973	-0.086
Mof_C 	C 	0.1994	0.001	0.2088	-0.008
Mof_H 	H 	0.1711	0.0051	0.1741	0.031
Mof_C 	C 	0.2032	0.0732	0.244	0.019
Mof_H 	H 	0.1782	0.1205	0.2342	0.005
Mof_C 	C 	0.2814	0.9853	0.3138	-0.031
Mof_C 	C 	0.323	0.9738	0.3661	-0.194
Mof_H 	H 	0.3294	0.0162	0.3918	0.109
Mof_C 	C 	0.3537	0.9006	0.379	-0.152
Mof_H 	H 	0.3821	0.8936	0.4133	0.086
Mof_C 	C 	0.3436	0.8358	0.3416	0.203
Mof_H 	H 	0.363	0.7852	0.3524	-0.053
Mof_C 	C 	0.3063	0.8449	0.2903	0.072
Mof_H 	H 	0.302	0.8023	0.2648	-0.062
Mof_C 	C 	0.2742	0.9198	0.2762	0.053
Mof_O 	O 	0.92009	0.8561	0.44838	-0.448
Mof_O 	O 	0.85538	0.96	0.4577	-0.449
Mof_O 	O 	0.15287	0.17929	0.43808	-0.558
Mof_O 	O 	0.08587	0.2296	0.36544	-0.338
Mof_C 	C 	0.9081	0.9309	0.44544	0.354
Mof_C 	C 	0.0959	0.1793	0.40306	0.352
Mof_C 	C 	0.9571	0.9915	0.42898	-0.089
Mof_C 	C 	0.0462	0.114	0.40946	-0.114
Mof_C 	C 	0.9462	0.0732	0.4403	-0.005
Mof_H 	H 	0.9085	0.0868	0.4546	0.03
Mof_C 	C 	0.9895	0.1352	0.431	0.01
Mof_H 	H 	0.9812	0.1894	0.4389	0.012
Mof_C 	C 	0.0583	0.035	0.399	0.001
Mof_C 	C 	0.1159	0.0131	0.3742	-0.031
Mof_H 	H 	0.1439	0.0545	0.366	0.049
Mof_C 	C 	0.1295	0.9345	0.3628	-0.013
Mof_H 	H 	0.169	0.9213	0.351	0.032
Mof_C 	C 	0.0837	0.8737	0.3691	0.002
Mof_H 	H 	0.0908	0.8211	0.357	0.035
Mof_C 	C 	0.0275	0.8875	0.3924	-0.016
Mof_H 	H 	0.0004	0.8449	0.4002	0.024
Mof_C 	C 	0.0144	0.9694	0.4035	0.022
Mof_O 	O 	0.4209	0.1684	0.45739	-0.386
Mof_O 	O 	0.46173	0.2085	0.38708	-0.361
Mof_O 	O 	0.65912	0.8613	0.42878	-0.456
Mof_O 	O 	0.72659	0.9175	0.49997	-0.482
Mof_C 	C 	0.465	0.1646	0.4294	0.311
Mof_C 	C 	0.6732	0.9163	0.46349	0.398
Mof_C 	C 	0.5212	0.1034	0.4435	-0.078
Mof_C 	C 	0.6227	0.9842	0.46119	-0.109
Mof_C 	C 	0.5098	0.0266	0.4145	-0.12
Mof_H 	H 	0.4695	0.0163	0.3899	0.072
Mof_C 	C 	0.561	0.9681	0.4243	-0.066
Mof_H 	H 	0.5545	0.9178	0.4063	0.067
Mof_C 	C 	0.6335	0.0608	0.4874	-0.043
Mof_C 	C 	0.6934	0.0826	0.5227	-0.133
Mof_H 	H 	0.7293	0.046	0.5286	0.084
Mof_C 	C 	0.7003	0.1551	0.5481	0.051
Mof_H 	H 	0.7394	0.1667	0.5739	0.009
Mof_C 	C 	0.5903	0.1975	0.501	-0.109
Mof_H 	H 	0.5563	0.2366	0.4929	0.064
Mof_C 	C 	0.6473	0.2157	0.5358	-0.022
Mof_H 	H 	0.6532	0.2671	0.5523	0.031
Mof_C 	C 	0.5807	0.1201	0.4764	-0.037
Mof_C 	C 	0.1881	0.0035	0.215	0.004
Mof_H 	H 	0.1531	0.0106	0.1845	0.015
Mof_C 	C 	0.2015	0.0622	0.2582	-0.043
Mof_H 	H 	0.1701	0.1039	0.2575	0.055
Mof_C 	C 	0.2978	0.9946	0.3046	0.059
Mof_C 	C 	0.3514	0.9836	0.3507	0.147
Mof_H 	H 	0.3601	0.0242	0.3777	-0.024
Mof_C 	C 	0.3917	0.9134	0.3566	0.067
Mof_H 	H 	0.4303	0.911	0.3844	0.002
Mof_C 	C 	0.3741	0.8473	0.3212	-0.261
Mof_H 	H 	0.3962	0.7974	0.329	0.123
Mof_C 	C 	0.3237	0.8557	0.2744	-0.098
Mof_H 	H 	0.3152	0.8126	0.2493	0.123
Mof_C 	C 	0.2848	0.9285	0.2637	-0.024
Mof_C 	C 	0.9389	0.0733	0.4266	-0.012
Mof_H 	H 	0.8966	0.0885	0.4322	0.024
Mof_C 	C 	0.9841	0.1337	0.4157	-0.015
Mof_H 	H 	0.9706	0.1882	0.4128	0.03
Mof_C 	C 	0.0673	0.0271	0.4064	0.03
Mof_C 	C 	0.1291	0.0059	0.3951	-0.037
Mof_H 	H 	0.1583	0.0466	0.3882	0.016
Mof_C 	C 	0.1474	0.9272	0.394	-0.024
Mof_H 	H 	0.1884	0.9134	0.3852	0.027
Mof_C 	C 	0.1036	0.8654	0.4062	-0.054
Mof_H 	H 	0.116	0.8106	0.4065	0.043
Mof_C 	C 	0.0443	0.8876	0.4172	-0.04
Mof_H 	H 	0.0154	0.8456	0.4229	0.049
Mof_C 	C 	0.0211	0.9687	0.4211	0.013
Mof_C 	C 	0.507	0.0229	0.447	0.087
Mof_H 	H 	0.4628	0.0069	0.4463	0.007
Mof_C 	C 	0.5577	0.9626	0.4518	0.051
Mof_H 	H 	0.5459	0.9076	0.4484	0.026
Mof_C 	C 	0.6413	0.0683	0.4697	0.09
Mof_C 	C 	0.7074	0.0952	0.4911	0.042
Mof_H 	H 	0.7429	0.0581	0.4955	0.004
Mof_C 	C 	0.7199	0.1761	0.5058	-0.089
Mof_H 	H 	0.7636	0.1921	0.5218	0.054
Mof_C 	C 	0.6691	0.2338	0.4971	-0.047
Mof_H 	H 	0.6784	0.2878	0.5079	0.037
Mof_C 	C 	0.607	0.2117	0.4735	0.041
Mof_H 	H 	0.5736	0.2514	0.4649	0.007
Mof_C 	C 	0.5906	0.1281	0.4611	0.066
Mof_Co	Co	0.86665	0.24624	0.9	1.184
Mof_Co	Co	0.69967	0.23345	0.89338	1.189
Mof_Co	Co	0.81133	0.13063	0.98825	1.168
Mof_O 	O 	0.79213	0.23385	0.94584	-0.827
Mof_H 	H 	0.7943	0.2738	0.9682	0.258
Mof_O 	O 	0.66493	0.659	0.65907	-0.441
Mof_O 	O 	0.77443	0.6483	0.65893	-0.443
Mof_O 	O 	0.7121	0.3268	0.8422	-0.437
Mof_O 	O 	0.82302	0.3417	0.85208	-0.434
Mof_C 	C 	0.7222	0.6304	0.676	0.384
Mof_C 	C 	0.7639	0.3626	0.83421	0.381
Mof_C 	C 	0.7307	0.5666	0.7204	-0.092
Mof_C 	C 	0.7514	0.4371	0.7973	-0.085
Mof_C 	C 	0.6994	0.499	0.7088	-0.008
Mof_H 	H 	0.6711	0.4949	0.6741	0.031
Mof_C 	C 	0.7032	0.4268	0.744	0.019
Mof_H 	H 	0.6782	0.3795	0.7342	0.005
Mof_C 	C 	0.7814	0.5147	0.8138	-0.031
Mof_C 	C 	0.823	0.5262	0.8661	-0.194
Mof_H 	H 	0.8294	0.4838	0.8918	0.109
Mof_C 	C 	0.8537	0.5994	0.879	-0.152
Mof_H 	H 	0.8821	0.6064	0.9133	0.086
Mof_C 	C 	0.8436	0.6642	0.8416	0.204
Mof_H 	H 	0.863	0.7148	0.8524	-0.053
Mof_C 	C 	0.8063	0.6551	0.7903	0.072
Mof_H 	H 	0.802	0.6977	0.7648	-0.062
Mof_C 	C 	0.7742	0.5802	0.7762	0.053
Mof_O 	O 	0.42009	0.6439	0.94838	-0.448
Mof_O 	O 	0.35538	0.54	0.9577	-0.449
Mof_O 	O 	0.65287	0.32071	0.93808	-0.557
Mof_O 	O 	0.58587	0.2704	0.86544	-0.337
Mof_C 	C 	0.4081	0.5691	0.94544	0.354
Mof_C 	C 	0.5959	0.3207	0.90306	0.352
Mof_C 	C 	0.4571	0.5085	0.92898	-0.089
Mof_C 	C 	0.5462	0.386	0.90946	-0.114
Mof_C 	C 	0.4462	0.4268	0.9403	-0.005
Mof_H 	H 	0.4085	0.4132	0.9546	0.031
Mof_C 	C 	0.4895	0.3648	0.931	0.01
Mof_H 	H 	0.4812	0.3106	0.9389	0.012
Mof_C 	C 	0.5583	0.465	0.899	0.001
Mof_C 	C 	0.6159	0.4869	0.8742	-0.031
Mof_H 	H 	0.6439	0.4455	0.866	0.049
Mof_C 	C 	0.6295	0.5655	0.8628	-0.013
Mof_H 	H 	0.669	0.5787	0.851	0.032
Mof_C 	C 	0.5837	0.6263	0.8691	0.002
Mof_H 	H 	0.5908	0.6789	0.857	0.035
Mof_C 	C 	0.5275	0.6125	0.8924	-0.016
Mof_H 	H 	0.5004	0.6551	0.9002	0.024
Mof_C 	C 	0.5144	0.5306	0.9035	0.022
Mof_O 	O 	0.9209	0.3316	0.95739	-0.386
Mof_O 	O 	0.96173	0.2915	0.88708	-0.361
Mof_O 	O 	0.15912	0.6387	0.92878	-0.456
Mof_O 	O 	0.22659	0.5825	0.99997	-0.482
Mof_C 	C 	0.965	0.3354	0.9294	0.31
Mof_C 	C 	0.1732	0.5837	0.96349	0.398
Mof_C 	C 	0.0212	0.3966	0.9435	-0.078
Mof_C 	C 	0.1227	0.5158	0.96119	-0.109
Mof_C 	C 	0.0098	0.4734	0.9145	-0.123
Mof_H 	H 	0.9695	0.4837	0.8899	0.073
Mof_C 	C 	0.061	0.5319	0.9243	-0.068
Mof_H 	H 	0.0545	0.5822	0.9063	0.067
Mof_C 	C 	0.1335	0.4392	0.9874	-0.046
Mof_C 	C 	0.1934	0.4174	0.0227	-0.136
Mof_H 	H 	0.2293	0.454	0.0286	0.085
Mof_C 	C 	0.2003	0.3449	0.0481	0.054
Mof_H 	H 	0.2394	0.3333	0.0739	0.008
Mof_C 	C 	0.0903	0.3025	0.001	-0.113
Mof_H 	H 	0.0563	0.2634	0.9929	0.066
Mof_C 	C 	0.1473	0.2843	0.0358	-0.021
Mof_H 	H 	0.1532	0.2329	0.0523	0.031
Mof_C 	C 	0.0807	0.3799	0.9764	-0.041
Mof_C 	C 	0.6881	0.4965	0.715	0.004
Mof_H 	H 	0.6531	0.4894	0.6845	0.015
Mof_C 	C 	0.7015	0.4378	0.7582	-0.043
Mof_H 	H 	0.6701	0.3961	0.7575	0.055
Mof_C 	C 	0.7978	0.5054	0.8046	0.059
Mof_C 	C 	0.8514	0.5164	0.8507	0.147
Mof_H 	H 	0.8601	0.4758	0.8777	-0.024
Mof_C 	C 	0.8917	0.5866	0.8566	0.067
Mof_H 	H 	0.9303	0.589	0.8844	0.002
Mof_C 	C 	0.8741	0.6527	0.8212	-0.261
Mof_H 	H 	0.8962	0.7026	0.829	0.124
Mof_C 	C 	0.8237	0.6443	0.7744	-0.098
Mof_H 	H 	0.8152	0.6874	0.7493	0.123
Mof_C 	C 	0.7848	0.5715	0.7637	-0.023
Mof_C 	C 	0.4389	0.4267	0.9266	-0.012
Mof_H 	H 	0.3966	0.4115	0.9322	0.024
Mof_C 	C 	0.4841	0.3663	0.9157	-0.015
Mof_H 	H 	0.4706	0.3118	0.9128	0.03
Mof_C 	C 	0.5673	0.4729	0.9064	0.03
Mof_C 	C 	0.6291	0.4941	0.8951	-0.037
Mof_H 	H 	0.6583	0.4534	0.8882	0.016
Mof_C 	C 	0.6474	0.5728	0.894	-0.024
Mof_H 	H 	0.6884	0.5866	0.8852	0.027
Mof_C 	C 	0.6036	0.6346	0.9062	-0.054
Mof_H 	H 	0.616	0.6894	0.9065	0.043
Mof_C 	C 	0.5443	0.6124	0.9172	-0.04
Mof_H 	H 	0.5154	0.6544	0.9229	0.049
Mof_C 	C 	0.5211	0.5313	0.9211	0.014
Mof_C 	C 	0.007	0.4771	0.947	0.09
Mof_H 	H 	0.9628	0.4931	0.9463	0.006
Mof_C 	C 	0.0577	0.5374	0.9518	0.052
Mof_H 	H 	0.0459	0.5924	0.9484	0.026
Mof_C 	C 	0.1413	0.4317	0.9697	0.093
Mof_C 	C 	0.2074	0.4048	0.9911	0.045
Mof_H 	H 	0.2429	0.4419	0.9955	0.003
Mof_C 	C 	0.2199	0.3239	0.0058	-0.092
Mof_H 	H 	0.2636	0.3079	0.0218	0.055
Mof_C 	C 	0.1691	0.2662	0.9971	-0.047
Mof_H 	H 	0.1784	0.2122	0.0079	0.037
Mof_C 	C 	0.107	0.2883	0.9735	0.045
Mof_H 	H 	0.0736	0.2486	0.9649	0.005
Mof_C 	C 	0.0906	0.3719	0.9611	0.07
Mof_Co	Co	0.36665	0.74624	0.9	1.184
Mof_Co	Co	0.19967	0.73345	0.89338	1.189
Mof_Co	Co	0.31133	0.63063	0.98825	1.168
Mof_O 	O 	0.29213	0.73385	0.94584	-0.827
Mof_H 	H 	0.2943	0.7738	0.9682	0.258
Mof_O 	O 	0.16493	0.159	0.65907	-0.441
Mof_O 	O 	0.27443	0.1483	0.65893	-0.443
Mof_O 	O 	0.2121	0.8268	0.8422	-0.437
Mof_O 	O 	0.32302	0.8417	0.85208	-0.434
Mof_C 	C 	0.2222	0.1304	0.676	0.384
Mof_C 	C 	0.2639	0.8626	0.83421	0.381
Mof_C 	C 	0.2307	0.0666	0.7204	-0.092
Mof_C 	C 	0.2514	0.9371	0.7973	-0.086
Mof_C 	C 	0.1994	0.999	0.7088	-0.008
Mof_H 	H 	0.1711	0.9949	0.6741	0.031
Mof_C 	C 	0.2032	0.9268	0.744	0.019
Mof_H 	H 	0.1782	0.8795	0.7342	0.005
Mof_C 	C 	0.2814	0.0147	0.8138	-0.03
Mof_C 	C 	0.323	0.0262	0.8661	-0.192
Mof_H 	H 	0.3294	0.9838	0.8918	0.108
Mof_C 	C 	0.3537	0.0994	0.879	-0.151
Mof_H 	H 	0.3821	0.1064	0.9133	0.086
Mof_C 	C 	0.3436	0.1642	0.8416	0.202
Mof_H 	H 	0.363	0.2148	0.8524	-0.052
Mof_C 	C 	0.3063	0.1551	0.7903	0.072
Mof_H 	H 	0.302	0.1977	0.7648	-0.062
Mof_C 	C 	0.2742	0.0802	0.7762	0.053
Mof_O 	O 	0.92009	0.1439	0.94838	-0.448
Mof_O 	O 	0.85538	0.04	0.9577	-0.449
Mof_O 	O 	0.15287	0.82071	0.93808	-0.558
Mof_O 	O 	0.08587	0.7704	0.86544	-0.337
Mof_C 	C 	0.9081	0.0691	0.94544	0.354
Mof_C 	C 	0.0959	0.8207	0.90306	0.352
Mof_C 	C 	0.9571	0.0085	0.92898	-0.09
Mof_C 	C 	0.0462	0.886	0.90946	-0.114
Mof_C 	C 	0.9462	0.9268	0.9403	-0.005
Mof_H 	H 	0.9085	0.9132	0.9546	0.03
Mof_C 	C 	0.9895	0.8648	0.931	0.01
Mof_H 	H 	0.9812	0.8106	0.9389	0.012
Mof_C 	C 	0.0583	0.965	0.899	0.001
Mof_C 	C 	0.1159	0.9869	0.8742	-0.031
Mof_H 	H 	0.1439	0.9455	0.866	0.049
Mof_C 	C 	0.1295	0.0655	0.8628	-0.013
Mof_H 	H 	0.169	0.0787	0.851	0.032
Mof_C 	C 	0.0837	0.1263	0.8691	0.002
Mof_H 	H 	0.0908	0.1789	0.857	0.035
Mof_C 	C 	0.0275	0.1125	0.8924	-0.016
Mof_H 	H 	0.0004	0.1551	0.9002	0.024
Mof_C 	C 	0.0144	0.0306	0.9035	0.022
Mof_O 	O 	0.4209	0.8316	0.95739	-0.386
Mof_O 	O 	0.46173	0.7915	0.88708	-0.361
Mof_O 	O 	0.65912	0.1387	0.92878	-0.456
Mof_O 	O 	0.72659	0.0825	0.99997	-0.482
Mof_C 	C 	0.465	0.8354	0.9294	0.311
Mof_C 	C 	0.6732	0.0837	0.96349	0.398
Mof_C 	C 	0.5212	0.8966	0.9435	-0.078
Mof_C 	C 	0.6227	0.0158	0.96119	-0.109
Mof_C 	C 	0.5098	0.9734	0.9145	-0.116
Mof_H 	H 	0.4695	0.9837	0.8899	0.07
Mof_C 	C 	0.561	0.0319	0.9243	-0.063
Mof_H 	H 	0.5545	0.0822	0.9063	0.066
Mof_C 	C 	0.6335	0.9392	0.9874	-0.036
Mof_C 	C 	0.6934	0.9174	0.0227	-0.126
Mof_H 	H 	0.7293	0.954	0.0286	0.081
Mof_C 	C 	0.7003	0.8449	0.0481	0.046
Mof_H 	H 	0.7394	0.8333	0.0739	0.01
Mof_C 	C 	0.5903	0.8025	0.001	-0.101
Mof_H 	H 	0.5563	0.7634	0.9929	0.061
Mof_C 	C 	0.6473	0.7843	0.0358	-0.024
Mof_H 	H 	0.6532	0.7329	0.0523	0.032
Mof_C 	C 	0.5807	0.8799	0.9764	-0.031
Mof_C 	C 	0.1881	0.9965	0.715	0.004
Mof_H 	H 	0.1531	0.9894	0.6845	0.015
Mof_C 	C 	0.2015	0.9378	0.7582	-0.043
Mof_H 	H 	0.1701	0.8961	0.7575	0.055
Mof_C 	C 	0.2978	0.0054	0.8046	0.059
Mof_C 	C 	0.3514	0.0164	0.8507	0.146
Mof_H 	H 	0.3601	0.9758	0.8777	-0.024
Mof_C 	C 	0.3917	0.0866	0.8566	0.067
Mof_H 	H 	0.4303	0.089	0.8844	0.003
Mof_C 	C 	0.3741	0.1527	0.8212	-0.26
Mof_H 	H 	0.3962	0.2026	0.829	0.123
Mof_C 	C 	0.3237	0.1443	0.7744	-0.098
Mof_H 	H 	0.3152	0.1874	0.7493	0.122
Mof_C 	C 	0.2848	0.0715	0.7637	-0.024
Mof_C 	C 	0.9389	0.9267	0.9266	-0.012
Mof_H 	H 	0.8966	0.9115	0.9322	0.024
Mof_C 	C 	0.9841	0.8663	0.9157	-0.015
Mof_H 	H 	0.9706	0.8118	0.9128	0.03
Mof_C 	C 	0.0673	0.9729	0.9064	0.03
Mof_C 	C 	0.1291	0.9941	0.8951	-0.037
Mof_H 	H 	0.1583	0.9534	0.8882	0.016
Mof_C 	C 	0.1474	0.0728	0.894	-0.023
Mof_H 	H 	0.1884	0.0866	0.8852	0.026
Mof_C 	C 	0.1036	0.1346	0.9062	-0.054
Mof_H 	H 	0.116	0.1894	0.9065	0.043
Mof_C 	C 	0.0443	0.1124	0.9172	-0.04
Mof_H 	H 	0.0154	0.1544	0.9229	0.049
Mof_C 	C 	0.0211	0.0313	0.9211	0.014
Mof_C 	C 	0.507	0.9771	0.947	0.083
Mof_H 	H 	0.4628	0.9931	0.9463	0.008
Mof_C 	C 	0.5577	0.0374	0.9518	0.048
Mof_H 	H 	0.5459	0.0924	0.9484	0.027
Mof_C 	C 	0.6413	0.9317	0.9697	0.082
Mof_C 	C 	0.7074	0.9048	0.9911	0.035
Mof_H 	H 	0.7429	0.9419	0.9955	0.007
Mof_C 	C 	0.7199	0.8239	0.0058	-0.084
Mof_H 	H 	0.7636	0.8079	0.0218	0.053
Mof_C 	C 	0.6691	0.7662	0.9971	-0.045
Mof_H 	H 	0.6784	0.7122	0.0079	0.036
Mof_C 	C 	0.607	0.7883	0.9735	0.034
Mof_H 	H 	0.5736	0.7486	0.9649	0.009
Mof_C 	C 	0.5906	0.8719	0.9611	0.06
Mof_Co	Co	0.13335	0.24624	0.6	1.184
Mof_Co	Co	0.30033	0.23345	0.60662	1.189
Mof_Co	Co	0.18867	0.13063	0.51175	1.168
Mof_O 	O 	0.20787	0.23385	0.55416	-0.827
Mof_H 	H 	0.2057	0.2738	0.5318	0.258
Mof_O 	O 	0.33507	0.659	0.84093	-0.441
Mof_O 	O 	0.22557	0.6483	0.84107	-0.443
Mof_O 	O 	0.2879	0.3268	0.6578	-0.437
Mof_O 	O 	0.17698	0.3417	0.64792	-0.434
Mof_C 	C 	0.2778	0.6304	0.824	0.384
Mof_C 	C 	0.2361	0.3626	0.66579	0.381
Mof_C 	C 	0.2693	0.5666	0.7796	-0.092
Mof_C 	C 	0.2486	0.4371	0.7027	-0.085
Mof_C 	C 	0.3006	0.499	0.7912	-0.008
Mof_H 	H 	0.3289	0.4949	0.8259	0.031
Mof_C 	C 	0.2968	0.4268	0.756	0.019
Mof_H 	H 	0.3218	0.3795	0.7658	0.005
Mof_C 	C 	0.2186	0.5147	0.6862	-0.031
Mof_C 	C 	0.177	0.5262	0.6339	-0.194
Mof_H 	H 	0.1706	0.4838	0.6082	0.109
Mof_C 	C 	0.1463	0.5994	0.621	-0.152
Mof_H 	H 	0.1179	0.6064	0.5867	0.086
Mof_C 	C 	0.1564	0.6642	0.6584	0.203
Mof_H 	H 	0.137	0.7148	0.6476	-0.053
Mof_C 	C 	0.1937	0.6551	0.7097	0.072
Mof_H 	H 	0.198	0.6977	0.7352	-0.062
Mof_C 	C 	0.2258	0.5802	0.7238	0.053
Mof_O 	O 	0.57991	0.6439	0.55162	-0.448
Mof_O 	O 	0.64462	0.54	0.5423	-0.449
Mof_O 	O 	0.34713	0.32071	0.56192	-0.557
Mof_O 	O 	0.41413	0.2704	0.63456	-0.337
Mof_C 	C 	0.5919	0.5691	0.55456	0.354
Mof_C 	C 	0.4041	0.3207	0.59694	0.352
Mof_C 	C 	0.5429	0.5085	0.57102	-0.089
Mof_C 	C 	0.4538	0.386	0.59054	-0.114
Mof_C 	C 	0.5538	0.4268	0.5597	-0.005
Mof_H 	H 	0.5915	0.4132	0.5454	0.03
Mof_C 	C 	0.5105	0.3648	0.569	0.01
Mof_H 	H 	0.5188	0.3106	0.5611	0.012
Mof_C 	C 	0.4417	0.465	0.601	0.001
Mof_C 	C 	0.3841	0.4869	0.6258	-0.031
Mof_H 	H 	0.3561	0.4455	0.634	0.049
Mof_C 	C 	0.3705	0.5655	0.6372	-0.013
Mof_H 	H 	0.331	0.5787	0.649	0.032
Mof_C 	C 	0.4163	0.6263	0.6309	0.002
Mof_H 	H 	0.4092	0.6789	0.643	0.035
Mof_C 	C 	0.4725	0.6125	0.6076	-0.016
Mof_H 	H 	0.4996	0.6551	0.5998	0.024
Mof_C 	C 	0.4856	0.5306	0.5965	0.022
Mof_O 	O 	0.0791	0.3316	0.54261	-0.386
Mof_O 	O 	0.03827	0.2915	0.61292	-0.361
Mof_O 	O 	0.84088	0.6387	0.57122	-0.456
Mof_O 	O 	0.77341	0.5825	0.50003	-0.482
Mof_C 	C 	0.035	0.3354	0.5706	0.31
Mof_C 	C 	0.8268	0.5837	0.53651	0.398
Mof_C 	C 	0.9788	0.3966	0.5565	-0.078
Mof_C 	C 	0.8773	0.5158	0.53881	-0.109
Mof_C 	C 	0.9902	0.4734	0.5855	-0.121
Mof_H 	H 	0.0305	0.4837	0.6101	0.072
Mof_C 	C 	0.939	0.5319	0.5757	-0.066
Mof_H 	H 	0.9455	0.5822	0.5937	0.067
Mof_C 	C 	0.8665	0.4392	0.5126	-0.043
Mof_C 	C 	0.8066	0.4174	0.4773	-0.133
Mof_H 	H 	0.7707	0.454	0.4714	0.084
Mof_C 	C 	0.7997	0.3449	0.4519	0.051
Mof_H 	H 	0.7606	0.3333	0.4261	0.009
Mof_C 	C 	0.9097	0.3025	0.499	-0.109
Mof_H 	H 	0.9437	0.2634	0.5071	0.064
Mof_C 	C 	0.8527	0.2843	0.4642	-0.022
Mof_H 	H 	0.8468	0.2329	0.4477	0.031
Mof_C 	C 	0.9193	0.3799	0.5236	-0.037
Mof_C 	C 	0.3119	0.4965	0.785	0.004
Mof_H 	H 	0.3469	0.4894	0.8155	0.015
Mof_C 	C 	0.2985	0.4378	0.7418	-0.043
Mof_H 	H 	0.3299	0.3961	0.7425	0.055
Mof_C 	C 	0.2022	0.5054	0.6954	0.059
Mof_C 	C 	0.1486	0.5164	0.6493	0.147
Mof_H 	H 	0.1399	0.4758	0.6223	-0.024
Mof_C 	C 	0.1083	0.5866	0.6434	0.067
Mof_H 	H 	0.0697	0.589	0.6156	0.002
Mof_C 	C 	0.1259	0.6527	0.6788	-0.261
Mof_H 	H 	0.1038	0.7026	0.671	0.123
Mof_C 	C 	0.1763	0.6443	0.7256	-0.098
Mof_H 	H 	0.1848	0.6874	0.7507	0.123
Mof_C 	C 	0.2152	0.5715	0.7363	-0.024
Mof_C 	C 	0.5611	0.4267	0.5734	-0.012
Mof_H 	H 	0.6034	0.4115	0.5678	0.024
Mof_C 	C 	0.5159	0.3663	0.5843	-0.015
Mof_H 	H 	0.5294	0.3118	0.5872	0.03
Mof_C 	C 	0.4327	0.4729	0.5936	0.03
Mof_C 	C 	0.3709	0.4941	0.6049	-0.037
Mof_H 	H 	0.3417	0.4534	0.6118	0.016
Mof_C 	C 	0.3526	0.5728	0.606	-0.024
Mof_H 	H 	0.3116	0.5866	0.6148	0.027
Mof_C 	C 	0.3964	0.6346	0.5938	-0.054
Mof_H 	H 	0.384	0.6894	0.5935	0.043
Mof_C 	C 	0.4557	0.6124	0.5828	-0.04
Mof_H 	H 	0.4846	0.6544	0.5771	0.049
Mof_C 	C 	0.4789	0.5313	0.5789	0.014
Mof_C 	C 	0.993	0.4771	0.553	0.087
Mof_H 	H 	0.0372	0.4931	0.5537	0.007
Mof_C 	C 	0.9423	0.5374	0.5482	0.051
Mof_H 	H 	0.9541	0.5924	0.5516	0.026
Mof_C 	C 	0.8587	0.4317	0.5303	0.09
Mof_C 	C 	0.7926	0.4048	0.5089	0.042
Mof_H 	H 	0.7571	0.4419	0.5045	0.004
Mof_C 	C 	0.7801	0.3239	0.4942	-0.089
Mof_H 	H 	0.7364	0.3079	0.4782	0.054
Mof_C 	C 	0.8309	0.2662	0.5029	-0.047
Mof_H 	H 	0.8216	0.2122	0.4921	0.037
Mof_C 	C 	0.893	0.2883	0.5265	0.041
Mof_H 	H 	0.9264	0.2486	0.5351	0.006
Mof_C 	C 	0.9094	0.3719	0.5389	0.066
Mof_Co	Co	0.63335	0.74624	0.6	1.184
Mof_Co	Co	0.80033	0.73345	0.60662	1.189
Mof_Co	Co	0.68867	0.63063	0.51175	1.168
Mof_O 	O 	0.70787	0.73385	0.55416	-0.827
Mof_H 	H 	0.7057	0.7738	0.5318	0.258
Mof_O 	O 	0.83507	0.159	0.84093	-0.441
Mof_O 	O 	0.72557	0.1483	0.84107	-0.443
Mof_O 	O 	0.7879	0.8268	0.6578	-0.437
Mof_O 	O 	0.67698	0.8417	0.64792	-0.434
Mof_C 	C 	0.7778	0.1304	0.824	0.384
Mof_C 	C 	0.7361	0.8626	0.66579	0.381
Mof_C 	C 	0.7693	0.0666	0.7796	-0.092
Mof_C 	C 	0.7486	0.9371	0.7027	-0.086
Mof_C 	C 	0.8006	0.999	0.7912	-0.008
Mof_H 	H 	0.8289	0.9949	0.8259	0.031
Mof_C 	C 	0.7968	0.9268	0.756	0.019
Mof_H 	H 	0.8218	0.8795	0.7658	0.005
Mof_C 	C 	0.7186	0.0147	0.6862	-0.031
Mof_C 	C 	0.677	0.0262	0.6339	-0.194
Mof_H 	H 	0.6706	0.9838	0.6082	0.109
Mof_C 	C 	0.6463	0.0994	0.621	-0.152
Mof_H 	H 	0.6179	0.1064	0.5867	0.086
Mof_C 	C 	0.6564	0.1642	0.6584	0.203
Mof_H 	H 	0.637	0.2148	0.6476	-0.053
Mof_C 	C 	0.6937	0.1551	0.7097	0.072
Mof_H 	H 	0.698	0.1977	0.7352	-0.062
Mof_C 	C 	0.7258	0.0802	0.7238	0.053
Mof_O 	O 	0.07991	0.1439	0.55162	-0.448
Mof_O 	O 	0.14462	0.04	0.5423	-0.449
Mof_O 	O 	0.84713	0.82071	0.56192	-0.558
Mof_O 	O 	0.91413	0.7704	0.63456	-0.338
Mof_C 	C 	0.0919	0.0691	0.55456	0.354
Mof_C 	C 	0.9041	0.8207	0.59694	0.352
Mof_C 	C 	0.0429	0.0085	0.57102	-0.089
Mof_C 	C 	0.9538	0.886	0.59054	-0.114
Mof_C 	C 	0.0538	0.9268	0.5597	-0.005
Mof_H 	H 	0.0915	0.9132	0.5454	0.03
Mof_C 	C 	0.0105	0.8648	0.569	0.01
Mof_H 	H 	0.0188	0.8106	0.5611	0.012
Mof_C 	C 	0.9417	0.965	0.601	0.001
Mof_C 	C 	0.8841	0.9869	0.6258	-0.031
Mof_H 	H 	0.8561	0.9455	0.634	0.049
Mof_C 	C 	0.8705	0.0655	0.6372	-0.013
Mof_H 	H 	0.831	0.0787	0.649	0.032
Mof_C 	C 	0.9163	0.1263	0.6309	0.002
Mof_H 	H 	0.9092	0.1789	0.643	0.035
Mof_C 	C 	0.9725	0.1125	0.6076	-0.016
Mof_H 	H 	0.9996	0.1551	0.5998	0.024
Mof_C 	C 	0.9856	0.0306	0.5965	0.022
Mof_O 	O 	0.5791	0.8316	0.54261	-0.386
Mof_O 	O 	0.53827	0.7915	0.61292	-0.361
Mof_O 	O 	0.34088	0.1387	0.57122	-0.456
Mof_O 	O 	0.27341	0.0825	0.50003	-0.482
Mof_C 	C 	0.535	0.8354	0.5706	0.311
Mof_C 	C 	0.3268	0.0837	0.53651	0.398
Mof_C 	C 	0.4788	0.8966	0.5565	-0.078
Mof_C 	C 	0.3773	0.0158	0.53881	-0.109
Mof_C 	C 	0.4902	0.9734	0.5855	-0.12
Mof_H 	H 	0.5305	0.9837	0.6101	0.072
Mof_C 	C 	0.439	0.0319	0.5757	-0.066
Mof_H 	H 	0.4455	0.0822	0.5937	0.067
Mof_C 	C 	0.3665	0.9392	0.5126	-0.043
Mof_C 	C 	0.3066	0.9174	0.4773	-0.133
Mof_H 	H 	0.2707	0.954	0.4714	0.084
Mof_C 	C 	0.2997	0.8449	0.4519	0.051
Mof_H 	H 	0.2606	0.8333	0.4261	0.009
Mof_C 	C 	0.4097	0.8025	0.499	-0.109
Mof_H 	H 	0.4437	0.7634	0.5071	0.064
Mof_C 	C 	0.3527	0.7843	0.4642	-0.022
Mof_H 	H 	0.3468	0.7329	0.4477	0.031
Mof_C 	C 	0.4193	0.8799	0.5236	-0.037
Mof_C 	C 	0.8119	0.9965	0.785	0.004
Mof_H 	H 	0.8469	0.9894	0.8155	0.015
Mof_C 	C 	0.7985	0.9378	0.7418	-0.043
Mof_H 	H 	0.8299	0.8961	0.7425	0.055
Mof_C 	C 	0.7022	0.0054	0.6954	0.059
Mof_C 	C 	0.6486	0.0164	0.6493	0.147
Mof_H 	H 	0.6399	0.9758	0.6223	-0.024
Mof_C 	C 	0.6083	0.0866	0.6434	0.067
Mof_H 	H 	0.5697	0.089	0.6156	0.002
Mof_C 	C 	0.6259	0.1527	0.6788	-0.261
Mof_H 	H 	0.6038	0.2026	0.671	0.123
Mof_C 	C 	0.6763	0.1443	0.7256	-0.098
Mof_H 	H 	0.6848	0.1874	0.7507	0.123
Mof_C 	C 	0.7152	0.0715	0.7363	-0.024
Mof_C 	C 	0.0611	0.9267	0.5734	-0.012
Mof_H 	H 	0.1034	0.9115	0.5678	0.024
Mof_C 	C 	0.0159	0.8663	0.5843	-0.015
Mof_H 	H 	0.0294	0.8118	0.5872	0.03
Mof_C 	C 	0.9327	0.9729	0.5936	0.03
Mof_C 	C 	0.8709	0.9941	0.6049	-0.037
Mof_H 	H 	0.8417	0.9534	0.6118	0.016
Mof_C 	C 	0.8526	0.0728	0.606	-0.024
Mof_H 	H 	0.8116	0.0866	0.6148	0.027
Mof_C 	C 	0.8964	0.1346	0.5938	-0.054
Mof_H 	H 	0.884	0.1894	0.5935	0.043
Mof_C 	C 	0.9557	0.1124	0.5828	-0.04
Mof_H 	H 	0.9846	0.1544	0.5771	0.049
Mof_C 	C 	0.9789	0.0313	0.5789	0.013
Mof_C 	C 	0.493	0.9771	0.553	0.087
Mof_H 	H 	0.5372	0.9931	0.5537	0.007
Mof_C 	C 	0.4423	0.0374	0.5482	0.051
Mof_H 	H 	0.4541	0.0924	0.5516	0.026
Mof_C 	C 	0.3587	0.9317	0.5303	0.09
Mof_C 	C 	0.2926	0.9048	0.5089	0.042
Mof_H 	H 	0.2571	0.9419	0.5045	0.004
Mof_C 	C 	0.2801	0.8239	0.4942	-0.089
Mof_H 	H 	0.2364	0.8079	0.4782	0.054
Mof_C 	C 	0.3309	0.7662	0.5029	-0.047
Mof_H 	H 	0.3216	0.7122	0.4921	0.037
Mof_C 	C 	0.393	0.7883	0.5265	0.041
Mof_H 	H 	0.4264	0.7486	0.5351	0.007
Mof_C 	C 	0.4094	0.8719	0.5389	0.066
_end
