# CIF file generated by openbabel 3.1.0, see https://openbabel.org
data_I
_chemical_name_common 'image0'
_cell_length_a 26.813
_cell_length_b 12.6035
_cell_length_c 33.472
_cell_angle_alpha 90
_cell_angle_beta 90
_cell_angle_gamma 90
_space_group_name_H-M_alt 'P 1'
_space_group_name_Hall 'P 1'
loop_
    _symmetry_equiv_pos_as_xyz
    x,y,z
loop_
    _atom_site_label
    _atom_site_type_symbol
    _atom_site_fract_x
    _atom_site_fract_y
    _atom_site_fract_z
    _atom_site_occupancy
    Ag1      Ag       0.27999    0.75796    0.63755    1.000
    Fe1      Fe       0.43192    0.51444    0.38527    1.000
    C1       C        0.34450    0.64870    0.37275    1.000
    H1       H        0.34880    0.64720    0.34460    1.000
    C2       C        0.30690    0.70800    0.39299    1.000
    H2       H        0.28130    0.74960    0.38110    1.000
    C3       C        0.31470    0.69340    0.43241    1.000
    H3       H        0.29650    0.72530    0.45360    1.000
    C4       C        0.35539    0.62120    0.43654    1.000
    C5       C        0.37612    0.58050    0.47181    1.000
    C6       C        0.41516    0.50780    0.47369    1.000
    C7       C        0.43260    0.45350    0.50809    1.000
    H4       H        0.42140    0.46380    0.53470    1.000
    C8       C        0.46810    0.38400    0.49592    1.000
    H5       H        0.48610    0.33540    0.51210    1.000
    C9       C        0.47285    0.39840    0.45429    1.000
    H6       H        0.49600    0.36110    0.43800    1.000
    C10      C        0.35377    0.61890    0.50963    1.000
    C11      C        0.38113    0.68290    0.53525    1.000
    H7       H        0.41480    0.69970    0.52920    1.000
    C12      C        0.35927    0.72240    0.56974    1.000
    H8       H        0.37830    0.76710    0.58670    1.000
    C13      C        0.28630    0.63710    0.55534    1.000
    H9       H        0.25310    0.61940    0.56280    1.000
    C14      C        0.30430    0.59780    0.52062    1.000
    H10      H        0.28360    0.55610    0.50380    1.000
    C15      C        0.44977    0.35540    0.81348    1.000
    H11      H        0.47030    0.30730    0.82780    1.000
    C16      C        0.43920    0.34770    0.77232    1.000
    H12      H        0.45060    0.29450    0.75440    1.000
    C17      C        0.40950    0.43140    0.76336    1.000
    H13      H        0.39670    0.44800    0.73760    1.000
    C18      C        0.40070    0.49020    0.79892    1.000
    C19      C        0.37193    0.58000    0.80436    1.000
    C20      C        0.36488    0.63410    0.84001    1.000
    C21      C        0.33414    0.72340    0.84736    1.000
    H14      H        0.31400    0.75910    0.82830    1.000
    C22      C        0.33870    0.74900    0.88682    1.000
    H15      H        0.32290    0.80590    0.90050    1.000
    C23      C        0.37159    0.67340    0.90299    1.000
    H16      H        0.38130    0.67160    0.93030    1.000
    C24      C        0.34631    0.62130    0.76775    1.000
    C25      C        0.31233    0.56330    0.74679    1.000
    H17      H        0.30280    0.49500    0.75610    1.000
    C26      C        0.29154    0.60290    0.71204    1.000
    H18      H        0.26800    0.56090    0.69790    1.000
    C27      C        0.33570    0.75470    0.71872    1.000
    H19      H        0.34390    0.82320    0.70890    1.000
    C28      C        0.35800    0.72230    0.75338    1.000
    H20      H        0.38070    0.76700    0.76720    1.000
    C29      C        0.98910    0.17250    0.64313    1.000
    H21      H        0.96020    0.21610    0.64390    1.000
    C30      C        0.03683    0.20620    0.65436    1.000
    H22      H        0.04590    0.27500    0.66350    1.000
    C31      C        0.06763    0.12210    0.64972    1.000
    H23      H        0.10240    0.12080    0.65520    1.000
    C32      C        0.03874    0.03640    0.63530    1.000
    C33      C        0.05492    0.93490    0.62534    1.000
    C34      C        0.02492    0.85600    0.60942    1.000
    C35      C        0.04100    0.75310    0.59773    1.000
    H24      H        0.07410    0.72630    0.59910    1.000
    C36      C        0.99970    0.69970    0.58406    1.000
    H25      H        0.99840    0.62910    0.57420    1.000
    C37      C        0.95950    0.77190    0.58778    1.000
    H26      H        0.92620    0.75600    0.58030    1.000
    C38      C        0.10826    0.90890    0.63229    1.000
    C39      C        0.12199    0.83950    0.66214    1.000
    H27      H        0.09770    0.81210    0.68000    1.000
    C40      C        0.17155    0.81000    0.66589    1.000
    H28      H        0.18020    0.76150    0.68650    1.000
    C41      C        0.19440    0.91700    0.61517    1.000
    H29      H        0.21980    0.94600    0.59870    1.000
    C42      C        0.14590    0.95180    0.60941    1.000
    H30      H        0.13870    0.00450    0.59000    1.000
    N1       N        0.37260    0.59580    0.39854    1.000
    N2       N        0.44088    0.47100    0.44059    1.000
    N3       N        0.31271    0.69980    0.57980    1.000
    N4       N        0.42683    0.44020    0.82972    1.000
    N5       N        0.38737    0.60590    0.87602    1.000
    N6       N        0.30343    0.69730    0.69792    1.000
    N7       N        0.98913    0.07120    0.63123    1.000
    N8       N        0.97365    0.86360    0.60283    1.000
    N9       N        0.20741    0.84560    0.64243    1.000
    Co1      Co       0.43192    0.48556    0.88527    1.000
    Ag2      Ag       0.77999    0.74204    0.36245    1.000
    Fe2      Fe       0.93192    0.98556    0.61473    1.000
    C43      C        0.84450    0.85130    0.62725    1.000
    H31      H        0.84880    0.85280    0.65540    1.000
    C44      C        0.80690    0.79200    0.60701    1.000
    H32      H        0.78130    0.75040    0.61890    1.000
    C45      C        0.81470    0.80660    0.56759    1.000
    H33      H        0.79650    0.77470    0.54640    1.000
    C46      C        0.85539    0.87880    0.56346    1.000
    C47      C        0.87612    0.91950    0.52819    1.000
    C48      C        0.91516    0.99220    0.52631    1.000
    C49      C        0.93260    0.04650    0.49191    1.000
    H34      H        0.92140    0.03620    0.46530    1.000
    C50      C        0.96810    0.11600    0.50408    1.000
    H35      H        0.98610    0.16460    0.48790    1.000
    C51      C        0.97285    0.10160    0.54571    1.000
    H36      H        0.99600    0.13890    0.56200    1.000
    C52      C        0.85377    0.88110    0.49037    1.000
    C53      C        0.88113    0.81710    0.46475    1.000
    H37      H        0.91480    0.80030    0.47080    1.000
    C54      C        0.85927    0.77760    0.43026    1.000
    H38      H        0.87830    0.73290    0.41330    1.000
    C55      C        0.78630    0.86290    0.44466    1.000
    H39      H        0.75310    0.88060    0.43720    1.000
    C56      C        0.80430    0.90220    0.47938    1.000
    H40      H        0.78360    0.94390    0.49620    1.000
    C57      C        0.94977    0.14460    0.18652    1.000
    H41      H        0.97030    0.19270    0.17220    1.000
    C58      C        0.93920    0.15230    0.22768    1.000
    H42      H        0.95060    0.20550    0.24560    1.000
    C59      C        0.90950    0.06860    0.23664    1.000
    H43      H        0.89670    0.05200    0.26240    1.000
    C60      C        0.90070    0.00980    0.20108    1.000
    C61      C        0.87193    0.92000    0.19564    1.000
    C62      C        0.86488    0.86590    0.15999    1.000
    C63      C        0.83414    0.77660    0.15264    1.000
    H44      H        0.81400    0.74090    0.17170    1.000
    C64      C        0.83870    0.75100    0.11318    1.000
    H45      H        0.82290    0.69410    0.09950    1.000
    C65      C        0.87159    0.82660    0.09701    1.000
    H46      H        0.88130    0.82840    0.06970    1.000
    C66      C        0.84631    0.87870    0.23225    1.000
    C67      C        0.81233    0.93670    0.25321    1.000
    H47      H        0.80280    0.00500    0.24390    1.000
    C68      C        0.79154    0.89710    0.28796    1.000
    H48      H        0.76800    0.93910    0.30210    1.000
    C69      C        0.83570    0.74530    0.28128    1.000
    H49      H        0.84390    0.67680    0.29110    1.000
    C70      C        0.85800    0.77770    0.24662    1.000
    H50      H        0.88070    0.73300    0.23280    1.000
    C71      C        0.48910    0.32750    0.35687    1.000
    H51      H        0.46020    0.28390    0.35610    1.000
    C72      C        0.53683    0.29380    0.34564    1.000
    H52      H        0.54590    0.22500    0.33650    1.000
    C73      C        0.56763    0.37790    0.35028    1.000
    H53      H        0.60240    0.37920    0.34480    1.000
    C74      C        0.53874    0.46360    0.36470    1.000
    C75      C        0.55492    0.56510    0.37466    1.000
    C76      C        0.52492    0.64400    0.39058    1.000
    C77      C        0.54100    0.74690    0.40227    1.000
    H54      H        0.57410    0.77370    0.40090    1.000
    C78      C        0.49970    0.80030    0.41594    1.000
    H55      H        0.49840    0.87090    0.42580    1.000
    C79      C        0.45950    0.72810    0.41222    1.000
    H56      H        0.42620    0.74400    0.41970    1.000
    C80      C        0.60826    0.59110    0.36771    1.000
    C81      C        0.62199    0.66050    0.33786    1.000
    H57      H        0.59770    0.68790    0.32000    1.000
    C82      C        0.67155    0.69000    0.33411    1.000
    H58      H        0.68020    0.73850    0.31350    1.000
    C83      C        0.69440    0.58300    0.38483    1.000
    H59      H        0.71980    0.55400    0.40130    1.000
    C84      C        0.64590    0.54820    0.39059    1.000
    H60      H        0.63870    0.49550    0.41000    1.000
    N10      N        0.87260    0.90420    0.60146    1.000
    N11      N        0.94088    0.02900    0.55941    1.000
    N12      N        0.81271    0.80020    0.42020    1.000
    N13      N        0.92683    0.05980    0.17028    1.000
    N14      N        0.88737    0.89410    0.12398    1.000
    N15      N        0.80343    0.80270    0.30208    1.000
    N16      N        0.48913    0.42880    0.36877    1.000
    N17      N        0.47365    0.63640    0.39717    1.000
    N18      N        0.70741    0.65440    0.35757    1.000
    Co2      Co       0.93192    0.01444    0.11473    1.000
    Ag3      Ag       0.77999    0.25796    0.86245    1.000
    C85      C        0.84450    0.14870    0.12725    1.000
    H61      H        0.84880    0.14720    0.15540    1.000
    C86      C        0.80690    0.20800    0.10701    1.000
    H62      H        0.78130    0.24960    0.11890    1.000
    C87      C        0.81470    0.19340    0.06759    1.000
    H63      H        0.79650    0.22530    0.04640    1.000
    C88      C        0.85539    0.12120    0.06346    1.000
    C89      C        0.87612    0.08050    0.02819    1.000
    C90      C        0.91516    0.00780    0.02631    1.000
    C91      C        0.93260    0.95350    0.99191    1.000
    H64      H        0.92140    0.96380    0.96530    1.000
    C92      C        0.96810    0.88400    0.00408    1.000
    H65      H        0.98610    0.83540    0.98790    1.000
    C93      C        0.97285    0.89840    0.04571    1.000
    H66      H        0.99600    0.86110    0.06200    1.000
    C94      C        0.85377    0.11890    0.99037    1.000
    C95      C        0.88113    0.18290    0.96475    1.000
    H67      H        0.91480    0.19970    0.97080    1.000
    C96      C        0.85927    0.22240    0.93026    1.000
    H68      H        0.87830    0.26710    0.91330    1.000
    C97      C        0.78630    0.13710    0.94466    1.000
    H69      H        0.75310    0.11940    0.93720    1.000
    C98      C        0.80430    0.09780    0.97938    1.000
    H70      H        0.78360    0.05610    0.99620    1.000
    C99      C        0.94977    0.85540    0.68652    1.000
    H71      H        0.97030    0.80730    0.67220    1.000
    C100     C        0.93920    0.84770    0.72768    1.000
    H72      H        0.95060    0.79450    0.74560    1.000
    C101     C        0.90950    0.93140    0.73664    1.000
    H73      H        0.89670    0.94800    0.76240    1.000
    C102     C        0.90070    0.99020    0.70108    1.000
    C103     C        0.87193    0.08000    0.69564    1.000
    C104     C        0.86488    0.13410    0.65999    1.000
    C105     C        0.83414    0.22340    0.65264    1.000
    H74      H        0.81400    0.25910    0.67170    1.000
    C106     C        0.83870    0.24900    0.61318    1.000
    H75      H        0.82290    0.30590    0.59950    1.000
    C107     C        0.87159    0.17340    0.59701    1.000
    H76      H        0.88130    0.17160    0.56970    1.000
    C108     C        0.84631    0.12130    0.73225    1.000
    C109     C        0.81233    0.06330    0.75321    1.000
    H77      H        0.80280    0.99500    0.74390    1.000
    C110     C        0.79154    0.10290    0.78796    1.000
    H78      H        0.76800    0.06090    0.80210    1.000
    C111     C        0.83570    0.25470    0.78128    1.000
    H79      H        0.84390    0.32320    0.79110    1.000
    C112     C        0.85800    0.22230    0.74662    1.000
    H80      H        0.88070    0.26700    0.73280    1.000
    C113     C        0.48910    0.67250    0.85687    1.000
    H81      H        0.46020    0.71610    0.85610    1.000
    C114     C        0.53683    0.70620    0.84564    1.000
    H82      H        0.54590    0.77500    0.83650    1.000
    C115     C        0.56763    0.62210    0.85028    1.000
    H83      H        0.60240    0.62080    0.84480    1.000
    C116     C        0.53874    0.53640    0.86470    1.000
    C117     C        0.55492    0.43490    0.87466    1.000
    C118     C        0.52492    0.35600    0.89058    1.000
    C119     C        0.54100    0.25310    0.90227    1.000
    H84      H        0.57410    0.22630    0.90090    1.000
    C120     C        0.49970    0.19970    0.91594    1.000
    H85      H        0.49840    0.12910    0.92580    1.000
    C121     C        0.45950    0.27190    0.91222    1.000
    H86      H        0.42620    0.25600    0.91970    1.000
    C122     C        0.60826    0.40890    0.86771    1.000
    C123     C        0.62199    0.33950    0.83786    1.000
    H87      H        0.59770    0.31210    0.82000    1.000
    C124     C        0.67155    0.31000    0.83411    1.000
    H88      H        0.68020    0.26150    0.81350    1.000
    C125     C        0.69440    0.41700    0.88483    1.000
    H89      H        0.71980    0.44600    0.90130    1.000
    C126     C        0.64590    0.45180    0.89059    1.000
    H90      H        0.63870    0.50450    0.91000    1.000
    N19      N        0.87260    0.09580    0.10146    1.000
    N20      N        0.94088    0.97100    0.05941    1.000
    N21      N        0.81271    0.19980    0.92020    1.000
    N22      N        0.92683    0.94020    0.67028    1.000
    N23      N        0.88737    0.10590    0.62398    1.000
    N24      N        0.80343    0.19730    0.80208    1.000
    N25      N        0.48913    0.57120    0.86877    1.000
    N26      N        0.47365    0.36360    0.89717    1.000
    N27      N        0.70741    0.34560    0.85757    1.000
    Ag4      Ag       0.27999    0.24204    0.13755    1.000
    C127     C        0.34450    0.35130    0.87275    1.000
    H91      H        0.34880    0.35280    0.84460    1.000
    C128     C        0.30690    0.29200    0.89299    1.000
    H92      H        0.28130    0.25040    0.88110    1.000
    C129     C        0.31470    0.30660    0.93241    1.000
    H93      H        0.29650    0.27470    0.95360    1.000
    C130     C        0.35539    0.37880    0.93654    1.000
    C131     C        0.37612    0.41950    0.97181    1.000
    C132     C        0.41516    0.49220    0.97369    1.000
    C133     C        0.43260    0.54650    0.00809    1.000
    H94      H        0.42140    0.53620    0.03470    1.000
    C134     C        0.46810    0.61600    0.99592    1.000
    H95      H        0.48610    0.66460    0.01210    1.000
    C135     C        0.47285    0.60160    0.95429    1.000
    H96      H        0.49600    0.63890    0.93800    1.000
    C136     C        0.35377    0.38110    0.00963    1.000
    C137     C        0.38113    0.31710    0.03525    1.000
    H97      H        0.41480    0.30030    0.02920    1.000
    C138     C        0.35927    0.27760    0.06974    1.000
    H98      H        0.37830    0.23290    0.08670    1.000
    C139     C        0.28630    0.36290    0.05534    1.000
    H99      H        0.25310    0.38060    0.06280    1.000
    C140     C        0.30430    0.40220    0.02062    1.000
    H100     H        0.28360    0.44390    0.00380    1.000
    C141     C        0.44977    0.64460    0.31348    1.000
    H101     H        0.47030    0.69270    0.32780    1.000
    C142     C        0.43920    0.65230    0.27232    1.000
    H102     H        0.45060    0.70550    0.25440    1.000
    C143     C        0.40950    0.56860    0.26336    1.000
    H103     H        0.39670    0.55200    0.23760    1.000
    C144     C        0.40070    0.50980    0.29892    1.000
    C145     C        0.37193    0.42000    0.30436    1.000
    C146     C        0.36488    0.36590    0.34001    1.000
    C147     C        0.33414    0.27660    0.34736    1.000
    H104     H        0.31400    0.24090    0.32830    1.000
    C148     C        0.33870    0.25100    0.38682    1.000
    H105     H        0.32290    0.19410    0.40050    1.000
    C149     C        0.37159    0.32660    0.40299    1.000
    H106     H        0.38130    0.32840    0.43030    1.000
    C150     C        0.34631    0.37870    0.26775    1.000
    C151     C        0.31233    0.43670    0.24679    1.000
    H107     H        0.30280    0.50500    0.25610    1.000
    C152     C        0.29154    0.39710    0.21204    1.000
    H108     H        0.26800    0.43910    0.19790    1.000
    C153     C        0.33570    0.24530    0.21872    1.000
    H109     H        0.34390    0.17680    0.20890    1.000
    C154     C        0.35800    0.27770    0.25338    1.000
    H110     H        0.38070    0.23300    0.26720    1.000
    C155     C        0.98910    0.82750    0.14313    1.000
    H111     H        0.96020    0.78390    0.14390    1.000
    C156     C        0.03683    0.79380    0.15436    1.000
    H112     H        0.04590    0.72500    0.16350    1.000
    C157     C        0.06763    0.87790    0.14972    1.000
    H113     H        0.10240    0.87920    0.15520    1.000
    C158     C        0.03874    0.96360    0.13530    1.000
    C159     C        0.05492    0.06510    0.12534    1.000
    C160     C        0.02492    0.14400    0.10942    1.000
    C161     C        0.04100    0.24690    0.09773    1.000
    H114     H        0.07410    0.27370    0.09910    1.000
    C162     C        0.99970    0.30030    0.08406    1.000
    H115     H        0.99840    0.37090    0.07420    1.000
    C163     C        0.95950    0.22810    0.08778    1.000
    H116     H        0.92620    0.24400    0.08030    1.000
    C164     C        0.10826    0.09110    0.13229    1.000
    C165     C        0.12199    0.16050    0.16214    1.000
    H117     H        0.09770    0.18790    0.18000    1.000
    C166     C        0.17155    0.19000    0.16589    1.000
    H118     H        0.18020    0.23850    0.18650    1.000
    C167     C        0.19440    0.08300    0.11517    1.000
    H119     H        0.21980    0.05400    0.09870    1.000
    C168     C        0.14590    0.04820    0.10941    1.000
    H120     H        0.13870    0.99550    0.09000    1.000
    N28      N        0.37260    0.40420    0.89854    1.000
    N29      N        0.44088    0.52900    0.94059    1.000
    N30      N        0.31271    0.30020    0.07980    1.000
    N31      N        0.42683    0.55980    0.32972    1.000
    N32      N        0.38737    0.39410    0.37602    1.000
    N33      N        0.30343    0.30270    0.19792    1.000
    N34      N        0.98913    0.92880    0.13123    1.000
    N35      N        0.97365    0.13640    0.10283    1.000
    N36      N        0.20741    0.15440    0.14243    1.000
    Ag5      Ag       0.22001    0.74204    0.13755    1.000
    Fe3      Fe       0.06808    0.98556    0.88527    1.000
    C169     C        0.15550    0.85130    0.87275    1.000
    H121     H        0.15120    0.85280    0.84460    1.000
    C170     C        0.19310    0.79200    0.89299    1.000
    H122     H        0.21870    0.75040    0.88110    1.000
    C171     C        0.18530    0.80660    0.93241    1.000
    H123     H        0.20350    0.77470    0.95360    1.000
    C172     C        0.14461    0.87880    0.93654    1.000
    C173     C        0.12388    0.91950    0.97181    1.000
    C174     C        0.08484    0.99220    0.97369    1.000
    C175     C        0.06740    0.04650    0.00809    1.000
    H124     H        0.07860    0.03620    0.03470    1.000
    C176     C        0.03190    0.11600    0.99592    1.000
    H125     H        0.01390    0.16460    0.01210    1.000
    C177     C        0.02715    0.10160    0.95429    1.000
    H126     H        0.00400    0.13890    0.93800    1.000
    C178     C        0.14623    0.88110    0.00963    1.000
    C179     C        0.11887    0.81710    0.03525    1.000
    H127     H        0.08520    0.80030    0.02920    1.000
    C180     C        0.14073    0.77760    0.06974    1.000
    H128     H        0.12170    0.73290    0.08670    1.000
    C181     C        0.21370    0.86290    0.05534    1.000
    H129     H        0.24690    0.88060    0.06280    1.000
    C182     C        0.19570    0.90220    0.02062    1.000
    H130     H        0.21640    0.94390    0.00380    1.000
    C183     C        0.05023    0.14460    0.31348    1.000
    H131     H        0.02970    0.19270    0.32780    1.000
    C184     C        0.06080    0.15230    0.27232    1.000
    H132     H        0.04940    0.20550    0.25440    1.000
    C185     C        0.09050    0.06860    0.26336    1.000
    H133     H        0.10330    0.05200    0.23760    1.000
    C186     C        0.09930    0.00980    0.29892    1.000
    C187     C        0.12807    0.92000    0.30436    1.000
    C188     C        0.13512    0.86590    0.34001    1.000
    C189     C        0.16586    0.77660    0.34736    1.000
    H134     H        0.18600    0.74090    0.32830    1.000
    C190     C        0.16130    0.75100    0.38682    1.000
    H135     H        0.17710    0.69410    0.40050    1.000
    C191     C        0.12841    0.82660    0.40299    1.000
    H136     H        0.11870    0.82840    0.43030    1.000
    C192     C        0.15369    0.87870    0.26775    1.000
    C193     C        0.18767    0.93670    0.24679    1.000
    H137     H        0.19720    0.00500    0.25610    1.000
    C194     C        0.20846    0.89710    0.21204    1.000
    H138     H        0.23200    0.93910    0.19790    1.000
    C195     C        0.16430    0.74530    0.21872    1.000
    H139     H        0.15610    0.67680    0.20890    1.000
    C196     C        0.14200    0.77770    0.25338    1.000
    H140     H        0.11930    0.73300    0.26720    1.000
    C197     C        0.51090    0.32750    0.14313    1.000
    H141     H        0.53980    0.28390    0.14390    1.000
    C198     C        0.46317    0.29380    0.15436    1.000
    H142     H        0.45410    0.22500    0.16350    1.000
    C199     C        0.43237    0.37790    0.14972    1.000
    H143     H        0.39760    0.37920    0.15520    1.000
    C200     C        0.46126    0.46360    0.13530    1.000
    C201     C        0.44508    0.56510    0.12534    1.000
    C202     C        0.47508    0.64400    0.10942    1.000
    C203     C        0.45900    0.74690    0.09773    1.000
    H144     H        0.42590    0.77370    0.09910    1.000
    C204     C        0.50030    0.80030    0.08406    1.000
    H145     H        0.50160    0.87090    0.07420    1.000
    C205     C        0.54050    0.72810    0.08778    1.000
    H146     H        0.57380    0.74400    0.08030    1.000
    C206     C        0.39174    0.59110    0.13229    1.000
    C207     C        0.37801    0.66050    0.16214    1.000
    H147     H        0.40230    0.68790    0.18000    1.000
    C208     C        0.32845    0.69000    0.16589    1.000
    H148     H        0.31980    0.73850    0.18650    1.000
    C209     C        0.30560    0.58300    0.11517    1.000
    H149     H        0.28020    0.55400    0.09870    1.000
    C210     C        0.35410    0.54820    0.10941    1.000
    H150     H        0.36130    0.49550    0.09000    1.000
    N37      N        0.12740    0.90420    0.89854    1.000
    N38      N        0.05912    0.02900    0.94059    1.000
    N39      N        0.18729    0.80020    0.07980    1.000
    N40      N        0.07317    0.05980    0.32972    1.000
    N41      N        0.11263    0.89410    0.37602    1.000
    N42      N        0.19657    0.80270    0.19792    1.000
    N43      N        0.51087    0.42880    0.13123    1.000
    N44      N        0.52635    0.63640    0.10283    1.000
    N45      N        0.29259    0.65440    0.14243    1.000
    Co3      Co       0.06808    0.01444    0.38527    1.000
    Ag6      Ag       0.72001    0.75796    0.86245    1.000
    Fe4      Fe       0.56808    0.51444    0.11473    1.000
    C211     C        0.65550    0.64870    0.12725    1.000
    H151     H        0.65120    0.64720    0.15540    1.000
    C212     C        0.69310    0.70800    0.10701    1.000
    H152     H        0.71870    0.74960    0.11890    1.000
    C213     C        0.68530    0.69340    0.06759    1.000
    H153     H        0.70350    0.72530    0.04640    1.000
    C214     C        0.64461    0.62120    0.06346    1.000
    C215     C        0.62388    0.58050    0.02819    1.000
    C216     C        0.58484    0.50780    0.02631    1.000
    C217     C        0.56740    0.45350    0.99191    1.000
    H154     H        0.57860    0.46380    0.96530    1.000
    C218     C        0.53190    0.38400    0.00408    1.000
    H155     H        0.51390    0.33540    0.98790    1.000
    C219     C        0.52715    0.39840    0.04571    1.000
    H156     H        0.50400    0.36110    0.06200    1.000
    C220     C        0.64623    0.61890    0.99037    1.000
    C221     C        0.61887    0.68290    0.96475    1.000
    H157     H        0.58520    0.69970    0.97080    1.000
    C222     C        0.64073    0.72240    0.93026    1.000
    H158     H        0.62170    0.76710    0.91330    1.000
    C223     C        0.71370    0.63710    0.94466    1.000
    H159     H        0.74690    0.61940    0.93720    1.000
    C224     C        0.69570    0.59780    0.97938    1.000
    H160     H        0.71640    0.55610    0.99620    1.000
    C225     C        0.55023    0.35540    0.68652    1.000
    H161     H        0.52970    0.30730    0.67220    1.000
    C226     C        0.56080    0.34770    0.72768    1.000
    H162     H        0.54940    0.29450    0.74560    1.000
    C227     C        0.59050    0.43140    0.73664    1.000
    H163     H        0.60330    0.44800    0.76240    1.000
    C228     C        0.59930    0.49020    0.70108    1.000
    C229     C        0.62807    0.58000    0.69564    1.000
    C230     C        0.63512    0.63410    0.65999    1.000
    C231     C        0.66586    0.72340    0.65264    1.000
    H164     H        0.68600    0.75910    0.67170    1.000
    C232     C        0.66130    0.74900    0.61318    1.000
    H165     H        0.67710    0.80590    0.59950    1.000
    C233     C        0.62841    0.67340    0.59701    1.000
    H166     H        0.61870    0.67160    0.56970    1.000
    C234     C        0.65369    0.62130    0.73225    1.000
    C235     C        0.68767    0.56330    0.75321    1.000
    H167     H        0.69720    0.49500    0.74390    1.000
    C236     C        0.70846    0.60290    0.78796    1.000
    H168     H        0.73200    0.56090    0.80210    1.000
    C237     C        0.66430    0.75470    0.78128    1.000
    H169     H        0.65610    0.82320    0.79110    1.000
    C238     C        0.64200    0.72230    0.74662    1.000
    H170     H        0.61930    0.76700    0.73280    1.000
    C239     C        0.01090    0.17250    0.85687    1.000
    H171     H        0.03980    0.21610    0.85610    1.000
    C240     C        0.96317    0.20620    0.84564    1.000
    H172     H        0.95410    0.27500    0.83650    1.000
    C241     C        0.93237    0.12210    0.85028    1.000
    H173     H        0.89760    0.12080    0.84480    1.000
    C242     C        0.96126    0.03640    0.86470    1.000
    C243     C        0.94508    0.93490    0.87466    1.000
    C244     C        0.97508    0.85600    0.89058    1.000
    C245     C        0.95900    0.75310    0.90227    1.000
    H174     H        0.92590    0.72630    0.90090    1.000
    C246     C        0.00030    0.69970    0.91594    1.000
    H175     H        0.00160    0.62910    0.92580    1.000
    C247     C        0.04050    0.77190    0.91222    1.000
    H176     H        0.07380    0.75600    0.91970    1.000
    C248     C        0.89174    0.90890    0.86771    1.000
    C249     C        0.87801    0.83950    0.83786    1.000
    H177     H        0.90230    0.81210    0.82000    1.000
    C250     C        0.82845    0.81000    0.83411    1.000
    H178     H        0.81980    0.76150    0.81350    1.000
    C251     C        0.80560    0.91700    0.88483    1.000
    H179     H        0.78020    0.94600    0.90130    1.000
    C252     C        0.85410    0.95180    0.89059    1.000
    H180     H        0.86130    0.00450    0.91000    1.000
    N46      N        0.62740    0.59580    0.10146    1.000
    N47      N        0.55912    0.47100    0.05941    1.000
    N48      N        0.68729    0.69980    0.92020    1.000
    N49      N        0.57317    0.44020    0.67028    1.000
    N50      N        0.61263    0.60590    0.62398    1.000
    N51      N        0.69657    0.69730    0.80208    1.000
    N52      N        0.01087    0.07120    0.86877    1.000
    N53      N        0.02635    0.86360    0.89717    1.000
    N54      N        0.79259    0.84560    0.85757    1.000
    Co4      Co       0.56808    0.48556    0.61473    1.000
    Ag7      Ag       0.72001    0.24204    0.36245    1.000
    C253     C        0.65550    0.35130    0.62725    1.000
    H181     H        0.65120    0.35280    0.65540    1.000
    C254     C        0.69310    0.29200    0.60701    1.000
    H182     H        0.71870    0.25040    0.61890    1.000
    C255     C        0.68530    0.30660    0.56759    1.000
    H183     H        0.70350    0.27470    0.54640    1.000
    C256     C        0.64461    0.37880    0.56346    1.000
    C257     C        0.62388    0.41950    0.52819    1.000
    C258     C        0.58484    0.49220    0.52631    1.000
    C259     C        0.56740    0.54650    0.49191    1.000
    H184     H        0.57860    0.53620    0.46530    1.000
    C260     C        0.53190    0.61600    0.50408    1.000
    H185     H        0.51390    0.66460    0.48790    1.000
    C261     C        0.52715    0.60160    0.54571    1.000
    H186     H        0.50400    0.63890    0.56200    1.000
    C262     C        0.64623    0.38110    0.49037    1.000
    C263     C        0.61887    0.31710    0.46475    1.000
    H187     H        0.58520    0.30030    0.47080    1.000
    C264     C        0.64073    0.27760    0.43026    1.000
    H188     H        0.62170    0.23290    0.41330    1.000
    C265     C        0.71370    0.36290    0.44466    1.000
    H189     H        0.74690    0.38060    0.43720    1.000
    C266     C        0.69570    0.40220    0.47938    1.000
    H190     H        0.71640    0.44390    0.49620    1.000
    C267     C        0.55023    0.64460    0.18652    1.000
    H191     H        0.52970    0.69270    0.17220    1.000
    C268     C        0.56080    0.65230    0.22768    1.000
    H192     H        0.54940    0.70550    0.24560    1.000
    C269     C        0.59050    0.56860    0.23664    1.000
    H193     H        0.60330    0.55200    0.26240    1.000
    C270     C        0.59930    0.50980    0.20108    1.000
    C271     C        0.62807    0.42000    0.19564    1.000
    C272     C        0.63512    0.36590    0.15999    1.000
    C273     C        0.66586    0.27660    0.15264    1.000
    H194     H        0.68600    0.24090    0.17170    1.000
    C274     C        0.66130    0.25100    0.11318    1.000
    H195     H        0.67710    0.19410    0.09950    1.000
    C275     C        0.62841    0.32660    0.09701    1.000
    H196     H        0.61870    0.32840    0.06970    1.000
    C276     C        0.65369    0.37870    0.23225    1.000
    C277     C        0.68767    0.43670    0.25321    1.000
    H197     H        0.69720    0.50500    0.24390    1.000
    C278     C        0.70846    0.39710    0.28796    1.000
    H198     H        0.73200    0.43910    0.30210    1.000
    C279     C        0.66430    0.24530    0.28128    1.000
    H199     H        0.65610    0.17680    0.29110    1.000
    C280     C        0.64200    0.27770    0.24662    1.000
    H200     H        0.61930    0.23300    0.23280    1.000
    C281     C        0.01090    0.82750    0.35687    1.000
    H201     H        0.03980    0.78390    0.35610    1.000
    C282     C        0.96317    0.79380    0.34564    1.000
    H202     H        0.95410    0.72500    0.33650    1.000
    C283     C        0.93237    0.87790    0.35028    1.000
    H203     H        0.89760    0.87920    0.34480    1.000
    C284     C        0.96126    0.96360    0.36470    1.000
    C285     C        0.94508    0.06510    0.37466    1.000
    C286     C        0.97508    0.14400    0.39058    1.000
    C287     C        0.95900    0.24690    0.40227    1.000
    H204     H        0.92590    0.27370    0.40090    1.000
    C288     C        0.00030    0.30030    0.41594    1.000
    H205     H        0.00160    0.37090    0.42580    1.000
    C289     C        0.04050    0.22810    0.41222    1.000
    H206     H        0.07380    0.24400    0.41970    1.000
    C290     C        0.89174    0.09110    0.36771    1.000
    C291     C        0.87801    0.16050    0.33786    1.000
    H207     H        0.90230    0.18790    0.32000    1.000
    C292     C        0.82845    0.19000    0.33411    1.000
    H208     H        0.81980    0.23850    0.31350    1.000
    C293     C        0.80560    0.08300    0.38483    1.000
    H209     H        0.78020    0.05400    0.40130    1.000
    C294     C        0.85410    0.04820    0.39059    1.000
    H210     H        0.86130    0.99550    0.41000    1.000
    N55      N        0.62740    0.40420    0.60146    1.000
    N56      N        0.55912    0.52900    0.55941    1.000
    N57      N        0.68729    0.30020    0.42020    1.000
    N58      N        0.57317    0.55980    0.17028    1.000
    N59      N        0.61263    0.39410    0.12398    1.000
    N60      N        0.69657    0.30270    0.30208    1.000
    N61      N        0.01087    0.92880    0.36877    1.000
    N62      N        0.02635    0.13640    0.39717    1.000
    N63      N        0.79259    0.15440    0.35757    1.000
    Ag8      Ag       0.22001    0.25796    0.63755    1.000
    C295     C        0.15550    0.14870    0.37275    1.000
    H211     H        0.15120    0.14720    0.34460    1.000
    C296     C        0.19310    0.20800    0.39299    1.000
    H212     H        0.21870    0.24960    0.38110    1.000
    C297     C        0.18530    0.19340    0.43241    1.000
    H213     H        0.20350    0.22530    0.45360    1.000
    C298     C        0.14461    0.12120    0.43654    1.000
    C299     C        0.12388    0.08050    0.47181    1.000
    C300     C        0.08484    0.00780    0.47369    1.000
    C301     C        0.06740    0.95350    0.50809    1.000
    H214     H        0.07860    0.96380    0.53470    1.000
    C302     C        0.03190    0.88400    0.49592    1.000
    H215     H        0.01390    0.83540    0.51210    1.000
    C303     C        0.02715    0.89840    0.45429    1.000
    H216     H        0.00400    0.86110    0.43800    1.000
    C304     C        0.14623    0.11890    0.50963    1.000
    C305     C        0.11887    0.18290    0.53525    1.000
    H217     H        0.08520    0.19970    0.52920    1.000
    C306     C        0.14073    0.22240    0.56974    1.000
    H218     H        0.12170    0.26710    0.58670    1.000
    C307     C        0.21370    0.13710    0.55534    1.000
    H219     H        0.24690    0.11940    0.56280    1.000
    C308     C        0.19570    0.09780    0.52062    1.000
    H220     H        0.21640    0.05610    0.50380    1.000
    C309     C        0.05023    0.85540    0.81348    1.000
    H221     H        0.02970    0.80730    0.82780    1.000
    C310     C        0.06080    0.84770    0.77232    1.000
    H222     H        0.04940    0.79450    0.75440    1.000
    C311     C        0.09050    0.93140    0.76336    1.000
    H223     H        0.10330    0.94800    0.73760    1.000
    C312     C        0.09930    0.99020    0.79892    1.000
    C313     C        0.12807    0.08000    0.80436    1.000
    C314     C        0.13512    0.13410    0.84001    1.000
    C315     C        0.16586    0.22340    0.84736    1.000
    H224     H        0.18600    0.25910    0.82830    1.000
    C316     C        0.16130    0.24900    0.88682    1.000
    H225     H        0.17710    0.30590    0.90050    1.000
    C317     C        0.12841    0.17340    0.90299    1.000
    H226     H        0.11870    0.17160    0.93030    1.000
    C318     C        0.15369    0.12130    0.76775    1.000
    C319     C        0.18767    0.06330    0.74679    1.000
    H227     H        0.19720    0.99500    0.75610    1.000
    C320     C        0.20846    0.10290    0.71204    1.000
    H228     H        0.23200    0.06090    0.69790    1.000
    C321     C        0.16430    0.25470    0.71872    1.000
    H229     H        0.15610    0.32320    0.70890    1.000
    C322     C        0.14200    0.22230    0.75338    1.000
    H230     H        0.11930    0.26700    0.76720    1.000
    C323     C        0.51090    0.67250    0.64313    1.000
    H231     H        0.53980    0.71610    0.64390    1.000
    C324     C        0.46317    0.70620    0.65436    1.000
    H232     H        0.45410    0.77500    0.66350    1.000
    C325     C        0.43237    0.62210    0.64972    1.000
    H233     H        0.39760    0.62080    0.65520    1.000
    C326     C        0.46126    0.53640    0.63530    1.000
    C327     C        0.44508    0.43490    0.62534    1.000
    C328     C        0.47508    0.35600    0.60942    1.000
    C329     C        0.45900    0.25310    0.59773    1.000
    H234     H        0.42590    0.22630    0.59910    1.000
    C330     C        0.50030    0.19970    0.58406    1.000
    H235     H        0.50160    0.12910    0.57420    1.000
    C331     C        0.54050    0.27190    0.58778    1.000
    H236     H        0.57380    0.25600    0.58030    1.000
    C332     C        0.39174    0.40890    0.63229    1.000
    C333     C        0.37801    0.33950    0.66214    1.000
    H237     H        0.40230    0.31210    0.68000    1.000
    C334     C        0.32845    0.31000    0.66589    1.000
    H238     H        0.31980    0.26150    0.68650    1.000
    C335     C        0.30560    0.41700    0.61517    1.000
    H239     H        0.28020    0.44600    0.59870    1.000
    C336     C        0.35410    0.45180    0.60941    1.000
    H240     H        0.36130    0.50450    0.59000    1.000
    N64      N        0.12740    0.09580    0.39854    1.000
    N65      N        0.05912    0.97100    0.44059    1.000
    N66      N        0.18729    0.19980    0.57980    1.000
    N67      N        0.07317    0.94020    0.82972    1.000
    N68      N        0.11263    0.10590    0.87602    1.000
    N69      N        0.19657    0.19730    0.69792    1.000
    N70      N        0.51087    0.57120    0.63123    1.000
    N71      N        0.52635    0.36360    0.60283    1.000
    N72      N        0.29259    0.34560    0.64243    1.000
