# CIF file generated by openbabel 3.1.0, see https://openbabel.org
data_I
_chemical_name_common 'image0'
_cell_length_a 34.95
_cell_length_b 17.274
_cell_length_c 16.676
_cell_angle_alpha 90
_cell_angle_beta 90
_cell_angle_gamma 90
_space_group_name_H-M_alt 'P 1'
_space_group_name_Hall 'P 1'
loop_
    _symmetry_equiv_pos_as_xyz
    x,y,z
loop_
    _atom_site_label
    _atom_site_type_symbol
    _atom_site_fract_x
    _atom_site_fract_y
    _atom_site_fract_z
    _atom_site_occupancy
    O1       O        0.52000    0.38600    0.64040    1.000
    C1       C        0.48830    0.42410    0.62790    1.000
    N1       N        0.33330    0.99520    0.37060    1.000
    Er1      Er       0.44615    0.55481    0.48225    1.000
    Zn1      Zn       0.34026    0.43164    0.76865    1.000
    Zn2      Zn       0.49068    0.78812    0.76159    1.000
    Zn3      Zn       0.33401    0.82752    0.56453    1.000
    O2       O        0.29160    0.04760    0.61960    1.000
    O3       O        0.41150    0.54580    0.59730    1.000
    O4       O        0.48440    0.46820    0.56400    1.000
    O5       O        0.48270    0.64180    0.55970    1.000
    N2       N        0.32680    0.90580    0.47210    1.000
    O6       O        0.50530    0.70070    0.67060    1.000
    O7       O        0.35860    0.73720    0.48610    1.000
    O8       O        0.33710    0.32680    0.68450    1.000
    N3       N        0.44090    0.79070    0.69240    1.000
    N4       N        0.46120    0.35600    0.74920    1.000
    O9       O        0.36090    0.51530    0.67690    1.000
    O10      O        0.32330    0.15240    0.36710    1.000
    N5       N        0.40130    0.40970    0.76540    1.000
    C2       C        0.30390    0.98510    0.58920    1.000
    C3       C        0.47880    0.69140    0.61600    1.000
    C4       C        0.40870    0.74890    0.58370    1.000
    C5       C        0.39290    0.71570    0.50800    1.000
    N6       N        0.38500    0.80380    0.62270    1.000
    C6       C        0.41930    0.44720    0.69860    1.000
    N7       N        0.28260    0.43410    0.72730    1.000
    O11      O        0.31120    0.92340    0.63310    1.000
    C7       C        0.45660    0.41280    0.68920    1.000
    O12      O        0.29120    0.15610    0.48500    1.000
    C8       C        0.27060    0.36440    0.69370    1.000
    C9       C        0.44250    0.73940    0.62800    1.000
    C10      C        0.33760    0.91730    0.39480    1.000
    C11      C        0.31880    0.03280    0.43820    1.000
    C12      C        0.31010    0.12040    0.42830    1.000
    O13      O        0.29190    0.24630    0.62740    1.000
    C13      C        0.46170    0.59270    0.97320    1.000
    C14      C        0.39560    0.50650    0.65400    1.000
    C15      C        0.42830    0.35520    0.79210    1.000
    C16      C        0.31500    0.98100    0.50160    1.000
    C17      C        0.44820    0.53220    0.03240    1.000
    C18      C        0.48960    0.64840    0.98530    1.000
    H1       H        0.50200    0.64910    0.03460    1.000
    O14      O        0.41260    0.66810    0.46490    1.000
    C19      C        0.30220    0.30800    0.67050    1.000
    C20      C        0.41620    0.48270    0.02000    1.000
    H2       H        0.40320    0.48300    0.97140    1.000
    N8       N        0.48200    0.70340    0.85030    1.000
    C21      C        0.40630    0.82750    0.69110    1.000
    N9       N        0.42390    0.42530    0.15670    1.000
    C22      C        0.46860    0.52600    0.11000    1.000
    H3       H        0.48990    0.55650    0.12040    1.000
    C23      C        0.45720    0.64620    0.83410    1.000
    H4       H        0.44700    0.64260    0.78280    1.000
    C24      C        0.39090    0.88360    0.74840    1.000
    H5       H        0.38190    0.85690    0.79530    1.000
    H6       H        0.37000    0.91110    0.72420    1.000
    H7       H        0.41050    0.91960    0.76340    1.000
    C25      C        0.34850    0.85270    0.33890    1.000
    H8       H        0.32570    0.82890    0.31820    1.000
    H9       H        0.36330    0.81490    0.36750    1.000
    H10      H        0.36330    0.87310    0.29530    1.000
    C26      C        0.41910    0.30350    0.86230    1.000
    H11      H        0.42090    0.25030    0.84600    1.000
    H12      H        0.39360    0.31400    0.88060    1.000
    H13      H        0.43690    0.31330    0.90490    1.000
    C27      C        0.45500    0.47260    0.16820    1.000
    H14      H        0.46780    0.46960    0.21690    1.000
    C28      C        0.40420    0.43200    0.08400    1.000
    H15      H        0.38220    0.40240    0.07660    1.000
    C29      C        0.44620    0.59080    0.89250    1.000
    H16      H        0.42860    0.55260    0.87880    1.000
    C30      C        0.49970    0.70050    0.93190    1.000
    H17      H        0.51840    0.73660    0.94520    1.000
    H18      H        0.26280    0.59120    0.74520    1.000
    H19      H        0.22410    0.57340    0.78910    1.000
    H20      H        0.26310    0.55610    0.83190    1.000
    H21      H        0.41690    0.39270    0.19280    1.000
    O15      O        0.48000    0.88600    0.85960    1.000
    C31      C        0.51170    0.92410    0.87210    1.000
    N10      N        0.66670    0.49520    0.12940    1.000
    Er2      Er       0.55385    0.05481    0.01775    1.000
    Zn4      Zn       0.65974    0.93164    0.73135    1.000
    Zn5      Zn       0.50932    0.28812    0.73841    1.000
    Zn6      Zn       0.66599    0.32752    0.93547    1.000
    O16      O        0.70840    0.54760    0.88040    1.000
    O17      O        0.58850    0.04580    0.90270    1.000
    O18      O        0.51560    0.96820    0.93600    1.000
    O19      O        0.51730    0.14180    0.94030    1.000
    N11      N        0.67320    0.40580    0.02790    1.000
    O20      O        0.49470    0.20070    0.82940    1.000
    O21      O        0.64140    0.23720    0.01390    1.000
    O22      O        0.66290    0.82680    0.81550    1.000
    N12      N        0.55910    0.29070    0.80760    1.000
    N13      N        0.53880    0.85600    0.75080    1.000
    O23      O        0.63910    0.01530    0.82310    1.000
    O24      O        0.67670    0.65240    0.13290    1.000
    N14      N        0.59870    0.90970    0.73460    1.000
    C32      C        0.69610    0.48510    0.91080    1.000
    C33      C        0.52120    0.19140    0.88400    1.000
    C34      C        0.59130    0.24890    0.91630    1.000
    C35      C        0.60710    0.21570    0.99200    1.000
    N15      N        0.61500    0.30380    0.87730    1.000
    C36      C        0.58070    0.94720    0.80140    1.000
    N16      N        0.71740    0.93410    0.77270    1.000
    O25      O        0.68880    0.42340    0.86690    1.000
    C37      C        0.54340    0.91280    0.81080    1.000
    O26      O        0.70880    0.65610    0.01500    1.000
    C38      C        0.72940    0.86440    0.80630    1.000
    C39      C        0.55750    0.23940    0.87200    1.000
    C40      C        0.66240    0.41730    0.10520    1.000
    C41      C        0.68120    0.53280    0.06180    1.000
    C42      C        0.68990    0.62040    0.07170    1.000
    O27      O        0.70810    0.74630    0.87260    1.000
    C43      C        0.53830    0.09270    0.52680    1.000
    C44      C        0.60440    0.00650    0.84600    1.000
    C45      C        0.57170    0.85520    0.70790    1.000
    C46      C        0.68500    0.48100    0.99840    1.000
    C47      C        0.55180    0.03220    0.46760    1.000
    C48      C        0.51040    0.14840    0.51470    1.000
    H22      H        0.49800    0.14910    0.46540    1.000
    O28      O        0.58740    0.16810    0.03510    1.000
    C49      C        0.69780    0.80800    0.82950    1.000
    C50      C        0.58380    0.98270    0.48000    1.000
    H23      H        0.59680    0.98300    0.52860    1.000
    N17      N        0.51800    0.20340    0.64970    1.000
    C51      C        0.59370    0.32750    0.80890    1.000
    N18      N        0.57610    0.92530    0.34330    1.000
    C52      C        0.53140    0.02600    0.39000    1.000
    H24      H        0.51010    0.05650    0.37960    1.000
    C53      C        0.54280    0.14620    0.66590    1.000
    H25      H        0.55300    0.14260    0.71720    1.000
    C54      C        0.60910    0.38360    0.75160    1.000
    H26      H        0.61810    0.35690    0.70470    1.000
    H27      H        0.63000    0.41110    0.77580    1.000
    H28      H        0.58950    0.41960    0.73660    1.000
    C55      C        0.65150    0.35270    0.16110    1.000
    H29      H        0.67430    0.32890    0.18180    1.000
    H30      H        0.63670    0.31490    0.13250    1.000
    H31      H        0.63670    0.37310    0.20470    1.000
    C56      C        0.58090    0.80350    0.63770    1.000
    H32      H        0.57910    0.75030    0.65400    1.000
    H33      H        0.60640    0.81400    0.61940    1.000
    H34      H        0.56310    0.81330    0.59510    1.000
    C57      C        0.54500    0.97260    0.33180    1.000
    H35      H        0.53220    0.96960    0.28310    1.000
    C58      C        0.59580    0.93200    0.41600    1.000
    H36      H        0.61780    0.90240    0.42340    1.000
    C59      C        0.55380    0.09080    0.60750    1.000
    H37      H        0.57140    0.05260    0.62120    1.000
    C60      C        0.50030    0.20050    0.56810    1.000
    H38      H        0.48160    0.23660    0.55480    1.000
    H39      H        0.73720    0.09120    0.75480    1.000
    H40      H        0.77590    0.07340    0.71090    1.000
    H41      H        0.73690    0.05610    0.66810    1.000
    H42      H        0.58310    0.89270    0.30720    1.000
    O29      O        0.02000    0.61400    0.35960    1.000
    C61      C        0.98830    0.57590    0.37210    1.000
    N19      N        0.83330    0.00480    0.62940    1.000
    Er3      Er       0.94615    0.44519    0.51775    1.000
    Zn7      Zn       0.84026    0.56836    0.23135    1.000
    Zn8      Zn       0.99068    0.21188    0.23841    1.000
    Zn9      Zn       0.83401    0.17248    0.43547    1.000
    O30      O        0.79160    0.95240    0.38040    1.000
    O31      O        0.91150    0.45420    0.40270    1.000
    O32      O        0.98440    0.53180    0.43600    1.000
    O33      O        0.98270    0.35820    0.44030    1.000
    N20      N        0.82680    0.09420    0.52790    1.000
    O34      O        0.00530    0.29930    0.32940    1.000
    O35      O        0.85860    0.26280    0.51390    1.000
    O36      O        0.83710    0.67320    0.31550    1.000
    N21      N        0.94090    0.20930    0.30760    1.000
    N22      N        0.96120    0.64400    0.25080    1.000
    O37      O        0.86090    0.48470    0.32310    1.000
    O38      O        0.82330    0.84760    0.63290    1.000
    N23      N        0.90130    0.59030    0.23460    1.000
    C62      C        0.80390    0.01490    0.41080    1.000
    C63      C        0.97880    0.30860    0.38400    1.000
    C64      C        0.90870    0.25110    0.41630    1.000
    C65      C        0.89290    0.28430    0.49200    1.000
    N24      N        0.88500    0.19620    0.37730    1.000
    C66      C        0.91930    0.55280    0.30140    1.000
    N25      N        0.78260    0.56590    0.27270    1.000
    O39      O        0.81120    0.07660    0.36690    1.000
    C67      C        0.95660    0.58720    0.31080    1.000
    O40      O        0.79120    0.84390    0.51500    1.000
    C68      C        0.77060    0.63560    0.30630    1.000
    C69      C        0.94250    0.26060    0.37200    1.000
    C70      C        0.83760    0.08270    0.60520    1.000
    C71      C        0.81880    0.96720    0.56180    1.000
    C72      C        0.81010    0.87960    0.57170    1.000
    O41      O        0.79190    0.75370    0.37260    1.000
    C73      C        0.96170    0.40730    0.02680    1.000
    C74      C        0.89560    0.49350    0.34600    1.000
    C75      C        0.92830    0.64480    0.20790    1.000
    C76      C        0.81500    0.01900    0.49840    1.000
    C77      C        0.94820    0.46780    0.96760    1.000
    C78      C        0.98960    0.35160    0.01470    1.000
    H43      H        0.00200    0.35090    0.96540    1.000
    O42      O        0.91260    0.33190    0.53510    1.000
    C79      C        0.80220    0.69200    0.32950    1.000
    C80      C        0.91620    0.51730    0.98000    1.000
    H44      H        0.90320    0.51700    0.02860    1.000
    N26      N        0.98200    0.29660    0.14970    1.000
    C81      C        0.90630    0.17250    0.30890    1.000
    N27      N        0.92390    0.57470    0.84330    1.000
    C82      C        0.96860    0.47400    0.89000    1.000
    H45      H        0.98990    0.44350    0.87960    1.000
    C83      C        0.95720    0.35380    0.16590    1.000
    H46      H        0.94700    0.35740    0.21720    1.000
    C84      C        0.89090    0.11640    0.25160    1.000
    H47      H        0.88190    0.14310    0.20470    1.000
    H48      H        0.87000    0.08890    0.27580    1.000
    H49      H        0.91050    0.08040    0.23660    1.000
    C85      C        0.84850    0.14730    0.66110    1.000
    H50      H        0.82570    0.17110    0.68180    1.000
    H51      H        0.86330    0.18510    0.63250    1.000
    H52      H        0.86330    0.12690    0.70470    1.000
    C86      C        0.91910    0.69650    0.13770    1.000
    H53      H        0.92090    0.74970    0.15400    1.000
    H54      H        0.89360    0.68600    0.11940    1.000
    H55      H        0.93690    0.68670    0.09510    1.000
    C87      C        0.95500    0.52740    0.83180    1.000
    H56      H        0.96780    0.53040    0.78310    1.000
    C88      C        0.90420    0.56800    0.91600    1.000
    H57      H        0.88220    0.59760    0.92340    1.000
    C89      C        0.94620    0.40920    0.10750    1.000
    H58      H        0.92860    0.44740    0.12120    1.000
    C90      C        0.99970    0.29950    0.06810    1.000
    H59      H        0.01840    0.26340    0.05480    1.000
    H60      H        0.76280    0.40880    0.25480    1.000
    H61      H        0.72410    0.42660    0.21090    1.000
    H62      H        0.76310    0.44390    0.16810    1.000
    H63      H        0.91690    0.60730    0.80720    1.000
    O43      O        0.98000    0.11400    0.14040    1.000
    C91      C        0.01170    0.07590    0.12790    1.000
    N28      N        0.16670    0.50480    0.87060    1.000
    Er4      Er       0.05385    0.94519    0.98225    1.000
    Zn10     Zn       0.15974    0.06836    0.26865    1.000
    Zn11     Zn       0.00932    0.71188    0.26159    1.000
    Zn12     Zn       0.16599    0.67248    0.06453    1.000
    O44      O        0.20840    0.45240    0.11960    1.000
    O45      O        0.08850    0.95420    0.09730    1.000
    O46      O        0.01560    0.03180    0.06400    1.000
    O47      O        0.01730    0.85820    0.05970    1.000
    N29      N        0.17320    0.59420    0.97210    1.000
    O48      O        0.99470    0.79930    0.17060    1.000
    O49      O        0.14140    0.76280    0.98610    1.000
    O50      O        0.16290    0.17320    0.18450    1.000
    N30      N        0.05910    0.70930    0.19240    1.000
    N31      N        0.03880    0.14400    0.24920    1.000
    O51      O        0.13910    0.98470    0.17690    1.000
    O52      O        0.17670    0.34760    0.86710    1.000
    N32      N        0.09870    0.09030    0.26540    1.000
    C92      C        0.19610    0.51490    0.08920    1.000
    C93      C        0.02120    0.80860    0.11600    1.000
    C94      C        0.09130    0.75110    0.08370    1.000
    C95      C        0.10710    0.78430    0.00800    1.000
    N33      N        0.11500    0.69620    0.12270    1.000
    C96      C        0.08070    0.05280    0.19860    1.000
    N34      N        0.21740    0.06590    0.22730    1.000
    O53      O        0.18880    0.57660    0.13310    1.000
    C97      C        0.04340    0.08720    0.18920    1.000
    O54      O        0.20880    0.34390    0.98500    1.000
    C98      C        0.22940    0.13560    0.19370    1.000
    C99      C        0.05750    0.76060    0.12800    1.000
    C100     C        0.16240    0.58270    0.89480    1.000
    C101     C        0.18120    0.46720    0.93820    1.000
    C102     C        0.18990    0.37960    0.92830    1.000
    O55      O        0.20810    0.25370    0.12740    1.000
    C103     C        0.03830    0.90730    0.47320    1.000
    C104     C        0.10440    0.99350    0.15400    1.000
    C105     C        0.07170    0.14480    0.29210    1.000
    C106     C        0.18500    0.51900    0.00160    1.000
    C107     C        0.05180    0.96780    0.53240    1.000
    C108     C        0.01040    0.85160    0.48530    1.000
    H64      H        0.99800    0.85090    0.53460    1.000
    O56      O        0.08740    0.83190    0.96490    1.000
    C109     C        0.19780    0.19200    0.17050    1.000
    C110     C        0.08380    0.01730    0.52000    1.000
    H65      H        0.09680    0.01700    0.47140    1.000
    N35      N        0.01800    0.79660    0.35030    1.000
    C111     C        0.09370    0.67250    0.19110    1.000
    N36      N        0.07610    0.07470    0.65670    1.000
    C112     C        0.03140    0.97400    0.61000    1.000
    H66      H        0.01010    0.94350    0.62040    1.000
    C113     C        0.04280    0.85380    0.33410    1.000
    H67      H        0.05300    0.85740    0.28280    1.000
    C114     C        0.10910    0.61640    0.24840    1.000
    H68      H        0.11810    0.64310    0.29530    1.000
    H69      H        0.13000    0.58890    0.22420    1.000
    H70      H        0.08950    0.58040    0.26340    1.000
    C115     C        0.15150    0.64730    0.83890    1.000
    H71      H        0.17430    0.67110    0.81820    1.000
    H72      H        0.13670    0.68510    0.86750    1.000
    H73      H        0.13670    0.62690    0.79530    1.000
    C116     C        0.08090    0.19650    0.36230    1.000
    H74      H        0.07910    0.24970    0.34600    1.000
    H75      H        0.10640    0.18600    0.38060    1.000
    H76      H        0.06310    0.18670    0.40490    1.000
    C117     C        0.04500    0.02740    0.66820    1.000
    H77      H        0.03220    0.03040    0.71690    1.000
    C118     C        0.09580    0.06800    0.58400    1.000
    H78      H        0.11780    0.09760    0.57660    1.000
    C119     C        0.05380    0.90920    0.39250    1.000
    H79      H        0.07140    0.94740    0.37880    1.000
    C120     C        0.00030    0.79950    0.43190    1.000
    H80      H        0.98160    0.76340    0.44520    1.000
    H81      H        0.23720    0.90880    0.24520    1.000
    H82      H        0.27590    0.92660    0.28910    1.000
    H83      H        0.23690    0.94390    0.33190    1.000
    H84      H        0.08310    0.10730    0.69280    1.000
    O57      O        0.48000    0.61400    0.35960    1.000
    C121     C        0.51170    0.57590    0.37210    1.000
    N37      N        0.66670    0.00480    0.62940    1.000
    Er5      Er       0.55385    0.44519    0.51775    1.000
    Zn13     Zn       0.65974    0.56836    0.23135    1.000
    Zn14     Zn       0.50932    0.21188    0.23841    1.000
    Zn15     Zn       0.66599    0.17248    0.43547    1.000
    O58      O        0.70840    0.95240    0.38040    1.000
    O59      O        0.58850    0.45420    0.40270    1.000
    O60      O        0.51560    0.53180    0.43600    1.000
    O61      O        0.51730    0.35820    0.44030    1.000
    N38      N        0.67320    0.09420    0.52790    1.000
    O62      O        0.49470    0.29930    0.32940    1.000
    O63      O        0.64140    0.26280    0.51390    1.000
    O64      O        0.66290    0.67320    0.31550    1.000
    N39      N        0.55910    0.20930    0.30760    1.000
    N40      N        0.53880    0.64400    0.25080    1.000
    O65      O        0.63910    0.48470    0.32310    1.000
    O66      O        0.67670    0.84760    0.63290    1.000
    N41      N        0.59870    0.59030    0.23460    1.000
    C122     C        0.69610    0.01490    0.41080    1.000
    C123     C        0.52120    0.30860    0.38400    1.000
    C124     C        0.59130    0.25110    0.41630    1.000
    C125     C        0.60710    0.28430    0.49200    1.000
    N42      N        0.61500    0.19620    0.37730    1.000
    C126     C        0.58070    0.55280    0.30140    1.000
    N43      N        0.71740    0.56590    0.27270    1.000
    O67      O        0.68880    0.07660    0.36690    1.000
    C127     C        0.54340    0.58720    0.31080    1.000
    O68      O        0.70880    0.84390    0.51500    1.000
    C128     C        0.72940    0.63560    0.30630    1.000
    C129     C        0.55750    0.26060    0.37200    1.000
    C130     C        0.66240    0.08270    0.60520    1.000
    C131     C        0.68120    0.96720    0.56180    1.000
    C132     C        0.68990    0.87960    0.57170    1.000
    O69      O        0.70810    0.75370    0.37260    1.000
    C133     C        0.53830    0.40730    0.02680    1.000
    C134     C        0.60440    0.49350    0.34600    1.000
    C135     C        0.57170    0.64480    0.20790    1.000
    C136     C        0.68500    0.01900    0.49840    1.000
    C137     C        0.55180    0.46780    0.96760    1.000
    C138     C        0.51040    0.35160    0.01470    1.000
    H85      H        0.49800    0.35090    0.96540    1.000
    O70      O        0.58740    0.33190    0.53510    1.000
    C139     C        0.69780    0.69200    0.32950    1.000
    C140     C        0.58380    0.51730    0.98000    1.000
    H86      H        0.59680    0.51700    0.02860    1.000
    N44      N        0.51800    0.29660    0.14970    1.000
    C141     C        0.59370    0.17250    0.30890    1.000
    N45      N        0.57610    0.57470    0.84330    1.000
    C142     C        0.53140    0.47400    0.89000    1.000
    H87      H        0.51010    0.44350    0.87960    1.000
    C143     C        0.54280    0.35380    0.16590    1.000
    H88      H        0.55300    0.35740    0.21720    1.000
    C144     C        0.60910    0.11640    0.25160    1.000
    H89      H        0.61810    0.14310    0.20470    1.000
    H90      H        0.63000    0.08890    0.27580    1.000
    H91      H        0.58950    0.08040    0.23660    1.000
    C145     C        0.65150    0.14730    0.66110    1.000
    H92      H        0.67430    0.17110    0.68180    1.000
    H93      H        0.63670    0.18510    0.63250    1.000
    H94      H        0.63670    0.12690    0.70470    1.000
    C146     C        0.58090    0.69650    0.13770    1.000
    H95      H        0.57910    0.74970    0.15400    1.000
    H96      H        0.60640    0.68600    0.11940    1.000
    H97      H        0.56310    0.68670    0.09510    1.000
    C147     C        0.54500    0.52740    0.83180    1.000
    H98      H        0.53220    0.53040    0.78310    1.000
    C148     C        0.59580    0.56800    0.91600    1.000
    H99      H        0.61780    0.59760    0.92340    1.000
    C149     C        0.55380    0.40920    0.10750    1.000
    H100     H        0.57140    0.44740    0.12120    1.000
    C150     C        0.50030    0.29950    0.06810    1.000
    H101     H        0.48160    0.26340    0.05480    1.000
    H102     H        0.73720    0.40880    0.25480    1.000
    H103     H        0.77590    0.42660    0.21090    1.000
    H104     H        0.73690    0.44390    0.16810    1.000
    H105     H        0.58310    0.60730    0.80720    1.000
    O71      O        0.52000    0.11400    0.14040    1.000
    C151     C        0.48830    0.07590    0.12790    1.000
    N46      N        0.33330    0.50480    0.87060    1.000
    Er6      Er       0.44615    0.94519    0.98225    1.000
    Zn16     Zn       0.34026    0.06836    0.26865    1.000
    Zn17     Zn       0.49068    0.71188    0.26159    1.000
    Zn18     Zn       0.33401    0.67248    0.06453    1.000
    O72      O        0.29160    0.45240    0.11960    1.000
    O73      O        0.41150    0.95420    0.09730    1.000
    O74      O        0.48440    0.03180    0.06400    1.000
    O75      O        0.48270    0.85820    0.05970    1.000
    N47      N        0.32680    0.59420    0.97210    1.000
    O76      O        0.50530    0.79930    0.17060    1.000
    O77      O        0.35860    0.76280    0.98610    1.000
    O78      O        0.33710    0.17320    0.18450    1.000
    N48      N        0.44090    0.70930    0.19240    1.000
    N49      N        0.46120    0.14400    0.24920    1.000
    O79      O        0.36090    0.98470    0.17690    1.000
    O80      O        0.32330    0.34760    0.86710    1.000
    N50      N        0.40130    0.09030    0.26540    1.000
    C152     C        0.30390    0.51490    0.08920    1.000
    C153     C        0.47880    0.80860    0.11600    1.000
    C154     C        0.40870    0.75110    0.08370    1.000
    C155     C        0.39290    0.78430    0.00800    1.000
    N51      N        0.38500    0.69620    0.12270    1.000
    C156     C        0.41930    0.05280    0.19860    1.000
    N52      N        0.28260    0.06590    0.22730    1.000
    O81      O        0.31120    0.57660    0.13310    1.000
    C157     C        0.45660    0.08720    0.18920    1.000
    O82      O        0.29120    0.34390    0.98500    1.000
    C158     C        0.27060    0.13560    0.19370    1.000
    C159     C        0.44250    0.76060    0.12800    1.000
    C160     C        0.33760    0.58270    0.89480    1.000
    C161     C        0.31880    0.46720    0.93820    1.000
    C162     C        0.31010    0.37960    0.92830    1.000
    O83      O        0.29190    0.25370    0.12740    1.000
    C163     C        0.46170    0.90730    0.47320    1.000
    C164     C        0.39560    0.99350    0.15400    1.000
    C165     C        0.42830    0.14480    0.29210    1.000
    C166     C        0.31500    0.51900    0.00160    1.000
    C167     C        0.44820    0.96780    0.53240    1.000
    C168     C        0.48960    0.85160    0.48530    1.000
    H106     H        0.50200    0.85090    0.53460    1.000
    O84      O        0.41260    0.83190    0.96490    1.000
    C169     C        0.30220    0.19200    0.17050    1.000
    C170     C        0.41620    0.01730    0.52000    1.000
    H107     H        0.40320    0.01700    0.47140    1.000
    N53      N        0.48200    0.79660    0.35030    1.000
    C171     C        0.40630    0.67250    0.19110    1.000
    N54      N        0.42390    0.07470    0.65670    1.000
    C172     C        0.46860    0.97400    0.61000    1.000
    H108     H        0.48990    0.94350    0.62040    1.000
    C173     C        0.45720    0.85380    0.33410    1.000
    H109     H        0.44700    0.85740    0.28280    1.000
    C174     C        0.39090    0.61640    0.24840    1.000
    H110     H        0.38190    0.64310    0.29530    1.000
    H111     H        0.37000    0.58890    0.22420    1.000
    H112     H        0.41050    0.58040    0.26340    1.000
    C175     C        0.34850    0.64730    0.83890    1.000
    H113     H        0.32570    0.67110    0.81820    1.000
    H114     H        0.36330    0.68510    0.86750    1.000
    H115     H        0.36330    0.62690    0.79530    1.000
    C176     C        0.41910    0.19650    0.36230    1.000
    H116     H        0.42090    0.24970    0.34600    1.000
    H117     H        0.39360    0.18600    0.38060    1.000
    H118     H        0.43690    0.18670    0.40490    1.000
    C177     C        0.45500    0.02740    0.66820    1.000
    H119     H        0.46780    0.03040    0.71690    1.000
    C178     C        0.40420    0.06800    0.58400    1.000
    H120     H        0.38220    0.09760    0.57660    1.000
    C179     C        0.44620    0.90920    0.39250    1.000
    H121     H        0.42860    0.94740    0.37880    1.000
    C180     C        0.49970    0.79950    0.43190    1.000
    H122     H        0.51840    0.76340    0.44520    1.000
    H123     H        0.26280    0.90880    0.24520    1.000
    H124     H        0.22410    0.92660    0.28910    1.000
    H125     H        0.26310    0.94390    0.33190    1.000
    H126     H        0.41690    0.10730    0.69280    1.000
    O85      O        0.98000    0.38600    0.64040    1.000
    C181     C        0.01170    0.42410    0.62790    1.000
    N55      N        0.16670    0.99520    0.37060    1.000
    Er7      Er       0.05385    0.55481    0.48225    1.000
    Zn19     Zn       0.15974    0.43164    0.76865    1.000
    Zn20     Zn       0.00932    0.78812    0.76159    1.000
    Zn21     Zn       0.16599    0.82752    0.56453    1.000
    O86      O        0.20840    0.04760    0.61960    1.000
    O87      O        0.08850    0.54580    0.59730    1.000
    O88      O        0.01560    0.46820    0.56400    1.000
    O89      O        0.01730    0.64180    0.55970    1.000
    N56      N        0.17320    0.90580    0.47210    1.000
    O90      O        0.99470    0.70070    0.67060    1.000
    O91      O        0.14140    0.73720    0.48610    1.000
    O92      O        0.16290    0.32680    0.68450    1.000
    N57      N        0.05910    0.79070    0.69240    1.000
    N58      N        0.03880    0.35600    0.74920    1.000
    O93      O        0.13910    0.51530    0.67690    1.000
    O94      O        0.17670    0.15240    0.36710    1.000
    N59      N        0.09870    0.40970    0.76540    1.000
    C182     C        0.19610    0.98510    0.58920    1.000
    C183     C        0.02120    0.69140    0.61600    1.000
    C184     C        0.09130    0.74890    0.58370    1.000
    C185     C        0.10710    0.71570    0.50800    1.000
    N60      N        0.11500    0.80380    0.62270    1.000
    C186     C        0.08070    0.44720    0.69860    1.000
    N61      N        0.21740    0.43410    0.72730    1.000
    O95      O        0.18880    0.92340    0.63310    1.000
    C187     C        0.04340    0.41280    0.68920    1.000
    O96      O        0.20880    0.15610    0.48500    1.000
    C188     C        0.22940    0.36440    0.69370    1.000
    C189     C        0.05750    0.73940    0.62800    1.000
    C190     C        0.16240    0.91730    0.39480    1.000
    C191     C        0.18120    0.03280    0.43820    1.000
    C192     C        0.18990    0.12040    0.42830    1.000
    O97      O        0.20810    0.24630    0.62740    1.000
    C193     C        0.03830    0.59270    0.97320    1.000
    C194     C        0.10440    0.50650    0.65400    1.000
    C195     C        0.07170    0.35520    0.79210    1.000
    C196     C        0.18500    0.98100    0.50160    1.000
    C197     C        0.05180    0.53220    0.03240    1.000
    C198     C        0.01040    0.64840    0.98530    1.000
    H127     H        0.99800    0.64910    0.03460    1.000
    O98      O        0.08740    0.66810    0.46490    1.000
    C199     C        0.19780    0.30800    0.67050    1.000
    C200     C        0.08380    0.48270    0.02000    1.000
    H128     H        0.09680    0.48300    0.97140    1.000
    N62      N        0.01800    0.70340    0.85030    1.000
    C201     C        0.09370    0.82750    0.69110    1.000
    N63      N        0.07610    0.42530    0.15670    1.000
    C202     C        0.03140    0.52600    0.11000    1.000
    H129     H        0.01010    0.55650    0.12040    1.000
    C203     C        0.04280    0.64620    0.83410    1.000
    H130     H        0.05300    0.64260    0.78280    1.000
    C204     C        0.10910    0.88360    0.74840    1.000
    H131     H        0.11810    0.85690    0.79530    1.000
    H132     H        0.13000    0.91110    0.72420    1.000
    H133     H        0.08950    0.91960    0.76340    1.000
    C205     C        0.15150    0.85270    0.33890    1.000
    H134     H        0.17430    0.82890    0.31820    1.000
    H135     H        0.13670    0.81490    0.36750    1.000
    H136     H        0.13670    0.87310    0.29530    1.000
    C206     C        0.08090    0.30350    0.86230    1.000
    H137     H        0.07910    0.25030    0.84600    1.000
    H138     H        0.10640    0.31400    0.88060    1.000
    H139     H        0.06310    0.31330    0.90490    1.000
    C207     C        0.04500    0.47260    0.16820    1.000
    H140     H        0.03220    0.46960    0.21690    1.000
    C208     C        0.09580    0.43200    0.08400    1.000
    H141     H        0.11780    0.40240    0.07660    1.000
    C209     C        0.05380    0.59080    0.89250    1.000
    H142     H        0.07140    0.55260    0.87880    1.000
    C210     C        0.00030    0.70050    0.93190    1.000
    H143     H        0.98160    0.73660    0.94520    1.000
    H144     H        0.23720    0.59120    0.74520    1.000
    H145     H        0.27590    0.57340    0.78910    1.000
    H146     H        0.23690    0.55610    0.83190    1.000
    H147     H        0.08310    0.39270    0.19280    1.000
    O99      O        0.02000    0.88600    0.85960    1.000
    C211     C        0.98830    0.92410    0.87210    1.000
    N64      N        0.83330    0.49520    0.12940    1.000
    Er8      Er       0.94615    0.05481    0.01775    1.000
    Zn22     Zn       0.84026    0.93164    0.73135    1.000
    Zn23     Zn       0.99068    0.28812    0.73841    1.000
    Zn24     Zn       0.83401    0.32752    0.93547    1.000
    O100     O        0.79160    0.54760    0.88040    1.000
    O101     O        0.91150    0.04580    0.90270    1.000
    O102     O        0.98440    0.96820    0.93600    1.000
    O103     O        0.98270    0.14180    0.94030    1.000
    N65      N        0.82680    0.40580    0.02790    1.000
    O104     O        0.00530    0.20070    0.82940    1.000
    O105     O        0.85860    0.23720    0.01390    1.000
    O106     O        0.83710    0.82680    0.81550    1.000
    N66      N        0.94090    0.29070    0.80760    1.000
    N67      N        0.96120    0.85600    0.75080    1.000
    O107     O        0.86090    0.01530    0.82310    1.000
    O108     O        0.82330    0.65240    0.13290    1.000
    N68      N        0.90130    0.90970    0.73460    1.000
    C212     C        0.80390    0.48510    0.91080    1.000
    C213     C        0.97880    0.19140    0.88400    1.000
    C214     C        0.90870    0.24890    0.91630    1.000
    C215     C        0.89290    0.21570    0.99200    1.000
    N69      N        0.88500    0.30380    0.87730    1.000
    C216     C        0.91930    0.94720    0.80140    1.000
    N70      N        0.78260    0.93410    0.77270    1.000
    O109     O        0.81120    0.42340    0.86690    1.000
    C217     C        0.95660    0.91280    0.81080    1.000
    O110     O        0.79120    0.65610    0.01500    1.000
    C218     C        0.77060    0.86440    0.80630    1.000
    C219     C        0.94250    0.23940    0.87200    1.000
    C220     C        0.83760    0.41730    0.10520    1.000
    C221     C        0.81880    0.53280    0.06180    1.000
    C222     C        0.81010    0.62040    0.07170    1.000
    O111     O        0.79190    0.74630    0.87260    1.000
    C223     C        0.96170    0.09270    0.52680    1.000
    C224     C        0.89560    0.00650    0.84600    1.000
    C225     C        0.92830    0.85520    0.70790    1.000
    C226     C        0.81500    0.48100    0.99840    1.000
    C227     C        0.94820    0.03220    0.46760    1.000
    C228     C        0.98960    0.14840    0.51470    1.000
    H148     H        0.00200    0.14910    0.46540    1.000
    O112     O        0.91260    0.16810    0.03510    1.000
    C229     C        0.80220    0.80800    0.82950    1.000
    C230     C        0.91620    0.98270    0.48000    1.000
    H149     H        0.90320    0.98300    0.52860    1.000
    N71      N        0.98200    0.20340    0.64970    1.000
    C231     C        0.90630    0.32750    0.80890    1.000
    N72      N        0.92390    0.92530    0.34330    1.000
    C232     C        0.96860    0.02600    0.39000    1.000
    H150     H        0.98990    0.05650    0.37960    1.000
    C233     C        0.95720    0.14620    0.66590    1.000
    H151     H        0.94700    0.14260    0.71720    1.000
    C234     C        0.89090    0.38360    0.75160    1.000
    H152     H        0.88190    0.35690    0.70470    1.000
    H153     H        0.87000    0.41110    0.77580    1.000
    H154     H        0.91050    0.41960    0.73660    1.000
    C235     C        0.84850    0.35270    0.16110    1.000
    H155     H        0.82570    0.32890    0.18180    1.000
    H156     H        0.86330    0.31490    0.13250    1.000
    H157     H        0.86330    0.37310    0.20470    1.000
    C236     C        0.91910    0.80350    0.63770    1.000
    H158     H        0.92090    0.75030    0.65400    1.000
    H159     H        0.89360    0.81400    0.61940    1.000
    H160     H        0.93690    0.81330    0.59510    1.000
    C237     C        0.95500    0.97260    0.33180    1.000
    H161     H        0.96780    0.96960    0.28310    1.000
    C238     C        0.90420    0.93200    0.41600    1.000
    H162     H        0.88220    0.90240    0.42340    1.000
    C239     C        0.94620    0.09080    0.60750    1.000
    H163     H        0.92860    0.05260    0.62120    1.000
    C240     C        0.99970    0.20050    0.56810    1.000
    H164     H        0.01840    0.23660    0.55480    1.000
    H165     H        0.76280    0.09120    0.75480    1.000
    H166     H        0.72410    0.07340    0.71090    1.000
    H167     H        0.76310    0.05610    0.66810    1.000
    H168     H        0.91690    0.89270    0.30720    1.000
    Er9      Er       0.25000    0.15071    0.59507    1.000
    C241     C        0.25000    0.55650    0.78130    1.000
    C242     C        0.25000    0.47400    0.74550    1.000
    O113     O        0.25000    0.13840    0.74360    1.000
    H169     H        0.25000    0.18400    0.76400    1.000
    Er10     Er       0.75000    0.65071    0.90493    1.000
    C243     C        0.75000    0.05650    0.71870    1.000
    C244     C        0.75000    0.97400    0.75450    1.000
    O114     O        0.75000    0.63840    0.75640    1.000
    H170     H        0.75000    0.68400    0.73600    1.000
    Er11     Er       0.75000    0.84929    0.40493    1.000
    C245     C        0.75000    0.44350    0.21870    1.000
    C246     C        0.75000    0.52600    0.25450    1.000
    O115     O        0.75000    0.86160    0.25640    1.000
    H171     H        0.75000    0.81600    0.23600    1.000
    Er12     Er       0.25000    0.34929    0.09507    1.000
    C247     C        0.25000    0.94350    0.28130    1.000
    C248     C        0.25000    0.02600    0.24550    1.000
    O116     O        0.25000    0.36160    0.24360    1.000
    H172     H        0.25000    0.31600    0.26400    1.000
