# CIF file generated by openbabel 3.1.0, see https://openbabel.org
data_I
_chemical_name_common 'image0'
_cell_length_a 9.73
_cell_length_b 11.755
_cell_length_c 12.509
_cell_angle_alpha 62.698
_cell_angle_beta 71.906
_cell_angle_gamma 75.299
_space_group_name_H-M_alt 'P 1'
_space_group_name_Hall 'P 1'
loop_
    _symmetry_equiv_pos_as_xyz
    x,y,z
loop_
    _atom_site_label
    _atom_site_type_symbol
    _atom_site_fract_x
    _atom_site_fract_y
    _atom_site_fract_z
    _atom_site_occupancy
    Mn1      Mn       0.91354    0.83195    0.86195    1.000
    O1       O        0.69100    0.81100    0.89160    1.000
    O2       O        0.79150    0.61970    0.00270    1.000
    O3       O        0.14170    0.87050    0.91370    1.000
    O4       O        0.06210    0.68680    0.97200    1.000
    O5       O        0.89610    0.02520    0.74950    1.000
    O6       O        0.94510    0.14140    0.82970    1.000
    O7       O        0.99040    0.21970    0.28860    1.000
    O8       O        0.95440    0.43590    0.19260    1.000
    O9       O        0.36510    0.36880    0.27350    1.000
    H1       H        0.44300    0.32190    0.28120    1.000
    O10      O        0.79010    0.59960    0.51420    1.000
    H2       H        0.74510    0.59610    0.58280    1.000
    C1       C        0.68200    0.69610    0.96830    1.000
    C2       C        0.15620    0.74960    0.96580    1.000
    C3       C        0.91150    0.12890    0.74670    1.000
    C4       C        0.95680    0.33020    0.28750    1.000
    C5       C        0.53630    0.64890    0.02330    1.000
    C6       C        0.52180    0.52900    0.12290    1.000
    H3       H        0.60180    0.48000    0.15620    1.000
    C7       C        0.38850    0.48310    0.17230    1.000
    C8       C        0.26950    0.55460    0.11970    1.000
    H4       H        0.18110    0.52170    0.15040    1.000
    C9       C        0.28360    0.67490    0.02130    1.000
    C10      C        0.41620    0.72390    0.97390    1.000
    H5       H        0.42470    0.80570    0.91000    1.000
    C11      C        0.89340    0.24710    0.62920    1.000
    C12      C        0.92140    0.23250    0.51970    1.000
    H6       H        0.94400    0.15050    0.52020    1.000
    C13      C        0.91550    0.34160    0.40920    1.000
    C14      C        0.87460    0.46290    0.41050    1.000
    H7       H        0.87300    0.53580    0.33650    1.000
    C15      C        0.83600    0.47680    0.52050    1.000
    C16      C        0.84940    0.36800    0.63110    1.000
    H8       H        0.82900    0.37690    0.70480    1.000
    Mn2      Mn       0.08646    0.16805    0.13805    1.000
    O11      O        0.30900    0.18900    0.10840    1.000
    O12      O        0.20850    0.38030    0.99730    1.000
    O13      O        0.85830    0.12950    0.08630    1.000
    O14      O        0.93790    0.31320    0.02800    1.000
    O15      O        0.10390    0.97480    0.25050    1.000
    O16      O        0.05490    0.85860    0.17030    1.000
    O17      O        0.00960    0.78030    0.71140    1.000
    O18      O        0.04560    0.56410    0.80740    1.000
    O19      O        0.63490    0.63120    0.72650    1.000
    H9       H        0.55700    0.67810    0.71880    1.000
    O20      O        0.20990    0.40040    0.48580    1.000
    H10      H        0.25490    0.40390    0.41720    1.000
    C17      C        0.31800    0.30390    0.03170    1.000
    C18      C        0.84380    0.25040    0.03420    1.000
    C19      C        0.08850    0.87110    0.25330    1.000
    C20      C        0.04320    0.66980    0.71250    1.000
    C21      C        0.46370    0.35110    0.97670    1.000
    C22      C        0.47820    0.47100    0.87710    1.000
    H11      H        0.39820    0.52000    0.84380    1.000
    C23      C        0.61150    0.51690    0.82770    1.000
    C24      C        0.73050    0.44540    0.88030    1.000
    H12      H        0.81890    0.47830    0.84960    1.000
    C25      C        0.71640    0.32510    0.97870    1.000
    C26      C        0.58380    0.27610    0.02610    1.000
    H13      H        0.57530    0.19430    0.09000    1.000
    C27      C        0.10660    0.75290    0.37080    1.000
    C28      C        0.07860    0.76750    0.48030    1.000
    H14      H        0.05600    0.84950    0.47980    1.000
    C29      C        0.08450    0.65840    0.59080    1.000
    C30      C        0.12540    0.53710    0.58950    1.000
    H15      H        0.12700    0.46420    0.66350    1.000
    C31      C        0.16400    0.52320    0.47950    1.000
    C32      C        0.15060    0.63200    0.36890    1.000
    H16      H        0.17100    0.62310    0.29520    1.000
    Mn3      Mn       0.00000    0.50000    0.00000    1.000
    Mn4      Mn       0.00000    0.00000    0.00000    1.000
