data_functionalizedCrystal
_audit_creation_method	'EQeq! by Chris Wilmer'
_symmetry_space_group_name_H-M	'P1'
_symmetry_Int_Tables_number	1
_symmetry_cell_setting	triclinic
loop_
_symmetry_equiv_pos_as_xyz
  x,y,z
_cell_length_a	15.4035
_cell_length_b	16.2311
_cell_length_c	26.268
_cell_angle_alpha	90
_cell_angle_beta	95.187
_cell_angle_gamma	90
loop_
_atom_site_label
_atom_site_type_symbol
_atom_site_fract_x
_atom_site_fract_y
_atom_site_fract_z
_atom_site_charge
Mof_Mn	Mn	0.83428	0.23169	0.65592	0.921
Mof_O 	O 	0.6405	0.3317	0.5998	-0.396
Mof_Mn	Mn	0.67876	0.24091	0.54724	0.922
Mof_O 	O 	0.7905	0.3191	0.52949	-0.467
Mof_Mn	Mn	0.75278	0.04704	0.61445	0.972
Mof_O 	O 	0.0745	0.6629	0.5579	-0.407
Mof_O 	O 	0.1124	0.5476	0.6009	-0.399
Mof_O 	O 	0.7744	0.1658	0.58846	-0.465
Mof_O 	O 	0.727	0.3091	0.6701	-0.404
Mof_O 	O 	0.8754	0.328	0.6032	-0.393
Mof_O 	O 	0.7393	0.5651	0.423	-0.371
Mof_C 	C 	0.8445	0.3558	0.5612	0.464
Mof_C 	C 	0.6873	0.46	0.7101	0.117
Mof_C 	C 	0.6413	0.4286	0.6667	-0.185
Mof_C 	C 	0.6627	0.5355	0.7303	-0.166
Mof_C 	C 	0.9488	0.4756	0.5689	0.225
Mof_C 	C 	0.974	0.5525	0.5543	-0.261
Mof_O 	O 	0.3989	0.5365	0.6254	-0.351
Mof_C 	C 	0.8722	0.4406	0.547	-0.323
Mof_C 	C 	0.5679	0.4684	0.6472	0.155
Mof_O 	O 	0.45	0.658	0.653	-0.376
Mof_C 	C 	0.8449	0.5619	0.4952	-0.33
Mof_C 	C 	0.6732	0.3502	0.6433	0.435
Mof_C 	C 	0.8214	0.4858	0.5104	0.394
Mof_C 	C 	0.9208	0.5954	0.5175	0.265
Mof_C 	C 	0.0612	0.5901	0.5726	0.443
Mof_C 	C 	0.5408	0.5414	0.6665	-0.179
Mof_C 	C 	0.4578	0.5816	0.6466	0.4
Mof_C 	C 	0.7087	0.5682	0.7784	0.393
Mof_C 	C 	0.5908	0.5765	0.708	0.119
Mof_C 	C 	0.7931	0.6053	0.4522	0.44
Mof_O 	O 	0.7486	0.5156	0.8083	-0.366
Mof_O 	O 	0.7032	0.6424	0.7892	-0.395
Mof_O 	O 	0.8026	0.6803	0.4481	-0.247
Mof_H 	H 	0.552	0.449	0.621	-0.001
Mof_H 	H 	0.982	0.445	0.592	-0.019
Mof_H 	H 	0.569	0.623	0.719	0.006
Mof_H 	H 	0.94	0.641	0.513	-0.046
Mof_H 	H 	0.778	0.47	0.5	-0.159
Mof_H 	H 	0.74	0.43	0.709	0.022
Mof_Mn	Mn	0.33428	0.73169	0.65592	0.923
Mof_O 	O 	0.1405	0.8317	0.5998	-0.395
Mof_Mn	Mn	0.17876	0.74091	0.54724	0.923
Mof_O 	O 	0.2905	0.8191	0.52949	-0.467
Mof_Mn	Mn	0.25278	0.54704	0.61445	0.973
Mof_O 	O 	0.5745	0.1629	0.5579	-0.407
Mof_O 	O 	0.6124	0.0476	0.6009	-0.399
Mof_O 	O 	0.2744	0.6658	0.58846	-0.464
Mof_O 	O 	0.227	0.8091	0.6701	-0.404
Mof_O 	O 	0.3754	0.828	0.6032	-0.393
Mof_O 	O 	0.2393	0.0651	0.423	-0.372
Mof_C 	C 	0.3445	0.8558	0.5612	0.47
Mof_C 	C 	0.1873	0.96	0.7101	0.123
Mof_C 	C 	0.1413	0.9286	0.6667	-0.189
Mof_C 	C 	0.1627	0.0355	0.7303	-0.17
Mof_C 	C 	0.4488	0.9756	0.5689	0.237
Mof_C 	C 	0.474	0.0525	0.5543	-0.272
Mof_O 	O 	0.8989	0.0365	0.6254	-0.352
Mof_C 	C 	0.3722	0.9406	0.547	-0.335
Mof_C 	C 	0.0679	0.9684	0.6472	0.163
Mof_O 	O 	0.95	0.158	0.653	-0.376
Mof_C 	C 	0.3449	0.0619	0.4952	-0.345
Mof_C 	C 	0.1732	0.8502	0.6433	0.437
Mof_C 	C 	0.3214	0.9858	0.5104	0.416
Mof_C 	C 	0.4208	0.0954	0.5175	0.28
Mof_C 	C 	0.5612	0.0901	0.5726	0.447
Mof_C 	C 	0.0408	0.0414	0.6665	-0.185
Mof_C 	C 	0.9578	0.0816	0.6466	0.402
Mof_C 	C 	0.2087	0.0682	0.7784	0.394
Mof_C 	C 	0.0908	0.0765	0.708	0.123
Mof_C 	C 	0.2931	0.1053	0.4522	0.446
Mof_O 	O 	0.2486	0.0156	0.8083	-0.367
Mof_O 	O 	0.2032	0.1424	0.7892	-0.395
Mof_O 	O 	0.3026	0.1803	0.4481	-0.248
Mof_H 	H 	0.052	0.949	0.621	-0.004
Mof_H 	H 	0.482	0.945	0.592	-0.023
Mof_H 	H 	0.069	0.123	0.719	0.004
Mof_H 	H 	0.44	0.141	0.513	-0.052
Mof_H 	H 	0.278	0.97	0.5	-0.17
Mof_H 	H 	0.24	0.93	0.709	0.021
Mof_Mn	Mn	0.16572	0.23169	0.84408	0.921
Mof_O 	O 	0.3595	0.3317	0.9002	-0.395
Mof_Mn	Mn	0.32124	0.24091	0.95276	0.919
Mof_O 	O 	0.2095	0.3191	0.97051	-0.462
Mof_Mn	Mn	0.24722	0.04704	0.88555	0.973
Mof_O 	O 	0.9255	0.6629	0.9421	-0.403
Mof_O 	O 	0.8876	0.5476	0.8991	-0.394
Mof_O 	O 	0.2256	0.1658	0.91154	-0.464
Mof_O 	O 	0.273	0.3091	0.8299	-0.403
Mof_O 	O 	0.1246	0.328	0.8968	-0.387
Mof_O 	O 	0.2607	0.5651	0.077	-0.363
Mof_C 	C 	0.1555	0.3558	0.9388	0.444
Mof_C 	C 	0.3127	0.46	0.7899	0.119
Mof_C 	C 	0.3587	0.4286	0.8333	-0.186
Mof_C 	C 	0.3373	0.5355	0.7697	-0.166
Mof_C 	C 	0.0512	0.4756	0.9311	0.178
Mof_C 	C 	0.026	0.5525	0.9457	-0.221
Mof_O 	O 	0.6011	0.5365	0.8746	-0.351
Mof_C 	C 	0.1278	0.4406	0.953	-0.267
Mof_C 	C 	0.4321	0.4684	0.8528	0.156
Mof_O 	O 	0.55	0.658	0.847	-0.376
Mof_C 	C 	0.1551	0.5619	0.0048	-0.258
Mof_C 	C 	0.3268	0.3502	0.8567	0.436
Mof_C 	C 	0.1786	0.4858	0.9896	0.28
Mof_C 	C 	0.0792	0.5954	0.9825	0.195
Mof_C 	C 	0.9388	0.5901	0.9274	0.429
Mof_C 	C 	0.4592	0.5414	0.8335	-0.18
Mof_C 	C 	0.5422	0.5816	0.8534	0.4
Mof_C 	C 	0.2913	0.5682	0.7216	0.393
Mof_C 	C 	0.4092	0.5765	0.792	0.119
Mof_C 	C 	0.2069	0.6053	0.0478	0.413
Mof_O 	O 	0.2514	0.5156	0.6917	-0.366
Mof_O 	O 	0.2968	0.6424	0.7108	-0.395
Mof_O 	O 	0.1974	0.6803	0.0519	-0.239
Mof_H 	H 	0.448	0.449	0.879	-0.001
Mof_H 	H 	0.018	0.445	0.908	-0.003
Mof_H 	H 	0.431	0.623	0.781	0.005
Mof_H 	H 	0.06	0.641	0.987	-0.017
Mof_H 	H 	0.222	0.47	-0	-0.102
Mof_H 	H 	0.26	0.43	0.791	0.022
Mof_Mn	Mn	0.66572	0.73169	0.84408	0.922
Mof_O 	O 	0.8595	0.8317	0.9002	-0.395
Mof_Mn	Mn	0.82124	0.74091	0.95276	0.92
Mof_O 	O 	0.7095	0.8191	0.97051	-0.463
Mof_Mn	Mn	0.74722	0.54704	0.88555	0.974
Mof_O 	O 	0.4255	0.1629	0.9421	-0.404
Mof_O 	O 	0.3876	0.0476	0.8991	-0.395
Mof_O 	O 	0.7256	0.6658	0.91154	-0.464
Mof_O 	O 	0.773	0.8091	0.8299	-0.403
Mof_O 	O 	0.6246	0.828	0.8968	-0.388
Mof_O 	O 	0.7607	0.0651	0.077	-0.365
Mof_C 	C 	0.6555	0.8558	0.9388	0.448
Mof_C 	C 	0.8127	0.96	0.7899	0.122
Mof_C 	C 	0.8587	0.9286	0.8333	-0.189
Mof_C 	C 	0.8373	0.0355	0.7697	-0.169
Mof_C 	C 	0.5512	0.9756	0.9311	0.188
Mof_C 	C 	0.526	0.0525	0.9457	-0.229
Mof_O 	O 	0.1011	0.0365	0.8746	-0.352
Mof_C 	C 	0.6278	0.9406	0.953	-0.277
Mof_C 	C 	0.9321	0.9684	0.8528	0.161
Mof_O 	O 	0.05	0.158	0.847	-0.376
Mof_C 	C 	0.6551	0.0619	0.0048	-0.271
Mof_C 	C 	0.8268	0.8502	0.8567	0.437
Mof_C 	C 	0.6786	0.9858	0.9896	0.301
Mof_C 	C 	0.5792	0.0954	0.9825	0.207
Mof_C 	C 	0.4388	0.0901	0.9274	0.431
Mof_C 	C 	0.9592	0.0414	0.8335	-0.183
Mof_C 	C 	0.0422	0.0816	0.8534	0.4
Mof_C 	C 	0.7913	0.0682	0.7216	0.394
Mof_C 	C 	0.9092	0.0765	0.792	0.122
Mof_C 	C 	0.7069	0.1053	0.0478	0.418
Mof_O 	O 	0.7514	0.0156	0.6917	-0.366
Mof_O 	O 	0.7968	0.1424	0.7108	-0.395
Mof_O 	O 	0.6974	0.1803	0.0519	-0.24
Mof_H 	H 	0.948	0.949	0.879	-0.004
Mof_H 	H 	0.518	0.945	0.908	-0.006
Mof_H 	H 	0.931	0.123	0.781	0.005
Mof_H 	H 	0.56	0.141	0.987	-0.022
Mof_H 	H 	0.722	0.97	-0	-0.112
Mof_H 	H 	0.76	0.93	0.791	0.021
Mof_Mn	Mn	0.16572	0.76831	0.34408	0.922
Mof_O 	O 	0.3595	0.6683	0.4002	-0.395
Mof_Mn	Mn	0.32124	0.75909	0.45276	0.923
Mof_O 	O 	0.2095	0.6809	0.47051	-0.466
Mof_Mn	Mn	0.24722	0.95296	0.38555	0.974
Mof_O 	O 	0.9255	0.3371	0.4421	-0.406
Mof_O 	O 	0.8876	0.4524	0.3991	-0.398
Mof_O 	O 	0.2256	0.8342	0.41154	-0.464
Mof_O 	O 	0.273	0.6909	0.3299	-0.403
Mof_O 	O 	0.1246	0.672	0.3968	-0.392
Mof_O 	O 	0.2607	0.4349	0.577	-0.37
Mof_C 	C 	0.1555	0.6442	0.4388	0.466
Mof_C 	C 	0.3127	0.54	0.2899	0.118
Mof_C 	C 	0.3587	0.5714	0.3333	-0.185
Mof_C 	C 	0.3373	0.4645	0.2697	-0.166
Mof_C 	C 	0.0512	0.5244	0.4311	0.229
Mof_C 	C 	0.026	0.4475	0.4457	-0.265
Mof_O 	O 	0.6011	0.4635	0.3746	-0.351
Mof_C 	C 	0.1278	0.5594	0.453	-0.327
Mof_C 	C 	0.4321	0.5316	0.3528	0.155
Mof_O 	O 	0.55	0.342	0.347	-0.376
Mof_C 	C 	0.1551	0.4381	0.5048	-0.334
Mof_C 	C 	0.3268	0.6498	0.3567	0.435
Mof_C 	C 	0.1786	0.5142	0.4896	0.4
Mof_C 	C 	0.0792	0.4046	0.4825	0.27
Mof_C 	C 	0.9388	0.4099	0.4274	0.445
Mof_C 	C 	0.4592	0.4586	0.3335	-0.179
Mof_C 	C 	0.5422	0.4184	0.3534	0.4
Mof_C 	C 	0.2913	0.4318	0.2216	0.393
Mof_C 	C 	0.4092	0.4235	0.292	0.119
Mof_C 	C 	0.2069	0.3947	0.5478	0.442
Mof_O 	O 	0.2514	0.4844	0.1917	-0.366
Mof_O 	O 	0.2968	0.3576	0.2108	-0.395
Mof_O 	O 	0.1974	0.3197	0.5519	-0.247
Mof_H 	H 	0.448	0.551	0.379	-0.001
Mof_H 	H 	0.018	0.555	0.408	-0.02
Mof_H 	H 	0.431	0.377	0.281	0.006
Mof_H 	H 	0.06	0.359	0.487	-0.048
Mof_H 	H 	0.222	0.53	0.5	-0.162
Mof_H 	H 	0.26	0.57	0.291	0.022
Mof_Mn	Mn	0.66572	0.26831	0.34408	0.922
Mof_O 	O 	0.8595	0.1683	0.4002	-0.394
Mof_Mn	Mn	0.82124	0.25909	0.45276	0.922
Mof_O 	O 	0.7095	0.1809	0.47051	-0.465
Mof_Mn	Mn	0.74722	0.45296	0.38555	0.973
Mof_O 	O 	0.4255	0.8371	0.4421	-0.406
Mof_O 	O 	0.3876	0.9524	0.3991	-0.397
Mof_O 	O 	0.7256	0.3342	0.41154	-0.464
Mof_O 	O 	0.773	0.1909	0.3299	-0.403
Mof_O 	O 	0.6246	0.172	0.3968	-0.391
Mof_O 	O 	0.7607	0.9349	0.577	-0.368
Mof_C 	C 	0.6555	0.1442	0.4388	0.462
Mof_C 	C 	0.8127	0.04	0.2899	0.114
Mof_C 	C 	0.8587	0.0714	0.3333	-0.181
Mof_C 	C 	0.8373	0.9645	0.2697	-0.161
Mof_C 	C 	0.5512	0.0244	0.4311	0.216
Mof_C 	C 	0.526	0.9475	0.4457	-0.254
Mof_O 	O 	0.1011	0.9635	0.3746	-0.35
Mof_C 	C 	0.6278	0.0594	0.453	-0.314
Mof_C 	C 	0.9321	0.0316	0.3528	0.146
Mof_O 	O 	0.05	0.842	0.347	-0.375
Mof_C 	C 	0.6551	0.9381	0.5048	-0.319
Mof_C 	C 	0.8268	0.1498	0.3567	0.434
Mof_C 	C 	0.6786	0.0142	0.4896	0.377
Mof_C 	C 	0.5792	0.9046	0.4825	0.254
Mof_C 	C 	0.4388	0.9099	0.4274	0.441
Mof_C 	C 	0.9592	0.9586	0.3335	-0.173
Mof_C 	C 	0.0422	0.9184	0.3534	0.397
Mof_C 	C 	0.7913	0.9318	0.2216	0.391
Mof_C 	C 	0.9092	0.9235	0.292	0.114
Mof_C 	C 	0.7069	0.8947	0.5478	0.436
Mof_O 	O 	0.7514	0.9844	0.1917	-0.365
Mof_O 	O 	0.7968	0.8576	0.2108	-0.394
Mof_O 	O 	0.6974	0.8197	0.5519	-0.245
Mof_H 	H 	0.948	0.051	0.379	0.003
Mof_H 	H 	0.518	0.055	0.408	-0.016
Mof_H 	H 	0.931	0.877	0.281	0.008
Mof_H 	H 	0.56	0.859	0.487	-0.041
Mof_H 	H 	0.722	0.03	0.5	-0.151
Mof_H 	H 	0.76	0.07	0.291	0.023
Mof_Mn	Mn	0.83428	0.76831	0.15592	0.923
Mof_O 	O 	0.6405	0.6683	0.0998	-0.395
Mof_Mn	Mn	0.67876	0.75909	0.04724	0.924
Mof_O 	O 	0.7905	0.6809	0.02949	-0.468
Mof_Mn	Mn	0.75278	0.95296	0.11445	0.972
Mof_O 	O 	0.0745	0.3371	0.0579	-0.407
Mof_O 	O 	0.1124	0.4524	0.1009	-0.399
Mof_O 	O 	0.7744	0.8342	0.08846	-0.465
Mof_O 	O 	0.727	0.6909	0.1701	-0.403
Mof_O 	O 	0.8754	0.672	0.1032	-0.395
Mof_O 	O 	0.7393	0.4349	0.923	-0.374
Mof_C 	C 	0.8445	0.6442	0.0612	0.475
Mof_C 	C 	0.6873	0.54	0.2101	0.118
Mof_C 	C 	0.6413	0.5714	0.1667	-0.185
Mof_C 	C 	0.6627	0.4645	0.2303	-0.166
Mof_C 	C 	0.9488	0.5244	0.0689	0.25
Mof_C 	C 	0.974	0.4475	0.0543	-0.283
Mof_O 	O 	0.3989	0.4635	0.1254	-0.351
Mof_C 	C 	0.8722	0.5594	0.047	-0.351
Mof_C 	C 	0.5679	0.5316	0.1472	0.155
Mof_O 	O 	0.45	0.342	0.153	-0.376
Mof_C 	C 	0.8449	0.4381	0.9952	-0.369
Mof_C 	C 	0.6732	0.6498	0.1433	0.435
Mof_C 	C 	0.8214	0.5142	0.0104	0.449
Mof_C 	C 	0.9208	0.4046	0.0175	0.304
Mof_C 	C 	0.0612	0.4099	0.0726	0.452
Mof_C 	C 	0.5408	0.4586	0.1665	-0.179
Mof_C 	C 	0.4578	0.4184	0.1466	0.4
Mof_C 	C 	0.7087	0.4318	0.2784	0.393
Mof_C 	C 	0.5908	0.4235	0.208	0.119
Mof_C 	C 	0.7931	0.3947	0.9522	0.454
Mof_O 	O 	0.7486	0.4844	0.3083	-0.366
Mof_O 	O 	0.7032	0.3576	0.2892	-0.395
Mof_O 	O 	0.8026	0.3197	0.9481	-0.251
Mof_H 	H 	0.552	0.551	0.121	-0
Mof_H 	H 	0.982	0.555	0.092	-0.027
Mof_H 	H 	0.569	0.377	0.219	0.006
Mof_H 	H 	0.94	0.359	0.013	-0.062
Mof_H 	H 	0.778	0.53	-0	-0.184
Mof_H 	H 	0.74	0.57	0.209	0.022
Mof_Mn	Mn	0.33428	0.26831	0.15592	0.922
Mof_O 	O 	0.1405	0.1683	0.0998	-0.394
Mof_Mn	Mn	0.17876	0.25909	0.04724	0.924
Mof_O 	O 	0.2905	0.1809	0.02949	-0.467
Mof_Mn	Mn	0.25278	0.45296	0.11445	0.971
Mof_O 	O 	0.5745	0.8371	0.0579	-0.407
Mof_O 	O 	0.6124	0.9524	0.1009	-0.398
Mof_O 	O 	0.2744	0.3342	0.08846	-0.465
Mof_O 	O 	0.227	0.1909	0.1701	-0.403
Mof_O 	O 	0.3754	0.172	0.1032	-0.394
Mof_O 	O 	0.2393	0.9349	0.923	-0.373
Mof_C 	C 	0.3445	0.1442	0.0612	0.472
Mof_C 	C 	0.1873	0.04	0.2101	0.115
Mof_C 	C 	0.1413	0.0714	0.1667	-0.182
Mof_C 	C 	0.1627	0.9645	0.2303	-0.162
Mof_C 	C 	0.4488	0.0244	0.0689	0.242
Mof_C 	C 	0.474	0.9475	0.0543	-0.277
Mof_O 	O 	0.8989	0.9635	0.1254	-0.35
Mof_C 	C 	0.3722	0.0594	0.047	-0.343
Mof_C 	C 	0.0679	0.0316	0.1472	0.149
Mof_O 	O 	0.95	0.842	0.153	-0.375
Mof_C 	C 	0.3449	0.9381	0.9952	-0.359
Mof_C 	C 	0.1732	0.1498	0.1433	0.434
Mof_C 	C 	0.3214	0.0142	0.0104	0.433
Mof_C 	C 	0.4208	0.9046	0.0175	0.295
Mof_C 	C 	0.5612	0.9099	0.0726	0.45
Mof_C 	C 	0.0408	0.9586	0.1665	-0.176
Mof_C 	C 	0.9578	0.9184	0.1466	0.399
Mof_C 	C 	0.2087	0.9318	0.2784	0.392
Mof_C 	C 	0.0908	0.9235	0.208	0.116
Mof_C 	C 	0.2931	0.8947	0.9522	0.45
Mof_O 	O 	0.2486	0.9844	0.3083	-0.365
Mof_O 	O 	0.2032	0.8576	0.2892	-0.395
Mof_O 	O 	0.3026	0.8197	0.9481	-0.251
Mof_H 	H 	0.052	0.051	0.121	0.002
Mof_H 	H 	0.482	0.055	0.092	-0.025
Mof_H 	H 	0.069	0.877	0.219	0.007
Mof_H 	H 	0.44	0.859	0.013	-0.058
Mof_H 	H 	0.278	0.03	-0	-0.177
Mof_H 	H 	0.24	0.07	0.209	0.023
_end
