# CIF file generated by openbabel 3.1.0, see https://openbabel.org
data_I
_chemical_name_common 'image0'
_cell_length_a 12.6974
_cell_length_b 16.7309
_cell_length_c 14.8076
_cell_angle_alpha 90
_cell_angle_beta 91.452
_cell_angle_gamma 90
_space_group_name_H-M_alt 'P 1'
_space_group_name_Hall 'P 1'
loop_
    _symmetry_equiv_pos_as_xyz
    x,y,z
loop_
    _atom_site_label
    _atom_site_type_symbol
    _atom_site_fract_x
    _atom_site_fract_y
    _atom_site_fract_z
    _atom_site_occupancy
    Sm1      Sm       0.37690    0.19836    0.05535    1.000
    O1       O        0.32690    0.07150    0.13620    1.000
    O2       O        0.37860    0.17290    0.21940    1.000
    O3       O        0.52250    0.73280    0.06450    1.000
    O4       O        0.69290    0.71690    0.07970    1.000
    O5       O        0.29130    0.88560    0.44380    1.000
    O6       O        0.14430    0.83010    0.38550    1.000
    N1       N        0.32690    0.96900    0.28730    1.000
    N2       N        0.40870    0.84700    0.26790    1.000
    C1       C        0.34740    0.10060    0.21290    1.000
    C2       C        0.33320    0.05450    0.29900    1.000
    H1       H        0.39170    0.06650    0.34010    1.000
    H2       H        0.26930    0.07280    0.32700    1.000
    C3       C        0.60180    0.71380    0.11260    1.000
    C4       C        0.58860    0.68880    0.21030    1.000
    H3       H        0.57770    0.63150    0.21310    1.000
    H4       H        0.65240    0.70140    0.24480    1.000
    C5       C        0.22170    0.87690    0.38400    1.000
    C6       C        0.22820    0.92710    0.29770    1.000
    H5       H        0.21690    0.89230    0.24600    1.000
    H6       H        0.17150    0.96600    0.29720    1.000
    C7       C        0.41480    0.92680    0.26800    1.000
    Sm2      Sm       0.87690    0.69836    0.05535    1.000
    O7       O        0.82690    0.57150    0.13620    1.000
    O8       O        0.87860    0.67290    0.21940    1.000
    O9       O        0.02250    0.23280    0.06450    1.000
    O10      O        0.19290    0.21690    0.07970    1.000
    O11      O        0.79130    0.38560    0.44380    1.000
    O12      O        0.64430    0.33010    0.38550    1.000
    N3       N        0.82690    0.46900    0.28730    1.000
    N4       N        0.90870    0.34700    0.26790    1.000
    C8       C        0.84740    0.60060    0.21290    1.000
    C9       C        0.83320    0.55450    0.29900    1.000
    H7       H        0.89170    0.56650    0.34010    1.000
    H8       H        0.76930    0.57280    0.32700    1.000
    C10      C        0.10180    0.21380    0.11260    1.000
    C11      C        0.08860    0.18880    0.21030    1.000
    H9       H        0.07770    0.13150    0.21310    1.000
    H10      H        0.15240    0.20140    0.24480    1.000
    C12      C        0.72170    0.37690    0.38400    1.000
    C13      C        0.72820    0.42710    0.29770    1.000
    H11      H        0.71690    0.39230    0.24600    1.000
    H12      H        0.67150    0.46600    0.29720    1.000
    C14      C        0.91480    0.42680    0.26800    1.000
    Sm3      Sm       0.62310    0.19836    0.44465    1.000
    O13      O        0.67310    0.07150    0.36380    1.000
    O14      O        0.62140    0.17290    0.28060    1.000
    O15      O        0.47750    0.73280    0.43550    1.000
    O16      O        0.30710    0.71690    0.42030    1.000
    O17      O        0.70870    0.88560    0.05620    1.000
    O18      O        0.85570    0.83010    0.11450    1.000
    N5       N        0.67310    0.96900    0.21270    1.000
    N6       N        0.59130    0.84700    0.23210    1.000
    C15      C        0.65260    0.10060    0.28710    1.000
    C16      C        0.66680    0.05450    0.20100    1.000
    H13      H        0.60830    0.06650    0.15990    1.000
    H14      H        0.73070    0.07280    0.17300    1.000
    C17      C        0.39820    0.71380    0.38740    1.000
    C18      C        0.41140    0.68880    0.28970    1.000
    H15      H        0.42230    0.63150    0.28690    1.000
    H16      H        0.34760    0.70140    0.25520    1.000
    C19      C        0.77830    0.87690    0.11600    1.000
    C20      C        0.77180    0.92710    0.20230    1.000
    H17      H        0.78310    0.89230    0.25400    1.000
    H18      H        0.82850    0.96600    0.20280    1.000
    C21      C        0.58520    0.92680    0.23200    1.000
    Sm4      Sm       0.12310    0.69836    0.44465    1.000
    O19      O        0.17310    0.57150    0.36380    1.000
    O20      O        0.12140    0.67290    0.28060    1.000
    O21      O        0.97750    0.23280    0.43550    1.000
    O22      O        0.80710    0.21690    0.42030    1.000
    O23      O        0.20870    0.38560    0.05620    1.000
    O24      O        0.35570    0.33010    0.11450    1.000
    N7       N        0.17310    0.46900    0.21270    1.000
    N8       N        0.09130    0.34700    0.23210    1.000
    C22      C        0.15260    0.60060    0.28710    1.000
    C23      C        0.16680    0.55450    0.20100    1.000
    H19      H        0.10830    0.56650    0.15990    1.000
    H20      H        0.23070    0.57280    0.17300    1.000
    C24      C        0.89820    0.21380    0.38740    1.000
    C25      C        0.91140    0.18880    0.28970    1.000
    H21      H        0.92230    0.13150    0.28690    1.000
    H22      H        0.84760    0.20140    0.25520    1.000
    C26      C        0.27830    0.37690    0.11600    1.000
    C27      C        0.27180    0.42710    0.20230    1.000
    H23      H        0.28310    0.39230    0.25400    1.000
    H24      H        0.32850    0.46600    0.20280    1.000
    C28      C        0.08520    0.42680    0.23200    1.000
    Sm5      Sm       0.62310    0.80165    0.94465    1.000
    O25      O        0.67310    0.92850    0.86380    1.000
    O26      O        0.62140    0.82710    0.78060    1.000
    O27      O        0.47750    0.26720    0.93550    1.000
    O28      O        0.30710    0.28310    0.92030    1.000
    O29      O        0.70870    0.11440    0.55620    1.000
    O30      O        0.85570    0.16990    0.61450    1.000
    N9       N        0.67310    0.03100    0.71270    1.000
    N10      N        0.59130    0.15300    0.73210    1.000
    C29      C        0.65260    0.89940    0.78710    1.000
    C30      C        0.66680    0.94550    0.70100    1.000
    H25      H        0.60830    0.93350    0.65990    1.000
    H26      H        0.73070    0.92720    0.67300    1.000
    C31      C        0.39820    0.28620    0.88740    1.000
    C32      C        0.41140    0.31120    0.78970    1.000
    H27      H        0.42230    0.36850    0.78690    1.000
    H28      H        0.34760    0.29860    0.75520    1.000
    C33      C        0.77830    0.12310    0.61600    1.000
    C34      C        0.77180    0.07290    0.70230    1.000
    H29      H        0.78310    0.10770    0.75400    1.000
    H30      H        0.82850    0.03400    0.70280    1.000
    C35      C        0.58520    0.07320    0.73200    1.000
    Sm6      Sm       0.12310    0.30165    0.94465    1.000
    O31      O        0.17310    0.42850    0.86380    1.000
    O32      O        0.12140    0.32710    0.78060    1.000
    O33      O        0.97750    0.76720    0.93550    1.000
    O34      O        0.80710    0.78310    0.92030    1.000
    O35      O        0.20870    0.61440    0.55620    1.000
    O36      O        0.35570    0.66990    0.61450    1.000
    N11      N        0.17310    0.53100    0.71270    1.000
    N12      N        0.09130    0.65300    0.73210    1.000
    C36      C        0.15260    0.39940    0.78710    1.000
    C37      C        0.16680    0.44550    0.70100    1.000
    H31      H        0.10830    0.43350    0.65990    1.000
    H32      H        0.23070    0.42720    0.67300    1.000
    C38      C        0.89820    0.78620    0.88740    1.000
    C39      C        0.91140    0.81120    0.78970    1.000
    H33      H        0.92230    0.86850    0.78690    1.000
    H34      H        0.84760    0.79860    0.75520    1.000
    C40      C        0.27830    0.62310    0.61600    1.000
    C41      C        0.27180    0.57290    0.70230    1.000
    H35      H        0.28310    0.60770    0.75400    1.000
    H36      H        0.32850    0.53400    0.70280    1.000
    C42      C        0.08520    0.57320    0.73200    1.000
    Sm7      Sm       0.37690    0.80165    0.55535    1.000
    O37      O        0.32690    0.92850    0.63620    1.000
    O38      O        0.37860    0.82710    0.71940    1.000
    O39      O        0.52250    0.26720    0.56450    1.000
    O40      O        0.69290    0.28310    0.57970    1.000
    O41      O        0.29130    0.11440    0.94380    1.000
    O42      O        0.14430    0.16990    0.88550    1.000
    N13      N        0.32690    0.03100    0.78730    1.000
    N14      N        0.40870    0.15300    0.76790    1.000
    C43      C        0.34740    0.89940    0.71290    1.000
    C44      C        0.33320    0.94550    0.79900    1.000
    H37      H        0.39170    0.93350    0.84010    1.000
    H38      H        0.26930    0.92720    0.82700    1.000
    C45      C        0.60180    0.28620    0.61260    1.000
    C46      C        0.58860    0.31120    0.71030    1.000
    H39      H        0.57770    0.36850    0.71310    1.000
    H40      H        0.65240    0.29860    0.74480    1.000
    C47      C        0.22170    0.12310    0.88400    1.000
    C48      C        0.22820    0.07290    0.79770    1.000
    H41      H        0.21690    0.10770    0.74600    1.000
    H42      H        0.17150    0.03400    0.79720    1.000
    C49      C        0.41480    0.07320    0.76800    1.000
    Sm8      Sm       0.87690    0.30165    0.55535    1.000
    O43      O        0.82690    0.42850    0.63620    1.000
    O44      O        0.87860    0.32710    0.71940    1.000
    O45      O        0.02250    0.76720    0.56450    1.000
    O46      O        0.19290    0.78310    0.57970    1.000
    O47      O        0.79130    0.61440    0.94380    1.000
    O48      O        0.64430    0.66990    0.88550    1.000
    N15      N        0.82690    0.53100    0.78730    1.000
    N16      N        0.90870    0.65300    0.76790    1.000
    C50      C        0.84740    0.39940    0.71290    1.000
    C51      C        0.83320    0.44550    0.79900    1.000
    H43      H        0.89170    0.43350    0.84010    1.000
    H44      H        0.76930    0.42720    0.82700    1.000
    C52      C        0.10180    0.78620    0.61260    1.000
    C53      C        0.08860    0.81120    0.71030    1.000
    H45      H        0.07770    0.86850    0.71310    1.000
    H46      H        0.15240    0.79860    0.74480    1.000
    C54      C        0.72170    0.62310    0.88400    1.000
    C55      C        0.72820    0.57290    0.79770    1.000
    H47      H        0.71690    0.60770    0.74600    1.000
    H48      H        0.67150    0.53400    0.79720    1.000
    C56      C        0.91480    0.57320    0.76800    1.000
    N17      N        0.50000    0.72930    0.25000    1.000
    N18      N        0.50000    0.97100    0.25000    1.000
    C57      C        0.50000    0.81110    0.25000    1.000
    N19      N        0.00000    0.22930    0.25000    1.000
    N20      N        0.00000    0.47100    0.25000    1.000
    C58      C        0.00000    0.31110    0.25000    1.000
    N21      N        0.50000    0.27070    0.75000    1.000
    N22      N        0.50000    0.02900    0.75000    1.000
    C59      C        0.50000    0.18890    0.75000    1.000
    N23      N        0.00000    0.77070    0.75000    1.000
    N24      N        0.00000    0.52900    0.75000    1.000
    C60      C        0.00000    0.68890    0.75000    1.000
