data_functionalizedCrystal
_audit_creation_method	'EQeq! by Chris Wilmer'
_symmetry_space_group_name_H-M	'P1'
_symmetry_Int_Tables_number	1
_symmetry_cell_setting	triclinic
loop_
_symmetry_equiv_pos_as_xyz
  x,y,z
_cell_length_a	16.442
_cell_length_b	17.697
_cell_length_c	27.528
_cell_angle_alpha	90
_cell_angle_beta	90
_cell_angle_gamma	90
loop_
_atom_site_label
_atom_site_type_symbol
_atom_site_fract_x
_atom_site_fract_y
_atom_site_fract_z
_atom_site_charge
Mof_Zn	Zn	0.51387	0.24918	0.38413	1.244
Mof_O 	O 	0.61604	0.25093	0.34789	-0.425
Mof_O 	O 	0.58926	0.1459	0.3053	-0.284
Mof_O 	O 	0.91503	0.21998	0.15165	-0.407
Mof_O 	O 	0.95249	0.31589	0.19872	-0.298
Mof_O 	O 	0.5152	0.3484	0.41433	-0.428
Mof_O 	O 	0.3859	0.3448	0.43957	-0.277
Mof_O 	O 	0.50873	0.17342	0.43483	-0.441
Mof_O 	O 	0.63531	0.15874	0.46207	-0.274
Mof_C 	C 	0.62911	0.20348	0.31394	0.336
Mof_C 	C 	0.70128	0.22083	0.28207	-0.099
Mof_C 	C 	0.77848	0.19826	0.29722	0.051
Mof_C 	C 	0.79242	0.16391	0.34388	-0.068
Mof_H 	H 	0.7478	0.1546	0.365	0.075
Mof_C 	C 	0.86853	0.14467	0.35802	-0.022
Mof_H 	H 	0.8768	0.1231	0.3892	0.052
Mof_C 	C 	0.93586	0.15621	0.32693	-0.021
Mof_H 	H 	0.9888	0.1419	0.3373	0.047
Mof_C 	C 	0.92536	0.1877	0.28232	-0.07
Mof_H 	H 	0.971	0.1942	0.2616	0.072
Mof_C 	C 	0.84707	0.21118	0.26613	0.047
Mof_C 	C 	0.8347	0.24657	0.22105	-0.094
Mof_C 	C 	0.75778	0.27026	0.20621	0.048
Mof_C 	C 	0.74471	0.30882	0.16094	-0.069
Mof_H 	H 	0.789	0.3159	0.1392	0.08
Mof_C 	C 	0.67021	0.33518	0.1488	-0.024
Mof_H 	H 	0.6626	0.3604	0.1187	0.052
Mof_C 	C 	0.60326	0.32547	0.18083	-0.019
Mof_H 	H 	0.5515	0.3453	0.1722	0.046
Mof_C 	C 	0.61237	0.28823	0.22362	-0.074
Mof_H 	H 	0.5668	0.2821	0.2445	0.075
Mof_C 	C 	0.68932	0.25824	0.2377	0.05
Mof_C 	C 	0.90634	0.26313	0.18899	0.316
Mof_C 	C 	0.45514	0.37164	0.43938	0.338
Mof_C 	C 	0.47641	0.43821	0.47122	-0.097
Mof_C 	C 	0.52271	0.42559	0.51311	0.046
Mof_C 	C 	0.54775	0.35148	0.52757	-0.065
Mof_H 	H 	0.5332	0.3093	0.5081	0.062
Mof_C 	C 	0.59197	0.34025	0.56861	-0.025
Mof_H 	H 	0.6079	0.2905	0.5775	0.047
Mof_C 	C 	0.61447	0.40246	0.5983	-0.022
Mof_H 	H 	0.6446	0.3939	0.6272	0.05
Mof_C 	C 	0.59324	0.4742	0.58568	-0.069
Mof_H 	H 	0.6093	0.5153	0.6057	0.074
Mof_C 	C 	0.45291	0.51156	0.4574	0.05
Mof_C 	C 	0.5639	0.13908	0.45808	0.356
Mof_C 	C 	0.53397	0.06655	0.481	-0.103
Mof_C 	C 	0.49042	0.06957	0.52457	0.051
Mof_C 	C 	0.47851	0.13879	0.55074	-0.067
Mof_H 	H 	0.5005	0.1844	0.5381	0.064
Mof_C 	C 	0.43671	0.14058	0.59308	-0.024
Mof_H 	H 	0.429	0.1872	0.6096	0.046
Mof_C 	C 	0.40434	0.07294	0.61289	-0.02
Mof_H 	H 	0.3759	0.0746	0.6429	0.052
Mof_C 	C 	0.4134	0.006	0.58951	-0.068
Mof_H 	H 	0.3912	0.9614	0.6034	0.071
Mof_C 	C 	0.54402	0.99855	0.45586	0.05
Mof_Zn	Zn	0.98613	0.75083	0.88413	1.245
Mof_O 	O 	0.88396	0.74907	0.84789	-0.424
Mof_O 	O 	0.91074	0.8541	0.8053	-0.283
Mof_O 	O 	0.58497	0.78002	0.65165	-0.407
Mof_O 	O 	0.54751	0.68411	0.69872	-0.297
Mof_O 	O 	0.9848	0.6516	0.91433	-0.427
Mof_O 	O 	0.1141	0.6552	0.93957	-0.276
Mof_O 	O 	0.99127	0.82658	0.93483	-0.441
Mof_O 	O 	0.86469	0.84126	0.96207	-0.274
Mof_C 	C 	0.87089	0.79652	0.81394	0.336
Mof_C 	C 	0.79872	0.77917	0.78207	-0.099
Mof_C 	C 	0.72152	0.80174	0.79722	0.051
Mof_C 	C 	0.70758	0.83609	0.84388	-0.068
Mof_H 	H 	0.7522	0.8454	0.865	0.075
Mof_C 	C 	0.63147	0.85533	0.85802	-0.023
Mof_H 	H 	0.6232	0.8769	0.8892	0.052
Mof_C 	C 	0.56414	0.84379	0.82693	-0.021
Mof_H 	H 	0.5112	0.8581	0.8373	0.046
Mof_C 	C 	0.57464	0.8123	0.78232	-0.07
Mof_H 	H 	0.529	0.8058	0.7616	0.072
Mof_C 	C 	0.65293	0.78882	0.76613	0.047
Mof_C 	C 	0.6653	0.75343	0.72105	-0.094
Mof_C 	C 	0.74222	0.72974	0.70621	0.048
Mof_C 	C 	0.75529	0.69118	0.66094	-0.069
Mof_H 	H 	0.711	0.6841	0.6392	0.08
Mof_C 	C 	0.82979	0.66482	0.6488	-0.024
Mof_H 	H 	0.8374	0.6396	0.6187	0.052
Mof_C 	C 	0.89674	0.67453	0.68083	-0.019
Mof_H 	H 	0.9485	0.6547	0.6722	0.046
Mof_C 	C 	0.88763	0.71177	0.72362	-0.074
Mof_H 	H 	0.9332	0.7179	0.7445	0.075
Mof_C 	C 	0.81068	0.74176	0.7377	0.05
Mof_C 	C 	0.59366	0.73687	0.68899	0.316
Mof_C 	C 	0.04486	0.62836	0.93938	0.338
Mof_C 	C 	0.02359	0.56179	0.97122	-0.096
Mof_C 	C 	0.97729	0.57441	0.01311	0.046
Mof_C 	C 	0.95225	0.64852	0.02757	-0.065
Mof_H 	H 	0.9668	0.6907	0.0081	0.062
Mof_C 	C 	0.90803	0.65975	0.06861	-0.025
Mof_H 	H 	0.8921	0.7095	0.0775	0.047
Mof_C 	C 	0.88553	0.59754	0.0983	-0.022
Mof_H 	H 	0.8554	0.6061	0.1272	0.05
Mof_C 	C 	0.90676	0.5258	0.08568	-0.069
Mof_H 	H 	0.8907	0.4847	0.1057	0.074
Mof_C 	C 	0.04709	0.48844	0.9574	0.05
Mof_C 	C 	0.9361	0.86092	0.95808	0.356
Mof_C 	C 	0.96603	0.93345	0.981	-0.105
Mof_C 	C 	0.00958	0.93043	0.02457	0.052
Mof_C 	C 	0.02149	0.86121	0.05074	-0.066
Mof_H 	H 	0.9995	0.8156	0.0381	0.063
Mof_C 	C 	0.06329	0.85942	0.09308	-0.024
Mof_H 	H 	0.071	0.8128	0.1096	0.046
Mof_C 	C 	0.09566	0.92706	0.11289	-0.02
Mof_H 	H 	0.1241	0.9254	0.1429	0.053
Mof_C 	C 	0.0866	0.994	0.08951	-0.066
Mof_H 	H 	0.1088	0.0386	0.1034	0.07
Mof_C 	C 	0.95598	0.00145	0.95586	0.051
Mof_Zn	Zn	0.48613	0.75083	0.61587	1.245
Mof_O 	O 	0.38396	0.74907	0.65211	-0.424
Mof_O 	O 	0.41074	0.8541	0.6947	-0.283
Mof_O 	O 	0.08497	0.78002	0.84835	-0.406
Mof_O 	O 	0.04751	0.68411	0.80128	-0.297
Mof_O 	O 	0.4848	0.6516	0.58567	-0.427
Mof_O 	O 	0.6141	0.6552	0.56043	-0.276
Mof_O 	O 	0.49127	0.82658	0.56517	-0.44
Mof_O 	O 	0.36469	0.84126	0.53793	-0.273
Mof_C 	C 	0.37089	0.79652	0.68606	0.336
Mof_C 	C 	0.29872	0.77917	0.71793	-0.099
Mof_C 	C 	0.22152	0.80174	0.70278	0.051
Mof_C 	C 	0.20758	0.83609	0.65612	-0.068
Mof_H 	H 	0.2522	0.8454	0.635	0.075
Mof_C 	C 	0.13147	0.85533	0.64198	-0.022
Mof_H 	H 	0.1232	0.8769	0.6108	0.052
Mof_C 	C 	0.06414	0.84379	0.67307	-0.021
Mof_H 	H 	0.0112	0.8581	0.6627	0.047
Mof_C 	C 	0.07464	0.8123	0.71768	-0.07
Mof_H 	H 	0.029	0.8058	0.7384	0.072
Mof_C 	C 	0.15293	0.78882	0.73387	0.047
Mof_C 	C 	0.1653	0.75343	0.77895	-0.094
Mof_C 	C 	0.24222	0.72974	0.79379	0.048
Mof_C 	C 	0.25529	0.69118	0.83906	-0.069
Mof_H 	H 	0.211	0.6841	0.8608	0.08
Mof_C 	C 	0.32979	0.66482	0.8512	-0.024
Mof_H 	H 	0.3374	0.6396	0.8813	0.052
Mof_C 	C 	0.39674	0.67453	0.81917	-0.019
Mof_H 	H 	0.4485	0.6547	0.8278	0.046
Mof_C 	C 	0.38763	0.71177	0.77638	-0.074
Mof_H 	H 	0.4332	0.7179	0.7555	0.075
Mof_C 	C 	0.31068	0.74176	0.7623	0.05
Mof_C 	C 	0.09366	0.73687	0.81101	0.316
Mof_C 	C 	0.54486	0.62836	0.56062	0.338
Mof_C 	C 	0.52359	0.56179	0.52878	-0.097
Mof_C 	C 	0.47729	0.57441	0.48689	0.046
Mof_C 	C 	0.45225	0.64852	0.47243	-0.065
Mof_H 	H 	0.4668	0.6907	0.4919	0.062
Mof_C 	C 	0.40803	0.65975	0.43139	-0.025
Mof_H 	H 	0.3921	0.7095	0.4225	0.047
Mof_C 	C 	0.38553	0.59754	0.4017	-0.022
Mof_H 	H 	0.3554	0.6061	0.3728	0.05
Mof_C 	C 	0.40676	0.5258	0.41432	-0.069
Mof_H 	H 	0.3907	0.4847	0.3943	0.074
Mof_C 	C 	0.54709	0.48844	0.5426	0.05
Mof_C 	C 	0.4361	0.86092	0.54192	0.356
Mof_C 	C 	0.46603	0.93345	0.519	-0.103
Mof_C 	C 	0.50958	0.93043	0.47543	0.051
Mof_C 	C 	0.52149	0.86121	0.44926	-0.067
Mof_H 	H 	0.4995	0.8156	0.4619	0.064
Mof_C 	C 	0.56329	0.85942	0.40692	-0.024
Mof_H 	H 	0.571	0.8128	0.3904	0.046
Mof_C 	C 	0.59566	0.92706	0.38711	-0.02
Mof_H 	H 	0.6241	0.9254	0.3571	0.052
Mof_C 	C 	0.5866	0.994	0.41049	-0.068
Mof_H 	H 	0.6088	0.0386	0.3966	0.071
Mof_C 	C 	0.45598	0.00145	0.54414	0.05
Mof_Zn	Zn	0.01387	0.24918	0.11587	1.245
Mof_O 	O 	0.11604	0.25093	0.15211	-0.424
Mof_O 	O 	0.08926	0.1459	0.1947	-0.283
Mof_O 	O 	0.41503	0.21998	0.34835	-0.407
Mof_O 	O 	0.45249	0.31589	0.30128	-0.297
Mof_O 	O 	0.0152	0.3484	0.08567	-0.427
Mof_O 	O 	0.8859	0.3448	0.06043	-0.276
Mof_O 	O 	0.00873	0.17342	0.06517	-0.441
Mof_O 	O 	0.13531	0.15874	0.03793	-0.274
Mof_C 	C 	0.12911	0.20348	0.18606	0.336
Mof_C 	C 	0.20128	0.22083	0.21793	-0.099
Mof_C 	C 	0.27848	0.19826	0.20278	0.051
Mof_C 	C 	0.29242	0.16391	0.15612	-0.068
Mof_H 	H 	0.2478	0.1546	0.135	0.075
Mof_C 	C 	0.36853	0.14467	0.14198	-0.023
Mof_H 	H 	0.3768	0.1231	0.1108	0.052
Mof_C 	C 	0.43586	0.15621	0.17307	-0.021
Mof_H 	H 	0.4888	0.1419	0.1627	0.046
Mof_C 	C 	0.42536	0.1877	0.21768	-0.07
Mof_H 	H 	0.471	0.1942	0.2384	0.072
Mof_C 	C 	0.34707	0.21118	0.23387	0.046
Mof_C 	C 	0.3347	0.24657	0.27895	-0.094
Mof_C 	C 	0.25778	0.27026	0.29379	0.048
Mof_C 	C 	0.24471	0.30882	0.33906	-0.069
Mof_H 	H 	0.289	0.3159	0.3608	0.08
Mof_C 	C 	0.17021	0.33518	0.3512	-0.024
Mof_H 	H 	0.1626	0.3604	0.3813	0.052
Mof_C 	C 	0.10326	0.32547	0.31917	-0.019
Mof_H 	H 	0.0515	0.3453	0.3278	0.046
Mof_C 	C 	0.11237	0.28823	0.27638	-0.074
Mof_H 	H 	0.0668	0.2821	0.2555	0.075
Mof_C 	C 	0.18932	0.25824	0.2623	0.05
Mof_C 	C 	0.40634	0.26313	0.31101	0.316
Mof_C 	C 	0.95514	0.37164	0.06062	0.338
Mof_C 	C 	0.97641	0.43821	0.02878	-0.096
Mof_C 	C 	0.02271	0.42559	0.98689	0.046
Mof_C 	C 	0.04775	0.35148	0.97243	-0.065
Mof_H 	H 	0.0332	0.3093	0.9919	0.062
Mof_C 	C 	0.09197	0.34025	0.93139	-0.025
Mof_H 	H 	0.1079	0.2905	0.9225	0.047
Mof_C 	C 	0.11447	0.40246	0.9017	-0.022
Mof_H 	H 	0.1446	0.3939	0.8728	0.05
Mof_C 	C 	0.09324	0.4742	0.91432	-0.069
Mof_H 	H 	0.1093	0.5153	0.8943	0.074
Mof_C 	C 	0.95291	0.51156	0.0426	0.05
Mof_C 	C 	0.0639	0.13908	0.04192	0.356
Mof_C 	C 	0.03397	0.06655	0.019	-0.105
Mof_C 	C 	0.99042	0.06957	0.97543	0.052
Mof_C 	C 	0.97851	0.13879	0.94926	-0.066
Mof_H 	H 	0.0005	0.1844	0.9619	0.063
Mof_C 	C 	0.93671	0.14058	0.90692	-0.024
Mof_H 	H 	0.929	0.1872	0.8904	0.046
Mof_C 	C 	0.90434	0.07294	0.88711	-0.02
Mof_H 	H 	0.8759	0.0746	0.8571	0.053
Mof_C 	C 	0.9134	0.006	0.91049	-0.066
Mof_H 	H 	0.8912	0.9614	0.8966	0.07
Mof_C 	C 	0.04402	0.99855	0.04414	0.051
Mof_Zn	Zn	0.48613	0.74918	0.11587	1.245
Mof_O 	O 	0.38396	0.75093	0.15211	-0.424
Mof_O 	O 	0.41074	0.6459	0.1947	-0.283
Mof_O 	O 	0.08497	0.71998	0.34835	-0.407
Mof_O 	O 	0.04751	0.81589	0.30128	-0.297
Mof_O 	O 	0.4848	0.8484	0.08567	-0.427
Mof_O 	O 	0.6141	0.8448	0.06043	-0.276
Mof_O 	O 	0.49127	0.67342	0.06517	-0.44
Mof_O 	O 	0.36469	0.65874	0.03793	-0.273
Mof_C 	C 	0.37089	0.70348	0.18606	0.336
Mof_C 	C 	0.29872	0.72083	0.21793	-0.099
Mof_C 	C 	0.22152	0.69826	0.20278	0.051
Mof_C 	C 	0.20758	0.66391	0.15612	-0.068
Mof_H 	H 	0.2522	0.6546	0.135	0.075
Mof_C 	C 	0.13147	0.64467	0.14198	-0.022
Mof_H 	H 	0.1232	0.6231	0.1108	0.052
Mof_C 	C 	0.06414	0.65621	0.17307	-0.021
Mof_H 	H 	0.0112	0.6419	0.1627	0.046
Mof_C 	C 	0.07464	0.6877	0.21768	-0.07
Mof_H 	H 	0.029	0.6942	0.2384	0.072
Mof_C 	C 	0.15293	0.71118	0.23387	0.047
Mof_C 	C 	0.1653	0.74657	0.27895	-0.094
Mof_C 	C 	0.24222	0.77026	0.29379	0.048
Mof_C 	C 	0.25529	0.80882	0.33906	-0.069
Mof_H 	H 	0.211	0.8159	0.3608	0.08
Mof_C 	C 	0.32979	0.83518	0.3512	-0.024
Mof_H 	H 	0.3374	0.8604	0.3813	0.052
Mof_C 	C 	0.39674	0.82547	0.31917	-0.019
Mof_H 	H 	0.4485	0.8453	0.3278	0.046
Mof_C 	C 	0.38763	0.78823	0.27638	-0.074
Mof_H 	H 	0.4332	0.7821	0.2555	0.075
Mof_C 	C 	0.31068	0.75824	0.2623	0.05
Mof_C 	C 	0.09366	0.76313	0.31101	0.316
Mof_C 	C 	0.54486	0.87164	0.06062	0.338
Mof_C 	C 	0.52359	0.93821	0.02878	-0.097
Mof_C 	C 	0.47729	0.92559	0.98689	0.047
Mof_C 	C 	0.45225	0.85148	0.97243	-0.066
Mof_H 	H 	0.4668	0.8093	0.9919	0.063
Mof_C 	C 	0.40803	0.84025	0.93139	-0.024
Mof_H 	H 	0.3921	0.7905	0.9225	0.047
Mof_C 	C 	0.38553	0.90246	0.9017	-0.022
Mof_H 	H 	0.3554	0.8939	0.8728	0.05
Mof_C 	C 	0.40676	0.9742	0.91432	-0.069
Mof_H 	H 	0.3907	0.0153	0.8943	0.073
Mof_C 	C 	0.54709	0.01156	0.0426	0.05
Mof_C 	C 	0.4361	0.63908	0.04192	0.356
Mof_C 	C 	0.46603	0.56655	0.019	-0.104
Mof_C 	C 	0.50958	0.56957	0.97543	0.051
Mof_C 	C 	0.52149	0.63879	0.94926	-0.067
Mof_H 	H 	0.4995	0.6844	0.9619	0.064
Mof_C 	C 	0.56329	0.64058	0.90692	-0.023
Mof_H 	H 	0.571	0.6872	0.8904	0.045
Mof_C 	C 	0.59566	0.57294	0.88711	-0.02
Mof_H 	H 	0.6241	0.5746	0.8571	0.052
Mof_C 	C 	0.5866	0.506	0.91049	-0.067
Mof_H 	H 	0.6088	0.4614	0.8966	0.071
Mof_C 	C 	0.45598	0.49855	0.04414	0.05
Mof_Zn	Zn	0.01387	0.25082	0.61587	1.245
Mof_O 	O 	0.11604	0.24907	0.65211	-0.425
Mof_O 	O 	0.08926	0.3541	0.6947	-0.283
Mof_O 	O 	0.41503	0.28002	0.84835	-0.407
Mof_O 	O 	0.45249	0.18411	0.80128	-0.297
Mof_O 	O 	0.0152	0.1516	0.58567	-0.428
Mof_O 	O 	0.8859	0.1552	0.56043	-0.276
Mof_O 	O 	0.00873	0.32658	0.56517	-0.44
Mof_O 	O 	0.13531	0.34126	0.53793	-0.273
Mof_C 	C 	0.12911	0.29652	0.68606	0.336
Mof_C 	C 	0.20128	0.27917	0.71793	-0.099
Mof_C 	C 	0.27848	0.30174	0.70278	0.051
Mof_C 	C 	0.29242	0.33609	0.65612	-0.068
Mof_H 	H 	0.2478	0.3454	0.635	0.075
Mof_C 	C 	0.36853	0.35533	0.64198	-0.023
Mof_H 	H 	0.3768	0.3769	0.6108	0.052
Mof_C 	C 	0.43586	0.34379	0.67307	-0.021
Mof_H 	H 	0.4888	0.3581	0.6627	0.046
Mof_C 	C 	0.42536	0.3123	0.71768	-0.07
Mof_H 	H 	0.471	0.3058	0.7384	0.072
Mof_C 	C 	0.34707	0.28882	0.73387	0.047
Mof_C 	C 	0.3347	0.25343	0.77895	-0.094
Mof_C 	C 	0.25778	0.22974	0.79379	0.048
Mof_C 	C 	0.24471	0.19118	0.83906	-0.069
Mof_H 	H 	0.289	0.1841	0.8608	0.08
Mof_C 	C 	0.17021	0.16482	0.8512	-0.024
Mof_H 	H 	0.1626	0.1396	0.8813	0.052
Mof_C 	C 	0.10326	0.17453	0.81917	-0.019
Mof_H 	H 	0.0515	0.1547	0.8278	0.046
Mof_C 	C 	0.11237	0.21177	0.77638	-0.074
Mof_H 	H 	0.0668	0.2179	0.7555	0.075
Mof_C 	C 	0.18932	0.24176	0.7623	0.05
Mof_C 	C 	0.40634	0.23687	0.81101	0.316
Mof_C 	C 	0.95514	0.12836	0.56062	0.338
Mof_C 	C 	0.97641	0.06179	0.52878	-0.095
Mof_C 	C 	0.02271	0.07441	0.48689	0.045
Mof_C 	C 	0.04775	0.14852	0.47243	-0.064
Mof_H 	H 	0.0332	0.1907	0.4919	0.062
Mof_C 	C 	0.09197	0.15975	0.43139	-0.026
Mof_H 	H 	0.1079	0.2095	0.4225	0.048
Mof_C 	C 	0.11447	0.09754	0.4017	-0.02
Mof_H 	H 	0.1446	0.1061	0.3728	0.049
Mof_C 	C 	0.09324	0.0258	0.41432	-0.072
Mof_H 	H 	0.1093	0.9847	0.3943	0.075
Mof_C 	C 	0.95291	0.98844	0.5426	0.05
Mof_C 	C 	0.0639	0.36092	0.54192	0.356
Mof_C 	C 	0.03397	0.43345	0.519	-0.104
Mof_C 	C 	0.99042	0.43043	0.47543	0.051
Mof_C 	C 	0.97851	0.36121	0.44926	-0.066
Mof_H 	H 	0.0005	0.3156	0.4619	0.064
Mof_C 	C 	0.93671	0.35942	0.40692	-0.024
Mof_H 	H 	0.929	0.3128	0.3904	0.046
Mof_C 	C 	0.90434	0.42706	0.38711	-0.02
Mof_H 	H 	0.8759	0.4254	0.3571	0.052
Mof_C 	C 	0.9134	0.494	0.41049	-0.068
Mof_H 	H 	0.8912	0.5386	0.3966	0.071
Mof_C 	C 	0.04402	0.50145	0.54414	0.05
Mof_Zn	Zn	0.51387	0.25082	0.88413	1.245
Mof_O 	O 	0.61604	0.24907	0.84789	-0.424
Mof_O 	O 	0.58926	0.3541	0.8053	-0.283
Mof_O 	O 	0.91503	0.28002	0.65165	-0.407
Mof_O 	O 	0.95249	0.18411	0.69872	-0.297
Mof_O 	O 	0.5152	0.1516	0.91433	-0.427
Mof_O 	O 	0.3859	0.1552	0.93957	-0.276
Mof_O 	O 	0.50873	0.32658	0.93483	-0.44
Mof_O 	O 	0.63531	0.34126	0.96207	-0.273
Mof_C 	C 	0.62911	0.29652	0.81394	0.336
Mof_C 	C 	0.70128	0.27917	0.78207	-0.099
Mof_C 	C 	0.77848	0.30174	0.79722	0.051
Mof_C 	C 	0.79242	0.33609	0.84388	-0.068
Mof_H 	H 	0.7478	0.3454	0.865	0.075
Mof_C 	C 	0.86853	0.35533	0.85802	-0.022
Mof_H 	H 	0.8768	0.3769	0.8892	0.052
Mof_C 	C 	0.93586	0.34379	0.82693	-0.021
Mof_H 	H 	0.9888	0.3581	0.8373	0.046
Mof_C 	C 	0.92536	0.3123	0.78232	-0.07
Mof_H 	H 	0.971	0.3058	0.7616	0.072
Mof_C 	C 	0.84707	0.28882	0.76613	0.047
Mof_C 	C 	0.8347	0.25343	0.72105	-0.094
Mof_C 	C 	0.75778	0.22974	0.70621	0.048
Mof_C 	C 	0.74471	0.19118	0.66094	-0.069
Mof_H 	H 	0.789	0.1841	0.6392	0.08
Mof_C 	C 	0.67021	0.16482	0.6488	-0.024
Mof_H 	H 	0.6626	0.1396	0.6187	0.052
Mof_C 	C 	0.60326	0.17453	0.68083	-0.019
Mof_H 	H 	0.5515	0.1547	0.6722	0.046
Mof_C 	C 	0.61237	0.21177	0.72362	-0.074
Mof_H 	H 	0.5668	0.2179	0.7445	0.075
Mof_C 	C 	0.68932	0.24176	0.7377	0.05
Mof_C 	C 	0.90634	0.23687	0.68899	0.316
Mof_C 	C 	0.45514	0.12836	0.93938	0.338
Mof_C 	C 	0.47641	0.06179	0.97122	-0.097
Mof_C 	C 	0.52271	0.07441	0.01311	0.047
Mof_C 	C 	0.54775	0.14852	0.02757	-0.066
Mof_H 	H 	0.5332	0.1907	0.0081	0.063
Mof_C 	C 	0.59197	0.15975	0.06861	-0.024
Mof_H 	H 	0.6079	0.2095	0.0775	0.047
Mof_C 	C 	0.61447	0.09754	0.0983	-0.022
Mof_H 	H 	0.6446	0.1061	0.1272	0.05
Mof_C 	C 	0.59324	0.0258	0.08568	-0.069
Mof_H 	H 	0.6093	0.9847	0.1057	0.073
Mof_C 	C 	0.45291	0.98844	0.9574	0.05
Mof_C 	C 	0.5639	0.36092	0.95808	0.356
Mof_C 	C 	0.53397	0.43345	0.981	-0.104
Mof_C 	C 	0.49042	0.43043	0.02457	0.051
Mof_C 	C 	0.47851	0.36121	0.05074	-0.067
Mof_H 	H 	0.5005	0.3156	0.0381	0.064
Mof_C 	C 	0.43671	0.35942	0.09308	-0.023
Mof_H 	H 	0.429	0.3128	0.1096	0.045
Mof_C 	C 	0.40434	0.42706	0.11289	-0.02
Mof_H 	H 	0.3759	0.4254	0.1429	0.052
Mof_C 	C 	0.4134	0.494	0.08951	-0.067
Mof_H 	H 	0.3912	0.5386	0.1034	0.071
Mof_C 	C 	0.54402	0.50145	0.95586	0.05
Mof_Zn	Zn	0.98613	0.74918	0.38413	1.245
Mof_O 	O 	0.88396	0.75093	0.34789	-0.425
Mof_O 	O 	0.91074	0.6459	0.3053	-0.283
Mof_O 	O 	0.58497	0.71998	0.15165	-0.407
Mof_O 	O 	0.54751	0.81589	0.19872	-0.297
Mof_O 	O 	0.9848	0.8484	0.41433	-0.428
Mof_O 	O 	0.1141	0.8448	0.43957	-0.276
Mof_O 	O 	0.99127	0.67342	0.43483	-0.44
Mof_O 	O 	0.86469	0.65874	0.46207	-0.273
Mof_C 	C 	0.87089	0.70348	0.31394	0.336
Mof_C 	C 	0.79872	0.72083	0.28207	-0.099
Mof_C 	C 	0.72152	0.69826	0.29722	0.051
Mof_C 	C 	0.70758	0.66391	0.34388	-0.068
Mof_H 	H 	0.7522	0.6546	0.365	0.075
Mof_C 	C 	0.63147	0.64467	0.35802	-0.023
Mof_H 	H 	0.6232	0.6231	0.3892	0.052
Mof_C 	C 	0.56414	0.65621	0.32693	-0.021
Mof_H 	H 	0.5112	0.6419	0.3373	0.046
Mof_C 	C 	0.57464	0.6877	0.28232	-0.07
Mof_H 	H 	0.529	0.6942	0.2616	0.072
Mof_C 	C 	0.65293	0.71118	0.26613	0.047
Mof_C 	C 	0.6653	0.74657	0.22105	-0.094
Mof_C 	C 	0.74222	0.77026	0.20621	0.048
Mof_C 	C 	0.75529	0.80882	0.16094	-0.069
Mof_H 	H 	0.711	0.8159	0.1392	0.08
Mof_C 	C 	0.82979	0.83518	0.1488	-0.024
Mof_H 	H 	0.8374	0.8604	0.1187	0.052
Mof_C 	C 	0.89674	0.82547	0.18083	-0.019
Mof_H 	H 	0.9485	0.8453	0.1722	0.046
Mof_C 	C 	0.88763	0.78823	0.22362	-0.074
Mof_H 	H 	0.9332	0.7821	0.2445	0.075
Mof_C 	C 	0.81068	0.75824	0.2377	0.05
Mof_C 	C 	0.59366	0.76313	0.18899	0.316
Mof_C 	C 	0.04486	0.87164	0.43938	0.338
Mof_C 	C 	0.02359	0.93821	0.47122	-0.095
Mof_C 	C 	0.97729	0.92559	0.51311	0.045
Mof_C 	C 	0.95225	0.85148	0.52757	-0.064
Mof_H 	H 	0.9668	0.8093	0.5081	0.062
Mof_C 	C 	0.90803	0.84025	0.56861	-0.026
Mof_H 	H 	0.8921	0.7905	0.5775	0.048
Mof_C 	C 	0.88553	0.90246	0.5983	-0.02
Mof_H 	H 	0.8554	0.8939	0.6272	0.049
Mof_C 	C 	0.90676	0.9742	0.58568	-0.072
Mof_H 	H 	0.8907	0.0153	0.6057	0.075
Mof_C 	C 	0.04709	0.01156	0.4574	0.05
Mof_C 	C 	0.9361	0.63908	0.45808	0.356
Mof_C 	C 	0.96603	0.56655	0.481	-0.104
Mof_C 	C 	0.00958	0.56957	0.52457	0.051
Mof_C 	C 	0.02149	0.63879	0.55074	-0.066
Mof_H 	H 	0.9995	0.6844	0.5381	0.064
Mof_C 	C 	0.06329	0.64058	0.59308	-0.024
Mof_H 	H 	0.071	0.6872	0.6096	0.046
Mof_C 	C 	0.09566	0.57294	0.61289	-0.02
Mof_H 	H 	0.1241	0.5746	0.6429	0.052
Mof_C 	C 	0.0866	0.506	0.58951	-0.068
Mof_H 	H 	0.1088	0.4614	0.6034	0.071
Mof_C 	C 	0.95598	0.49855	0.45586	0.05
_end
