# CIF file generated by openbabel 3.1.0, see https://openbabel.org
data_I
_chemical_name_common 'image0'
_cell_length_a 11.4424
_cell_length_b 15.1352
_cell_length_c 15.2141
_cell_angle_alpha 112.002
_cell_angle_beta 96.433
_cell_angle_gamma 98.574
_space_group_name_H-M_alt 'P 1'
_space_group_name_Hall 'P 1'
loop_
    _symmetry_equiv_pos_as_xyz
    x,y,z
loop_
    _atom_site_label
    _atom_site_type_symbol
    _atom_site_fract_x
    _atom_site_fract_y
    _atom_site_fract_z
    _atom_site_occupancy
    Zn1      Zn       0.35040    0.13899    0.73096    1.000
    O1       O        0.31550    0.99482    0.69685    1.000
    O2       O        0.37980    0.19461    0.87507    1.000
    O3       O        0.43880    0.34690    0.89092    1.000
    O4       O        0.27410    0.98325    0.54650    1.000
    C1       C        0.32330    0.69700    0.59580    1.000
    H1       H        0.32740    0.66520    0.63750    1.000
    N1       N        0.35560    0.50767    0.36818    1.000
    C2       C        0.36790    0.28220    0.16710    1.000
    H2       H        0.35040    0.23620    0.19310    1.000
    N2       N        0.54000    0.13771    0.72718    1.000
    C3       C        0.42360    0.41620    0.08710    1.000
    H3       H        0.44370    0.46210    0.06140    1.000
    C4       C        0.37060    0.35700    0.37880    1.000
    H4       H        0.38190    0.29370    0.34910    1.000
    N3       N        0.35830    0.22076    0.64422    1.000
    C5       C        0.31430    0.79390    0.63110    1.000
    H5       H        0.31480    0.82700    0.69650    1.000
    C6       C        0.74190    0.22960    0.76810    1.000
    H6       H        0.79380    0.29020    0.79570    1.000
    C7       C        0.91540    0.14800    0.72960    1.000
    C8       C        0.32650    0.64690    0.49960    1.000
    C9       C        0.31920    0.69570    0.43960    1.000
    H7       H        0.32190    0.66350    0.37470    1.000
    C10      C        0.35450    0.39210    0.47470    1.000
    C11      C        0.38450    0.38130    0.22530    1.000
    C12      C        0.33960    0.54310    0.45930    1.000
    N4       N        0.16080    0.14880    0.72990    1.000
    C13      C        0.78620    0.14480    0.73010    1.000
    C14      C        0.95550    0.08460    0.65500    1.000
    H8       H        0.90100    0.03920    0.60130    1.000
    C15      C        0.33700    0.48830    0.51470    1.000
    H9       H        0.32390    0.51490    0.57780    1.000
    C16      C        0.00320    0.21920    0.79970    1.000
    H10      H        0.98250    0.27010    0.84850    1.000
    C17      C        0.35530    0.33280    0.53240    1.000
    C18      C        0.70410    0.05750    0.68970    1.000
    H11      H        0.72990    0.99950    0.66150    1.000
    C19      C        0.40510    0.31840    0.03020    1.000
    C20      C        0.36510    0.23650    0.49590    1.000
    H12      H        0.37120    0.20650    0.43140    1.000
    C21      C        0.30780    0.79220    0.47440    1.000
    H13      H        0.30230    0.82380    0.43260    1.000
    C22      C        0.37000    0.41550    0.32810    1.000
    C23      C        0.41200    0.44620    0.18340    1.000
    H14      H        0.42330    0.51260    0.22080    1.000
    C24      C        0.37740    0.25230    0.07050    1.000
    H15      H        0.36480    0.18610    0.03230    1.000
    C25      C        0.61990    0.22200    0.76410    1.000
    H16      H        0.59140    0.27920    0.78860    1.000
    C26      C        0.29610    0.94760    0.60560    1.000
    C27      C        0.30450    0.84160    0.57080    1.000
    C28      C        0.58320    0.05630    0.69140    1.000
    H17      H        0.52960    0.99650    0.66670    1.000
    C29      C        0.07720    0.08790    0.65910    1.000
    H18      H        0.10120    0.04310    0.60710    1.000
    C30      C        0.40840    0.28570    0.92370    1.000
    C31      C        0.34900    0.36950    0.62820    1.000
    H19      H        0.34370    0.43440    0.65860    1.000
    C32      C        0.36600    0.18410    0.55160    1.000
    H20      H        0.37240    0.11930    0.52330    1.000
    C33      C        0.35040    0.31360    0.68010    1.000
    H21      H        0.34550    0.34230    0.74500    1.000
    C34      C        0.12140    0.21480    0.79730    1.000
    H22      H        0.17850    0.26250    0.84750    1.000
    Zn2      Zn       0.64960    0.86101    0.26904    1.000
    O5       O        0.68450    0.00518    0.30315    1.000
    O6       O        0.62020    0.80539    0.12493    1.000
    O7       O        0.56120    0.65310    0.10908    1.000
    O8       O        0.72590    0.01675    0.45350    1.000
    C35      C        0.67670    0.30300    0.40420    1.000
    H23      H        0.67260    0.33480    0.36250    1.000
    N5       N        0.64440    0.49233    0.63182    1.000
    C36      C        0.63210    0.71780    0.83290    1.000
    H24      H        0.64960    0.76380    0.80690    1.000
    N6       N        0.46000    0.86229    0.27282    1.000
    C37      C        0.57640    0.58380    0.91290    1.000
    H25      H        0.55630    0.53790    0.93860    1.000
    C38      C        0.62940    0.64300    0.62120    1.000
    H26      H        0.61810    0.70630    0.65090    1.000
    N7       N        0.64170    0.77924    0.35578    1.000
    C39      C        0.68570    0.20610    0.36890    1.000
    H27      H        0.68520    0.17300    0.30350    1.000
    C40      C        0.25810    0.77040    0.23190    1.000
    H28      H        0.20620    0.70980    0.20430    1.000
    C41      C        0.08460    0.85200    0.27040    1.000
    C42      C        0.67350    0.35310    0.50040    1.000
    C43      C        0.68080    0.30430    0.56040    1.000
    H29      H        0.67810    0.33650    0.62530    1.000
    C44      C        0.64550    0.60790    0.52530    1.000
    C45      C        0.61550    0.61870    0.77470    1.000
    C46      C        0.66040    0.45690    0.54070    1.000
    N8       N        0.83920    0.85120    0.27010    1.000
    C47      C        0.21380    0.85520    0.26990    1.000
    C48      C        0.04450    0.91540    0.34500    1.000
    H30      H        0.09900    0.96080    0.39870    1.000
    C49      C        0.66300    0.51170    0.48530    1.000
    H31      H        0.67610    0.48510    0.42220    1.000
    C50      C        0.99680    0.78080    0.20030    1.000
    H32      H        0.01750    0.72990    0.15150    1.000
    C51      C        0.64470    0.66720    0.46760    1.000
    C52      C        0.29590    0.94250    0.31030    1.000
    H33      H        0.27010    0.00050    0.33850    1.000
    C53      C        0.59490    0.68160    0.96980    1.000
    C54      C        0.63490    0.76350    0.50410    1.000
    H34      H        0.62880    0.79350    0.56860    1.000
    C55      C        0.69220    0.20780    0.52560    1.000
    H35      H        0.69770    0.17620    0.56740    1.000
    C56      C        0.63000    0.58450    0.67190    1.000
    C57      C        0.58800    0.55380    0.81660    1.000
    H36      H        0.57670    0.48740    0.77920    1.000
    C58      C        0.62260    0.74770    0.92950    1.000
    H37      H        0.63520    0.81390    0.96770    1.000
    C59      C        0.38010    0.77800    0.23590    1.000
    H38      H        0.40860    0.72080    0.21140    1.000
    C60      C        0.70390    0.05240    0.39440    1.000
    C61      C        0.69550    0.15840    0.42920    1.000
    C62      C        0.41680    0.94370    0.30860    1.000
    H39      H        0.47040    0.00350    0.33330    1.000
    C63      C        0.92280    0.91210    0.34090    1.000
    H40      H        0.89880    0.95690    0.39290    1.000
    C64      C        0.59160    0.71430    0.07630    1.000
    C65      C        0.65100    0.63050    0.37180    1.000
    H41      H        0.65630    0.56560    0.34140    1.000
    C66      C        0.63400    0.81590    0.44840    1.000
    H42      H        0.62760    0.88070    0.47670    1.000
    C67      C        0.64960    0.68640    0.31990    1.000
    H43      H        0.65450    0.65770    0.25500    1.000
    C68      C        0.87860    0.78520    0.20270    1.000
    H44      H        0.82150    0.73750    0.15250    1.000
