# CIF file generated by openbabel 3.1.0, see https://openbabel.org
data_I
_chemical_name_common 'image0'
_cell_length_a 12.0755
_cell_length_b 14.8887
_cell_length_c 11.8358
_cell_angle_alpha 90
_cell_angle_beta 97.719
_cell_angle_gamma 90
_space_group_name_H-M_alt 'P 1'
_space_group_name_Hall 'P 1'
loop_
    _symmetry_equiv_pos_as_xyz
    x,y,z
loop_
    _atom_site_label
    _atom_site_type_symbol
    _atom_site_fract_x
    _atom_site_fract_y
    _atom_site_fract_z
    _atom_site_occupancy
    Zn1      Zn       0.79550    0.38642    0.04387    1.000
    Zn2      Zn       0.40407    0.23681    0.08893    1.000
    P1       P        0.66986    0.23830    0.15549    1.000
    P2       P        0.24787    0.41121    0.03706    1.000
    O1       O        0.73450    0.32820    0.17050    1.000
    O2       O        0.26200    0.49190    0.96280    1.000
    O3       O        0.74290    0.16950    0.10240    1.000
    O4       O        0.56070    0.25140    0.07810    1.000
    O5       O        0.65180    0.20200    0.27290    1.000
    O6       O        0.33990    0.34550    0.01950    1.000
    O7       O        0.13420    0.36650    0.01280    1.000
    O8       O        0.26110    0.44570    0.16360    1.000
    H1       H        0.25380    0.40340    0.20650    1.000
    Zn3      Zn       0.29550    0.88642    0.04387    1.000
    Zn4      Zn       0.90407    0.73681    0.08893    1.000
    P3       P        0.16986    0.73830    0.15549    1.000
    P4       P        0.74787    0.91121    0.03706    1.000
    O9       O        0.23450    0.82820    0.17050    1.000
    O10      O        0.76200    0.99190    0.96280    1.000
    O11      O        0.24290    0.66950    0.10240    1.000
    O12      O        0.06070    0.75140    0.07810    1.000
    O13      O        0.15180    0.70200    0.27290    1.000
    O14      O        0.83990    0.84550    0.01950    1.000
    O15      O        0.63420    0.86650    0.01280    1.000
    O16      O        0.76110    0.94570    0.16360    1.000
    H2       H        0.75380    0.90340    0.20650    1.000
    Zn5      Zn       0.20450    0.38642    0.45613    1.000
    Zn6      Zn       0.59593    0.23681    0.41107    1.000
    P5       P        0.33014    0.23830    0.34451    1.000
    P6       P        0.75213    0.41121    0.46294    1.000
    O17      O        0.26550    0.32820    0.32950    1.000
    O18      O        0.73800    0.49190    0.53720    1.000
    O19      O        0.25710    0.16950    0.39760    1.000
    O20      O        0.43930    0.25140    0.42190    1.000
    O21      O        0.34820    0.20200    0.22710    1.000
    O22      O        0.66010    0.34550    0.48050    1.000
    O23      O        0.86580    0.36650    0.48720    1.000
    O24      O        0.73890    0.44570    0.33640    1.000
    H3       H        0.74620    0.40340    0.29350    1.000
    Zn7      Zn       0.70450    0.88642    0.45613    1.000
    Zn8      Zn       0.09593    0.73681    0.41107    1.000
    P7       P        0.83014    0.73830    0.34451    1.000
    P8       P        0.25213    0.91121    0.46294    1.000
    O25      O        0.76550    0.82820    0.32950    1.000
    O26      O        0.23800    0.99190    0.53720    1.000
    O27      O        0.75710    0.66950    0.39760    1.000
    O28      O        0.93930    0.75140    0.42190    1.000
    O29      O        0.84820    0.70200    0.22710    1.000
    O30      O        0.16010    0.84550    0.48050    1.000
    O31      O        0.36580    0.86650    0.48720    1.000
    O32      O        0.23890    0.94570    0.33640    1.000
    H4       H        0.24620    0.90340    0.29350    1.000
    Zn9      Zn       0.20450    0.61358    0.95613    1.000
    Zn10     Zn       0.59593    0.76319    0.91107    1.000
    P9       P        0.33014    0.76170    0.84451    1.000
    P10      P        0.75213    0.58879    0.96294    1.000
    O33      O        0.26550    0.67180    0.82950    1.000
    O34      O        0.73800    0.50810    0.03720    1.000
    O35      O        0.25710    0.83050    0.89760    1.000
    O36      O        0.43930    0.74860    0.92190    1.000
    O37      O        0.34820    0.79800    0.72710    1.000
    O38      O        0.66010    0.65450    0.98050    1.000
    O39      O        0.86580    0.63350    0.98720    1.000
    O40      O        0.73890    0.55430    0.83640    1.000
    H5       H        0.74620    0.59660    0.79350    1.000
    Zn11     Zn       0.70450    0.11358    0.95613    1.000
    Zn12     Zn       0.09593    0.26319    0.91107    1.000
    P11      P        0.83014    0.26170    0.84451    1.000
    P12      P        0.25213    0.08879    0.96294    1.000
    O41      O        0.76550    0.17180    0.82950    1.000
    O42      O        0.23800    0.00810    0.03720    1.000
    O43      O        0.75710    0.33050    0.89760    1.000
    O44      O        0.93930    0.24860    0.92190    1.000
    O45      O        0.84820    0.29800    0.72710    1.000
    O46      O        0.16010    0.15450    0.98050    1.000
    O47      O        0.36580    0.13350    0.98720    1.000
    O48      O        0.23890    0.05430    0.83640    1.000
    H6       H        0.24620    0.09660    0.79350    1.000
    Zn13     Zn       0.79550    0.61358    0.54387    1.000
    Zn14     Zn       0.40407    0.76319    0.58893    1.000
    P13      P        0.66986    0.76170    0.65549    1.000
    P14      P        0.24787    0.58879    0.53706    1.000
    O49      O        0.73450    0.67180    0.67050    1.000
    O50      O        0.26200    0.50810    0.46280    1.000
    O51      O        0.74290    0.83050    0.60240    1.000
    O52      O        0.56070    0.74860    0.57810    1.000
    O53      O        0.65180    0.79800    0.77290    1.000
    O54      O        0.33990    0.65450    0.51950    1.000
    O55      O        0.13420    0.63350    0.51280    1.000
    O56      O        0.26110    0.55430    0.66360    1.000
    H7       H        0.25380    0.59660    0.70650    1.000
    Zn15     Zn       0.29550    0.11358    0.54387    1.000
    Zn16     Zn       0.90407    0.26319    0.58893    1.000
    P15      P        0.16986    0.26170    0.65549    1.000
    P16      P        0.74787    0.08879    0.53706    1.000
    O57      O        0.23450    0.17180    0.67050    1.000
    O58      O        0.76200    0.00810    0.46280    1.000
    O59      O        0.24290    0.33050    0.60240    1.000
    O60      O        0.06070    0.24860    0.57810    1.000
    O61      O        0.15180    0.29800    0.77290    1.000
    O62      O        0.83990    0.15450    0.51950    1.000
    O63      O        0.63420    0.13350    0.51280    1.000
    O64      O        0.76110    0.05430    0.66360    1.000
    H8       H        0.75380    0.09660    0.70650    1.000
