data_functionalizedCrystal
_audit_creation_method	'EQeq! by Chris Wilmer'
_symmetry_space_group_name_H-M	'P1'
_symmetry_Int_Tables_number	1
_symmetry_cell_setting	triclinic
loop_
_symmetry_equiv_pos_as_xyz
  x,y,z
_cell_length_a	22.286
_cell_length_b	22.725
_cell_length_c	14.056
_cell_angle_alpha	90
_cell_angle_beta	90
_cell_angle_gamma	90
loop_
_atom_site_label
_atom_site_type_symbol
_atom_site_fract_x
_atom_site_fract_y
_atom_site_fract_z
_atom_site_charge
Mof_Co	Co	0.17447	0.20508	0.96154	1.132
Mof_O 	O 	0.20386	0.28649	0.01352	-0.41
Mof_O 	O 	0.11924	0.34016	0.0175	-0.291
Mof_O 	O 	0.32199	0.33483	0.59665	-0.41
Mof_O 	O 	0.41386	0.32202	0.65786	-0.279
Mof_N 	N 	0.26574	0.18197	0.9362	-0.225
Mof_N 	N 	0.3506	0.13318	0.91085	-0.143
Mof_N 	N 	0.63093	0.80105	0.79349	-0.138
Mof_N 	N 	0.66831	0.74329	0.68188	-0.226
Mof_N 	N 	0.14323	0.12366	0.90379	-0.238
Mof_N 	N 	0.10422	0.06316	0.79712	-0.14
Mof_C 	C 	0.17463	0.33268	0.0302	0.332
Mof_C 	C 	0.20937	0.38382	0.0724	-0.103
Mof_C 	C 	0.26371	0.40509	0.0343	0.049
Mof_C 	C 	0.29404	0.44973	0.0826	-0.106
Mof_H 	H 	0.3304	0.4635	0.0588	0.07
Mof_C 	C 	0.27082	0.47398	0.1657	0.021
Mof_H 	H 	0.2916	0.5038	0.1969	0.027
Mof_C 	C 	0.21732	0.454	0.2018	-0.096
Mof_H 	H 	0.2018	0.4703	0.2572	0.064
Mof_C 	C 	0.18624	0.40921	0.1553	0.023
Mof_H 	H 	0.1498	0.3961	0.1796	0.032
Mof_C 	C 	0.2882	0.38495	0.9405	0.036
Mof_C 	C 	0.34883	0.37021	0.9299	-0.098
Mof_H 	H 	0.374	0.3707	0.9827	0.065
Mof_C 	C 	0.37186	0.35479	0.8412	0.013
Mof_H 	H 	0.4122	0.345	0.8356	0.04
Mof_C 	C 	0.33528	0.35377	0.7608	-0.093
Mof_C 	C 	0.27489	0.36829	0.7714	0.017
Mof_H 	H 	0.2497	0.3674	0.7187	0.038
Mof_C 	C 	0.25182	0.38401	0.8597	-0.096
Mof_H 	H 	0.2115	0.3941	0.865	0.065
Mof_C 	C 	0.35892	0.33521	0.6641	0.327
Mof_C 	C 	0.29407	0.13147	0.9462	0.104
Mof_H 	H 	0.2772	0.0984	0.9744	-0.01
Mof_C 	C 	0.30611	0.2183	0.8921	0
Mof_H 	H 	0.2987	0.2572	0.8755	0.035
Mof_C 	C 	0.35846	0.18955	0.8761	0.004
Mof_H 	H 	0.3928	0.2047	0.8475	0.036
Mof_C 	C 	0.39251	0.08578	0.9056	0.114
Mof_C 	C 	0.4508	0.09604	0.8757	-0.115
Mof_H 	H 	0.4628	0.134	0.8601	0.079
Mof_C 	C 	0.49134	0.04984	0.869	-0.016
Mof_H 	H 	0.5304	0.0577	0.8497	0.042
Mof_C 	C 	0.47549	0.99245	0.8901	-0.002
Mof_C 	C 	0.41702	0.98307	0.9225	-0.023
Mof_H 	H 	0.4053	0.9452	0.9392	0.049
Mof_C 	C 	0.37581	0.02878	0.9305	-0.114
Mof_H 	H 	0.3372	0.0213	0.9525	0.074
Mof_C 	C 	0.51844	0.94288	0.8757	0.008
Mof_C 	C 	0.57374	0.95214	0.8324	-0.02
Mof_H 	H 	0.5854	0.9904	0.8178	0.041
Mof_C 	C 	0.61193	0.90614	0.8105	-0.107
Mof_H 	H 	0.6488	0.9136	0.782	0.071
Mof_C 	C 	0.59514	0.84916	0.8311	0.107
Mof_C 	C 	0.54218	0.83871	0.8782	-0.102
Mof_H 	H 	0.5316	0.8005	0.8948	0.069
Mof_C 	C 	0.50456	0.88506	0.9008	-0.029
Mof_H 	H 	0.4691	0.8775	0.9336	0.058
Mof_C 	C 	0.63224	0.78778	0.6995	0.083
Mof_H 	H 	0.6104	0.8077	0.6532	-0.005
Mof_C 	C 	0.69179	0.72751	0.7697	0.005
Mof_H 	H 	0.7193	0.6974	0.7799	0.031
Mof_C 	C 	0.66839	0.76291	0.839	0.003
Mof_H 	H 	0.6764	0.7613	0.9039	0.042
Mof_C 	C 	0.11382	0.11953	0.823	0.094
Mof_H 	H 	0.1011	0.1518	0.7877	-0.019
Mof_C 	C 	0.15268	0.06692	0.9322	0.011
Mof_H 	H 	0.1722	0.0559	0.9878	0.023
Mof_C 	C 	0.1295	0.02927	0.8677	-0.003
Mof_H 	H 	0.1304	0.9884	0.8703	0.035
Mof_C 	C 	0.07416	0.04483	0.7122	0.117
Mof_C 	C 	0.06936	0.98594	0.6899	-0.118
Mof_H 	H 	0.0855	0.9577	0.7304	0.081
Mof_C 	C 	0.04039	0.96874	0.6071	-0.016
Mof_H 	H 	0.0376	0.9288	0.5931	0.045
Mof_C 	C 	0.01532	0.0092	0.5442	-0.006
Mof_C 	C 	0.02065	0.06824	0.5697	-0.012
Mof_H 	H 	0.0043	0.0967	0.5298	0.033
Mof_C 	C 	0.04913	0.08599	0.6512	-0.122
Mof_H 	H 	0.0517	0.1258	0.6657	0.072
Mof_Co	Co	0.32553	0.29492	0.46154	1.133
Mof_O 	O 	0.29614	0.21351	0.51352	-0.409
Mof_O 	O 	0.38076	0.15984	0.5175	-0.292
Mof_O 	O 	0.17801	0.16517	0.09665	-0.408
Mof_O 	O 	0.08614	0.17798	0.15786	-0.278
Mof_N 	N 	0.23426	0.31803	0.4362	-0.224
Mof_N 	N 	0.1494	0.36682	0.41085	-0.142
Mof_N 	N 	0.86907	0.69895	0.29349	-0.137
Mof_N 	N 	0.83169	0.75671	0.18188	-0.225
Mof_N 	N 	0.35677	0.37634	0.40379	-0.237
Mof_N 	N 	0.39578	0.43684	0.29712	-0.139
Mof_C 	C 	0.32537	0.16732	0.5302	0.333
Mof_C 	C 	0.29063	0.11618	0.5724	-0.102
Mof_C 	C 	0.23629	0.09491	0.5343	0.047
Mof_C 	C 	0.20596	0.05027	0.5826	-0.105
Mof_H 	H 	0.1696	0.0365	0.5588	0.069
Mof_C 	C 	0.22918	0.02602	0.6657	0.02
Mof_H 	H 	0.2084	0.9962	0.6969	0.027
Mof_C 	C 	0.28268	0.046	0.7018	-0.095
Mof_H 	H 	0.2982	0.0297	0.7572	0.063
Mof_C 	C 	0.31376	0.09079	0.6553	0.023
Mof_H 	H 	0.3502	0.1039	0.6796	0.032
Mof_C 	C 	0.2118	0.11505	0.4405	0.038
Mof_C 	C 	0.15117	0.12979	0.4299	-0.099
Mof_H 	H 	0.126	0.1293	0.4827	0.066
Mof_C 	C 	0.12814	0.14521	0.3412	0.014
Mof_H 	H 	0.0878	0.155	0.3356	0.04
Mof_C 	C 	0.16472	0.14623	0.2608	-0.094
Mof_C 	C 	0.22511	0.13171	0.2714	0.018
Mof_H 	H 	0.2503	0.1326	0.2187	0.038
Mof_C 	C 	0.24818	0.11599	0.3597	-0.097
Mof_H 	H 	0.2885	0.1059	0.365	0.066
Mof_C 	C 	0.14108	0.16479	0.1641	0.327
Mof_C 	C 	0.20593	0.36853	0.4462	0.104
Mof_H 	H 	0.2228	0.4016	0.4744	-0.01
Mof_C 	C 	0.19389	0.2817	0.3921	0
Mof_H 	H 	0.2013	0.2428	0.3755	0.035
Mof_C 	C 	0.14154	0.31045	0.3761	0.004
Mof_H 	H 	0.1072	0.2953	0.3475	0.036
Mof_C 	C 	0.10749	0.41422	0.4056	0.115
Mof_C 	C 	0.0492	0.40396	0.3757	-0.117
Mof_H 	H 	0.0372	0.366	0.3601	0.08
Mof_C 	C 	0.00866	0.45016	0.369	-0.014
Mof_H 	H 	0.9696	0.4423	0.3497	0.04
Mof_C 	C 	0.02451	0.50755	0.3901	-0.002
Mof_C 	C 	0.08298	0.51693	0.4225	-0.022
Mof_H 	H 	0.0947	0.5548	0.4392	0.049
Mof_C 	C 	0.12419	0.47122	0.4305	-0.114
Mof_H 	H 	0.1628	0.4787	0.4525	0.074
Mof_C 	C 	0.98156	0.55712	0.3757	0.008
Mof_C 	C 	0.92626	0.54786	0.3324	-0.021
Mof_H 	H 	0.9146	0.5096	0.3178	0.041
Mof_C 	C 	0.88807	0.59386	0.3105	-0.107
Mof_H 	H 	0.8512	0.5864	0.282	0.071
Mof_C 	C 	0.90486	0.65084	0.3311	0.106
Mof_C 	C 	0.95782	0.66129	0.3782	-0.101
Mof_H 	H 	0.9684	0.6995	0.3948	0.068
Mof_C 	C 	0.99544	0.61494	0.4008	-0.03
Mof_H 	H 	0.0309	0.6225	0.4336	0.058
Mof_C 	C 	0.86776	0.71222	0.1995	0.083
Mof_H 	H 	0.8896	0.6923	0.1532	-0.005
Mof_C 	C 	0.80821	0.77249	0.2697	0.005
Mof_H 	H 	0.7807	0.8026	0.2799	0.031
Mof_C 	C 	0.83161	0.73709	0.339	0.003
Mof_H 	H 	0.8236	0.7387	0.4039	0.042
Mof_C 	C 	0.38618	0.38047	0.323	0.094
Mof_H 	H 	0.3989	0.3482	0.2877	-0.018
Mof_C 	C 	0.34732	0.43308	0.4322	0.011
Mof_H 	H 	0.3278	0.4441	0.4878	0.024
Mof_C 	C 	0.3705	0.47073	0.3677	-0.003
Mof_H 	H 	0.3696	0.5116	0.3703	0.036
Mof_C 	C 	0.42584	0.45517	0.2122	0.118
Mof_C 	C 	0.43064	0.51406	0.1899	-0.118
Mof_H 	H 	0.4145	0.5423	0.2304	0.082
Mof_C 	C 	0.45961	0.53126	0.1071	-0.016
Mof_H 	H 	0.4624	0.5712	0.0931	0.045
Mof_C 	C 	0.48468	0.4908	0.0442	-0.006
Mof_C 	C 	0.47935	0.43176	0.0697	-0.011
Mof_H 	H 	0.4957	0.4033	0.0298	0.033
Mof_C 	C 	0.45087	0.41401	0.1512	-0.122
Mof_H 	H 	0.4483	0.3742	0.1657	0.072
Mof_Co	Co	0.82553	0.79492	0.03846	1.133
Mof_O 	O 	0.79614	0.71351	0.98648	-0.409
Mof_O 	O 	0.88076	0.65984	0.9825	-0.29
Mof_O 	O 	0.67801	0.66517	0.40335	-0.409
Mof_O 	O 	0.58614	0.67798	0.34214	-0.278
Mof_N 	N 	0.73426	0.81803	0.0638	-0.224
Mof_N 	N 	0.6494	0.86682	0.08915	-0.142
Mof_N 	N 	0.36907	0.19895	0.20651	-0.137
Mof_N 	N 	0.33169	0.25671	0.31812	-0.225
Mof_N 	N 	0.85677	0.87634	0.09621	-0.237
Mof_N 	N 	0.89578	0.93684	0.20288	-0.139
Mof_C 	C 	0.82537	0.66732	0.9698	0.333
Mof_C 	C 	0.79063	0.61618	0.9276	-0.103
Mof_C 	C 	0.73629	0.59491	0.9657	0.049
Mof_C 	C 	0.70596	0.55027	0.9174	-0.106
Mof_H 	H 	0.6696	0.5365	0.9412	0.07
Mof_C 	C 	0.72918	0.52602	0.8343	0.021
Mof_H 	H 	0.7084	0.4962	0.8031	0.027
Mof_C 	C 	0.78268	0.546	0.7982	-0.096
Mof_H 	H 	0.7982	0.5297	0.7428	0.064
Mof_C 	C 	0.81376	0.59079	0.8447	0.023
Mof_H 	H 	0.8502	0.6039	0.8204	0.032
Mof_C 	C 	0.7118	0.61505	0.0595	0.036
Mof_C 	C 	0.65117	0.62979	0.0701	-0.098
Mof_H 	H 	0.626	0.6293	0.0173	0.065
Mof_C 	C 	0.62814	0.64521	0.1588	0.013
Mof_H 	H 	0.5878	0.655	0.1644	0.04
Mof_C 	C 	0.66472	0.64623	0.2392	-0.093
Mof_C 	C 	0.72511	0.63171	0.2286	0.017
Mof_H 	H 	0.7503	0.6326	0.2813	0.038
Mof_C 	C 	0.74818	0.61599	0.1403	-0.096
Mof_H 	H 	0.7885	0.6059	0.135	0.065
Mof_C 	C 	0.64108	0.66479	0.3359	0.327
Mof_C 	C 	0.70593	0.86853	0.0538	0.104
Mof_H 	H 	0.7228	0.9016	0.0256	-0.01
Mof_C 	C 	0.69389	0.7817	0.1079	0
Mof_H 	H 	0.7013	0.7428	0.1245	0.035
Mof_C 	C 	0.64154	0.81045	0.1239	0.004
Mof_H 	H 	0.6072	0.7953	0.1525	0.036
Mof_C 	C 	0.60749	0.91422	0.0944	0.114
Mof_C 	C 	0.5492	0.90396	0.1243	-0.115
Mof_H 	H 	0.5372	0.866	0.1399	0.079
Mof_C 	C 	0.50866	0.95016	0.131	-0.016
Mof_H 	H 	0.4696	0.9423	0.1503	0.042
Mof_C 	C 	0.52451	0.00755	0.1099	-0.002
Mof_C 	C 	0.58298	0.01693	0.0775	-0.023
Mof_H 	H 	0.5947	0.0548	0.0608	0.049
Mof_C 	C 	0.62419	0.97122	0.0695	-0.114
Mof_H 	H 	0.6628	0.9787	0.0475	0.074
Mof_C 	C 	0.48156	0.05712	0.1243	0.008
Mof_C 	C 	0.42626	0.04786	0.1676	-0.02
Mof_H 	H 	0.4146	0.0096	0.1822	0.041
Mof_C 	C 	0.38807	0.09386	0.1895	-0.107
Mof_H 	H 	0.3512	0.0864	0.218	0.071
Mof_C 	C 	0.40486	0.15084	0.1689	0.107
Mof_C 	C 	0.45782	0.16129	0.1218	-0.102
Mof_H 	H 	0.4684	0.1995	0.1052	0.069
Mof_C 	C 	0.49544	0.11494	0.0992	-0.029
Mof_H 	H 	0.5309	0.1225	0.0664	0.058
Mof_C 	C 	0.36776	0.21222	0.3005	0.083
Mof_H 	H 	0.3896	0.1923	0.3468	-0.005
Mof_C 	C 	0.30821	0.27249	0.2303	0.005
Mof_H 	H 	0.2807	0.3026	0.2201	0.031
Mof_C 	C 	0.33161	0.23709	0.161	0.003
Mof_H 	H 	0.3236	0.2387	0.0961	0.042
Mof_C 	C 	0.88618	0.88047	0.177	0.094
Mof_H 	H 	0.8989	0.8482	0.2123	-0.019
Mof_C 	C 	0.84732	0.93308	0.0678	0.011
Mof_H 	H 	0.8278	0.9441	0.0122	0.023
Mof_C 	C 	0.8705	0.97073	0.1323	-0.003
Mof_H 	H 	0.8696	0.0116	0.1297	0.035
Mof_C 	C 	0.92584	0.95517	0.2878	0.117
Mof_C 	C 	0.93064	0.01406	0.3101	-0.118
Mof_H 	H 	0.9145	0.0423	0.2696	0.081
Mof_C 	C 	0.95961	0.03126	0.3929	-0.016
Mof_H 	H 	0.9624	0.0712	0.4069	0.045
Mof_C 	C 	0.98468	0.9908	0.4558	-0.006
Mof_C 	C 	0.97935	0.93176	0.4303	-0.012
Mof_H 	H 	0.9957	0.9033	0.4702	0.033
Mof_C 	C 	0.95087	0.91401	0.3488	-0.122
Mof_H 	H 	0.9483	0.8742	0.3343	0.072
Mof_Co	Co	0.67447	0.70508	0.53846	1.133
Mof_O 	O 	0.70386	0.78649	0.48648	-0.409
Mof_O 	O 	0.61924	0.84016	0.4825	-0.292
Mof_O 	O 	0.82199	0.83483	0.90335	-0.408
Mof_O 	O 	0.91386	0.82202	0.84214	-0.278
Mof_N 	N 	0.76574	0.68197	0.5638	-0.224
Mof_N 	N 	0.8506	0.63318	0.58915	-0.142
Mof_N 	N 	0.13093	0.30105	0.70651	-0.137
Mof_N 	N 	0.16831	0.24329	0.81812	-0.225
Mof_N 	N 	0.64323	0.62366	0.59621	-0.237
Mof_N 	N 	0.60422	0.56316	0.70288	-0.139
Mof_C 	C 	0.67463	0.83268	0.4698	0.333
Mof_C 	C 	0.70937	0.88382	0.4276	-0.102
Mof_C 	C 	0.76371	0.90509	0.4657	0.047
Mof_C 	C 	0.79404	0.94973	0.4174	-0.105
Mof_H 	H 	0.8304	0.9635	0.4412	0.069
Mof_C 	C 	0.77082	0.97398	0.3343	0.02
Mof_H 	H 	0.7916	0.0038	0.3031	0.027
Mof_C 	C 	0.71732	0.954	0.2982	-0.095
Mof_H 	H 	0.7018	0.9703	0.2428	0.063
Mof_C 	C 	0.68624	0.90921	0.3447	0.023
Mof_H 	H 	0.6498	0.8961	0.3204	0.032
Mof_C 	C 	0.7882	0.88495	0.5595	0.038
Mof_C 	C 	0.84883	0.87021	0.5701	-0.099
Mof_H 	H 	0.874	0.8707	0.5173	0.066
Mof_C 	C 	0.87186	0.85479	0.6588	0.014
Mof_H 	H 	0.9122	0.845	0.6644	0.04
Mof_C 	C 	0.83528	0.85377	0.7392	-0.094
Mof_C 	C 	0.77489	0.86829	0.7286	0.018
Mof_H 	H 	0.7497	0.8674	0.7813	0.038
Mof_C 	C 	0.75182	0.88401	0.6403	-0.097
Mof_H 	H 	0.7115	0.8941	0.635	0.066
Mof_C 	C 	0.85892	0.83521	0.8359	0.327
Mof_C 	C 	0.79407	0.63147	0.5538	0.104
Mof_H 	H 	0.7772	0.5984	0.5256	-0.01
Mof_C 	C 	0.80611	0.7183	0.6079	0
Mof_H 	H 	0.7987	0.7572	0.6245	0.035
Mof_C 	C 	0.85846	0.68955	0.6239	0.004
Mof_H 	H 	0.8928	0.7047	0.6525	0.036
Mof_C 	C 	0.89251	0.58578	0.5944	0.115
Mof_C 	C 	0.9508	0.59604	0.6243	-0.117
Mof_H 	H 	0.9628	0.634	0.6399	0.08
Mof_C 	C 	0.99134	0.54984	0.631	-0.014
Mof_H 	H 	0.0304	0.5577	0.6503	0.04
Mof_C 	C 	0.97549	0.49245	0.6099	-0.002
Mof_C 	C 	0.91702	0.48307	0.5775	-0.022
Mof_H 	H 	0.9053	0.4452	0.5608	0.049
Mof_C 	C 	0.87581	0.52878	0.5695	-0.114
Mof_H 	H 	0.8372	0.5213	0.5475	0.074
Mof_C 	C 	0.01844	0.44288	0.6243	0.008
Mof_C 	C 	0.07374	0.45214	0.6676	-0.021
Mof_H 	H 	0.0854	0.4904	0.6822	0.041
Mof_C 	C 	0.11193	0.40614	0.6895	-0.107
Mof_H 	H 	0.1488	0.4136	0.718	0.071
Mof_C 	C 	0.09514	0.34916	0.6689	0.106
Mof_C 	C 	0.04218	0.33871	0.6218	-0.101
Mof_H 	H 	0.0316	0.3005	0.6052	0.068
Mof_C 	C 	0.00456	0.38506	0.5992	-0.03
Mof_H 	H 	0.9691	0.3775	0.5664	0.058
Mof_C 	C 	0.13224	0.28778	0.8005	0.083
Mof_H 	H 	0.1104	0.3077	0.8468	-0.005
Mof_C 	C 	0.19179	0.22751	0.7303	0.005
Mof_H 	H 	0.2193	0.1974	0.7201	0.031
Mof_C 	C 	0.16839	0.26291	0.661	0.003
Mof_H 	H 	0.1764	0.2613	0.5961	0.042
Mof_C 	C 	0.61382	0.61953	0.677	0.094
Mof_H 	H 	0.6011	0.6518	0.7123	-0.018
Mof_C 	C 	0.65268	0.56692	0.5678	0.011
Mof_H 	H 	0.6722	0.5559	0.5122	0.024
Mof_C 	C 	0.6295	0.52927	0.6323	-0.003
Mof_H 	H 	0.6304	0.4884	0.6297	0.036
Mof_C 	C 	0.57416	0.54483	0.7878	0.118
Mof_C 	C 	0.56936	0.48594	0.8101	-0.118
Mof_H 	H 	0.5855	0.4577	0.7696	0.082
Mof_C 	C 	0.54039	0.46874	0.8929	-0.016
Mof_H 	H 	0.5376	0.4288	0.9069	0.045
Mof_C 	C 	0.51532	0.5092	0.9558	-0.006
Mof_C 	C 	0.52065	0.56824	0.9303	-0.011
Mof_H 	H 	0.5043	0.5967	0.9702	0.033
Mof_C 	C 	0.54913	0.58599	0.8488	-0.122
Mof_H 	H 	0.5517	0.6258	0.8343	0.072
Mof_Co	Co	0.82553	0.20508	0.53846	1.133
Mof_O 	O 	0.79614	0.28649	0.48648	-0.409
Mof_O 	O 	0.88076	0.34016	0.4825	-0.292
Mof_O 	O 	0.67801	0.33483	0.90335	-0.408
Mof_O 	O 	0.58614	0.32202	0.84214	-0.278
Mof_N 	N 	0.73426	0.18197	0.5638	-0.224
Mof_N 	N 	0.6494	0.13318	0.58915	-0.142
Mof_N 	N 	0.36907	0.80105	0.70651	-0.137
Mof_N 	N 	0.33169	0.74329	0.81812	-0.225
Mof_N 	N 	0.85677	0.12366	0.59621	-0.237
Mof_N 	N 	0.89578	0.06316	0.70288	-0.139
Mof_C 	C 	0.82537	0.33268	0.4698	0.333
Mof_C 	C 	0.79063	0.38382	0.4276	-0.102
Mof_C 	C 	0.73629	0.40509	0.4657	0.047
Mof_C 	C 	0.70596	0.44973	0.4174	-0.105
Mof_H 	H 	0.6696	0.4635	0.4412	0.069
Mof_C 	C 	0.72918	0.47398	0.3343	0.02
Mof_H 	H 	0.7084	0.5038	0.3031	0.027
Mof_C 	C 	0.78268	0.454	0.2982	-0.095
Mof_H 	H 	0.7982	0.4703	0.2428	0.063
Mof_C 	C 	0.81376	0.40921	0.3447	0.023
Mof_H 	H 	0.8502	0.3961	0.3204	0.032
Mof_C 	C 	0.7118	0.38495	0.5595	0.038
Mof_C 	C 	0.65117	0.37021	0.5701	-0.1
Mof_H 	H 	0.626	0.3707	0.5173	0.066
Mof_C 	C 	0.62814	0.35479	0.6588	0.014
Mof_H 	H 	0.5878	0.345	0.6644	0.039
Mof_C 	C 	0.66472	0.35377	0.7392	-0.094
Mof_C 	C 	0.72511	0.36829	0.7286	0.018
Mof_H 	H 	0.7503	0.3674	0.7813	0.038
Mof_C 	C 	0.74818	0.38401	0.6403	-0.097
Mof_H 	H 	0.7885	0.3941	0.635	0.066
Mof_C 	C 	0.64108	0.33521	0.8359	0.327
Mof_C 	C 	0.70593	0.13147	0.5538	0.104
Mof_H 	H 	0.7228	0.0984	0.5256	-0.01
Mof_C 	C 	0.69389	0.2183	0.6079	0
Mof_H 	H 	0.7013	0.2572	0.6245	0.035
Mof_C 	C 	0.64154	0.18955	0.6239	0.004
Mof_H 	H 	0.6072	0.2047	0.6525	0.036
Mof_C 	C 	0.60749	0.08578	0.5944	0.114
Mof_C 	C 	0.5492	0.09604	0.6243	-0.115
Mof_H 	H 	0.5372	0.134	0.6399	0.079
Mof_C 	C 	0.50866	0.04984	0.631	-0.016
Mof_H 	H 	0.4696	0.0577	0.6503	0.042
Mof_C 	C 	0.52451	0.99245	0.6099	-0.002
Mof_C 	C 	0.58298	0.98307	0.5775	-0.023
Mof_H 	H 	0.5947	0.9452	0.5608	0.049
Mof_C 	C 	0.62419	0.02878	0.5695	-0.114
Mof_H 	H 	0.6628	0.0213	0.5475	0.074
Mof_C 	C 	0.48156	0.94288	0.6243	0.008
Mof_C 	C 	0.42626	0.95214	0.6676	-0.02
Mof_H 	H 	0.4146	0.9904	0.6822	0.041
Mof_C 	C 	0.38807	0.90614	0.6895	-0.107
Mof_H 	H 	0.3512	0.9136	0.718	0.071
Mof_C 	C 	0.40486	0.84916	0.6689	0.107
Mof_C 	C 	0.45782	0.83871	0.6218	-0.102
Mof_H 	H 	0.4684	0.8005	0.6052	0.069
Mof_C 	C 	0.49544	0.88506	0.5992	-0.029
Mof_H 	H 	0.5309	0.8775	0.5664	0.058
Mof_C 	C 	0.36776	0.78778	0.8005	0.083
Mof_H 	H 	0.3896	0.8077	0.8468	-0.005
Mof_C 	C 	0.30821	0.72751	0.7303	0.005
Mof_H 	H 	0.2807	0.6974	0.7201	0.031
Mof_C 	C 	0.33161	0.76291	0.661	0.003
Mof_H 	H 	0.3236	0.7613	0.5961	0.042
Mof_C 	C 	0.88618	0.11953	0.677	0.094
Mof_H 	H 	0.8989	0.1518	0.7123	-0.018
Mof_C 	C 	0.84732	0.06692	0.5678	0.011
Mof_H 	H 	0.8278	0.0559	0.5122	0.024
Mof_C 	C 	0.8705	0.02927	0.6323	-0.003
Mof_H 	H 	0.8696	0.9884	0.6297	0.036
Mof_C 	C 	0.92584	0.04483	0.7878	0.118
Mof_C 	C 	0.93064	0.98594	0.8101	-0.117
Mof_H 	H 	0.9145	0.9577	0.7696	0.082
Mof_C 	C 	0.95961	0.96874	0.8929	-0.016
Mof_H 	H 	0.9624	0.9288	0.9069	0.045
Mof_C 	C 	0.98468	0.0092	0.9558	-0.005
Mof_C 	C 	0.97935	0.06824	0.9303	-0.011
Mof_H 	H 	0.9957	0.0967	0.9702	0.033
Mof_C 	C 	0.95087	0.08599	0.8488	-0.121
Mof_H 	H 	0.9483	0.1258	0.8343	0.072
Mof_Co	Co	0.67447	0.29492	0.03846	1.133
Mof_O 	O 	0.70386	0.21351	0.98648	-0.409
Mof_O 	O 	0.61924	0.15984	0.9825	-0.291
Mof_O 	O 	0.82199	0.16517	0.40335	-0.409
Mof_O 	O 	0.91386	0.17798	0.34214	-0.279
Mof_N 	N 	0.76574	0.31803	0.0638	-0.224
Mof_N 	N 	0.8506	0.36682	0.08915	-0.141
Mof_N 	N 	0.13093	0.69895	0.20651	-0.137
Mof_N 	N 	0.16831	0.75671	0.31812	-0.225
Mof_N 	N 	0.64323	0.37634	0.09621	-0.237
Mof_N 	N 	0.60422	0.43684	0.20288	-0.139
Mof_C 	C 	0.67463	0.16732	0.9698	0.334
Mof_C 	C 	0.70937	0.11618	0.9276	-0.103
Mof_C 	C 	0.76371	0.09491	0.9657	0.05
Mof_C 	C 	0.79404	0.05027	0.9174	-0.106
Mof_H 	H 	0.8304	0.0365	0.9412	0.07
Mof_C 	C 	0.77082	0.02602	0.8343	0.021
Mof_H 	H 	0.7916	0.9962	0.8031	0.027
Mof_C 	C 	0.71732	0.046	0.7982	-0.096
Mof_H 	H 	0.7018	0.0297	0.7428	0.064
Mof_C 	C 	0.68624	0.09079	0.8447	0.024
Mof_H 	H 	0.6498	0.1039	0.8204	0.031
Mof_C 	C 	0.7882	0.11505	0.0595	0.035
Mof_C 	C 	0.84883	0.12979	0.0701	-0.098
Mof_H 	H 	0.874	0.1293	0.0173	0.065
Mof_C 	C 	0.87186	0.14521	0.1588	0.013
Mof_H 	H 	0.9122	0.155	0.1644	0.039
Mof_C 	C 	0.83528	0.14623	0.2392	-0.093
Mof_C 	C 	0.77489	0.13171	0.2286	0.017
Mof_H 	H 	0.7497	0.1326	0.2813	0.038
Mof_C 	C 	0.75182	0.11599	0.1403	-0.096
Mof_H 	H 	0.7115	0.1059	0.135	0.065
Mof_C 	C 	0.85892	0.16479	0.3359	0.327
Mof_C 	C 	0.79407	0.36853	0.0538	0.104
Mof_H 	H 	0.7772	0.4016	0.0256	-0.01
Mof_C 	C 	0.80611	0.2817	0.1079	-0
Mof_H 	H 	0.7987	0.2428	0.1245	0.035
Mof_C 	C 	0.85846	0.31045	0.1239	0.004
Mof_H 	H 	0.8928	0.2953	0.1525	0.036
Mof_C 	C 	0.89251	0.41422	0.0944	0.112
Mof_C 	C 	0.9508	0.40396	0.1243	-0.112
Mof_H 	H 	0.9628	0.366	0.1399	0.078
Mof_C 	C 	0.99134	0.45016	0.131	-0.022
Mof_H 	H 	0.0304	0.4423	0.1503	0.045
Mof_C 	C 	0.97549	0.50755	0.1099	-0
Mof_C 	C 	0.91702	0.51693	0.0775	-0.024
Mof_H 	H 	0.9053	0.5548	0.0608	0.05
Mof_C 	C 	0.87581	0.47122	0.0695	-0.113
Mof_H 	H 	0.8372	0.4787	0.0475	0.073
Mof_C 	C 	0.01844	0.55712	0.1243	0.006
Mof_C 	C 	0.07374	0.54786	0.1676	-0.018
Mof_H 	H 	0.0854	0.5096	0.1822	0.04
Mof_C 	C 	0.11193	0.59386	0.1895	-0.109
Mof_H 	H 	0.1488	0.5864	0.218	0.071
Mof_C 	C 	0.09514	0.65084	0.1689	0.109
Mof_C 	C 	0.04218	0.66129	0.1218	-0.106
Mof_H 	H 	0.0316	0.6995	0.1052	0.071
Mof_C 	C 	0.00456	0.61494	0.0992	-0.021
Mof_H 	H 	0.9691	0.6225	0.0664	0.054
Mof_C 	C 	0.13224	0.71222	0.3005	0.083
Mof_H 	H 	0.1104	0.6923	0.3468	-0.005
Mof_C 	C 	0.19179	0.77249	0.2303	0.005
Mof_H 	H 	0.2193	0.8026	0.2201	0.031
Mof_C 	C 	0.16839	0.73709	0.161	0.003
Mof_H 	H 	0.1764	0.7387	0.0961	0.042
Mof_C 	C 	0.61382	0.38047	0.177	0.094
Mof_H 	H 	0.6011	0.3482	0.2123	-0.018
Mof_C 	C 	0.65268	0.43308	0.0678	0.011
Mof_H 	H 	0.6722	0.4441	0.0122	0.023
Mof_C 	C 	0.6295	0.47073	0.1323	-0.003
Mof_H 	H 	0.6304	0.5116	0.1297	0.036
Mof_C 	C 	0.57416	0.45517	0.2878	0.118
Mof_C 	C 	0.56936	0.51406	0.3101	-0.118
Mof_H 	H 	0.5855	0.5423	0.2696	0.082
Mof_C 	C 	0.54039	0.53126	0.3929	-0.016
Mof_H 	H 	0.5376	0.5712	0.4069	0.045
Mof_C 	C 	0.51532	0.4908	0.4558	-0.006
Mof_C 	C 	0.52065	0.43176	0.4303	-0.011
Mof_H 	H 	0.5043	0.4033	0.4702	0.032
Mof_C 	C 	0.54913	0.41401	0.3488	-0.122
Mof_H 	H 	0.5517	0.3742	0.3343	0.072
Mof_Co	Co	0.17447	0.79492	0.46154	1.133
Mof_O 	O 	0.20386	0.71351	0.51352	-0.409
Mof_O 	O 	0.11924	0.65984	0.5175	-0.292
Mof_O 	O 	0.32199	0.66517	0.09665	-0.408
Mof_O 	O 	0.41386	0.67798	0.15786	-0.278
Mof_N 	N 	0.26574	0.81803	0.4362	-0.224
Mof_N 	N 	0.3506	0.86682	0.41085	-0.142
Mof_N 	N 	0.63093	0.19895	0.29349	-0.137
Mof_N 	N 	0.66831	0.25671	0.18188	-0.225
Mof_N 	N 	0.14323	0.87634	0.40379	-0.237
Mof_N 	N 	0.10422	0.93684	0.29712	-0.139
Mof_C 	C 	0.17463	0.66732	0.5302	0.333
Mof_C 	C 	0.20937	0.61618	0.5724	-0.102
Mof_C 	C 	0.26371	0.59491	0.5343	0.047
Mof_C 	C 	0.29404	0.55027	0.5826	-0.105
Mof_H 	H 	0.3304	0.5365	0.5588	0.069
Mof_C 	C 	0.27082	0.52602	0.6657	0.02
Mof_H 	H 	0.2916	0.4962	0.6969	0.027
Mof_C 	C 	0.21732	0.546	0.7018	-0.095
Mof_H 	H 	0.2018	0.5297	0.7572	0.063
Mof_C 	C 	0.18624	0.59079	0.6553	0.023
Mof_H 	H 	0.1498	0.6039	0.6796	0.032
Mof_C 	C 	0.2882	0.61505	0.4405	0.038
Mof_C 	C 	0.34883	0.62979	0.4299	-0.1
Mof_H 	H 	0.374	0.6293	0.4827	0.066
Mof_C 	C 	0.37186	0.64521	0.3412	0.014
Mof_H 	H 	0.4122	0.655	0.3356	0.039
Mof_C 	C 	0.33528	0.64623	0.2608	-0.094
Mof_C 	C 	0.27489	0.63171	0.2714	0.018
Mof_H 	H 	0.2497	0.6326	0.2187	0.038
Mof_C 	C 	0.25182	0.61599	0.3597	-0.097
Mof_H 	H 	0.2115	0.6059	0.365	0.066
Mof_C 	C 	0.35892	0.66479	0.1641	0.327
Mof_C 	C 	0.29407	0.86853	0.4462	0.104
Mof_H 	H 	0.2772	0.9016	0.4744	-0.01
Mof_C 	C 	0.30611	0.7817	0.3921	0
Mof_H 	H 	0.2987	0.7428	0.3755	0.035
Mof_C 	C 	0.35846	0.81045	0.3761	0.004
Mof_H 	H 	0.3928	0.7953	0.3475	0.036
Mof_C 	C 	0.39251	0.91422	0.4056	0.114
Mof_C 	C 	0.4508	0.90396	0.3757	-0.115
Mof_H 	H 	0.4628	0.866	0.3601	0.079
Mof_C 	C 	0.49134	0.95016	0.369	-0.016
Mof_H 	H 	0.5304	0.9423	0.3497	0.042
Mof_C 	C 	0.47549	0.00755	0.3901	-0.002
Mof_C 	C 	0.41702	0.01693	0.4225	-0.023
Mof_H 	H 	0.4053	0.0548	0.4392	0.049
Mof_C 	C 	0.37581	0.97122	0.4305	-0.114
Mof_H 	H 	0.3372	0.9787	0.4525	0.074
Mof_C 	C 	0.51844	0.05712	0.3757	0.008
Mof_C 	C 	0.57374	0.04786	0.3324	-0.02
Mof_H 	H 	0.5854	0.0096	0.3178	0.041
Mof_C 	C 	0.61193	0.09386	0.3105	-0.107
Mof_H 	H 	0.6488	0.0864	0.282	0.071
Mof_C 	C 	0.59514	0.15084	0.3311	0.107
Mof_C 	C 	0.54218	0.16129	0.3782	-0.102
Mof_H 	H 	0.5316	0.1995	0.3948	0.069
Mof_C 	C 	0.50456	0.11494	0.4008	-0.029
Mof_H 	H 	0.4691	0.1225	0.4336	0.058
Mof_C 	C 	0.63224	0.21222	0.1995	0.083
Mof_H 	H 	0.6104	0.1923	0.1532	-0.005
Mof_C 	C 	0.69179	0.27249	0.2697	0.005
Mof_H 	H 	0.7193	0.3026	0.2799	0.031
Mof_C 	C 	0.66839	0.23709	0.339	0.003
Mof_H 	H 	0.6764	0.2387	0.4039	0.042
Mof_C 	C 	0.11382	0.88047	0.323	0.094
Mof_H 	H 	0.1011	0.8482	0.2877	-0.018
Mof_C 	C 	0.15268	0.93308	0.4322	0.011
Mof_H 	H 	0.1722	0.9441	0.4878	0.024
Mof_C 	C 	0.1295	0.97073	0.3677	-0.003
Mof_H 	H 	0.1304	0.0116	0.3703	0.036
Mof_C 	C 	0.07416	0.95517	0.2122	0.118
Mof_C 	C 	0.06936	0.01406	0.1899	-0.117
Mof_H 	H 	0.0855	0.0423	0.2304	0.082
Mof_C 	C 	0.04039	0.03126	0.1071	-0.016
Mof_H 	H 	0.0376	0.0712	0.0931	0.045
Mof_C 	C 	0.01532	0.9908	0.0442	-0.005
Mof_C 	C 	0.02065	0.93176	0.0697	-0.011
Mof_H 	H 	0.0043	0.9033	0.0298	0.033
Mof_C 	C 	0.04913	0.91401	0.1512	-0.121
Mof_H 	H 	0.0517	0.8742	0.1657	0.072
Mof_Co	Co	0.32553	0.70508	0.96154	1.133
Mof_O 	O 	0.29614	0.78649	0.01352	-0.409
Mof_O 	O 	0.38076	0.84016	0.0175	-0.291
Mof_O 	O 	0.17801	0.83483	0.59665	-0.409
Mof_O 	O 	0.08614	0.82202	0.65786	-0.279
Mof_N 	N 	0.23426	0.68197	0.9362	-0.224
Mof_N 	N 	0.1494	0.63318	0.91085	-0.141
Mof_N 	N 	0.86907	0.30105	0.79349	-0.137
Mof_N 	N 	0.83169	0.24329	0.68188	-0.225
Mof_N 	N 	0.35677	0.62366	0.90379	-0.237
Mof_N 	N 	0.39578	0.56316	0.79712	-0.139
Mof_C 	C 	0.32537	0.83268	0.0302	0.334
Mof_C 	C 	0.29063	0.88382	0.0724	-0.103
Mof_C 	C 	0.23629	0.90509	0.0343	0.05
Mof_C 	C 	0.20596	0.94973	0.0826	-0.106
Mof_H 	H 	0.1696	0.9635	0.0588	0.07
Mof_C 	C 	0.22918	0.97398	0.1657	0.021
Mof_H 	H 	0.2084	0.0038	0.1969	0.027
Mof_C 	C 	0.28268	0.954	0.2018	-0.096
Mof_H 	H 	0.2982	0.9703	0.2572	0.064
Mof_C 	C 	0.31376	0.90921	0.1553	0.024
Mof_H 	H 	0.3502	0.8961	0.1796	0.031
Mof_C 	C 	0.2118	0.88495	0.9405	0.035
Mof_C 	C 	0.15117	0.87021	0.9299	-0.098
Mof_H 	H 	0.126	0.8707	0.9827	0.065
Mof_C 	C 	0.12814	0.85479	0.8412	0.013
Mof_H 	H 	0.0878	0.845	0.8356	0.039
Mof_C 	C 	0.16472	0.85377	0.7608	-0.093
Mof_C 	C 	0.22511	0.86829	0.7714	0.017
Mof_H 	H 	0.2503	0.8674	0.7187	0.038
Mof_C 	C 	0.24818	0.88401	0.8597	-0.096
Mof_H 	H 	0.2885	0.8941	0.865	0.065
Mof_C 	C 	0.14108	0.83521	0.6641	0.327
Mof_C 	C 	0.20593	0.63147	0.9462	0.104
Mof_H 	H 	0.2228	0.5984	0.9744	-0.01
Mof_C 	C 	0.19389	0.7183	0.8921	-0
Mof_H 	H 	0.2013	0.7572	0.8755	0.035
Mof_C 	C 	0.14154	0.68955	0.8761	0.004
Mof_H 	H 	0.1072	0.7047	0.8475	0.036
Mof_C 	C 	0.10749	0.58578	0.9056	0.112
Mof_C 	C 	0.0492	0.59604	0.8757	-0.112
Mof_H 	H 	0.0372	0.634	0.8601	0.078
Mof_C 	C 	0.00866	0.54984	0.869	-0.022
Mof_H 	H 	0.9696	0.5577	0.8497	0.045
Mof_C 	C 	0.02451	0.49245	0.8901	-0
Mof_C 	C 	0.08298	0.48307	0.9225	-0.024
Mof_H 	H 	0.0947	0.4452	0.9392	0.05
Mof_C 	C 	0.12419	0.52878	0.9305	-0.113
Mof_H 	H 	0.1628	0.5213	0.9525	0.073
Mof_C 	C 	0.98156	0.44288	0.8757	0.006
Mof_C 	C 	0.92626	0.45214	0.8324	-0.018
Mof_H 	H 	0.9146	0.4904	0.8178	0.04
Mof_C 	C 	0.88807	0.40614	0.8105	-0.109
Mof_H 	H 	0.8512	0.4136	0.782	0.071
Mof_C 	C 	0.90486	0.34916	0.8311	0.109
Mof_C 	C 	0.95782	0.33871	0.8782	-0.106
Mof_H 	H 	0.9684	0.3005	0.8948	0.071
Mof_C 	C 	0.99544	0.38506	0.9008	-0.021
Mof_H 	H 	0.0309	0.3775	0.9336	0.054
Mof_C 	C 	0.86776	0.28778	0.6995	0.083
Mof_H 	H 	0.8896	0.3077	0.6532	-0.005
Mof_C 	C 	0.80821	0.22751	0.7697	0.005
Mof_H 	H 	0.7807	0.1974	0.7799	0.031
Mof_C 	C 	0.83161	0.26291	0.839	0.003
Mof_H 	H 	0.8236	0.2613	0.9039	0.042
Mof_C 	C 	0.38618	0.61953	0.823	0.094
Mof_H 	H 	0.3989	0.6518	0.7877	-0.018
Mof_C 	C 	0.34732	0.56692	0.9322	0.011
Mof_H 	H 	0.3278	0.5559	0.9878	0.023
Mof_C 	C 	0.3705	0.52927	0.8677	-0.003
Mof_H 	H 	0.3696	0.4884	0.8703	0.036
Mof_C 	C 	0.42584	0.54483	0.7122	0.118
Mof_C 	C 	0.43064	0.48594	0.6899	-0.118
Mof_H 	H 	0.4145	0.4577	0.7304	0.082
Mof_C 	C 	0.45961	0.46874	0.6071	-0.016
Mof_H 	H 	0.4624	0.4288	0.5931	0.045
Mof_C 	C 	0.48468	0.5092	0.5442	-0.006
Mof_C 	C 	0.47935	0.56824	0.5697	-0.011
Mof_H 	H 	0.4957	0.5967	0.5298	0.032
Mof_C 	C 	0.45087	0.58599	0.6512	-0.122
Mof_H 	H 	0.4483	0.6258	0.6657	0.072
_end
