data_functionalizedCrystal
_audit_creation_method	'EQeq! by Chris Wilmer'
_symmetry_space_group_name_H-M	'P1'
_symmetry_Int_Tables_number	1
_symmetry_cell_setting	triclinic
loop_
_symmetry_equiv_pos_as_xyz
  x,y,z
_cell_length_a	16.2445
_cell_length_b	16.4805
_cell_length_c	25.7372
_cell_angle_alpha	90
_cell_angle_beta	90
_cell_angle_gamma	90
loop_
_atom_site_label
_atom_site_type_symbol
_atom_site_fract_x
_atom_site_fract_y
_atom_site_fract_z
_atom_site_charge
Mof_Co	Co	0.07669	0.01469	0.10899	1.129
Mof_Co	Co	0.6387	0.55795	0.07554	1.144
Mof_Co	Co	0.92331	0.98531	0.89101	1.184
Mof_Co	Co	0.3613	0.05795	0.42446	1.128
Mof_Co	Co	0.3613	0.44205	0.92446	1.145
Mof_Co	Co	0.42331	0.98531	0.60899	1.181
Mof_Co	Co	0.6387	0.94205	0.57554	1.161
Mof_Co	Co	0.07669	0.48531	0.60899	1.154
Mof_Co	Co	0.8613	0.44205	0.57554	1.146
Mof_Co	Co	0.57669	0.48531	0.89101	1.16
Mof_Co	Co	0.57669	0.01469	0.39101	1.137
Mof_Co	Co	0.42331	0.51469	0.10899	1.158
Mof_Co	Co	0.1387	0.94205	0.92446	1.158
Mof_Co	Co	0.92331	0.51469	0.39101	1.165
Mof_Co	Co	-0	0	-0	1.112
Mof_Co	Co	0.8613	0.05795	0.07554	1.129
Mof_Co	Co	0.5	0.5	-0	1.147
Mof_Co	Co	1.02975e-32	0.5	0.5	1.142
Mof_Co	Co	0.1387	0.55795	0.42446	1.144
Mof_Co	Co	0.5	0	0.5	1.135
Mof_H 	H 	0.99	0.6909	0.9148	0.062
Mof_H 	H 	0.542	0.2216	0.0839	0.042
Mof_H 	H 	0.7936	0.6773	0.2486	0.043
Mof_H 	H 	0.5611	0.1941	0.4517	0.069
Mof_H 	H 	0.0945	0.4201	0.0998	0.052
Mof_H 	H 	0.4123	0.765	0.6888	0.038
Mof_H 	H 	0.8147	0.3486	0.6943	0.051
Mof_H 	H 	0.8406	0.1643	0.8302	0.074
Mof_H 	H 	0.9	0.8245	0.2423	0.045
Mof_H 	H 	0.9792	0.3945	0.965	0.08
Mof_H 	H 	0.3163	0.9654	0.9584	0.047
Mof_H 	H 	0.49	0.6909	0.5852	0.044
Mof_H 	H 	0.542	0.2784	0.5839	0.048
Mof_H 	H 	0.0463	0.4331	0.4186	0.19
Mof_H 	H 	0.2167	0.7802	0.8893	0.021
Mof_H 	H 	0.5208	0.8945	0.965	0.051
Mof_H 	H 	0.3419	0.783	0.3824	0.077
Mof_H 	H 	0.7719	0.9171	0.4247	0.064
Mof_H 	H 	0.0945	0.0799	0.5998	0.03
Mof_H 	H 	0.7196	0.2697	0.3164	0.036
Mof_H 	H 	0.4792	0.3945	0.535	0.038
Mof_H 	H 	0.7064	0.1773	0.2486	0.037
Mof_H 	H 	0.5463	0.0669	0.5814	0.195
Mof_H 	H 	0.2936	0.6773	0.2514	0.041
Mof_H 	H 	0.6014	0.769	0.0068	-0.005
Mof_H 	H 	0.4055	0.5799	0.5998	0.042
Mof_H 	H 	0.9537	0.9331	0.0814	0.189
Mof_H 	H 	0.2064	0.1773	0.2514	0.036
Mof_H 	H 	0.9123	0.765	0.8112	0.032
Mof_H 	H 	0.51	0.1909	0.9148	0.051
Mof_H 	H 	0.6	0.1755	0.7423	0.042
Mof_H 	H 	0.49	0.8091	0.0852	0.036
Mof_H 	H 	0.8986	0.231	0.5068	0.046
Mof_H 	H 	0.2719	0.9171	0.0753	0.052
Mof_H 	H 	0.6817	0.8843	0.0152	0.087
Mof_H 	H 	0.3147	0.3486	0.8057	0.051
Mof_H 	H 	0.5877	0.265	0.8112	0.037
Mof_H 	H 	0.2804	0.7697	0.1836	0.037
Mof_H 	H 	0.9792	0.1055	0.465	0.071
Mof_H 	H 	0.458	0.7216	0.4161	0.047
Mof_H 	H 	0.7719	0.5829	0.9247	0.068
Mof_H 	H 	0.2719	0.5829	0.5753	0.057
Mof_H 	H 	0.7936	0.8227	0.7486	0.048
Mof_H 	H 	0.042	0.2784	0.9161	0.048
Mof_H 	H 	0.1817	0.6157	0.9848	0.012
Mof_H 	H 	0.8147	0.1514	0.1943	0.047
Mof_H 	H 	0.958	0.7784	0.5839	0.053
Mof_H 	H 	0.1853	0.6514	0.3057	0.053
Mof_H 	H 	0.1014	0.769	0.4932	0.03
Mof_H 	H 	0.0463	0.0669	0.9186	0.195
Mof_H 	H 	0.1581	0.283	0.3824	0.072
Mof_H 	H 	0.3986	0.231	0.9932	0.104
Mof_H 	H 	0.5945	0.4201	0.4002	0.045
Mof_H 	H 	0.3406	0.1643	0.6698	0.074
Mof_H 	H 	0.8419	0.783	0.1176	0.081
Mof_H 	H 	0.1853	0.8486	0.8057	0.056
Mof_H 	H 	0.3419	0.717	0.8824	0.074
Mof_H 	H 	0.2167	0.7198	0.3893	0.021
Mof_H 	H 	0.3986	0.269	0.4932	0.038
Mof_H 	H 	0.4389	0.6941	0.0483	0.079
Mof_H 	H 	0.6	0.3245	0.2423	0.047
Mof_H 	H 	0.4055	0.9201	0.0998	0.063
Mof_H 	H 	0.6853	0.8486	0.6943	0.056
Mof_H 	H 	0.5945	0.0799	0.9002	0.025
Mof_H 	H 	0.8183	0.1157	0.5152	0.037
Mof_H 	H 	0.4792	0.1055	0.035	0.024
Mof_H 	H 	0.4537	0.5669	0.9186	0.194
Mof_H 	H 	0.2064	0.3227	0.7514	0.041
Mof_H 	H 	0.6594	0.6643	0.8302	0.077
Mof_H 	H 	0.5611	0.3059	0.9517	0.056
Mof_H 	H 	0.5877	0.235	0.3112	0.035
Mof_H 	H 	0.2196	0.2303	0.6836	0.034
Mof_H 	H 	0.6837	0.4654	0.5416	0.03
Mof_H 	H 	0.0877	0.235	0.1888	0.042
Mof_H 	H 	0.51	0.3091	0.4148	0.042
Mof_H 	H 	0.2936	0.8227	0.7514	0.046
Mof_H 	H 	0.6853	0.6514	0.1943	0.052
Mof_H 	H 	0.1837	0.0346	0.4584	0.019
Mof_H 	H 	0.4123	0.735	0.1888	0.036
Mof_H 	H 	0.1594	0.8357	0.1698	0.077
Mof_H 	H 	0.9	0.6755	0.7423	0.041
Mof_H 	H 	0.8183	0.3843	0.0152	0.083
Mof_H 	H 	0.4	0.6755	0.7577	0.046
Mof_H 	H 	0.1	0.1755	0.7577	0.047
Mof_H 	H 	0.3183	0.1157	0.9848	-0.005
Mof_H 	H 	0.8419	0.717	0.6176	0.078
Mof_H 	H 	0.9055	0.9201	0.4002	0.058
Mof_H 	H 	0.5463	0.4331	0.0814	0.19
Mof_H 	H 	0.042	0.2216	0.4161	0.042
Mof_H 	H 	0.8986	0.269	0.0068	-0.009
Mof_H 	H 	0.0208	0.6055	0.035	-0.012
Mof_H 	H 	0.3406	0.3357	0.1698	0.074
Mof_H 	H 	0.0611	0.1941	0.0483	0.077
Mof_H 	H 	0.6014	0.731	0.5068	0.038
Mof_H 	H 	0.8163	0.5346	0.0416	0.022
Mof_H 	H 	0.6581	0.283	0.1176	0.076
Mof_H 	H 	0.8406	0.3357	0.3302	0.074
Mof_H 	H 	0.9055	0.5799	0.9002	0.038
Mof_H 	H 	0.7167	0.7802	0.6107	0.02
Mof_H 	H 	0.2281	0.0829	0.5753	0.047
Mof_H 	H 	0.8163	0.9654	0.5416	0.041
Mof_H 	H 	0.958	0.7216	0.0839	0.048
Mof_H 	H 	0.458	0.7784	0.9161	0.052
Mof_H 	H 	0.2833	0.2802	0.8893	0.022
Mof_H 	H 	0.7196	0.2303	0.8164	0.035
Mof_H 	H 	0.5208	0.6055	0.465	0.038
Mof_H 	H 	0.6837	0.0346	0.0416	0.011
Mof_H 	H 	0.2833	0.2198	0.3893	0.023
Mof_H 	H 	0.6581	0.217	0.6176	0.073
Mof_H 	H 	0.7064	0.3227	0.7486	0.043
Mof_H 	H 	0.9389	0.8059	0.9517	0.063
Mof_H 	H 	0.6817	0.6157	0.5152	0.047
Mof_H 	H 	0.2804	0.7303	0.6836	0.036
Mof_H 	H 	0.7804	0.7697	0.3164	0.038
Mof_H 	H 	0.4537	0.9331	0.4186	0.189
Mof_H 	H 	0.01	0.3091	0.0852	0.018
Mof_H 	H 	0.1581	0.217	0.8824	0.07
Mof_H 	H 	0.1837	0.4654	0.9584	0.037
Mof_H 	H 	0.3147	0.1514	0.3057	0.047
Mof_H 	H 	0.3183	0.3843	0.4848	0.047
Mof_H 	H 	0.01	0.1909	0.5852	0.031
Mof_H 	H 	0.7281	0.0829	0.9247	0.061
Mof_H 	H 	0.7833	0.2802	0.6107	0.021
Mof_H 	H 	0.7833	0.2198	0.1107	0.022
Mof_H 	H 	0.6594	0.8357	0.3302	0.077
Mof_H 	H 	0.7281	0.4171	0.4247	0.054
Mof_H 	H 	0.7804	0.7303	0.8164	0.037
Mof_H 	H 	0.9537	0.5669	0.5814	0.194
Mof_H 	H 	0.0611	0.3059	0.5483	0.062
Mof_H 	H 	0.2281	0.4171	0.0753	0.037
Mof_H 	H 	0.9389	0.6941	0.4517	0.074
Mof_H 	H 	0.0208	0.8945	0.535	0.005
Mof_H 	H 	0.3163	0.5346	0.4584	0.03
Mof_H 	H 	0.4389	0.8059	0.5483	0.067
Mof_H 	H 	0.7167	0.7198	0.1107	0.02
Mof_H 	H 	0.1594	0.6643	0.6698	0.077
Mof_H 	H 	0.99	0.8091	0.4148	0.056
Mof_H 	H 	0.9123	0.735	0.3112	0.03
Mof_H 	H 	0.0877	0.265	0.6888	0.043
Mof_H 	H 	0.2196	0.2697	0.1836	0.035
Mof_H 	H 	0.1	0.3245	0.2577	0.052
Mof_H 	H 	0.4	0.8245	0.2577	0.051
Mof_H 	H 	0.1014	0.731	0.9932	0.084
Mof_H 	H 	0.1817	0.8843	0.4848	0.057
Mof_C 	C 	0.7631	0.8062	0.5976	0.045
Mof_C 	C 	0.2642	0.2597	0.2053	-0.024
Mof_C 	C 	0.2358	0.7403	0.7053	-0.018
Mof_C 	C 	0.7956	0.338	0.00031	-0.126
Mof_C 	C 	0.6618	0.2326	0.1016	-0.086
Mof_C 	C 	0.4695	0.9195	0.966	0.011
Mof_C 	C 	0.3045	0.8715	0.06999	-0.045
Mof_C 	C 	0.4679	0.2891	0.80326	-0.113
Mof_C 	C 	0.9347	0.6932	0.92426	-0.045
Mof_C 	C 	0.9511	0.6983	0.74981	0.003
Mof_C 	C 	0.9053	0.2153	0.76995	0.041
Mof_C 	C 	0.8201	0.768	0.96096	0.009
Mof_C 	C 	0.9347	0.8068	0.42426	-0.016
Mof_C 	C 	0.5052	0.8844	0.3222	0.332
Mof_C 	C 	0.0653	0.1932	0.57574	-0.022
Mof_C 	C 	0.4679	0.2109	0.30326	-0.117
Mof_C 	C 	0.9695	0.9195	0.534	0.072
Mof_C 	C 	0.9511	0.8017	0.24981	0.002
Mof_C 	C 	0.3972	0.2722	0.77187	0.043
Mof_C 	C 	0.404	0.7381	0.05376	-0.12
Mof_C 	C 	0.5415	0.247	0.29129	0.001
Mof_C 	C 	0.1551	0.7315	0.00552	-0.127
Mof_C 	C 	0.6799	0.232	0.46096	0.047
Mof_C 	C 	0.1658	0.4158	0.5038	0.371
Mof_C 	C 	0.3382	0.7326	0.3984	-0.081
Mof_C 	C 	0.5315	0.652	0.15156	0.402
Mof_C 	C 	0.593	0.3038	0.5818	-0.026
Mof_C 	C 	0.6787	0.0856	0.05681	0.015
Mof_C 	C 	0.3213	0.5856	0.44319	0.014
Mof_C 	C 	0.0052	0.6156	0.6778	0.306
Mof_C 	C 	0.7438	0.7039	0.2537	-0.036
Mof_C 	C 	0.3449	0.2685	0.50552	-0.008
Mof_C 	C 	0.2314	0.3013	0.04713	-0.01
Mof_C 	C 	0.2642	0.2403	0.7053	-0.021
Mof_C 	C 	0.7631	0.6938	0.0976	0.045
Mof_C 	C 	0.3382	0.7674	0.8984	-0.074
Mof_C 	C 	0.8972	0.2278	0.22813	0.043
Mof_C 	C 	0.2849	0.8395	0.5154	-0.105
Mof_C 	C 	0.8361	0.201	0.80287	-0.083
Mof_C 	C 	0.4685	0.348	0.84844	0.4
Mof_C 	C 	0.4695	0.5805	0.466	0.011
Mof_C 	C 	0.3994	0.8791	0.94168	0.008
Mof_C 	C 	0.8342	0.5842	0.4962	0.368
Mof_C 	C 	0.4511	0.8017	0.25019	-0.029
Mof_C 	C 	0.093	0.1962	0.4182	-0.039
Mof_C 	C 	0.2956	0.338	0.49969	-0.014
Mof_C 	C 	0.1028	0.7722	0.77187	0.047
Mof_C 	C 	0.6551	0.7315	0.49448	-0.01
Mof_C 	C 	0.2956	0.162	0.99969	0.13
Mof_C 	C 	0.8151	0.1998	0.9709	-0.174
Mof_C 	C 	0.0415	0.253	0.70871	-0.03
Mof_C 	C 	0.3842	0.8737	0.0842	-0.058
Mof_C 	C 	0.8709	0.3727	0.46431	0.376
Mof_C 	C 	0.6955	0.3715	0.43001	-0.072
Mof_C 	C 	0.3213	0.9144	0.94319	0.012
Mof_C 	C 	0.0489	0.1983	0.75019	-0.052
Mof_C 	C 	0.2358	0.7597	0.2053	-0.021
Mof_C 	C 	0.8151	0.3002	0.4709	-0.113
Mof_C 	C 	0.679	0.8116	0.72129	-0.07
Mof_C 	C 	0.4347	0.6932	0.57574	-0.023
Mof_C 	C 	0.0321	0.7891	0.80326	-0.135
Mof_C 	C 	0.2044	0.662	0.99969	0.094
Mof_C 	C 	0.3361	0.299	0.19713	-0.083
Mof_C 	C 	0.9053	0.2847	0.26995	0.038
Mof_C 	C 	0.321	0.3116	0.77871	-0.073
Mof_C 	C 	0.907	0.6962	0.0818	-0.006
Mof_C 	C 	0.5321	0.7109	0.19674	-0.114
Mof_C 	C 	0.3709	0.3727	0.03569	0.328
Mof_C 	C 	0.5315	0.848	0.65156	0.402
Mof_C 	C 	0.7314	0.1987	0.95287	0.087
Mof_C 	C 	0.2151	0.3395	0.5154	-0.116
Mof_C 	C 	0.3151	0.3002	0.0291	-0.05
Mof_C 	C 	0.4948	0.3844	0.1778	0.334
Mof_C 	C 	0.1006	0.1209	0.44168	0.009
Mof_C 	C 	0.8994	0.8791	0.55832	-0.017
Mof_C 	C 	0.6551	0.7685	0.99448	0.094
Mof_C 	C 	0.1955	0.1285	0.56999	-0.077
Mof_C 	C 	0.7044	0.838	0.00031	-0.109
Mof_C 	C 	0.1787	0.4144	0.94319	0.004
Mof_C 	C 	0.904	0.7619	0.94624	-0.055
Mof_C 	C 	0.5176	0.822	0.27967	-0.076
Mof_C 	C 	0.2562	0.2039	0.2463	-0.038
Mof_C 	C 	0.6158	0.1263	0.9158	0.004
Mof_C 	C 	0.7642	0.2403	0.7947	-0.02
Mof_C 	C 	0.6639	0.701	0.80287	-0.083
Mof_C 	C 	0.8361	0.299	0.30287	-0.08
Mof_C 	C 	0.4585	0.753	0.70871	0.001
Mof_C 	C 	0.4511	0.6983	0.75019	-0.025
Mof_C 	C 	0.907	0.8038	0.5818	-0.011
Mof_C 	C 	0.0415	0.247	0.20871	-0.028
Mof_C 	C 	0.1849	0.6998	0.5291	-0.126
Mof_C 	C 	0.7686	0.6987	0.95287	0.083
Mof_C 	C 	0.1955	0.3715	0.06999	-0.035
Mof_C 	C 	0.093	0.3038	0.9182	-0.04
Mof_C 	C 	0.3994	0.6209	0.44168	-0.005
Mof_C 	C 	0.4685	0.152	0.34844	0.4
Mof_C 	C 	0.6006	0.3791	0.55832	-0.004
Mof_C 	C 	0.7956	0.162	0.50031	-0.005
Mof_C 	C 	0.096	0.2619	0.55376	-0.089
Mof_C 	C 	0.407	0.8038	0.9182	-0.027
Mof_C 	C 	0.2369	0.3062	0.9024	0.036
Mof_C 	C 	0.1849	0.8002	0.0291	-0.067
Mof_C 	C 	0.1158	0.1263	0.5842	-0.03
Mof_C 	C 	0.2686	0.8013	0.04713	0.005
Mof_C 	C 	0.8201	0.732	0.46096	0.043
Mof_C 	C 	0.8213	0.5856	0.05681	0.027
Mof_C 	C 	0.9685	0.152	0.15156	0.431
Mof_C 	C 	0.3972	0.2278	0.27187	0.045
Mof_C 	C 	0.9679	0.2891	0.69674	-0.087
Mof_C 	C 	0.4053	0.2847	0.23005	0.039
Mof_C 	C 	0.5176	0.678	0.77967	-0.081
Mof_C 	C 	0.0315	0.652	0.34844	0.371
Mof_C 	C 	0.5305	0.0805	0.034	0.01
Mof_C 	C 	0.7151	0.3395	0.9846	-0.054
Mof_C 	C 	0.4824	0.178	0.72033	-0.087
Mof_C 	C 	0.7562	0.2961	0.7537	-0.039
Mof_C 	C 	0.3342	0.5842	0.0038	0.367
Mof_C 	C 	0.1799	0.232	0.03904	0.092
Mof_C 	C 	0.8972	0.2722	0.72813	0.042
Mof_C 	C 	0.1291	0.6273	0.53569	0.379
Mof_C 	C 	0.6291	0.8727	0.46431	0.375
Mof_C 	C 	0.6849	0.8002	0.4709	-0.118
Mof_C 	C 	0.596	0.2619	0.94624	-0.053
Mof_C 	C 	0.0947	0.7153	0.73005	0.044
Mof_C 	C 	0.0305	0.4195	0.966	-0.044
Mof_C 	C 	0.3709	0.1273	0.53569	0.379
Mof_C 	C 	0.2631	0.8062	0.9024	0.041
Mof_C 	C 	0.1028	0.7278	0.27187	0.049
Mof_C 	C 	0.4347	0.8068	0.07574	0.011
Mof_C 	C 	0.0321	0.7109	0.30326	-0.141
Mof_C 	C 	0.3201	0.768	0.53904	0.038
Mof_C 	C 	0.1787	0.0856	0.44319	0.003
Mof_C 	C 	0.1639	0.701	0.69713	-0.086
Mof_C 	C 	0.179	0.6884	0.27871	-0.077
Mof_C 	C 	0.8382	0.7674	0.6016	-0.085
Mof_C 	C 	0.6658	0.4158	0.9962	0.371
Mof_C 	C 	0.4824	0.322	0.22033	-0.082
Mof_C 	C 	0.6291	0.6273	0.96431	0.414
Mof_C 	C 	0.8449	0.2685	0.99448	0.112
Mof_C 	C 	0.7369	0.1938	0.0976	0.038
Mof_C 	C 	0.7562	0.2039	0.2537	-0.039
Mof_C 	C 	0.8842	0.8737	0.4158	-0.026
Mof_C 	C 	0.9695	0.5805	0.034	0.078
Mof_C 	C 	0.2849	0.6605	0.0154	-0.174
Mof_C 	C 	0.5489	0.3017	0.24981	-0.029
Mof_C 	C 	0.6955	0.1285	0.93001	-0.108
Mof_C 	C 	0.7044	0.662	0.50031	-0.014
Mof_C 	C 	0.2438	0.7961	0.7463	-0.037
Mof_C 	C 	0.0305	0.0805	0.466	-0.051
Mof_C 	C 	0.8449	0.2315	0.49448	-0.018
Mof_C 	C 	0.7642	0.2597	0.2947	-0.023
Mof_C 	C 	0.7686	0.8013	0.45287	0.046
Mof_C 	C 	0.6028	0.7722	0.72813	0.047
Mof_C 	C 	0.7369	0.3062	0.5976	0.039
Mof_C 	C 	0.8213	0.9144	0.55681	0.024
Mof_C 	C 	0.5489	0.1983	0.74981	-0.025
Mof_C 	C 	0.6849	0.6998	0.9709	-0.167
Mof_C 	C 	0.096	0.2381	0.05376	-0.134
Mof_C 	C 	0.5653	0.3068	0.42426	-0.015
Mof_C 	C 	0.9824	0.178	0.77967	-0.061
Mof_C 	C 	0.0653	0.3068	0.07574	0.018
Mof_C 	C 	0.821	0.3116	0.72129	-0.069
Mof_C 	C 	0.2044	0.838	0.49969	-0.023
Mof_C 	C 	0.593	0.1962	0.0818	-0.023
Mof_C 	C 	0.9679	0.2109	0.19674	-0.089
Mof_C 	C 	0.7849	0.6605	0.4846	-0.114
Mof_C 	C 	0.3045	0.6285	0.56999	-0.08
Mof_C 	C 	0.6028	0.7278	0.22813	0.048
Mof_C 	C 	0.1639	0.799	0.19713	-0.083
Mof_C 	C 	0.3151	0.1998	0.5291	-0.121
Mof_C 	C 	0.4585	0.747	0.20871	0.004
Mof_C 	C 	0.0489	0.3017	0.25019	-0.058
Mof_C 	C 	0.1006	0.3791	0.94168	0.02
Mof_C 	C 	0.5321	0.7891	0.69674	-0.11
Mof_C 	C 	0.7438	0.7961	0.7537	-0.037
Mof_C 	C 	0.1658	0.0842	0.0038	0.369
Mof_C 	C 	0.4948	0.1156	0.6778	0.338
Mof_C 	C 	0.0176	0.822	0.22033	-0.104
Mof_C 	C 	0.7849	0.8395	0.9846	-0.057
Mof_C 	C 	0.5305	0.4195	0.534	0.011
Mof_C 	C 	0.9585	0.753	0.79129	0.027
Mof_C 	C 	0.0052	0.8844	0.1778	0.3
Mof_C 	C 	0.8994	0.6209	0.05832	-0.032
Mof_C 	C 	0.3361	0.201	0.69713	-0.086
Mof_C 	C 	0.679	0.6884	0.22129	-0.073
Mof_C 	C 	0.821	0.1884	0.22129	-0.073
Mof_C 	C 	0.8709	0.1273	0.96431	0.421
Mof_C 	C 	0.3201	0.732	0.03904	0.079
Mof_C 	C 	0.2151	0.1605	0.0154	-0.198
Mof_C 	C 	0.6158	0.3737	0.4158	-0.032
Mof_C 	C 	0.7151	0.1605	0.4846	-0.124
Mof_C 	C 	0.0947	0.7847	0.23005	0.042
Mof_C 	C 	0.6787	0.4144	0.55681	0.013
Mof_C 	C 	0.9824	0.322	0.27967	-0.054
Mof_C 	C 	0.3342	0.9158	0.5038	0.365
Mof_C 	C 	0.2686	0.6987	0.54713	0.05
Mof_C 	C 	0.6639	0.799	0.30287	-0.08
Mof_C 	C 	0.1618	0.2326	0.3984	-0.075
Mof_C 	C 	0.8045	0.8715	0.43001	-0.075
Mof_C 	C 	0.2631	0.6938	0.4024	0.04
Mof_C 	C 	0.1158	0.3737	0.0842	-0.072
Mof_C 	C 	0.6006	0.1209	0.05832	-0.018
Mof_C 	C 	0.8382	0.7326	0.1016	-0.092
Mof_C 	C 	0.1799	0.268	0.53904	0.043
Mof_C 	C 	0.179	0.8116	0.77871	-0.073
Mof_C 	C 	0.0176	0.678	0.72033	-0.107
Mof_C 	C 	0.596	0.2381	0.44624	-0.092
Mof_C 	C 	0.321	0.1884	0.27871	-0.077
Mof_C 	C 	0.8045	0.6285	0.93001	-0.105
Mof_C 	C 	0.5947	0.7153	0.76995	0.043
Mof_C 	C 	0.1291	0.8727	0.03569	0.336
Mof_C 	C 	0.2369	0.1938	0.4024	0.034
Mof_C 	C 	0.9585	0.747	0.29129	0.034
Mof_C 	C 	0.8842	0.6263	0.9158	0.003
Mof_C 	C 	0.1551	0.7685	0.50552	0.001
Mof_C 	C 	0.8342	0.9158	0.9962	0.361
Mof_C 	C 	0.404	0.7619	0.55376	-0.083
Mof_C 	C 	0.2314	0.1987	0.54713	0.044
Mof_C 	C 	0.6618	0.2674	0.6016	-0.079
Mof_C 	C 	0.7314	0.3013	0.45287	0.04
Mof_C 	C 	0.904	0.7381	0.44624	-0.086
Mof_C 	C 	0.9948	0.1156	0.8222	0.365
Mof_C 	C 	0.6658	0.0842	0.4962	0.374
Mof_C 	C 	0.5947	0.7847	0.26995	0.041
Mof_C 	C 	0.2438	0.7039	0.2463	-0.036
Mof_C 	C 	0.5052	0.6156	0.8222	0.335
Mof_C 	C 	0.3449	0.2315	0.00552	-0.163
Mof_C 	C 	0.9685	0.348	0.65156	0.43
Mof_C 	C 	0.5653	0.1932	0.92426	-0.049
Mof_C 	C 	0.1618	0.2674	0.8984	-0.069
Mof_C 	C 	0.4053	0.2153	0.73005	0.042
Mof_C 	C 	0.7358	0.7403	0.7947	-0.017
Mof_C 	C 	0.3842	0.6263	0.5842	-0.024
Mof_C 	C 	0.9948	0.3844	0.3222	0.365
Mof_C 	C 	0.6799	0.268	0.96096	0.006
Mof_C 	C 	0.5415	0.253	0.79129	-0.002
Mof_C 	C 	0.407	0.6962	0.4182	-0.024
Mof_C 	C 	0.0315	0.848	0.84844	0.374
Mof_C 	C 	0.7358	0.7597	0.2947	-0.02
Mof_C 	C 	0.2562	0.2961	0.7463	-0.039
Mof_N 	N 	0.7459	0.3801	0.57556	-0.22
Mof_N 	N 	0.2541	0.6199	0.42444	-0.221
Mof_N 	N 	0.9626	0.5126	0.0116	-0.099
Mof_N 	N 	0.0374	0.0126	0.4884	-0.111
Mof_N 	N 	0.4626	0.9874	0.9884	-0.055
Mof_N 	N 	0.5374	0.4874	0.5116	-0.088
Mof_N 	N 	0.7459	0.1199	0.07556	-0.227
Mof_N 	N 	0.9626	0.9874	0.5116	-0.064
Mof_N 	N 	0.0374	0.4874	0.9884	-0.078
Mof_N 	N 	0.7541	0.6199	0.07556	-0.225
Mof_N 	N 	0.5374	0.0126	0.0116	-0.123
Mof_N 	N 	0.2459	0.1199	0.42444	-0.223
Mof_N 	N 	0.4626	0.5126	0.4884	-0.088
Mof_N 	N 	0.7541	0.8801	0.57556	-0.218
Mof_N 	N 	0.2459	0.3801	0.92444	-0.216
Mof_N 	N 	0.2541	0.8801	0.92444	-0.214
Mof_O 	O 	0.46788	0.51013	0.92561	-0.709
Mof_O 	O 	0.91319	0.39506	0.50341	-0.509
Mof_O 	O 	0.80691	0.53899	0.53169	-0.44
Mof_O 	O 	0.59975	0.42956	0.97095	-0.526
Mof_O 	O 	0.53363	0.38834	0.85208	-0.462
Mof_O 	O 	0.30691	0.96101	0.46831	-0.416
Mof_O 	O 	0.0549	0.1259	0.8514	-0.34
Mof_O 	O 	0.40889	0.35005	0.87859	-0.458
Mof_O 	O 	0.44447	0.44292	0.17593	-0.395
Mof_O 	O 	0.44447	0.05708	0.67593	-0.413
Mof_O 	O 	0.90025	0.92956	0.97095	-0.501
Mof_O 	O 	0.46637	0.88834	0.64792	-0.451
Mof_O 	O 	0.46788	0.98987	0.42561	-0.676
Mof_O 	O 	0.19309	0.03899	0.96831	-0.447
Mof_O 	O 	0.87346	0.09475	0.92048	-0.458
Mof_O 	O 	0.90025	0.57044	0.47095	-0.523
Mof_O 	O 	0.53212	0.01013	0.57439	-0.74
Mof_O 	O 	0.09111	0.64995	0.37859	-0.455
Mof_O 	O 	0.09975	0.07044	0.02905	-0.553
Mof_O 	O 	0.03212	0.01013	0.92561	-0.743
Mof_O 	O 	0.12654	0.90525	0.07952	-0.422
Mof_O 	O 	0.80691	0.96101	0.03169	-0.42
Mof_O 	O 	0.37346	0.09475	0.57952	-0.454
Mof_O 	O 	0.03363	0.38834	0.64792	-0.488
Mof_O 	O 	0.41319	0.10494	0.49659	-0.529
Mof_O 	O 	0.59111	0.64995	0.12141	-0.457
Mof_O 	O 	0.41319	0.39506	0.99659	-0.492
Mof_O 	O 	0.40025	0.57044	0.02905	-0.535
Mof_O 	O 	0.96637	0.61166	0.35208	-0.434
Mof_O 	O 	0.12654	0.59475	0.57952	-0.446
Mof_O 	O 	0.5549	0.3741	0.1486	-0.311
Mof_O 	O 	0.94447	0.44292	0.32407	-0.395
Mof_O 	O 	0.09111	0.85005	0.87859	-0.451
Mof_O 	O 	0.94447	0.05708	0.82407	-0.412
Mof_O 	O 	0.55553	0.94292	0.32407	-0.373
Mof_O 	O 	0.37346	0.40525	0.07952	-0.43
Mof_O 	O 	0.58681	0.60494	0.00341	-0.54
Mof_O 	O 	0.05553	0.94292	0.17593	-0.373
Mof_O 	O 	0.0549	0.3741	0.3514	-0.337
Mof_O 	O 	0.69309	0.03899	0.53169	-0.464
Mof_O 	O 	0.09975	0.42956	0.52905	-0.537
Mof_O 	O 	0.59111	0.85005	0.62141	-0.453
Mof_O 	O 	0.40889	0.14995	0.37859	-0.463
Mof_O 	O 	0.9451	0.6259	0.6486	-0.284
Mof_O 	O 	0.19309	0.46101	0.46831	-0.441
Mof_O 	O 	0.90889	0.14995	0.12141	-0.465
Mof_O 	O 	0.62654	0.90525	0.42048	-0.428
Mof_O 	O 	0.62654	0.59475	0.92048	-0.45
Mof_O 	O 	0.96788	0.51013	0.57439	-0.696
Mof_O 	O 	0.9451	0.8741	0.1486	-0.275
Mof_O 	O 	0.58681	0.89506	0.50341	-0.505
Mof_O 	O 	0.69309	0.46101	0.03169	-0.451
Mof_O 	O 	0.40025	0.92956	0.52905	-0.514
Mof_O 	O 	0.5549	0.1259	0.6486	-0.317
Mof_O 	O 	0.46637	0.61166	0.14792	-0.462
Mof_O 	O 	0.08681	0.60494	0.49659	-0.527
Mof_O 	O 	0.4451	0.6259	0.8514	-0.309
Mof_O 	O 	0.87346	0.40525	0.42048	-0.436
Mof_O 	O 	0.59975	0.07044	0.47095	-0.544
Mof_O 	O 	0.03363	0.11166	0.14792	-0.502
Mof_O 	O 	0.4451	0.8741	0.3514	-0.303
Mof_O 	O 	0.91319	0.10494	0.00341	-0.542
Mof_O 	O 	0.08681	0.89506	0.99659	-0.49
Mof_O 	O 	0.96788	0.98987	0.07439	-0.657
Mof_O 	O 	0.03212	0.48987	0.42561	-0.725
Mof_O 	O 	0.05553	0.55708	0.67593	-0.393
Mof_O 	O 	0.90889	0.35005	0.62141	-0.46
Mof_O 	O 	0.53212	0.48987	0.07439	-0.713
Mof_O 	O 	0.55553	0.55708	0.82407	-0.394
Mof_O 	O 	0.53363	0.11166	0.35208	-0.473
Mof_O 	O 	0.30691	0.53899	0.96831	-0.429
Mof_O 	O 	0.96637	0.88834	0.85208	-0.427
_end
