# CIF file generated by openbabel 3.1.0, see https://openbabel.org
data_I
_chemical_name_common 'image0'
_cell_length_a 7.6297
_cell_length_b 26.8079
_cell_length_c 15.0922
_cell_angle_alpha 90
_cell_angle_beta 90.838
_cell_angle_gamma 90
_space_group_name_H-M_alt 'P 1'
_space_group_name_Hall 'P 1'
loop_
    _symmetry_equiv_pos_as_xyz
    x,y,z
loop_
    _atom_site_label
    _atom_site_type_symbol
    _atom_site_fract_x
    _atom_site_fract_y
    _atom_site_fract_z
    _atom_site_occupancy
    C1       C        0.01270    0.09409    0.52730    1.000
    C2       C        0.86920    0.10645    0.46060    1.000
    C3       C        0.90560    0.12350    0.37650    1.000
    C4       C        0.76600    0.13665    0.32170    1.000
    H1       H        0.79060    0.14700    0.26440    1.000
    C5       C        0.56400    0.11952    0.42840    1.000
    H2       H        0.44830    0.11860    0.44700    1.000
    C6       C        0.69480    0.10455    0.48630    1.000
    H3       H        0.66670    0.09320    0.54260    1.000
    C7       C        0.08810    0.12841    0.33910    1.000
    C8       C        0.43380    0.05095    0.17830    1.000
    H4       H        0.40910    0.04400    0.23720    1.000
    C9       C        0.45250    0.01151    0.12030    1.000
    H5       H        0.43810    0.97890    0.14010    1.000
    C10      C        0.49290    0.02064    0.03230    1.000
    C11      C        0.51620    0.07010    0.00830    1.000
    H6       H        0.54720    0.07820    0.95070    1.000
    C12      C        0.49310    0.10726    0.07060    1.000
    H7       H        0.50910    0.14020    0.05320    1.000
    N1       N        0.59770    0.13547    0.34600    1.000
    N2       N        0.44930    0.09846    0.15400    1.000
    O1       O        0.98420    0.06084    0.58419    1.000
    O2       O        0.15070    0.11913    0.52550    1.000
    O3       O        0.17490    0.09084    0.32410    1.000
    O4       O        0.13760    0.17181    0.32160    1.000
    Cd1      Cd       0.38320    0.16474    0.24487    1.000
    C13      C        0.98730    0.90591    0.47270    1.000
    C14      C        0.13080    0.89355    0.53940    1.000
    C15      C        0.09440    0.87650    0.62350    1.000
    C16      C        0.23400    0.86335    0.67830    1.000
    H8       H        0.20940    0.85300    0.73560    1.000
    C17      C        0.43600    0.88048    0.57160    1.000
    H9       H        0.55170    0.88140    0.55300    1.000
    C18      C        0.30520    0.89545    0.51370    1.000
    H10      H        0.33330    0.90680    0.45740    1.000
    C19      C        0.91190    0.87159    0.66090    1.000
    C20      C        0.56620    0.94905    0.82170    1.000
    H11      H        0.59090    0.95600    0.76280    1.000
    C21      C        0.54750    0.98849    0.87970    1.000
    H12      H        0.56190    0.02110    0.85990    1.000
    C22      C        0.50710    0.97936    0.96770    1.000
    C23      C        0.48380    0.92990    0.99170    1.000
    H13      H        0.45280    0.92180    0.04930    1.000
    C24      C        0.50690    0.89274    0.92940    1.000
    H14      H        0.49090    0.85980    0.94680    1.000
    N3       N        0.40230    0.86453    0.65400    1.000
    N4       N        0.55070    0.90154    0.84600    1.000
    O5       O        0.01580    0.93916    0.41581    1.000
    O6       O        0.84930    0.88087    0.47450    1.000
    O7       O        0.82510    0.90916    0.67590    1.000
    O8       O        0.86240    0.82819    0.67840    1.000
    Cd2      Cd       0.61680    0.83526    0.75513    1.000
    C25      C        0.05680    0.19894    0.72100    1.000
    H15      H        0.17150    0.21070    0.72100    1.000
    C26      C        0.92130    0.23294    0.72210    1.000
    H16      H        0.94540    0.26690    0.72430    1.000
    C27      C        0.74900    0.21644    0.72000    1.000
    C28      C        0.71960    0.16507    0.72180    1.000
    C29      C        0.86420    0.13369    0.72270    1.000
    H17      H        0.84490    0.09950    0.72550    1.000
    C30      C        0.54350    0.14023    0.71260    1.000
    C31      C        0.60510    0.25499    0.72100    1.000
    C32      C        0.14890    0.07596    0.86970    1.000
    H18      H        0.18990    0.10860    0.86690    1.000
    C33      C        0.08950    0.05893    0.94960    1.000
    H19      H        0.08860    0.07990    0.99870    1.000
    C34      C        0.03050    0.00989    0.95650    1.000
    C35      C        0.03690    0.98120    0.88080    1.000
    H20      H        0.00180    0.94800    0.88220    1.000
    C36      C        0.09580    0.00199    0.80250    1.000
    H21      H        0.09640    0.98230    0.75180    1.000
    N5       N        0.02970    0.14996    0.71980    1.000
    N6       N        0.15140    0.04888    0.79680    1.000
    O9       O        0.62020    0.29175    0.67100    1.000
    O10      O        0.48380    0.25106    0.77460    1.000
    O11      O        0.51570    0.10133    0.75450    1.000
    O12      O        0.43660    0.15744    0.65840    1.000
    Cd3      Cd       0.24169    0.09031    0.67064    1.000
    C37      C        0.94320    0.80106    0.27900    1.000
    H22      H        0.82850    0.78930    0.27900    1.000
    C38      C        0.07870    0.76706    0.27790    1.000
    H23      H        0.05460    0.73310    0.27570    1.000
    C39      C        0.25100    0.78356    0.28000    1.000
    C40      C        0.28040    0.83493    0.27820    1.000
    C41      C        0.13580    0.86631    0.27730    1.000
    H24      H        0.15510    0.90050    0.27450    1.000
    C42      C        0.45650    0.85977    0.28740    1.000
    C43      C        0.39490    0.74501    0.27900    1.000
    C44      C        0.85110    0.92404    0.13030    1.000
    H25      H        0.81010    0.89140    0.13310    1.000
    C45      C        0.91050    0.94107    0.05040    1.000
    H26      H        0.91140    0.92010    0.00130    1.000
    C46      C        0.96950    0.99011    0.04350    1.000
    C47      C        0.96310    0.01880    0.11920    1.000
    H27      H        0.99820    0.05200    0.11780    1.000
    C48      C        0.90420    0.99801    0.19750    1.000
    H28      H        0.90360    0.01770    0.24820    1.000
    N7       N        0.97030    0.85004    0.28020    1.000
    N8       N        0.84860    0.95112    0.20320    1.000
    O13      O        0.37980    0.70825    0.32900    1.000
    O14      O        0.51620    0.74894    0.22540    1.000
    O15      O        0.48430    0.89867    0.24550    1.000
    O16      O        0.56340    0.84256    0.34160    1.000
    Cd4      Cd       0.75831    0.90969    0.32936    1.000
    C49      C        0.98730    0.59409    0.97270    1.000
    C50      C        0.13080    0.60645    0.03940    1.000
    C51      C        0.09440    0.62350    0.12350    1.000
    C52      C        0.23400    0.63665    0.17830    1.000
    H29      H        0.20940    0.64700    0.23560    1.000
    C53      C        0.43600    0.61952    0.07160    1.000
    H30      H        0.55170    0.61860    0.05300    1.000
    C54      C        0.30520    0.60455    0.01370    1.000
    H31      H        0.33330    0.59320    0.95740    1.000
    C55      C        0.91190    0.62841    0.16090    1.000
    C56      C        0.56620    0.55095    0.32170    1.000
    H32      H        0.59090    0.54400    0.26280    1.000
    C57      C        0.54750    0.51151    0.37970    1.000
    H33      H        0.56190    0.47890    0.35990    1.000
    C58      C        0.50710    0.52064    0.46770    1.000
    C59      C        0.48380    0.57010    0.49170    1.000
    H34      H        0.45280    0.57820    0.54930    1.000
    C60      C        0.50690    0.60726    0.42940    1.000
    H35      H        0.49090    0.64020    0.44680    1.000
    N9       N        0.40230    0.63547    0.15400    1.000
    N10      N        0.55070    0.59846    0.34600    1.000
    O17      O        0.01580    0.56084    0.91581    1.000
    O18      O        0.84930    0.61913    0.97450    1.000
    O19      O        0.82510    0.59084    0.17590    1.000
    O20      O        0.86240    0.67181    0.17840    1.000
    Cd5      Cd       0.61680    0.66474    0.25513    1.000
    C61      C        0.01270    0.40591    0.02730    1.000
    C62      C        0.86920    0.39355    0.96060    1.000
    C63      C        0.90560    0.37650    0.87650    1.000
    C64      C        0.76600    0.36335    0.82170    1.000
    H36      H        0.79060    0.35300    0.76440    1.000
    C65      C        0.56400    0.38048    0.92840    1.000
    H37      H        0.44830    0.38140    0.94700    1.000
    C66      C        0.69480    0.39545    0.98630    1.000
    H38      H        0.66670    0.40680    0.04260    1.000
    C67      C        0.08810    0.37159    0.83910    1.000
    C68      C        0.43380    0.44905    0.67830    1.000
    H39      H        0.40910    0.45600    0.73720    1.000
    C69      C        0.45250    0.48849    0.62030    1.000
    H40      H        0.43810    0.52110    0.64010    1.000
    C70      C        0.49290    0.47936    0.53230    1.000
    C71      C        0.51620    0.42990    0.50830    1.000
    H41      H        0.54720    0.42180    0.45070    1.000
    C72      C        0.49310    0.39274    0.57060    1.000
    H42      H        0.50910    0.35980    0.55320    1.000
    N11      N        0.59770    0.36453    0.84600    1.000
    N12      N        0.44930    0.40154    0.65400    1.000
    O21      O        0.98420    0.43916    0.08419    1.000
    O22      O        0.15070    0.38087    0.02550    1.000
    O23      O        0.17490    0.40916    0.82410    1.000
    O24      O        0.13760    0.32819    0.82160    1.000
    Cd6      Cd       0.38320    0.33526    0.74487    1.000
    C73      C        0.94320    0.69894    0.77900    1.000
    H43      H        0.82850    0.71070    0.77900    1.000
    C74      C        0.07870    0.73294    0.77790    1.000
    H44      H        0.05460    0.76690    0.77570    1.000
    C75      C        0.25100    0.71644    0.78000    1.000
    C76      C        0.28040    0.66507    0.77820    1.000
    C77      C        0.13580    0.63369    0.77730    1.000
    H45      H        0.15510    0.59950    0.77450    1.000
    C78      C        0.45650    0.64023    0.78740    1.000
    C79      C        0.39490    0.75499    0.77900    1.000
    C80      C        0.85110    0.57596    0.63030    1.000
    H46      H        0.81010    0.60860    0.63310    1.000
    C81      C        0.91050    0.55893    0.55040    1.000
    H47      H        0.91140    0.57990    0.50130    1.000
    C82      C        0.96950    0.50989    0.54350    1.000
    C83      C        0.96310    0.48120    0.61920    1.000
    H48      H        0.99820    0.44800    0.61780    1.000
    C84      C        0.90420    0.50199    0.69750    1.000
    H49      H        0.90360    0.48230    0.74820    1.000
    N13      N        0.97030    0.64996    0.78020    1.000
    N14      N        0.84860    0.54888    0.70320    1.000
    O25      O        0.37980    0.79175    0.82900    1.000
    O26      O        0.51620    0.75106    0.72540    1.000
    O27      O        0.48430    0.60133    0.74550    1.000
    O28      O        0.56340    0.65744    0.84160    1.000
    Cd7      Cd       0.75831    0.59031    0.82936    1.000
    C85      C        0.05680    0.30106    0.22100    1.000
    H50      H        0.17150    0.28930    0.22100    1.000
    C86      C        0.92130    0.26706    0.22210    1.000
    H51      H        0.94540    0.23310    0.22430    1.000
    C87      C        0.74900    0.28356    0.22000    1.000
    C88      C        0.71960    0.33493    0.22180    1.000
    C89      C        0.86420    0.36631    0.22270    1.000
    H52      H        0.84490    0.40050    0.22550    1.000
    C90      C        0.54350    0.35977    0.21260    1.000
    C91      C        0.60510    0.24501    0.22100    1.000
    C92      C        0.14890    0.42404    0.36970    1.000
    H53      H        0.18990    0.39140    0.36690    1.000
    C93      C        0.08950    0.44107    0.44960    1.000
    H54      H        0.08860    0.42010    0.49870    1.000
    C94      C        0.03050    0.49011    0.45650    1.000
    C95      C        0.03690    0.51880    0.38080    1.000
    H55      H        0.00180    0.55200    0.38220    1.000
    C96      C        0.09580    0.49801    0.30250    1.000
    H56      H        0.09640    0.51770    0.25180    1.000
    N15      N        0.02970    0.35004    0.21980    1.000
    N16      N        0.15140    0.45112    0.29680    1.000
    O29      O        0.62020    0.20825    0.17100    1.000
    O30      O        0.48380    0.24894    0.27460    1.000
    O31      O        0.51570    0.39867    0.25450    1.000
    O32      O        0.43660    0.34256    0.15840    1.000
    Cd8      Cd       0.24169    0.40969    0.17064    1.000
