# CIF file generated by openbabel 3.1.0, see https://openbabel.org
data_I
_chemical_name_common 'image0'
_cell_length_a 10.324
_cell_length_b 8.313
_cell_length_c 10.534
_cell_angle_alpha 90
_cell_angle_beta 90
_cell_angle_gamma 90
_space_group_name_H-M_alt 'P 1'
_space_group_name_Hall 'P 1'
loop_
    _symmetry_equiv_pos_as_xyz
    x,y,z
loop_
    _atom_site_label
    _atom_site_type_symbol
    _atom_site_fract_x
    _atom_site_fract_y
    _atom_site_fract_z
    _atom_site_occupancy
    P1       P        0.83240    0.06720    0.37360    1.000
    O1       O        0.72970    0.07390    0.27130    1.000
    O2       O        0.81160    0.93010    0.46270    1.000
    O3       O        0.96900    0.06920    0.31780    1.000
    H1       H        0.49200    0.31800    0.98490    1.000
    H2       H        0.70090    0.34230    0.60700    1.000
    P2       P        0.66760    0.93280    0.87360    1.000
    O4       O        0.77030    0.92610    0.77130    1.000
    O5       O        0.68840    0.06990    0.96270    1.000
    O6       O        0.53100    0.93080    0.81780    1.000
    H3       H        0.00800    0.68200    0.48490    1.000
    H4       H        0.79910    0.65770    0.10700    1.000
    P3       P        0.16760    0.56720    0.62640    1.000
    O7       O        0.27030    0.57390    0.72870    1.000
    O8       O        0.18840    0.43010    0.53730    1.000
    O9       O        0.03100    0.56920    0.68220    1.000
    H5       H        0.50800    0.81800    0.01510    1.000
    H6       H        0.29910    0.84230    0.39300    1.000
    P4       P        0.33240    0.43280    0.12640    1.000
    O10      O        0.22970    0.42610    0.22870    1.000
    O11      O        0.31160    0.56990    0.03730    1.000
    O12      O        0.46900    0.43080    0.18220    1.000
    H7       H        0.99200    0.18200    0.51510    1.000
    H8       H        0.20090    0.15770    0.89300    1.000
    P5       P        0.16760    0.93280    0.62640    1.000
    O13      O        0.27030    0.92610    0.72870    1.000
    O14      O        0.18840    0.06990    0.53730    1.000
    O15      O        0.03100    0.93080    0.68220    1.000
    H9       H        0.50800    0.68200    0.01510    1.000
    H10      H        0.29910    0.65770    0.39300    1.000
    P6       P        0.33240    0.06720    0.12640    1.000
    O16      O        0.22970    0.07390    0.22870    1.000
    O17      O        0.31160    0.93010    0.03730    1.000
    O18      O        0.46900    0.06920    0.18220    1.000
    H11      H        0.99200    0.31800    0.51510    1.000
    H12      H        0.20090    0.34230    0.89300    1.000
    P7       P        0.83240    0.43280    0.37360    1.000
    O19      O        0.72970    0.42610    0.27130    1.000
    O20      O        0.81160    0.56990    0.46270    1.000
    O21      O        0.96900    0.43080    0.31780    1.000
    H13      H        0.49200    0.18200    0.98490    1.000
    H14      H        0.70090    0.15770    0.60700    1.000
    P8       P        0.66760    0.56720    0.87360    1.000
    O22      O        0.77030    0.57390    0.77130    1.000
    O23      O        0.68840    0.43010    0.96270    1.000
    O24      O        0.53100    0.56920    0.81780    1.000
    H15      H        0.00800    0.81800    0.48490    1.000
    H16      H        0.79910    0.84230    0.10700    1.000
    Gd1      Gd       0.63974    0.25000    0.12052    1.000
    O25      O        0.94220    0.25000    0.54360    1.000
    C1       C        0.82480    0.25000    0.47010    1.000
    C2       C        0.70100    0.25000    0.55200    1.000
    H17      H        0.62710    0.25000    0.49750    1.000
    Gd2      Gd       0.86026    0.75000    0.62052    1.000
    O26      O        0.55780    0.75000    0.04360    1.000
    C3       C        0.67520    0.75000    0.97010    1.000
    C4       C        0.79900    0.75000    0.05200    1.000
    H18      H        0.87290    0.75000    0.99750    1.000
    Gd3      Gd       0.36026    0.75000    0.87948    1.000
    O27      O        0.05780    0.75000    0.45640    1.000
    C5       C        0.17520    0.75000    0.52990    1.000
    C6       C        0.29900    0.75000    0.44800    1.000
    H19      H        0.37290    0.75000    0.50250    1.000
    Gd4      Gd       0.13974    0.25000    0.37948    1.000
    O28      O        0.44220    0.25000    0.95640    1.000
    C7       C        0.32480    0.25000    0.02990    1.000
    C8       C        0.20100    0.25000    0.94800    1.000
    H20      H        0.12710    0.25000    0.00250    1.000
