data_functionalizedCrystal
_audit_creation_method	'EQeq! by Chris Wilmer'
_symmetry_space_group_name_H-M	'P1'
_symmetry_Int_Tables_number	1
_symmetry_cell_setting	triclinic
loop_
_symmetry_equiv_pos_as_xyz
  x,y,z
_cell_length_a	14.489
_cell_length_b	18.115
_cell_length_c	22.113
_cell_angle_alpha	90
_cell_angle_beta	90
_cell_angle_gamma	90
loop_
_atom_site_label
_atom_site_type_symbol
_atom_site_fract_x
_atom_site_fract_y
_atom_site_fract_z
_atom_site_charge
Mof_Zn	Zn	0.49217	0.32999	0.75068	1.209
Mof_Zn	Zn	0.65568	0.25283	0.82918	1.173
Mof_Zn	Zn	0.64066	0.2371	0.68419	1.209
Mof_Zn	Zn	0.49512	0.15543	0.77457	1.167
Mof_Zn	Zn	0.50783	0.67001	0.25068	1.21
Mof_Zn	Zn	0.34432	0.74717	0.32918	1.174
Mof_Zn	Zn	0.35934	0.7629	0.18419	1.211
Mof_Zn	Zn	0.50488	0.84457	0.27457	1.169
Mof_H 	H 	0.1279	0.1516	0.8434	0.273
Mof_H 	H 	0.2148	0.2019	0.8527	0.303
Mof_H 	H 	0.2231	0.1284	0.8156	0.301
Mof_H 	H 	0.5813	0.3212	0.9792	0.181
Mof_H 	H 	0.528	0.328	0.0407	0.183
Mof_H 	H 	0.6164	0.3759	0.0292	0.183
Mof_H 	H 	0.5304	0.4061	0.1158	0.254
Mof_H 	H 	0.4583	0.4391	0.1612	0.26
Mof_H 	H 	0.5544	0.4775	0.1527	0.266
Mof_H 	H 	0.3281	0.0454	0.9654	0.235
Mof_H 	H 	0.3771	0.0594	0.9033	0.236
Mof_H 	H 	0.3418	0.1263	0.9418	0.253
Mof_H 	H 	0.0221	0.1549	0.8392	0.312
Mof_H 	H 	0.93	0.1227	0.8129	0.337
Mof_H 	H 	0.9295	0.1985	0.8472	0.327
Mof_H 	H 	0.3007	0.9254	0.0695	0.281
Mof_H 	H 	0.3197	0.9449	0.0016	0.261
Mof_H 	H 	0.2848	0.0061	0.0461	0.265
Mof_H 	H 	0.8721	0.8484	0.3434	0.278
Mof_H 	H 	0.7852	0.7981	0.3527	0.309
Mof_H 	H 	0.7769	0.8716	0.3156	0.305
Mof_H 	H 	0.4187	0.6788	0.4792	0.315
Mof_H 	H 	0.472	0.672	0.5407	0.287
Mof_H 	H 	0.3836	0.6241	0.5292	0.286
Mof_H 	H 	0.4696	0.5939	0.6158	0.266
Mof_H 	H 	0.5417	0.5609	0.6612	0.276
Mof_H 	H 	0.4456	0.5225	0.6527	0.281
Mof_H 	H 	0.6719	0.9546	0.4654	0.27
Mof_H 	H 	0.6229	0.9406	0.4033	0.26
Mof_H 	H 	0.6582	0.8737	0.4418	0.281
Mof_H 	H 	0.9779	0.8451	0.3392	0.328
Mof_H 	H 	0.07	0.8773	0.3129	0.35
Mof_H 	H 	0.0705	0.8015	0.3472	0.341
Mof_H 	H 	0.6993	0.0746	0.5695	0.273
Mof_H 	H 	0.6803	0.0551	0.5016	0.243
Mof_H 	H 	0.7152	0.9939	0.5461	0.25
Mof_C 	C 	0.3312	0.2543	0.743	0.397
Mof_C 	C 	0.2274	0.2475	0.7339	-0.229
Mof_C 	C 	0.1619	0.2084	0.7712	0.402
Mof_C 	C 	0.1837	0.1694	0.8251	-0.959
Mof_C 	C 	0.513	0.3778	0.8694	0.463
Mof_C 	C 	0.4826	0.4216	0.9228	-0.183
Mof_C 	C 	0.5044	0.414	0.9846	0.165
Mof_C 	C 	0.4664	0.473	0.0202	-0.114
Mof_C 	C 	0.4192	0.5231	0.9848	-0.048
Mof_C 	C 	0.4659	0.4984	0.0821	0.29
Mof_C 	C 	0.4257	0.5643	0.089	-0.25
Mof_C 	C 	0.5627	0.3545	0.0107	-0.527
Mof_C 	C 	0.506	0.4509	0.1326	-0.782
Mof_C 	C 	0.5579	0.1646	0.9059	0.401
Mof_C 	C 	0.5354	0.1204	0.9617	-0.262
Mof_C 	C 	0.4585	0.0816	0.9746	0.294
Mof_C 	C 	0.3685	0.0779	0.9436	-0.793
Mof_C 	C 	0.8141	0.2228	0.7308	0.456
Mof_C 	C 	0.9134	0.23	0.7256	-0.313
Mof_C 	C 	0.9804	0.2041	0.7659	0.471
Mof_C 	C 	0.072	0.2223	0.7468	-0.342
Mof_C 	C 	0.0697	0.2629	0.6969	0.073
Mof_C 	C 	0.9642	0.1671	0.8206	-1.067
Mof_C 	C 	0.466	0.8864	0.1438	0.363
Mof_C 	C 	0.4803	0.9494	0.1023	-0.205
Mof_C 	C 	0.4243	0.9826	0.0584	0.278
Mof_C 	C 	0.4758	0.0377	0.0278	-0.187
Mof_C 	C 	0.5622	0.0465	0.0532	0.034
Mof_C 	C 	0.3226	0.9629	0.0424	-0.798
Mof_C 	C 	0.4267	0.6163	0.1361	0.416
Mof_C 	C 	0.6688	0.7457	0.243	0.399
Mof_C 	C 	0.7726	0.7525	0.2339	-0.231
Mof_C 	C 	0.8381	0.7916	0.2712	0.409
Mof_C 	C 	0.8163	0.8306	0.3251	-0.971
Mof_C 	C 	0.487	0.6222	0.3694	0.492
Mof_C 	C 	0.5174	0.5784	0.4228	-0.246
Mof_C 	C 	0.4956	0.586	0.4846	0.357
Mof_C 	C 	0.5336	0.527	0.5202	-0.258
Mof_C 	C 	0.5808	0.4769	0.4848	0.044
Mof_C 	C 	0.5341	0.5016	0.5821	0.345
Mof_C 	C 	0.5743	0.4357	0.589	-0.267
Mof_C 	C 	0.4373	0.6455	0.5107	-0.909
Mof_C 	C 	0.494	0.5491	0.6326	-0.839
Mof_C 	C 	0.4421	0.8354	0.4059	0.401
Mof_C 	C 	0.4646	0.8796	0.4617	-0.251
Mof_C 	C 	0.5415	0.9184	0.4746	0.35
Mof_C 	C 	0.6315	0.9221	0.4436	-0.867
Mof_C 	C 	0.1859	0.7772	0.2308	0.458
Mof_C 	C 	0.0866	0.77	0.2256	-0.317
Mof_C 	C 	0.0196	0.7959	0.2659	0.482
Mof_C 	C 	0.928	0.7777	0.2468	-0.345
Mof_C 	C 	0.9303	0.7371	0.1969	0.078
Mof_C 	C 	0.0358	0.8329	0.3206	-1.107
Mof_C 	C 	0.534	0.1136	0.6438	0.362
Mof_C 	C 	0.5197	0.0506	0.6023	-0.208
Mof_C 	C 	0.5757	0.0174	0.5584	0.286
Mof_C 	C 	0.5242	0.9623	0.5278	-0.237
Mof_C 	C 	0.4378	0.9535	0.5532	0.048
Mof_C 	C 	0.6774	0.0371	0.5424	-0.781
Mof_C 	C 	0.5733	0.3837	0.6361	0.423
Mof_S 	S 	0.1797	0.2939	0.6715	0.013
Mof_S 	S 	0.4189	0.501	0.9082	-0.022
Mof_S 	S 	0.3823	0.6006	0.0211	0.051
Mof_S 	S 	0.6285	0.1082	0.0123	0.06
Mof_S 	S 	0.9634	0.2779	0.6646	0.018
Mof_S 	S 	0.5865	0.9888	0.1105	0.009
Mof_S 	S 	0.8203	0.7061	0.1715	0.02
Mof_S 	S 	0.5811	0.499	0.4082	-0.019
Mof_S 	S 	0.6177	0.3994	0.5211	-0.002
Mof_S 	S 	0.3715	0.8918	0.5123	0.015
Mof_S 	S 	0.0366	0.7221	0.1646	0.022
Mof_S 	S 	0.4135	0.0112	0.6105	0.003
Mof_O 	O 	0.5755	0.2475	0.7578	-0.95
Mof_O 	O 	0.3698	0.2112	0.7773	-0.519
Mof_O 	O 	0.3691	0.3102	0.7148	-0.464
Mof_O 	O 	0.4716	0.3903	0.8217	-0.53
Mof_O 	O 	0.5765	0.3365	0.8789	-0.527
Mof_O 	O 	0.6397	0.1892	0.8985	-0.525
Mof_O 	O 	0.4947	0.1726	0.8668	-0.528
Mof_O 	O 	0.7765	0.1994	0.7747	-0.549
Mof_O 	O 	0.7735	0.2505	0.6838	-0.504
Mof_O 	O 	0.3826	0.8494	0.1364	-0.485
Mof_O 	O 	0.5229	0.8674	0.1807	-0.507
Mof_O 	O 	0.4618	0.5971	0.1898	-0.488
Mof_O 	O 	0.3902	0.6777	0.1278	-0.489
Mof_O 	O 	0.4245	0.7525	0.2578	-0.95
Mof_O 	O 	0.6302	0.7888	0.2773	-0.519
Mof_O 	O 	0.6309	0.6898	0.2148	-0.463
Mof_O 	O 	0.5284	0.6097	0.3217	-0.535
Mof_O 	O 	0.4235	0.6635	0.3789	-0.539
Mof_O 	O 	0.3603	0.8108	0.3985	-0.52
Mof_O 	O 	0.5053	0.8274	0.3668	-0.528
Mof_O 	O 	0.2235	0.8006	0.2747	-0.548
Mof_O 	O 	0.2265	0.7495	0.1838	-0.502
Mof_O 	O 	0.6174	0.1506	0.6364	-0.487
Mof_O 	O 	0.4771	0.1326	0.6807	-0.508
Mof_O 	O 	0.5382	0.4029	0.6898	-0.492
Mof_O 	O 	0.6098	0.3223	0.6278	-0.491
Mof_Zn	Zn	0.00783	0.82999	0.75068	1.209
Mof_Zn	Zn	0.84432	0.75283	0.82918	1.175
Mof_Zn	Zn	0.85934	0.7371	0.68419	1.211
Mof_Zn	Zn	0.00488	0.65543	0.77457	1.168
Mof_Zn	Zn	0.99217	0.17001	0.25068	1.211
Mof_Zn	Zn	0.15568	0.24717	0.32918	1.175
Mof_Zn	Zn	0.14066	0.2629	0.18419	1.211
Mof_Zn	Zn	0.99512	0.34457	0.27457	1.169
Mof_H 	H 	0.3721	0.6516	0.8434	0.272
Mof_H 	H 	0.2852	0.7019	0.8527	0.302
Mof_H 	H 	0.2769	0.6284	0.8156	0.3
Mof_H 	H 	0.9187	0.8212	0.9792	0.189
Mof_H 	H 	0.972	0.828	0.0407	0.191
Mof_H 	H 	0.8836	0.8759	0.0292	0.19
Mof_H 	H 	0.9696	0.9061	0.1158	0.246
Mof_H 	H 	0.0417	0.9391	0.1612	0.25
Mof_H 	H 	0.9456	0.9775	0.1527	0.259
Mof_H 	H 	0.1719	0.5454	0.9654	0.233
Mof_H 	H 	0.1229	0.5594	0.9033	0.234
Mof_H 	H 	0.1582	0.6263	0.9418	0.252
Mof_H 	H 	0.4779	0.6549	0.8392	0.314
Mof_H 	H 	0.57	0.6227	0.8129	0.339
Mof_H 	H 	0.5705	0.6985	0.8472	0.328
Mof_H 	H 	0.1993	0.4254	0.0695	0.279
Mof_H 	H 	0.1803	0.4449	0.0016	0.26
Mof_H 	H 	0.2152	0.5061	0.0461	0.262
Mof_H 	H 	0.6279	0.3484	0.3434	0.278
Mof_H 	H 	0.7148	0.2981	0.3527	0.31
Mof_H 	H 	0.7231	0.3716	0.3156	0.306
Mof_H 	H 	0.0813	0.1788	0.4792	0.313
Mof_H 	H 	0.028	0.172	0.5407	0.285
Mof_H 	H 	0.1164	0.1241	0.5292	0.284
Mof_H 	H 	0.0304	0.0939	0.6158	0.269
Mof_H 	H 	0.9583	0.0609	0.6612	0.28
Mof_H 	H 	0.0544	0.0225	0.6527	0.284
Mof_H 	H 	0.8281	0.4546	0.4654	0.271
Mof_H 	H 	0.8771	0.4406	0.4033	0.261
Mof_H 	H 	0.8418	0.3737	0.4418	0.282
Mof_H 	H 	0.5221	0.3451	0.3392	0.323
Mof_H 	H 	0.43	0.3773	0.3129	0.347
Mof_H 	H 	0.4295	0.3015	0.3472	0.338
Mof_H 	H 	0.8007	0.5746	0.5695	0.274
Mof_H 	H 	0.8197	0.5551	0.5016	0.244
Mof_H 	H 	0.7848	0.4939	0.5461	0.252
Mof_C 	C 	0.1688	0.7543	0.743	0.397
Mof_C 	C 	0.2726	0.7475	0.7339	-0.229
Mof_C 	C 	0.3381	0.7084	0.7712	0.402
Mof_C 	C 	0.3163	0.6694	0.8251	-0.958
Mof_C 	C 	0.987	0.8778	0.8694	0.475
Mof_C 	C 	0.0174	0.9216	0.9228	-0.197
Mof_C 	C 	0.9956	0.914	0.9846	0.182
Mof_C 	C 	0.0336	0.973	0.0202	-0.123
Mof_C 	C 	0.0808	0.0231	0.9848	-0.043
Mof_C 	C 	0.0341	0.9984	0.0821	0.279
Mof_C 	C 	0.0743	0.0643	0.089	-0.244
Mof_C 	C 	0.9373	0.8545	0.0107	-0.55
Mof_C 	C 	0.994	0.9509	0.1326	-0.755
Mof_C 	C 	0.9421	0.6646	0.9059	0.403
Mof_C 	C 	0.9646	0.6204	0.9617	-0.259
Mof_C 	C 	0.0415	0.5816	0.9746	0.29
Mof_C 	C 	0.1315	0.5779	0.9436	-0.788
Mof_C 	C 	0.6859	0.7228	0.7308	0.455
Mof_C 	C 	0.5866	0.73	0.7256	-0.313
Mof_C 	C 	0.5196	0.7041	0.7659	0.471
Mof_C 	C 	0.428	0.7223	0.7468	-0.341
Mof_C 	C 	0.4303	0.7629	0.6969	0.074
Mof_C 	C 	0.5358	0.6671	0.8206	-1.073
Mof_C 	C 	0.034	0.3864	0.1438	0.36
Mof_C 	C 	0.0197	0.4494	0.1023	-0.207
Mof_C 	C 	0.0757	0.4826	0.0584	0.279
Mof_C 	C 	0.0242	0.5377	0.0278	-0.19
Mof_C 	C 	0.9378	0.5465	0.0532	0.035
Mof_C 	C 	0.1774	0.4629	0.0424	-0.792
Mof_C 	C 	0.0733	0.1163	0.1361	0.413
Mof_C 	C 	0.8312	0.2457	0.243	0.399
Mof_C 	C 	0.7274	0.2525	0.2339	-0.231
Mof_C 	C 	0.6619	0.2916	0.2712	0.41
Mof_C 	C 	0.6837	0.3306	0.3251	-0.973
Mof_C 	C 	0.013	0.1222	0.3694	0.487
Mof_C 	C 	0.9826	0.0784	0.4228	-0.241
Mof_C 	C 	0.0044	0.086	0.4846	0.352
Mof_C 	C 	0.9664	0.027	0.5202	-0.256
Mof_C 	C 	0.9192	0.9769	0.4848	0.043
Mof_C 	C 	0.9659	0.0016	0.5821	0.349
Mof_C 	C 	0.9257	0.9357	0.589	-0.269
Mof_C 	C 	0.0627	0.1455	0.5107	-0.903
Mof_C 	C 	0.006	0.0491	0.6326	-0.85
Mof_C 	C 	0.0579	0.3354	0.4059	0.399
Mof_C 	C 	0.0354	0.3796	0.4617	-0.254
Mof_C 	C 	0.9585	0.4184	0.4746	0.352
Mof_C 	C 	0.8685	0.4221	0.4436	-0.871
Mof_C 	C 	0.3141	0.2772	0.2308	0.458
Mof_C 	C 	0.4134	0.27	0.2256	-0.317
Mof_C 	C 	0.4804	0.2959	0.2659	0.481
Mof_C 	C 	0.572	0.2777	0.2468	-0.346
Mof_C 	C 	0.5697	0.2371	0.1969	0.075
Mof_C 	C 	0.4642	0.3329	0.3206	-1.094
Mof_C 	C 	0.966	0.6136	0.6438	0.365
Mof_C 	C 	0.9803	0.5506	0.6023	-0.206
Mof_C 	C 	0.9243	0.5174	0.5584	0.284
Mof_C 	C 	0.9758	0.4623	0.5278	-0.235
Mof_C 	C 	0.0622	0.4535	0.5532	0.047
Mof_C 	C 	0.8226	0.5371	0.5424	-0.784
Mof_C 	C 	0.9267	0.8837	0.6361	0.424
Mof_S 	S 	0.3203	0.7939	0.6715	0.012
Mof_S 	S 	0.0811	0.001	0.9082	-0.019
Mof_S 	S 	0.1177	0.1006	0.0211	0.048
Mof_S 	S 	0.8715	0.6082	0.0123	0.059
Mof_S 	S 	0.5366	0.7779	0.6646	0.015
Mof_S 	S 	0.9135	0.4888	0.1105	0.013
Mof_S 	S 	0.6797	0.2061	0.1715	0.021
Mof_S 	S 	0.9189	0.999	0.4082	-0.02
Mof_S 	S 	0.8823	0.8994	0.5211	-0.001
Mof_S 	S 	0.1285	0.3918	0.5123	0.016
Mof_S 	S 	0.4634	0.2221	0.1646	0.026
Mof_S 	S 	0.0865	0.5112	0.6105	-0.001
Mof_O 	O 	0.9245	0.7475	0.7578	-0.948
Mof_O 	O 	0.1302	0.7112	0.7773	-0.519
Mof_O 	O 	0.1309	0.8102	0.7148	-0.465
Mof_O 	O 	0.0284	0.8903	0.8217	-0.536
Mof_O 	O 	0.9235	0.8365	0.8789	-0.53
Mof_O 	O 	0.8603	0.6892	0.8985	-0.526
Mof_O 	O 	0.0053	0.6726	0.8668	-0.53
Mof_O 	O 	0.7235	0.6994	0.7747	-0.549
Mof_O 	O 	0.7265	0.7505	0.6838	-0.504
Mof_O 	O 	0.1174	0.3494	0.1364	-0.484
Mof_O 	O 	0.9771	0.3674	0.1807	-0.504
Mof_O 	O 	0.0382	0.0971	0.1898	-0.487
Mof_O 	O 	0.1098	0.1777	0.1278	-0.488
Mof_O 	O 	0.0755	0.2525	0.2578	-0.951
Mof_O 	O 	0.8698	0.2888	0.2773	-0.518
Mof_O 	O 	0.8691	0.1898	0.2148	-0.462
Mof_O 	O 	0.9716	0.1097	0.3217	-0.532
Mof_O 	O 	0.0765	0.1635	0.3789	-0.537
Mof_O 	O 	0.1397	0.3108	0.3985	-0.519
Mof_O 	O 	0.9947	0.3274	0.3668	-0.526
Mof_O 	O 	0.2765	0.3006	0.2747	-0.548
Mof_O 	O 	0.2735	0.2495	0.1838	-0.502
Mof_O 	O 	0.8826	0.6506	0.6364	-0.487
Mof_O 	O 	0.0229	0.6326	0.6807	-0.51
Mof_O 	O 	0.9618	0.9029	0.6898	-0.491
Mof_O 	O 	0.8902	0.8223	0.6278	-0.491
_end
