data_functionalizedCrystal
_audit_creation_method	'EQeq! by Chris Wilmer'
_symmetry_space_group_name_H-M	'P1'
_symmetry_Int_Tables_number	1
_symmetry_cell_setting	triclinic
loop_
_symmetry_equiv_pos_as_xyz
  x,y,z
_cell_length_a	11.4284
_cell_length_b	11.4284
_cell_length_c	30.743
_cell_angle_alpha	90
_cell_angle_beta	90
_cell_angle_gamma	120
loop_
_atom_site_label
_atom_site_type_symbol
_atom_site_fract_x
_atom_site_fract_y
_atom_site_fract_z
_atom_site_charge
Mof_Co	Co	-5.49072e-17	0.93788	0.16667	1.115
Mof_Co	Co	0.93788	2.90377e-32	0.5	1.115
Mof_Co	Co	0.06212	0.06212	0.83333	1.095
Mof_Co	Co	0.9143	0	-0	1.167
Mof_Co	Co	0.0857	0.0857	0.33333	1.163
Mof_Co	Co	-8.88511e-17	0.9143	0.66667	1.17
Mof_H 	H 	0.4415	0.5722	0.0024	0.058
Mof_H 	H 	0.4293	0.2046	0.9993	0.074
Mof_H 	H 	0.2216	0.1982	0.9971	0.027
Mof_H 	H 	0.5935	0.8361	0.128	0.045
Mof_H 	H 	0.3674	0.7344	0.1085	0.049
Mof_H 	H 	0.0237	0.3616	0.1015	0.088
Mof_H 	H 	0.0233	0.1578	0.1031	-0.006
Mof_H 	H 	0.9687	0.5116	0.1018	0.086
Mof_H 	H 	0.4434	0.8785	0.9472	0.071
Mof_H 	H 	0.6502	0.8874	0.9479	0
Mof_H 	H 	0.961	0.7106	0.1044	0.009
Mof_H 	H 	0.2893	0.601	0.0456	0.067
Mof_H 	H 	0.1307	0.5585	0.33573	0.052
Mof_H 	H 	0.7753	0.5707	0.33263	0.079
Mof_H 	H 	0.9766	0.7784	0.33043	0.041
Mof_H 	H 	0.2426	0.4065	0.46133	0.037
Mof_H 	H 	0.367	0.6326	0.44183	0.05
Mof_H 	H 	0.3379	0.9763	0.43483	0.094
Mof_H 	H 	0.1345	0.9767	0.43643	0
Mof_H 	H 	0.5429	0.0313	0.43513	0.077
Mof_H 	H 	0.4351	0.5566	0.28053	0.08
Mof_H 	H 	0.2372	0.3498	0.28123	-0.004
Mof_H 	H 	0.7496	0.039	0.43773	0.009
Mof_H 	H 	0.3117	0.7107	0.37893	0.073
Mof_H 	H 	0.4278	0.8693	0.66907	0.074
Mof_H 	H 	0.7954	0.2247	0.66597	0.068
Mof_H 	H 	0.8018	0.0234	0.66377	0.01
Mof_H 	H 	0.1639	0.7574	0.79467	0.029
Mof_H 	H 	0.2656	0.633	0.77517	0.05
Mof_H 	H 	0.6384	0.6621	0.76817	0.096
Mof_H 	H 	0.8422	0.8655	0.76977	0.016
Mof_H 	H 	0.4884	0.4571	0.76847	0.087
Mof_H 	H 	0.1215	0.5649	0.61387	0.073
Mof_H 	H 	0.1126	0.7628	0.61457	0.006
Mof_H 	H 	0.2894	0.2504	0.77107	0.002
Mof_H 	H 	0.399	0.6883	0.71227	0.065
Mof_H 	H 	0.8693	0.4278	0.9976	0.077
Mof_H 	H 	0.2247	0.7954	0.0007	0.066
Mof_H 	H 	0.0234	0.8018	0.0029	0.009
Mof_H 	H 	0.7574	0.1639	0.872	0.03
Mof_H 	H 	0.633	0.2656	0.8915	0.05
Mof_H 	H 	0.6621	0.6384	0.8985	0.096
Mof_H 	H 	0.8655	0.8422	0.8969	0.016
Mof_H 	H 	0.4571	0.4884	0.8982	0.087
Mof_H 	H 	0.5649	0.1215	0.0528	0.071
Mof_H 	H 	0.7628	0.1126	0.0521	0.007
Mof_H 	H 	0.2504	0.2894	0.8956	0.003
Mof_H 	H 	0.6883	0.399	0.9544	0.066
Mof_H 	H 	0.5722	0.4415	0.66427	0.061
Mof_H 	H 	0.2046	0.4293	0.66737	0.074
Mof_H 	H 	0.1982	0.2216	0.66957	0.026
Mof_H 	H 	0.8361	0.5935	0.53867	0.046
Mof_H 	H 	0.7344	0.3674	0.55817	0.049
Mof_H 	H 	0.3616	0.0237	0.56517	0.088
Mof_H 	H 	0.1578	0.0233	0.56357	-0.006
Mof_H 	H 	0.5116	0.9687	0.56487	0.087
Mof_H 	H 	0.8785	0.4434	0.71947	0.072
Mof_H 	H 	0.8874	0.6502	0.71877	0.001
Mof_H 	H 	0.7106	0.961	0.56227	0.009
Mof_H 	H 	0.601	0.2893	0.62107	0.068
Mof_H 	H 	0.5585	0.1307	0.33093	0.052
Mof_H 	H 	0.5707	0.7753	0.33403	0.079
Mof_H 	H 	0.7784	0.9766	0.33623	0.041
Mof_H 	H 	0.4065	0.2426	0.20533	0.037
Mof_H 	H 	0.6326	0.367	0.22483	0.05
Mof_H 	H 	0.9763	0.3379	0.23183	0.094
Mof_H 	H 	0.9767	0.1345	0.23023	0
Mof_H 	H 	0.0313	0.5429	0.23153	0.077
Mof_H 	H 	0.5566	0.4351	0.38613	0.081
Mof_H 	H 	0.3498	0.2372	0.38543	-0.004
Mof_H 	H 	0.039	0.7496	0.22893	0.009
Mof_H 	H 	0.7107	0.3117	0.28773	0.072
Mof_C 	C 	0.4731	0.6287	0.02736	-0.019
Mof_C 	C 	0.8043	0.8549	0.08966	0.375
Mof_C 	C 	0.6572	0.7751	0.07497	-0.076
Mof_C 	C 	0.3476	0.1202	0.99931	-0.098
Mof_C 	C 	0.2226	0.1156	0.99862	0.052
Mof_C 	C 	0.6113	0.6959	0.0376	-0.046
Mof_C 	C 	0.5637	0.7855	0.10175	-0.002
Mof_C 	C 	0.4289	0.7232	0.09057	-0.04
Mof_C 	C 	0.0139	0.3168	0.12843	-0.126
Mof_C 	C 	0.0135	0.1944	0.12967	0.061
Mof_C 	C 	0.9806	0.5568	0.12878	-0.089
Mof_C 	C 	0.5083	0.9293	0.96888	-0.087
Mof_C 	C 	0.6317	0.9341	0.96995	0.113
Mof_C 	C 	0.9785	0.6773	0.13042	0.1
Mof_C 	C 	0.3822	0.644	0.05325	-0.04
Mof_C 	C 	0.1556	0.5269	0.36069	-0.008
Mof_C 	C 	0.0506	0.1957	0.42299	0.378
Mof_C 	C 	0.1179	0.3428	0.4083	-0.08
Mof_C 	C 	0.7726	0.6524	0.33264	-0.107
Mof_C 	C 	0.893	0.7774	0.33195	0.061
Mof_C 	C 	0.0846	0.3887	0.37093	-0.073
Mof_C 	C 	0.2218	0.4363	0.43508	-0.007
Mof_C 	C 	0.2943	0.5711	0.4239	-0.039
Mof_C 	C 	0.3029	0.9861	0.46176	-0.097
Mof_C 	C 	0.1809	0.9865	0.463	0.084
Mof_C 	C 	0.5762	0.0194	0.46211	-0.116
Mof_C 	C 	0.421	0.4917	0.30221	-0.134
Mof_C 	C 	0.3024	0.3683	0.30328	0.085
Mof_C 	C 	0.6988	0.0215	0.46375	0.064
Mof_C 	C 	0.2618	0.6178	0.38658	-0.048
Mof_C 	C 	0.3713	0.8444	0.69403	-0.031
Mof_C 	C 	0.1451	0.9494	0.75633	0.384
Mof_C 	C 	0.2249	0.8821	0.74164	-0.093
Mof_C 	C 	0.8798	0.2274	0.66598	-0.086
Mof_C 	C 	0.8844	0.107	0.66529	0.067
Mof_C 	C 	0.3041	0.9154	0.70427	-0.02
Mof_C 	C 	0.2145	0.7782	0.76842	0.006
Mof_C 	C 	0.2768	0.7057	0.75724	-0.054
Mof_C 	C 	0.6832	0.6971	0.7951	-0.125
Mof_C 	C 	0.8056	0.8191	0.79634	0.074
Mof_C 	C 	0.4432	0.4238	0.79545	-0.124
Mof_C 	C 	0.0707	0.579	0.63555	-0.122
Mof_C 	C 	0.0659	0.6976	0.63662	0.069
Mof_C 	C 	0.3227	0.3012	0.79709	0.072
Mof_C 	C 	0.356	0.7382	0.71992	-0.026
Mof_C 	C 	0.8444	0.3713	0.97264	-0.029
Mof_C 	C 	0.9494	0.1451	0.91034	0.383
Mof_C 	C 	0.8821	0.2249	0.92503	-0.09
Mof_C 	C 	0.2274	0.8798	0.00069	-0.085
Mof_C 	C 	0.107	0.8844	0.00138	0.063
Mof_C 	C 	0.9154	0.3041	0.9624	-0.02
Mof_C 	C 	0.7782	0.2145	0.89825	0.005
Mof_C 	C 	0.7057	0.2768	0.90943	-0.053
Mof_C 	C 	0.6971	0.6832	0.87157	-0.124
Mof_C 	C 	0.8191	0.8056	0.87033	0.074
Mof_C 	C 	0.4238	0.4432	0.87122	-0.124
Mof_C 	C 	0.579	0.0707	0.03112	-0.12
Mof_C 	C 	0.6976	0.0659	0.03005	0.066
Mof_C 	C 	0.3012	0.3227	0.86958	0.072
Mof_C 	C 	0.7382	0.356	0.94675	-0.026
Mof_C 	C 	0.6287	0.4731	0.63931	-0.016
Mof_C 	C 	0.8549	0.8043	0.57701	0.374
Mof_C 	C 	0.7751	0.6572	0.5917	-0.073
Mof_C 	C 	0.1202	0.3476	0.66736	-0.109
Mof_C 	C 	0.1156	0.2226	0.66805	0.046
Mof_C 	C 	0.6959	0.6113	0.62907	-0.05
Mof_C 	C 	0.7855	0.5637	0.56492	-0.004
Mof_C 	C 	0.7232	0.4289	0.5761	-0.038
Mof_C 	C 	0.3168	0.0139	0.53824	-0.126
Mof_C 	C 	0.1944	0.0135	0.537	0.061
Mof_C 	C 	0.5568	0.9806	0.53789	-0.088
Mof_C 	C 	0.9293	0.5083	0.69779	-0.096
Mof_C 	C 	0.9341	0.6317	0.69672	0.107
Mof_C 	C 	0.6773	0.9785	0.53625	0.1
Mof_C 	C 	0.644	0.3822	0.61342	-0.041
Mof_C 	C 	0.5269	0.1556	0.30597	-0.008
Mof_C 	C 	0.1957	0.0506	0.24367	0.378
Mof_C 	C 	0.3428	0.1179	0.25836	-0.08
Mof_C 	C 	0.6524	0.7726	0.33402	-0.107
Mof_C 	C 	0.7774	0.893	0.33471	0.061
Mof_C 	C 	0.3887	0.0846	0.29573	-0.072
Mof_C 	C 	0.4363	0.2218	0.23158	-0.007
Mof_C 	C 	0.5711	0.2943	0.24276	-0.039
Mof_C 	C 	0.9861	0.3029	0.2049	-0.097
Mof_C 	C 	0.9865	0.1809	0.20366	0.084
Mof_C 	C 	0.0194	0.5762	0.20455	-0.116
Mof_C 	C 	0.4917	0.421	0.36445	-0.134
Mof_C 	C 	0.3683	0.3024	0.36338	0.085
Mof_C 	C 	0.0215	0.6988	0.20291	0.064
Mof_C 	C 	0.6178	0.2618	0.28008	-0.048
Mof_C 	C 	1.048e-17	0.5026	0.16667	0.022
Mof_C 	C 	1.048e-17	0.3719	0.16667	0.035
Mof_C 	C 	0.5026	2.90377e-32	0.5	0.022
Mof_C 	C 	0.3719	2.90377e-32	0.5	0.035
Mof_C 	C 	0.4974	0.4974	0.83333	0.054
Mof_C 	C 	0.6281	0.6281	0.83333	0.06
Mof_C 	C 	0.4813	0	-0	0.021
Mof_C 	C 	0.3508	0	-0	0.006
Mof_C 	C 	0.5187	0.5187	0.33333	0.067
Mof_C 	C 	0.6492	0.6492	0.33333	0.039
Mof_C 	C 	-2.34639e-17	0.4813	0.66667	0.029
Mof_C 	C 	4.19232e-17	0.3508	0.66667	0.014
Mof_S 	S 	0.72094	0.66746	0.00296	0.449
Mof_S 	S 	0.94652	0.27906	0.33629	0.498
Mof_S 	S 	0.33254	0.05348	0.66963	0.448
Mof_S 	S 	0.05348	0.33254	0.99704	0.467
Mof_S 	S 	0.66746	0.72094	0.66371	0.473
Mof_S 	S 	0.27906	0.94652	0.33037	0.498
Mof_N 	N 	2.30659e-18	0.1262	0.16667	-0.259
Mof_N 	N 	1.048e-17	0.7478	0.16667	-0.253
Mof_N 	N 	0.1262	2.90377e-32	0.5	-0.259
Mof_N 	N 	0.7478	2.90377e-32	0.5	-0.253
Mof_N 	N 	0.8738	0.8738	0.83333	-0.225
Mof_N 	N 	0.2522	0.2522	0.83333	-0.242
Mof_N 	N 	0.1056	0	-0	-0.234
Mof_N 	N 	0.7259	0	-0	-0.251
Mof_N 	N 	0.8944	0.8944	0.33333	-0.192
Mof_N 	N 	0.2741	0.2741	0.33333	-0.231
Mof_N 	N 	1.05624e-18	0.1056	0.66667	-0.23
Mof_N 	N 	-8.88511e-17	0.7259	0.66667	-0.246
Mof_O 	O 	0.8956	0.932	0.06328	-0.408
Mof_O 	O 	0.8058	0.7952	0.97903	-0.357
Mof_O 	O 	0.6323	0.5613	0.97314	-0.252
Mof_O 	O 	0.8256	0.8438	0.12866	-0.422
Mof_O 	O 	0.8002	0.633	0.03148	-0.25
Mof_O 	O 	0.0364	0.1044	0.39661	-0.459
Mof_O 	O 	0.9894	0.1942	0.31236	-0.386
Mof_O 	O 	0.929	0.3677	0.30647	-0.259
Mof_O 	O 	0.0182	0.1744	0.46199	-0.457
Mof_O 	O 	0.8328	0.1998	0.36481	-0.266
Mof_O 	O 	0.068	0.9636	0.72995	-0.445
Mof_O 	O 	0.2048	0.0106	0.6457	-0.397
Mof_O 	O 	0.4387	0.071	0.63981	-0.27
Mof_O 	O 	0.1562	0.9818	0.79533	-0.439
Mof_O 	O 	0.367	0.1672	0.69815	-0.261
Mof_O 	O 	0.9636	0.068	0.93672	-0.441
Mof_O 	O 	0.0106	0.2048	0.02097	-0.406
Mof_O 	O 	0.071	0.4387	0.02686	-0.279
Mof_O 	O 	0.9818	0.1562	0.87134	-0.438
Mof_O 	O 	0.1672	0.367	0.96852	-0.263
Mof_O 	O 	0.932	0.8956	0.60339	-0.407
Mof_O 	O 	0.7952	0.8058	0.68764	-0.369
Mof_O 	O 	0.5613	0.6323	0.69353	-0.263
Mof_O 	O 	0.8438	0.8256	0.53801	-0.422
Mof_O 	O 	0.633	0.8002	0.63519	-0.252
Mof_O 	O 	0.1044	0.0364	0.27005	-0.459
Mof_O 	O 	0.1942	0.9894	0.3543	-0.386
Mof_O 	O 	0.3677	0.929	0.36019	-0.259
Mof_O 	O 	0.1744	0.0182	0.20467	-0.457
Mof_O 	O 	0.1998	0.8328	0.30185	-0.266
_end
