data_functionalizedCrystal
_audit_creation_method	'EQeq! by Chris Wilmer'
_symmetry_space_group_name_H-M	'P1'
_symmetry_Int_Tables_number	1
_symmetry_cell_setting	triclinic
loop_
_symmetry_equiv_pos_as_xyz
  x,y,z
_cell_length_a	15.1133
_cell_length_b	15.1133
_cell_length_c	12.0327
_cell_angle_alpha	90
_cell_angle_beta	90
_cell_angle_gamma	90
loop_
_atom_site_label
_atom_site_type_symbol
_atom_site_fract_x
_atom_site_fract_y
_atom_site_fract_z
_atom_site_charge
Mof_O 	O 	0.60088	0.28965	0.75599	-0.516
Mof_O 	O 	0.61803	0.37995	0.60896	-0.503
Mof_C 	C 	0.59123	0.36045	0.70242	0.432
Mof_C 	C 	0.54327	0.43316	0.76017	-0.092
Mof_C 	C 	0.54678	0.43276	0.87918	-0.045
Mof_H 	H 	0.57318	0.38162	0.90735	0.072
Mof_O 	O 	0.10088	0.78965	0.25599	-0.525
Mof_O 	O 	0.11803	0.87995	0.10896	-0.516
Mof_C 	C 	0.09123	0.86045	0.20242	0.437
Mof_C 	C 	0.04327	0.93316	0.26017	-0.1
Mof_C 	C 	0.04678	0.93276	0.37918	0.018
Mof_H 	H 	0.07318	0.88162	0.40735	0.036
Mof_O 	O 	0.89912	0.21035	0.25599	-0.525
Mof_O 	O 	0.88197	0.12005	0.10896	-0.52
Mof_C 	C 	0.90877	0.13955	0.20242	0.438
Mof_C 	C 	0.95673	0.06684	0.26017	-0.109
Mof_C 	C 	0.95322	0.06724	0.37918	0.006
Mof_H 	H 	0.92682	0.11838	0.40735	0.038
Mof_O 	O 	0.39912	0.71035	0.75599	-0.513
Mof_O 	O 	0.38197	0.62005	0.60896	-0.502
Mof_C 	C 	0.40877	0.63955	0.70242	0.433
Mof_C 	C 	0.45673	0.56684	0.76017	-0.091
Mof_C 	C 	0.45322	0.56724	0.87918	-0.045
Mof_H 	H 	0.42682	0.61838	0.90735	0.073
Mof_O 	O 	0.71035	0.10088	0.00599	-0.618
Mof_O 	O 	0.62005	0.11803	0.85896	-0.551
Mof_C 	C 	0.63955	0.09123	0.95242	0.65
Mof_C 	C 	0.56684	0.04327	0.01017	-0.398
Mof_C 	C 	0.56724	0.04678	0.12918	0.152
Mof_H 	H 	0.61838	0.07318	0.15735	-0.016
Mof_O 	O 	0.21035	0.60088	0.50599	-0.524
Mof_O 	O 	0.12005	0.61803	0.35896	-0.512
Mof_C 	C 	0.13955	0.59123	0.45242	0.446
Mof_C 	C 	0.06684	0.54327	0.51017	-0.13
Mof_C 	C 	0.06724	0.54678	0.62918	0.021
Mof_H 	H 	0.11838	0.57318	0.65735	0.033
Mof_O 	O 	0.78965	0.39912	0.50599	-0.522
Mof_O 	O 	0.87995	0.38197	0.35896	-0.509
Mof_C 	C 	0.86045	0.40877	0.45242	0.445
Mof_C 	C 	0.93316	0.45673	0.51017	-0.121
Mof_C 	C 	0.93276	0.45322	0.62918	0.031
Mof_H 	H 	0.88162	0.42682	0.65735	0.032
Mof_O 	O 	0.28965	0.89912	0.00599	-0.616
Mof_O 	O 	0.37995	0.88197	0.85896	-0.544
Mof_C 	C 	0.36045	0.90877	0.95242	0.652
Mof_C 	C 	0.43316	0.95673	0.01017	-0.383
Mof_C 	C 	0.43276	0.95322	0.12918	0.174
Mof_H 	H 	0.38162	0.92682	0.15735	-0.019
Mof_O 	O 	0.89912	0.28965	0.99401	-0.416
Mof_O 	O 	0.88197	0.37995	0.14104	-0.455
Mof_C 	C 	0.90877	0.36045	0.04758	0.222
Mof_C 	C 	0.95673	0.43316	0.98983	0.187
Mof_C 	C 	0.95322	0.43276	0.87082	-0.161
Mof_H 	H 	0.92682	0.38162	0.84265	0.099
Mof_O 	O 	0.39912	0.78965	0.49401	-0.518
Mof_O 	O 	0.38197	0.87995	0.64104	-0.491
Mof_C 	C 	0.40877	0.86045	0.54758	0.429
Mof_C 	C 	0.45673	0.93316	0.48983	-0.076
Mof_C 	C 	0.45322	0.93276	0.37082	-0.017
Mof_H 	H 	0.42682	0.88162	0.34265	0.048
Mof_O 	O 	0.60088	0.21035	0.49401	-0.521
Mof_O 	O 	0.61803	0.12005	0.64104	-0.499
Mof_C 	C 	0.59123	0.13955	0.54758	0.431
Mof_C 	C 	0.54327	0.06684	0.48983	-0.094
Mof_C 	C 	0.54678	0.06724	0.37082	-0.037
Mof_H 	H 	0.57318	0.11838	0.34265	0.051
Mof_O 	O 	0.10088	0.71035	0.99401	-0.417
Mof_O 	O 	0.11803	0.62005	0.14104	-0.459
Mof_C 	C 	0.09123	0.63955	0.04758	0.224
Mof_C 	C 	0.04327	0.56684	0.98983	0.178
Mof_C 	C 	0.04678	0.56724	0.87082	-0.171
Mof_H 	H 	0.07318	0.61838	0.84265	0.101
Mof_O 	O 	0.78965	0.10088	0.74401	-0.516
Mof_O 	O 	0.87995	0.11803	0.89104	-0.478
Mof_C 	C 	0.86045	0.09123	0.79758	0.429
Mof_C 	C 	0.93316	0.04327	0.73983	-0.087
Mof_C 	C 	0.93276	0.04678	0.62082	-0.005
Mof_H 	H 	0.88162	0.07318	0.59265	0.042
Mof_O 	O 	0.28965	0.60088	0.24401	-0.531
Mof_O 	O 	0.37995	0.61803	0.39104	-0.508
Mof_C 	C 	0.36045	0.59123	0.29758	0.45
Mof_C 	C 	0.43316	0.54327	0.23983	-0.142
Mof_C 	C 	0.43276	0.54678	0.12082	0.03
Mof_H 	H 	0.38162	0.57318	0.09265	0.013
Mof_O 	O 	0.71035	0.39912	0.24401	-0.53
Mof_O 	O 	0.62005	0.38197	0.39104	-0.509
Mof_C 	C 	0.63955	0.40877	0.29758	0.45
Mof_C 	C 	0.56684	0.45673	0.23983	-0.141
Mof_C 	C 	0.56724	0.45322	0.12082	0.029
Mof_H 	H 	0.61838	0.42682	0.09265	0.014
Mof_O 	O 	0.21035	0.89912	0.74401	-0.512
Mof_O 	O 	0.12005	0.88197	0.89104	-0.474
Mof_C 	C 	0.13955	0.90877	0.79758	0.428
Mof_C 	C 	0.06684	0.95673	0.73983	-0.076
Mof_C 	C 	0.06724	0.95322	0.62082	0.006
Mof_H 	H 	0.11838	0.92682	0.59265	0.041
Mof_V 	V 	0.69123	0.30877	0.5	1.806
Mof_V 	V 	0.19123	0.80877	-0	1.782
Mof_V 	V 	0.80877	0.19123	-0	1.782
Mof_V 	V 	0.30877	0.69123	0.5	1.806
Mof_V 	V 	0.69123	0.19123	0.75	1.808
Mof_V 	V 	0.19123	0.69123	0.25	1.803
Mof_V 	V 	0.80877	0.30877	0.25	1.803
Mof_V 	V 	0.30877	0.80877	0.75	1.808
Mof_O 	O 	0.7447	0.25	0.625	-0.822
Mof_H 	H 	0.806	0.25	0.625	0.236
Mof_O 	O 	0.2447	0.75	0.125	-0.829
Mof_H 	H 	0.306	0.75	0.125	0.231
Mof_O 	O 	0.7553	0.25	0.125	-0.829
Mof_H 	H 	0.694	0.25	0.125	0.23
Mof_O 	O 	0.2553	0.75	0.625	-0.822
Mof_H 	H 	0.194	0.75	0.625	0.236
Mof_O 	O 	0.75	0.2447	0.875	-0.806
Mof_H 	H 	0.75	0.306	0.875	0.241
Mof_O 	O 	0.25	0.7447	0.375	-0.822
Mof_H 	H 	0.25	0.806	0.375	0.237
Mof_O 	O 	0.75	0.2553	0.375	-0.822
Mof_H 	H 	0.75	0.194	0.375	0.236
Mof_O 	O 	0.25	0.7553	0.875	-0.805
Mof_H 	H 	0.25	0.694	0.875	0.24
Mof_C 	C 	0.5	0.5	0.70333	0.048
Mof_C 	C 	0.5	0.5	0.9362	0.094
Mof_H 	H 	0.5	0.5	0.626	0.055
Mof_C 	C 	-1.68923e-33	-1.1481e-33	0.20333	0.027
Mof_C 	C 	1.30212e-33	-4.59239e-33	0.4362	-0.031
Mof_H 	H 	3.76128e-34	0	0.126	0.04
Mof_C 	C 	0.5	0	0.95333	0.402
Mof_C 	C 	0.5	0	0.1862	-0.138
Mof_H 	H 	0.5	0	0.876	-0.064
Mof_C 	C 	1.0538e-32	0.5	0.45333	0.069
Mof_C 	C 	2.04841e-33	0.5	0.6862	-0.053
Mof_H 	H 	1.12241e-33	0.5	0.376	0.039
Mof_C 	C 	-4.34732e-34	0.5	0.04667	-0.318
Mof_C 	C 	2.42931e-33	0.5	0.8138	0.116
Mof_H 	H 	2.66635e-33	0.5	0.124	0.166
Mof_C 	C 	0.5	-4.59239e-33	0.54667	0.018
Mof_C 	C 	0.5	0	0.3138	0.029
Mof_H 	H 	0.5	0	0.624	0.063
Mof_C 	C 	-2.21421e-33	4.59239e-33	0.79667	0.007
Mof_C 	C 	1.68303e-33	0	0.5638	-0.021
Mof_H 	H 	2.60902e-33	0	0.874	0.07
Mof_C 	C 	0.5	0.5	0.29667	0.089
Mof_C 	C 	0.5	0.5	0.0638	-0.09
Mof_H 	H 	0.5	0.5	0.374	0.04
_end
