data_functionalizedCrystal
_audit_creation_method	'EQeq! by Chris Wilmer'
_symmetry_space_group_name_H-M	'P1'
_symmetry_Int_Tables_number	1
_symmetry_cell_setting	triclinic
loop_
_symmetry_equiv_pos_as_xyz
  x,y,z
_cell_length_a	22.3458
_cell_length_b	29.7691
_cell_length_c	33.3734
_cell_angle_alpha	90
_cell_angle_beta	90
_cell_angle_gamma	90
loop_
_atom_site_label
_atom_site_type_symbol
_atom_site_fract_x
_atom_site_fract_y
_atom_site_fract_z
_atom_site_charge
Mof_O 	O 	0.8571	0.3223	0.6375	-0.356
Mof_O 	O 	0.7902	0.2909	0.59717	-0.487
Mof_N 	N 	0.9015	0.5025	0.4404	-0.249
Mof_H 	H 	0.8953	0.5292	0.4317	0.131
Mof_N 	N 	0.9407	0.4728	0.4233	-0.272
Mof_C 	C 	0.8508	0.3491	0.5709	-0.2
Mof_C 	C 	0.835	0.3398	0.5317	0.117
Mof_H 	H 	0.8134	0.314	0.5256	-0
Mof_C 	C 	0.9389	0.4362	0.4464	0.333
Mof_C 	C 	0.8518	0.3697	0.5011	-0.259
Mof_H 	H 	0.8423	0.3629	0.4747	0.104
Mof_C 	C 	0.8981	0.4414	0.4771	-0.327
Mof_C 	C 	0.8824	0.4092	0.5097	0.219
Mof_C 	C 	0.8744	0.485	0.4719	0.361
Mof_C 	C 	0.8978	0.4181	0.5494	-0.265
Mof_H 	H 	0.918	0.4445	0.5558	0.125
Mof_C 	C 	0.8833	0.3881	0.579	0.123
Mof_H 	H 	0.8954	0.3938	0.6052	-0.017
Mof_C 	C 	0.8322	0.3185	0.605	0.38
Mof_C 	C 	0.9781	0.3965	0.4382	-0.798
Mof_H 	H 	0.9784	0.3905	0.4099	0.247
Mof_H 	H 	0.9628	0.3708	0.4522	0.259
Mof_H 	H 	0.018	0.4028	0.4471	0.242
Mof_C 	C 	0.8282	0.5101	0.4953	-0.9
Mof_H 	H 	0.8472	0.533	0.5109	0.294
Mof_H 	H 	0.8075	0.4897	0.5127	0.283
Mof_H 	H 	0.8002	0.5237	0.4771	0.277
Mof_O 	O 	0.8571	0.8223	0.1375	-0.356
Mof_O 	O 	0.7902	0.7909	0.09717	-0.488
Mof_N 	N 	0.9015	0.0025	0.9404	-0.272
Mof_H 	H 	0.8953	0.0292	0.9317	0.136
Mof_N 	N 	0.9407	0.9728	0.9233	-0.261
Mof_C 	C 	0.8508	0.8491	0.0709	-0.211
Mof_C 	C 	0.835	0.8398	0.0317	0.138
Mof_H 	H 	0.8134	0.814	0.0256	-0.011
Mof_C 	C 	0.9389	0.9362	0.9464	0.344
Mof_C 	C 	0.8518	0.8697	0.0011	-0.297
Mof_H 	H 	0.8423	0.8629	0.9747	0.124
Mof_C 	C 	0.8981	0.9414	0.9771	-0.335
Mof_C 	C 	0.8824	0.9092	0.0097	0.228
Mof_C 	C 	0.8744	0.985	0.9719	0.408
Mof_C 	C 	0.8978	0.9181	0.0494	-0.277
Mof_H 	H 	0.918	0.9445	0.0558	0.131
Mof_C 	C 	0.8833	0.8881	0.079	0.134
Mof_H 	H 	0.8954	0.8938	0.1052	-0.021
Mof_C 	C 	0.8322	0.8185	0.105	0.384
Mof_C 	C 	0.9781	0.8965	0.9382	-0.817
Mof_H 	H 	0.9784	0.8905	0.9099	0.253
Mof_H 	H 	0.9628	0.8708	0.9522	0.267
Mof_H 	H 	0.018	0.9028	0.9471	0.252
Mof_C 	C 	0.8282	0.0101	0.9953	-0.951
Mof_H 	H 	0.8472	0.033	0.0109	0.296
Mof_H 	H 	0.8075	0.9897	0.0127	0.302
Mof_H 	H 	0.8002	0.0237	0.9771	0.288
Mof_O 	O 	0.3571	0.3223	0.1375	-0.357
Mof_O 	O 	0.2902	0.2909	0.09717	-0.488
Mof_N 	N 	0.4015	0.5025	0.9404	-0.24
Mof_H 	H 	0.3953	0.5292	0.9317	0.129
Mof_N 	N 	0.4407	0.4728	0.9233	-0.28
Mof_C 	C 	0.3508	0.3491	0.0709	-0.207
Mof_C 	C 	0.335	0.3398	0.0317	0.129
Mof_H 	H 	0.3134	0.314	0.0256	-0.009
Mof_C 	C 	0.4389	0.4362	0.9464	0.351
Mof_C 	C 	0.3518	0.3697	0.0011	-0.288
Mof_H 	H 	0.3423	0.3629	0.9747	0.121
Mof_C 	C 	0.3981	0.4414	0.9771	-0.312
Mof_C 	C 	0.3824	0.4092	0.0097	0.211
Mof_C 	C 	0.3744	0.485	0.9719	0.325
Mof_C 	C 	0.3978	0.4181	0.0494	-0.267
Mof_H 	H 	0.418	0.4445	0.0558	0.121
Mof_C 	C 	0.3833	0.3881	0.079	0.123
Mof_H 	H 	0.3954	0.3938	0.1052	-0.02
Mof_C 	C 	0.3322	0.3185	0.105	0.381
Mof_C 	C 	0.4781	0.3965	0.9382	-0.9
Mof_H 	H 	0.4784	0.3905	0.9099	0.273
Mof_H 	H 	0.4628	0.3708	0.9522	0.287
Mof_H 	H 	0.518	0.4028	0.9471	0.288
Mof_C 	C 	0.3282	0.5101	0.9953	-0.758
Mof_H 	H 	0.3472	0.533	0.0109	0.243
Mof_H 	H 	0.3075	0.4897	0.0127	0.233
Mof_H 	H 	0.3002	0.5237	0.9771	0.238
Mof_O 	O 	0.3571	0.8223	0.6375	-0.358
Mof_O 	O 	0.2902	0.7909	0.59717	-0.488
Mof_N 	N 	0.4015	0.0025	0.4404	-0.286
Mof_H 	H 	0.3953	0.0292	0.4317	0.138
Mof_N 	N 	0.4407	0.9728	0.4233	-0.272
Mof_C 	C 	0.3508	0.8491	0.5709	-0.212
Mof_C 	C 	0.335	0.8398	0.5317	0.13
Mof_H 	H 	0.3134	0.814	0.5256	-0.006
Mof_C 	C 	0.4389	0.9362	0.4464	0.377
Mof_C 	C 	0.3518	0.8697	0.5011	-0.281
Mof_H 	H 	0.3423	0.8629	0.4747	0.112
Mof_C 	C 	0.3981	0.9414	0.4771	-0.381
Mof_C 	C 	0.3824	0.9092	0.5097	0.246
Mof_C 	C 	0.3744	0.985	0.4719	0.456
Mof_C 	C 	0.3978	0.9181	0.5494	-0.29
Mof_H 	H 	0.418	0.9445	0.5558	0.133
Mof_C 	C 	0.3833	0.8881	0.579	0.136
Mof_H 	H 	0.3954	0.8938	0.6052	-0.024
Mof_C 	C 	0.3322	0.8185	0.605	0.383
Mof_C 	C 	0.4781	0.8965	0.4382	-0.925
Mof_H 	H 	0.4784	0.8905	0.4099	0.281
Mof_H 	H 	0.4628	0.8708	0.4522	0.292
Mof_H 	H 	0.518	0.9028	0.4471	0.294
Mof_C 	C 	0.3282	0.0101	0.4953	-1.109
Mof_H 	H 	0.3472	0.033	0.5109	0.351
Mof_H 	H 	0.3075	0.9897	0.5127	0.358
Mof_H 	H 	0.3002	0.0237	0.4771	0.332
Mof_O 	O 	0.1429	0.6777	0.6375	-0.359
Mof_O 	O 	0.2098	0.7091	0.59717	-0.488
Mof_N 	N 	0.0985	0.4975	0.4404	-0.252
Mof_H 	H 	0.1047	0.4708	0.4317	0.131
Mof_N 	N 	0.0593	0.5272	0.4233	-0.289
Mof_C 	C 	0.1492	0.6509	0.5709	-0.207
Mof_C 	C 	0.165	0.6602	0.5317	0.121
Mof_H 	H 	0.1866	0.686	0.5256	-0.003
Mof_C 	C 	0.0611	0.5638	0.4464	0.385
Mof_C 	C 	0.1482	0.6303	0.5011	-0.272
Mof_H 	H 	0.1577	0.6371	0.4747	0.108
Mof_C 	C 	0.1019	0.5586	0.4771	-0.358
Mof_C 	C 	0.1176	0.5908	0.5097	0.229
Mof_C 	C 	0.1256	0.515	0.4719	0.37
Mof_C 	C 	0.1022	0.5819	0.5494	-0.279
Mof_H 	H 	0.082	0.5555	0.5558	0.123
Mof_C 	C 	0.1167	0.6119	0.579	0.125
Mof_H 	H 	0.1046	0.6062	0.6052	-0.023
Mof_C 	C 	0.1678	0.6815	0.605	0.38
Mof_C 	C 	0.0219	0.6035	0.4382	-1.011
Mof_H 	H 	0.0216	0.6095	0.4099	0.301
Mof_H 	H 	0.0372	0.6292	0.4522	0.312
Mof_H 	H 	0.982	0.5972	0.4471	0.332
Mof_C 	C 	0.1718	0.4899	0.4953	-0.913
Mof_H 	H 	0.1528	0.467	0.5109	0.297
Mof_H 	H 	0.1925	0.5103	0.5127	0.287
Mof_H 	H 	0.1998	0.4763	0.4771	0.281
Mof_O 	O 	0.1429	0.1777	0.1375	-0.358
Mof_O 	O 	0.2098	0.2091	0.09717	-0.488
Mof_N 	N 	0.0985	0.9975	0.9404	-0.206
Mof_H 	H 	0.1047	0.9708	0.9317	0.123
Mof_N 	N 	0.0593	0.0272	0.9233	-0.295
Mof_C 	C 	0.1492	0.1509	0.0709	-0.203
Mof_C 	C 	0.165	0.1602	0.0317	0.12
Mof_H 	H 	0.1866	0.186	0.0256	-0.006
Mof_C 	C 	0.0611	0.0638	0.9464	0.36
Mof_C 	C 	0.1482	0.1303	0.0011	-0.279
Mof_H 	H 	0.1577	0.1371	0.9747	0.117
Mof_C 	C 	0.1019	0.0586	0.9771	-0.29
Mof_C 	C 	0.1176	0.0908	0.0097	0.195
Mof_C 	C 	0.1256	0.015	0.9719	0.241
Mof_C 	C 	0.1022	0.0819	0.0494	-0.257
Mof_H 	H 	0.082	0.0555	0.0558	0.111
Mof_C 	C 	0.1167	0.1119	0.079	0.112
Mof_H 	H 	0.1046	0.1062	0.1052	-0.018
Mof_C 	C 	0.1678	0.1815	0.105	0.378
Mof_C 	C 	0.0219	0.1035	0.9382	-0.986
Mof_H 	H 	0.0216	0.1095	0.9099	0.294
Mof_H 	H 	0.0372	0.1292	0.9522	0.307
Mof_H 	H 	0.982	0.0972	0.9471	0.327
Mof_C 	C 	0.1718	0.9899	0.9953	-0.566
Mof_H 	H 	0.1528	0.967	0.0109	0.19
Mof_H 	H 	0.1925	0.0103	0.0127	0.164
Mof_H 	H 	0.1998	0.9763	0.9771	0.188
Mof_O 	O 	0.6429	0.6777	0.1375	-0.357
Mof_O 	O 	0.7098	0.7091	0.09717	-0.488
Mof_N 	N 	0.5985	0.4975	0.9404	-0.24
Mof_H 	H 	0.6047	0.4708	0.9317	0.13
Mof_N 	N 	0.5593	0.5272	0.9233	-0.28
Mof_C 	C 	0.6492	0.6509	0.0709	-0.207
Mof_C 	C 	0.665	0.6602	0.0317	0.129
Mof_H 	H 	0.6866	0.686	0.0256	-0.009
Mof_C 	C 	0.5611	0.5638	0.9464	0.351
Mof_C 	C 	0.6482	0.6303	0.0011	-0.288
Mof_H 	H 	0.6577	0.6371	0.9747	0.121
Mof_C 	C 	0.6019	0.5586	0.9771	-0.312
Mof_C 	C 	0.6176	0.5908	0.0097	0.211
Mof_C 	C 	0.6256	0.515	0.9719	0.325
Mof_C 	C 	0.6022	0.5819	0.0494	-0.267
Mof_H 	H 	0.582	0.5555	0.0558	0.121
Mof_C 	C 	0.6167	0.6119	0.079	0.123
Mof_H 	H 	0.6046	0.6062	0.1052	-0.02
Mof_C 	C 	0.6678	0.6815	0.105	0.381
Mof_C 	C 	0.5219	0.6035	0.9382	-0.9
Mof_H 	H 	0.5216	0.6095	0.9099	0.273
Mof_H 	H 	0.5372	0.6292	0.9522	0.287
Mof_H 	H 	0.482	0.5972	0.9471	0.288
Mof_C 	C 	0.6718	0.4899	0.9953	-0.759
Mof_H 	H 	0.6528	0.467	0.0109	0.243
Mof_H 	H 	0.6925	0.5103	0.0127	0.233
Mof_H 	H 	0.6998	0.4763	0.9771	0.238
Mof_O 	O 	0.6429	0.1777	0.6375	-0.356
Mof_O 	O 	0.7098	0.2091	0.59717	-0.486
Mof_N 	N 	0.5985	0.9975	0.4404	-0.214
Mof_H 	H 	0.6047	0.9708	0.4317	0.125
Mof_N 	N 	0.5593	0.0272	0.4233	-0.288
Mof_C 	C 	0.6492	0.1509	0.5709	-0.195
Mof_C 	C 	0.665	0.1602	0.5317	0.108
Mof_H 	H 	0.6866	0.186	0.5256	0.002
Mof_C 	C 	0.5611	0.0638	0.4464	0.341
Mof_C 	C 	0.6482	0.1303	0.5011	-0.25
Mof_H 	H 	0.6577	0.1371	0.4747	0.1
Mof_C 	C 	0.6019	0.0586	0.4771	-0.304
Mof_C 	C 	0.6176	0.0908	0.5097	0.202
Mof_C 	C 	0.6256	0.015	0.4719	0.277
Mof_C 	C 	0.6022	0.0819	0.5494	-0.255
Mof_H 	H 	0.582	0.0555	0.5558	0.115
Mof_C 	C 	0.6167	0.1119	0.579	0.112
Mof_H 	H 	0.6046	0.1062	0.6052	-0.016
Mof_C 	C 	0.6678	0.1815	0.605	0.377
Mof_C 	C 	0.5219	0.1035	0.4382	-0.885
Mof_H 	H 	0.5216	0.1095	0.4099	0.268
Mof_H 	H 	0.5372	0.1292	0.4522	0.279
Mof_H 	H 	0.482	0.0972	0.4471	0.28
Mof_C 	C 	0.6718	0.9899	0.4953	-0.706
Mof_H 	H 	0.6528	0.967	0.5109	0.241
Mof_H 	H 	0.6925	0.0103	0.5127	0.214
Mof_H 	H 	0.6998	0.9763	0.4771	0.226
Mof_O 	O 	0.1071	0.9277	0.8875	-0.353
Mof_O 	O 	0.0402	0.9591	0.84717	-0.486
Mof_N 	N 	0.1515	0.7475	0.6904	-0.248
Mof_H 	H 	0.1453	0.7208	0.6817	0.13
Mof_N 	N 	0.1907	0.7772	0.6733	-0.282
Mof_C 	C 	0.1008	0.9009	0.8209	-0.203
Mof_C 	C 	0.085	0.9102	0.7817	0.115
Mof_H 	H 	0.0634	0.936	0.7756	-0.001
Mof_C 	C 	0.1889	0.8138	0.6964	0.357
Mof_C 	C 	0.1018	0.8803	0.7511	-0.265
Mof_H 	H 	0.0923	0.8871	0.7247	0.103
Mof_C 	C 	0.1481	0.8086	0.7271	-0.34
Mof_C 	C 	0.1324	0.8408	0.7597	0.219
Mof_C 	C 	0.1244	0.765	0.7219	0.356
Mof_C 	C 	0.1478	0.8319	0.7994	-0.271
Mof_H 	H 	0.168	0.8055	0.8058	0.123
Mof_C 	C 	0.1333	0.8619	0.829	0.119
Mof_H 	H 	0.1454	0.8562	0.8552	-0.019
Mof_C 	C 	0.0822	0.9315	0.855	0.377
Mof_C 	C 	0.2281	0.8535	0.6882	-0.903
Mof_H 	H 	0.2284	0.8595	0.6599	0.273
Mof_H 	H 	0.2128	0.8792	0.7022	0.285
Mof_H 	H 	0.268	0.8472	0.6971	0.287
Mof_C 	C 	0.0782	0.7399	0.7453	-0.884
Mof_H 	H 	0.0972	0.717	0.7609	0.287
Mof_H 	H 	0.0575	0.7603	0.7627	0.272
Mof_H 	H 	0.0502	0.7263	0.7271	0.267
Mof_O 	O 	0.1071	0.4277	0.3875	-0.358
Mof_O 	O 	0.0402	0.4591	0.34717	-0.495
Mof_N 	N 	0.1515	0.2475	0.1904	-0.248
Mof_H 	H 	0.1453	0.2208	0.1817	0.13
Mof_N 	N 	0.1907	0.2772	0.1733	-0.282
Mof_C 	C 	0.1008	0.4009	0.3209	-0.207
Mof_C 	C 	0.085	0.4102	0.2817	0.118
Mof_H 	H 	0.0634	0.436	0.2756	-0.005
Mof_C 	C 	0.1889	0.3138	0.1964	0.357
Mof_C 	C 	0.1018	0.3803	0.2511	-0.268
Mof_H 	H 	0.0923	0.3871	0.2247	0.104
Mof_C 	C 	0.1481	0.3086	0.2271	-0.34
Mof_C 	C 	0.1324	0.3408	0.2597	0.221
Mof_C 	C 	0.1244	0.265	0.2219	0.356
Mof_C 	C 	0.1478	0.3319	0.2994	-0.273
Mof_H 	H 	0.168	0.3055	0.3058	0.124
Mof_C 	C 	0.1333	0.3619	0.329	0.121
Mof_H 	H 	0.1454	0.3562	0.3552	-0.02
Mof_C 	C 	0.0822	0.4315	0.355	0.379
Mof_C 	C 	0.2281	0.3535	0.1882	-0.904
Mof_H 	H 	0.2284	0.3595	0.1599	0.274
Mof_H 	H 	0.2128	0.3792	0.2022	0.285
Mof_H 	H 	0.268	0.3472	0.1971	0.287
Mof_C 	C 	0.0782	0.2399	0.2453	-0.885
Mof_H 	H 	0.0972	0.217	0.2609	0.288
Mof_H 	H 	0.0575	0.2603	0.2627	0.272
Mof_H 	H 	0.0502	0.2263	0.2271	0.267
Mof_O 	O 	0.6071	0.9277	0.3875	-0.353
Mof_O 	O 	0.5402	0.9591	0.34717	-0.478
Mof_N 	N 	0.6515	0.7475	0.1904	-0.25
Mof_H 	H 	0.6453	0.7208	0.1817	0.131
Mof_N 	N 	0.6907	0.7772	0.1733	-0.281
Mof_C 	C 	0.6008	0.9009	0.3209	-0.2
Mof_C 	C 	0.585	0.9102	0.2817	0.116
Mof_H 	H 	0.5634	0.936	0.2756	0.003
Mof_C 	C 	0.6889	0.8138	0.1964	0.358
Mof_C 	C 	0.6018	0.8803	0.2511	-0.262
Mof_H 	H 	0.5923	0.8871	0.2247	0.105
Mof_C 	C 	0.6481	0.8086	0.2271	-0.342
Mof_C 	C 	0.6324	0.8408	0.2597	0.222
Mof_C 	C 	0.6244	0.765	0.2219	0.365
Mof_C 	C 	0.6478	0.8319	0.2994	-0.27
Mof_H 	H 	0.668	0.8055	0.3058	0.123
Mof_C 	C 	0.6333	0.8619	0.329	0.121
Mof_H 	H 	0.6454	0.8562	0.3552	-0.019
Mof_C 	C 	0.5822	0.9315	0.355	0.378
Mof_C 	C 	0.7281	0.8535	0.1882	-0.904
Mof_H 	H 	0.7284	0.8595	0.1599	0.274
Mof_H 	H 	0.7128	0.8792	0.2022	0.285
Mof_H 	H 	0.768	0.8472	0.1971	0.286
Mof_C 	C 	0.5782	0.7399	0.2453	-0.906
Mof_H 	H 	0.5972	0.717	0.2609	0.295
Mof_H 	H 	0.5575	0.7603	0.2627	0.285
Mof_H 	H 	0.5502	0.7263	0.2271	0.279
Mof_O 	O 	0.6071	0.4277	0.8875	-0.356
Mof_O 	O 	0.5402	0.4591	0.84717	-0.487
Mof_N 	N 	0.6515	0.2475	0.6904	-0.25
Mof_H 	H 	0.6453	0.2208	0.6817	0.131
Mof_N 	N 	0.6907	0.2772	0.6733	-0.281
Mof_C 	C 	0.6008	0.4009	0.8209	-0.203
Mof_C 	C 	0.585	0.4102	0.7817	0.119
Mof_H 	H 	0.5634	0.436	0.7756	-0.002
Mof_C 	C 	0.6889	0.3138	0.6964	0.358
Mof_C 	C 	0.6018	0.3803	0.7511	-0.265
Mof_H 	H 	0.5923	0.3871	0.7247	0.106
Mof_C 	C 	0.6481	0.3086	0.7271	-0.342
Mof_C 	C 	0.6324	0.3408	0.7597	0.224
Mof_C 	C 	0.6244	0.265	0.7219	0.366
Mof_C 	C 	0.6478	0.3319	0.7994	-0.272
Mof_H 	H 	0.668	0.3055	0.8058	0.124
Mof_C 	C 	0.6333	0.3619	0.829	0.124
Mof_H 	H 	0.6454	0.3562	0.8552	-0.02
Mof_C 	C 	0.5822	0.4315	0.855	0.38
Mof_C 	C 	0.7281	0.3535	0.6882	-0.905
Mof_H 	H 	0.7284	0.3595	0.6599	0.274
Mof_H 	H 	0.7128	0.3792	0.7022	0.285
Mof_H 	H 	0.768	0.3472	0.6971	0.287
Mof_C 	C 	0.5782	0.2399	0.7453	-0.906
Mof_H 	H 	0.5972	0.217	0.7609	0.295
Mof_H 	H 	0.5575	0.2603	0.7627	0.285
Mof_H 	H 	0.5502	0.2263	0.7271	0.279
Mof_O 	O 	0.3929	0.5723	0.8875	-0.356
Mof_O 	O 	0.4598	0.5409	0.84717	-0.487
Mof_N 	N 	0.3485	0.7525	0.6904	-0.25
Mof_H 	H 	0.3547	0.7792	0.6817	0.131
Mof_N 	N 	0.3093	0.7228	0.6733	-0.281
Mof_C 	C 	0.3992	0.5991	0.8209	-0.203
Mof_C 	C 	0.415	0.5898	0.7817	0.119
Mof_H 	H 	0.4366	0.564	0.7756	-0.002
Mof_C 	C 	0.3111	0.6862	0.6964	0.359
Mof_C 	C 	0.3982	0.6197	0.7511	-0.265
Mof_H 	H 	0.4077	0.6129	0.7247	0.106
Mof_C 	C 	0.3519	0.6914	0.7271	-0.342
Mof_C 	C 	0.3676	0.6592	0.7597	0.224
Mof_C 	C 	0.3756	0.735	0.7219	0.366
Mof_C 	C 	0.3522	0.6681	0.7994	-0.272
Mof_H 	H 	0.332	0.6945	0.8058	0.124
Mof_C 	C 	0.3667	0.6381	0.829	0.124
Mof_H 	H 	0.3546	0.6438	0.8552	-0.02
Mof_C 	C 	0.4178	0.5685	0.855	0.38
Mof_C 	C 	0.2719	0.6465	0.6882	-0.905
Mof_H 	H 	0.2716	0.6405	0.6599	0.274
Mof_H 	H 	0.2872	0.6208	0.7022	0.285
Mof_H 	H 	0.232	0.6528	0.6971	0.287
Mof_C 	C 	0.4218	0.7601	0.7453	-0.906
Mof_H 	H 	0.4028	0.783	0.7609	0.295
Mof_H 	H 	0.4425	0.7397	0.7627	0.285
Mof_H 	H 	0.4498	0.7737	0.7271	0.279
Mof_O 	O 	0.3929	0.0723	0.3875	-0.361
Mof_O 	O 	0.4598	0.0409	0.34717	-0.493
Mof_N 	N 	0.3485	0.2525	0.1904	-0.25
Mof_H 	H 	0.3547	0.2792	0.1817	0.131
Mof_N 	N 	0.3093	0.2228	0.1733	-0.281
Mof_C 	C 	0.3992	0.0991	0.3209	-0.206
Mof_C 	C 	0.415	0.0898	0.2817	0.121
Mof_H 	H 	0.4366	0.064	0.2756	-0.006
Mof_C 	C 	0.3111	0.1862	0.1964	0.359
Mof_C 	C 	0.3982	0.1197	0.2511	-0.268
Mof_H 	H 	0.4077	0.1129	0.2247	0.106
Mof_C 	C 	0.3519	0.1914	0.2271	-0.343
Mof_C 	C 	0.3676	0.1592	0.2597	0.225
Mof_C 	C 	0.3756	0.235	0.2219	0.366
Mof_C 	C 	0.3522	0.1681	0.2994	-0.274
Mof_H 	H 	0.332	0.1945	0.3058	0.124
Mof_C 	C 	0.3667	0.1381	0.329	0.126
Mof_H 	H 	0.3546	0.1438	0.3552	-0.021
Mof_C 	C 	0.4178	0.0685	0.355	0.381
Mof_C 	C 	0.2719	0.1465	0.1882	-0.906
Mof_H 	H 	0.2716	0.1405	0.1599	0.274
Mof_H 	H 	0.2872	0.1208	0.2022	0.285
Mof_H 	H 	0.232	0.1528	0.1971	0.287
Mof_C 	C 	0.4218	0.2601	0.2453	-0.907
Mof_H 	H 	0.4028	0.283	0.2609	0.296
Mof_H 	H 	0.4425	0.2397	0.2627	0.285
Mof_H 	H 	0.4498	0.2737	0.2271	0.279
Mof_O 	O 	0.8929	0.5723	0.3875	-0.355
Mof_O 	O 	0.9598	0.5409	0.34717	-0.476
Mof_N 	N 	0.8485	0.7525	0.1904	-0.252
Mof_H 	H 	0.8547	0.7792	0.1817	0.133
Mof_N 	N 	0.8093	0.7228	0.1733	-0.281
Mof_C 	C 	0.8992	0.5991	0.3209	-0.199
Mof_C 	C 	0.915	0.5898	0.2817	0.12
Mof_H 	H 	0.9366	0.564	0.2756	0.002
Mof_C 	C 	0.8111	0.6862	0.1964	0.36
Mof_C 	C 	0.8982	0.6197	0.2511	-0.262
Mof_H 	H 	0.9077	0.6129	0.2247	0.108
Mof_C 	C 	0.8519	0.6914	0.2271	-0.345
Mof_C 	C 	0.8676	0.6592	0.2597	0.226
Mof_C 	C 	0.8756	0.735	0.2219	0.375
Mof_C 	C 	0.8522	0.6681	0.2994	-0.271
Mof_H 	H 	0.832	0.6945	0.3058	0.124
Mof_C 	C 	0.8667	0.6381	0.329	0.126
Mof_H 	H 	0.8546	0.6438	0.3552	-0.019
Mof_C 	C 	0.9178	0.5685	0.355	0.38
Mof_C 	C 	0.7719	0.6465	0.1882	-0.906
Mof_H 	H 	0.7716	0.6405	0.1599	0.275
Mof_H 	H 	0.7872	0.6208	0.2022	0.286
Mof_H 	H 	0.732	0.6528	0.1971	0.287
Mof_C 	C 	0.9218	0.7601	0.2453	-0.928
Mof_H 	H 	0.9028	0.783	0.2609	0.303
Mof_H 	H 	0.9425	0.7397	0.2627	0.299
Mof_H 	H 	0.9498	0.7737	0.2271	0.291
Mof_O 	O 	0.8929	0.0723	0.8875	-0.358
Mof_O 	O 	0.9598	0.0409	0.84717	-0.482
Mof_N 	N 	0.8485	0.2525	0.6904	-0.252
Mof_H 	H 	0.8547	0.2792	0.6817	0.133
Mof_N 	N 	0.8093	0.2228	0.6733	-0.281
Mof_C 	C 	0.8992	0.0991	0.8209	-0.202
Mof_C 	C 	0.915	0.0898	0.7817	0.122
Mof_H 	H 	0.9366	0.064	0.7756	-0.002
Mof_C 	C 	0.8111	0.1862	0.6964	0.36
Mof_C 	C 	0.8982	0.1197	0.7511	-0.265
Mof_H 	H 	0.9077	0.1129	0.7247	0.108
Mof_C 	C 	0.8519	0.1914	0.7271	-0.345
Mof_C 	C 	0.8676	0.1592	0.7597	0.228
Mof_C 	C 	0.8756	0.235	0.7219	0.375
Mof_C 	C 	0.8522	0.1681	0.7994	-0.273
Mof_H 	H 	0.832	0.1945	0.8058	0.125
Mof_C 	C 	0.8667	0.1381	0.829	0.128
Mof_H 	H 	0.8546	0.1438	0.8552	-0.02
Mof_C 	C 	0.9178	0.0685	0.855	0.381
Mof_C 	C 	0.7719	0.1465	0.6882	-0.907
Mof_H 	H 	0.7716	0.1405	0.6599	0.275
Mof_H 	H 	0.7872	0.1208	0.7022	0.285
Mof_H 	H 	0.732	0.1528	0.6971	0.287
Mof_C 	C 	0.9218	0.2601	0.7453	-0.929
Mof_H 	H 	0.9028	0.283	0.7609	0.303
Mof_H 	H 	0.9425	0.2397	0.7627	0.299
Mof_H 	H 	0.9498	0.2737	0.7271	0.291
Mof_Zn	Zn	-6.94932e-33	0.5	0.38346	1.2
Mof_Zn	Zn	-1.3246e-32	0	0.88346	1.194
Mof_Zn	Zn	0.5	0.5	0.88346	1.207
Mof_Zn	Zn	0.5	4.54829e-33	0.38346	1.201
Mof_Zn	Zn	0.25	0.75	0.63346	1.207
Mof_Zn	Zn	0.25	0.25	0.13346	1.207
Mof_Zn	Zn	0.75	0.75	0.13346	1.207
Mof_Zn	Zn	0.75	0.25	0.63346	1.207
Mof_O 	O 	0.2939	0.7088	0.2853	-0.495
Mof_O 	O 	0.3852	0.7385	0.2903	-0.335
Mof_N 	N 	0.3862	0.54	0.4779	-0.245
Mof_H 	H 	0.3701	0.5253	0.4973	0.144
Mof_N 	N 	0.4449	0.5369	0.4679	-0.292
Mof_C 	C 	0.3604	0.6771	0.3319	-0.216
Mof_C 	C 	0.3243	0.64	0.338	0.144
Mof_H 	H 	0.2916	0.6352	0.3214	-0.019
Mof_C 	C 	0.4523	0.5648	0.4371	0.348
Mof_C 	C 	0.3364	0.6099	0.3686	-0.279
Mof_H 	H 	0.3114	0.5853	0.3725	0.111
Mof_C 	C 	0.3981	0.585	0.4265	-0.34
Mof_C 	C 	0.3857	0.6163	0.3936	0.257
Mof_C 	C 	0.3562	0.5685	0.4544	0.373
Mof_C 	C 	0.4224	0.6527	0.3862	-0.286
Mof_H 	H 	0.4558	0.6572	0.4023	0.117
Mof_C 	C 	0.4109	0.6824	0.3557	0.16
Mof_H 	H 	0.437	0.7061	0.3509	-0.029
Mof_C 	C 	0.3463	0.7111	0.3003	0.391
Mof_C 	C 	0.5123	0.5703	0.4176	-0.877
Mof_H 	H 	0.5173	0.6009	0.4093	0.29
Mof_H 	H 	0.5149	0.5508	0.3948	0.271
Mof_H 	H 	0.5432	0.5626	0.4365	0.252
Mof_C 	C 	0.2919	0.5793	0.4604	-0.898
Mof_H 	H 	0.268	0.5607	0.4432	0.277
Mof_H 	H 	0.285	0.6103	0.4541	0.287
Mof_H 	H 	0.2811	0.5737	0.4878	0.284
Mof_O 	O 	0.2939	0.2088	0.7853	-0.495
Mof_O 	O 	0.3852	0.2385	0.7903	-0.335
Mof_N 	N 	0.3862	0.04	0.9779	-0.246
Mof_H 	H 	0.3701	0.0253	0.9973	0.144
Mof_N 	N 	0.4449	0.0369	0.9679	-0.292
Mof_C 	C 	0.3604	0.1771	0.8319	-0.216
Mof_C 	C 	0.3243	0.14	0.838	0.143
Mof_H 	H 	0.2916	0.1352	0.8214	-0.02
Mof_C 	C 	0.4523	0.0648	0.9371	0.345
Mof_C 	C 	0.3364	0.1099	0.8686	-0.279
Mof_H 	H 	0.3114	0.0853	0.8725	0.109
Mof_C 	C 	0.3981	0.085	0.9265	-0.341
Mof_C 	C 	0.3857	0.1163	0.8936	0.257
Mof_C 	C 	0.3562	0.0685	0.9544	0.376
Mof_C 	C 	0.4224	0.1527	0.8862	-0.286
Mof_H 	H 	0.4558	0.1572	0.9023	0.118
Mof_C 	C 	0.4109	0.1824	0.8557	0.16
Mof_H 	H 	0.437	0.2061	0.8509	-0.029
Mof_C 	C 	0.3463	0.2111	0.8003	0.391
Mof_C 	C 	0.5123	0.0703	0.9176	-0.87
Mof_H 	H 	0.5173	0.1009	0.9093	0.288
Mof_H 	H 	0.5149	0.0508	0.8948	0.264
Mof_H 	H 	0.5432	0.0626	0.9365	0.249
Mof_C 	C 	0.2919	0.0793	0.9604	-0.908
Mof_H 	H 	0.268	0.0607	0.9432	0.279
Mof_H 	H 	0.285	0.1103	0.9541	0.291
Mof_H 	H 	0.2811	0.0737	0.9878	0.292
Mof_O 	O 	0.7939	0.7088	0.7853	-0.495
Mof_O 	O 	0.8852	0.7385	0.7903	-0.333
Mof_N 	N 	0.8862	0.54	0.9779	-0.248
Mof_H 	H 	0.8701	0.5253	0.9973	0.152
Mof_N 	N 	0.9449	0.5369	0.9679	-0.289
Mof_C 	C 	0.8604	0.6771	0.8319	-0.22
Mof_C 	C 	0.8243	0.64	0.838	0.15
Mof_H 	H 	0.7916	0.6352	0.8214	-0.021
Mof_C 	C 	0.9523	0.5648	0.9371	0.384
Mof_C 	C 	0.8364	0.6099	0.8686	-0.287
Mof_H 	H 	0.8114	0.5853	0.8725	0.114
Mof_C 	C 	0.8981	0.585	0.9265	-0.356
Mof_C 	C 	0.8857	0.6163	0.8936	0.271
Mof_C 	C 	0.8562	0.5685	0.9544	0.386
Mof_C 	C 	0.9224	0.6527	0.8862	-0.293
Mof_H 	H 	0.9558	0.6572	0.9023	0.126
Mof_C 	C 	0.9109	0.6824	0.8557	0.169
Mof_H 	H 	0.937	0.7061	0.8509	-0.028
Mof_C 	C 	0.8463	0.7111	0.8003	0.393
Mof_C 	C 	0.0123	0.5703	0.9176	-0.938
Mof_H 	H 	0.0173	0.6009	0.9093	0.303
Mof_H 	H 	0.0149	0.5508	0.8948	0.283
Mof_H 	H 	0.0432	0.5626	0.9365	0.268
Mof_C 	C 	0.7919	0.5793	0.9604	-0.92
Mof_H 	H 	0.768	0.5607	0.9432	0.285
Mof_H 	H 	0.785	0.6103	0.9541	0.295
Mof_H 	H 	0.7811	0.5737	0.9878	0.295
Mof_O 	O 	0.7939	0.2088	0.2853	-0.495
Mof_O 	O 	0.8852	0.2385	0.2903	-0.333
Mof_N 	N 	0.8862	0.04	0.4779	-0.245
Mof_H 	H 	0.8701	0.0253	0.4973	0.139
Mof_N 	N 	0.9449	0.0369	0.4679	-0.295
Mof_C 	C 	0.8604	0.1771	0.3319	-0.218
Mof_C 	C 	0.8243	0.14	0.338	0.147
Mof_H 	H 	0.7916	0.1352	0.3214	-0.021
Mof_C 	C 	0.9523	0.0648	0.4371	0.374
Mof_C 	C 	0.8364	0.1099	0.3686	-0.283
Mof_H 	H 	0.8114	0.0853	0.3725	0.111
Mof_C 	C 	0.8981	0.085	0.4265	-0.349
Mof_C 	C 	0.8857	0.1163	0.3936	0.265
Mof_C 	C 	0.8562	0.0685	0.4544	0.373
Mof_C 	C 	0.9224	0.1527	0.3862	-0.289
Mof_H 	H 	0.9558	0.1572	0.4023	0.125
Mof_C 	C 	0.9109	0.1824	0.3557	0.165
Mof_H 	H 	0.937	0.2061	0.3509	-0.027
Mof_C 	C 	0.8463	0.2111	0.3003	0.392
Mof_C 	C 	0.0123	0.0703	0.4176	-0.92
Mof_H 	H 	0.0173	0.1009	0.4093	0.296
Mof_H 	H 	0.0149	0.0508	0.3948	0.273
Mof_H 	H 	0.0432	0.0626	0.4365	0.258
Mof_C 	C 	0.7919	0.0793	0.4604	-0.897
Mof_H 	H 	0.768	0.0607	0.4432	0.275
Mof_H 	H 	0.785	0.1103	0.4541	0.286
Mof_H 	H 	0.7811	0.0737	0.4878	0.283
Mof_O 	O 	0.7061	0.2912	0.2853	-0.495
Mof_O 	O 	0.6148	0.2615	0.2903	-0.335
Mof_N 	N 	0.6138	0.46	0.4779	-0.245
Mof_H 	H 	0.6299	0.4747	0.4973	0.144
Mof_N 	N 	0.5551	0.4631	0.4679	-0.292
Mof_C 	C 	0.6396	0.3229	0.3319	-0.216
Mof_C 	C 	0.6757	0.36	0.338	0.143
Mof_H 	H 	0.7084	0.3648	0.3214	-0.019
Mof_C 	C 	0.5477	0.4352	0.4371	0.348
Mof_C 	C 	0.6636	0.3901	0.3686	-0.279
Mof_H 	H 	0.6886	0.4147	0.3725	0.111
Mof_C 	C 	0.6019	0.415	0.4265	-0.34
Mof_C 	C 	0.6143	0.3837	0.3936	0.257
Mof_C 	C 	0.6438	0.4315	0.4544	0.372
Mof_C 	C 	0.5776	0.3473	0.3862	-0.286
Mof_H 	H 	0.5442	0.3428	0.4023	0.117
Mof_C 	C 	0.5891	0.3176	0.3557	0.16
Mof_H 	H 	0.563	0.2939	0.3509	-0.029
Mof_C 	C 	0.6537	0.2889	0.3003	0.391
Mof_C 	C 	0.4877	0.4297	0.4176	-0.877
Mof_H 	H 	0.4827	0.3991	0.4093	0.29
Mof_H 	H 	0.4851	0.4492	0.3948	0.271
Mof_H 	H 	0.4568	0.4374	0.4365	0.252
Mof_C 	C 	0.7081	0.4207	0.4604	-0.897
Mof_H 	H 	0.732	0.4393	0.4432	0.277
Mof_H 	H 	0.715	0.3897	0.4541	0.286
Mof_H 	H 	0.7189	0.4263	0.4878	0.283
Mof_O 	O 	0.7061	0.7912	0.7853	-0.495
Mof_O 	O 	0.6148	0.7615	0.7903	-0.336
Mof_N 	N 	0.6138	0.96	0.9779	-0.248
Mof_H 	H 	0.6299	0.9747	0.9973	0.158
Mof_N 	N 	0.5551	0.9631	0.9679	-0.284
Mof_C 	C 	0.6396	0.8229	0.8319	-0.219
Mof_C 	C 	0.6757	0.86	0.838	0.147
Mof_H 	H 	0.7084	0.8648	0.8214	-0.02
Mof_C 	C 	0.5477	0.9352	0.9371	0.359
Mof_C 	C 	0.6636	0.8901	0.8686	-0.283
Mof_H 	H 	0.6886	0.9147	0.8725	0.115
Mof_C 	C 	0.6019	0.915	0.9265	-0.347
Mof_C 	C 	0.6143	0.8837	0.8936	0.263
Mof_C 	C 	0.6438	0.9315	0.9544	0.386
Mof_C 	C 	0.5776	0.8473	0.8862	-0.29
Mof_H 	H 	0.5442	0.8428	0.9023	0.119
Mof_C 	C 	0.5891	0.8176	0.8557	0.163
Mof_H 	H 	0.563	0.7939	0.8509	-0.03
Mof_C 	C 	0.6537	0.7889	0.8003	0.392
Mof_C 	C 	0.4877	0.9297	0.9176	-0.896
Mof_H 	H 	0.4827	0.8991	0.9093	0.297
Mof_H 	H 	0.4851	0.9492	0.8948	0.281
Mof_H 	H 	0.4568	0.9374	0.9365	0.264
Mof_C 	C 	0.7081	0.9207	0.9604	-0.92
Mof_H 	H 	0.732	0.9393	0.9432	0.287
Mof_H 	H 	0.715	0.8897	0.9541	0.295
Mof_H 	H 	0.7189	0.9263	0.9878	0.296
Mof_O 	O 	0.2061	0.2912	0.7853	-0.495
Mof_O 	O 	0.1148	0.2615	0.7903	-0.337
Mof_N 	N 	0.1138	0.46	0.9779	-0.246
Mof_H 	H 	0.1299	0.4747	0.9973	0.15
Mof_N 	N 	0.0551	0.4631	0.9679	-0.287
Mof_C 	C 	0.1396	0.3229	0.8319	-0.215
Mof_C 	C 	0.1757	0.36	0.838	0.139
Mof_H 	H 	0.2084	0.3648	0.8214	-0.019
Mof_C 	C 	0.0477	0.4352	0.9371	0.32
Mof_C 	C 	0.1636	0.3901	0.8686	-0.275
Mof_H 	H 	0.1886	0.4147	0.8725	0.109
Mof_C 	C 	0.1019	0.415	0.9265	-0.331
Mof_C 	C 	0.1143	0.3837	0.8936	0.249
Mof_C 	C 	0.1438	0.4315	0.9544	0.376
Mof_C 	C 	0.0776	0.3473	0.8862	-0.282
Mof_H 	H 	0.0442	0.3428	0.9023	0.11
Mof_C 	C 	0.0891	0.3176	0.8557	0.154
Mof_H 	H 	0.063	0.2939	0.8509	-0.031
Mof_C 	C 	0.1537	0.2889	0.8003	0.39
Mof_C 	C 	0.9877	0.4297	0.9176	-0.827
Mof_H 	H 	0.9827	0.3991	0.9093	0.283
Mof_H 	H 	0.9851	0.4492	0.8948	0.263
Mof_H 	H 	0.9568	0.4374	0.9365	0.244
Mof_C 	C 	0.2081	0.4207	0.9604	-0.908
Mof_H 	H 	0.232	0.4393	0.9432	0.281
Mof_H 	H 	0.215	0.3897	0.9541	0.291
Mof_H 	H 	0.2189	0.4263	0.9878	0.292
Mof_O 	O 	0.2061	0.7912	0.2853	-0.495
Mof_O 	O 	0.1148	0.7615	0.2903	-0.337
Mof_N 	N 	0.1138	0.96	0.4779	-0.246
Mof_H 	H 	0.1299	0.9747	0.4973	0.151
Mof_N 	N 	0.0551	0.9631	0.4679	-0.286
Mof_C 	C 	0.1396	0.8229	0.3319	-0.215
Mof_C 	C 	0.1757	0.86	0.338	0.14
Mof_H 	H 	0.2084	0.8648	0.3214	-0.018
Mof_C 	C 	0.0477	0.9352	0.4371	0.324
Mof_C 	C 	0.1636	0.8901	0.3686	-0.275
Mof_H 	H 	0.1886	0.9147	0.3725	0.111
Mof_C 	C 	0.1019	0.915	0.4265	-0.331
Mof_C 	C 	0.1143	0.8837	0.3936	0.25
Mof_C 	C 	0.1438	0.9315	0.4544	0.373
Mof_C 	C 	0.0776	0.8473	0.3862	-0.282
Mof_H 	H 	0.0442	0.8428	0.4023	0.11
Mof_C 	C 	0.0891	0.8176	0.3557	0.155
Mof_H 	H 	0.063	0.7939	0.3509	-0.031
Mof_C 	C 	0.1537	0.7889	0.3003	0.39
Mof_C 	C 	0.9877	0.9297	0.4176	-0.836
Mof_H 	H 	0.9827	0.8991	0.4093	0.285
Mof_H 	H 	0.9851	0.9492	0.3948	0.27
Mof_H 	H 	0.9568	0.9374	0.4365	0.248
Mof_C 	C 	0.2081	0.9207	0.4604	-0.899
Mof_H 	H 	0.232	0.9393	0.4432	0.279
Mof_H 	H 	0.215	0.8897	0.4541	0.287
Mof_H 	H 	0.2189	0.9263	0.4878	0.284
Mof_O 	O 	0.5439	0.5412	0.5353	-0.495
Mof_O 	O 	0.6352	0.5115	0.5403	-0.335
Mof_N 	N 	0.6362	0.71	0.7279	-0.245
Mof_H 	H 	0.6201	0.7247	0.7473	0.144
Mof_N 	N 	0.6949	0.7131	0.7179	-0.292
Mof_C 	C 	0.6104	0.5729	0.5819	-0.217
Mof_C 	C 	0.5743	0.61	0.588	0.143
Mof_H 	H 	0.5416	0.6148	0.5714	-0.02
Mof_C 	C 	0.7023	0.6852	0.6871	0.349
Mof_C 	C 	0.5864	0.6401	0.6186	-0.279
Mof_H 	H 	0.5614	0.6647	0.6225	0.111
Mof_C 	C 	0.6481	0.665	0.6765	-0.34
Mof_C 	C 	0.6357	0.6337	0.6436	0.257
Mof_C 	C 	0.6062	0.6815	0.7044	0.372
Mof_C 	C 	0.6724	0.5973	0.6362	-0.286
Mof_H 	H 	0.7058	0.5928	0.6523	0.117
Mof_C 	C 	0.6609	0.5676	0.6057	0.16
Mof_H 	H 	0.687	0.5439	0.6009	-0.029
Mof_C 	C 	0.5963	0.5389	0.5503	0.391
Mof_C 	C 	0.7623	0.6797	0.6676	-0.88
Mof_H 	H 	0.7673	0.6491	0.6593	0.292
Mof_H 	H 	0.7649	0.6992	0.6448	0.272
Mof_H 	H 	0.7932	0.6874	0.6865	0.254
Mof_C 	C 	0.5419	0.6707	0.7104	-0.898
Mof_H 	H 	0.518	0.6893	0.6932	0.277
Mof_H 	H 	0.535	0.6397	0.7041	0.286
Mof_H 	H 	0.5311	0.6763	0.7378	0.284
Mof_O 	O 	0.5439	0.0412	0.0353	-0.504
Mof_O 	O 	0.6352	0.0115	0.0403	-0.354
Mof_N 	N 	0.6362	0.21	0.2279	-0.245
Mof_H 	H 	0.6201	0.2247	0.2473	0.144
Mof_N 	N 	0.6949	0.2131	0.2179	-0.292
Mof_C 	C 	0.6104	0.0729	0.0819	-0.224
Mof_C 	C 	0.5743	0.11	0.088	0.147
Mof_H 	H 	0.5416	0.1148	0.0714	-0.022
Mof_C 	C 	0.7023	0.1852	0.1871	0.349
Mof_C 	C 	0.5864	0.1401	0.1186	-0.283
Mof_H 	H 	0.5614	0.1647	0.1225	0.112
Mof_C 	C 	0.6481	0.165	0.1765	-0.341
Mof_C 	C 	0.6357	0.1337	0.1436	0.26
Mof_C 	C 	0.6062	0.1815	0.2044	0.373
Mof_C 	C 	0.6724	0.0973	0.1362	-0.291
Mof_H 	H 	0.7058	0.0928	0.1523	0.118
Mof_C 	C 	0.6609	0.0676	0.1057	0.164
Mof_H 	H 	0.687	0.0439	0.1009	-0.035
Mof_C 	C 	0.5963	0.0389	0.0503	0.394
Mof_C 	C 	0.7623	0.1797	0.1676	-0.879
Mof_H 	H 	0.7673	0.1491	0.1593	0.291
Mof_H 	H 	0.7649	0.1992	0.1448	0.271
Mof_H 	H 	0.7932	0.1874	0.1865	0.254
Mof_C 	C 	0.5419	0.1707	0.2104	-0.898
Mof_H 	H 	0.518	0.1893	0.1932	0.277
Mof_H 	H 	0.535	0.1397	0.2041	0.286
Mof_H 	H 	0.5311	0.1763	0.2378	0.284
Mof_O 	O 	0.0439	0.5412	0.0353	-0.508
Mof_O 	O 	0.1352	0.5115	0.0403	-0.341
Mof_N 	N 	0.1362	0.71	0.2279	-0.243
Mof_H 	H 	0.1201	0.7247	0.2473	0.143
Mof_N 	N 	0.1949	0.7131	0.2179	-0.292
Mof_C 	C 	0.1104	0.5729	0.0819	-0.222
Mof_C 	C 	0.0743	0.61	0.088	0.143
Mof_H 	H 	0.0416	0.6148	0.0714	-0.027
Mof_C 	C 	0.2023	0.6852	0.1871	0.346
Mof_C 	C 	0.0864	0.6401	0.1186	-0.282
Mof_H 	H 	0.0614	0.6647	0.1225	0.108
Mof_C 	C 	0.1481	0.665	0.1765	-0.337
Mof_C 	C 	0.1357	0.6337	0.1436	0.256
Mof_C 	C 	0.1062	0.6815	0.2044	0.363
Mof_C 	C 	0.1724	0.5973	0.1362	-0.287
Mof_H 	H 	0.2058	0.5928	0.1523	0.117
Mof_C 	C 	0.1609	0.5676	0.1057	0.161
Mof_H 	H 	0.187	0.5439	0.1009	-0.03
Mof_C 	C 	0.0963	0.5389	0.0503	0.393
Mof_C 	C 	0.2623	0.6797	0.1676	-0.874
Mof_H 	H 	0.2673	0.6491	0.1593	0.289
Mof_H 	H 	0.2649	0.6992	0.1448	0.269
Mof_H 	H 	0.2932	0.6874	0.1865	0.251
Mof_C 	C 	0.0419	0.6707	0.2104	-0.873
Mof_H 	H 	0.018	0.6893	0.1932	0.263
Mof_H 	H 	0.035	0.6397	0.2041	0.274
Mof_H 	H 	0.0311	0.6763	0.2378	0.273
Mof_O 	O 	0.0439	0.0412	0.5353	-0.509
Mof_O 	O 	0.1352	0.0115	0.5403	-0.35
Mof_N 	N 	0.1362	0.21	0.7279	-0.243
Mof_H 	H 	0.1201	0.2247	0.7473	0.143
Mof_N 	N 	0.1949	0.2131	0.7179	-0.292
Mof_C 	C 	0.1104	0.0729	0.5819	-0.226
Mof_C 	C 	0.0743	0.11	0.588	0.146
Mof_H 	H 	0.0416	0.1148	0.5714	-0.027
Mof_C 	C 	0.2023	0.1852	0.6871	0.346
Mof_C 	C 	0.0864	0.1401	0.6186	-0.284
Mof_H 	H 	0.0614	0.1647	0.6225	0.109
Mof_C 	C 	0.1481	0.165	0.6765	-0.338
Mof_C 	C 	0.1357	0.1337	0.6436	0.258
Mof_C 	C 	0.1062	0.1815	0.7044	0.364
Mof_C 	C 	0.1724	0.0973	0.6362	-0.291
Mof_H 	H 	0.2058	0.0928	0.6523	0.118
Mof_C 	C 	0.1609	0.0676	0.6057	0.164
Mof_H 	H 	0.187	0.0439	0.6009	-0.036
Mof_C 	C 	0.0963	0.0389	0.5503	0.394
Mof_C 	C 	0.2623	0.1797	0.6676	-0.875
Mof_H 	H 	0.2673	0.1491	0.6593	0.289
Mof_H 	H 	0.2649	0.1992	0.6448	0.27
Mof_H 	H 	0.2932	0.1874	0.6865	0.252
Mof_C 	C 	0.0419	0.1707	0.7104	-0.873
Mof_H 	H 	0.018	0.1893	0.6932	0.263
Mof_H 	H 	0.035	0.1397	0.7041	0.273
Mof_H 	H 	0.0311	0.1763	0.7378	0.273
Mof_O 	O 	0.9561	0.9588	0.5353	-0.475
Mof_O 	O 	0.8648	0.9885	0.5403	-0.32
Mof_N 	N 	0.8638	0.79	0.7279	-0.247
Mof_H 	H 	0.8799	0.7753	0.7473	0.146
Mof_N 	N 	0.8051	0.7869	0.7179	-0.292
Mof_C 	C 	0.8896	0.9271	0.5819	-0.206
Mof_C 	C 	0.9257	0.89	0.588	0.14
Mof_H 	H 	0.9584	0.8852	0.5714	-0.011
Mof_C 	C 	0.7977	0.8148	0.6871	0.349
Mof_C 	C 	0.9136	0.8599	0.6186	-0.273
Mof_H 	H 	0.9386	0.8353	0.6225	0.113
Mof_C 	C 	0.8519	0.835	0.6765	-0.342
Mof_C 	C 	0.8643	0.8663	0.6436	0.256
Mof_C 	C 	0.8938	0.8185	0.7044	0.381
Mof_C 	C 	0.8276	0.9027	0.6362	-0.28
Mof_H 	H 	0.7942	0.9072	0.6523	0.116
Mof_C 	C 	0.8391	0.9324	0.6057	0.155
Mof_H 	H 	0.813	0.9561	0.6009	-0.022
Mof_C 	C 	0.9037	0.9611	0.5503	0.387
Mof_C 	C 	0.7377	0.8203	0.6676	-0.878
Mof_H 	H 	0.7327	0.8509	0.6593	0.291
Mof_H 	H 	0.7351	0.8008	0.6448	0.271
Mof_H 	H 	0.7068	0.8126	0.6865	0.253
Mof_C 	C 	0.9581	0.8293	0.7104	-0.922
Mof_H 	H 	0.982	0.8107	0.6932	0.29
Mof_H 	H 	0.965	0.8603	0.7041	0.299
Mof_H 	H 	0.9689	0.8237	0.7378	0.295
Mof_O 	O 	0.9561	0.4588	0.0353	-0.487
Mof_O 	O 	0.8648	0.4885	0.0403	-0.338
Mof_N 	N 	0.8638	0.29	0.2279	-0.247
Mof_H 	H 	0.8799	0.2753	0.2473	0.146
Mof_N 	N 	0.8051	0.2869	0.2179	-0.292
Mof_C 	C 	0.8896	0.4271	0.0819	-0.214
Mof_C 	C 	0.9257	0.39	0.088	0.144
Mof_H 	H 	0.9584	0.3852	0.0714	-0.013
Mof_C 	C 	0.7977	0.3148	0.1871	0.349
Mof_C 	C 	0.9136	0.3599	0.1186	-0.277
Mof_H 	H 	0.9386	0.3353	0.1225	0.114
Mof_C 	C 	0.8519	0.335	0.1765	-0.343
Mof_C 	C 	0.8643	0.3663	0.1436	0.259
Mof_C 	C 	0.8938	0.3185	0.2044	0.382
Mof_C 	C 	0.8276	0.4027	0.1362	-0.285
Mof_H 	H 	0.7942	0.4072	0.1523	0.117
Mof_C 	C 	0.8391	0.4324	0.1057	0.159
Mof_H 	H 	0.813	0.4561	0.1009	-0.029
Mof_C 	C 	0.9037	0.4611	0.0503	0.39
Mof_C 	C 	0.7377	0.3203	0.1676	-0.877
Mof_H 	H 	0.7327	0.3509	0.1593	0.29
Mof_H 	H 	0.7351	0.3008	0.1448	0.271
Mof_H 	H 	0.7068	0.3126	0.1865	0.252
Mof_C 	C 	0.9581	0.3293	0.2104	-0.923
Mof_H 	H 	0.982	0.3107	0.1932	0.291
Mof_H 	H 	0.965	0.3603	0.2041	0.3
Mof_H 	H 	0.9689	0.3237	0.2378	0.295
Mof_O 	O 	0.4561	0.9588	0.0353	-0.49
Mof_O 	O 	0.3648	0.9885	0.0403	-0.326
Mof_N 	N 	0.3638	0.79	0.2279	-0.245
Mof_H 	H 	0.3799	0.7753	0.2473	0.144
Mof_N 	N 	0.3051	0.7869	0.2179	-0.292
Mof_C 	C 	0.3896	0.9271	0.0819	-0.212
Mof_C 	C 	0.4257	0.89	0.088	0.14
Mof_H 	H 	0.4584	0.8852	0.0714	-0.019
Mof_C 	C 	0.2977	0.8148	0.1871	0.346
Mof_C 	C 	0.4136	0.8599	0.1186	-0.276
Mof_H 	H 	0.4386	0.8353	0.1225	0.11
Mof_C 	C 	0.3519	0.835	0.1765	-0.338
Mof_C 	C 	0.3643	0.8663	0.1436	0.255
Mof_C 	C 	0.3938	0.8185	0.2044	0.372
Mof_C 	C 	0.3276	0.9027	0.1362	-0.281
Mof_H 	H 	0.2942	0.9072	0.1523	0.117
Mof_C 	C 	0.3391	0.9324	0.1057	0.157
Mof_H 	H 	0.313	0.9561	0.1009	-0.023
Mof_C 	C 	0.4037	0.9611	0.0503	0.389
Mof_C 	C 	0.2377	0.8203	0.1676	-0.873
Mof_H 	H 	0.2327	0.8509	0.1593	0.288
Mof_H 	H 	0.2351	0.8008	0.1448	0.269
Mof_H 	H 	0.2068	0.8126	0.1865	0.25
Mof_C 	C 	0.4581	0.8293	0.2104	-0.897
Mof_H 	H 	0.482	0.8107	0.1932	0.277
Mof_H 	H 	0.465	0.8603	0.2041	0.286
Mof_H 	H 	0.4689	0.8237	0.2378	0.283
Mof_O 	O 	0.4561	0.4588	0.5353	-0.495
Mof_O 	O 	0.3648	0.4885	0.5403	-0.335
Mof_N 	N 	0.3638	0.29	0.7279	-0.245
Mof_H 	H 	0.3799	0.2753	0.7473	0.144
Mof_N 	N 	0.3051	0.2869	0.7179	-0.292
Mof_C 	C 	0.3896	0.4271	0.5819	-0.216
Mof_C 	C 	0.4257	0.39	0.588	0.143
Mof_H 	H 	0.4584	0.3852	0.5714	-0.019
Mof_C 	C 	0.2977	0.3148	0.6871	0.347
Mof_C 	C 	0.4136	0.3599	0.6186	-0.279
Mof_H 	H 	0.4386	0.3353	0.6225	0.111
Mof_C 	C 	0.3519	0.335	0.6765	-0.339
Mof_C 	C 	0.3643	0.3663	0.6436	0.257
Mof_C 	C 	0.3938	0.3185	0.7044	0.372
Mof_C 	C 	0.3276	0.4027	0.6362	-0.285
Mof_H 	H 	0.2942	0.4072	0.6523	0.117
Mof_C 	C 	0.3391	0.4324	0.6057	0.16
Mof_H 	H 	0.313	0.4561	0.6009	-0.029
Mof_C 	C 	0.4037	0.4611	0.5503	0.391
Mof_C 	C 	0.2377	0.3203	0.6676	-0.874
Mof_H 	H 	0.2327	0.3509	0.6593	0.289
Mof_H 	H 	0.2351	0.3008	0.6448	0.27
Mof_H 	H 	0.2068	0.3126	0.6865	0.25
Mof_C 	C 	0.4581	0.3293	0.7104	-0.897
Mof_H 	H 	0.482	0.3107	0.6932	0.277
Mof_H 	H 	0.465	0.3603	0.7041	0.286
Mof_H 	H 	0.4689	0.3237	0.7378	0.283
Mof_Zn	Zn	0.5	0.5	0.5005	1.207
Mof_Zn	Zn	0.5	0	0.0005	1.197
Mof_Zn	Zn	-3.17745e-33	0.5	0.0005	1.197
Mof_Zn	Zn	2.80266e-33	0	0.5005	1.194
Mof_Zn	Zn	0.75	0.75	0.7505	1.207
Mof_Zn	Zn	0.75	0.25	0.2505	1.207
Mof_Zn	Zn	0.25	0.75	0.2505	1.207
Mof_Zn	Zn	0.25	0.25	0.7505	1.207
Mof_Zn	Zn	0.75206	0.50489	0.68707	1.207
Mof_O 	O 	0.9496	0.29	0.90002	-0.478
Mof_O 	O 	0.6244	0.2651	0.4815	-0.329
Mof_O 	O 	0.8674	0.2488	0.8861	-0.319
Mof_O 	O 	0.5349	0.2982	0.47273	-0.487
Mof_N 	N 	0.8546	0.4467	0.6987	-0.247
Mof_H 	H 	0.8679	0.4567	0.6762	0.141
Mof_N 	N 	0.6351	0.4676	0.6657	-0.249
Mof_H 	H 	0.6203	0.4809	0.6863	0.143
Mof_N 	N 	0.8043	0.4617	0.7167	-0.291
Mof_N 	N 	0.6938	0.4708	0.6539	-0.296
Mof_C 	C 	0.8861	0.3148	0.8487	-0.199
Mof_C 	C 	0.6018	0.3308	0.5188	-0.186
Mof_C 	C 	0.9289	0.3459	0.8353	0.125
Mof_H 	H 	0.9668	0.3461	0.8468	-0.011
Mof_C 	C 	0.5654	0.3672	0.5263	0.139
Mof_H 	H 	0.5308	0.3706	0.5111	-0.011
Mof_C 	C 	0.7983	0.4373	0.7503	0.36
Mof_C 	C 	0.6988	0.4454	0.6214	0.37
Mof_C 	C 	0.9155	0.3761	0.8054	-0.268
Mof_H 	H 	0.9439	0.3971	0.7976	0.114
Mof_C 	C 	0.5782	0.3986	0.5552	-0.254
Mof_H 	H 	0.5526	0.4228	0.5591	0.114
Mof_C 	C 	0.8455	0.4075	0.7532	-0.353
Mof_C 	C 	0.6423	0.4253	0.6111	-0.348
Mof_C 	C 	0.8597	0.3755	0.7866	0.229
Mof_C 	C 	0.6304	0.3941	0.5793	0.242
Mof_C 	C 	0.8812	0.4144	0.7199	0.374
Mof_C 	C 	0.6035	0.4409	0.641	0.381
Mof_C 	C 	0.8173	0.3444	0.7996	-0.265
Mof_H 	H 	0.7798	0.3436	0.7875	0.112
Mof_C 	C 	0.6677	0.3579	0.5714	-0.26
Mof_H 	H 	0.7027	0.3548	0.5862	0.103
Mof_C 	C 	0.8305	0.3147	0.8303	0.127
Mof_H 	H 	0.8015	0.2944	0.8388	-0.01
Mof_C 	C 	0.6547	0.326	0.5422	0.115
Mof_H 	H 	0.6803	0.3018	0.538	-0.002
Mof_C 	C 	0.9011	0.2821	0.8806	0.362
Mof_C 	C 	0.5865	0.2956	0.4888	0.36
Mof_C 	C 	0.7466	0.444	0.7781	-0.929
Mof_H 	H 	0.7612	0.4527	0.804	0.3
Mof_H 	H 	0.7245	0.4165	0.7804	0.301
Mof_H 	H 	0.721	0.4672	0.7678	0.281
Mof_C 	C 	0.7557	0.4433	0.5992	-0.955
Mof_H 	H 	0.7827	0.4233	0.6126	0.297
Mof_H 	H 	0.7731	0.4728	0.5979	0.298
Mof_H 	H 	0.7483	0.4326	0.5725	0.306
Mof_C 	C 	0.9371	0.3913	0.7049	-0.918
Mof_H 	H 	0.9684	0.4131	0.7014	0.299
Mof_H 	H 	0.9289	0.3771	0.6797	0.307
Mof_H 	H 	0.9496	0.3691	0.724	0.292
Mof_C 	C 	0.539	0.4321	0.6479	-0.931
Mof_H 	H 	0.5159	0.4457	0.6269	0.302
Mof_H 	H 	0.5273	0.4447	0.6732	0.295
Mof_H 	H 	0.532	0.4003	0.6481	0.294
Mof_Zn	Zn	0.75206	0.00489	0.18707	1.201
Mof_O 	O 	0.9496	0.79	0.40002	-0.479
Mof_O 	O 	0.6244	0.7651	0.9815	-0.328
Mof_O 	O 	0.8674	0.7488	0.3861	-0.32
Mof_O 	O 	0.5349	0.7982	0.97273	-0.486
Mof_N 	N 	0.8546	0.9467	0.1987	-0.247
Mof_H 	H 	0.8679	0.9567	0.1762	0.143
Mof_N 	N 	0.6351	0.9676	0.1657	-0.251
Mof_H 	H 	0.6203	0.9809	0.1863	0.151
Mof_N 	N 	0.8043	0.9617	0.2167	-0.287
Mof_N 	N 	0.6938	0.9708	0.1539	-0.291
Mof_C 	C 	0.8861	0.8148	0.3487	-0.2
Mof_C 	C 	0.6018	0.8308	0.0188	-0.21
Mof_C 	C 	0.9289	0.8459	0.3353	0.128
Mof_H 	H 	0.9668	0.8461	0.3468	-0.011
Mof_C 	C 	0.5654	0.8672	0.0263	0.154
Mof_H 	H 	0.5308	0.8706	0.0111	-0.02
Mof_C 	C 	0.7983	0.9373	0.2503	0.368
Mof_C 	C 	0.6988	0.9454	0.1214	0.378
Mof_C 	C 	0.9155	0.8761	0.3054	-0.27
Mof_H 	H 	0.9439	0.8971	0.2976	0.116
Mof_C 	C 	0.5782	0.8986	0.0552	-0.268
Mof_H 	H 	0.5526	0.9228	0.0591	0.12
Mof_C 	C 	0.8455	0.9075	0.2532	-0.357
Mof_C 	C 	0.6423	0.9253	0.1111	-0.354
Mof_C 	C 	0.8597	0.8755	0.2866	0.232
Mof_C 	C 	0.6304	0.8941	0.0793	0.253
Mof_C 	C 	0.8812	0.9144	0.2199	0.379
Mof_C 	C 	0.6035	0.9409	0.141	0.391
Mof_C 	C 	0.8173	0.8444	0.2996	-0.267
Mof_H 	H 	0.7798	0.8436	0.2875	0.113
Mof_C 	C 	0.6677	0.8579	0.0714	-0.273
Mof_H 	H 	0.7027	0.8548	0.0862	0.107
Mof_C 	C 	0.8305	0.8147	0.3303	0.129
Mof_H 	H 	0.8015	0.7944	0.3388	-0.011
Mof_C 	C 	0.6547	0.826	0.0422	0.128
Mof_H 	H 	0.6803	0.8018	0.038	-0.01
Mof_C 	C 	0.9011	0.7821	0.3806	0.363
Mof_C 	C 	0.5865	0.7956	0.9888	0.377
Mof_C 	C 	0.7466	0.944	0.2781	-0.946
Mof_H 	H 	0.7612	0.9527	0.304	0.308
Mof_H 	H 	0.7245	0.9165	0.2804	0.307
Mof_H 	H 	0.721	0.9672	0.2678	0.292
Mof_C 	C 	0.7557	0.9433	0.0992	-0.965
Mof_H 	H 	0.7827	0.9233	0.1126	0.3
Mof_H 	H 	0.7731	0.9728	0.0979	0.306
Mof_H 	H 	0.7483	0.9326	0.0725	0.309
Mof_C 	C 	0.9371	0.8913	0.2049	-0.925
Mof_H 	H 	0.9684	0.9131	0.2014	0.304
Mof_H 	H 	0.9289	0.8771	0.1797	0.31
Mof_H 	H 	0.9496	0.8691	0.224	0.294
Mof_C 	C 	0.539	0.9321	0.1479	-0.948
Mof_H 	H 	0.5159	0.9457	0.1269	0.31
Mof_H 	H 	0.5273	0.9447	0.1732	0.304
Mof_H 	H 	0.532	0.9003	0.1481	0.299
Mof_Zn	Zn	0.25206	0.50489	0.18707	1.207
Mof_O 	O 	0.4496	0.29	0.40002	-0.488
Mof_O 	O 	0.1244	0.2651	0.9815	-0.331
Mof_O 	O 	0.3674	0.2488	0.3861	-0.321
Mof_O 	O 	0.0349	0.2982	0.97273	-0.496
Mof_N 	N 	0.3546	0.4467	0.1987	-0.245
Mof_H 	H 	0.3679	0.4567	0.1762	0.14
Mof_N 	N 	0.1351	0.4676	0.1657	-0.247
Mof_H 	H 	0.1203	0.4809	0.1863	0.141
Mof_N 	N 	0.3043	0.4617	0.2167	-0.291
Mof_N 	N 	0.1938	0.4708	0.1539	-0.296
Mof_C 	C 	0.3861	0.3148	0.3487	-0.202
Mof_C 	C 	0.1018	0.3308	0.0188	-0.21
Mof_C 	C 	0.4289	0.3459	0.3353	0.126
Mof_H 	H 	0.4668	0.3461	0.3468	-0.017
Mof_C 	C 	0.0654	0.3672	0.0263	0.15
Mof_H 	H 	0.0308	0.3706	0.0111	-0.024
Mof_C 	C 	0.2983	0.4373	0.2503	0.358
Mof_C 	C 	0.1988	0.4454	0.1214	0.37
Mof_C 	C 	0.4155	0.3761	0.3054	-0.269
Mof_H 	H 	0.4439	0.3971	0.2976	0.11
Mof_C 	C 	0.0782	0.3986	0.0552	-0.266
Mof_H 	H 	0.0526	0.4228	0.0591	0.112
Mof_C 	C 	0.3455	0.4075	0.2532	-0.351
Mof_C 	C 	0.1423	0.4253	0.1111	-0.346
Mof_C 	C 	0.3597	0.3755	0.2866	0.228
Mof_C 	C 	0.1304	0.3941	0.0793	0.246
Mof_C 	C 	0.3812	0.4144	0.2199	0.367
Mof_C 	C 	0.1035	0.4409	0.141	0.37
Mof_C 	C 	0.3173	0.3444	0.2996	-0.265
Mof_H 	H 	0.2798	0.3436	0.2875	0.112
Mof_C 	C 	0.1677	0.3579	0.0714	-0.269
Mof_H 	H 	0.2027	0.3548	0.0862	0.106
Mof_C 	C 	0.3305	0.3147	0.3303	0.128
Mof_H 	H 	0.3015	0.2944	0.3388	-0.011
Mof_C 	C 	0.1547	0.326	0.0422	0.125
Mof_H 	H 	0.1803	0.3018	0.038	-0.009
Mof_C 	C 	0.4011	0.2821	0.3806	0.362
Mof_C 	C 	0.0865	0.2956	0.9888	0.377
Mof_C 	C 	0.2466	0.444	0.2781	-0.927
Mof_H 	H 	0.2612	0.4527	0.304	0.298
Mof_H 	H 	0.2245	0.4165	0.2804	0.301
Mof_H 	H 	0.221	0.4672	0.2678	0.28
Mof_C 	C 	0.2557	0.4433	0.0992	-0.955
Mof_H 	H 	0.2827	0.4233	0.1126	0.297
Mof_H 	H 	0.2731	0.4728	0.0979	0.298
Mof_H 	H 	0.2483	0.4326	0.0725	0.306
Mof_C 	C 	0.4371	0.3913	0.2049	-0.9
Mof_H 	H 	0.4684	0.4131	0.2014	0.289
Mof_H 	H 	0.4289	0.3771	0.1797	0.299
Mof_H 	H 	0.4496	0.3691	0.224	0.283
Mof_C 	C 	0.039	0.4321	0.1479	-0.9
Mof_H 	H 	0.0159	0.4457	0.1269	0.286
Mof_H 	H 	0.0273	0.4447	0.1732	0.28
Mof_H 	H 	0.032	0.4003	0.1481	0.278
Mof_Zn	Zn	0.25206	0.00489	0.68707	1.2
Mof_O 	O 	0.4496	0.79	0.90002	-0.487
Mof_O 	O 	0.1244	0.7651	0.4815	-0.332
Mof_O 	O 	0.3674	0.7488	0.8861	-0.321
Mof_O 	O 	0.0349	0.7982	0.47273	-0.497
Mof_N 	N 	0.3546	0.9467	0.6987	-0.245
Mof_H 	H 	0.3679	0.9567	0.6762	0.142
Mof_N 	N 	0.1351	0.9676	0.6657	-0.248
Mof_H 	H 	0.1203	0.9809	0.6863	0.149
Mof_N 	N 	0.3043	0.9617	0.7167	-0.287
Mof_N 	N 	0.1938	0.9708	0.6539	-0.29
Mof_C 	C 	0.3861	0.8148	0.8487	-0.203
Mof_C 	C 	0.1018	0.8308	0.5188	-0.19
Mof_C 	C 	0.4289	0.8459	0.8353	0.128
Mof_H 	H 	0.4668	0.8461	0.8468	-0.018
Mof_C 	C 	0.0654	0.8672	0.5263	0.139
Mof_H 	H 	0.0308	0.8706	0.5111	-0.016
Mof_C 	C 	0.2983	0.9373	0.7503	0.366
Mof_C 	C 	0.1988	0.9454	0.6214	0.375
Mof_C 	C 	0.4155	0.8761	0.8054	-0.271
Mof_H 	H 	0.4439	0.8971	0.7976	0.113
Mof_C 	C 	0.0782	0.8986	0.5552	-0.257
Mof_H 	H 	0.0526	0.9228	0.5591	0.113
Mof_C 	C 	0.3455	0.9075	0.7532	-0.355
Mof_C 	C 	0.1423	0.9253	0.6111	-0.346
Mof_C 	C 	0.3597	0.8755	0.7866	0.231
Mof_C 	C 	0.1304	0.8941	0.5793	0.243
Mof_C 	C 	0.3812	0.9144	0.7199	0.372
Mof_C 	C 	0.1035	0.9409	0.641	0.377
Mof_C 	C 	0.3173	0.8444	0.7996	-0.267
Mof_H 	H 	0.2798	0.8436	0.7875	0.113
Mof_C 	C 	0.1677	0.8579	0.5714	-0.262
Mof_H 	H 	0.2027	0.8548	0.5862	0.104
Mof_C 	C 	0.3305	0.8147	0.8303	0.13
Mof_H 	H 	0.3015	0.7944	0.8388	-0.011
Mof_C 	C 	0.1547	0.826	0.5422	0.116
Mof_H 	H 	0.1803	0.8018	0.538	-0.003
Mof_C 	C 	0.4011	0.7821	0.8806	0.362
Mof_C 	C 	0.0865	0.7956	0.4888	0.361
Mof_C 	C 	0.2466	0.944	0.7781	-0.945
Mof_H 	H 	0.2612	0.9527	0.804	0.308
Mof_H 	H 	0.2245	0.9165	0.7804	0.307
Mof_H 	H 	0.221	0.9672	0.7678	0.292
Mof_C 	C 	0.2557	0.9433	0.5992	-0.963
Mof_H 	H 	0.2827	0.9233	0.6126	0.3
Mof_H 	H 	0.2731	0.9728	0.5979	0.305
Mof_H 	H 	0.2483	0.9326	0.5725	0.309
Mof_C 	C 	0.4371	0.8913	0.7049	-0.907
Mof_H 	H 	0.4684	0.9131	0.7014	0.293
Mof_H 	H 	0.4289	0.8771	0.6797	0.302
Mof_H 	H 	0.4496	0.8691	0.724	0.286
Mof_C 	C 	0.039	0.9321	0.6479	-0.913
Mof_H 	H 	0.0159	0.9457	0.6269	0.293
Mof_H 	H 	0.0273	0.9447	0.6732	0.287
Mof_H 	H 	0.032	0.9003	0.6481	0.282
Mof_Zn	Zn	0.49794	0.75489	0.93707	1.208
Mof_O 	O 	0.3004	0.54	0.15002	-0.488
Mof_O 	O 	0.6256	0.5151	0.7315	-0.329
Mof_O 	O 	0.3826	0.4988	0.1361	-0.321
Mof_O 	O 	0.7151	0.5482	0.72273	-0.486
Mof_N 	N 	0.3954	0.6967	0.9487	-0.249
Mof_H 	H 	0.3821	0.7067	0.9262	0.141
Mof_N 	N 	0.6149	0.7176	0.9157	-0.249
Mof_H 	H 	0.6297	0.7309	0.9363	0.144
Mof_N 	N 	0.4457	0.7117	0.9667	-0.283
Mof_N 	N 	0.5562	0.7208	0.9039	-0.295
Mof_C 	C 	0.3639	0.5648	0.0987	-0.203
Mof_C 	C 	0.6482	0.5808	0.7688	-0.186
Mof_C 	C 	0.3211	0.5959	0.0853	0.128
Mof_H 	H 	0.2832	0.5961	0.0968	-0.019
Mof_C 	C 	0.6846	0.6172	0.7763	0.139
Mof_H 	H 	0.7192	0.6206	0.7611	-0.01
Mof_C 	C 	0.4517	0.6873	0.0003	0.346
Mof_C 	C 	0.5512	0.6954	0.8714	0.371
Mof_C 	C 	0.3345	0.6261	0.0554	-0.272
Mof_H 	H 	0.3061	0.6471	0.0476	0.108
Mof_C 	C 	0.6718	0.6486	0.8052	-0.254
Mof_H 	H 	0.6974	0.6728	0.8091	0.114
Mof_C 	C 	0.4045	0.6575	0.0032	-0.366
Mof_C 	C 	0.6077	0.6753	0.8611	-0.348
Mof_C 	C 	0.3903	0.6255	0.0366	0.231
Mof_C 	C 	0.6196	0.6441	0.8293	0.242
Mof_C 	C 	0.3688	0.6644	0.9699	0.389
Mof_C 	C 	0.6465	0.6909	0.891	0.382
Mof_C 	C 	0.4327	0.5944	0.0496	-0.267
Mof_H 	H 	0.4702	0.5936	0.0375	0.111
Mof_C 	C 	0.5823	0.6079	0.8214	-0.26
Mof_H 	H 	0.5473	0.6048	0.8362	0.104
Mof_C 	C 	0.4195	0.5647	0.0803	0.13
Mof_H 	H 	0.4485	0.5444	0.0888	-0.011
Mof_C 	C 	0.5953	0.576	0.7922	0.115
Mof_H 	H 	0.5697	0.5518	0.788	-0.002
Mof_C 	C 	0.3489	0.5321	0.1306	0.362
Mof_C 	C 	0.6635	0.5456	0.7388	0.36
Mof_C 	C 	0.5034	0.694	0.0281	-0.913
Mof_H 	H 	0.4888	0.7027	0.054	0.293
Mof_H 	H 	0.5255	0.6665	0.0304	0.295
Mof_H 	H 	0.529	0.7172	0.0178	0.272
Mof_C 	C 	0.4943	0.6933	0.8492	-0.956
Mof_H 	H 	0.4673	0.6733	0.8626	0.297
Mof_H 	H 	0.4769	0.7228	0.8479	0.298
Mof_H 	H 	0.5017	0.6826	0.8225	0.307
Mof_C 	C 	0.3129	0.6413	0.9549	-0.927
Mof_H 	H 	0.2816	0.6631	0.9514	0.298
Mof_H 	H 	0.3211	0.6271	0.9297	0.308
Mof_H 	H 	0.3004	0.6191	0.974	0.296
Mof_C 	C 	0.711	0.6821	0.8979	-0.934
Mof_H 	H 	0.7341	0.6957	0.8769	0.303
Mof_H 	H 	0.7227	0.6947	0.9232	0.297
Mof_H 	H 	0.718	0.6503	0.8981	0.294
Mof_Zn	Zn	0.49794	0.25489	0.43707	1.207
Mof_O 	O 	0.3004	0.04	0.65002	-0.487
Mof_O 	O 	0.6256	0.0151	0.2315	-0.342
Mof_O 	O 	0.3826	0.9988	0.6361	-0.299
Mof_O 	O 	0.7151	0.0482	0.22273	-0.492
Mof_N 	N 	0.3954	0.1967	0.4487	-0.245
Mof_H 	H 	0.3821	0.2067	0.4262	0.14
Mof_N 	N 	0.6149	0.2176	0.4157	-0.249
Mof_H 	H 	0.6297	0.2309	0.4363	0.143
Mof_N 	N 	0.4457	0.2117	0.4667	-0.291
Mof_N 	N 	0.5562	0.2208	0.4039	-0.296
Mof_C 	C 	0.3639	0.0648	0.5987	-0.195
Mof_C 	C 	0.6482	0.0808	0.2688	-0.19
Mof_C 	C 	0.3211	0.0959	0.5853	0.117
Mof_H 	H 	0.2832	0.0961	0.5968	-0.015
Mof_C 	C 	0.6846	0.1172	0.2763	0.141
Mof_H 	H 	0.7192	0.1206	0.2611	-0.012
Mof_C 	C 	0.4517	0.1873	0.5003	0.357
Mof_C 	C 	0.5512	0.1954	0.3714	0.371
Mof_C 	C 	0.3345	0.1261	0.5554	-0.264
Mof_H 	H 	0.3061	0.1471	0.5476	0.108
Mof_C 	C 	0.6718	0.1486	0.3052	-0.256
Mof_H 	H 	0.6974	0.1728	0.3091	0.115
Mof_C 	C 	0.4045	0.1575	0.5032	-0.348
Mof_C 	C 	0.6077	0.1753	0.3611	-0.348
Mof_C 	C 	0.3903	0.1255	0.5366	0.222
Mof_C 	C 	0.6196	0.1441	0.3293	0.244
Mof_C 	C 	0.3688	0.1644	0.4699	0.364
Mof_C 	C 	0.6465	0.1909	0.391	0.381
Mof_C 	C 	0.4327	0.0944	0.5496	-0.262
Mof_H 	H 	0.4702	0.0936	0.5375	0.109
Mof_C 	C 	0.5823	0.1079	0.3214	-0.263
Mof_H 	H 	0.5473	0.1048	0.3362	0.104
Mof_C 	C 	0.4195	0.0647	0.5803	0.118
Mof_H 	H 	0.4485	0.0444	0.5888	-0.013
Mof_C 	C 	0.5953	0.076	0.2922	0.117
Mof_H 	H 	0.5697	0.0518	0.288	-0.006
Mof_C 	C 	0.3489	0.0321	0.6306	0.333
Mof_C 	C 	0.6635	0.0456	0.2388	0.361
Mof_C 	C 	0.5034	0.194	0.5281	-0.925
Mof_H 	H 	0.4888	0.2027	0.554	0.298
Mof_H 	H 	0.5255	0.1665	0.5304	0.3
Mof_H 	H 	0.529	0.2172	0.5178	0.28
Mof_C 	C 	0.4943	0.1933	0.3492	-0.956
Mof_H 	H 	0.4673	0.1733	0.3626	0.298
Mof_H 	H 	0.4769	0.2228	0.3479	0.298
Mof_H 	H 	0.5017	0.1826	0.3225	0.307
Mof_C 	C 	0.3129	0.1413	0.4549	-0.891
Mof_H 	H 	0.2816	0.1631	0.4514	0.285
Mof_H 	H 	0.3211	0.1271	0.4297	0.295
Mof_H 	H 	0.3004	0.1191	0.474	0.278
Mof_C 	C 	0.711	0.1821	0.3979	-0.93
Mof_H 	H 	0.7341	0.1957	0.3769	0.302
Mof_H 	H 	0.7227	0.1947	0.4232	0.295
Mof_H 	H 	0.718	0.1503	0.3981	0.293
Mof_Zn	Zn	0.99794	0.75489	0.43707	1.214
Mof_O 	O 	0.8004	0.54	0.65002	-0.487
Mof_O 	O 	0.1256	0.5151	0.2315	-0.331
Mof_O 	O 	0.8826	0.4988	0.6361	-0.319
Mof_O 	O 	0.2151	0.5482	0.22273	-0.486
Mof_N 	N 	0.8954	0.6967	0.4487	-0.248
Mof_H 	H 	0.8821	0.7067	0.4262	0.142
Mof_N 	N 	0.1149	0.7176	0.4157	-0.247
Mof_H 	H 	0.1297	0.7309	0.4363	0.141
Mof_N 	N 	0.9457	0.7117	0.4667	-0.299
Mof_N 	N 	0.0562	0.7208	0.4039	-0.288
Mof_C 	C 	0.8639	0.5648	0.5987	-0.207
Mof_C 	C 	0.1482	0.5808	0.2688	-0.18
Mof_C 	C 	0.8211	0.5959	0.5853	0.135
Mof_H 	H 	0.7832	0.5961	0.5968	-0.02
Mof_C 	C 	0.1846	0.6172	0.2763	0.129
Mof_H 	H 	0.2192	0.6206	0.2611	-0.007
Mof_C 	C 	0.9517	0.6873	0.5003	0.426
Mof_C 	C 	0.0512	0.6954	0.3714	0.297
Mof_C 	C 	0.8345	0.6261	0.5554	-0.281
Mof_H 	H 	0.8061	0.6471	0.5476	0.115
Mof_C 	C 	0.1718	0.6486	0.3052	-0.241
Mof_H 	H 	0.1974	0.6728	0.3091	0.109
Mof_C 	C 	0.9045	0.6575	0.5032	-0.383
Mof_C 	C 	0.1077	0.6753	0.3611	-0.315
Mof_C 	C 	0.8903	0.6255	0.5366	0.246
Mof_C 	C 	0.1196	0.6441	0.3293	0.222
Mof_C 	C 	0.8688	0.6644	0.4699	0.381
Mof_C 	C 	0.1465	0.6909	0.391	0.368
Mof_C 	C 	0.9327	0.5944	0.5496	-0.277
Mof_H 	H 	0.9702	0.5936	0.5375	0.122
Mof_C 	C 	0.0823	0.6079	0.3214	-0.245
Mof_H 	H 	0.0473	0.6048	0.3362	0.093
Mof_C 	C 	0.9195	0.5647	0.5803	0.138
Mof_H 	H 	0.9485	0.5444	0.5888	-0.009
Mof_C 	C 	0.0953	0.576	0.2922	0.104
Mof_H 	H 	0.0697	0.5518	0.288	-0.002
Mof_C 	C 	0.8489	0.5321	0.6306	0.364
Mof_C 	C 	0.1635	0.5456	0.2388	0.358
Mof_C 	C 	0.0034	0.694	0.5281	-1.11
Mof_H 	H 	0.9888	0.7027	0.554	0.366
Mof_H 	H 	0.0255	0.6665	0.5304	0.348
Mof_H 	H 	0.029	0.7172	0.5178	0.329
Mof_C 	C 	0.9943	0.6933	0.3492	-0.76
Mof_H 	H 	0.9673	0.6733	0.3626	0.244
Mof_H 	H 	0.9769	0.7228	0.3479	0.246
Mof_H 	H 	0.0017	0.6826	0.3225	0.234
Mof_C 	C 	0.8129	0.6413	0.4549	-0.915
Mof_H 	H 	0.7816	0.6631	0.4514	0.293
Mof_H 	H 	0.8211	0.6271	0.4297	0.304
Mof_H 	H 	0.8004	0.6191	0.474	0.288
Mof_C 	C 	0.211	0.6821	0.3979	-0.916
Mof_H 	H 	0.2341	0.6957	0.3769	0.297
Mof_H 	H 	0.2227	0.6947	0.4232	0.291
Mof_H 	H 	0.218	0.6503	0.3981	0.289
Mof_Zn	Zn	0.99794	0.25489	0.93707	1.215
Mof_O 	O 	0.8004	0.04	0.15002	-0.487
Mof_O 	O 	0.1256	0.0151	0.7315	-0.343
Mof_O 	O 	0.8826	0.9988	0.1361	-0.297
Mof_O 	O 	0.2151	0.0482	0.72273	-0.493
Mof_N 	N 	0.8954	0.1967	0.9487	-0.25
Mof_H 	H 	0.8821	0.2067	0.9262	0.143
Mof_N 	N 	0.1149	0.2176	0.9157	-0.247
Mof_H 	H 	0.1297	0.2309	0.9363	0.142
Mof_N 	N 	0.9457	0.2117	0.9667	-0.291
Mof_N 	N 	0.0562	0.2208	0.9039	-0.288
Mof_C 	C 	0.8639	0.0648	0.0987	-0.201
Mof_C 	C 	0.1482	0.0808	0.7688	-0.185
Mof_C 	C 	0.8211	0.0959	0.0853	0.128
Mof_H 	H 	0.7832	0.0961	0.0968	-0.019
Mof_C 	C 	0.1846	0.1172	0.7763	0.132
Mof_H 	H 	0.2192	0.1206	0.7611	-0.009
Mof_C 	C 	0.9517	0.1873	0.0003	0.415
Mof_C 	C 	0.0512	0.1954	0.8714	0.298
Mof_C 	C 	0.8345	0.1261	0.0554	-0.28
Mof_H 	H 	0.8061	0.1471	0.0476	0.112
Mof_C 	C 	0.1718	0.1486	0.8052	-0.244
Mof_H 	H 	0.1974	0.1728	0.8091	0.11
Mof_C 	C 	0.9045	0.1575	0.0032	-0.397
Mof_C 	C 	0.1077	0.1753	0.8611	-0.316
Mof_C 	C 	0.8903	0.1255	0.0366	0.245
Mof_C 	C 	0.1196	0.1441	0.8293	0.224
Mof_C 	C 	0.8688	0.1644	0.9699	0.4
Mof_C 	C 	0.1465	0.1909	0.891	0.369
Mof_C 	C 	0.9327	0.0944	0.0496	-0.276
Mof_H 	H 	0.9702	0.0936	0.0375	0.118
Mof_C 	C 	0.0823	0.1079	0.8214	-0.248
Mof_H 	H 	0.0473	0.1048	0.8362	0.094
Mof_C 	C 	0.9195	0.0647	0.0803	0.131
Mof_H 	H 	0.9485	0.0444	0.0888	-0.012
Mof_C 	C 	0.0953	0.076	0.7922	0.107
Mof_H 	H 	0.0697	0.0518	0.788	-0.007
Mof_C 	C 	0.8489	0.0321	0.1306	0.337
Mof_C 	C 	0.1635	0.0456	0.7388	0.359
Mof_C 	C 	0.0034	0.194	0.0281	-1.098
Mof_H 	H 	0.9888	0.2027	0.054	0.363
Mof_H 	H 	0.0255	0.1665	0.0304	0.343
Mof_H 	H 	0.029	0.2172	0.0178	0.321
Mof_C 	C 	0.9943	0.1933	0.8492	-0.759
Mof_H 	H 	0.9673	0.1733	0.8626	0.244
Mof_H 	H 	0.9769	0.2228	0.8479	0.246
Mof_H 	H 	0.0017	0.1826	0.8225	0.234
Mof_C 	C 	0.8129	0.1413	0.9549	-0.935
Mof_H 	H 	0.7816	0.1631	0.9514	0.3
Mof_H 	H 	0.8211	0.1271	0.9297	0.309
Mof_H 	H 	0.8004	0.1191	0.974	0.296
Mof_C 	C 	0.211	0.1821	0.8979	-0.919
Mof_H 	H 	0.2341	0.1957	0.8769	0.299
Mof_H 	H 	0.2227	0.1947	0.9232	0.293
Mof_H 	H 	0.218	0.1503	0.8981	0.29
Mof_Zn	Zn	0.24794	0.49511	0.68707	1.207
Mof_O 	O 	0.0504	0.71	0.90002	-0.495
Mof_O 	O 	0.3756	0.7349	0.4815	-0.329
Mof_O 	O 	0.1326	0.7512	0.8861	-0.323
Mof_O 	O 	0.4651	0.7018	0.47273	-0.487
Mof_N 	N 	0.1454	0.5533	0.6987	-0.244
Mof_H 	H 	0.1321	0.5433	0.6762	0.138
Mof_N 	N 	0.3649	0.5324	0.6657	-0.249
Mof_H 	H 	0.3797	0.5191	0.6863	0.143
Mof_N 	N 	0.1957	0.5383	0.7167	-0.291
Mof_N 	N 	0.3062	0.5292	0.6539	-0.296
Mof_C 	C 	0.1139	0.6852	0.8487	-0.204
Mof_C 	C 	0.3982	0.6692	0.5188	-0.186
Mof_C 	C 	0.0711	0.6541	0.8353	0.126
Mof_H 	H 	0.0332	0.6539	0.8468	-0.024
Mof_C 	C 	0.4346	0.6328	0.5263	0.139
Mof_H 	H 	0.4692	0.6294	0.5111	-0.011
Mof_C 	C 	0.2017	0.5627	0.7503	0.356
Mof_C 	C 	0.3012	0.5546	0.6214	0.371
Mof_C 	C 	0.0845	0.6239	0.8054	-0.269
Mof_H 	H 	0.0561	0.6029	0.7976	0.107
Mof_C 	C 	0.4218	0.6014	0.5552	-0.254
Mof_H 	H 	0.4474	0.5772	0.5591	0.114
Mof_C 	C 	0.1545	0.5925	0.7532	-0.348
Mof_C 	C 	0.3577	0.5747	0.6111	-0.348
Mof_C 	C 	0.1403	0.6245	0.7866	0.226
Mof_C 	C 	0.3696	0.6059	0.5793	0.242
Mof_C 	C 	0.1188	0.5856	0.7199	0.361
Mof_C 	C 	0.3965	0.5591	0.641	0.381
Mof_C 	C 	0.1827	0.6556	0.7996	-0.265
Mof_H 	H 	0.2202	0.6564	0.7875	0.112
Mof_C 	C 	0.3323	0.6421	0.5714	-0.26
Mof_H 	H 	0.2973	0.6452	0.5862	0.104
Mof_C 	C 	0.1695	0.6853	0.8303	0.128
Mof_H 	H 	0.1985	0.7056	0.8388	-0.011
Mof_C 	C 	0.3453	0.674	0.5422	0.115
Mof_H 	H 	0.3197	0.6982	0.538	-0.002
Mof_C 	C 	0.0989	0.7179	0.8806	0.361
Mof_C 	C 	0.4135	0.7044	0.4888	0.36
Mof_C 	C 	0.2534	0.556	0.7781	-0.924
Mof_H 	H 	0.2388	0.5473	0.804	0.297
Mof_H 	H 	0.2755	0.5835	0.7804	0.3
Mof_H 	H 	0.279	0.5328	0.7678	0.279
Mof_C 	C 	0.2443	0.5567	0.5992	-0.956
Mof_H 	H 	0.2173	0.5767	0.6126	0.298
Mof_H 	H 	0.2269	0.5272	0.5979	0.298
Mof_H 	H 	0.2517	0.5674	0.5725	0.307
Mof_C 	C 	0.0629	0.6087	0.7049	-0.882
Mof_H 	H 	0.0316	0.5869	0.7014	0.278
Mof_H 	H 	0.0711	0.6229	0.6797	0.291
Mof_H 	H 	0.0504	0.6309	0.724	0.275
Mof_C 	C 	0.461	0.5679	0.6479	-0.931
Mof_H 	H 	0.4841	0.5543	0.6269	0.302
Mof_H 	H 	0.4727	0.5553	0.6732	0.295
Mof_H 	H 	0.468	0.5997	0.6481	0.294
Mof_Zn	Zn	0.24794	0.99511	0.18707	1.214
Mof_O 	O 	0.0504	0.21	0.40002	-0.496
Mof_O 	O 	0.3756	0.2349	0.9815	-0.327
Mof_O 	O 	0.1326	0.2512	0.3861	-0.323
Mof_O 	O 	0.4651	0.2018	0.97273	-0.486
Mof_N 	N 	0.1454	0.0533	0.1987	-0.244
Mof_H 	H 	0.1321	0.0433	0.1762	0.136
Mof_N 	N 	0.3649	0.0324	0.1657	-0.248
Mof_H 	H 	0.3797	0.0191	0.1863	0.134
Mof_N 	N 	0.1957	0.0383	0.2167	-0.295
Mof_N 	N 	0.3062	0.0292	0.1539	-0.301
Mof_C 	C 	0.1139	0.1852	0.3487	-0.204
Mof_C 	C 	0.3982	0.1692	0.0188	-0.207
Mof_C 	C 	0.0711	0.1541	0.3353	0.124
Mof_H 	H 	0.0332	0.1539	0.3468	-0.023
Mof_C 	C 	0.4346	0.1328	0.0263	0.15
Mof_H 	H 	0.4692	0.1294	0.0111	-0.019
Mof_C 	C 	0.2017	0.0627	0.2503	0.347
Mof_C 	C 	0.3012	0.0546	0.1214	0.365
Mof_C 	C 	0.0845	0.1239	0.3054	-0.267
Mof_H 	H 	0.0561	0.1029	0.2976	0.104
Mof_C 	C 	0.4218	0.1014	0.0552	-0.264
Mof_H 	H 	0.4474	0.0772	0.0591	0.115
Mof_C 	C 	0.1545	0.0925	0.2532	-0.344
Mof_C 	C 	0.3577	0.0747	0.1111	-0.348
Mof_C 	C 	0.1403	0.1245	0.2866	0.223
Mof_C 	C 	0.3696	0.1059	0.0793	0.245
Mof_C 	C 	0.1188	0.0856	0.2199	0.356
Mof_C 	C 	0.3965	0.0591	0.141	0.374
Mof_C 	C 	0.1827	0.1556	0.2996	-0.263
Mof_H 	H 	0.2202	0.1564	0.2875	0.111
Mof_C 	C 	0.3323	0.1421	0.0714	-0.268
Mof_H 	H 	0.2973	0.1452	0.0862	0.106
Mof_C 	C 	0.1695	0.1853	0.3303	0.127
Mof_H 	H 	0.1985	0.2056	0.3388	-0.01
Mof_C 	C 	0.3453	0.174	0.0422	0.125
Mof_H 	H 	0.3197	0.1982	0.038	-0.008
Mof_C 	C 	0.0989	0.2179	0.3806	0.36
Mof_C 	C 	0.4135	0.2044	0.9888	0.377
Mof_C 	C 	0.2534	0.056	0.2781	-0.906
Mof_H 	H 	0.2388	0.0473	0.304	0.288
Mof_H 	H 	0.2755	0.0835	0.2804	0.294
Mof_H 	H 	0.279	0.0328	0.2678	0.268
Mof_C 	C 	0.2443	0.0567	0.0992	-0.948
Mof_H 	H 	0.2173	0.0767	0.1126	0.295
Mof_H 	H 	0.2269	0.0272	0.0979	0.292
Mof_H 	H 	0.2517	0.0674	0.0725	0.304
Mof_C 	C 	0.0629	0.1087	0.2049	-0.876
Mof_H 	H 	0.0316	0.0869	0.2014	0.274
Mof_H 	H 	0.0711	0.1229	0.1797	0.289
Mof_H 	H 	0.0504	0.1309	0.224	0.273
Mof_C 	C 	0.461	0.0679	0.1479	-0.919
Mof_H 	H 	0.4841	0.0543	0.1269	0.295
Mof_H 	H 	0.4727	0.0553	0.1732	0.289
Mof_H 	H 	0.468	0.0997	0.1481	0.29
Mof_Zn	Zn	0.74794	0.49511	0.18707	1.207
Mof_O 	O 	0.5504	0.71	0.40002	-0.488
Mof_O 	O 	0.8756	0.7349	0.9815	-0.325
Mof_O 	O 	0.6326	0.7512	0.3861	-0.321
Mof_O 	O 	0.9651	0.7018	0.97273	-0.476
Mof_N 	N 	0.6454	0.5533	0.1987	-0.245
Mof_H 	H 	0.6321	0.5433	0.1762	0.14
Mof_N 	N 	0.8649	0.5324	0.1657	-0.252
Mof_H 	H 	0.8797	0.5191	0.1863	0.145
Mof_N 	N 	0.6957	0.5383	0.2167	-0.291
Mof_N 	N 	0.8062	0.5292	0.1539	-0.296
Mof_C 	C 	0.6139	0.6852	0.3487	-0.202
Mof_C 	C 	0.8982	0.6692	0.0188	-0.206
Mof_C 	C 	0.5711	0.6541	0.3353	0.126
Mof_H 	H 	0.5332	0.6539	0.3468	-0.017
Mof_C 	C 	0.9346	0.6328	0.0263	0.154
Mof_H 	H 	0.9692	0.6294	0.0111	-0.014
Mof_C 	C 	0.7017	0.5627	0.2503	0.357
Mof_C 	C 	0.8012	0.5546	0.1214	0.373
Mof_C 	C 	0.5845	0.6239	0.3054	-0.268
Mof_H 	H 	0.5561	0.6029	0.2976	0.11
Mof_C 	C 	0.9218	0.6014	0.0552	-0.266
Mof_H 	H 	0.9474	0.5772	0.0591	0.122
Mof_C 	C 	0.6545	0.5925	0.2532	-0.351
Mof_C 	C 	0.8577	0.5747	0.1111	-0.356
Mof_C 	C 	0.6403	0.6245	0.2866	0.227
Mof_C 	C 	0.8696	0.6059	0.0793	0.252
Mof_C 	C 	0.6188	0.5856	0.2199	0.367
Mof_C 	C 	0.8965	0.5591	0.141	0.395
Mof_C 	C 	0.6827	0.6556	0.2996	-0.265
Mof_H 	H 	0.7202	0.6564	0.2875	0.112
Mof_C 	C 	0.8323	0.6421	0.0714	-0.271
Mof_H 	H 	0.7973	0.6452	0.0862	0.107
Mof_C 	C 	0.6695	0.6853	0.3303	0.127
Mof_H 	H 	0.6985	0.7056	0.3388	-0.011
Mof_C 	C 	0.8453	0.674	0.0422	0.128
Mof_H 	H 	0.8197	0.6982	0.038	-0.009
Mof_C 	C 	0.5989	0.7179	0.3806	0.361
Mof_C 	C 	0.9135	0.7044	0.9888	0.377
Mof_C 	C 	0.7534	0.556	0.2781	-0.925
Mof_H 	H 	0.7388	0.5473	0.304	0.298
Mof_H 	H 	0.7755	0.5835	0.2804	0.3
Mof_H 	H 	0.779	0.5328	0.2678	0.28
Mof_C 	C 	0.7443	0.5567	0.0992	-0.959
Mof_H 	H 	0.7173	0.5767	0.1126	0.298
Mof_H 	H 	0.7269	0.5272	0.0979	0.299
Mof_H 	H 	0.7517	0.5674	0.0725	0.307
Mof_C 	C 	0.5629	0.6087	0.2049	-0.899
Mof_H 	H 	0.5316	0.5869	0.2014	0.288
Mof_H 	H 	0.5711	0.6229	0.1797	0.299
Mof_H 	H 	0.5504	0.6309	0.224	0.283
Mof_C 	C 	0.961	0.5679	0.1479	-0.967
Mof_H 	H 	0.9841	0.5543	0.1269	0.32
Mof_H 	H 	0.9727	0.5553	0.1732	0.312
Mof_H 	H 	0.968	0.5997	0.1481	0.311
Mof_Zn	Zn	0.74794	0.99511	0.68707	1.214
Mof_O 	O 	0.5504	0.21	0.90002	-0.487
Mof_O 	O 	0.8756	0.2349	0.4815	-0.326
Mof_O 	O 	0.6326	0.2512	0.8861	-0.321
Mof_O 	O 	0.9651	0.2018	0.47273	-0.476
Mof_N 	N 	0.6454	0.0533	0.6987	-0.245
Mof_H 	H 	0.6321	0.0433	0.6762	0.138
Mof_N 	N 	0.8649	0.0324	0.6657	-0.25
Mof_H 	H 	0.8797	0.0191	0.6863	0.137
Mof_N 	N 	0.6957	0.0383	0.7167	-0.294
Mof_N 	N 	0.8062	0.0292	0.6539	-0.301
Mof_C 	C 	0.6139	0.1852	0.8487	-0.201
Mof_C 	C 	0.8982	0.1692	0.5188	-0.183
Mof_C 	C 	0.5711	0.1541	0.8353	0.123
Mof_H 	H 	0.5332	0.1539	0.8468	-0.017
Mof_C 	C 	0.9346	0.1328	0.5263	0.139
Mof_H 	H 	0.9692	0.1294	0.5111	-0.005
Mof_C 	C 	0.7017	0.0627	0.7503	0.349
Mof_C 	C 	0.8012	0.0546	0.6214	0.366
Mof_C 	C 	0.5845	0.1239	0.8054	-0.266
Mof_H 	H 	0.5561	0.1029	0.7976	0.108
Mof_C 	C 	0.9218	0.1014	0.5552	-0.252
Mof_H 	H 	0.9474	0.0772	0.5591	0.117
Mof_C 	C 	0.6545	0.0925	0.7532	-0.347
Mof_C 	C 	0.8577	0.0747	0.6111	-0.35
Mof_C 	C 	0.6403	0.1245	0.7866	0.224
Mof_C 	C 	0.8696	0.1059	0.5793	0.242
Mof_C 	C 	0.6188	0.0856	0.7199	0.363
Mof_C 	C 	0.8965	0.0591	0.641	0.386
Mof_C 	C 	0.6827	0.1556	0.7996	-0.263
Mof_H 	H 	0.7202	0.1564	0.7875	0.111
Mof_C 	C 	0.8323	0.1421	0.5714	-0.259
Mof_H 	H 	0.7973	0.1452	0.5862	0.103
Mof_C 	C 	0.6695	0.1853	0.8303	0.126
Mof_H 	H 	0.6985	0.2056	0.8388	-0.01
Mof_C 	C 	0.8453	0.174	0.5422	0.115
Mof_H 	H 	0.8197	0.1982	0.538	-0.002
Mof_C 	C 	0.5989	0.2179	0.8806	0.361
Mof_C 	C 	0.9135	0.2044	0.4888	0.36
Mof_C 	C 	0.7534	0.056	0.7781	-0.909
Mof_H 	H 	0.7388	0.0473	0.804	0.289
Mof_H 	H 	0.7755	0.0835	0.7804	0.294
Mof_H 	H 	0.779	0.0328	0.7678	0.269
Mof_C 	C 	0.7443	0.0567	0.5992	-0.948
Mof_H 	H 	0.7173	0.0767	0.6126	0.295
Mof_H 	H 	0.7269	0.0272	0.5979	0.291
Mof_H 	H 	0.7517	0.0674	0.5725	0.304
Mof_C 	C 	0.5629	0.1087	0.7049	-0.892
Mof_H 	H 	0.5316	0.0869	0.7014	0.284
Mof_H 	H 	0.5711	0.1229	0.6797	0.297
Mof_H 	H 	0.5504	0.1309	0.724	0.281
Mof_C 	C 	0.961	0.0679	0.6479	-0.952
Mof_H 	H 	0.9841	0.0543	0.6269	0.312
Mof_H 	H 	0.9727	0.0553	0.6732	0.305
Mof_H 	H 	0.968	0.0997	0.6481	0.306
Mof_Zn	Zn	0.00206	0.74511	0.93707	1.201
Mof_O 	O 	0.1996	0.96	0.15002	-0.488
Mof_O 	O 	0.8744	0.9849	0.7315	-0.316
Mof_O 	O 	0.1174	0.0012	0.1361	-0.346
Mof_O 	O 	0.7849	0.9518	0.72273	-0.481
Mof_N 	N 	0.1046	0.8033	0.9487	-0.247
Mof_H 	H 	0.1179	0.7933	0.9262	0.139
Mof_N 	N 	0.8851	0.7824	0.9157	-0.252
Mof_H 	H 	0.8703	0.7691	0.9363	0.146
Mof_N 	N 	0.0543	0.7883	0.9667	-0.276
Mof_N 	N 	0.9438	0.7792	0.9039	-0.302
Mof_C 	C 	0.1361	0.9352	0.0987	-0.205
Mof_C 	C 	0.8518	0.9192	0.7688	-0.188
Mof_C 	C 	0.1789	0.9041	0.0853	0.128
Mof_H 	H 	0.2168	0.9039	0.0968	-0.018
Mof_C 	C 	0.8154	0.8828	0.7763	0.146
Mof_H 	H 	0.7808	0.8794	0.7611	-0.013
Mof_C 	C 	0.0483	0.8127	0.0003	0.279
Mof_C 	C 	0.9488	0.8046	0.8714	0.442
Mof_C 	C 	0.1655	0.8739	0.0554	-0.263
Mof_H 	H 	0.1939	0.8529	0.0476	0.106
Mof_C 	C 	0.8282	0.8514	0.8052	-0.265
Mof_H 	H 	0.8026	0.8272	0.8091	0.118
Mof_C 	C 	0.0955	0.8425	0.0032	-0.336
Mof_C 	C 	0.8923	0.8247	0.8611	-0.38
Mof_C 	C 	0.1097	0.8745	0.0366	0.218
Mof_C 	C 	0.8804	0.8559	0.8293	0.261
Mof_C 	C 	0.1312	0.8356	0.9699	0.379
Mof_C 	C 	0.8535	0.8091	0.891	0.395
Mof_C 	C 	0.0673	0.9056	0.0496	-0.257
Mof_H 	H 	0.0298	0.9064	0.0375	0.104
Mof_C 	C 	0.9177	0.8921	0.8214	-0.272
Mof_H 	H 	0.9527	0.8952	0.8362	0.113
Mof_C 	C 	0.0805	0.9353	0.0803	0.13
Mof_H 	H 	0.0515	0.9556	0.0888	-0.011
Mof_C 	C 	0.9047	0.924	0.7922	0.124
Mof_H 	H 	0.9303	0.9482	0.788	0.002
Mof_C 	C 	0.1511	0.9679	0.1306	0.388
Mof_C 	C 	0.8365	0.9544	0.7388	0.362
Mof_C 	C 	0.9966	0.806	0.0281	-0.731
Mof_H 	H 	0.0112	0.7973	0.054	0.226
Mof_H 	H 	0.9745	0.8335	0.0304	0.248
Mof_H 	H 	0.971	0.7828	0.0178	0.224
Mof_C 	C 	0.0057	0.8067	0.8492	-1.147
Mof_H 	H 	0.0327	0.8267	0.8626	0.349
Mof_H 	H 	0.0231	0.7772	0.8479	0.349
Mof_H 	H 	0.9983	0.8174	0.8225	0.378
Mof_C 	C 	0.1871	0.8587	0.9549	-0.92
Mof_H 	H 	0.2184	0.8369	0.9514	0.297
Mof_H 	H 	0.1789	0.8729	0.9297	0.307
Mof_H 	H 	0.1996	0.8809	0.974	0.297
Mof_C 	C 	0.789	0.8179	0.8979	-0.95
Mof_H 	H 	0.7659	0.8043	0.8769	0.308
Mof_H 	H 	0.7773	0.8053	0.9232	0.302
Mof_H 	H 	0.782	0.8497	0.8981	0.3
Mof_Zn	Zn	0.00206	0.24511	0.43707	1.201
Mof_O 	O 	0.1996	0.46	0.65002	-0.488
Mof_O 	O 	0.8744	0.4849	0.2315	-0.328
Mof_O 	O 	0.1174	0.5012	0.6361	-0.324
Mof_O 	O 	0.7849	0.4518	0.22273	-0.487
Mof_N 	N 	0.1046	0.3033	0.4487	-0.243
Mof_H 	H 	0.1179	0.2933	0.4262	0.138
Mof_N 	N 	0.8851	0.2824	0.4157	-0.251
Mof_H 	H 	0.8703	0.2691	0.4363	0.144
Mof_N 	N 	0.0543	0.2883	0.4667	-0.283
Mof_N 	N 	0.9438	0.2792	0.4039	-0.303
Mof_C 	C 	0.1361	0.4352	0.5987	-0.197
Mof_C 	C 	0.8518	0.4192	0.2688	-0.193
Mof_C 	C 	0.1789	0.4041	0.5853	0.117
Mof_H 	H 	0.2168	0.4039	0.5968	-0.014
Mof_C 	C 	0.8154	0.3828	0.2763	0.149
Mof_H 	H 	0.7808	0.3794	0.2611	-0.014
Mof_C 	C 	0.0483	0.3127	0.5003	0.287
Mof_C 	C 	0.9488	0.3046	0.3714	0.445
Mof_C 	C 	0.1655	0.3739	0.5554	-0.256
Mof_H 	H 	0.1939	0.3529	0.5476	0.106
Mof_C 	C 	0.8282	0.3514	0.3052	-0.268
Mof_H 	H 	0.8026	0.3272	0.3091	0.119
Mof_C 	C 	0.0955	0.3425	0.5032	-0.317
Mof_C 	C 	0.8923	0.3247	0.3611	-0.381
Mof_C 	C 	0.1097	0.3745	0.5366	0.208
Mof_C 	C 	0.8804	0.3559	0.3293	0.263
Mof_C 	C 	0.1312	0.3356	0.4699	0.354
Mof_C 	C 	0.8535	0.3091	0.391	0.394
Mof_C 	C 	0.0673	0.4056	0.5496	-0.252
Mof_H 	H 	0.0298	0.4064	0.5375	0.102
Mof_C 	C 	0.9177	0.3921	0.3214	-0.276
Mof_H 	H 	0.9527	0.3952	0.3362	0.114
Mof_C 	C 	0.0805	0.4353	0.5803	0.117
Mof_H 	H 	0.0515	0.4556	0.5888	-0.012
Mof_C 	C 	0.9047	0.424	0.2922	0.126
Mof_H 	H 	0.9303	0.4482	0.288	-0.002
Mof_C 	C 	0.1511	0.4679	0.6306	0.359
Mof_C 	C 	0.8365	0.4544	0.2388	0.363
Mof_C 	C 	0.9966	0.306	0.5281	-0.738
Mof_H 	H 	0.0112	0.2973	0.554	0.228
Mof_H 	H 	0.9745	0.3335	0.5304	0.252
Mof_H 	H 	0.971	0.2828	0.5178	0.231
Mof_C 	C 	0.0057	0.3067	0.3492	-1.153
Mof_H 	H 	0.0327	0.3267	0.3626	0.351
Mof_H 	H 	0.0231	0.2772	0.3479	0.351
Mof_H 	H 	0.9983	0.3174	0.3225	0.38
Mof_C 	C 	0.1871	0.3587	0.4549	-0.884
Mof_H 	H 	0.2184	0.3369	0.4514	0.284
Mof_H 	H 	0.1789	0.3729	0.4297	0.294
Mof_H 	H 	0.1996	0.3809	0.474	0.278
Mof_C 	C 	0.789	0.3179	0.3979	-0.947
Mof_H 	H 	0.7659	0.3043	0.3769	0.307
Mof_H 	H 	0.7773	0.3053	0.4232	0.3
Mof_H 	H 	0.782	0.3497	0.3981	0.299
Mof_Zn	Zn	0.50206	0.74511	0.43707	1.207
Mof_O 	O 	0.6996	0.96	0.65002	-0.488
Mof_O 	O 	0.3744	0.9849	0.2315	-0.317
Mof_O 	O 	0.6174	0.0012	0.6361	-0.344
Mof_O 	O 	0.2849	0.9518	0.22273	-0.481
Mof_N 	N 	0.6046	0.8033	0.4487	-0.246
Mof_H 	H 	0.6179	0.7933	0.4262	0.14
Mof_N 	N 	0.3851	0.7824	0.4157	-0.249
Mof_H 	H 	0.3703	0.7691	0.4363	0.143
Mof_N 	N 	0.5543	0.7883	0.4667	-0.291
Mof_N 	N 	0.4438	0.7792	0.4039	-0.296
Mof_C 	C 	0.6361	0.9352	0.5987	-0.209
Mof_C 	C 	0.3518	0.9192	0.2688	-0.182
Mof_C 	C 	0.6789	0.9041	0.5853	0.135
Mof_H 	H 	0.7168	0.9039	0.5968	-0.02
Mof_C 	C 	0.3154	0.8828	0.2763	0.137
Mof_H 	H 	0.2808	0.8794	0.2611	-0.01
Mof_C 	C 	0.5483	0.8127	0.5003	0.358
Mof_C 	C 	0.4488	0.8046	0.3714	0.37
Mof_C 	C 	0.6655	0.8739	0.5554	-0.273
Mof_H 	H 	0.6939	0.8529	0.5476	0.112
Mof_C 	C 	0.3282	0.8514	0.3052	-0.252
Mof_H 	H 	0.3026	0.8272	0.3091	0.113
Mof_C 	C 	0.5955	0.8425	0.5032	-0.353
Mof_C 	C 	0.3923	0.8247	0.3611	-0.347
Mof_C 	C 	0.6097	0.8745	0.5366	0.233
Mof_C 	C 	0.3804	0.8559	0.3293	0.241
Mof_C 	C 	0.6312	0.8356	0.4699	0.371
Mof_C 	C 	0.3535	0.8091	0.391	0.381
Mof_C 	C 	0.5673	0.9056	0.5496	-0.268
Mof_H 	H 	0.5298	0.9064	0.5375	0.114
Mof_C 	C 	0.4177	0.8921	0.3214	-0.257
Mof_H 	H 	0.4527	0.8952	0.3362	0.103
Mof_C 	C 	0.5805	0.9353	0.5803	0.137
Mof_H 	H 	0.5515	0.9556	0.5888	-0.008
Mof_C 	C 	0.4047	0.924	0.2922	0.113
Mof_H 	H 	0.4303	0.9482	0.288	0.002
Mof_C 	C 	0.6511	0.9679	0.6306	0.39
Mof_C 	C 	0.3365	0.9544	0.2388	0.359
Mof_C 	C 	0.4966	0.806	0.5281	-0.927
Mof_H 	H 	0.5112	0.7973	0.554	0.298
Mof_H 	H 	0.4745	0.8335	0.5304	0.301
Mof_H 	H 	0.471	0.7828	0.5178	0.28
Mof_C 	C 	0.5057	0.8067	0.3492	-0.955
Mof_H 	H 	0.5327	0.8267	0.3626	0.297
Mof_H 	H 	0.5231	0.7772	0.3479	0.298
Mof_H 	H 	0.4983	0.8174	0.3225	0.306
Mof_C 	C 	0.6871	0.8587	0.4549	-0.908
Mof_H 	H 	0.7184	0.8369	0.4514	0.292
Mof_H 	H 	0.6789	0.8729	0.4297	0.303
Mof_H 	H 	0.6996	0.8809	0.474	0.289
Mof_C 	C 	0.289	0.8179	0.3979	-0.932
Mof_H 	H 	0.2659	0.8043	0.3769	0.303
Mof_H 	H 	0.2773	0.8053	0.4232	0.296
Mof_H 	H 	0.282	0.8497	0.3981	0.294
Mof_Zn	Zn	0.50206	0.24511	0.93707	1.208
Mof_O 	O 	0.6996	0.46	0.15002	-0.488
Mof_O 	O 	0.3744	0.4849	0.7315	-0.329
Mof_O 	O 	0.6174	0.5012	0.1361	-0.321
Mof_O 	O 	0.2849	0.4518	0.72273	-0.488
Mof_N 	N 	0.6046	0.3033	0.9487	-0.249
Mof_H 	H 	0.6179	0.2933	0.9262	0.141
Mof_N 	N 	0.3851	0.2824	0.9157	-0.249
Mof_H 	H 	0.3703	0.2691	0.9363	0.144
Mof_N 	N 	0.5543	0.2883	0.9667	-0.283
Mof_N 	N 	0.4438	0.2792	0.9039	-0.295
Mof_C 	C 	0.6361	0.4352	0.0987	-0.203
Mof_C 	C 	0.3518	0.4192	0.7688	-0.187
Mof_C 	C 	0.6789	0.4041	0.0853	0.128
Mof_H 	H 	0.7168	0.4039	0.0968	-0.019
Mof_C 	C 	0.3154	0.3828	0.7763	0.14
Mof_H 	H 	0.2808	0.3794	0.7611	-0.011
Mof_C 	C 	0.5483	0.3127	0.0003	0.346
Mof_C 	C 	0.4488	0.3046	0.8714	0.371
Mof_C 	C 	0.6655	0.3739	0.0554	-0.272
Mof_H 	H 	0.6939	0.3529	0.0476	0.109
Mof_C 	C 	0.3282	0.3514	0.8052	-0.255
Mof_H 	H 	0.3026	0.3272	0.8091	0.114
Mof_C 	C 	0.5955	0.3425	0.0032	-0.366
Mof_C 	C 	0.3923	0.3247	0.8611	-0.349
Mof_C 	C 	0.6097	0.3745	0.0366	0.231
Mof_C 	C 	0.3804	0.3559	0.8293	0.243
Mof_C 	C 	0.6312	0.3356	0.9699	0.39
Mof_C 	C 	0.3535	0.3091	0.891	0.383
Mof_C 	C 	0.5673	0.4056	0.0496	-0.267
Mof_H 	H 	0.5298	0.4064	0.0375	0.111
Mof_C 	C 	0.4177	0.3921	0.8214	-0.261
Mof_H 	H 	0.4527	0.3952	0.8362	0.104
Mof_C 	C 	0.5805	0.4353	0.0803	0.13
Mof_H 	H 	0.5515	0.4556	0.0888	-0.012
Mof_C 	C 	0.4047	0.424	0.7922	0.116
Mof_H 	H 	0.4303	0.4482	0.788	-0.002
Mof_C 	C 	0.6511	0.4679	0.1306	0.362
Mof_C 	C 	0.3365	0.4544	0.7388	0.361
Mof_C 	C 	0.4966	0.306	0.0281	-0.913
Mof_H 	H 	0.5112	0.2973	0.054	0.293
Mof_H 	H 	0.4745	0.3335	0.0304	0.295
Mof_H 	H 	0.471	0.2828	0.0178	0.272
Mof_C 	C 	0.5057	0.3067	0.8492	-0.956
Mof_H 	H 	0.5327	0.3267	0.8626	0.297
Mof_H 	H 	0.5231	0.2772	0.8479	0.298
Mof_H 	H 	0.4983	0.3174	0.8225	0.307
Mof_C 	C 	0.6871	0.3587	0.9549	-0.928
Mof_H 	H 	0.7184	0.3369	0.9514	0.299
Mof_H 	H 	0.6789	0.3729	0.9297	0.309
Mof_H 	H 	0.6996	0.3809	0.974	0.297
Mof_C 	C 	0.289	0.3179	0.8979	-0.936
Mof_H 	H 	0.2659	0.3043	0.8769	0.304
Mof_H 	H 	0.2773	0.3053	0.9232	0.298
Mof_H 	H 	0.282	0.3497	0.8981	0.295
_end
