data_functionalizedCrystal
_audit_creation_method	'EQeq! by Chris Wilmer'
_symmetry_space_group_name_H-M	'P1'
_symmetry_Int_Tables_number	1
_symmetry_cell_setting	triclinic
loop_
_symmetry_equiv_pos_as_xyz
  x,y,z
_cell_length_a	24.481
_cell_length_b	9.3535
_cell_length_c	10.3669
_cell_angle_alpha	90
_cell_angle_beta	97.336
_cell_angle_gamma	90
loop_
_atom_site_label
_atom_site_type_symbol
_atom_site_fract_x
_atom_site_fract_y
_atom_site_fract_z
_atom_site_charge
Mof_C 	C 	0.0865	0.9292	0.5201	0.499
Mof_C 	C 	0.1464	0.9038	0.5656	-0.069
Mof_C 	C 	0.1779	0.8215	0.4921	-0.047
Mof_H 	H 	0.1625	0.7842	0.4125	0.061
Mof_C 	C 	0.2323	0.7953	0.538	0.04
Mof_C 	C 	0.2575	0.8523	0.6488	-0.121
Mof_H 	H 	0.2947	0.8362	0.6756	0.079
Mof_C 	C 	0.2278	0.9317	0.718	0.06
Mof_H 	H 	0.2448	0.9686	0.7963	0.022
Mof_N 	N 	0.1716	0.9643	0.6811	-0.1
Mof_O 	O 	0.058	0.978	0.5995	-0.583
Mof_O 	O 	0.0705	0.904	0.4051	-0.525
Mof_O 	O 	0.9694	0.7453	0.3171	-0.146
Mof_O 	O 	0.9717	0.53	0.2403	0.01
Mof_C 	C 	0.5865	0.4292	0.5201	0.531
Mof_C 	C 	0.6464	0.4038	0.5656	-0.082
Mof_C 	C 	0.6779	0.3215	0.4921	-0.035
Mof_H 	H 	0.6625	0.2842	0.4125	0.057
Mof_C 	C 	0.7323	0.2953	0.538	0.032
Mof_C 	C 	0.7575	0.3523	0.6488	-0.114
Mof_H 	H 	0.7947	0.3362	0.6756	0.08
Mof_C 	C 	0.7278	0.4317	0.718	0.057
Mof_H 	H 	0.7448	0.4686	0.7963	0.024
Mof_N 	N 	0.6716	0.4643	0.6811	-0.1
Mof_O 	O 	0.558	0.478	0.5995	-0.614
Mof_O 	O 	0.5705	0.404	0.4051	-0.551
Mof_O 	O 	0.4694	0.2453	0.3171	-0.267
Mof_O 	O 	0.4717	0.03	0.2403	-0.093
Mof_C 	C 	0.9135	0.9292	0.9799	0.487
Mof_C 	C 	0.8536	0.9038	0.9344	-0.052
Mof_C 	C 	0.8221	0.8215	0.0079	-0.054
Mof_H 	H 	0.8375	0.7842	0.0875	0.068
Mof_C 	C 	0.7677	0.7953	0.962	0.046
Mof_C 	C 	0.7425	0.8523	0.8512	-0.125
Mof_H 	H 	0.7053	0.8362	0.8244	0.081
Mof_C 	C 	0.7722	0.9317	0.782	0.065
Mof_H 	H 	0.7552	0.9686	0.7037	0.021
Mof_N 	N 	0.8284	0.9643	0.8189	-0.1
Mof_O 	O 	0.942	0.978	0.9005	-0.508
Mof_O 	O 	0.9295	0.904	0.0949	-0.463
Mof_O 	O 	0.0306	0.7453	0.1829	-0.258
Mof_O 	O 	0.0283	0.53	0.2597	-0.159
Mof_C 	C 	0.4135	0.4292	0.9799	0.531
Mof_C 	C 	0.3536	0.4038	0.9344	-0.089
Mof_C 	C 	0.3221	0.3215	0.0079	-0.021
Mof_H 	H 	0.3375	0.2842	0.0875	0.052
Mof_C 	C 	0.2677	0.2953	0.962	0.015
Mof_C 	C 	0.2425	0.3523	0.8512	-0.102
Mof_H 	H 	0.2053	0.3362	0.8244	0.072
Mof_C 	C 	0.2722	0.4317	0.782	0.049
Mof_H 	H 	0.2552	0.4686	0.7037	0.024
Mof_N 	N 	0.3284	0.4643	0.8189	-0.098
Mof_O 	O 	0.442	0.478	0.9005	-0.614
Mof_O 	O 	0.4295	0.404	0.0949	-0.551
Mof_O 	O 	0.5306	0.2453	0.1829	-0.266
Mof_O 	O 	0.5283	0.03	0.2597	-0.093
Mof_C 	C 	0.9135	0.0708	0.4799	0.487
Mof_C 	C 	0.8536	0.0962	0.4344	-0.053
Mof_C 	C 	0.8221	0.1785	0.5079	-0.052
Mof_H 	H 	0.8375	0.2158	0.5875	0.067
Mof_C 	C 	0.7677	0.2047	0.462	0.046
Mof_C 	C 	0.7425	0.1477	0.3512	-0.124
Mof_H 	H 	0.7053	0.1638	0.3244	0.081
Mof_C 	C 	0.7722	0.0683	0.282	0.065
Mof_H 	H 	0.7552	0.0314	0.2037	0.022
Mof_N 	N 	0.8284	0.0357	0.3189	-0.1
Mof_O 	O 	0.942	0.022	0.4005	-0.508
Mof_O 	O 	0.9295	0.096	0.5949	-0.462
Mof_O 	O 	0.0306	0.2547	0.6829	-0.258
Mof_O 	O 	0.0283	0.47	0.7597	-0.159
Mof_C 	C 	0.4135	0.5708	0.4799	0.531
Mof_C 	C 	0.3536	0.5962	0.4344	-0.082
Mof_C 	C 	0.3221	0.6785	0.5079	-0.036
Mof_H 	H 	0.3375	0.7158	0.5875	0.057
Mof_C 	C 	0.2677	0.7047	0.462	0.033
Mof_C 	C 	0.2425	0.6477	0.3512	-0.115
Mof_H 	H 	0.2053	0.6638	0.3244	0.077
Mof_C 	C 	0.2722	0.5683	0.282	0.057
Mof_H 	H 	0.2552	0.5314	0.2037	0.022
Mof_N 	N 	0.3284	0.5357	0.3189	-0.1
Mof_O 	O 	0.442	0.522	0.4005	-0.614
Mof_O 	O 	0.4295	0.596	0.5949	-0.551
Mof_O 	O 	0.5306	0.7547	0.6829	-0.267
Mof_O 	O 	0.5283	0.97	0.7597	-0.093
Mof_C 	C 	0.0865	0.0708	0.0201	0.502
Mof_C 	C 	0.1464	0.0962	0.0656	-0.06
Mof_C 	C 	0.1779	0.1785	0.9921	-0.067
Mof_H 	H 	0.1625	0.2158	0.9125	0.068
Mof_C 	C 	0.2323	0.2047	0.038	0.06
Mof_C 	C 	0.2575	0.1477	0.1488	-0.135
Mof_H 	H 	0.2947	0.1638	0.1756	0.085
Mof_C 	C 	0.2278	0.0683	0.218	0.069
Mof_H 	H 	0.2448	0.0314	0.2963	0.019
Mof_N 	N 	0.1716	0.0357	0.1811	-0.103
Mof_O 	O 	0.058	0.022	0.0995	-0.582
Mof_O 	O 	0.0705	0.096	0.9051	-0.529
Mof_O 	O 	0.9694	0.2547	0.8171	-0.148
Mof_O 	O 	0.9717	0.47	0.7403	0.009
Mof_C 	C 	0.5865	0.5708	0.0201	0.532
Mof_C 	C 	0.6464	0.5962	0.0656	-0.082
Mof_C 	C 	0.6779	0.6785	0.9921	-0.037
Mof_H 	H 	0.6625	0.7158	0.9125	0.057
Mof_C 	C 	0.7323	0.7047	0.038	0.032
Mof_C 	C 	0.7575	0.6477	0.1488	-0.114
Mof_H 	H 	0.7947	0.6638	0.1756	0.08
Mof_C 	C 	0.7278	0.5683	0.218	0.057
Mof_H 	H 	0.7448	0.5314	0.2963	0.025
Mof_N 	N 	0.6716	0.5357	0.1811	-0.1
Mof_O 	O 	0.558	0.522	0.0995	-0.614
Mof_O 	O 	0.5705	0.596	0.9051	-0.552
Mof_O 	O 	0.4694	0.7547	0.8171	-0.267
Mof_O 	O 	0.4717	0.97	0.7403	-0.093
Mof_Tb	Tb	-1.50896e-18	0.98673	0.25	1.789
Mof_N 	N 	-1.50896e-18	0.687	0.25	-0.02
Mof_Tb	Tb	0.5	0.48673	0.25	2.094
Mof_N 	N 	0.5	0.187	0.25	0.065
Mof_Tb	Tb	-6.03584e-18	0.01327	0.75	1.788
Mof_N 	N 	1.34286e-33	0.313	0.75	-0.02
Mof_Tb	Tb	0.5	0.51327	0.75	2.093
Mof_N 	N 	0.5	0.813	0.75	0.065
_end
