data_functionalizedCrystal
_audit_creation_method	'EQeq! by Chris Wilmer'
_symmetry_space_group_name_H-M	'P1'
_symmetry_Int_Tables_number	1
_symmetry_cell_setting	triclinic
loop_
_symmetry_equiv_pos_as_xyz
  x,y,z
_cell_length_a	18.468
_cell_length_b	18.468
_cell_length_c	24.16
_cell_angle_alpha	90
_cell_angle_beta	90
_cell_angle_gamma	120
loop_
_atom_site_label
_atom_site_type_symbol
_atom_site_fract_x
_atom_site_fract_y
_atom_site_fract_z
_atom_site_charge
Mof_C 	C 	0.552	0.6427	0.5456	0.407
Mof_O 	O 	0.5203	0.6297	0.49838	-0.488
Mof_O 	O 	0.5629	0.5908	0.5736	-0.48
Mof_C 	C 	0.5794	0.7241	0.57218	-0.122
Mof_C 	C 	0.6222	0.747	0.62082	0
Mof_H 	H 	0.6361	0.7104	0.6378	0.042
Mof_C 	C 	0.3573	0.9093	0.5456	0.406
Mof_O 	O 	0.3703	0.8906	0.49838	-0.489
Mof_O 	O 	0.4092	0.9721	0.5736	-0.48
Mof_C 	C 	0.2759	0.8553	0.57218	-0.122
Mof_C 	C 	0.253	0.8752	0.62082	-0
Mof_H 	H 	0.2896	0.9257	0.6378	0.042
Mof_C 	C 	0.0907	0.448	0.5456	0.406
Mof_O 	O 	0.1094	0.4797	0.49838	-0.489
Mof_O 	O 	0.0279	0.4371	0.5736	-0.48
Mof_C 	C 	0.1447	0.4206	0.57218	-0.122
Mof_C 	C 	0.1248	0.3778	0.62082	-0
Mof_H 	H 	0.0743	0.3639	0.6378	0.042
Mof_C 	C 	0.448	0.3573	0.0456	0.406
Mof_O 	O 	0.4797	0.3703	0.99838	-0.49
Mof_O 	O 	0.4371	0.4092	0.0736	-0.48
Mof_C 	C 	0.4206	0.2759	0.07218	-0.122
Mof_C 	C 	0.3778	0.253	0.12082	0
Mof_H 	H 	0.3639	0.2896	0.1378	0.042
Mof_C 	C 	0.6427	0.0907	0.0456	0.408
Mof_O 	O 	0.6297	0.1094	0.99838	-0.491
Mof_O 	O 	0.5908	0.0279	0.0736	-0.48
Mof_C 	C 	0.7241	0.1447	0.07218	-0.122
Mof_C 	C 	0.747	0.1248	0.12082	0.001
Mof_H 	H 	0.7104	0.0743	0.1378	0.042
Mof_C 	C 	0.9093	0.552	0.0456	0.407
Mof_O 	O 	0.8906	0.5203	0.99838	-0.491
Mof_O 	O 	0.9721	0.5629	0.0736	-0.48
Mof_C 	C 	0.8553	0.5794	0.07218	-0.122
Mof_C 	C 	0.8752	0.6222	0.12082	0
Mof_H 	H 	0.9257	0.6361	0.1378	0.042
Mof_C 	C 	0.6427	0.552	0.4544	0.406
Mof_O 	O 	0.6297	0.5203	0.50162	-0.489
Mof_O 	O 	0.5908	0.5629	0.4264	-0.48
Mof_C 	C 	0.7241	0.5794	0.42782	-0.122
Mof_C 	C 	0.747	0.6222	0.37918	0
Mof_H 	H 	0.7104	0.6361	0.3622	0.042
Mof_C 	C 	0.9093	0.3573	0.4544	0.406
Mof_O 	O 	0.8906	0.3703	0.50162	-0.489
Mof_O 	O 	0.9721	0.4092	0.4264	-0.48
Mof_C 	C 	0.8553	0.2759	0.42782	-0.122
Mof_C 	C 	0.8752	0.253	0.37918	-0
Mof_H 	H 	0.9257	0.2896	0.3622	0.042
Mof_C 	C 	0.448	0.0907	0.4544	0.406
Mof_O 	O 	0.4797	0.1094	0.50162	-0.489
Mof_O 	O 	0.4371	0.0279	0.4264	-0.48
Mof_C 	C 	0.4206	0.1447	0.42782	-0.122
Mof_C 	C 	0.3778	0.1248	0.37918	-0
Mof_H 	H 	0.3639	0.0743	0.3622	0.042
Mof_C 	C 	0.3573	0.448	0.9544	0.406
Mof_O 	O 	0.3703	0.4797	0.00162	-0.49
Mof_O 	O 	0.4092	0.4371	0.9264	-0.48
Mof_C 	C 	0.2759	0.4206	0.92782	-0.122
Mof_C 	C 	0.253	0.3778	0.87918	0
Mof_H 	H 	0.2896	0.3639	0.8622	0.042
Mof_C 	C 	0.0907	0.6427	0.9544	0.408
Mof_O 	O 	0.1094	0.6297	0.00162	-0.491
Mof_O 	O 	0.0279	0.5908	0.9264	-0.48
Mof_C 	C 	0.1447	0.7241	0.92782	-0.122
Mof_C 	C 	0.1248	0.747	0.87918	0.001
Mof_H 	H 	0.0743	0.7104	0.8622	0.042
Mof_C 	C 	0.552	0.9093	0.9544	0.407
Mof_O 	O 	0.5203	0.8906	0.00162	-0.491
Mof_O 	O 	0.5629	0.9721	0.9264	-0.48
Mof_C 	C 	0.5794	0.8553	0.92782	-0.122
Mof_C 	C 	0.6222	0.8752	0.87918	0
Mof_H 	H 	0.6361	0.9257	0.8622	0.042
Mof_C 	C 	0.448	0.3573	0.4544	0.406
Mof_O 	O 	0.4797	0.3703	0.50162	-0.489
Mof_O 	O 	0.4371	0.4092	0.4264	-0.48
Mof_C 	C 	0.4206	0.2759	0.42782	-0.122
Mof_C 	C 	0.3778	0.253	0.37918	0
Mof_H 	H 	0.3639	0.2896	0.3622	0.042
Mof_C 	C 	0.6427	0.0907	0.4544	0.406
Mof_O 	O 	0.6297	0.1094	0.50162	-0.489
Mof_O 	O 	0.5908	0.0279	0.4264	-0.48
Mof_C 	C 	0.7241	0.1447	0.42782	-0.122
Mof_C 	C 	0.747	0.1248	0.37918	-0
Mof_H 	H 	0.7104	0.0743	0.3622	0.042
Mof_C 	C 	0.9093	0.552	0.4544	0.406
Mof_O 	O 	0.8906	0.5203	0.50162	-0.489
Mof_O 	O 	0.9721	0.5629	0.4264	-0.48
Mof_C 	C 	0.8553	0.5794	0.42782	-0.122
Mof_C 	C 	0.8752	0.6222	0.37918	-0
Mof_H 	H 	0.9257	0.6361	0.3622	0.042
Mof_C 	C 	0.552	0.6427	0.9544	0.406
Mof_O 	O 	0.5203	0.6297	0.00162	-0.49
Mof_O 	O 	0.5629	0.5908	0.9264	-0.48
Mof_C 	C 	0.5794	0.7241	0.92782	-0.122
Mof_C 	C 	0.6222	0.747	0.87918	0
Mof_H 	H 	0.6361	0.7104	0.8622	0.042
Mof_C 	C 	0.3573	0.9093	0.9544	0.408
Mof_O 	O 	0.3703	0.8906	0.00162	-0.491
Mof_O 	O 	0.4092	0.9721	0.9264	-0.48
Mof_C 	C 	0.2759	0.8553	0.92782	-0.122
Mof_C 	C 	0.253	0.8752	0.87918	0.001
Mof_H 	H 	0.2896	0.9257	0.8622	0.042
Mof_C 	C 	0.0907	0.448	0.9544	0.407
Mof_O 	O 	0.1094	0.4797	0.00162	-0.491
Mof_O 	O 	0.0279	0.4371	0.9264	-0.48
Mof_C 	C 	0.1447	0.4206	0.92782	-0.122
Mof_C 	C 	0.1248	0.3778	0.87918	0
Mof_H 	H 	0.0743	0.3639	0.8622	0.042
Mof_C 	C 	0.3573	0.448	0.5456	0.406
Mof_O 	O 	0.3703	0.4797	0.49838	-0.489
Mof_O 	O 	0.4092	0.4371	0.5736	-0.48
Mof_C 	C 	0.2759	0.4206	0.57218	-0.122
Mof_C 	C 	0.253	0.3778	0.62082	0
Mof_H 	H 	0.2896	0.3639	0.6378	0.042
Mof_C 	C 	0.0907	0.6427	0.5456	0.406
Mof_O 	O 	0.1094	0.6297	0.49838	-0.489
Mof_O 	O 	0.0279	0.5908	0.5736	-0.48
Mof_C 	C 	0.1447	0.7241	0.57218	-0.122
Mof_C 	C 	0.1248	0.747	0.62082	-0
Mof_H 	H 	0.0743	0.7104	0.6378	0.042
Mof_C 	C 	0.552	0.9093	0.5456	0.406
Mof_O 	O 	0.5203	0.8906	0.49838	-0.489
Mof_O 	O 	0.5629	0.9721	0.5736	-0.48
Mof_C 	C 	0.5794	0.8553	0.57218	-0.122
Mof_C 	C 	0.6222	0.8752	0.62082	-0
Mof_H 	H 	0.6361	0.9257	0.6378	0.042
Mof_C 	C 	0.6427	0.552	0.0456	0.406
Mof_O 	O 	0.6297	0.5203	0.99838	-0.49
Mof_O 	O 	0.5908	0.5629	0.0736	-0.48
Mof_C 	C 	0.7241	0.5794	0.07218	-0.122
Mof_C 	C 	0.747	0.6222	0.12082	0
Mof_H 	H 	0.7104	0.6361	0.1378	0.042
Mof_C 	C 	0.9093	0.3573	0.0456	0.408
Mof_O 	O 	0.8906	0.3703	0.99838	-0.491
Mof_O 	O 	0.9721	0.4092	0.0736	-0.48
Mof_C 	C 	0.8553	0.2759	0.07218	-0.122
Mof_C 	C 	0.8752	0.253	0.12082	0.001
Mof_H 	H 	0.9257	0.2896	0.1378	0.042
Mof_C 	C 	0.448	0.0907	0.0456	0.407
Mof_O 	O 	0.4797	0.1094	0.99838	-0.491
Mof_O 	O 	0.4371	0.0279	0.0736	-0.48
Mof_C 	C 	0.4206	0.1447	0.07218	-0.122
Mof_C 	C 	0.3778	0.1248	0.12082	0
Mof_H 	H 	0.3639	0.0743	0.1378	0.042
Mof_Zn	Zn	0.47293	0.52707	0.44989	1.2
Mof_Zn	Zn	0.47293	0.94585	0.44989	1.2
Mof_Zn	Zn	0.05415	0.52707	0.44989	1.2
Mof_Zn	Zn	0.52707	0.47293	0.94989	1.2
Mof_Zn	Zn	0.52707	0.05415	0.94989	1.2
Mof_Zn	Zn	0.94585	0.47293	0.94989	1.2
Mof_Zn	Zn	0.52707	0.47293	0.55011	1.2
Mof_Zn	Zn	0.94585	0.47293	0.55011	1.2
Mof_Zn	Zn	0.52707	0.05415	0.55011	1.2
Mof_Zn	Zn	0.47293	0.52707	0.05011	1.2
Mof_Zn	Zn	0.05415	0.52707	0.05011	1.2
Mof_Zn	Zn	0.47293	0.94585	0.05011	1.2
Mof_C 	C 	0.5565	0.77825	0.546	0.05
Mof_H 	H 	0.5275	0.76375	0.5126	0.033
Mof_C 	C 	0.6456	0.8228	0.6457	-0.012
Mof_C 	C 	0.6928	0.8464	0.6998	-0.022
Mof_H 	H 	0.5366	0.7683	0.7808	0.15
Mof_C 	C 	0.7753	0.88765	0.7006	-0.057
Mof_H 	H 	0.8045	0.90225	0.6674	0.052
Mof_C 	C 	0.22175	0.77825	0.546	0.05
Mof_H 	H 	0.23625	0.76375	0.5126	0.033
Mof_C 	C 	0.1772	0.8228	0.6457	-0.012
Mof_C 	C 	0.1536	0.8464	0.6998	-0.022
Mof_H 	H 	0.2317	0.7683	0.7808	0.15
Mof_C 	C 	0.11235	0.88765	0.7006	-0.057
Mof_H 	H 	0.09775	0.90225	0.6674	0.052
Mof_C 	C 	0.22175	0.4435	0.546	0.05
Mof_H 	H 	0.23625	0.4725	0.5126	0.033
Mof_C 	C 	0.1772	0.3544	0.6457	-0.012
Mof_C 	C 	0.1536	0.3072	0.6998	-0.022
Mof_H 	H 	0.2317	0.4634	0.7808	0.15
Mof_C 	C 	0.11235	0.2247	0.7006	-0.057
Mof_H 	H 	0.09775	0.1955	0.6674	0.052
Mof_C 	C 	0.4435	0.22175	0.046	0.05
Mof_H 	H 	0.4725	0.23625	0.0126	0.033
Mof_C 	C 	0.3544	0.1772	0.1457	-0.012
Mof_C 	C 	0.3072	0.1536	0.1998	-0.022
Mof_H 	H 	0.4634	0.2317	0.2808	0.15
Mof_C 	C 	0.2247	0.11235	0.2006	-0.057
Mof_H 	H 	0.1955	0.09775	0.1674	0.052
Mof_C 	C 	0.77825	0.22175	0.046	0.05
Mof_H 	H 	0.76375	0.23625	0.0126	0.033
Mof_C 	C 	0.8228	0.1772	0.1457	-0.012
Mof_C 	C 	0.8464	0.1536	0.1998	-0.022
Mof_H 	H 	0.7683	0.2317	0.2808	0.15
Mof_C 	C 	0.88765	0.11235	0.2006	-0.057
Mof_H 	H 	0.90225	0.09775	0.1674	0.052
Mof_C 	C 	0.77825	0.5565	0.046	0.05
Mof_H 	H 	0.76375	0.5275	0.0126	0.033
Mof_C 	C 	0.8228	0.6456	0.1457	-0.012
Mof_C 	C 	0.8464	0.6928	0.1998	-0.022
Mof_H 	H 	0.7683	0.5366	0.2808	0.15
Mof_C 	C 	0.88765	0.7753	0.2006	-0.057
Mof_H 	H 	0.90225	0.8045	0.1674	0.052
Mof_C 	C 	0.77825	0.5565	0.454	0.05
Mof_H 	H 	0.76375	0.5275	0.4874	0.033
Mof_C 	C 	0.8228	0.6456	0.3543	-0.012
Mof_C 	C 	0.8464	0.6928	0.3002	-0.022
Mof_H 	H 	0.7683	0.5366	0.2192	0.15
Mof_C 	C 	0.88765	0.7753	0.2994	-0.057
Mof_H 	H 	0.90225	0.8045	0.3326	0.052
Mof_C 	C 	0.77825	0.22175	0.454	0.05
Mof_H 	H 	0.76375	0.23625	0.4874	0.033
Mof_C 	C 	0.8228	0.1772	0.3543	-0.012
Mof_C 	C 	0.8464	0.1536	0.3002	-0.022
Mof_H 	H 	0.7683	0.2317	0.2192	0.15
Mof_C 	C 	0.88765	0.11235	0.2994	-0.057
Mof_H 	H 	0.90225	0.09775	0.3326	0.052
Mof_C 	C 	0.4435	0.22175	0.454	0.05
Mof_H 	H 	0.4725	0.23625	0.4874	0.033
Mof_C 	C 	0.3544	0.1772	0.3543	-0.012
Mof_C 	C 	0.3072	0.1536	0.3002	-0.022
Mof_H 	H 	0.4634	0.2317	0.2192	0.15
Mof_C 	C 	0.2247	0.11235	0.2994	-0.057
Mof_H 	H 	0.1955	0.09775	0.3326	0.052
Mof_C 	C 	0.22175	0.4435	0.954	0.05
Mof_H 	H 	0.23625	0.4725	0.9874	0.033
Mof_C 	C 	0.1772	0.3544	0.8543	-0.012
Mof_C 	C 	0.1536	0.3072	0.8002	-0.022
Mof_H 	H 	0.2317	0.4634	0.7192	0.15
Mof_C 	C 	0.11235	0.2247	0.7994	-0.057
Mof_H 	H 	0.09775	0.1955	0.8326	0.052
Mof_C 	C 	0.22175	0.77825	0.954	0.05
Mof_H 	H 	0.23625	0.76375	0.9874	0.033
Mof_C 	C 	0.1772	0.8228	0.8543	-0.012
Mof_C 	C 	0.1536	0.8464	0.8002	-0.022
Mof_H 	H 	0.2317	0.7683	0.7192	0.15
Mof_C 	C 	0.11235	0.88765	0.7994	-0.057
Mof_H 	H 	0.09775	0.90225	0.8326	0.052
Mof_C 	C 	0.5565	0.77825	0.954	0.05
Mof_H 	H 	0.5275	0.76375	0.9874	0.033
Mof_C 	C 	0.6456	0.8228	0.8543	-0.012
Mof_C 	C 	0.6928	0.8464	0.8002	-0.022
Mof_H 	H 	0.5366	0.7683	0.7192	0.15
Mof_C 	C 	0.7753	0.88765	0.7994	-0.057
Mof_H 	H 	0.8045	0.90225	0.8326	0.052
Mof_C 	C 	0.6509	0.82545	0.75	0.079
Mof_N 	N 	0.5634	0.7817	0.75	-0.301
Mof_C 	C 	0.8192	0.9096	0.75	-0.029
Mof_H 	H 	0.8774	0.9387	0.75	0.035
Mof_C 	C 	0.17455	0.82545	0.75	0.079
Mof_N 	N 	0.2183	0.7817	0.75	-0.301
Mof_C 	C 	0.0904	0.9096	0.75	-0.029
Mof_H 	H 	0.0613	0.9387	0.75	0.036
Mof_C 	C 	0.17455	0.3491	0.75	0.079
Mof_N 	N 	0.2183	0.4366	0.75	-0.301
Mof_C 	C 	0.0904	0.1808	0.75	-0.029
Mof_H 	H 	0.0613	0.1226	0.75	0.035
Mof_C 	C 	0.3491	0.17455	0.25	0.079
Mof_N 	N 	0.4366	0.2183	0.25	-0.301
Mof_C 	C 	0.1808	0.0904	0.25	-0.029
Mof_H 	H 	0.1226	0.0613	0.25	0.035
Mof_C 	C 	0.82545	0.17455	0.25	0.079
Mof_N 	N 	0.7817	0.2183	0.25	-0.301
Mof_C 	C 	0.9096	0.0904	0.25	-0.029
Mof_H 	H 	0.9387	0.0613	0.25	0.036
Mof_C 	C 	0.82545	0.6509	0.25	0.079
Mof_N 	N 	0.7817	0.5634	0.25	-0.301
Mof_C 	C 	0.9096	0.8192	0.25	-0.029
Mof_H 	H 	0.9387	0.8774	0.25	0.035
_end
