# CIF file generated by openbabel 3.1.0, see https://openbabel.org
data_I
_chemical_name_common 'image0'
_cell_length_a 10.393
_cell_length_b 23.046
_cell_length_c 28.526
_cell_angle_alpha 90
_cell_angle_beta 95.381
_cell_angle_gamma 90
_space_group_name_H-M_alt 'P 1'
_space_group_name_Hall 'P 1'
loop_
    _symmetry_equiv_pos_as_xyz
    x,y,z
loop_
    _atom_site_label
    _atom_site_type_symbol
    _atom_site_fract_x
    _atom_site_fract_y
    _atom_site_fract_z
    _atom_site_occupancy
    Cd1      Cd       0.52161    0.20250    0.02223    1.000
    C1       C        0.70860    0.21620    0.09380    1.000
    C2       C        0.81740    0.23050    0.13110    1.000
    C3       C        0.80460    0.22010    0.17740    1.000
    H1       H        0.73580    0.19750    0.18530    1.000
    C4       C        0.93020    0.25530    0.11990    1.000
    C5       C        0.95620    0.27200    0.06860    1.000
    C6       C        0.44670    0.06790    0.04800    1.000
    C7       C        0.54860    0.05610    0.08390    1.000
    H2       H        0.60680    0.08520    0.09380    1.000
    C8       C        0.56020    0.00540    0.10280    1.000
    H3       H        0.62370    0.99930    0.12750    1.000
    C9       C        0.48010    0.95920    0.08720    1.000
    H4       H        0.49270    0.92260    0.10040    1.000
    C10      C        0.37560    0.96920    0.04970    1.000
    H5       H        0.31930    0.93990    0.03850    1.000
    C11      C        0.36690    0.02480    0.03220    1.000
    C12      C        0.30860    0.10100    0.99260    1.000
    C13      C        0.23750    0.14320    0.95960    1.000
    C14      C        0.23040    0.13240    0.91160    1.000
    H6       H        0.26570    0.09900    0.89980    1.000
    C15      C        0.16840    0.17340    0.88190    1.000
    H7       H        0.16490    0.16880    0.84940    1.000
    C16      C        0.11210    0.22080    0.90080    1.000
    H8       H        0.07010    0.24790    0.88070    1.000
    C17      C        0.17710    0.19020    0.97650    1.000
    H9       H        0.17860    0.19510    0.00890    1.000
    C18      C        0.16600    0.01130    0.97630    1.000
    H10      H        0.19180    0.97130    0.97260    1.000
    H11      H        0.13490    0.02650    0.94560    1.000
    C19      C        0.05850    0.01520    0.01050    1.000
    H12      H        0.08820    0.99760    0.04040    1.000
    H13      H        0.03820    0.05560    0.01610    1.000
    N1       N        0.41170    0.11690    0.02340    1.000
    N2       N        0.27960    0.04690    0.99750    1.000
    N3       N        0.11600    0.22930    0.94820    1.000
    C20      C        0.13010    0.24460    0.23540    1.000
    O1       O        0.24650    0.23760    0.22510    1.000
    O2       O        0.70560    0.23750    0.05560    1.000
    O3       O        0.61760    0.18890    0.10360    1.000
    C21      C        0.89150    0.24220    0.21350    1.000
    C22      C        0.01200    0.25890    0.20110    1.000
    C23      C        0.01720    0.27330    0.15460    1.000
    H14      H        0.08480    0.29680    0.14680    1.000
    O4       O        0.90400    0.31550    0.05270    1.000
    O5       O        0.04620    0.24970    0.05060    1.000
    O6       O        0.74200    0.18350    0.05670    1.000
    O7       O        0.62100    0.22760    0.10140    1.000
    C24      C        0.91700    0.19560    0.20860    1.000
    C25      C        0.02200    0.22200    0.20120    1.000
    C26      C        0.05400    0.25340    0.15460    1.000
    H15      H        0.13460    0.26810    0.14880    1.000
    O8       O        0.00100    0.32000    0.06190    1.000
    O9       O        0.97670    0.23630    0.04530    1.000
    Cd2      Cd       0.02161    0.70250    0.02223    1.000
    C27      C        0.20860    0.71620    0.09380    1.000
    C28      C        0.31740    0.73050    0.13110    1.000
    C29      C        0.30460    0.72010    0.17740    1.000
    H16      H        0.23580    0.69750    0.18530    1.000
    C30      C        0.43020    0.75530    0.11990    1.000
    C31      C        0.45620    0.77200    0.06860    1.000
    C32      C        0.94670    0.56790    0.04800    1.000
    C33      C        0.04860    0.55610    0.08390    1.000
    H17      H        0.10680    0.58520    0.09380    1.000
    C34      C        0.06020    0.50540    0.10280    1.000
    H18      H        0.12370    0.49930    0.12750    1.000
    C35      C        0.98010    0.45920    0.08720    1.000
    H19      H        0.99270    0.42260    0.10040    1.000
    C36      C        0.87560    0.46920    0.04970    1.000
    H20      H        0.81930    0.43990    0.03850    1.000
    C37      C        0.86690    0.52480    0.03220    1.000
    C38      C        0.80860    0.60100    0.99260    1.000
    C39      C        0.73750    0.64320    0.95960    1.000
    C40      C        0.73040    0.63240    0.91160    1.000
    H21      H        0.76570    0.59900    0.89980    1.000
    C41      C        0.66840    0.67340    0.88190    1.000
    H22      H        0.66490    0.66880    0.84940    1.000
    C42      C        0.61210    0.72080    0.90080    1.000
    H23      H        0.57010    0.74790    0.88070    1.000
    C43      C        0.67710    0.69020    0.97650    1.000
    H24      H        0.67860    0.69510    0.00890    1.000
    C44      C        0.66600    0.51130    0.97630    1.000
    H25      H        0.69180    0.47130    0.97260    1.000
    H26      H        0.63490    0.52650    0.94560    1.000
    C45      C        0.55850    0.51520    0.01050    1.000
    H27      H        0.58820    0.49760    0.04040    1.000
    H28      H        0.53820    0.55560    0.01610    1.000
    N4       N        0.91170    0.61690    0.02340    1.000
    N5       N        0.77960    0.54690    0.99750    1.000
    N6       N        0.61600    0.72930    0.94820    1.000
    C46      C        0.63010    0.74460    0.23540    1.000
    O10      O        0.74650    0.73760    0.22510    1.000
    O11      O        0.20560    0.73750    0.05560    1.000
    O12      O        0.11760    0.68890    0.10360    1.000
    C47      C        0.39150    0.74220    0.21350    1.000
    C48      C        0.51200    0.75890    0.20110    1.000
    C49      C        0.51720    0.77330    0.15460    1.000
    H29      H        0.58480    0.79680    0.14680    1.000
    O13      O        0.40400    0.81550    0.05270    1.000
    O14      O        0.54620    0.74970    0.05060    1.000
    O15      O        0.24200    0.68350    0.05670    1.000
    O16      O        0.12100    0.72760    0.10140    1.000
    C50      C        0.41700    0.69560    0.20860    1.000
    C51      C        0.52200    0.72200    0.20120    1.000
    C52      C        0.55400    0.75340    0.15460    1.000
    H30      H        0.63460    0.76810    0.14880    1.000
    O17      O        0.50100    0.82000    0.06190    1.000
    O18      O        0.47670    0.73630    0.04530    1.000
    Cd3      Cd       0.47839    0.20250    0.47777    1.000
    C53      C        0.29140    0.21620    0.40620    1.000
    C54      C        0.18260    0.23050    0.36890    1.000
    C55      C        0.19540    0.22010    0.32260    1.000
    H31      H        0.26420    0.19750    0.31470    1.000
    C56      C        0.06980    0.25530    0.38010    1.000
    C57      C        0.04380    0.27200    0.43140    1.000
    C58      C        0.55330    0.06790    0.45200    1.000
    C59      C        0.45140    0.05610    0.41610    1.000
    H32      H        0.39320    0.08520    0.40620    1.000
    C60      C        0.43980    0.00540    0.39720    1.000
    H33      H        0.37630    0.99930    0.37250    1.000
    C61      C        0.51990    0.95920    0.41280    1.000
    H34      H        0.50730    0.92260    0.39960    1.000
    C62      C        0.62440    0.96920    0.45030    1.000
    H35      H        0.68070    0.93990    0.46150    1.000
    C63      C        0.63310    0.02480    0.46780    1.000
    C64      C        0.69140    0.10100    0.50740    1.000
    C65      C        0.76250    0.14320    0.54040    1.000
    C66      C        0.76960    0.13240    0.58840    1.000
    H36      H        0.73430    0.09900    0.60020    1.000
    C67      C        0.83160    0.17340    0.61810    1.000
    H37      H        0.83510    0.16880    0.65060    1.000
    C68      C        0.88790    0.22080    0.59920    1.000
    H38      H        0.92990    0.24790    0.61930    1.000
    C69      C        0.82290    0.19020    0.52350    1.000
    H39      H        0.82140    0.19510    0.49110    1.000
    C70      C        0.83400    0.01130    0.52370    1.000
    H40      H        0.80820    0.97130    0.52740    1.000
    H41      H        0.86510    0.02650    0.55440    1.000
    C71      C        0.94150    0.01520    0.48950    1.000
    H42      H        0.91180    0.99760    0.45960    1.000
    H43      H        0.96180    0.05560    0.48390    1.000
    N7       N        0.58830    0.11690    0.47660    1.000
    N8       N        0.72040    0.04690    0.50250    1.000
    N9       N        0.88400    0.22930    0.55180    1.000
    C72      C        0.86990    0.24460    0.26460    1.000
    O19      O        0.75350    0.23760    0.27490    1.000
    O20      O        0.29440    0.23750    0.44440    1.000
    O21      O        0.38240    0.18890    0.39640    1.000
    C73      C        0.10850    0.24220    0.28650    1.000
    C74      C        0.98800    0.25890    0.29890    1.000
    C75      C        0.98280    0.27330    0.34540    1.000
    H44      H        0.91520    0.29680    0.35320    1.000
    O22      O        0.09600    0.31550    0.44730    1.000
    O23      O        0.95380    0.24970    0.44940    1.000
    O24      O        0.25800    0.18350    0.44330    1.000
    O25      O        0.37900    0.22760    0.39860    1.000
    C76      C        0.08300    0.19560    0.29140    1.000
    C77      C        0.97800    0.22200    0.29880    1.000
    C78      C        0.94600    0.25340    0.34540    1.000
    H45      H        0.86540    0.26810    0.35120    1.000
    O26      O        0.99900    0.32000    0.43810    1.000
    O27      O        0.02330    0.23630    0.45470    1.000
    Cd4      Cd       0.97839    0.70250    0.47777    1.000
    C79      C        0.79140    0.71620    0.40620    1.000
    C80      C        0.68260    0.73050    0.36890    1.000
    C81      C        0.69540    0.72010    0.32260    1.000
    H46      H        0.76420    0.69750    0.31470    1.000
    C82      C        0.56980    0.75530    0.38010    1.000
    C83      C        0.54380    0.77200    0.43140    1.000
    C84      C        0.05330    0.56790    0.45200    1.000
    C85      C        0.95140    0.55610    0.41610    1.000
    H47      H        0.89320    0.58520    0.40620    1.000
    C86      C        0.93980    0.50540    0.39720    1.000
    H48      H        0.87630    0.49930    0.37250    1.000
    C87      C        0.01990    0.45920    0.41280    1.000
    H49      H        0.00730    0.42260    0.39960    1.000
    C88      C        0.12440    0.46920    0.45030    1.000
    H50      H        0.18070    0.43990    0.46150    1.000
    C89      C        0.13310    0.52480    0.46780    1.000
    C90      C        0.19140    0.60100    0.50740    1.000
    C91      C        0.26250    0.64320    0.54040    1.000
    C92      C        0.26960    0.63240    0.58840    1.000
    H51      H        0.23430    0.59900    0.60020    1.000
    C93      C        0.33160    0.67340    0.61810    1.000
    H52      H        0.33510    0.66880    0.65060    1.000
    C94      C        0.38790    0.72080    0.59920    1.000
    H53      H        0.42990    0.74790    0.61930    1.000
    C95      C        0.32290    0.69020    0.52350    1.000
    H54      H        0.32140    0.69510    0.49110    1.000
    C96      C        0.33400    0.51130    0.52370    1.000
    H55      H        0.30820    0.47130    0.52740    1.000
    H56      H        0.36510    0.52650    0.55440    1.000
    C97      C        0.44150    0.51520    0.48950    1.000
    H57      H        0.41180    0.49760    0.45960    1.000
    H58      H        0.46180    0.55560    0.48390    1.000
    N10      N        0.08830    0.61690    0.47660    1.000
    N11      N        0.22040    0.54690    0.50250    1.000
    N12      N        0.38400    0.72930    0.55180    1.000
    C98      C        0.36990    0.74460    0.26460    1.000
    O28      O        0.25350    0.73760    0.27490    1.000
    O29      O        0.79440    0.73750    0.44440    1.000
    O30      O        0.88240    0.68890    0.39640    1.000
    C99      C        0.60850    0.74220    0.28650    1.000
    C100     C        0.48800    0.75890    0.29890    1.000
    C101     C        0.48280    0.77330    0.34540    1.000
    H59      H        0.41520    0.79680    0.35320    1.000
    O31      O        0.59600    0.81550    0.44730    1.000
    O32      O        0.45380    0.74970    0.44940    1.000
    O33      O        0.75800    0.68350    0.44330    1.000
    O34      O        0.87900    0.72760    0.39860    1.000
    C102     C        0.58300    0.69560    0.29140    1.000
    C103     C        0.47800    0.72200    0.29880    1.000
    C104     C        0.44600    0.75340    0.34540    1.000
    H60      H        0.36540    0.76810    0.35120    1.000
    O35      O        0.49900    0.82000    0.43810    1.000
    O36      O        0.52330    0.73630    0.45470    1.000
    Cd5      Cd       0.47839    0.79750    0.97777    1.000
    C105     C        0.29140    0.78380    0.90620    1.000
    C106     C        0.18260    0.76950    0.86890    1.000
    C107     C        0.19540    0.77990    0.82260    1.000
    H61      H        0.26420    0.80250    0.81470    1.000
    C108     C        0.06980    0.74470    0.88010    1.000
    C109     C        0.04380    0.72800    0.93140    1.000
    C110     C        0.55330    0.93210    0.95200    1.000
    C111     C        0.45140    0.94390    0.91610    1.000
    H62      H        0.39320    0.91480    0.90620    1.000
    C112     C        0.43980    0.99460    0.89720    1.000
    H63      H        0.37630    0.00070    0.87250    1.000
    C113     C        0.51990    0.04080    0.91280    1.000
    H64      H        0.50730    0.07740    0.89960    1.000
    C114     C        0.62440    0.03080    0.95030    1.000
    H65      H        0.68070    0.06010    0.96150    1.000
    C115     C        0.63310    0.97520    0.96780    1.000
    C116     C        0.69140    0.89900    0.00740    1.000
    C117     C        0.76250    0.85680    0.04040    1.000
    C118     C        0.76960    0.86760    0.08840    1.000
    H66      H        0.73430    0.90100    0.10020    1.000
    C119     C        0.83160    0.82660    0.11810    1.000
    H67      H        0.83510    0.83120    0.15060    1.000
    C120     C        0.88790    0.77920    0.09920    1.000
    H68      H        0.92990    0.75210    0.11930    1.000
    C121     C        0.82290    0.80980    0.02350    1.000
    H69      H        0.82140    0.80490    0.99110    1.000
    C122     C        0.83400    0.98870    0.02370    1.000
    H70      H        0.80820    0.02870    0.02740    1.000
    H71      H        0.86510    0.97350    0.05440    1.000
    C123     C        0.94150    0.98480    0.98950    1.000
    H72      H        0.91180    0.00240    0.95960    1.000
    H73      H        0.96180    0.94440    0.98390    1.000
    N13      N        0.58830    0.88310    0.97660    1.000
    N14      N        0.72040    0.95310    0.00250    1.000
    N15      N        0.88400    0.77070    0.05180    1.000
    C124     C        0.86990    0.75540    0.76460    1.000
    O37      O        0.75350    0.76240    0.77490    1.000
    O38      O        0.29440    0.76250    0.94440    1.000
    O39      O        0.38240    0.81110    0.89640    1.000
    C125     C        0.10850    0.75780    0.78650    1.000
    C126     C        0.98800    0.74110    0.79890    1.000
    C127     C        0.98280    0.72670    0.84540    1.000
    H74      H        0.91520    0.70320    0.85320    1.000
    O40      O        0.09600    0.68450    0.94730    1.000
    O41      O        0.95380    0.75030    0.94940    1.000
    O42      O        0.25800    0.81650    0.94330    1.000
    O43      O        0.37900    0.77240    0.89860    1.000
    C128     C        0.08300    0.80440    0.79140    1.000
    C129     C        0.97800    0.77800    0.79880    1.000
    C130     C        0.94600    0.74660    0.84540    1.000
    H75      H        0.86540    0.73190    0.85120    1.000
    O44      O        0.99900    0.68000    0.93810    1.000
    O45      O        0.02330    0.76370    0.95470    1.000
    Cd6      Cd       0.97839    0.29750    0.97777    1.000
    C131     C        0.79140    0.28380    0.90620    1.000
    C132     C        0.68260    0.26950    0.86890    1.000
    C133     C        0.69540    0.27990    0.82260    1.000
    H76      H        0.76420    0.30250    0.81470    1.000
    C134     C        0.56980    0.24470    0.88010    1.000
    C135     C        0.54380    0.22800    0.93140    1.000
    C136     C        0.05330    0.43210    0.95200    1.000
    C137     C        0.95140    0.44390    0.91610    1.000
    H77      H        0.89320    0.41480    0.90620    1.000
    C138     C        0.93980    0.49460    0.89720    1.000
    H78      H        0.87630    0.50070    0.87250    1.000
    C139     C        0.01990    0.54080    0.91280    1.000
    H79      H        0.00730    0.57740    0.89960    1.000
    C140     C        0.12440    0.53080    0.95030    1.000
    H80      H        0.18070    0.56010    0.96150    1.000
    C141     C        0.13310    0.47520    0.96780    1.000
    C142     C        0.19140    0.39900    0.00740    1.000
    C143     C        0.26250    0.35680    0.04040    1.000
    C144     C        0.26960    0.36760    0.08840    1.000
    H81      H        0.23430    0.40100    0.10020    1.000
    C145     C        0.33160    0.32660    0.11810    1.000
    H82      H        0.33510    0.33120    0.15060    1.000
    C146     C        0.38790    0.27920    0.09920    1.000
    H83      H        0.42990    0.25210    0.11930    1.000
    C147     C        0.32290    0.30980    0.02350    1.000
    H84      H        0.32140    0.30490    0.99110    1.000
    C148     C        0.33400    0.48870    0.02370    1.000
    H85      H        0.30820    0.52870    0.02740    1.000
    H86      H        0.36510    0.47350    0.05440    1.000
    C149     C        0.44150    0.48480    0.98950    1.000
    H87      H        0.41180    0.50240    0.95960    1.000
    H88      H        0.46180    0.44440    0.98390    1.000
    N16      N        0.08830    0.38310    0.97660    1.000
    N17      N        0.22040    0.45310    0.00250    1.000
    N18      N        0.38400    0.27070    0.05180    1.000
    C150     C        0.36990    0.25540    0.76460    1.000
    O46      O        0.25350    0.26240    0.77490    1.000
    O47      O        0.79440    0.26250    0.94440    1.000
    O48      O        0.88240    0.31110    0.89640    1.000
    C151     C        0.60850    0.25780    0.78650    1.000
    C152     C        0.48800    0.24110    0.79890    1.000
    C153     C        0.48280    0.22670    0.84540    1.000
    H89      H        0.41520    0.20320    0.85320    1.000
    O49      O        0.59600    0.18450    0.94730    1.000
    O50      O        0.45380    0.25030    0.94940    1.000
    O51      O        0.75800    0.31650    0.94330    1.000
    O52      O        0.87900    0.27240    0.89860    1.000
    C154     C        0.58300    0.30440    0.79140    1.000
    C155     C        0.47800    0.27800    0.79880    1.000
    C156     C        0.44600    0.24660    0.84540    1.000
    H90      H        0.36540    0.23190    0.85120    1.000
    O53      O        0.49900    0.18000    0.93810    1.000
    O54      O        0.52330    0.26370    0.95470    1.000
    Cd7      Cd       0.52161    0.79750    0.52223    1.000
    C157     C        0.70860    0.78380    0.59380    1.000
    C158     C        0.81740    0.76950    0.63110    1.000
    C159     C        0.80460    0.77990    0.67740    1.000
    H91      H        0.73580    0.80250    0.68530    1.000
    C160     C        0.93020    0.74470    0.61990    1.000
    C161     C        0.95620    0.72800    0.56860    1.000
    C162     C        0.44670    0.93210    0.54800    1.000
    C163     C        0.54860    0.94390    0.58390    1.000
    H92      H        0.60680    0.91480    0.59380    1.000
    C164     C        0.56020    0.99460    0.60280    1.000
    H93      H        0.62370    0.00070    0.62750    1.000
    C165     C        0.48010    0.04080    0.58720    1.000
    H94      H        0.49270    0.07740    0.60040    1.000
    C166     C        0.37560    0.03080    0.54970    1.000
    H95      H        0.31930    0.06010    0.53850    1.000
    C167     C        0.36690    0.97520    0.53220    1.000
    C168     C        0.30860    0.89900    0.49260    1.000
    C169     C        0.23750    0.85680    0.45960    1.000
    C170     C        0.23040    0.86760    0.41160    1.000
    H96      H        0.26570    0.90100    0.39980    1.000
    C171     C        0.16840    0.82660    0.38190    1.000
    H97      H        0.16490    0.83120    0.34940    1.000
    C172     C        0.11210    0.77920    0.40080    1.000
    H98      H        0.07010    0.75210    0.38070    1.000
    C173     C        0.17710    0.80980    0.47650    1.000
    H99      H        0.17860    0.80490    0.50890    1.000
    C174     C        0.16600    0.98870    0.47630    1.000
    H100     H        0.19180    0.02870    0.47260    1.000
    H101     H        0.13490    0.97350    0.44560    1.000
    C175     C        0.05850    0.98480    0.51050    1.000
    H102     H        0.08820    0.00240    0.54040    1.000
    H103     H        0.03820    0.94440    0.51610    1.000
    N19      N        0.41170    0.88310    0.52340    1.000
    N20      N        0.27960    0.95310    0.49750    1.000
    N21      N        0.11600    0.77070    0.44820    1.000
    C176     C        0.13010    0.75540    0.73540    1.000
    O55      O        0.24650    0.76240    0.72510    1.000
    O56      O        0.70560    0.76250    0.55560    1.000
    O57      O        0.61760    0.81110    0.60360    1.000
    C177     C        0.89150    0.75780    0.71350    1.000
    C178     C        0.01200    0.74110    0.70110    1.000
    C179     C        0.01720    0.72670    0.65460    1.000
    H104     H        0.08480    0.70320    0.64680    1.000
    O58      O        0.90400    0.68450    0.55270    1.000
    O59      O        0.04620    0.75030    0.55060    1.000
    O60      O        0.74200    0.81650    0.55670    1.000
    O61      O        0.62100    0.77240    0.60140    1.000
    C180     C        0.91700    0.80440    0.70860    1.000
    C181     C        0.02200    0.77800    0.70120    1.000
    C182     C        0.05400    0.74660    0.65460    1.000
    H105     H        0.13460    0.73190    0.64880    1.000
    O62      O        0.00100    0.68000    0.56190    1.000
    O63      O        0.97670    0.76370    0.54530    1.000
    Cd8      Cd       0.02161    0.29750    0.52223    1.000
    C183     C        0.20860    0.28380    0.59380    1.000
    C184     C        0.31740    0.26950    0.63110    1.000
    C185     C        0.30460    0.27990    0.67740    1.000
    H106     H        0.23580    0.30250    0.68530    1.000
    C186     C        0.43020    0.24470    0.61990    1.000
    C187     C        0.45620    0.22800    0.56860    1.000
    C188     C        0.94670    0.43210    0.54800    1.000
    C189     C        0.04860    0.44390    0.58390    1.000
    H107     H        0.10680    0.41480    0.59380    1.000
    C190     C        0.06020    0.49460    0.60280    1.000
    H108     H        0.12370    0.50070    0.62750    1.000
    C191     C        0.98010    0.54080    0.58720    1.000
    H109     H        0.99270    0.57740    0.60040    1.000
    C192     C        0.87560    0.53080    0.54970    1.000
    H110     H        0.81930    0.56010    0.53850    1.000
    C193     C        0.86690    0.47520    0.53220    1.000
    C194     C        0.80860    0.39900    0.49260    1.000
    C195     C        0.73750    0.35680    0.45960    1.000
    C196     C        0.73040    0.36760    0.41160    1.000
    H111     H        0.76570    0.40100    0.39980    1.000
    C197     C        0.66840    0.32660    0.38190    1.000
    H112     H        0.66490    0.33120    0.34940    1.000
    C198     C        0.61210    0.27920    0.40080    1.000
    H113     H        0.57010    0.25210    0.38070    1.000
    C199     C        0.67710    0.30980    0.47650    1.000
    H114     H        0.67860    0.30490    0.50890    1.000
    C200     C        0.66600    0.48870    0.47630    1.000
    H115     H        0.69180    0.52870    0.47260    1.000
    H116     H        0.63490    0.47350    0.44560    1.000
    C201     C        0.55850    0.48480    0.51050    1.000
    H117     H        0.58820    0.50240    0.54040    1.000
    H118     H        0.53820    0.44440    0.51610    1.000
    N22      N        0.91170    0.38310    0.52340    1.000
    N23      N        0.77960    0.45310    0.49750    1.000
    N24      N        0.61600    0.27070    0.44820    1.000
    C202     C        0.63010    0.25540    0.73540    1.000
    O64      O        0.74650    0.26240    0.72510    1.000
    O65      O        0.20560    0.26250    0.55560    1.000
    O66      O        0.11760    0.31110    0.60360    1.000
    C203     C        0.39150    0.25780    0.71350    1.000
    C204     C        0.51200    0.24110    0.70110    1.000
    C205     C        0.51720    0.22670    0.65460    1.000
    H119     H        0.58480    0.20320    0.64680    1.000
    O67      O        0.40400    0.18450    0.55270    1.000
    O68      O        0.54620    0.25030    0.55060    1.000
    O69      O        0.24200    0.31650    0.55670    1.000
    O70      O        0.12100    0.27240    0.60140    1.000
    C206     C        0.41700    0.30440    0.70860    1.000
    C207     C        0.52200    0.27800    0.70120    1.000
    C208     C        0.55400    0.24660    0.65460    1.000
    H120     H        0.63460    0.23190    0.64880    1.000
    O71      O        0.50100    0.18000    0.56190    1.000
    O72      O        0.47670    0.26370    0.54530    1.000
