# CIF file generated by openbabel 3.1.0, see https://openbabel.org
data_I
_chemical_name_common 'image0'
_cell_length_a 10.54
_cell_length_b 10.05
_cell_length_c 14.37
_cell_angle_alpha 90
_cell_angle_beta 90
_cell_angle_gamma 90
_space_group_name_H-M_alt 'P 1'
_space_group_name_Hall 'P 1'
loop_
    _symmetry_equiv_pos_as_xyz
    x,y,z
loop_
    _atom_site_label
    _atom_site_type_symbol
    _atom_site_fract_x
    _atom_site_fract_y
    _atom_site_fract_z
    _atom_site_occupancy
    Zn1      Zn       0.40961    0.62734    0.55240    1.000
    Zn2      Zn       0.15272    0.13170    0.46357    1.000
    P1       P        0.18500    0.81290    0.49620    1.000
    P2       P        0.37520    0.32290    0.51120    1.000
    P3       P        0.04820    0.02200    0.26640    1.000
    O1       O        0.36880    0.46810    0.48160    1.000
    O2       O        0.26080    0.73600    0.56710    1.000
    O3       O        0.08720    0.12880    0.33590    1.000
    O4       O        0.20520    0.96050    0.50910    1.000
    O5       O        0.30610    0.23420    0.44230    1.000
    O6       O        0.04510    0.77510    0.49570    1.000
    O7       O        0.51150    0.27870    0.52790    1.000
    O8       O        0.02320    0.08060    0.17210    1.000
    O9       O        0.14390    0.90770    0.25980    1.000
    O10      O        0.23920    0.77160    0.39770    1.000
    O11      O        0.91880    0.96250    0.30230    1.000
    O12      O        0.30120    0.30370    0.60690    1.000
    Zn3      Zn       0.59039    0.37266    0.05240    1.000
    Zn4      Zn       0.84728    0.86830    0.96357    1.000
    P4       P        0.81500    0.18710    0.99620    1.000
    P5       P        0.62480    0.67710    0.01120    1.000
    P6       P        0.95180    0.97800    0.76640    1.000
    O13      O        0.63120    0.53190    0.98160    1.000
    O14      O        0.73920    0.26400    0.06710    1.000
    O15      O        0.91280    0.87120    0.83590    1.000
    O16      O        0.79480    0.03950    0.00910    1.000
    O17      O        0.69390    0.76580    0.94230    1.000
    O18      O        0.95490    0.22490    0.99570    1.000
    O19      O        0.48850    0.72130    0.02790    1.000
    O20      O        0.97680    0.91940    0.67210    1.000
    O21      O        0.85610    0.09230    0.75980    1.000
    O22      O        0.76080    0.22840    0.89770    1.000
    O23      O        0.08120    0.03750    0.80230    1.000
    O24      O        0.69880    0.69630    0.10690    1.000
    Zn5      Zn       0.90961    0.87266    0.55240    1.000
    Zn6      Zn       0.65272    0.36830    0.46357    1.000
    P7       P        0.68500    0.68710    0.49620    1.000
    P8       P        0.87520    0.17710    0.51120    1.000
    P9       P        0.54820    0.47800    0.26640    1.000
    O25      O        0.86880    0.03190    0.48160    1.000
    O26      O        0.76080    0.76400    0.56710    1.000
    O27      O        0.58720    0.37120    0.33590    1.000
    O28      O        0.70520    0.53950    0.50910    1.000
    O29      O        0.80610    0.26580    0.44230    1.000
    O30      O        0.54510    0.72490    0.49570    1.000
    O31      O        0.01150    0.22130    0.52790    1.000
    O32      O        0.52320    0.41940    0.17210    1.000
    O33      O        0.64390    0.59230    0.25980    1.000
    O34      O        0.73920    0.72840    0.39770    1.000
    O35      O        0.41880    0.53750    0.30230    1.000
    O36      O        0.80120    0.19630    0.60690    1.000
    Zn7      Zn       0.09039    0.12734    0.05240    1.000
    Zn8      Zn       0.34728    0.63170    0.96357    1.000
    P10      P        0.31500    0.31290    0.99620    1.000
    P11      P        0.12480    0.82290    0.01120    1.000
    P12      P        0.45180    0.52200    0.76640    1.000
    O37      O        0.13120    0.96810    0.98160    1.000
    O38      O        0.23920    0.23600    0.06710    1.000
    O39      O        0.41280    0.62880    0.83590    1.000
    O40      O        0.29480    0.46050    0.00910    1.000
    O41      O        0.19390    0.73420    0.94230    1.000
    O42      O        0.45490    0.27510    0.99570    1.000
    O43      O        0.98850    0.77870    0.02790    1.000
    O44      O        0.47680    0.58060    0.67210    1.000
    O45      O        0.35610    0.40770    0.75980    1.000
    O46      O        0.26080    0.27160    0.89770    1.000
    O47      O        0.58120    0.46250    0.80230    1.000
    O48      O        0.19880    0.80370    0.10690    1.000
