data_functionalizedCrystal
_audit_creation_method	'EQeq! by Chris Wilmer'
_symmetry_space_group_name_H-M	'P1'
_symmetry_Int_Tables_number	1
_symmetry_cell_setting	triclinic
loop_
_symmetry_equiv_pos_as_xyz
  x,y,z
_cell_length_a	11.6575
_cell_length_b	10.1053
_cell_length_c	14.879
_cell_angle_alpha	90
_cell_angle_beta	91.633
_cell_angle_gamma	90
loop_
_atom_site_label
_atom_site_type_symbol
_atom_site_fract_x
_atom_site_fract_y
_atom_site_fract_z
_atom_site_charge
Mof_Mn	Mn	0.73947	0.59944	0.31509	1.074
Mof_Mn	Mn	0.24317	0.58462	0.86883	1.033
Mof_O 	O 	0.09858	0.6626	0.93979	-0.679
Mof_O 	O 	0.68612	0.5288	0.02157	-0.55
Mof_O 	O 	0.85165	0.576	0.1975	-0.537
Mof_O 	O 	0.62704	0.4981	0.2196	-0.487
Mof_O 	O 	0.519	0.2876	0.00203	-0.433
Mof_O 	O 	0.69174	0.7919	0.25249	-0.511
Mof_O 	O 	0.1066	0.8796	0.90936	-0.658
Mof_O 	O 	0.65347	0.2367	0.10685	-0.503
Mof_O 	O 	0.46123	0.4977	0.14117	-0.405
Mof_O 	O 	0.6842	0.9247	0.13167	-0.391
Mof_O 	O 	0.0129	0.6116	0.12341	-0.5
Mof_O 	O 	0.8462	0.6074	0.96224	-0.317
Mof_C 	C 	0.9477	0.631	0.186	0.673
Mof_C 	C 	0.6694	0.8172	0.17	0.551
Mof_C 	C 	0.5735	0.2081	0.0495	0.474
Mof_C 	C 	0.5186	0.5092	0.2117	0.466
Mof_C 	C 	0.0654	0.7823	0.9473	1.409
Mof_C 	C 	0.7412	0.6028	0.9678	0.556
Mof_H 	H 	0.0188	0.7822	0.9777	-0.634
Mof_H 	H 	0.554	0.1131	0.0421	-0.132
Mof_H 	H 	0.6457	0.749	0.1344	-0.158
Mof_H 	H 	0.4781	0.513	0.2704	-0.082
Mof_H 	H 	0.6919	0.6642	0.9273	-0.067
Mof_H 	H 	0.9794	0.6817	0.2319	-0.157
Mof_Mn	Mn	0.76053	0.09944	0.18491	0.99
Mof_Mn	Mn	0.25683	0.08462	0.63117	0.953
Mof_O 	O 	0.40142	0.1626	0.56021	-0.742
Mof_O 	O 	0.81388	0.0288	0.47843	-0.486
Mof_O 	O 	0.64835	0.076	0.3025	-0.551
Mof_O 	O 	0.87296	0.9981	0.2804	-0.404
Mof_O 	O 	0.981	0.7876	0.49797	-0.305
Mof_O 	O 	0.80826	0.2919	0.24751	-0.502
Mof_O 	O 	0.3934	0.3796	0.59064	-0.699
Mof_O 	O 	0.84653	0.7367	0.39315	-0.48
Mof_O 	O 	0.03877	0.9977	0.35883	-0.37
Mof_O 	O 	0.8158	0.4247	0.36833	-0.412
Mof_O 	O 	0.4871	0.1116	0.37659	-0.43
Mof_O 	O 	0.6538	0.1074	0.53776	-0.392
Mof_C 	C 	0.5523	0.131	0.314	0.557
Mof_C 	C 	0.8306	0.3172	0.33	0.549
Mof_C 	C 	0.9265	0.7081	0.4505	0.452
Mof_C 	C 	0.9814	0.0092	0.2883	0.473
Mof_C 	C 	0.4346	0.2823	0.5527	1.498
Mof_C 	C 	0.7588	0.1028	0.5322	0.446
Mof_H 	H 	0.4812	0.2822	0.5223	-0.696
Mof_H 	H 	0.946	0.6131	0.4579	-0.059
Mof_H 	H 	0.8543	0.249	0.3656	-0.137
Mof_H 	H 	0.0219	0.013	0.2296	-0.167
Mof_H 	H 	0.8081	0.1642	0.5727	-0.05
Mof_H 	H 	0.5206	0.1817	0.2681	-0.155
Mof_Mn	Mn	0.26053	0.40056	0.68491	1.061
Mof_Mn	Mn	0.75683	0.41538	0.13117	1.045
Mof_O 	O 	0.90142	0.3374	0.06021	-0.714
Mof_O 	O 	0.31388	0.4712	0.97843	-0.364
Mof_O 	O 	0.14835	0.424	0.8025	-0.468
Mof_O 	O 	0.37296	0.5019	0.7804	-0.48
Mof_O 	O 	0.481	0.7124	0.99797	-0.325
Mof_O 	O 	0.30826	0.2081	0.74751	-0.513
Mof_O 	O 	0.8934	0.1204	0.09064	-0.708
Mof_O 	O 	0.34653	0.7633	0.89315	-0.48
Mof_O 	O 	0.53877	0.5023	0.85883	-0.355
Mof_O 	O 	0.3158	0.0753	0.86833	-0.454
Mof_O 	O 	0.9871	0.3884	0.87659	-0.243
Mof_O 	O 	0.1538	0.3926	0.03776	-0.383
Mof_C 	C 	0.0523	0.369	0.814	0.387
Mof_C 	C 	0.3306	0.1828	0.83	0.552
Mof_C 	C 	0.4265	0.7919	0.9505	0.452
Mof_C 	C 	0.4814	0.4908	0.7883	0.453
Mof_C 	C 	0.9346	0.2177	0.0527	1.48
Mof_C 	C 	0.2588	0.3972	0.0322	0.312
Mof_H 	H 	0.9812	0.2178	0.0223	-0.693
Mof_H 	H 	0.446	0.8869	0.9579	-0.037
Mof_H 	H 	0.3543	0.251	0.8656	-0.133
Mof_H 	H 	0.5219	0.487	0.7296	-0.068
Mof_H 	H 	0.3081	0.3358	0.0727	-0.05
Mof_H 	H 	0.0206	0.3183	0.7681	-0.112
Mof_Mn	Mn	0.23947	0.90056	0.81509	1.139
Mof_Mn	Mn	0.74317	0.91538	0.36883	1.126
Mof_O 	O 	0.59858	0.8374	0.43979	-0.706
Mof_O 	O 	0.18612	0.9712	0.52157	-0.409
Mof_O 	O 	0.35165	0.924	0.6975	-0.466
Mof_O 	O 	0.12704	0.0019	0.7196	-0.554
Mof_O 	O 	0.019	0.2124	0.50203	-0.421
Mof_O 	O 	0.19174	0.7081	0.75249	-0.52
Mof_O 	O 	0.6066	0.6204	0.40936	-0.691
Mof_O 	O 	0.15347	0.2633	0.60685	-0.496
Mof_O 	O 	0.96123	0.0023	0.64117	-0.356
Mof_O 	O 	0.1842	0.5753	0.63167	-0.435
Mof_O 	O 	0.5129	0.8884	0.62341	-0.359
Mof_O 	O 	0.3462	0.8926	0.46224	-0.347
Mof_C 	C 	0.4477	0.869	0.686	0.526
Mof_C 	C 	0.1694	0.6828	0.67	0.553
Mof_C 	C 	0.0735	0.2919	0.5495	0.461
Mof_C 	C 	0.0186	0.9908	0.7117	0.432
Mof_C 	C 	0.5654	0.7177	0.4473	1.474
Mof_C 	C 	0.2412	0.8972	0.4678	0.432
Mof_H 	H 	0.5188	0.7178	0.4777	-0.68
Mof_H 	H 	0.054	0.3869	0.5421	-0.105
Mof_H 	H 	0.1457	0.751	0.6344	-0.152
Mof_H 	H 	0.9781	0.987	0.7704	0.019
Mof_H 	H 	0.1919	0.8358	0.4273	-0.065
Mof_H 	H 	0.4794	0.8183	0.7319	-0.123
Mof_Mn	Mn	-0	0.5	-0	0.895
Mof_Mn	Mn	0.5	7.20391e-33	0.5	1.029
Mof_Mn	Mn	0.5	0.5	-0	0.909
Mof_Mn	Mn	2.02772e-18	7.20391e-33	0.5	0.812
_end
