data_functionalizedCrystal
_audit_creation_method	'EQeq! by Chris Wilmer'
_symmetry_space_group_name_H-M	'P1'
_symmetry_Int_Tables_number	1
_symmetry_cell_setting	triclinic
loop_
_symmetry_equiv_pos_as_xyz
  x,y,z
_cell_length_a	6.4355
_cell_length_b	13.462
_cell_length_c	13.753
_cell_angle_alpha	61.532
_cell_angle_beta	82.433
_cell_angle_gamma	81.244
loop_
_atom_site_label
_atom_site_type_symbol
_atom_site_fract_x
_atom_site_fract_y
_atom_site_fract_z
_atom_site_charge
Mof_Gd	Gd	0.5785	0.45097	0.82929	1.835
Mof_O 	O 	0.6364	0.6056	0.8469	-0.47
Mof_O 	O 	0.4471	0.636	0.97889	-0.477
Mof_O 	O 	0.7927	0.54047	0.10536	-0.449
Mof_O 	O 	0.0728	0.6017	0.12754	-0.476
Mof_O 	O 	0.5876	0.3805	0.3212	-0.471
Mof_O 	O 	0.9273	0.3513	0.2755	-0.558
Mof_H 	H 	0.8912	0.3858	0.2132	0.33
Mof_O 	O 	0.3907	0.3784	0.7343	-0.393
Mof_O 	O 	0.5824	0.2531	0.8695	-0.408
Mof_C 	C 	0.6012	0.6508	0.9095	0.447
Mof_C 	C 	0.9199	0.6157	0.0735	0.429
Mof_C 	C 	0.8862	0.7235	0.9685	-0.088
Mof_C 	C 	0.748	0.7369	0.8914	-0.079
Mof_C 	C 	0.7412	0.8359	0.791	-0.006
Mof_H 	H 	0.6542	0.8432	0.7386	0.042
Mof_C 	C 	0.8594	0.9249	0.7656	-0.032
Mof_C 	C 	0.9889	0.9153	0.846	-0.012
Mof_C 	C 	0.0021	0.8128	0.9443	-0.013
Mof_H 	H 	0.0925	0.8039	0.996	0.048
Mof_C 	C 	0.8405	0.0272	0.6521	0.104
Mof_C 	C 	0.0134	0.069	0.5825	-0.165
Mof_H 	H 	0.1473	0.0335	0.604	0.092
Mof_C 	C 	0.9903	0.1646	0.4794	0.1
Mof_H 	H 	0.1081	0.1924	0.4319	0.017
Mof_C 	C 	0.7895	0.2184	0.4481	-0.192
Mof_C 	C 	0.6141	0.1744	0.5185	0.106
Mof_H 	H 	0.4798	0.2093	0.4974	0.003
Mof_C 	C 	0.6389	0.0792	0.6195	-0.174
Mof_H 	H 	0.5211	0.0494	0.6661	0.093
Mof_C 	C 	0.7598	0.3236	0.3414	0.491
Mof_C 	C 	0.1074	0.0099	0.8331	0.068
Mof_C 	C 	0.0197	0.1221	0.7827	-0.127
Mof_H 	H 	0.8862	0.1396	0.7562	0.083
Mof_C 	C 	0.13	0.2082	0.7715	0.05
Mof_H 	H 	0.0716	0.2834	0.7358	0.017
Mof_C 	C 	0.3266	0.1833	0.8132	-0.107
Mof_C 	C 	0.413	0.0699	0.8667	0.035
Mof_H 	H 	0.5437	0.052	0.8961	0.032
Mof_C 	C 	0.304	0.984	0.8758	-0.121
Mof_H 	H 	0.3628	0.9089	0.9107	0.086
Mof_C 	C 	0.4424	0.2759	0.8044	0.309
Mof_Gd	Gd	0.4215	0.54903	0.17071	1.836
Mof_O 	O 	0.3636	0.3944	0.1531	-0.469
Mof_O 	O 	0.5529	0.364	0.02111	-0.477
Mof_O 	O 	0.2073	0.45953	0.89464	-0.449
Mof_O 	O 	0.9272	0.3983	0.87246	-0.476
Mof_O 	O 	0.4124	0.6195	0.6788	-0.471
Mof_O 	O 	0.0727	0.6487	0.7245	-0.558
Mof_H 	H 	0.1088	0.6142	0.7868	0.33
Mof_O 	O 	0.6093	0.6216	0.2657	-0.393
Mof_O 	O 	0.4176	0.7469	0.1305	-0.408
Mof_C 	C 	0.3988	0.3492	0.0905	0.447
Mof_C 	C 	0.0801	0.3843	0.9265	0.429
Mof_C 	C 	0.1138	0.2765	0.0315	-0.088
Mof_C 	C 	0.252	0.2631	0.1086	-0.079
Mof_C 	C 	0.2588	0.1641	0.209	-0.006
Mof_H 	H 	0.3458	0.1568	0.2614	0.042
Mof_C 	C 	0.1406	0.0751	0.2344	-0.032
Mof_C 	C 	0.0111	0.0847	0.154	-0.012
Mof_C 	C 	0.9979	0.1872	0.0557	-0.013
Mof_H 	H 	0.9075	0.1961	0.004	0.048
Mof_C 	C 	0.1595	0.9728	0.3479	0.104
Mof_C 	C 	0.9866	0.931	0.4175	-0.165
Mof_H 	H 	0.8527	0.9665	0.396	0.092
Mof_C 	C 	0.0097	0.8354	0.5206	0.1
Mof_H 	H 	0.8919	0.8076	0.5681	0.017
Mof_C 	C 	0.2105	0.7816	0.5519	-0.192
Mof_C 	C 	0.3859	0.8256	0.4815	0.106
Mof_H 	H 	0.5202	0.7907	0.5026	0.003
Mof_C 	C 	0.3611	0.9208	0.3805	-0.174
Mof_H 	H 	0.4789	0.9506	0.3339	0.093
Mof_C 	C 	0.2402	0.6764	0.6586	0.491
Mof_C 	C 	0.8926	0.9901	0.1669	0.068
Mof_C 	C 	0.9803	0.8779	0.2173	-0.127
Mof_H 	H 	0.1138	0.8604	0.2438	0.083
Mof_C 	C 	0.87	0.7918	0.2285	0.05
Mof_H 	H 	0.9284	0.7166	0.2642	0.017
Mof_C 	C 	0.6734	0.8167	0.1868	-0.107
Mof_C 	C 	0.587	0.9301	0.1333	0.035
Mof_H 	H 	0.4563	0.948	0.1039	0.032
Mof_C 	C 	0.696	0.016	0.1242	-0.121
Mof_H 	H 	0.6372	0.0911	0.0893	0.086
Mof_C 	C 	0.5576	0.7241	0.1956	0.309
_end
