# CIF file generated by openbabel 3.1.0, see https://openbabel.org
data_I
_chemical_name_common 'image0'
_cell_length_a 13.022
_cell_length_b 18.755
_cell_length_c 13.403
_cell_angle_alpha 90
_cell_angle_beta 107.72
_cell_angle_gamma 90
_space_group_name_H-M_alt 'P 1'
_space_group_name_Hall 'P 1'
loop_
    _symmetry_equiv_pos_as_xyz
    x,y,z
loop_
    _atom_site_label
    _atom_site_type_symbol
    _atom_site_fract_x
    _atom_site_fract_y
    _atom_site_fract_z
    _atom_site_occupancy
    Ag1      Ag       0.00213    0.01581    0.88026    1.000
    C1       C        0.24290    0.03720    0.71270    1.000
    H1       H        0.25780    0.99390    0.68650    1.000
    C2       C        0.15940    0.13020    0.74290    1.000
    H2       H        0.10470    0.16250    0.74100    1.000
    C3       C        0.26330    0.13760    0.80060    1.000
    H3       H        0.29370    0.17540    0.84450    1.000
    C4       C        0.43100    0.06050    0.83160    1.000
    H4       H        0.44520    0.05680    0.90680    1.000
    H5       H        0.44790    0.01500    0.80600    1.000
    C5       C        0.50080    0.11750    0.80790    1.000
    H6       H        0.52350    0.16360    0.67540    1.000
    H7       H        0.42570    0.11070    0.64760    1.000
    C6       C        0.85710    0.88970    0.62880    1.000
    H8       H        0.91950    0.86360    0.65930    1.000
    C7       C        0.74910    0.97410    0.55550    1.000
    H9       H        0.72320    0.01790    0.52580    1.000
    C8       C        0.68760    0.91850    0.56550    1.000
    H10      H        0.61260    0.91690    0.54460    1.000
    C9       C        0.72880    0.79120    0.62620    1.000
    H11      H        0.78800    0.76870    0.67880    1.000
    H12      H        0.66610    0.79020    0.65090    1.000
    C10      C        0.70440    0.74940    0.52390    1.000
    H13      H        0.85970    0.73100    0.52600    1.000
    H14      H        0.81090    0.79980    0.46300    1.000
    N1       N        0.14640    0.06770    0.68730    1.000
    N2       N        0.31560    0.07750    0.78110    1.000
    N3       N        0.85600    0.95600    0.59600    1.000
    N4       N        0.75670    0.86480    0.61240    1.000
    Ag2      Ag       0.99787    0.01581    0.61974    1.000
    C11      C        0.75710    0.03720    0.78730    1.000
    H15      H        0.74220    0.99390    0.81350    1.000
    C12      C        0.84060    0.13020    0.75710    1.000
    H16      H        0.89530    0.16250    0.75900    1.000
    C13      C        0.73670    0.13760    0.69940    1.000
    H17      H        0.70630    0.17540    0.65550    1.000
    C14      C        0.56900    0.06050    0.66840    1.000
    H18      H        0.55480    0.05680    0.59320    1.000
    H19      H        0.55210    0.01500    0.69400    1.000
    C15      C        0.49920    0.11750    0.69210    1.000
    H20      H        0.47650    0.16360    0.82460    1.000
    H21      H        0.57430    0.11070    0.85240    1.000
    C16      C        0.14290    0.88970    0.87120    1.000
    H22      H        0.08050    0.86360    0.84070    1.000
    C17      C        0.25090    0.97410    0.94450    1.000
    H23      H        0.27680    0.01790    0.97420    1.000
    C18      C        0.31240    0.91850    0.93450    1.000
    H24      H        0.38740    0.91690    0.95540    1.000
    C19      C        0.27120    0.79120    0.87380    1.000
    H25      H        0.21200    0.76870    0.82120    1.000
    H26      H        0.33390    0.79020    0.84910    1.000
    C20      C        0.29560    0.74940    0.97610    1.000
    H27      H        0.14030    0.73100    0.97400    1.000
    H28      H        0.18910    0.79980    0.03700    1.000
    N5       N        0.85360    0.06770    0.81270    1.000
    N6       N        0.68440    0.07750    0.71890    1.000
    N7       N        0.14400    0.95600    0.90400    1.000
    N8       N        0.24330    0.86480    0.88760    1.000
    Ag3      Ag       0.49787    0.48419    0.11974    1.000
    C21      C        0.25710    0.46280    0.28730    1.000
    H29      H        0.24220    0.50610    0.31350    1.000
    C22      C        0.34060    0.36980    0.25710    1.000
    H30      H        0.39530    0.33750    0.25900    1.000
    C23      C        0.23670    0.36240    0.19940    1.000
    H31      H        0.20630    0.32460    0.15550    1.000
    C24      C        0.06900    0.43950    0.16840    1.000
    H32      H        0.05480    0.44320    0.09320    1.000
    H33      H        0.05210    0.48500    0.19400    1.000
    C25      C        0.99920    0.38250    0.19210    1.000
    H34      H        0.97650    0.33640    0.32460    1.000
    H35      H        0.07430    0.38930    0.35240    1.000
    C26      C        0.64290    0.61030    0.37120    1.000
    H36      H        0.58050    0.63640    0.34070    1.000
    C27      C        0.75090    0.52590    0.44450    1.000
    H37      H        0.77680    0.48210    0.47420    1.000
    C28      C        0.81240    0.58150    0.43450    1.000
    H38      H        0.88740    0.58310    0.45540    1.000
    C29      C        0.77120    0.70880    0.37380    1.000
    H39      H        0.71200    0.73130    0.32120    1.000
    H40      H        0.83390    0.70980    0.34910    1.000
    C30      C        0.79560    0.75060    0.47610    1.000
    H41      H        0.64030    0.76900    0.47400    1.000
    H42      H        0.68910    0.70020    0.53700    1.000
    N9       N        0.35360    0.43230    0.31270    1.000
    N10      N        0.18440    0.42250    0.21890    1.000
    N11      N        0.64400    0.54400    0.40400    1.000
    N12      N        0.74330    0.63520    0.38760    1.000
    Ag4      Ag       0.50213    0.48419    0.38026    1.000
    C31      C        0.74290    0.46280    0.21270    1.000
    H43      H        0.75780    0.50610    0.18650    1.000
    C32      C        0.65940    0.36980    0.24290    1.000
    H44      H        0.60470    0.33750    0.24100    1.000
    C33      C        0.76330    0.36240    0.30060    1.000
    H45      H        0.79370    0.32460    0.34450    1.000
    C34      C        0.93100    0.43950    0.33160    1.000
    H46      H        0.94520    0.44320    0.40680    1.000
    H47      H        0.94790    0.48500    0.30600    1.000
    C35      C        0.00080    0.38250    0.30790    1.000
    H48      H        0.02350    0.33640    0.17540    1.000
    H49      H        0.92570    0.38930    0.14760    1.000
    C36      C        0.35710    0.61030    0.12880    1.000
    H50      H        0.41950    0.63640    0.15930    1.000
    C37      C        0.24910    0.52590    0.05550    1.000
    H51      H        0.22320    0.48210    0.02580    1.000
    C38      C        0.18760    0.58150    0.06550    1.000
    H52      H        0.11260    0.58310    0.04460    1.000
    C39      C        0.22880    0.70880    0.12620    1.000
    H53      H        0.28800    0.73130    0.17880    1.000
    H54      H        0.16610    0.70980    0.15090    1.000
    C40      C        0.20440    0.75060    0.02390    1.000
    H55      H        0.35970    0.76900    0.02600    1.000
    H56      H        0.31090    0.70020    0.96300    1.000
    N13      N        0.64640    0.43230    0.18730    1.000
    N14      N        0.81560    0.42250    0.28110    1.000
    N15      N        0.35600    0.54400    0.09600    1.000
    N16      N        0.25670    0.63520    0.11240    1.000
    Ag5      Ag       0.50213    0.51581    0.88026    1.000
    C41      C        0.74290    0.53720    0.71270    1.000
    H57      H        0.75780    0.49390    0.68650    1.000
    C42      C        0.65940    0.63020    0.74290    1.000
    H58      H        0.60470    0.66250    0.74100    1.000
    C43      C        0.76330    0.63760    0.80060    1.000
    H59      H        0.79370    0.67540    0.84450    1.000
    C44      C        0.93100    0.56050    0.83160    1.000
    H60      H        0.94520    0.55680    0.90680    1.000
    H61      H        0.94790    0.51500    0.80600    1.000
    C45      C        0.00080    0.61750    0.80790    1.000
    H62      H        0.02350    0.66360    0.67540    1.000
    H63      H        0.92570    0.61070    0.64760    1.000
    C46      C        0.35710    0.38970    0.62880    1.000
    H64      H        0.41950    0.36360    0.65930    1.000
    C47      C        0.24910    0.47410    0.55550    1.000
    H65      H        0.22320    0.51790    0.52580    1.000
    C48      C        0.18760    0.41850    0.56550    1.000
    H66      H        0.11260    0.41690    0.54460    1.000
    C49      C        0.22880    0.29120    0.62620    1.000
    H67      H        0.28800    0.26870    0.67880    1.000
    H68      H        0.16610    0.29020    0.65090    1.000
    C50      C        0.20440    0.24940    0.52390    1.000
    H69      H        0.35970    0.23100    0.52600    1.000
    H70      H        0.31090    0.29980    0.46300    1.000
    N17      N        0.64640    0.56770    0.68730    1.000
    N18      N        0.81560    0.57750    0.78110    1.000
    N19      N        0.35600    0.45600    0.59600    1.000
    N20      N        0.25670    0.36480    0.61240    1.000
    Ag6      Ag       0.49787    0.51581    0.61974    1.000
    C51      C        0.25710    0.53720    0.78730    1.000
    H71      H        0.24220    0.49390    0.81350    1.000
    C52      C        0.34060    0.63020    0.75710    1.000
    H72      H        0.39530    0.66250    0.75900    1.000
    C53      C        0.23670    0.63760    0.69940    1.000
    H73      H        0.20630    0.67540    0.65550    1.000
    C54      C        0.06900    0.56050    0.66840    1.000
    H74      H        0.05480    0.55680    0.59320    1.000
    H75      H        0.05210    0.51500    0.69400    1.000
    C55      C        0.99920    0.61750    0.69210    1.000
    H76      H        0.97650    0.66360    0.82460    1.000
    H77      H        0.07430    0.61070    0.85240    1.000
    C56      C        0.64290    0.38970    0.87120    1.000
    H78      H        0.58050    0.36360    0.84070    1.000
    C57      C        0.75090    0.47410    0.94450    1.000
    H79      H        0.77680    0.51790    0.97420    1.000
    C58      C        0.81240    0.41850    0.93450    1.000
    H80      H        0.88740    0.41690    0.95540    1.000
    C59      C        0.77120    0.29120    0.87380    1.000
    H81      H        0.71200    0.26870    0.82120    1.000
    H82      H        0.83390    0.29020    0.84910    1.000
    C60      C        0.79560    0.24940    0.97610    1.000
    H83      H        0.64030    0.23100    0.97400    1.000
    H84      H        0.68910    0.29980    0.03700    1.000
    N21      N        0.35360    0.56770    0.81270    1.000
    N22      N        0.18440    0.57750    0.71890    1.000
    N23      N        0.64400    0.45600    0.90400    1.000
    N24      N        0.74330    0.36480    0.88760    1.000
    Ag7      Ag       0.99787    0.98419    0.11974    1.000
    C61      C        0.75710    0.96280    0.28730    1.000
    H85      H        0.74220    0.00610    0.31350    1.000
    C62      C        0.84060    0.86980    0.25710    1.000
    H86      H        0.89530    0.83750    0.25900    1.000
    C63      C        0.73670    0.86240    0.19940    1.000
    H87      H        0.70630    0.82460    0.15550    1.000
    C64      C        0.56900    0.93950    0.16840    1.000
    H88      H        0.55480    0.94320    0.09320    1.000
    H89      H        0.55210    0.98500    0.19400    1.000
    C65      C        0.49920    0.88250    0.19210    1.000
    H90      H        0.47650    0.83640    0.32460    1.000
    H91      H        0.57430    0.88930    0.35240    1.000
    C66      C        0.14290    0.11030    0.37120    1.000
    H92      H        0.08050    0.13640    0.34070    1.000
    C67      C        0.25090    0.02590    0.44450    1.000
    H93      H        0.27680    0.98210    0.47420    1.000
    C68      C        0.31240    0.08150    0.43450    1.000
    H94      H        0.38740    0.08310    0.45540    1.000
    C69      C        0.27120    0.20880    0.37380    1.000
    H95      H        0.21200    0.23130    0.32120    1.000
    H96      H        0.33390    0.20980    0.34910    1.000
    C70      C        0.29560    0.25060    0.47610    1.000
    H97      H        0.14030    0.26900    0.47400    1.000
    H98      H        0.18910    0.20020    0.53700    1.000
    N25      N        0.85360    0.93230    0.31270    1.000
    N26      N        0.68440    0.92250    0.21890    1.000
    N27      N        0.14400    0.04400    0.40400    1.000
    N28      N        0.24330    0.13520    0.38760    1.000
    Ag8      Ag       0.00213    0.98419    0.38026    1.000
    C71      C        0.24290    0.96280    0.21270    1.000
    H99      H        0.25780    0.00610    0.18650    1.000
    C72      C        0.15940    0.86980    0.24290    1.000
    H100     H        0.10470    0.83750    0.24100    1.000
    C73      C        0.26330    0.86240    0.30060    1.000
    H101     H        0.29370    0.82460    0.34450    1.000
    C74      C        0.43100    0.93950    0.33160    1.000
    H102     H        0.44520    0.94320    0.40680    1.000
    H103     H        0.44790    0.98500    0.30600    1.000
    C75      C        0.50080    0.88250    0.30790    1.000
    H104     H        0.52350    0.83640    0.17540    1.000
    H105     H        0.42570    0.88930    0.14760    1.000
    C76      C        0.85710    0.11030    0.12880    1.000
    H106     H        0.91950    0.13640    0.15930    1.000
    C77      C        0.74910    0.02590    0.05550    1.000
    H107     H        0.72320    0.98210    0.02580    1.000
    C78      C        0.68760    0.08150    0.06550    1.000
    H108     H        0.61260    0.08310    0.04460    1.000
    C79      C        0.72880    0.20880    0.12620    1.000
    H109     H        0.78800    0.23130    0.17880    1.000
    H110     H        0.66610    0.20980    0.15090    1.000
    C80      C        0.70440    0.25060    0.02390    1.000
    H111     H        0.85970    0.26900    0.02600    1.000
    H112     H        0.81090    0.20020    0.96300    1.000
    N29      N        0.14640    0.93230    0.18730    1.000
    N30      N        0.31560    0.92250    0.28110    1.000
    N31      N        0.85600    0.04400    0.09600    1.000
    N32      N        0.75670    0.13520    0.11240    1.000
