# CIF file generated by openbabel 3.1.0, see https://openbabel.org
data_I
_chemical_name_common 'UKUPUL_clean'
_cell_length_a 16.169
_cell_length_b 16.169
_cell_length_c 18.199
_cell_angle_alpha 90
_cell_angle_beta 90
_cell_angle_gamma 90
_space_group_name_H-M_alt 'P 1'
_space_group_name_Hall 'P 1'
loop_
    _symmetry_equiv_pos_as_xyz
    x,y,z
loop_
    _atom_site_label
    _atom_site_type_symbol
    _atom_site_fract_x
    _atom_site_fract_y
    _atom_site_fract_z
    _atom_site_occupancy
    V1       V        0.00420    0.82246    0.86407    1.000
    V2       V        0.17532    0.83103    0.00010    1.000
    V3       V        0.24685    0.00457    0.99245    1.000
    V4       V        0.21390    0.25140    0.72758    1.000
    V5       V        0.99580    0.17754    0.86407    1.000
    V6       V        0.82468    0.16897    0.00010    1.000
    V7       V        0.75315    0.99543    0.99245    1.000
    V8       V        0.78610    0.74860    0.72758    1.000
    V9       V        0.82246    0.99580    0.13593    1.000
    V10      V        0.83103    0.82468    0.99990    1.000
    V11      V        0.00457    0.75315    0.00755    1.000
    V12      V        0.25140    0.78610    0.27242    1.000
    V13      V        0.17754    0.00420    0.13593    1.000
    V14      V        0.16897    0.17532    0.99990    1.000
    V15      V        0.99543    0.24685    0.00755    1.000
    V16      V        0.74860    0.21390    0.27242    1.000
    V17      V        0.49580    0.32246    0.63593    1.000
    V18      V        0.32468    0.33103    0.49990    1.000
    V19      V        0.25315    0.50457    0.50755    1.000
    V20      V        0.28610    0.75140    0.77242    1.000
    V21      V        0.50420    0.67754    0.63593    1.000
    V22      V        0.67532    0.66897    0.49990    1.000
    V23      V        0.74685    0.49543    0.50755    1.000
    V24      V        0.71390    0.24860    0.77242    1.000
    V25      V        0.67754    0.49580    0.36407    1.000
    V26      V        0.66897    0.32468    0.50010    1.000
    V27      V        0.49543    0.25315    0.49245    1.000
    V28      V        0.24860    0.28610    0.22758    1.000
    V29      V        0.32246    0.50420    0.36407    1.000
    V30      V        0.33103    0.67532    0.50010    1.000
    V31      V        0.50457    0.74685    0.49245    1.000
    V32      V        0.75140    0.71390    0.22758    1.000
    V33      V        0.00000    0.00000    0.79698    1.000
    V34      V        0.00000    0.00000    0.20302    1.000
    V35      V        0.50000    0.50000    0.70302    1.000
    V36      V        0.50000    0.50000    0.29698    1.000
    Si1      Si       0.17700    0.09300    0.83770    1.000
    Si2      Si       0.17990    0.91460    0.83780    1.000
    Si3      Si       0.82300    0.90700    0.83770    1.000
    Si4      Si       0.82010    0.08540    0.83780    1.000
    Si5      Si       0.09300    0.82300    0.16230    1.000
    Si6      Si       0.91460    0.82010    0.16220    1.000
    Si7      Si       0.90700    0.17700    0.16230    1.000
    Si8      Si       0.08540    0.17990    0.16220    1.000
    Si9      Si       0.32300    0.59300    0.66230    1.000
    Si10     Si       0.32010    0.41460    0.66220    1.000
    Si11     Si       0.67700    0.40700    0.66230    1.000
    Si12     Si       0.67990    0.58540    0.66220    1.000
    Si13     Si       0.40700    0.32300    0.33770    1.000
    Si14     Si       0.58540    0.32010    0.33780    1.000
    Si15     Si       0.59300    0.67700    0.33770    1.000
    Si16     Si       0.41460    0.67990    0.33780    1.000
    H1       H        0.28880    0.07300    0.70690    1.000
    H2       H        0.24350    0.07820    0.63120    1.000
    H3       H        0.41530    0.06260    0.64620    1.000
    H4       H        0.36970    0.06720    0.57080    1.000
    H5       H        0.41790    0.93570    0.60810    1.000
    H6       H        0.32900    0.93990    0.57520    1.000
    H7       H        0.36920    0.92810    0.71330    1.000
    H8       H        0.28020    0.93520    0.68220    1.000
    H9       H        0.71120    0.92700    0.70690    1.000
    H10      H        0.75650    0.92180    0.63120    1.000
    H11      H        0.58470    0.93740    0.64620    1.000
    H12      H        0.63030    0.93280    0.57080    1.000
    H13      H        0.58210    0.06430    0.60810    1.000
    H14      H        0.67100    0.06010    0.57520    1.000
    H15      H        0.63080    0.07190    0.71330    1.000
    H16      H        0.71980    0.06480    0.68220    1.000
    H17      H        0.07300    0.71120    0.29310    1.000
    H18      H        0.07820    0.75650    0.36880    1.000
    H19      H        0.06260    0.58470    0.35380    1.000
    H20      H        0.06720    0.63030    0.42920    1.000
    H21      H        0.93570    0.58210    0.39190    1.000
    H22      H        0.93990    0.67100    0.42480    1.000
    H23      H        0.92810    0.63080    0.28670    1.000
    H24      H        0.93520    0.71980    0.31780    1.000
    H25      H        0.92700    0.28880    0.29310    1.000
    H26      H        0.92180    0.24350    0.36880    1.000
    H27      H        0.93740    0.41530    0.35380    1.000
    H28      H        0.93280    0.36970    0.42920    1.000
    H29      H        0.06430    0.41790    0.39190    1.000
    H30      H        0.06010    0.32900    0.42480    1.000
    H31      H        0.07190    0.36920    0.28670    1.000
    H32      H        0.06480    0.28020    0.31780    1.000
    H33      H        0.21120    0.57300    0.79310    1.000
    H34      H        0.25650    0.57820    0.86880    1.000
    H35      H        0.08470    0.56260    0.85380    1.000
    H36      H        0.13030    0.56720    0.92920    1.000
    H37      H        0.08210    0.43570    0.89190    1.000
    H38      H        0.17100    0.43990    0.92480    1.000
    H39      H        0.13080    0.42810    0.78670    1.000
    H40      H        0.21980    0.43520    0.81780    1.000
    H41      H        0.78880    0.42700    0.79310    1.000
    H42      H        0.74350    0.42180    0.86880    1.000
    H43      H        0.91530    0.43740    0.85380    1.000
    H44      H        0.86970    0.43280    0.92920    1.000
    H45      H        0.91790    0.56430    0.89190    1.000
    H46      H        0.82900    0.56010    0.92480    1.000
    H47      H        0.86920    0.57190    0.78670    1.000
    H48      H        0.78020    0.56480    0.81780    1.000
    H49      H        0.42700    0.21120    0.20690    1.000
    H50      H        0.42180    0.25650    0.13120    1.000
    H51      H        0.43740    0.08470    0.14620    1.000
    H52      H        0.43280    0.13030    0.07080    1.000
    H53      H        0.56430    0.08210    0.10810    1.000
    H54      H        0.56010    0.17100    0.07520    1.000
    H55      H        0.57190    0.13080    0.21330    1.000
    H56      H        0.56480    0.21980    0.18220    1.000
    H57      H        0.57300    0.78880    0.20690    1.000
    H58      H        0.57820    0.74350    0.13120    1.000
    H59      H        0.56260    0.91530    0.14620    1.000
    H60      H        0.56720    0.86970    0.07080    1.000
    H61      H        0.43570    0.91790    0.10810    1.000
    H62      H        0.43990    0.82900    0.07520    1.000
    H63      H        0.42810    0.86920    0.21330    1.000
    H64      H        0.43520    0.78020    0.18220    1.000
    C1       C        0.29400    0.09290    0.65680    1.000
    C2       C        0.36490    0.04710    0.62100    1.000
    C3       C        0.36200    0.95470    0.61770    1.000
    C4       C        0.33500    0.91290    0.67200    1.000
    C5       C        0.70600    0.90710    0.65680    1.000
    C6       C        0.63510    0.95290    0.62100    1.000
    C7       C        0.63800    0.04530    0.61770    1.000
    C8       C        0.66500    0.08710    0.67200    1.000
    C9       C        0.09290    0.70600    0.34320    1.000
    C10      C        0.04710    0.63510    0.37900    1.000
    C11      C        0.95470    0.63800    0.38230    1.000
    C12      C        0.91290    0.66500    0.32800    1.000
    C13      C        0.90710    0.29400    0.34320    1.000
    C14      C        0.95290    0.36490    0.37900    1.000
    C15      C        0.04530    0.36200    0.38230    1.000
    C16      C        0.08710    0.33500    0.32800    1.000
    C17      C        0.20600    0.59290    0.84320    1.000
    C18      C        0.13510    0.54710    0.87900    1.000
    C19      C        0.13800    0.45470    0.88230    1.000
    C20      C        0.16500    0.41290    0.82800    1.000
    C21      C        0.79400    0.40710    0.84320    1.000
    C22      C        0.86490    0.45290    0.87900    1.000
    C23      C        0.86200    0.54530    0.88230    1.000
    C24      C        0.83500    0.58710    0.82800    1.000
    C25      C        0.40710    0.20600    0.15680    1.000
    C26      C        0.45290    0.13510    0.12100    1.000
    C27      C        0.54530    0.13800    0.11770    1.000
    C28      C        0.58710    0.16500    0.17200    1.000
    C29      C        0.59290    0.79400    0.15680    1.000
    C30      C        0.54710    0.86490    0.12100    1.000
    C31      C        0.45470    0.86200    0.11770    1.000
    C32      C        0.41290    0.83500    0.17200    1.000
    N1       N        0.30000    0.18470    0.65890    1.000
    N2       N        0.32570    0.82610    0.67640    1.000
    N3       N        0.70000    0.81530    0.65890    1.000
    N4       N        0.67430    0.17390    0.67640    1.000
    N5       N        0.18470    0.70000    0.34110    1.000
    N6       N        0.82610    0.67430    0.32360    1.000
    N7       N        0.81530    0.30000    0.34110    1.000
    N8       N        0.17390    0.32570    0.32360    1.000
    N9       N        0.20000    0.68470    0.84110    1.000
    N10      N        0.17430    0.32610    0.82360    1.000
    N11      N        0.80000    0.31530    0.84110    1.000
    N12      N        0.82570    0.67390    0.82360    1.000
    N13      N        0.31530    0.20000    0.15890    1.000
    N14      N        0.67390    0.17430    0.17640    1.000
    N15      N        0.68470    0.80000    0.15890    1.000
    N16      N        0.32610    0.82570    0.17640    1.000
    O1       O        0.08480    0.79740    0.93600    1.000
    O2       O        0.20880    0.00250    0.80560    1.000
    O3       O        0.21840    0.16670    0.79720    1.000
    O4       O        0.20680    0.91420    0.92550    1.000
    O5       O        0.20020    0.09150    0.92400    1.000
    O6       O        0.07800    0.91380    0.83610    1.000
    O7       O        0.07420    0.08870    0.82740    1.000
    O8       O        0.92540    0.79280    0.93950    1.000
    O9       O        0.21820    0.83740    0.79360    1.000
    O10      O        0.91520    0.20260    0.93600    1.000
    O11      O        0.79120    0.99750    0.80560    1.000
    O12      O        0.78160    0.83330    0.79720    1.000
    O13      O        0.79320    0.08580    0.92550    1.000
    O14      O        0.79980    0.90850    0.92400    1.000
    O15      O        0.92200    0.08620    0.83610    1.000
    O16      O        0.92580    0.91130    0.82740    1.000
    O17      O        0.07460    0.20720    0.93950    1.000
    O18      O        0.78180    0.16260    0.79360    1.000
    O19      O        0.79740    0.91520    0.06400    1.000
    O20      O        0.00250    0.79120    0.19440    1.000
    O21      O        0.16670    0.78160    0.20280    1.000
    O22      O        0.91420    0.79320    0.07450    1.000
    O23      O        0.09150    0.79980    0.07600    1.000
    O24      O        0.91380    0.92200    0.16390    1.000
    O25      O        0.08870    0.92580    0.17260    1.000
    O26      O        0.79280    0.07460    0.06050    1.000
    O27      O        0.83740    0.78180    0.20640    1.000
    O28      O        0.20260    0.08480    0.06400    1.000
    O29      O        0.99750    0.20880    0.19440    1.000
    O30      O        0.83330    0.21840    0.20280    1.000
    O31      O        0.08580    0.20680    0.07450    1.000
    O32      O        0.90850    0.20020    0.07600    1.000
    O33      O        0.08620    0.07800    0.16390    1.000
    O34      O        0.91130    0.07420    0.17260    1.000
    O35      O        0.20720    0.92540    0.06050    1.000
    O36      O        0.16260    0.21820    0.20640    1.000
    O37      O        0.41520    0.29740    0.56400    1.000
    O38      O        0.29120    0.50250    0.69440    1.000
    O39      O        0.28160    0.66670    0.70280    1.000
    O40      O        0.29320    0.41420    0.57450    1.000
    O41      O        0.29980    0.59150    0.57600    1.000
    O42      O        0.42200    0.41380    0.66390    1.000
    O43      O        0.42580    0.58870    0.67260    1.000
    O44      O        0.57460    0.29280    0.56050    1.000
    O45      O        0.28180    0.33740    0.70640    1.000
    O46      O        0.58480    0.70260    0.56400    1.000
    O47      O        0.70880    0.49750    0.69440    1.000
    O48      O        0.71840    0.33330    0.70280    1.000
    O49      O        0.70680    0.58580    0.57450    1.000
    O50      O        0.70020    0.40850    0.57600    1.000
    O51      O        0.57800    0.58620    0.66390    1.000
    O52      O        0.57420    0.41130    0.67260    1.000
    O53      O        0.42540    0.70720    0.56050    1.000
    O54      O        0.71820    0.66260    0.70640    1.000
    O55      O        0.70260    0.41520    0.43600    1.000
    O56      O        0.49750    0.29120    0.30560    1.000
    O57      O        0.33330    0.28160    0.29720    1.000
    O58      O        0.58580    0.29320    0.42550    1.000
    O59      O        0.40850    0.29980    0.42400    1.000
    O60      O        0.58620    0.42200    0.33610    1.000
    O61      O        0.41130    0.42580    0.32740    1.000
    O62      O        0.70720    0.57460    0.43950    1.000
    O63      O        0.66260    0.28180    0.29360    1.000
    O64      O        0.29740    0.58480    0.43600    1.000
    O65      O        0.50250    0.70880    0.30560    1.000
    O66      O        0.66670    0.71840    0.29720    1.000
    O67      O        0.41420    0.70680    0.42550    1.000
    O68      O        0.59150    0.70020    0.42400    1.000
    O69      O        0.41380    0.57800    0.33610    1.000
    O70      O        0.58870    0.57420    0.32740    1.000
    O71      O        0.29280    0.42540    0.43950    1.000
    O72      O        0.33740    0.71820    0.29360    1.000
