# CIF file generated by openbabel 3.1.0, see https://openbabel.org
data_I
_chemical_name_common 'image0'
_cell_length_a 12.4545
_cell_length_b 10.208
_cell_length_c 6.7013
_cell_angle_alpha 107.47
_cell_angle_beta 104.432
_cell_angle_gamma 66.761
_space_group_name_H-M_alt 'P 1'
_space_group_name_Hall 'P 1'
loop_
    _symmetry_equiv_pos_as_xyz
    x,y,z
loop_
    _atom_site_label
    _atom_site_type_symbol
    _atom_site_fract_x
    _atom_site_fract_y
    _atom_site_fract_z
    _atom_site_occupancy
    Ca1      Ca       0.44420    0.10940    0.77150    1.000
    O1       O        0.25870    0.08910    0.50140    1.000
    O2       O        0.52440    0.84480    0.84520    1.000
    O3       O        0.26210    0.07830    0.81980    1.000
    O4       O        0.50970    0.85900    0.53980    1.000
    C1       C        0.51300    0.78610    0.65670    1.000
    C2       C        0.22020    0.05840    0.62920    1.000
    C3       C        0.10990    0.03750    0.56430    1.000
    C4       C        0.51450    0.63630    0.57790    1.000
    C5       C        0.93100    0.01910    0.64760    1.000
    C6       C        0.53980    0.54920    0.71880    1.000
    C7       C        0.04820    0.04070    0.71830    1.000
    C8       C        0.53880    0.40150    0.64090    1.000
    Ca2      Ca       0.55580    0.89060    0.22850    1.000
    O5       O        0.74130    0.91090    0.49860    1.000
    O6       O        0.47560    0.15520    0.15480    1.000
    O7       O        0.73790    0.92170    0.18020    1.000
    O8       O        0.49030    0.14100    0.46020    1.000
    C9       C        0.48700    0.21390    0.34330    1.000
    C10      C        0.77980    0.94160    0.37080    1.000
    C11      C        0.89010    0.96250    0.43570    1.000
    C12      C        0.48550    0.36370    0.42210    1.000
    C13      C        0.06900    0.98090    0.35240    1.000
    C14      C        0.46020    0.45080    0.28120    1.000
    C15      C        0.95180    0.95930    0.28170    1.000
    C16      C        0.46120    0.59850    0.35910    1.000
