data_functionalizedCrystal
_audit_creation_method	'EQeq! by Chris Wilmer'
_symmetry_space_group_name_H-M	'P1'
_symmetry_Int_Tables_number	1
_symmetry_cell_setting	triclinic
loop_
_symmetry_equiv_pos_as_xyz
  x,y,z
_cell_length_a	13.504
_cell_length_b	14.375
_cell_length_c	16.193
_cell_angle_alpha	90
_cell_angle_beta	90
_cell_angle_gamma	90
loop_
_atom_site_label
_atom_site_type_symbol
_atom_site_fract_x
_atom_site_fract_y
_atom_site_fract_z
_atom_site_charge
Mof_Cu	Cu	0.70084	0.79324	0.16393	0.907
Mof_Cu	Cu	0.29916	0.29324	0.33607	0.907
Mof_Cu	Cu	0.4303	0.5487	0.08517	0.907
Mof_Cu	Cu	0.20084	0.70676	0.83607	0.907
Mof_Cu	Cu	0.5697	0.0487	0.41483	0.907
Mof_Cu	Cu	0.9303	0.9513	0.91483	0.907
Mof_Cu	Cu	0.0697	0.4513	0.58517	0.907
Mof_Cu	Cu	0.79916	0.20676	0.66393	0.907
Mof_H 	H 	0.2117	0.3992	0.0289	0.191
Mof_H 	H 	0.0938	0.4084	0.0243	0.179
Mof_H 	H 	0.5662	0.9253	0.0212	0.128
Mof_H 	H 	0.5538	0.3539	0.7007	0.185
Mof_H 	H 	0.1602	0.3542	0.7884	0.123
Mof_H 	H 	0.3731	0.5453	0.9048	0.137
Mof_H 	H 	0.1269	0.4547	0.4048	0.137
Mof_H 	H 	0.0235	0.9531	0.7093	0.031
Mof_H 	H 	0.5365	0.7658	0.4395	0.194
Mof_H 	H 	0.0722	0.1977	0.962	0.184
Mof_H 	H 	0.8223	0.0997	0.2437	0.197
Mof_H 	H 	0.3398	0.6458	0.2884	0.123
Mof_H 	H 	0.5682	0.9343	0.7665	0.185
Mof_H 	H 	0.3533	0.6856	0.4949	0.173
Mof_H 	H 	0.4937	0.7584	0.831	0.201
Mof_H 	H 	0.9143	0.2951	0.1381	-0.006
Mof_H 	H 	0.885	0.712	0.1396	0.178
Mof_H 	H 	0.0063	0.2416	0.331	0.2
Mof_H 	H 	0.5843	0.9136	0.9241	0.121
Mof_H 	H 	0.4278	0.8023	0.462	0.182
Mof_H 	H 	0.6466	0.7599	0.9464	0.034
Mof_H 	H 	0.1467	0.3144	0.9949	0.173
Mof_H 	H 	0.7259	0.8648	0.3389	0.134
Mof_H 	H 	0.3534	0.2599	0.5536	0.034
Mof_H 	H 	0.4957	0.8599	0.3992	0.182
Mof_H 	H 	0.0843	0.5864	0.0759	0.121
Mof_H 	H 	0.5722	0.3023	0.038	0.182
Mof_H 	H 	0.9318	0.0657	0.2665	0.186
Mof_H 	H 	0.9462	0.6461	0.2007	0.184
Mof_H 	H 	0.4977	0.3517	0.5304	0.13
Mof_H 	H 	0.9157	0.0864	0.4241	0.121
Mof_H 	H 	0.0365	0.7342	0.5605	0.194
Mof_H 	H 	0.8534	0.2401	0.4464	0.034
Mof_H 	H 	0.5023	0.8517	0.9696	0.13
Mof_H 	H 	0.0538	0.1461	0.2993	0.183
Mof_H 	H 	0.8533	0.8144	0.5051	0.173
Mof_H 	H 	0.9937	0.7416	0.169	0.201
Mof_H 	H 	0.0662	0.5747	0.9788	0.127
Mof_H 	H 	0.6478	0.0072	0.7321	0.205
Mof_H 	H 	0.4143	0.2049	0.8619	-0.005
Mof_H 	H 	0.5597	0.1848	0.1722	0.131
Mof_H 	H 	0.6269	0.0453	0.5952	0.136
Mof_H 	H 	0.0043	0.1401	0.8992	0.183
Mof_H 	H 	0.3223	0.4003	0.7563	0.197
Mof_H 	H 	0.3859	0.5972	0.3686	0.125
Mof_H 	H 	0.1466	0.7401	0.0536	0.034
Mof_H 	H 	0.8522	0.9928	0.2321	0.206
Mof_H 	H 	0.0857	0.7951	0.3619	-0.005
Mof_H 	H 	0.3522	0.5072	0.7679	0.206
Mof_H 	H 	0.8859	0.9028	0.6314	0.125
Mof_H 	H 	0.385	0.788	0.8604	0.178
Mof_H 	H 	0.4338	0.4253	0.4788	0.127
Mof_H 	H 	0.4765	0.0469	0.2093	0.03
Mof_H 	H 	0.1478	0.4928	0.2679	0.206
Mof_H 	H 	0.0023	0.6483	0.0304	0.13
Mof_H 	H 	0.5235	0.5469	0.2907	0.03
Mof_H 	H 	0.0682	0.5657	0.2335	0.186
Mof_H 	H 	0.9957	0.6401	0.6008	0.182
Mof_H 	H 	0.9338	0.0747	0.5212	0.127
Mof_H 	H 	0.2741	0.3648	0.1611	0.134
Mof_H 	H 	0.6141	0.0972	0.1314	0.125
Mof_H 	H 	0.1777	0.5997	0.2563	0.197
Mof_H 	H 	0.615	0.288	0.6396	0.178
Mof_H 	H 	0.7117	0.1008	0.9711	0.19
Mof_H 	H 	0.7741	0.1352	0.8389	0.134
Mof_H 	H 	0.2883	0.6008	0.5289	0.19
Mof_H 	H 	0.9977	0.1483	0.4696	0.131
Mof_H 	H 	0.5043	0.3599	0.1008	0.182
Mof_H 	H 	0.4403	0.6848	0.3278	0.131
Mof_H 	H 	0.2259	0.6352	0.6611	0.134
Mof_H 	H 	0.9403	0.8152	0.6722	0.13
Mof_H 	H 	0.9278	0.6977	0.538	0.182
Mof_H 	H 	0.4462	0.8539	0.7993	0.184
Mof_H 	H 	0.7883	0.8992	0.4711	0.19
Mof_H 	H 	0.4635	0.2658	0.0605	0.194
Mof_H 	H 	0.1141	0.4028	0.8686	0.125
Mof_H 	H 	0.4062	0.5916	0.5243	0.178
Mof_H 	H 	0.8398	0.8542	0.7116	0.123
Mof_H 	H 	0.0597	0.3152	0.8278	0.13
Mof_H 	H 	0.5063	0.2584	0.669	0.201
Mof_H 	H 	0.9635	0.2342	0.9395	0.197
Mof_H 	H 	0.6602	0.1458	0.2116	0.123
Mof_H 	H 	0.6467	0.1856	0.0051	0.173
Mof_H 	H 	0.6777	0.9003	0.7437	0.196
Mof_H 	H 	0.4318	0.4343	0.7335	0.186
Mof_H 	H 	0.9062	0.9084	0.4757	0.178
Mof_H 	H 	0.115	0.212	0.3604	0.177
Mof_H 	H 	0.4157	0.4136	0.5759	0.121
Mof_H 	H 	0.5857	0.7049	0.6381	-0.005
Mof_H 	H 	0.9765	0.4531	0.7907	0.03
Mof_H 	H 	0.8731	0.9547	0.0952	0.137
Mof_H 	H 	0.5938	0.0916	0.9757	0.178
Mof_C 	C 	0.9625	0.1245	0.0195	0.243
Mof_C 	C 	0.4486	0.3457	0.8981	-0.203
Mof_C 	C 	0.0042	0.1788	0.949	-0.609
Mof_C 	C 	0.9087	0.0771	0.1423	0.253
Mof_C 	C 	0.6405	0.1733	0.8777	0.233
Mof_C 	C 	0.9297	0.7767	0.3363	-0.203
Mof_C 	C 	0.4958	0.8212	0.449	-0.601
Mof_C 	C 	0.0394	0.436	0.7619	0.011
Mof_C 	C 	0.0985	0.3714	0.8165	-0.369
Mof_C 	C 	0.9958	0.6788	0.551	-0.602
Mof_C 	C 	0.389	0.7402	0.7426	0.245
Mof_C 	C 	0.0913	0.5771	0.3577	0.252
Mof_C 	C 	0.855	0.1938	0.4924	0
Mof_C 	C 	0.5333	0.7489	0.6351	0.066
Mof_C 	C 	0.401	0.4747	0.244	0.285
Mof_C 	C 	0.355	0.3062	0.5076	0
Mof_C 	C 	0.0675	0.6192	0.0247	-0.369
Mof_C 	C 	0.099	0.5253	0.744	0.286
Mof_C 	C 	0.599	0.9747	0.256	0.286
Mof_C 	C 	0.901	0.0253	0.756	0.286
Mof_C 	C 	0.941	0.3069	0.5812	0.119
Mof_C 	C 	0.9481	0.3354	0.6705	0.116
Mof_C 	C 	0.5679	0.2892	0.6856	-0.611
Mof_C 	C 	0.8595	0.8267	0.3777	0.233
Mof_C 	C 	0.9667	0.2511	0.1351	0.068
Mof_C 	C 	0.5675	0.8808	0.9753	-0.368
Mof_C 	C 	0.7457	0.8525	0.002	0.294
Mof_C 	C 	0.4625	0.3755	0.9805	0.239
Mof_C 	C 	0.9486	0.1543	0.1019	-0.205
Mof_C 	C 	0.3595	0.6733	0.6223	0.233
Mof_C 	C 	0.0679	0.2108	0.3144	-0.61
Mof_C 	C 	0.4667	0.2489	0.8649	0.066
Mof_C 	C 	0.6489	0.1343	0.9653	-0.572
Mof_C 	C 	0.4606	0.564	0.2619	0.012
Mof_C 	C 	0.441	0.1931	0.4188	0.119
Mof_C 	C 	0.559	0.6931	0.0812	0.12
Mof_C 	C 	0.059	0.8069	0.9188	0.119
Mof_C 	C 	0.5703	0.2233	0.8363	-0.203
Mof_C 	C 	0.0375	0.6245	0.4805	0.24
Mof_C 	C 	0.611	0.2402	0.7574	0.245
Mof_C 	C 	0.5375	0.8755	0.5195	0.239
Mof_C 	C 	0.4481	0.1646	0.3295	0.115
Mof_C 	C 	0.5042	0.3212	0.051	-0.601
Mof_C 	C 	0.3759	0.4429	0.7714	-0.611
Mof_C 	C 	0.4321	0.7892	0.8144	-0.612
Mof_C 	C 	0.645	0.8062	0.9924	0.001
Mof_C 	C 	0.145	0.6938	0.0076	-0.001
Mof_C 	C 	0.5394	0.064	0.2381	0.011
Mof_C 	C 	0.0514	0.6543	0.3981	-0.204
Mof_C 	C 	0.6241	0.9429	0.7286	-0.608
Mof_C 	C 	0.0519	0.8354	0.8295	0.116
Mof_C 	C 	0.4087	0.4229	0.8577	0.252
Mof_C 	C 	0.9606	0.936	0.7381	0.01
Mof_C 	C 	0.3511	0.6343	0.5347	-0.572
Mof_C 	C 	0.5985	0.1286	0.1835	-0.37
Mof_C 	C 	0.0703	0.2767	0.1637	-0.204
Mof_C 	C 	0.5519	0.6646	0.1705	0.115
Mof_C 	C 	0.8759	0.0571	0.2286	-0.611
Mof_C 	C 	0.7543	0.1475	0.502	0.295
Mof_C 	C 	0.4325	0.3808	0.5247	-0.368
Mof_C 	C 	0.9015	0.8714	0.6835	-0.369
Mof_C 	C 	0.111	0.2598	0.2426	0.245
Mof_C 	C 	0.4015	0.6286	0.3165	-0.37
Mof_C 	C 	0.0333	0.7511	0.3649	0.066
Mof_C 	C 	0.5514	0.8457	0.6019	-0.203
Mof_C 	C 	0.8511	0.8657	0.4653	-0.572
Mof_C 	C 	0.1405	0.3267	0.1223	0.233
Mof_C 	C 	0.2457	0.6475	0.998	0.296
Mof_C 	C 	0.889	0.7598	0.2574	0.245
Mof_C 	C 	0.4297	0.7233	0.6637	-0.203
Mof_C 	C 	0.5913	0.9229	0.6423	0.251
Mof_C 	C 	0.1241	0.5571	0.2714	-0.611
Mof_C 	C 	0.9325	0.1192	0.4753	-0.369
Mof_C 	C 	0.2543	0.3525	0.498	0.295
Mof_C 	C 	0.9321	0.7108	0.1856	-0.611
Mof_C 	C 	0.1489	0.3657	0.0347	-0.572
Mof_N 	N 	0.516	0.1044	0.3172	-0.236
Mof_N 	N 	0.1222	0.7398	0.9296	-0.231
Mof_N 	N 	0.7985	0.7967	0.2526	-0.22
Mof_N 	N 	0.4332	0.463	0.9893	-0.216
Mof_N 	N 	0.6222	0.7602	0.0704	-0.232
Mof_N 	N 	0.9332	0.037	0.0107	-0.217
Mof_N 	N 	0.2985	0.7033	0.7474	-0.22
Mof_N 	N 	0.1012	0.5098	0.4148	-0.207
Mof_N 	N 	0.7187	0.1639	0.8258	-0.201
Mof_N 	N 	0.984	0.8956	0.8172	-0.236
Mof_N 	N 	0.7015	0.2033	0.7526	-0.22
Mof_N 	N 	0.2187	0.3361	0.1742	-0.201
Mof_N 	N 	0.484	0.6044	0.1828	-0.236
Mof_N 	N 	0.8988	0.0098	0.0852	-0.206
Mof_N 	N 	0.3778	0.2602	0.4296	-0.232
Mof_N 	N 	0.0668	0.537	0.4893	-0.216
Mof_N 	N 	0.6012	0.9902	0.5852	-0.206
Mof_N 	N 	0.8778	0.2398	0.5704	-0.232
Mof_N 	N 	0.5668	0.963	0.5107	-0.216
Mof_N 	N 	0.3988	0.4902	0.9148	-0.207
Mof_N 	N 	0.7813	0.8361	0.3258	-0.201
Mof_N 	N 	0.2813	0.6639	0.6742	-0.201
Mof_N 	N 	0.2015	0.2967	0.2474	-0.22
Mof_N 	N 	0.016	0.3956	0.6828	-0.237
Mof_O 	O 	0.1278	0.5728	0.8031	-0.355
Mof_O 	O 	0.1216	0.5424	0.6686	-0.396
Mof_O 	O 	0.1107	0.7984	0.7764	-0.329
Mof_O 	O 	0.3784	0.4576	0.1686	-0.396
Mof_O 	O 	0.3893	0.2016	0.2764	-0.33
Mof_O 	O 	0.7175	0.1104	0.4414	-0.361
Mof_O 	O 	0.2175	0.3896	0.5586	-0.361
Mof_O 	O 	0.0076	0.85	0.9716	-0.329
Mof_O 	O 	0.5076	0.65	0.0284	-0.33
Mof_O 	O 	0.2848	0.6494	0.9248	-0.392
Mof_O 	O 	0.3722	0.4272	0.3031	-0.355
Mof_O 	O 	0.8722	0.0728	0.6969	-0.355
Mof_O 	O 	0.2152	0.3506	0.4248	-0.392
Mof_O 	O 	0.7825	0.8896	0.9414	-0.36
Mof_O 	O 	0.9924	0.35	0.5284	-0.329
Mof_O 	O 	0.6107	0.7016	0.2236	-0.329
Mof_O 	O 	0.8784	0.0424	0.8314	-0.396
Mof_O 	O 	0.6216	0.9576	0.3314	-0.396
Mof_O 	O 	0.7152	0.1494	0.5752	-0.392
Mof_O 	O 	0.2825	0.6104	0.0586	-0.361
Mof_O 	O 	0.6278	0.9272	0.1969	-0.355
Mof_O 	O 	0.4924	0.15	0.4716	-0.33
Mof_O 	O 	0.7848	0.8506	0.0752	-0.391
Mof_O 	O 	0.8893	0.2984	0.7236	-0.33
_end
