data_functionalizedCrystal
_audit_creation_method	'EQeq! by Chris Wilmer'
_symmetry_space_group_name_H-M	'P1'
_symmetry_Int_Tables_number	1
_symmetry_cell_setting	triclinic
loop_
_symmetry_equiv_pos_as_xyz
  x,y,z
_cell_length_a	12.856
_cell_length_b	13.097
_cell_length_c	18.002
_cell_angle_alpha	93.609
_cell_angle_beta	99.887
_cell_angle_gamma	91.441
loop_
_atom_site_label
_atom_site_type_symbol
_atom_site_fract_x
_atom_site_fract_y
_atom_site_fract_z
_atom_site_charge
Mof_Mn	Mn	0.7418	0.7838	0.74815	1.032
Mof_Mn	Mn	0.2582	0.2162	0.25185	1.032
Mof_H 	H 	0.0272	0.5179	0.7453	0.151
Mof_H 	H 	0.769	0.7486	0.0292	0.154
Mof_H 	H 	0.6475	0.7296	0.4593	0.149
Mof_H 	H 	0.9612	0.107	0.7427	0.148
Mof_H 	H 	0.4991	0.4713	0.7549	0.153
Mof_H 	H 	0.4582	0.0434	0.7751	0.144
Mof_H 	H 	0.0838	0.6764	0.7845	0.346
Mof_H 	H 	0.0073	0.7666	0.7673	0.357
Mof_H 	H 	0.0103	0.7105	0.842	0.355
Mof_H 	H 	0.8286	0.4802	0.6656	0.003
Mof_H 	H 	0.9206	0.4029	0.6717	0.023
Mof_H 	H 	0.8004	0.4461	0.7873	0.081
Mof_H 	H 	0.8947	0.3713	0.7956	0.089
Mof_H 	H 	0.8003	0.2633	0.6943	0.037
Mof_H 	H 	0.7052	0.3369	0.6895	0.031
Mof_H 	H 	0.6075	0.8187	0.9113	0.398
Mof_H 	H 	0.6706	0.8728	0.9863	0.407
Mof_H 	H 	0.6799	0.9159	0.9083	0.407
Mof_H 	H 	0.9354	0.6882	0.0479	0.01
Mof_H 	H 	0.9487	0.7165	0.9664	-0.002
Mof_H 	H 	0.8329	0.5483	0.9998	0.1
Mof_H 	H 	0.8332	0.5789	0.9171	0.09
Mof_H 	H 	0.0241	0.5555	0.9417	0.045
Mof_H 	H 	0.9529	0.4551	0.9301	0.044
Mof_H 	H 	0.8221	0.7507	0.5058	0.351
Mof_H 	H 	0.8606	0.7824	0.5918	0.342
Mof_H 	H 	0.8286	0.6678	0.5654	0.345
Mof_H 	H 	0.4759	0.7014	0.4747	-0.007
Mof_H 	H 	0.5022	0.76	0.5548	-0.006
Mof_H 	H 	0.5021	0.8601	0.4209	0.084
Mof_H 	H 	0.4023	0.8554	0.4599	0.065
Mof_H 	H 	0.4958	0.9493	0.5667	0.036
Mof_H 	H 	0.596	0.9537	0.5278	0.037
Mof_H 	H 	0.8412	0.0796	0.6395	0.345
Mof_H 	H 	0.852	0.9683	0.605	0.331
Mof_H 	H 	0.7532	0.9954	0.6418	0.345
Mof_H 	H 	0.0348	0.9503	0.8268	0.021
Mof_H 	H 	0.0792	0.0636	0.8397	0.032
Mof_H 	H 	0.9491	0.1093	0.9054	0.072
Mof_H 	H 	0.8914	0.0014	0.8854	0.08
Mof_H 	H 	0.0935	0.034	0.9787	0.043
Mof_H 	H 	0.0408	0.9247	0.9561	0.043
Mof_H 	H 	0.579	0.4821	0.6566	0.368
Mof_H 	H 	0.5271	0.5827	0.6282	0.363
Mof_H 	H 	0.6504	0.578	0.6479	0.374
Mof_H 	H 	0.4337	0.5678	0.8546	0.019
Mof_H 	H 	0.5462	0.6222	0.8743	0.008
Mof_H 	H 	0.4963	0.4188	0.8914	0.094
Mof_H 	H 	0.6134	0.4575	0.8953	0.081
Mof_H 	H 	0.5756	0.5795	0.0002	0.051
Mof_H 	H 	0.6037	0.4667	0.019	0.052
Mof_H 	H 	0.3992	0.8989	0.717	0.327
Mof_H 	H 	0.4764	0.8279	0.6811	0.336
Mof_H 	H 	0.4588	0.8146	0.764	0.33
Mof_H 	H 	0.5722	0.1581	0.8435	0.016
Mof_H 	H 	0.664	0.0822	0.8405	0.004
Mof_H 	H 	0.6713	0.1237	0.7172	0.075
Mof_H 	H 	0.5804	0.2006	0.721	0.092
Mof_H 	H 	0.6887	0.3017	0.8146	0.045
Mof_H 	H 	0.7789	0.2234	0.815	0.044
Mof_H 	H 	0.9728	0.4821	0.2547	0.151
Mof_H 	H 	0.231	0.2514	0.9708	0.154
Mof_H 	H 	0.3525	0.2704	0.5407	0.149
Mof_H 	H 	0.0388	0.893	0.2573	0.148
Mof_H 	H 	0.5009	0.5287	0.2451	0.153
Mof_H 	H 	0.5418	0.9566	0.2249	0.144
Mof_H 	H 	0.9162	0.3236	0.2155	0.346
Mof_H 	H 	0.9927	0.2334	0.2327	0.357
Mof_H 	H 	0.9897	0.2895	0.158	0.355
Mof_H 	H 	0.1714	0.5198	0.3344	0.003
Mof_H 	H 	0.0794	0.5971	0.3283	0.023
Mof_H 	H 	0.1996	0.5539	0.2127	0.081
Mof_H 	H 	0.1053	0.6287	0.2044	0.089
Mof_H 	H 	0.1997	0.7367	0.3057	0.037
Mof_H 	H 	0.2948	0.6631	0.3105	0.031
Mof_H 	H 	0.3925	0.1813	0.0887	0.398
Mof_H 	H 	0.3294	0.1272	0.0137	0.407
Mof_H 	H 	0.3201	0.0841	0.0917	0.407
Mof_H 	H 	0.0646	0.3118	0.9521	0.01
Mof_H 	H 	0.0513	0.2835	0.0336	-0.002
Mof_H 	H 	0.1671	0.4517	0.0002	0.1
Mof_H 	H 	0.1668	0.4211	0.0829	0.09
Mof_H 	H 	0.9759	0.4445	0.0583	0.045
Mof_H 	H 	0.0471	0.5449	0.0699	0.044
Mof_H 	H 	0.1779	0.2493	0.4942	0.351
Mof_H 	H 	0.1394	0.2176	0.4082	0.342
Mof_H 	H 	0.1714	0.3322	0.4346	0.345
Mof_H 	H 	0.5241	0.2986	0.5253	-0.007
Mof_H 	H 	0.4978	0.24	0.4452	-0.006
Mof_H 	H 	0.4979	0.1399	0.5791	0.084
Mof_H 	H 	0.5977	0.1446	0.5401	0.065
Mof_H 	H 	0.5042	0.0507	0.4333	0.036
Mof_H 	H 	0.404	0.0463	0.4722	0.037
Mof_H 	H 	0.1588	0.9204	0.3605	0.345
Mof_H 	H 	0.148	0.0317	0.395	0.331
Mof_H 	H 	0.2468	0.0046	0.3582	0.345
Mof_H 	H 	0.9652	0.0497	0.1732	0.021
Mof_H 	H 	0.9208	0.9364	0.1603	0.032
Mof_H 	H 	0.0509	0.8907	0.0946	0.072
Mof_H 	H 	0.1086	0.9986	0.1146	0.08
Mof_H 	H 	0.9065	0.966	0.0213	0.043
Mof_H 	H 	0.9592	0.0753	0.0439	0.043
Mof_H 	H 	0.421	0.5179	0.3434	0.368
Mof_H 	H 	0.4729	0.4173	0.3718	0.363
Mof_H 	H 	0.3496	0.422	0.3521	0.374
Mof_H 	H 	0.5663	0.4322	0.1454	0.019
Mof_H 	H 	0.4538	0.3778	0.1257	0.008
Mof_H 	H 	0.5037	0.5812	0.1086	0.094
Mof_H 	H 	0.3866	0.5425	0.1047	0.081
Mof_H 	H 	0.4244	0.4205	0.9998	0.051
Mof_H 	H 	0.3963	0.5333	0.981	0.052
Mof_H 	H 	0.6008	0.1011	0.283	0.327
Mof_H 	H 	0.5236	0.1721	0.3189	0.336
Mof_H 	H 	0.5412	0.1854	0.236	0.33
Mof_H 	H 	0.4278	0.8419	0.1565	0.016
Mof_H 	H 	0.336	0.9178	0.1595	0.004
Mof_H 	H 	0.3287	0.8763	0.2828	0.075
Mof_H 	H 	0.4196	0.7994	0.279	0.092
Mof_H 	H 	0.3113	0.6983	0.1854	0.045
Mof_H 	H 	0.2211	0.7766	0.185	0.044
Mof_C 	C 	0.9312	0.6272	0.7497	0.531
Mof_C 	C 	0.7604	0.7902	0.928	0.625
Mof_C 	C 	0.7021	0.757	0.5654	0.531
Mof_C 	C 	0.884	0.98	0.7183	0.542
Mof_C 	C 	0.5817	0.592	0.74	0.569
Mof_C 	C 	0.5541	0.9389	0.7563	0.522
Mof_C 	C 	0.0157	0.7019	0.7894	-1.085
Mof_C 	C 	0.885	0.452	0.7003	0.062
Mof_C 	C 	0.8382	0.3977	0.7599	-0.18
Mof_C 	C 	0.7633	0.3101	0.7236	-0.059
Mof_C 	C 	0.6722	0.8549	0.934	-1.267
Mof_C 	C 	0.9007	0.6858	0.9955	0.08
Mof_C 	C 	0.8753	0.5799	0.9673	-0.201
Mof_C 	C 	0.9738	0.5158	0.9637	-0.06
Mof_C 	C 	0.8133	0.7378	0.5563	-1.088
Mof_C 	C 	0.5158	0.7591	0.5034	0.072
Mof_C 	C 	0.4789	0.8568	0.4692	-0.179
Mof_C 	C 	0.5194	0.9517	0.5184	-0.062
Mof_C 	C 	0.8277	0.0083	0.6448	-1.075
Mof_C 	C 	0.0148	0.0211	0.8306	0.031
Mof_C 	C 	0.96	0.0369	0.8962	-0.151
Mof_C 	C 	0.0263	0.9959	0.967	-0.072
Mof_C 	C 	0.5849	0.5555	0.6613	-1.153
Mof_C 	C 	0.5084	0.5584	0.8552	0.06
Mof_C 	C 	0.5445	0.4778	0.9046	-0.182
Mof_C 	C 	0.5525	0.5082	0.9897	-0.068
Mof_C 	C 	0.4639	0.8632	0.727	-1.044
Mof_C 	C 	0.6037	0.1116	0.8103	0.063
Mof_C 	C 	0.6407	0.1704	0.7507	-0.176
Mof_C 	C 	0.7206	0.2532	0.7831	-0.07
Mof_C 	C 	0.0688	0.3728	0.2503	0.531
Mof_C 	C 	0.2396	0.2098	0.072	0.625
Mof_C 	C 	0.2979	0.243	0.4346	0.531
Mof_C 	C 	0.116	0.02	0.2817	0.542
Mof_C 	C 	0.4183	0.408	0.26	0.569
Mof_C 	C 	0.4459	0.0611	0.2437	0.522
Mof_C 	C 	0.9843	0.2981	0.2106	-1.085
Mof_C 	C 	0.115	0.548	0.2997	0.062
Mof_C 	C 	0.1618	0.6023	0.2401	-0.18
Mof_C 	C 	0.2367	0.6899	0.2764	-0.059
Mof_C 	C 	0.3278	0.1451	0.066	-1.267
Mof_C 	C 	0.0993	0.3142	0.0045	0.08
Mof_C 	C 	0.1247	0.4201	0.0327	-0.201
Mof_C 	C 	0.0262	0.4842	0.0363	-0.06
Mof_C 	C 	0.1867	0.2622	0.4437	-1.088
Mof_C 	C 	0.4842	0.2409	0.4966	0.072
Mof_C 	C 	0.5211	0.1432	0.5308	-0.179
Mof_C 	C 	0.4806	0.0483	0.4816	-0.062
Mof_C 	C 	0.1723	0.9917	0.3552	-1.075
Mof_C 	C 	0.9852	0.9789	0.1694	0.031
Mof_C 	C 	0.04	0.9631	0.1038	-0.151
Mof_C 	C 	0.9737	0.0041	0.033	-0.072
Mof_C 	C 	0.4151	0.4445	0.3387	-1.153
Mof_C 	C 	0.4916	0.4416	0.1448	0.06
Mof_C 	C 	0.4555	0.5222	0.0954	-0.182
Mof_C 	C 	0.4475	0.4918	0.0103	-0.068
Mof_C 	C 	0.5361	0.1368	0.273	-1.044
Mof_C 	C 	0.3963	0.8884	0.1897	0.063
Mof_C 	C 	0.3593	0.8296	0.2493	-0.176
Mof_C 	C 	0.2794	0.7468	0.2169	-0.07
Mof_N 	N 	0.9585	0.5325	0.7341	-0.3
Mof_N 	N 	0.8023	0.7442	0.9891	-0.32
Mof_N 	N 	0.6271	0.7462	0.5038	-0.3
Mof_N 	N 	0.9524	0.0445	0.7595	-0.297
Mof_N 	N 	0.5264	0.5314	0.778	-0.301
Mof_N 	N 	0.5273	0.0306	0.7791	-0.299
Mof_N 	N 	0.0415	0.4675	0.2659	-0.3
Mof_N 	N 	0.1977	0.2558	0.0109	-0.32
Mof_N 	N 	0.3729	0.2538	0.4962	-0.3
Mof_N 	N 	0.0476	0.9555	0.2405	-0.297
Mof_N 	N 	0.4736	0.4686	0.222	-0.301
Mof_N 	N 	0.4727	0.9694	0.2209	-0.299
Mof_O 	O 	0.8384	0.6533	0.7284	-0.439
Mof_O 	O 	0.7988	0.7828	0.8688	-0.455
Mof_O 	O 	0.6785	0.7794	0.6277	-0.453
Mof_O 	O 	0.8675	0.8927	0.7403	-0.447
Mof_O 	O 	0.6213	0.6746	0.7698	-0.455
Mof_O 	O 	0.6466	0.9167	0.7601	-0.449
Mof_O 	O 	0.1616	0.3467	0.2716	-0.439
Mof_O 	O 	0.2012	0.2172	0.1312	-0.455
Mof_O 	O 	0.3215	0.2206	0.3723	-0.453
Mof_O 	O 	0.1325	0.1073	0.2597	-0.447
Mof_O 	O 	0.3787	0.3254	0.2302	-0.455
Mof_O 	O 	0.3534	0.0833	0.2399	-0.449
Mof_Hg	Hg	0.76767	0.7126	0.24304	0.26
Mof_Br	Br	0.6138	0.67621	0.31928	-0.316
Mof_Br	Br	0.93588	0.77083	0.33977	-0.314
Mof_Br	Br	0.6929	0.8487	0.15135	-0.318
Mof_Br	Br	0.8001	0.5436	0.17002	-0.303
Mof_Hg	Hg	0.23233	0.2874	0.75696	0.26
Mof_Br	Br	0.3862	0.32379	0.68072	-0.316
Mof_Br	Br	0.06412	0.22917	0.66023	-0.314
Mof_Br	Br	0.3071	0.1513	0.84865	-0.318
Mof_Br	Br	0.1999	0.4564	0.82998	-0.303
_end
