data_functionalizedCrystal
_audit_creation_method	'EQeq! by Chris Wilmer'
_symmetry_space_group_name_H-M	'P1'
_symmetry_Int_Tables_number	1
_symmetry_cell_setting	triclinic
loop_
_symmetry_equiv_pos_as_xyz
  x,y,z
_cell_length_a	8.487
_cell_length_b	17.924
_cell_length_c	26.5616
_cell_angle_alpha	87.8328
_cell_angle_beta	80.8076
_cell_angle_gamma	76.3057
loop_
_atom_site_label
_atom_site_type_symbol
_atom_site_fract_x
_atom_site_fract_y
_atom_site_fract_z
_atom_site_charge
Mof_Tb	Tb	0.88132	0.5	0.23736	2.157
Mof_Tb	Tb	0.13132	-8.95272e-22	0.73736	1.875
Mof_Tb	Tb	0.60565	0	0.7887	2.072
Mof_Tb	Tb	0.35565	0.5	0.2887	2.416
Mof_H 	H 	0.3702	0.6126	0.505	0.11
Mof_H 	H 	0.6228	0.2404	0.3312	0.01
Mof_H 	H 	0.7289	0.7942	0.2058	0.116
Mof_H 	H 	0.9986	0.1742	0.7256	-0.064
Mof_H 	H 	0.801	0.1194	0.9798	0.095
Mof_H 	H 	0.5594	0.2264	0.7136	-0.015
Mof_H 	H 	0.7497	0.4024	0.3916	-0.003
Mof_H 	H 	0.8498	0.6194	0.4798	0.103
Mof_H 	H 	0.2506	0.7264	0.2136	-0.02
Mof_H 	H 	0.3737	0.6008	0.4178	0.003
Mof_H 	H 	0.5388	0.3404	0.6724	0.11
Mof_H 	H 	0.7062	0.6778	0.1366	-0.039
Mof_H 	H 	0.5453	0.6178	0.81	0.111
Mof_H 	H 	0.8127	0.3594	0.6542	0.073
Mof_H 	H 	0.3577	0.1008	0.9178	0.001
Mof_H 	H 	0.134	0.8222	0.6366	-0.003
Mof_H 	H 	0.5001	0.5012	0.545	0.085
Mof_H 	H 	0.9549	0.4988	0.545	0.077
Mof_H 	H 	0.2063	0.9024	0.8916	0.035
Mof_H 	H 	0.9131	0.8822	0.31	0.138
Mof_H 	H 	0.2731	0.7058	0.7058	0.101
Mof_H 	H 	0.2085	0.3992	0.4178	-0.01
Mof_H 	H 	0.7769	0.1178	0.31	0.087
Mof_H 	H 	0.9021	0.0976	0.8916	0
Mof_H 	H 	0.2168	0.291	0.5932	0.112
Mof_H 	H 	0.9221	0.1406	0.1542	0.052
Mof_H 	H 	0.26	0.9562	0.1918	0.069
Mof_H 	H 	0.046	0.7596	0.3312	0.03
Mof_H 	H 	0.5482	0.0438	0.1918	0.099
Mof_H 	H 	0.7328	0.8874	0.005	0.077
Mof_H 	H 	0.0211	0.2942	0.7058	0.126
Mof_H 	H 	0.6704	0.3806	0.4798	0.103
Mof_H 	H 	0.1572	0.3222	0.1366	-0.027
Mof_H 	H 	0.1984	0.8404	0.1724	0.124
Mof_H 	H 	0.6447	0.3822	0.81	0.121
Mof_H 	H 	0.5358	0.2736	0.2136	-0.018
Mof_H 	H 	0.6132	0.2596	0.8312	0.009
Mof_H 	H 	0.2192	0.8806	0.9798	0.093
Mof_H 	H 	0.2578	0.209	0.0932	0.113
Mof_H 	H 	0.1248	0.3874	0.505	0.107
Mof_H 	H 	0.2758	0.8258	0.7256	-0.034
Mof_H 	H 	0.19	0.709	0.5932	0.1
Mof_H 	H 	0.7513	0.9988	0.045	0.076
Mof_H 	H 	0.8587	0.5976	0.3916	0.001
Mof_H 	H 	0.2622	0.1126	0.005	0.094
Mof_H 	H 	0.9237	0.8594	0.1542	0.082
Mof_H 	H 	0.727	0.7736	0.7136	0
Mof_H 	H 	0.7888	0.6596	0.6724	0.094
Mof_H 	H 	0.6292	0.1596	0.1724	0.104
Mof_H 	H 	0.342	0.4562	0.6918	0.086
Mof_H 	H 	0.0653	0.2058	0.2058	0.115
Mof_H 	H 	0.9662	0.5438	0.6918	0.077
Mof_H 	H 	0.5556	0.7404	0.8312	0.019
Mof_H 	H 	0.7245	0.8992	0.9178	0.036
Mof_H 	H 	0.2294	0.1778	0.6366	-0.033
Mof_H 	H 	0.9228	0.3258	0.2256	-0.064
Mof_H 	H 	0.649	0.791	0.0932	0.12
Mof_H 	H 	0.8516	0.6742	0.2256	-0.069
Mof_H 	H 	0.5331	0.6406	0.6542	0.079
Mof_H 	H 	0.2037	0.0012	0.045	0.093
Mof_C 	C 	0.2054	0.0764	0.8414	0.541
Mof_C 	C 	0.0224	0.0684	0.2384	0.121
Mof_C 	C 	0.0505	0.0798	0.0928	0.061
Mof_C 	C 	0.7368	0.948	0.182	0.177
Mof_C 	C 	0.9237	0.2152	0.7428	0.18
Mof_C 	C 	0.8038	0.1598	0.2922	-0.157
Mof_C 	C 	0.6308	0.033	0.1168	-0.031
Mof_C 	C 	0.3815	0.8994	0.0986	0.044
Mof_C 	C 	0.4833	0.6906	0.1796	-0.254
Mof_C 	C 	0.8592	0.6926	0.665	-0.154
Mof_C 	C 	0.4208	0.5684	0.7384	0.08
Mof_C 	C 	0.503	0.5974	0.6444	-0.104
Mof_C 	C 	0.8832	0.448	0.682	0.04
Mof_C 	C 	0.9823	0.7662	0.3052	0.103
Mof_C 	C 	0.1	0.3986	0.4306	0.145
Mof_C 	C 	0.3889	0.4864	0.6672	-0.112
Mof_C 	C 	0.5697	0.7786	0.1182	-0.219
Mof_C 	C 	0.7705	0.1222	0.7892	0.436
Mof_C 	C 	0.904	0.8402	0.2922	-0.186
Mof_C 	C 	0.4942	0.6598	0.7922	-0.157
Mof_C 	C 	0.4694	0.6014	0.4306	0.123
Mof_C 	C 	0.452	0.1708	0.1296	0.109
Mof_C 	C 	0.8889	0.2848	0.2428	0.162
Mof_C 	C 	0.4884	0.2396	0.6896	0.153
Mof_C 	C 	0.7136	0.3402	0.7922	-0.187
Mof_C 	C 	0.9886	0.8736	0.0576	0.103
Mof_C 	C 	0.9538	0.1264	0.0576	0.044
Mof_C 	C 	0.4348	0.552	0.682	0.048
Mof_C 	C 	0.8504	0.9026	0.1444	-0.123
Mof_C 	C 	0.1129	0.8992	0.9144	0.077
Mof_C 	C 	0.2929	0.2108	0.6436	0.144
Mof_C 	C 	0.7959	0.7872	0.231	-0.237
Mof_C 	C 	0.9976	0.6708	0.6296	0.065
Mof_C 	C 	0.3324	0.7396	0.1896	0.179
Mof_C 	C 	0.3018	0.8074	0.165	-0.22
Mof_C 	C 	0.4666	0.6104	0.4824	-0.164
Mof_C 	C 	0.6027	0.7108	0.1436	0.168
Mof_C 	C 	0.3121	0.2214	0.1182	-0.196
Mof_C 	C 	0.0812	0.052	0.182	-0.091
Mof_C 	C 	0.9694	0.533	0.6168	0.031
Mof_C 	C 	0.9124	0.1132	0.9676	-0.161
Mof_C 	C 	0.4138	0.467	0.6168	0.061
Mof_C 	C 	0.9312	0.1494	0.2536	0.075
Mof_C 	C 	0.8408	0.4316	0.7384	0.07
Mof_C 	C 	0.8841	0.8864	0.7062	0.472
Mof_C 	C 	0.4158	0.6494	0.7536	0.098
Mof_C 	C 	0.6268	0.5764	0.3414	0.589
Mof_C 	C 	0.4097	0.1136	0.7062	0.499
Mof_C 	C 	0.8302	0.3736	0.5576	0.086
Mof_C 	C 	0.6963	0.2662	0.8052	0.12
Mof_C 	C 	0.2733	0.3864	0.2062	0.526
Mof_C 	C 	0.7524	0.2988	0.2802	-0.198
Mof_C 	C 	0.0052	0.0974	0.1444	-0.06
Mof_C 	C 	0.1396	0.0936	0.8976	-0.196
Mof_C 	C 	0.0309	0.6006	0.5986	0.105
Mof_C 	C 	0.822	0.7604	0.6896	0.118
Mof_C 	C 	0.0983	0.7214	0.6182	-0.142
Mof_C 	C 	0.8855	0.3842	0.5008	0.069
Mof_C 	C 	0.12	0.8868	0.9676	-0.062
Mof_C 	C 	0.8567	0.9202	0.0928	0.02
Mof_C 	C 	0.7392	0.9316	0.2384	0.038
Mof_C 	C 	0.7125	0.2338	0.3052	0.094
Mof_C 	C 	0.9674	0.7012	0.2802	-0.217
Mof_C 	C 	0.6427	0.3778	0.2892	0.439
Mof_C 	C 	0.2537	0.2892	0.1436	0.148
Mof_C 	C 	0.5205	0.6136	0.2062	0.533
Mof_C 	C 	0.8803	0.4202	0.5928	0.028
Mof_C 	C 	0.3331	0.7128	0.731	-0.188
Mof_C 	C 	0.0681	0.6222	0.2892	0.455
Mof_C 	C 	0.8526	0.4026	0.6444	-0.097
Mof_C 	C 	0.8208	0.8986	0.9306	0.068
Mof_C 	C 	0.9359	0.2872	0.731	-0.245
Mof_C 	C 	0.7621	0.6008	0.4144	0.108
Mof_C 	C 	0.5199	0.1006	0.0986	0.078
Mof_C 	C 	0.1726	0.0146	0.0792	-0.237
Mof_C 	C 	0.3728	0.3292	0.6296	0.12
Mof_C 	C 	0.2075	0.9864	0.1672	0.024
Mof_C 	C 	0.3335	0.7848	0.7428	0.135
Mof_C 	C 	0.827	0.8896	0.9824	-0.077
Mof_C 	C 	0.4186	0.7988	0.7802	-0.17
Mof_C 	C 	0.6253	0.0136	0.1672	-0.242
Mof_C 	C 	0.2835	0.2786	0.6182	-0.201
Mof_C 	C 	0.8235	0.3992	0.4144	0.119
Mof_C 	C 	0.9731	0.2128	0.231	-0.22
Mof_C 	C 	0.3371	0.3094	0.1796	-0.239
Mof_C 	C 	0.9532	0.9236	0.8414	0.523
Mof_C 	C 	0.0318	0.4236	0.3414	0.622
Mof_C 	C 	0.8152	0.8506	0.2536	0.143
Mof_C 	C 	0.3705	0.3994	0.5986	0.063
Mof_C 	C 	0.2524	0.967	0.1168	0.15
Mof_C 	C 	0.8012	0.2012	0.7802	-0.208
Mof_C 	C 	0.6122	0.6264	0.5576	0.083
Mof_C 	C 	0.4836	0.5146	0.5792	-0.099
Mof_C 	C 	0.0197	0.1158	0.0008	0.081
Mof_C 	C 	0.5269	0.5798	0.5928	0.041
Mof_C 	C 	0.4403	0.8778	0.7892	0.407
Mof_C 	C 	0.8306	0.3506	0.7536	0.127
Mof_C 	C 	0.9439	0.5136	0.6672	-0.097
Mof_C 	C 	0.051	0.3896	0.4824	-0.165
Mof_C 	C 	0.3965	0.1906	0.6796	-0.233
Mof_C 	C 	0.1906	0.1104	0.9824	-0.153
Mof_C 	C 	0.9832	0.4064	0.3976	-0.251
Mof_C 	C 	0.6192	0.5936	0.3976	-0.214
Mof_C 	C 	0.8683	0.7152	0.2428	0.183
Mof_C 	C 	0.9239	0.8094	0.6796	-0.201
Mof_C 	C 	0.7568	0.6132	0.4676	-0.147
Mof_C 	C 	0.0635	0.7892	0.6436	0.12
Mof_C 	C 	0.9372	0.4854	0.5792	-0.084
Mof_C 	C 	0.4184	0.8292	0.1296	0.144
Mof_C 	C 	0.2486	0.1014	0.9306	0.092
Mof_C 	C 	0.4985	0.7338	0.8052	0.089
Mof_C 	C 	0.9727	0.1008	0.9144	0.071
Mof_C 	C 	0.4758	0.3074	0.665	-0.2
Mof_C 	C 	0.5332	0.1926	0.165	-0.198
Mof_C 	C 	0.478	0.2604	0.1896	0.154
Mof_C 	C 	0.7482	0.9854	0.0792	0.041
Mof_C 	C 	0.7756	0.3868	0.4676	-0.156
Mof_C 	C 	0.6137	0.6158	0.5008	0.081
Mof_C 	C 	0.9628	0.9064	0.8976	-0.157
Mof_C 	C 	0.9795	0.8842	0.0008	0.011
Mof_O 	O 	0.68645	0.6702	0.5699	-0.186
Mof_O 	O 	0.8055	0.9408	0.8328	-0.516
Mof_O 	O 	0.33163	0.4024	0.55494	-0.185
Mof_O 	O 	0.38558	0.93324	0.7614	-0.522
Mof_O 	O 	0.3617	0.0592	0.8328	-0.593
Mof_O 	O 	0.7462	0.5758	0.311	-0.567
Mof_O 	O 	0.042	0.0178	0.2694	-0.25
Mof_O 	O 	0.8098	0.4822	0.7694	-0.182
Mof_O 	O 	0.82345	0.1702	0.0699	-0.191
Mof_O 	O 	0.072	0.9242	0.811	-0.47
Mof_O 	O 	0.46103	0.9024	0.05494	-0.151
Mof_O 	O 	0.3789	0.416	0.2236	-0.582
Mof_O 	O 	0.4963	0.5592	0.3328	-0.62
Mof_O 	O 	0.5259	0.8848	0.823	-0.416
Mof_O 	O 	0.1709	0.4408	0.3328	-0.628
Mof_O 	O 	0.4208	0.5178	0.7694	-0.182
Mof_O 	O 	0.117	0.0758	0.811	-0.539
Mof_O 	O 	0.7315	0.916	0.7236	-0.486
Mof_O 	O 	0.06882	0.56676	0.2614	-0.635
Mof_O 	O 	0.6699	0.5834	0.2074	-0.618
Mof_O 	O 	0.74365	0.3298	0.5699	-0.2
Mof_O 	O 	0.5163	0.3848	0.323	-0.482
Mof_O 	O 	0.0033	0.9166	0.7074	-0.509
Mof_O 	O 	0.9428	0.4242	0.311	-0.586
Mof_O 	O 	0.2893	0.0834	0.7074	-0.589
Mof_O 	O 	0.85302	0.06676	0.7614	-0.622
Mof_O 	O 	0.3975	0.584	0.2236	-0.583
Mof_O 	O 	0.48403	0.0976	0.05494	-0.216
Mof_O 	O 	0.5449	0.084	0.7236	-0.557
Mof_O 	O 	0.10665	0.8298	0.0699	-0.184
Mof_O 	O 	0.6511	0.1152	0.823	-0.463
Mof_O 	O 	0.66978	0.43324	0.2614	-0.637
Mof_O 	O 	0.1227	0.4166	0.2074	-0.609
Mof_O 	O 	0.6886	0.9822	0.2694	-0.112
Mof_O 	O 	0.1607	0.6152	0.323	-0.479
Mof_O 	O 	0.11343	0.5976	0.55494	-0.188
_end
