data_functionalizedCrystal
_audit_creation_method	'EQeq! by Chris Wilmer'
_symmetry_space_group_name_H-M	'P1'
_symmetry_Int_Tables_number	1
_symmetry_cell_setting	triclinic
loop_
_symmetry_equiv_pos_as_xyz
  x,y,z
_cell_length_a	37.475
_cell_length_b	13.327
_cell_length_c	15.9941
_cell_angle_alpha	90
_cell_angle_beta	90
_cell_angle_gamma	90
loop_
_atom_site_label
_atom_site_type_symbol
_atom_site_fract_x
_atom_site_fract_y
_atom_site_fract_z
_atom_site_charge
Mof_Mn	Mn	0.97164	0.13597	0.1388	0.799
Mof_C 	C 	0.74608	0.8771	0.9352	0.157
Mof_C 	C 	0.68552	0.8725	0.8341	-0.09
Mof_C 	C 	0.80996	0.2328	0.1769	0.139
Mof_C 	C 	0.83798	0.6289	0.05	-0.069
Mof_C 	C 	0.80019	0.1464	0.1248	-0.096
Mof_C 	C 	0.7376	0.9591	0.885	-0.171
Mof_H 	H 	0.7523	0.0154	0.884	0.105
Mof_C 	C 	0.6941	0.7919	0.8828	0.046
Mof_H 	H 	0.6795	0.7354	0.8824	0.031
Mof_C 	C 	0.80355	0.7277	0.9505	-0.14
Mof_H 	H 	0.7946	0.7349	0.8966	0.089
Mof_C 	C 	0.8747	0.3672	0.0474	0.058
Mof_H 	H 	0.8693	0.3056	0.0232	0.02
Mof_C 	C 	0.85966	0.5417	0.0696	0.104
Mof_C 	C 	0.58485	0.8934	0.7061	-0.178
Mof_C 	C 	0.64999	0.8774	0.7858	0.15
Mof_C 	C 	0.90511	0.3764	0.0979	-0.109
Mof_C 	C 	0.72439	0.7936	0.9327	-0.17
Mof_H 	H 	0.7301	0.7378	0.9649	0.101
Mof_C 	C 	0.79637	0.798	0.0097	0.128
Mof_C 	C 	0.91154	0.4679	0.1375	0.054
Mof_H 	H 	0.9307	0.4742	0.174	0.034
Mof_C 	C 	0.8007	0.399	0.2315	0.108
Mof_H 	H 	0.786	0.4551	0.2351	0.004
Mof_C 	C 	0.78927	0.3158	0.1876	-0.191
Mof_H 	H 	0.7665	0.3165	0.1644	0.099
Mof_C 	C 	0.70691	0.9554	0.8363	0.047
Mof_H 	H 	0.7008	0.011	0.8043	0.011
Mof_C 	C 	0.76569	0.1096	0.1228	0.046
Mof_H 	H 	0.748	0.1416	0.1537	0.018
Mof_C 	C 	0.8524	0.4504	0.0329	-0.159
Mof_H 	H 	0.8326	0.4437	0.9982	0.097
Mof_C 	C 	0.88947	0.5494	0.1225	-0.137
Mof_H 	H 	0.8945	0.6104	0.1481	0.087
Mof_C 	C 	0.5913	0.8168	0.7615	0.115
Mof_H 	H 	0.5736	0.7703	0.7736	0.003
Mof_C 	C 	0.82975	0.702	0.1104	0.025
Mof_H 	H 	0.8383	0.6945	0.1646	0.035
Mof_C 	C 	0.78226	0.975	0.0331	0.141
Mof_C 	C 	0.8093	0.7844	0.091	-0.144
Mof_H 	H 	0.804	0.8314	0.1322	0.086
Mof_C 	C 	0.5481	0.9082	0.6692	0.369
Mof_C 	C 	0.9286	0.2874	0.1129	0.3
Mof_C 	C 	0.8427	0.2351	0.2181	-0.194
Mof_H 	H 	0.8574	0.1791	0.2144	0.1
Mof_C 	C 	0.8335	0.3999	0.2699	-0.177
Mof_C 	C 	0.82506	0.6422	0.9715	0.032
Mof_H 	H 	0.8302	0.595	0.9305	0.023
Mof_C 	C 	0.62429	0.8095	0.7989	-0.204
Mof_H 	H 	0.6288	0.7558	0.8344	0.109
Mof_C 	C 	0.8541	0.3147	0.2632	0.124
Mof_H 	H 	0.8761	0.3119	0.2899	0.012
Mof_C 	C 	0.81787	0.0143	0.0327	-0.163
Mof_H 	H 	0.8358	0.9829	0.0023	0.101
Mof_C 	C 	0.82462	0.097	0.0769	0.048
Mof_H 	H 	0.8477	0.1228	0.0749	0.022
Mof_C 	C 	0.6109	0.9605	0.6893	0.112
Mof_H 	H 	0.6073	0.0118	0.6508	-0.003
Mof_C 	C 	0.8441	0.4926	0.3145	0.425
Mof_C 	C 	0.75702	0.0263	0.0759	-0.173
Mof_H 	H 	0.7334	0.0051	0.0736	0.094
Mof_C 	C 	0.64323	0.9509	0.7308	-0.203
Mof_H 	H 	0.6611	0.9977	0.72	0.1
Mof_O 	O 	0.91899	0.2018	0.0906	-0.335
Mof_O 	O 	0.95823	0.3016	0.1511	-0.318
Mof_O 	O 	0.54299	0.9838	0.6224	-0.399
Mof_O 	O 	0.52473	0.8411	0.6811	-0.377
Mof_O 	O 	0.87538	0.4763	0.3525	-0.486
Mof_H 	H 	0.882	0.528	0.3755	0.279
Mof_O 	O 	0.82884	0.5682	0.3173	-0.327
Mof_N 	N 	0.77557	0.8832	0.9894	-0.171
Mof_Mn	Mn	0.02836	0.86403	0.1388	0.798
Mof_C 	C 	0.25392	0.1229	0.9352	0.156
Mof_C 	C 	0.31448	0.1275	0.8341	-0.091
Mof_C 	C 	0.19004	0.7672	0.1769	0.138
Mof_C 	C 	0.16202	0.3711	0.05	-0.07
Mof_C 	C 	0.19981	0.8536	0.1248	-0.097
Mof_C 	C 	0.2624	0.0409	0.885	-0.172
Mof_H 	H 	0.2477	0.9846	0.884	0.104
Mof_C 	C 	0.3059	0.2081	0.8828	0.046
Mof_H 	H 	0.3205	0.2646	0.8824	0.031
Mof_C 	C 	0.19645	0.2723	0.9505	-0.14
Mof_H 	H 	0.2054	0.2651	0.8966	0.089
Mof_C 	C 	0.1253	0.6328	0.0474	0.058
Mof_H 	H 	0.1307	0.6944	0.0232	0.02
Mof_C 	C 	0.14034	0.4583	0.0696	0.104
Mof_C 	C 	0.41515	0.1066	0.7061	-0.178
Mof_C 	C 	0.35001	0.1226	0.7858	0.15
Mof_C 	C 	0.09489	0.6236	0.0979	-0.109
Mof_C 	C 	0.27561	0.2064	0.9327	-0.17
Mof_H 	H 	0.2699	0.2622	0.9649	0.101
Mof_C 	C 	0.20363	0.202	0.0097	0.128
Mof_C 	C 	0.08846	0.5321	0.1375	0.054
Mof_H 	H 	0.0693	0.5258	0.174	0.034
Mof_C 	C 	0.1993	0.601	0.2315	0.108
Mof_H 	H 	0.214	0.5449	0.2351	0.004
Mof_C 	C 	0.21073	0.6842	0.1876	-0.191
Mof_H 	H 	0.2335	0.6835	0.1644	0.099
Mof_C 	C 	0.29309	0.0446	0.8363	0.047
Mof_H 	H 	0.2992	0.989	0.8043	0.011
Mof_C 	C 	0.23431	0.8904	0.1228	0.046
Mof_H 	H 	0.252	0.8584	0.1537	0.018
Mof_C 	C 	0.1476	0.5496	0.0329	-0.159
Mof_H 	H 	0.1674	0.5563	0.9982	0.097
Mof_C 	C 	0.11053	0.4506	0.1225	-0.137
Mof_H 	H 	0.1055	0.3896	0.1481	0.087
Mof_C 	C 	0.4087	0.1832	0.7615	0.115
Mof_H 	H 	0.4264	0.2297	0.7736	0.003
Mof_C 	C 	0.17025	0.298	0.1104	0.025
Mof_H 	H 	0.1617	0.3055	0.1646	0.035
Mof_C 	C 	0.21774	0.025	0.0331	0.141
Mof_C 	C 	0.1907	0.2156	0.091	-0.144
Mof_H 	H 	0.196	0.1686	0.1322	0.086
Mof_C 	C 	0.4519	0.0918	0.6692	0.369
Mof_C 	C 	0.0714	0.7126	0.1129	0.3
Mof_C 	C 	0.1573	0.7649	0.2181	-0.194
Mof_H 	H 	0.1426	0.8209	0.2144	0.1
Mof_C 	C 	0.1665	0.6001	0.2699	-0.177
Mof_C 	C 	0.17494	0.3578	0.9715	0.032
Mof_H 	H 	0.1698	0.405	0.9305	0.023
Mof_C 	C 	0.37571	0.1905	0.7989	-0.204
Mof_H 	H 	0.3712	0.2442	0.8344	0.109
Mof_C 	C 	0.1459	0.6853	0.2632	0.124
Mof_H 	H 	0.1239	0.6881	0.2899	0.012
Mof_C 	C 	0.18213	0.9857	0.0327	-0.163
Mof_H 	H 	0.1642	0.0171	0.0023	0.101
Mof_C 	C 	0.17538	0.903	0.0769	0.048
Mof_H 	H 	0.1523	0.8772	0.0749	0.022
Mof_C 	C 	0.3891	0.0395	0.6893	0.112
Mof_H 	H 	0.3927	0.9882	0.6508	-0.003
Mof_C 	C 	0.1559	0.5074	0.3145	0.425
Mof_C 	C 	0.24298	0.9737	0.0759	-0.173
Mof_H 	H 	0.2666	0.9949	0.0736	0.094
Mof_C 	C 	0.35677	0.0491	0.7308	-0.203
Mof_H 	H 	0.3389	0.0023	0.72	0.1
Mof_O 	O 	0.08101	0.7982	0.0906	-0.335
Mof_O 	O 	0.04177	0.6984	0.1511	-0.318
Mof_O 	O 	0.45701	0.0162	0.6224	-0.399
Mof_O 	O 	0.47527	0.1589	0.6811	-0.377
Mof_O 	O 	0.12462	0.5237	0.3525	-0.486
Mof_H 	H 	0.118	0.472	0.3755	0.279
Mof_O 	O 	0.17116	0.4318	0.3173	-0.327
Mof_N 	N 	0.22443	0.1168	0.9894	-0.171
Mof_Mn	Mn	0.47164	0.86403	0.6388	0.801
Mof_C 	C 	0.24608	0.1229	0.4352	0.155
Mof_C 	C 	0.18552	0.1275	0.3341	-0.091
Mof_C 	C 	0.30996	0.7672	0.6769	0.141
Mof_C 	C 	0.33798	0.3711	0.55	-0.054
Mof_C 	C 	0.30019	0.8536	0.6248	-0.102
Mof_C 	C 	0.2376	0.0409	0.385	-0.172
Mof_H 	H 	0.2523	0.9846	0.384	0.103
Mof_C 	C 	0.1941	0.2081	0.3828	0.046
Mof_H 	H 	0.1795	0.2646	0.3824	0.03
Mof_C 	C 	0.30355	0.2723	0.4505	-0.15
Mof_H 	H 	0.2946	0.2651	0.3966	0.092
Mof_C 	C 	0.3747	0.6328	0.5474	0.041
Mof_H 	H 	0.3693	0.6944	0.5232	0.028
Mof_C 	C 	0.35966	0.4583	0.5696	0.087
Mof_C 	C 	0.08485	0.1066	0.2061	-0.179
Mof_C 	C 	0.14999	0.1226	0.2858	0.15
Mof_C 	C 	0.40511	0.6236	0.5979	-0.098
Mof_C 	C 	0.22439	0.2064	0.4327	-0.171
Mof_H 	H 	0.2301	0.2622	0.4649	0.099
Mof_C 	C 	0.29637	0.202	0.5097	0.143
Mof_C 	C 	0.41154	0.5321	0.6375	0.043
Mof_H 	H 	0.4307	0.5258	0.674	0.038
Mof_C 	C 	0.3007	0.601	0.7315	0.11
Mof_H 	H 	0.286	0.5449	0.7351	0.003
Mof_C 	C 	0.28927	0.6842	0.6876	-0.193
Mof_H 	H 	0.2665	0.6835	0.6644	0.1
Mof_C 	C 	0.20691	0.0446	0.3363	0.047
Mof_H 	H 	0.2008	0.989	0.3043	0.011
Mof_C 	C 	0.26569	0.8904	0.6228	0.053
Mof_H 	H 	0.248	0.8584	0.6537	0.016
Mof_C 	C 	0.3524	0.5496	0.5329	-0.13
Mof_H 	H 	0.3326	0.5563	0.4982	0.081
Mof_C 	C 	0.38947	0.4506	0.6225	-0.124
Mof_H 	H 	0.3945	0.3896	0.6481	0.083
Mof_C 	C 	0.0913	0.1832	0.2615	0.115
Mof_H 	H 	0.0736	0.2297	0.2736	0.002
Mof_C 	C 	0.32975	0.298	0.6104	0.021
Mof_H 	H 	0.3383	0.3055	0.6646	0.036
Mof_C 	C 	0.28226	0.025	0.5331	0.152
Mof_C 	C 	0.3093	0.2156	0.591	-0.146
Mof_H 	H 	0.304	0.1686	0.6322	0.087
Mof_C 	C 	0.0481	0.0918	0.1692	0.369
Mof_C 	C 	0.4286	0.7126	0.6129	0.296
Mof_C 	C 	0.3427	0.7649	0.7181	-0.196
Mof_H 	H 	0.3574	0.8209	0.7144	0.101
Mof_C 	C 	0.3335	0.6001	0.7699	-0.178
Mof_C 	C 	0.32506	0.3578	0.4715	0.019
Mof_H 	H 	0.3302	0.405	0.4305	0.026
Mof_C 	C 	0.12429	0.1905	0.2989	-0.205
Mof_H 	H 	0.1288	0.2442	0.3344	0.108
Mof_C 	C 	0.3541	0.6853	0.7632	0.125
Mof_H 	H 	0.3761	0.6881	0.7899	0.013
Mof_C 	C 	0.31787	0.9857	0.5327	-0.17
Mof_H 	H 	0.3358	0.0171	0.5023	0.105
Mof_C 	C 	0.32462	0.903	0.5769	0.055
Mof_H 	H 	0.3477	0.8772	0.5749	0.02
Mof_C 	C 	0.1109	0.0395	0.1893	0.112
Mof_H 	H 	0.1073	0.9882	0.1508	-0.004
Mof_C 	C 	0.3441	0.5074	0.8145	0.426
Mof_C 	C 	0.25702	0.9737	0.5759	-0.18
Mof_H 	H 	0.2334	0.9949	0.5736	0.099
Mof_C 	C 	0.14323	0.0491	0.2308	-0.204
Mof_H 	H 	0.1611	0.0023	0.22	0.101
Mof_O 	O 	0.41899	0.7982	0.5906	-0.333
Mof_O 	O 	0.45823	0.6984	0.6511	-0.317
Mof_O 	O 	0.04299	0.0162	0.1224	-0.399
Mof_O 	O 	0.02473	0.1589	0.1811	-0.377
Mof_O 	O 	0.37538	0.5237	0.8525	-0.485
Mof_H 	H 	0.382	0.472	0.8755	0.28
Mof_O 	O 	0.32884	0.4318	0.8173	-0.326
Mof_N 	N 	0.27557	0.1168	0.4894	-0.181
Mof_Mn	Mn	0.52836	0.13597	0.6388	0.801
Mof_C 	C 	0.75392	0.8771	0.4352	0.155
Mof_C 	C 	0.81448	0.8725	0.3341	-0.091
Mof_C 	C 	0.69004	0.2328	0.6769	0.141
Mof_C 	C 	0.66202	0.6289	0.55	-0.054
Mof_C 	C 	0.69981	0.1464	0.6248	-0.102
Mof_C 	C 	0.7624	0.9591	0.385	-0.172
Mof_H 	H 	0.7477	0.0154	0.384	0.103
Mof_C 	C 	0.8059	0.7919	0.3828	0.046
Mof_H 	H 	0.8205	0.7354	0.3824	0.03
Mof_C 	C 	0.69645	0.7277	0.4505	-0.15
Mof_H 	H 	0.7054	0.7349	0.3966	0.092
Mof_C 	C 	0.6253	0.3672	0.5474	0.041
Mof_H 	H 	0.6307	0.3056	0.5232	0.028
Mof_C 	C 	0.64034	0.5417	0.5696	0.087
Mof_C 	C 	0.91515	0.8934	0.2061	-0.179
Mof_C 	C 	0.85001	0.8774	0.2858	0.15
Mof_C 	C 	0.59489	0.3764	0.5979	-0.098
Mof_C 	C 	0.77561	0.7936	0.4327	-0.171
Mof_H 	H 	0.7699	0.7378	0.4649	0.099
Mof_C 	C 	0.70363	0.798	0.5097	0.143
Mof_C 	C 	0.58846	0.4679	0.6375	0.043
Mof_H 	H 	0.5693	0.4742	0.674	0.038
Mof_C 	C 	0.6993	0.399	0.7315	0.11
Mof_H 	H 	0.714	0.4551	0.7351	0.003
Mof_C 	C 	0.71073	0.3158	0.6876	-0.193
Mof_H 	H 	0.7335	0.3165	0.6644	0.1
Mof_C 	C 	0.79309	0.9554	0.3363	0.047
Mof_H 	H 	0.7992	0.011	0.3043	0.011
Mof_C 	C 	0.73431	0.1096	0.6228	0.053
Mof_H 	H 	0.752	0.1416	0.6537	0.016
Mof_C 	C 	0.6476	0.4504	0.5329	-0.13
Mof_H 	H 	0.6674	0.4437	0.4982	0.081
Mof_C 	C 	0.61053	0.5494	0.6225	-0.124
Mof_H 	H 	0.6055	0.6104	0.6481	0.083
Mof_C 	C 	0.9087	0.8168	0.2615	0.115
Mof_H 	H 	0.9264	0.7703	0.2736	0.002
Mof_C 	C 	0.67025	0.702	0.6104	0.021
Mof_H 	H 	0.6617	0.6945	0.6646	0.036
Mof_C 	C 	0.71774	0.975	0.5331	0.152
Mof_C 	C 	0.6907	0.7844	0.591	-0.146
Mof_H 	H 	0.696	0.8314	0.6322	0.087
Mof_C 	C 	0.9519	0.9082	0.1692	0.369
Mof_C 	C 	0.5714	0.2874	0.6129	0.296
Mof_C 	C 	0.6573	0.2351	0.7181	-0.196
Mof_H 	H 	0.6426	0.1791	0.7144	0.101
Mof_C 	C 	0.6665	0.3999	0.7699	-0.178
Mof_C 	C 	0.67494	0.6422	0.4715	0.019
Mof_H 	H 	0.6698	0.595	0.4305	0.026
Mof_C 	C 	0.87571	0.8095	0.2989	-0.205
Mof_H 	H 	0.8712	0.7558	0.3344	0.108
Mof_C 	C 	0.6459	0.3147	0.7632	0.125
Mof_H 	H 	0.6239	0.3119	0.7899	0.013
Mof_C 	C 	0.68213	0.0143	0.5327	-0.17
Mof_H 	H 	0.6642	0.9829	0.5023	0.105
Mof_C 	C 	0.67538	0.097	0.5769	0.055
Mof_H 	H 	0.6523	0.1228	0.5749	0.02
Mof_C 	C 	0.8891	0.9605	0.1893	0.112
Mof_H 	H 	0.8927	0.0118	0.1508	-0.004
Mof_C 	C 	0.6559	0.4926	0.8145	0.426
Mof_C 	C 	0.74298	0.0263	0.5759	-0.18
Mof_H 	H 	0.7666	0.0051	0.5736	0.099
Mof_C 	C 	0.85677	0.9509	0.2308	-0.204
Mof_H 	H 	0.8389	0.9977	0.22	0.101
Mof_O 	O 	0.58101	0.2018	0.5906	-0.333
Mof_O 	O 	0.54177	0.3016	0.6511	-0.317
Mof_O 	O 	0.95701	0.9838	0.1224	-0.399
Mof_O 	O 	0.97527	0.8411	0.1811	-0.377
Mof_O 	O 	0.62462	0.4763	0.8525	-0.485
Mof_H 	H 	0.618	0.528	0.8755	0.28
Mof_O 	O 	0.67116	0.5682	0.8173	-0.326
Mof_N 	N 	0.72443	0.8832	0.4894	-0.181
Mof_Mn	Mn	0.97164	0.63597	0.6388	0.801
Mof_C 	C 	0.74608	0.3771	0.4352	0.155
Mof_C 	C 	0.68552	0.3725	0.3341	-0.091
Mof_C 	C 	0.80996	0.7328	0.6769	0.142
Mof_C 	C 	0.83798	0.1289	0.55	-0.054
Mof_C 	C 	0.80019	0.6464	0.6248	-0.103
Mof_C 	C 	0.7376	0.4591	0.385	-0.172
Mof_H 	H 	0.7523	0.5154	0.384	0.103
Mof_C 	C 	0.6941	0.2919	0.3828	0.046
Mof_H 	H 	0.6795	0.2354	0.3824	0.03
Mof_C 	C 	0.80355	0.2277	0.4505	-0.15
Mof_H 	H 	0.7946	0.2349	0.3966	0.092
Mof_C 	C 	0.8747	0.8672	0.5474	0.041
Mof_H 	H 	0.8693	0.8056	0.5232	0.028
Mof_C 	C 	0.85966	0.0417	0.5696	0.087
Mof_C 	C 	0.58485	0.3934	0.2061	-0.179
Mof_C 	C 	0.64999	0.3774	0.2858	0.15
Mof_C 	C 	0.90511	0.8764	0.5979	-0.098
Mof_C 	C 	0.72439	0.2936	0.4327	-0.171
Mof_H 	H 	0.7301	0.2378	0.4649	0.099
Mof_C 	C 	0.79637	0.298	0.5097	0.143
Mof_C 	C 	0.91154	0.9679	0.6375	0.043
Mof_H 	H 	0.9307	0.9742	0.674	0.038
Mof_C 	C 	0.8007	0.899	0.7315	0.11
Mof_H 	H 	0.786	0.9551	0.7351	0.003
Mof_C 	C 	0.78927	0.8158	0.6876	-0.193
Mof_H 	H 	0.7665	0.8165	0.6644	0.1
Mof_C 	C 	0.70691	0.4554	0.3363	0.048
Mof_H 	H 	0.7008	0.511	0.3043	0.011
Mof_C 	C 	0.76569	0.6096	0.6228	0.054
Mof_H 	H 	0.748	0.6416	0.6537	0.016
Mof_C 	C 	0.8524	0.9504	0.5329	-0.13
Mof_H 	H 	0.8326	0.9437	0.4982	0.081
Mof_C 	C 	0.88947	0.0494	0.6225	-0.124
Mof_H 	H 	0.8945	0.1104	0.6481	0.083
Mof_C 	C 	0.5913	0.3168	0.2615	0.115
Mof_H 	H 	0.5736	0.2703	0.2736	0.002
Mof_C 	C 	0.82975	0.202	0.6104	0.021
Mof_H 	H 	0.8383	0.1945	0.6646	0.036
Mof_C 	C 	0.78226	0.475	0.5331	0.153
Mof_C 	C 	0.8093	0.2844	0.591	-0.146
Mof_H 	H 	0.804	0.3314	0.6322	0.087
Mof_C 	C 	0.5481	0.4082	0.1692	0.369
Mof_C 	C 	0.9286	0.7874	0.6129	0.296
Mof_C 	C 	0.8427	0.7351	0.7181	-0.196
Mof_H 	H 	0.8574	0.6791	0.7144	0.101
Mof_C 	C 	0.8335	0.8999	0.7699	-0.178
Mof_C 	C 	0.82506	0.1422	0.4715	0.019
Mof_H 	H 	0.8302	0.095	0.4305	0.026
Mof_C 	C 	0.62429	0.3095	0.2989	-0.205
Mof_H 	H 	0.6288	0.2558	0.3344	0.108
Mof_C 	C 	0.8541	0.8147	0.7632	0.126
Mof_H 	H 	0.8761	0.8119	0.7899	0.012
Mof_C 	C 	0.81787	0.5143	0.5327	-0.171
Mof_H 	H 	0.8358	0.4829	0.5023	0.106
Mof_C 	C 	0.82462	0.597	0.5769	0.056
Mof_H 	H 	0.8477	0.6228	0.5749	0.02
Mof_C 	C 	0.6109	0.4605	0.1893	0.112
Mof_H 	H 	0.6073	0.5118	0.1508	-0.004
Mof_C 	C 	0.8441	0.9926	0.8145	0.426
Mof_C 	C 	0.75702	0.5263	0.5759	-0.181
Mof_H 	H 	0.7334	0.5051	0.5736	0.099
Mof_C 	C 	0.64323	0.4509	0.2308	-0.204
Mof_H 	H 	0.6611	0.4977	0.22	0.101
Mof_O 	O 	0.91899	0.7018	0.5906	-0.333
Mof_O 	O 	0.95823	0.8016	0.6511	-0.316
Mof_O 	O 	0.54299	0.4838	0.1224	-0.4
Mof_O 	O 	0.52473	0.3411	0.1811	-0.377
Mof_O 	O 	0.87538	0.9763	0.8525	-0.485
Mof_H 	H 	0.882	0.028	0.8755	0.28
Mof_O 	O 	0.82884	0.0682	0.8173	-0.326
Mof_N 	N 	0.77557	0.3832	0.4894	-0.181
Mof_Mn	Mn	0.02836	0.36403	0.6388	0.801
Mof_C 	C 	0.25392	0.6229	0.4352	0.155
Mof_C 	C 	0.31448	0.6275	0.3341	-0.091
Mof_C 	C 	0.19004	0.2672	0.6769	0.142
Mof_C 	C 	0.16202	0.8711	0.55	-0.054
Mof_C 	C 	0.19981	0.3536	0.6248	-0.103
Mof_C 	C 	0.2624	0.5409	0.385	-0.172
Mof_H 	H 	0.2477	0.4846	0.384	0.103
Mof_C 	C 	0.3059	0.7081	0.3828	0.046
Mof_H 	H 	0.3205	0.7646	0.3824	0.03
Mof_C 	C 	0.19645	0.7723	0.4505	-0.15
Mof_H 	H 	0.2054	0.7651	0.3966	0.092
Mof_C 	C 	0.1253	0.1328	0.5474	0.041
Mof_H 	H 	0.1307	0.1944	0.5232	0.028
Mof_C 	C 	0.14034	0.9583	0.5696	0.087
Mof_C 	C 	0.41515	0.6066	0.2061	-0.179
Mof_C 	C 	0.35001	0.6226	0.2858	0.15
Mof_C 	C 	0.09489	0.1236	0.5979	-0.098
Mof_C 	C 	0.27561	0.7064	0.4327	-0.171
Mof_H 	H 	0.2699	0.7622	0.4649	0.099
Mof_C 	C 	0.20363	0.702	0.5097	0.143
Mof_C 	C 	0.08846	0.0321	0.6375	0.043
Mof_H 	H 	0.0693	0.0258	0.674	0.038
Mof_C 	C 	0.1993	0.101	0.7315	0.11
Mof_H 	H 	0.214	0.0449	0.7351	0.003
Mof_C 	C 	0.21073	0.1842	0.6876	-0.193
Mof_H 	H 	0.2335	0.1835	0.6644	0.1
Mof_C 	C 	0.29309	0.5446	0.3363	0.048
Mof_H 	H 	0.2992	0.489	0.3043	0.011
Mof_C 	C 	0.23431	0.3904	0.6228	0.054
Mof_H 	H 	0.252	0.3584	0.6537	0.016
Mof_C 	C 	0.1476	0.0496	0.5329	-0.13
Mof_H 	H 	0.1674	0.0563	0.4982	0.081
Mof_C 	C 	0.11053	0.9506	0.6225	-0.124
Mof_H 	H 	0.1055	0.8896	0.6481	0.083
Mof_C 	C 	0.4087	0.6832	0.2615	0.115
Mof_H 	H 	0.4264	0.7297	0.2736	0.002
Mof_C 	C 	0.17025	0.798	0.6104	0.021
Mof_H 	H 	0.1617	0.8055	0.6646	0.036
Mof_C 	C 	0.21774	0.525	0.5331	0.153
Mof_C 	C 	0.1907	0.7156	0.591	-0.146
Mof_H 	H 	0.196	0.6686	0.6322	0.087
Mof_C 	C 	0.4519	0.5918	0.1692	0.369
Mof_C 	C 	0.0714	0.2126	0.6129	0.296
Mof_C 	C 	0.1573	0.2649	0.7181	-0.196
Mof_H 	H 	0.1426	0.3209	0.7144	0.101
Mof_C 	C 	0.1665	0.1001	0.7699	-0.178
Mof_C 	C 	0.17494	0.8578	0.4715	0.019
Mof_H 	H 	0.1698	0.905	0.4305	0.026
Mof_C 	C 	0.37571	0.6905	0.2989	-0.205
Mof_H 	H 	0.3712	0.7442	0.3344	0.108
Mof_C 	C 	0.1459	0.1853	0.7632	0.126
Mof_H 	H 	0.1239	0.1881	0.7899	0.012
Mof_C 	C 	0.18213	0.4857	0.5327	-0.171
Mof_H 	H 	0.1642	0.5171	0.5023	0.106
Mof_C 	C 	0.17538	0.403	0.5769	0.056
Mof_H 	H 	0.1523	0.3772	0.5749	0.02
Mof_C 	C 	0.3891	0.5395	0.1893	0.112
Mof_H 	H 	0.3927	0.4882	0.1508	-0.004
Mof_C 	C 	0.1559	0.0074	0.8145	0.426
Mof_C 	C 	0.24298	0.4737	0.5759	-0.181
Mof_H 	H 	0.2666	0.4949	0.5736	0.099
Mof_C 	C 	0.35677	0.5491	0.2308	-0.204
Mof_H 	H 	0.3389	0.5023	0.22	0.101
Mof_O 	O 	0.08101	0.2982	0.5906	-0.333
Mof_O 	O 	0.04177	0.1984	0.6511	-0.316
Mof_O 	O 	0.45701	0.5162	0.1224	-0.4
Mof_O 	O 	0.47527	0.6589	0.1811	-0.377
Mof_O 	O 	0.12462	0.0237	0.8525	-0.485
Mof_H 	H 	0.118	0.972	0.8755	0.28
Mof_O 	O 	0.17116	0.9318	0.8173	-0.326
Mof_N 	N 	0.22443	0.6168	0.4894	-0.181
Mof_Mn	Mn	0.47164	0.36403	0.1388	0.799
Mof_C 	C 	0.24608	0.6229	0.9352	0.156
Mof_C 	C 	0.18552	0.6275	0.8341	-0.091
Mof_C 	C 	0.30996	0.2672	0.1769	0.138
Mof_C 	C 	0.33798	0.8711	0.05	-0.07
Mof_C 	C 	0.30019	0.3536	0.1248	-0.098
Mof_C 	C 	0.2376	0.5409	0.885	-0.172
Mof_H 	H 	0.2523	0.4846	0.884	0.103
Mof_C 	C 	0.1941	0.7081	0.8828	0.046
Mof_H 	H 	0.1795	0.7646	0.8824	0.031
Mof_C 	C 	0.30355	0.7723	0.9505	-0.14
Mof_H 	H 	0.2946	0.7651	0.8966	0.089
Mof_C 	C 	0.3747	0.1328	0.0474	0.058
Mof_H 	H 	0.3693	0.1944	0.0232	0.02
Mof_C 	C 	0.35966	0.9583	0.0696	0.104
Mof_C 	C 	0.08485	0.6066	0.7061	-0.178
Mof_C 	C 	0.14999	0.6226	0.7858	0.151
Mof_C 	C 	0.40511	0.1236	0.0979	-0.109
Mof_C 	C 	0.22439	0.7064	0.9327	-0.17
Mof_H 	H 	0.2301	0.7622	0.9649	0.101
Mof_C 	C 	0.29637	0.702	0.0097	0.128
Mof_C 	C 	0.41154	0.0321	0.1375	0.054
Mof_H 	H 	0.4307	0.0258	0.174	0.034
Mof_C 	C 	0.3007	0.101	0.2315	0.108
Mof_H 	H 	0.286	0.0449	0.2351	0.003
Mof_C 	C 	0.28927	0.1842	0.1876	-0.191
Mof_H 	H 	0.2665	0.1835	0.1644	0.099
Mof_C 	C 	0.20691	0.5446	0.8363	0.048
Mof_H 	H 	0.2008	0.489	0.8043	0.011
Mof_C 	C 	0.26569	0.3904	0.1228	0.047
Mof_H 	H 	0.248	0.3584	0.1537	0.018
Mof_C 	C 	0.3524	0.0496	0.0329	-0.159
Mof_H 	H 	0.3326	0.0563	0.9982	0.096
Mof_C 	C 	0.38947	0.9506	0.1225	-0.137
Mof_H 	H 	0.3945	0.8896	0.1481	0.087
Mof_C 	C 	0.0913	0.6832	0.7615	0.115
Mof_H 	H 	0.0736	0.7297	0.7736	0.003
Mof_C 	C 	0.32975	0.798	0.1104	0.025
Mof_H 	H 	0.3383	0.8055	0.1646	0.035
Mof_C 	C 	0.28226	0.525	0.0331	0.142
Mof_C 	C 	0.3093	0.7156	0.091	-0.144
Mof_H 	H 	0.304	0.6686	0.1322	0.086
Mof_C 	C 	0.0481	0.5918	0.6692	0.369
Mof_C 	C 	0.4286	0.2126	0.1129	0.3
Mof_C 	C 	0.3427	0.2649	0.2181	-0.194
Mof_H 	H 	0.3574	0.3209	0.2144	0.1
Mof_C 	C 	0.3335	0.1001	0.2699	-0.177
Mof_C 	C 	0.32506	0.8578	0.9715	0.031
Mof_H 	H 	0.3302	0.905	0.9305	0.023
Mof_C 	C 	0.12429	0.6905	0.7989	-0.205
Mof_H 	H 	0.1288	0.7442	0.8344	0.109
Mof_C 	C 	0.3541	0.1853	0.2632	0.124
Mof_H 	H 	0.3761	0.1881	0.2899	0.012
Mof_C 	C 	0.31787	0.4857	0.0327	-0.164
Mof_H 	H 	0.3358	0.5171	0.0023	0.101
Mof_C 	C 	0.32462	0.403	0.0769	0.048
Mof_H 	H 	0.3477	0.3772	0.0749	0.021
Mof_C 	C 	0.1109	0.5395	0.6893	0.112
Mof_H 	H 	0.1073	0.4882	0.6508	-0.003
Mof_C 	C 	0.3441	0.0074	0.3145	0.425
Mof_C 	C 	0.25702	0.4737	0.0759	-0.174
Mof_H 	H 	0.2334	0.4949	0.0736	0.094
Mof_C 	C 	0.14323	0.5491	0.7308	-0.204
Mof_H 	H 	0.1611	0.5023	0.72	0.101
Mof_O 	O 	0.41899	0.2982	0.0906	-0.335
Mof_O 	O 	0.45823	0.1984	0.1511	-0.318
Mof_O 	O 	0.04299	0.5162	0.6224	-0.399
Mof_O 	O 	0.02473	0.6589	0.6811	-0.377
Mof_O 	O 	0.37538	0.0237	0.3525	-0.486
Mof_H 	H 	0.382	0.972	0.3755	0.279
Mof_O 	O 	0.32884	0.9318	0.3173	-0.327
Mof_N 	N 	0.27557	0.6168	0.9894	-0.172
Mof_Mn	Mn	0.52836	0.63597	0.1388	0.799
Mof_C 	C 	0.75392	0.3771	0.9352	0.156
Mof_C 	C 	0.81448	0.3725	0.8341	-0.091
Mof_C 	C 	0.69004	0.7328	0.1769	0.138
Mof_C 	C 	0.66202	0.1289	0.05	-0.07
Mof_C 	C 	0.69981	0.6464	0.1248	-0.098
Mof_C 	C 	0.7624	0.4591	0.885	-0.172
Mof_H 	H 	0.7477	0.5154	0.884	0.103
Mof_C 	C 	0.8059	0.2919	0.8828	0.046
Mof_H 	H 	0.8205	0.2354	0.8824	0.031
Mof_C 	C 	0.69645	0.2277	0.9505	-0.14
Mof_H 	H 	0.7054	0.2349	0.8966	0.089
Mof_C 	C 	0.6253	0.8672	0.0474	0.058
Mof_H 	H 	0.6307	0.8056	0.0232	0.02
Mof_C 	C 	0.64034	0.0417	0.0696	0.104
Mof_C 	C 	0.91515	0.3934	0.7061	-0.178
Mof_C 	C 	0.85001	0.3774	0.7858	0.151
Mof_C 	C 	0.59489	0.8764	0.0979	-0.109
Mof_C 	C 	0.77561	0.2936	0.9327	-0.17
Mof_H 	H 	0.7699	0.2378	0.9649	0.101
Mof_C 	C 	0.70363	0.298	0.0097	0.128
Mof_C 	C 	0.58846	0.9679	0.1375	0.054
Mof_H 	H 	0.5693	0.9742	0.174	0.034
Mof_C 	C 	0.6993	0.899	0.2315	0.108
Mof_H 	H 	0.714	0.9551	0.2351	0.003
Mof_C 	C 	0.71073	0.8158	0.1876	-0.191
Mof_H 	H 	0.7335	0.8165	0.1644	0.099
Mof_C 	C 	0.79309	0.4554	0.8363	0.048
Mof_H 	H 	0.7992	0.511	0.8043	0.011
Mof_C 	C 	0.73431	0.6096	0.1228	0.047
Mof_H 	H 	0.752	0.6416	0.1537	0.018
Mof_C 	C 	0.6476	0.9504	0.0329	-0.159
Mof_H 	H 	0.6674	0.9437	0.9982	0.096
Mof_C 	C 	0.61053	0.0494	0.1225	-0.137
Mof_H 	H 	0.6055	0.1104	0.1481	0.087
Mof_C 	C 	0.9087	0.3168	0.7615	0.115
Mof_H 	H 	0.9264	0.2703	0.7736	0.003
Mof_C 	C 	0.67025	0.202	0.1104	0.025
Mof_H 	H 	0.6617	0.1945	0.1646	0.035
Mof_C 	C 	0.71774	0.475	0.0331	0.142
Mof_C 	C 	0.6907	0.2844	0.091	-0.144
Mof_H 	H 	0.696	0.3314	0.1322	0.086
Mof_C 	C 	0.9519	0.4082	0.6692	0.369
Mof_C 	C 	0.5714	0.7874	0.1129	0.3
Mof_C 	C 	0.6573	0.7351	0.2181	-0.194
Mof_H 	H 	0.6426	0.6791	0.2144	0.1
Mof_C 	C 	0.6665	0.8999	0.2699	-0.177
Mof_C 	C 	0.67494	0.1422	0.9715	0.031
Mof_H 	H 	0.6698	0.095	0.9305	0.023
Mof_C 	C 	0.87571	0.3095	0.7989	-0.205
Mof_H 	H 	0.8712	0.2558	0.8344	0.109
Mof_C 	C 	0.6459	0.8147	0.2632	0.124
Mof_H 	H 	0.6239	0.8119	0.2899	0.012
Mof_C 	C 	0.68213	0.5143	0.0327	-0.164
Mof_H 	H 	0.6642	0.4829	0.0023	0.101
Mof_C 	C 	0.67538	0.597	0.0769	0.048
Mof_H 	H 	0.6523	0.6228	0.0749	0.021
Mof_C 	C 	0.8891	0.4605	0.6893	0.112
Mof_H 	H 	0.8927	0.5118	0.6508	-0.003
Mof_C 	C 	0.6559	0.9926	0.3145	0.425
Mof_C 	C 	0.74298	0.5263	0.0759	-0.174
Mof_H 	H 	0.7666	0.5051	0.0736	0.094
Mof_C 	C 	0.85677	0.4509	0.7308	-0.204
Mof_H 	H 	0.8389	0.4977	0.72	0.101
Mof_O 	O 	0.58101	0.7018	0.0906	-0.335
Mof_O 	O 	0.54177	0.8016	0.1511	-0.318
Mof_O 	O 	0.95701	0.4838	0.6224	-0.399
Mof_O 	O 	0.97527	0.3411	0.6811	-0.377
Mof_O 	O 	0.62462	0.9763	0.3525	-0.486
Mof_H 	H 	0.618	0.028	0.3755	0.279
Mof_O 	O 	0.67116	0.0682	0.3173	-0.327
Mof_N 	N 	0.72443	0.3832	0.9894	-0.172
_end
