data_functionalizedCrystal
_audit_creation_method	'EQeq! by Chris Wilmer'
_symmetry_space_group_name_H-M	'P1'
_symmetry_Int_Tables_number	1
_symmetry_cell_setting	triclinic
loop_
_symmetry_equiv_pos_as_xyz
  x,y,z
_cell_length_a	8.105
_cell_length_b	16.969
_cell_length_c	17.666
_cell_angle_alpha	90
_cell_angle_beta	102.495
_cell_angle_gamma	90
loop_
_atom_site_label
_atom_site_type_symbol
_atom_site_fract_x
_atom_site_fract_y
_atom_site_fract_z
_atom_site_charge
Mof_Cu	Cu	0.00577	0.70429	0.28783	0.881
Mof_Cu	Cu	0.20535	0.60267	0.17002	0.929
Mof_Cu	Cu	0.53558	0.66737	0.97293	0.909
Mof_Cu	Cu	0.40762	0.58083	0.79756	0.911
Mof_C 	C 	0.8915	0.6557	0.0586	0.09
Mof_H 	H 	0.9261	0.6367	0.0139	-0.01
Mof_C 	C 	0.7421	0.7021	0.1338	0.106
Mof_H 	H 	0.65	0.7228	0.1529	-0.013
Mof_C 	C 	0.7201	0.8275	0.2783	0.106
Mof_H 	H 	0.7184	0.8455	0.2273	-0.01
Mof_C 	C 	0.7824	0.7659	0.3839	0.092
Mof_H 	H 	0.8346	0.7309	0.4239	-0.014
Mof_C 	C 	0.3047	0.6978	0.3974	0.234
Mof_C 	C 	0.3482	0.6543	0.3268	0.134
Mof_H 	H 	0.4478	0.6814	0.3134	-0.014
Mof_C 	C 	0.3965	0.5704	0.3462	-0.435
Mof_H 	H 	0.2981	0.5423	0.3581	0.162
Mof_H 	H 	0.4884	0.5691	0.3933	0.168
Mof_C 	C 	0.4541	0.5276	0.282	0.422
Mof_C 	C 	0.2884	0.5872	0.0237	0.234
Mof_C 	C 	0.2711	0.5553	0.9412	0.16
Mof_H 	H 	0.3089	0.4991	0.9429	-0.031
Mof_C 	C 	0.1135	0.5622	0.895	-0.475
Mof_H 	H 	0.0873	0.6191	0.8885	0.168
Mof_H 	H 	0.0321	0.5392	0.9233	0.177
Mof_C 	C 	0.0796	0.5248	0.8137	0.461
Mof_N 	N 	0.658	0.8139	0.3898	-0.205
Mof_N 	N 	0.618	0.854	0.3206	-0.201
Mof_N 	N 	0.8278	0.772	0.3146	-0.244
Mof_N 	N 	0.895	0.6876	0.1778	-0.207
Mof_N 	N 	0.9897	0.6583	0.1291	-0.193
Mof_N 	N 	0.7348	0.6837	0.0589	-0.231
Mof_O 	O 	0.1557	0.7234	0.3897	-0.38
Mof_O 	O 	0.4187	0.7065	0.4567	-0.315
Mof_O 	O 	0.2099	0.6623	0.2626	-0.471
Mof_O 	O 	0.4176	0.5512	0.2118	-0.443
Mof_O 	O 	0.537	0.4637	0.2994	-0.401
Mof_O 	O 	0.1947	0.5578	0.0656	-0.371
Mof_O 	O 	0.4012	0.6378	0.0472	-0.383
Mof_O 	O 	0.3824	0.6059	0.9011	-0.471
Mof_O 	O 	0.1979	0.5208	0.7773	-0.428
Mof_O 	O 	0.9373	0.5044	0.7857	-0.395
Mof_Cu	Cu	0.99423	0.20429	0.21217	0.881
Mof_Cu	Cu	0.79465	0.10267	0.32998	0.929
Mof_Cu	Cu	0.46442	0.16737	0.52707	0.911
Mof_Cu	Cu	0.59238	0.08083	0.70244	0.912
Mof_C 	C 	0.1085	0.1557	0.4414	0.09
Mof_H 	H 	0.0739	0.1367	0.4861	-0.009
Mof_C 	C 	0.2579	0.2021	0.3662	0.105
Mof_H 	H 	0.35	0.2228	0.3471	-0.013
Mof_C 	C 	0.2799	0.3275	0.2217	0.105
Mof_H 	H 	0.2816	0.3455	0.2727	-0.011
Mof_C 	C 	0.2176	0.2659	0.1161	0.091
Mof_H 	H 	0.1654	0.2309	0.0761	-0.014
Mof_C 	C 	0.6953	0.1978	0.1026	0.234
Mof_C 	C 	0.6518	0.1543	0.1732	0.133
Mof_H 	H 	0.5522	0.1814	0.1866	-0.014
Mof_C 	C 	0.6035	0.0704	0.1538	-0.433
Mof_H 	H 	0.7019	0.0423	0.1419	0.16
Mof_H 	H 	0.5116	0.0691	0.1067	0.167
Mof_C 	C 	0.5459	0.0276	0.218	0.418
Mof_C 	C 	0.7116	0.0872	0.4763	0.235
Mof_C 	C 	0.7289	0.0553	0.5588	0.154
Mof_H 	H 	0.6911	0.9991	0.5571	-0.028
Mof_C 	C 	0.8865	0.0622	0.605	-0.468
Mof_H 	H 	0.9127	0.1191	0.6115	0.166
Mof_H 	H 	0.9679	0.0392	0.5767	0.173
Mof_C 	C 	0.9204	0.0248	0.6863	0.451
Mof_N 	N 	0.342	0.3139	0.1102	-0.205
Mof_N 	N 	0.382	0.354	0.1794	-0.201
Mof_N 	N 	0.1722	0.272	0.1854	-0.244
Mof_N 	N 	0.105	0.1876	0.3222	-0.207
Mof_N 	N 	0.0103	0.1583	0.3709	-0.192
Mof_N 	N 	0.2652	0.1837	0.4411	-0.231
Mof_O 	O 	0.8443	0.2234	0.1103	-0.38
Mof_O 	O 	0.5813	0.2065	0.0433	-0.316
Mof_O 	O 	0.7901	0.1623	0.2374	-0.472
Mof_O 	O 	0.5824	0.0512	0.2882	-0.443
Mof_O 	O 	0.463	0.9637	0.2006	-0.399
Mof_O 	O 	0.8053	0.0578	0.4344	-0.373
Mof_O 	O 	0.5988	0.1378	0.4528	-0.384
Mof_O 	O 	0.6176	0.1059	0.5989	-0.47
Mof_O 	O 	0.8021	0.0208	0.7227	-0.426
Mof_O 	O 	0.0627	0.0044	0.7143	-0.387
Mof_Cu	Cu	0.99423	0.29571	0.71217	0.882
Mof_Cu	Cu	0.79465	0.39733	0.82998	0.93
Mof_Cu	Cu	0.46442	0.33263	0.02707	0.91
Mof_Cu	Cu	0.59238	0.41917	0.20244	0.912
Mof_C 	C 	0.1085	0.3443	0.9414	0.09
Mof_H 	H 	0.0739	0.3633	0.9861	-0.01
Mof_C 	C 	0.2579	0.2979	0.8662	0.106
Mof_H 	H 	0.35	0.2772	0.8471	-0.013
Mof_C 	C 	0.2799	0.1725	0.7217	0.106
Mof_H 	H 	0.2816	0.1545	0.7727	-0.01
Mof_C 	C 	0.2176	0.2341	0.6161	0.092
Mof_H 	H 	0.1654	0.2691	0.5761	-0.014
Mof_C 	C 	0.6953	0.3022	0.6026	0.234
Mof_C 	C 	0.6518	0.3457	0.6732	0.134
Mof_H 	H 	0.5522	0.3186	0.6866	-0.014
Mof_C 	C 	0.6035	0.4296	0.6538	-0.435
Mof_H 	H 	0.7019	0.4577	0.6419	0.162
Mof_H 	H 	0.5116	0.4309	0.6067	0.168
Mof_C 	C 	0.5459	0.4724	0.718	0.422
Mof_C 	C 	0.7116	0.4128	0.9763	0.234
Mof_C 	C 	0.7289	0.4447	0.0588	0.16
Mof_H 	H 	0.6911	0.5009	0.0571	-0.031
Mof_C 	C 	0.8865	0.4378	0.105	-0.475
Mof_H 	H 	0.9127	0.3809	0.1115	0.168
Mof_H 	H 	0.9679	0.4608	0.0767	0.177
Mof_C 	C 	0.9204	0.4752	0.1863	0.461
Mof_N 	N 	0.342	0.1861	0.6102	-0.205
Mof_N 	N 	0.382	0.146	0.6794	-0.201
Mof_N 	N 	0.1722	0.228	0.6854	-0.244
Mof_N 	N 	0.105	0.3124	0.8222	-0.207
Mof_N 	N 	0.0103	0.3417	0.8709	-0.193
Mof_N 	N 	0.2652	0.3163	0.9411	-0.231
Mof_O 	O 	0.8443	0.2766	0.6103	-0.38
Mof_O 	O 	0.5813	0.2935	0.5433	-0.315
Mof_O 	O 	0.7901	0.3377	0.7374	-0.471
Mof_O 	O 	0.5824	0.4488	0.7882	-0.443
Mof_O 	O 	0.463	0.5363	0.7006	-0.401
Mof_O 	O 	0.8053	0.4422	0.9344	-0.371
Mof_O 	O 	0.5988	0.3622	0.9528	-0.383
Mof_O 	O 	0.6176	0.3941	0.0989	-0.471
Mof_O 	O 	0.8021	0.4792	0.2227	-0.428
Mof_O 	O 	0.0627	0.4956	0.2143	-0.395
Mof_Cu	Cu	0.00577	0.79571	0.78783	0.881
Mof_Cu	Cu	0.20535	0.89733	0.67002	0.929
Mof_Cu	Cu	0.53558	0.83263	0.47293	0.911
Mof_Cu	Cu	0.40762	0.91917	0.29756	0.912
Mof_C 	C 	0.8915	0.8443	0.5586	0.09
Mof_H 	H 	0.9261	0.8633	0.5139	-0.009
Mof_C 	C 	0.7421	0.7979	0.6338	0.105
Mof_H 	H 	0.65	0.7772	0.6529	-0.013
Mof_C 	C 	0.7201	0.6725	0.7783	0.105
Mof_H 	H 	0.7184	0.6545	0.7273	-0.011
Mof_C 	C 	0.7824	0.7341	0.8839	0.091
Mof_H 	H 	0.8346	0.7691	0.9239	-0.014
Mof_C 	C 	0.3047	0.8022	0.8974	0.234
Mof_C 	C 	0.3482	0.8457	0.8268	0.133
Mof_H 	H 	0.4478	0.8186	0.8134	-0.014
Mof_C 	C 	0.3965	0.9296	0.8462	-0.433
Mof_H 	H 	0.2981	0.9577	0.8581	0.16
Mof_H 	H 	0.4884	0.9309	0.8933	0.167
Mof_C 	C 	0.4541	0.9724	0.782	0.418
Mof_C 	C 	0.2884	0.9128	0.5237	0.235
Mof_C 	C 	0.2711	0.9447	0.4412	0.154
Mof_H 	H 	0.3089	0.0009	0.4429	-0.028
Mof_C 	C 	0.1135	0.9378	0.395	-0.468
Mof_H 	H 	0.0873	0.8809	0.3885	0.166
Mof_H 	H 	0.0321	0.9608	0.4233	0.173
Mof_C 	C 	0.0796	0.9752	0.3137	0.451
Mof_N 	N 	0.658	0.6861	0.8898	-0.205
Mof_N 	N 	0.618	0.646	0.8206	-0.201
Mof_N 	N 	0.8278	0.728	0.8146	-0.244
Mof_N 	N 	0.895	0.8124	0.6778	-0.207
Mof_N 	N 	0.9897	0.8417	0.6291	-0.192
Mof_N 	N 	0.7348	0.8163	0.5589	-0.231
Mof_O 	O 	0.1557	0.7766	0.8897	-0.38
Mof_O 	O 	0.4187	0.7935	0.9567	-0.316
Mof_O 	O 	0.2099	0.8377	0.7626	-0.472
Mof_O 	O 	0.4176	0.9488	0.7118	-0.443
Mof_O 	O 	0.537	0.0363	0.7994	-0.399
Mof_O 	O 	0.1947	0.9422	0.5656	-0.373
Mof_O 	O 	0.4012	0.8622	0.5472	-0.384
Mof_O 	O 	0.3824	0.8941	0.4011	-0.47
Mof_O 	O 	0.1979	0.9792	0.2773	-0.426
Mof_O 	O 	0.9373	0.9956	0.2857	-0.387
_end
