# CIF file generated by openbabel 3.1.0, see https://openbabel.org
data_I
_chemical_name_common 'image0'
_cell_length_a 12.4225
_cell_length_b 12.9981
_cell_length_c 14.779
_cell_angle_alpha 64.384
_cell_angle_beta 80.885
_cell_angle_gamma 79.562
_space_group_name_H-M_alt 'P 1'
_space_group_name_Hall 'P 1'
loop_
    _symmetry_equiv_pos_as_xyz
    x,y,z
loop_
    _atom_site_label
    _atom_site_type_symbol
    _atom_site_fract_x
    _atom_site_fract_y
    _atom_site_fract_z
    _atom_site_occupancy
    Ni1      Ni       0.22886    0.21634    0.21228    1.000
    O1       O        0.43991    0.20650    0.64687    1.000
    N1       N        0.28829    0.07016    0.34483    1.000
    C1       C        0.37072    0.17741    0.61139    1.000
    Ni2      Ni       0.44943    0.17556    0.79524    1.000
    O2       O        0.27609    0.15370    0.65467    1.000
    N2       N        0.74820    0.31700    0.04190    1.000
    C2       C        0.40290    0.16660    0.51310    1.000
    Ni3      Ni       0.80975    0.15484    0.16290    1.000
    O3       O        0.72340    0.20080    0.36680    1.000
    N3       N        0.89730    0.68120    0.26320    1.000
    C3       C        0.50810    0.18380    0.46620    1.000
    Ni4      Ni       0.84687    0.78284    0.11979    1.000
    O4       O        0.67748    0.13930    0.26069    1.000
    C4       C        0.54120    0.15800    0.38330    1.000
    O5       O        0.47445    0.99093    0.16385    1.000
    C5       C        0.46880    0.11900    0.34610    1.000
    O6       O        0.33399    0.12858    0.13884    1.000
    C6       C        0.36160    0.10530    0.39060    1.000
    O7       O        0.02820    0.97100    0.37950    1.000
    C7       C        0.32930    0.12860    0.47500    1.000
    O8       O        0.10403    0.11460    0.25306    1.000
    C8       C        0.65640    0.16790    0.33320    1.000
    O9       O        0.35228    0.31240    0.17460    1.000
    C9       C        0.18740    0.02770    0.40830    1.000
    O10      O        0.30840    0.43830    0.24390    1.000
    C10      C        0.10030    0.03620    0.34190    1.000
    O11      O        0.61182    0.65982    0.22845    1.000
    C11      C        0.34660    0.98350    0.30600    1.000
    O12      O        0.75495    0.66884    0.11274    1.000
    C12      C        0.38950    0.03830    0.19490    1.000
    O13      O        0.94072    0.17233    0.05595    1.000
    C13      C        0.37390    0.38890    0.19660    1.000
    O14      O        0.02277    0.30818    0.92558    1.000
    C14      C        0.66840    0.62830    0.16380    1.000
    O15      O        0.73740    0.08855    0.08943    1.000
    C15      C        0.52250    0.50940    0.17790    1.000
    O16      O        0.69470    0.12490    0.93860    1.000
    C16      C        0.62980    0.53500    0.14690    1.000
    C17      C        0.70230    0.47460    0.09950    1.000
    C18      C        0.67020    0.38740    0.08400    1.000
    C19      C        0.56270    0.36230    0.11470    1.000
    C20      C        0.48880    0.42270    0.16180    1.000
    O17      O        0.28945    0.12953    0.83037    1.000
    C21      C        0.85200    0.36670    0.99360    1.000
    C22      C        0.94420    0.27330    0.99140    1.000
    C23      C        0.70170    0.28530    0.97180    1.000
    C24      C        0.71280    0.15700    0.00180    1.000
    C25      C        0.97830    0.53870    0.45030    1.000
    H1       H        0.25930    0.15490    0.77490    1.000
    H2       H        0.29070    0.05850    0.85850    1.000
    H3       H        0.29630    0.93750    0.30340    1.000
    H4       H        0.40440    0.93390    0.34430    1.000
    H5       H        0.15440    0.07170    0.44080    1.000
    H6       H        0.20520    0.94450    0.46460    1.000
    H7       H        0.62170    0.31570    0.96200    1.000
    H8       H        0.73300    0.32710    0.89950    1.000
    H9       H        0.87510    0.39440    0.03200    1.000
    H10      H        0.83240    0.41840    0.91370    1.000
    H11      H        0.53920    0.30030    0.10930    1.000
    H12      H        0.49670    0.10430    0.28220    1.000
    H13      H        0.25310    0.11090    0.51410    1.000
    H14      H        0.55950    0.20040    0.50050    1.000
    H15      H        0.77750    0.49020    0.08510    1.000
    H16      H        0.46420    0.54670    0.21920    1.000
    C26      C        0.83409    0.61806    0.34060    1.000
    C27      C        0.87149    0.54725    0.43370    1.000
    C28      C        0.00169    0.67746    0.28000    1.000
    C29      C        0.04609    0.60845    0.37050    1.000
    H17      H        0.81740    0.51230    0.48440    1.000
    H18      H        0.11960    0.62130    0.37760    1.000
    H19      H        0.76040    0.63490    0.33340    1.000
    H20      H        0.06010    0.72360    0.22080    1.000
    Ni5      Ni       0.77114    0.78366    0.78772    1.000
    O18      O        0.56009    0.79350    0.35313    1.000
    N4       N        0.71171    0.92984    0.65517    1.000
    C30      C        0.62928    0.82259    0.38861    1.000
    Ni6      Ni       0.55057    0.82444    0.20476    1.000
    O19      O        0.72391    0.84630    0.34533    1.000
    N5       N        0.25180    0.68300    0.95810    1.000
    C31      C        0.59710    0.83340    0.48690    1.000
    Ni7      Ni       0.19025    0.84516    0.83710    1.000
    O20      O        0.27660    0.79920    0.63320    1.000
    N6       N        0.10270    0.31880    0.73680    1.000
    C32      C        0.49190    0.81620    0.53380    1.000
    Ni8      Ni       0.15313    0.21716    0.88021    1.000
    O21      O        0.32252    0.86070    0.73931    1.000
    C33      C        0.45880    0.84200    0.61670    1.000
    O22      O        0.52555    0.00907    0.83615    1.000
    C34      C        0.53120    0.88100    0.65390    1.000
    O23      O        0.66601    0.87142    0.86116    1.000
    C35      C        0.63840    0.89470    0.60940    1.000
    O24      O        0.97180    0.02900    0.62050    1.000
    C36      C        0.67070    0.87140    0.52500    1.000
    O25      O        0.89597    0.88540    0.74694    1.000
    C37      C        0.34360    0.83210    0.66680    1.000
    O26      O        0.64772    0.68760    0.82540    1.000
    C38      C        0.81260    0.97230    0.59170    1.000
    O27      O        0.69160    0.56170    0.75610    1.000
    C39      C        0.89970    0.96380    0.65810    1.000
    O28      O        0.38818    0.34018    0.77155    1.000
    C40      C        0.65340    0.01650    0.69400    1.000
    O29      O        0.24505    0.33116    0.88726    1.000
    C41      C        0.61050    0.96170    0.80510    1.000
    O30      O        0.05928    0.82767    0.94405    1.000
    C42      C        0.62610    0.61110    0.80340    1.000
    O31      O        0.97723    0.69182    0.07442    1.000
    C43      C        0.33160    0.37170    0.83620    1.000
    O32      O        0.26260    0.91145    0.91057    1.000
    C44      C        0.47750    0.49060    0.82210    1.000
    O33      O        0.30530    0.87510    0.06140    1.000
    C45      C        0.37020    0.46500    0.85310    1.000
    C46      C        0.29770    0.52540    0.90050    1.000
    C47      C        0.32980    0.61260    0.91600    1.000
    C48      C        0.43730    0.63770    0.88530    1.000
    C49      C        0.51120    0.57730    0.83820    1.000
    O34      O        0.71055    0.87047    0.16963    1.000
    C50      C        0.14800    0.63330    0.00640    1.000
    C51      C        0.05580    0.72670    0.00860    1.000
    C52      C        0.29830    0.71470    0.02820    1.000
    C53      C        0.28720    0.84300    0.99820    1.000
    C54      C        0.02170    0.46130    0.54970    1.000
    H21      H        0.74070    0.84510    0.22510    1.000
    H22      H        0.70930    0.94150    0.14150    1.000
    H23      H        0.70370    0.06250    0.69660    1.000
    H24      H        0.59560    0.06610    0.65570    1.000
    H25      H        0.84560    0.92830    0.55920    1.000
    H26      H        0.79480    0.05550    0.53540    1.000
    H27      H        0.37830    0.68430    0.03800    1.000
    H28      H        0.26700    0.67290    0.10050    1.000
    H29      H        0.12490    0.60560    0.96800    1.000
    H30      H        0.16760    0.58160    0.08630    1.000
    H31      H        0.46080    0.69970    0.89070    1.000
    H32      H        0.50330    0.89570    0.71780    1.000
    H33      H        0.74690    0.88910    0.48590    1.000
    H34      H        0.44050    0.79960    0.49950    1.000
    H35      H        0.22250    0.50980    0.91490    1.000
    H36      H        0.53580    0.45330    0.78080    1.000
    C55      C        0.16591    0.38194    0.65940    1.000
    C56      C        0.12851    0.45275    0.56630    1.000
    C57      C        0.99831    0.32254    0.72000    1.000
    C58      C        0.95391    0.39155    0.62950    1.000
    H37      H        0.18260    0.48770    0.51560    1.000
    H38      H        0.88040    0.37870    0.62240    1.000
    H39      H        0.23960    0.36510    0.66660    1.000
    H40      H        0.93990    0.27640    0.77920    1.000
