data_functionalizedCrystal
_audit_creation_method	'EQeq! by Chris Wilmer'
_symmetry_space_group_name_H-M	'P1'
_symmetry_Int_Tables_number	1
_symmetry_cell_setting	triclinic
loop_
_symmetry_equiv_pos_as_xyz
  x,y,z
_cell_length_a	34.1904
_cell_length_b	14.6784
_cell_length_c	30.1683
_cell_angle_alpha	90
_cell_angle_beta	101.744
_cell_angle_gamma	90
loop_
_atom_site_label
_atom_site_type_symbol
_atom_site_fract_x
_atom_site_fract_y
_atom_site_fract_z
_atom_site_charge
Mof_Zn	Zn	0.37464	0.88897	0.45025	1.188
Mof_Br	Br	0.38822	0.7528	0.4154	-0.228
Mof_Br	Br	0.35804	0.90173	0.5207	-0.473
Mof_Zn	Zn	0.1811	0.6464	0.277	0.612
Mof_Br	Br	0.1397	0.6681	0.2057	-0.034
Mof_Br	Br	0.239	0.7317	0.3027	-0.403
Mof_Zn	Zn	0.08078	0.86411	0.09426	1.191
Mof_Br	Br	0.11503	0.75518	0.06083	-0.474
Mof_Br	Br	0.02886	0.84279	0.13308	-0.449
Mof_N 	N 	0.33129	0.9562	0.40435	-0.264
Mof_C 	C 	0.32794	0.0464	0.40596	0.08
Mof_H 	H 	0.3458	0.0789	0.4288	0.015
Mof_C 	C 	0.29979	0.0946	0.37607	-0.114
Mof_H 	H 	0.2987	0.1591	0.3779	0.094
Mof_C 	C 	0.27315	0.048	0.34337	0.054
Mof_C 	C 	0.27618	0.9537	0.34215	-0.122
Mof_H 	H 	0.2581	0.9194	0.3203	0.101
Mof_C 	C 	0.3055	0.9107	0.37276	0.075
Mof_H 	H 	0.3076	0.8462	0.3715	0.007
Mof_C 	C 	0.24264	0.0959	0.30907	0.091
Mof_N 	N 	0.2375	0.1851	0.31414	-0.139
Mof_C 	C 	0.20921	0.2223	0.28236	0.106
Mof_N 	N 	0.18594	0.1765	0.2486	-0.131
Mof_C 	C 	0.19457	0.0888	0.24632	0.103
Mof_N 	N 	0.22329	0.0446	0.27532	-0.141
Mof_C 	C 	0.20267	0.3224	0.28238	0.065
Mof_C 	C 	0.22504	0.3795	0.31366	-0.123
Mof_H 	H 	0.2451	0.3555	0.3373	0.085
Mof_C 	C 	0.21813	0.472	0.3105	0.077
Mof_H 	H 	0.2336	0.511	0.3324	-0.005
Mof_N 	N 	0.19033	0.5088	0.2775	-0.272
Mof_C 	C 	0.16909	0.4535	0.2477	0.075
Mof_H 	H 	0.1492	0.4791	0.2244	-0.006
Mof_C 	C 	0.17413	0.3612	0.2484	-0.12
Mof_H 	H 	0.1582	0.3241	0.2259	0.088
Mof_C 	C 	0.17113	0.0362	0.20758	0.062
Mof_C 	C 	0.17546	0.9429	0.20376	-0.122
Mof_H 	H 	0.195	0.9107	0.2249	0.08
Mof_C 	C 	0.15087	0.8974	0.16868	0.071
Mof_H 	H 	0.1538	0.8333	0.1663	0.001
Mof_N 	N 	0.12335	0.9397	0.13822	-0.257
Mof_C 	C 	0.12036	0.03	0.14088	0.076
Mof_H 	H 	0.1014	0.0609	0.1185	0.008
Mof_C 	C 	0.14385	0.0801	0.17508	-0.116
Mof_H 	H 	0.1411	0.1445	0.176	0.097
Mof_N 	N 	0.06164	0.9635	0.04546	-0.258
Mof_C 	C 	0.03554	0.028	0.05211	0.066
Mof_H 	H 	0.0211	0.0196	0.0756	0.005
Mof_C 	C 	0.02898	0.1057	0.02611	-0.105
Mof_H 	H 	0.0105	0.1504	0.0318	0.077
Mof_C 	C 	0.04975	0.1179	0.99131	0.049
Mof_C 	C 	0.07509	0.0486	0.98306	-0.107
Mof_H 	H 	0.0886	0.0528	0.9585	0.083
Mof_C 	C 	0.08027	0.9736	0.01131	0.066
Mof_H 	H 	0.098	0.927	0.006	0.003
Mof_C 	C 	0.04571	0.2021	0.96406	0.103
Mof_N 	N 	0.01838	0.2628	0.97071	-0.147
Mof_C 	C 	0.01457	0.3346	0.94311	0.098
Mof_N 	N 	0.03636	0.3507	0.91207	-0.131
Mof_C 	C 	0.06448	0.2886	0.91021	0.113
Mof_N 	N 	0.06982	0.2115	0.93498	-0.132
Mof_C 	C 	0.98262	0.4015	0.94629	0.059
Mof_C 	C 	0.96576	0.4059	0.98348	-0.121
Mof_H 	H 	0.9743	0.3658	0.0083	0.084
Mof_C 	C 	0.93622	0.4687	0.9847	0.084
Mof_H 	H 	0.9251	0.472	0.0111	0.005
Mof_N 	N 	0.92252	0.5252	0.95072	-0.266
Mof_C 	C 	0.93913	0.5204	0.9143	0.081
Mof_H 	H 	0.9298	0.5606	0.8898	-0.01
Mof_C 	C 	0.96885	0.4605	0.9107	-0.12
Mof_H 	H 	0.9799	0.4593	0.8843	0.09
Mof_C 	C 	0.09166	0.3047	0.87871	0.079
Mof_C 	C 	0.12721	0.259	0.8832	-0.114
Mof_H 	H 	0.1347	0.2153	0.9067	0.091
Mof_C 	C 	0.15208	0.2767	0.8535	0.078
Mof_H 	H 	0.1768	0.2452	0.8573	-0.002
Mof_N 	N 	0.14266	0.3364	0.81971	-0.277
Mof_C 	C 	0.1086	0.3808	0.8159	0.09
Mof_H 	H 	0.1017	0.4239	0.7921	-0.016
Mof_C 	C 	0.08249	0.3678	0.8446	-0.123
Mof_H 	H 	0.0585	0.4021	0.8408	0.091
Mof_Br	Br	0.3856	0.7477	0.421	-0.202
Mof_Zn	Zn	0.1733	0.6467	0.2676	0.604
Mof_Br	Br	0.13003	0.6586	0.1966	-0.425
Mof_Br	Br	0.22931	0.7393	0.28906	-0.06
Mof_Zn	Zn	0.87464	0.38897	0.45025	1.189
Mof_Br	Br	0.88822	0.2528	0.4154	-0.227
Mof_Br	Br	0.85804	0.40173	0.5207	-0.472
Mof_Zn	Zn	0.6811	0.1464	0.277	0.613
Mof_Br	Br	0.6397	0.1681	0.2057	-0.033
Mof_Br	Br	0.739	0.2317	0.3027	-0.402
Mof_Zn	Zn	0.58078	0.36411	0.09426	1.192
Mof_Br	Br	0.61503	0.25518	0.06083	-0.472
Mof_Br	Br	0.52886	0.34279	0.13308	-0.449
Mof_N 	N 	0.83129	0.4562	0.40435	-0.264
Mof_C 	C 	0.82794	0.5464	0.40596	0.079
Mof_H 	H 	0.8458	0.5789	0.4288	0.015
Mof_C 	C 	0.79979	0.5946	0.37607	-0.114
Mof_H 	H 	0.7987	0.6591	0.3779	0.094
Mof_C 	C 	0.77315	0.548	0.34337	0.054
Mof_C 	C 	0.77618	0.4537	0.34215	-0.122
Mof_H 	H 	0.7581	0.4194	0.3203	0.101
Mof_C 	C 	0.8055	0.4107	0.37276	0.075
Mof_H 	H 	0.8076	0.3462	0.3715	0.007
Mof_C 	C 	0.74264	0.5959	0.30907	0.091
Mof_N 	N 	0.7375	0.6851	0.31414	-0.139
Mof_C 	C 	0.70921	0.7223	0.28236	0.106
Mof_N 	N 	0.68594	0.6765	0.2486	-0.131
Mof_C 	C 	0.69457	0.5888	0.24632	0.103
Mof_N 	N 	0.72329	0.5446	0.27532	-0.141
Mof_C 	C 	0.70267	0.8224	0.28238	0.065
Mof_C 	C 	0.72504	0.8795	0.31366	-0.123
Mof_H 	H 	0.7451	0.8555	0.3373	0.084
Mof_C 	C 	0.71813	0.972	0.3105	0.076
Mof_H 	H 	0.7336	0.011	0.3324	-0.005
Mof_N 	N 	0.69033	0.0088	0.2775	-0.271
Mof_C 	C 	0.66909	0.9535	0.2477	0.074
Mof_H 	H 	0.6492	0.9791	0.2244	-0.006
Mof_C 	C 	0.67413	0.8612	0.2484	-0.12
Mof_H 	H 	0.6582	0.8241	0.2259	0.088
Mof_C 	C 	0.67113	0.5362	0.20758	0.061
Mof_C 	C 	0.67546	0.4429	0.20376	-0.122
Mof_H 	H 	0.695	0.4107	0.2249	0.08
Mof_C 	C 	0.65087	0.3974	0.16868	0.07
Mof_H 	H 	0.6538	0.3333	0.1663	0.001
Mof_N 	N 	0.62335	0.4397	0.13822	-0.257
Mof_C 	C 	0.62036	0.53	0.14088	0.076
Mof_H 	H 	0.6014	0.5609	0.1185	0.008
Mof_C 	C 	0.64385	0.5801	0.17508	-0.115
Mof_H 	H 	0.6411	0.6445	0.176	0.097
Mof_N 	N 	0.56164	0.4635	0.04546	-0.257
Mof_C 	C 	0.53554	0.528	0.05211	0.066
Mof_H 	H 	0.5211	0.5196	0.0756	0.005
Mof_C 	C 	0.52898	0.6057	0.02611	-0.105
Mof_H 	H 	0.5105	0.6504	0.0318	0.077
Mof_C 	C 	0.54975	0.6179	0.99131	0.049
Mof_C 	C 	0.57509	0.5486	0.98306	-0.107
Mof_H 	H 	0.5886	0.5528	0.9585	0.084
Mof_C 	C 	0.58027	0.4736	0.01131	0.066
Mof_H 	H 	0.598	0.427	0.006	0.003
Mof_C 	C 	0.54571	0.7021	0.96406	0.103
Mof_N 	N 	0.51838	0.7628	0.97071	-0.147
Mof_C 	C 	0.51457	0.8346	0.94311	0.098
Mof_N 	N 	0.53636	0.8507	0.91207	-0.131
Mof_C 	C 	0.56448	0.7886	0.91021	0.113
Mof_N 	N 	0.56982	0.7115	0.93498	-0.132
Mof_C 	C 	0.48262	0.9015	0.94629	0.059
Mof_C 	C 	0.46576	0.9059	0.98348	-0.12
Mof_H 	H 	0.4743	0.8658	0.0083	0.083
Mof_C 	C 	0.43622	0.9687	0.9847	0.085
Mof_H 	H 	0.4251	0.972	0.0111	0.004
Mof_N 	N 	0.42252	0.0252	0.95072	-0.266
Mof_C 	C 	0.43913	0.0204	0.9143	0.081
Mof_H 	H 	0.4298	0.0606	0.8898	-0.01
Mof_C 	C 	0.46885	0.9605	0.9107	-0.119
Mof_H 	H 	0.4799	0.9593	0.8843	0.09
Mof_C 	C 	0.59166	0.8047	0.87871	0.079
Mof_C 	C 	0.62721	0.759	0.8832	-0.114
Mof_H 	H 	0.6347	0.7153	0.9067	0.091
Mof_C 	C 	0.65208	0.7767	0.8535	0.078
Mof_H 	H 	0.6768	0.7452	0.8573	-0.002
Mof_N 	N 	0.64266	0.8364	0.81971	-0.277
Mof_C 	C 	0.6086	0.8808	0.8159	0.09
Mof_H 	H 	0.6017	0.9239	0.7921	-0.016
Mof_C 	C 	0.58249	0.8678	0.8446	-0.123
Mof_H 	H 	0.5585	0.9021	0.8408	0.091
Mof_Br	Br	0.8856	0.2477	0.421	-0.202
Mof_Zn	Zn	0.6733	0.1467	0.2676	0.604
Mof_Br	Br	0.63003	0.1586	0.1966	-0.424
Mof_Br	Br	0.72931	0.2393	0.28906	-0.06
Mof_Zn	Zn	0.37464	0.11103	0.95025	1.189
Mof_Br	Br	0.38822	0.2472	0.9154	-0.227
Mof_Br	Br	0.35804	0.09827	0.0207	-0.472
Mof_Zn	Zn	0.1811	0.3536	0.777	0.613
Mof_Br	Br	0.1397	0.3319	0.7057	-0.033
Mof_Br	Br	0.239	0.2683	0.8027	-0.402
Mof_Zn	Zn	0.08078	0.13589	0.59426	1.192
Mof_Br	Br	0.11503	0.24482	0.56083	-0.473
Mof_Br	Br	0.02886	0.15721	0.63308	-0.449
Mof_N 	N 	0.33129	0.0438	0.90435	-0.264
Mof_C 	C 	0.32794	0.9536	0.90596	0.08
Mof_H 	H 	0.3458	0.9211	0.9288	0.015
Mof_C 	C 	0.29979	0.9054	0.87607	-0.115
Mof_H 	H 	0.2987	0.8409	0.8779	0.094
Mof_C 	C 	0.27315	0.952	0.84337	0.055
Mof_C 	C 	0.27618	0.0463	0.84215	-0.122
Mof_H 	H 	0.2581	0.0806	0.8203	0.101
Mof_C 	C 	0.3055	0.0893	0.87276	0.075
Mof_H 	H 	0.3076	0.1538	0.8715	0.007
Mof_C 	C 	0.24264	0.9041	0.80907	0.09
Mof_N 	N 	0.2375	0.8149	0.81414	-0.139
Mof_C 	C 	0.20921	0.7777	0.78236	0.106
Mof_N 	N 	0.18594	0.8235	0.7486	-0.131
Mof_C 	C 	0.19457	0.9112	0.74632	0.103
Mof_N 	N 	0.22329	0.9554	0.77532	-0.141
Mof_C 	C 	0.20267	0.6776	0.78238	0.065
Mof_C 	C 	0.22504	0.6205	0.81366	-0.123
Mof_H 	H 	0.2451	0.6445	0.8373	0.085
Mof_C 	C 	0.21813	0.528	0.8105	0.077
Mof_H 	H 	0.2336	0.489	0.8324	-0.005
Mof_N 	N 	0.19033	0.4912	0.7775	-0.272
Mof_C 	C 	0.16909	0.5465	0.7477	0.075
Mof_H 	H 	0.1492	0.5209	0.7244	-0.006
Mof_C 	C 	0.17413	0.6388	0.7484	-0.12
Mof_H 	H 	0.1582	0.6759	0.7259	0.088
Mof_C 	C 	0.17113	0.9638	0.70758	0.061
Mof_C 	C 	0.17546	0.0571	0.70376	-0.122
Mof_H 	H 	0.195	0.0893	0.7249	0.08
Mof_C 	C 	0.15087	0.1026	0.66868	0.071
Mof_H 	H 	0.1538	0.1667	0.6663	0.001
Mof_N 	N 	0.12335	0.0603	0.63822	-0.257
Mof_C 	C 	0.12036	0.97	0.64088	0.076
Mof_H 	H 	0.1014	0.9391	0.6185	0.008
Mof_C 	C 	0.14385	0.9199	0.67508	-0.115
Mof_H 	H 	0.1411	0.8555	0.676	0.097
Mof_N 	N 	0.06164	0.0365	0.54546	-0.257
Mof_C 	C 	0.03554	0.972	0.55211	0.066
Mof_H 	H 	0.0211	0.9804	0.5756	0.005
Mof_C 	C 	0.02898	0.8943	0.52611	-0.105
Mof_H 	H 	0.0105	0.8496	0.5318	0.077
Mof_C 	C 	0.04975	0.8821	0.49131	0.049
Mof_C 	C 	0.07509	0.9514	0.48306	-0.107
Mof_H 	H 	0.0886	0.9472	0.4585	0.084
Mof_C 	C 	0.08027	0.0264	0.51131	0.066
Mof_H 	H 	0.098	0.073	0.506	0.003
Mof_C 	C 	0.04571	0.7979	0.46406	0.103
Mof_N 	N 	0.01838	0.7372	0.47071	-0.147
Mof_C 	C 	0.01457	0.6654	0.44311	0.098
Mof_N 	N 	0.03636	0.6493	0.41207	-0.131
Mof_C 	C 	0.06448	0.7114	0.41021	0.113
Mof_N 	N 	0.06982	0.7885	0.43498	-0.132
Mof_C 	C 	0.98262	0.5985	0.44629	0.059
Mof_C 	C 	0.96576	0.5941	0.48348	-0.12
Mof_H 	H 	0.9743	0.6342	0.5083	0.084
Mof_C 	C 	0.93622	0.5313	0.4847	0.084
Mof_H 	H 	0.9251	0.528	0.5111	0.005
Mof_N 	N 	0.92252	0.4748	0.45072	-0.266
Mof_C 	C 	0.93913	0.4796	0.4143	0.081
Mof_H 	H 	0.9298	0.4394	0.3898	-0.01
Mof_C 	C 	0.96885	0.5395	0.4107	-0.12
Mof_H 	H 	0.9799	0.5407	0.3843	0.09
Mof_C 	C 	0.09166	0.6953	0.37871	0.079
Mof_C 	C 	0.12721	0.741	0.3832	-0.114
Mof_H 	H 	0.1347	0.7847	0.4067	0.091
Mof_C 	C 	0.15208	0.7233	0.3535	0.078
Mof_H 	H 	0.1768	0.7548	0.3573	-0.002
Mof_N 	N 	0.14266	0.6636	0.31971	-0.277
Mof_C 	C 	0.1086	0.6192	0.3159	0.09
Mof_H 	H 	0.1017	0.5761	0.2921	-0.016
Mof_C 	C 	0.08249	0.6322	0.3446	-0.123
Mof_H 	H 	0.0585	0.5979	0.3408	0.091
Mof_Br	Br	0.3856	0.2523	0.921	-0.202
Mof_Zn	Zn	0.1733	0.3533	0.7676	0.604
Mof_Br	Br	0.13003	0.3414	0.6966	-0.425
Mof_Br	Br	0.22931	0.2607	0.78906	-0.06
Mof_Zn	Zn	0.87464	0.61103	0.95025	1.189
Mof_Br	Br	0.88822	0.7472	0.9154	-0.227
Mof_Br	Br	0.85804	0.59827	0.0207	-0.472
Mof_Zn	Zn	0.6811	0.8536	0.777	0.613
Mof_Br	Br	0.6397	0.8319	0.7057	-0.033
Mof_Br	Br	0.739	0.7683	0.8027	-0.402
Mof_Zn	Zn	0.58078	0.63589	0.59426	1.192
Mof_Br	Br	0.61503	0.74482	0.56083	-0.473
Mof_Br	Br	0.52886	0.65721	0.63308	-0.449
Mof_N 	N 	0.83129	0.5438	0.90435	-0.264
Mof_C 	C 	0.82794	0.4536	0.90596	0.079
Mof_H 	H 	0.8458	0.4211	0.9288	0.015
Mof_C 	C 	0.79979	0.4054	0.87607	-0.114
Mof_H 	H 	0.7987	0.3409	0.8779	0.094
Mof_C 	C 	0.77315	0.452	0.84337	0.054
Mof_C 	C 	0.77618	0.5463	0.84215	-0.122
Mof_H 	H 	0.7581	0.5806	0.8203	0.101
Mof_C 	C 	0.8055	0.5893	0.87276	0.075
Mof_H 	H 	0.8076	0.6538	0.8715	0.007
Mof_C 	C 	0.74264	0.4041	0.80907	0.091
Mof_N 	N 	0.7375	0.3149	0.81414	-0.139
Mof_C 	C 	0.70921	0.2777	0.78236	0.106
Mof_N 	N 	0.68594	0.3235	0.7486	-0.131
Mof_C 	C 	0.69457	0.4112	0.74632	0.103
Mof_N 	N 	0.72329	0.4554	0.77532	-0.141
Mof_C 	C 	0.70267	0.1776	0.78238	0.065
Mof_C 	C 	0.72504	0.1205	0.81366	-0.123
Mof_H 	H 	0.7451	0.1445	0.8373	0.084
Mof_C 	C 	0.71813	0.028	0.8105	0.076
Mof_H 	H 	0.7336	0.989	0.8324	-0.004
Mof_N 	N 	0.69033	0.9912	0.7775	-0.271
Mof_C 	C 	0.66909	0.0465	0.7477	0.074
Mof_H 	H 	0.6492	0.0209	0.7244	-0.006
Mof_C 	C 	0.67413	0.1388	0.7484	-0.12
Mof_H 	H 	0.6582	0.1759	0.7259	0.088
Mof_C 	C 	0.67113	0.4638	0.70758	0.061
Mof_C 	C 	0.67546	0.5571	0.70376	-0.122
Mof_H 	H 	0.695	0.5893	0.7249	0.08
Mof_C 	C 	0.65087	0.6026	0.66868	0.07
Mof_H 	H 	0.6538	0.6667	0.6663	0.001
Mof_N 	N 	0.62335	0.5603	0.63822	-0.257
Mof_C 	C 	0.62036	0.47	0.64088	0.076
Mof_H 	H 	0.6014	0.4391	0.6185	0.008
Mof_C 	C 	0.64385	0.4199	0.67508	-0.115
Mof_H 	H 	0.6411	0.3555	0.676	0.097
Mof_N 	N 	0.56164	0.5365	0.54546	-0.257
Mof_C 	C 	0.53554	0.472	0.55211	0.066
Mof_H 	H 	0.5211	0.4804	0.5756	0.005
Mof_C 	C 	0.52898	0.3943	0.52611	-0.105
Mof_H 	H 	0.5105	0.3496	0.5318	0.077
Mof_C 	C 	0.54975	0.3821	0.49131	0.049
Mof_C 	C 	0.57509	0.4514	0.48306	-0.107
Mof_H 	H 	0.5886	0.4472	0.4585	0.084
Mof_C 	C 	0.58027	0.5264	0.51131	0.066
Mof_H 	H 	0.598	0.573	0.506	0.003
Mof_C 	C 	0.54571	0.2979	0.46406	0.103
Mof_N 	N 	0.51838	0.2372	0.47071	-0.147
Mof_C 	C 	0.51457	0.1654	0.44311	0.098
Mof_N 	N 	0.53636	0.1493	0.41207	-0.131
Mof_C 	C 	0.56448	0.2114	0.41021	0.113
Mof_N 	N 	0.56982	0.2885	0.43498	-0.132
Mof_C 	C 	0.48262	0.0985	0.44629	0.059
Mof_C 	C 	0.46576	0.0941	0.48348	-0.12
Mof_H 	H 	0.4743	0.1342	0.5083	0.084
Mof_C 	C 	0.43622	0.0313	0.4847	0.084
Mof_H 	H 	0.4251	0.028	0.5111	0.005
Mof_N 	N 	0.42252	0.9748	0.45072	-0.266
Mof_C 	C 	0.43913	0.9796	0.4143	0.081
Mof_H 	H 	0.4298	0.9394	0.3898	-0.01
Mof_C 	C 	0.46885	0.0395	0.4107	-0.12
Mof_H 	H 	0.4799	0.0407	0.3843	0.09
Mof_C 	C 	0.59166	0.1953	0.37871	0.079
Mof_C 	C 	0.62721	0.241	0.3832	-0.114
Mof_H 	H 	0.6347	0.2847	0.4067	0.091
Mof_C 	C 	0.65208	0.2233	0.3535	0.078
Mof_H 	H 	0.6768	0.2548	0.3573	-0.002
Mof_N 	N 	0.64266	0.1636	0.31971	-0.277
Mof_C 	C 	0.6086	0.1192	0.3159	0.09
Mof_H 	H 	0.6017	0.0761	0.2921	-0.016
Mof_C 	C 	0.58249	0.1322	0.3446	-0.123
Mof_H 	H 	0.5585	0.0979	0.3408	0.091
Mof_Br	Br	0.8856	0.7523	0.921	-0.202
Mof_Zn	Zn	0.6733	0.8533	0.7676	0.604
Mof_Br	Br	0.63003	0.8414	0.6966	-0.424
Mof_Br	Br	0.72931	0.7607	0.78906	-0.06
Mof_Zn	Zn	0.62536	0.88897	0.04975	1.189
Mof_Br	Br	0.61178	0.7528	0.0846	-0.227
Mof_Br	Br	0.64196	0.90173	0.9793	-0.472
Mof_Zn	Zn	0.8189	0.6464	0.223	0.613
Mof_Br	Br	0.8603	0.6681	0.2943	-0.033
Mof_Br	Br	0.761	0.7317	0.1973	-0.402
Mof_Zn	Zn	0.91922	0.86411	0.40574	1.192
Mof_Br	Br	0.88497	0.75518	0.43917	-0.473
Mof_Br	Br	0.97114	0.84279	0.36692	-0.449
Mof_N 	N 	0.66871	0.9562	0.09565	-0.264
Mof_C 	C 	0.67206	0.0464	0.09404	0.08
Mof_H 	H 	0.6542	0.0789	0.0712	0.015
Mof_C 	C 	0.70021	0.0946	0.12393	-0.115
Mof_H 	H 	0.7013	0.1591	0.1221	0.094
Mof_C 	C 	0.72685	0.048	0.15663	0.055
Mof_C 	C 	0.72382	0.9537	0.15785	-0.122
Mof_H 	H 	0.7419	0.9194	0.1797	0.101
Mof_C 	C 	0.6945	0.9107	0.12724	0.075
Mof_H 	H 	0.6924	0.8462	0.1285	0.007
Mof_C 	C 	0.75736	0.0959	0.19093	0.09
Mof_N 	N 	0.7625	0.1851	0.18586	-0.139
Mof_C 	C 	0.79079	0.2223	0.21764	0.106
Mof_N 	N 	0.81406	0.1765	0.2514	-0.131
Mof_C 	C 	0.80543	0.0888	0.25368	0.103
Mof_N 	N 	0.77671	0.0446	0.22468	-0.141
Mof_C 	C 	0.79733	0.3224	0.21762	0.065
Mof_C 	C 	0.77496	0.3795	0.18634	-0.123
Mof_H 	H 	0.7549	0.3555	0.1627	0.085
Mof_C 	C 	0.78187	0.472	0.1895	0.077
Mof_H 	H 	0.7664	0.511	0.1676	-0.005
Mof_N 	N 	0.80967	0.5088	0.2225	-0.272
Mof_C 	C 	0.83091	0.4535	0.2523	0.075
Mof_H 	H 	0.8508	0.4791	0.2756	-0.006
Mof_C 	C 	0.82587	0.3612	0.2516	-0.12
Mof_H 	H 	0.8418	0.3241	0.2741	0.088
Mof_C 	C 	0.82887	0.0362	0.29242	0.061
Mof_C 	C 	0.82454	0.9429	0.29624	-0.122
Mof_H 	H 	0.805	0.9107	0.2751	0.08
Mof_C 	C 	0.84913	0.8974	0.33132	0.071
Mof_H 	H 	0.8462	0.8333	0.3337	0.001
Mof_N 	N 	0.87665	0.9397	0.36178	-0.257
Mof_C 	C 	0.87964	0.03	0.35912	0.076
Mof_H 	H 	0.8986	0.0609	0.3815	0.008
Mof_C 	C 	0.85615	0.0801	0.32492	-0.115
Mof_H 	H 	0.8589	0.1445	0.324	0.097
Mof_N 	N 	0.93836	0.9635	0.45454	-0.257
Mof_C 	C 	0.96446	0.028	0.44789	0.066
Mof_H 	H 	0.9789	0.0196	0.4244	0.005
Mof_C 	C 	0.97102	0.1057	0.47389	-0.105
Mof_H 	H 	0.9895	0.1504	0.4682	0.077
Mof_C 	C 	0.95025	0.1179	0.50869	0.049
Mof_C 	C 	0.92491	0.0486	0.51694	-0.107
Mof_H 	H 	0.9114	0.0528	0.5415	0.084
Mof_C 	C 	0.91973	0.9736	0.48869	0.066
Mof_H 	H 	0.902	0.927	0.494	0.003
Mof_C 	C 	0.95429	0.2021	0.53594	0.103
Mof_N 	N 	0.98162	0.2628	0.52929	-0.147
Mof_C 	C 	0.98543	0.3346	0.55689	0.098
Mof_N 	N 	0.96364	0.3507	0.58793	-0.131
Mof_C 	C 	0.93552	0.2886	0.58979	0.113
Mof_N 	N 	0.93018	0.2115	0.56502	-0.132
Mof_C 	C 	0.01738	0.4015	0.55371	0.059
Mof_C 	C 	0.03424	0.4059	0.51652	-0.12
Mof_H 	H 	0.0257	0.3658	0.4917	0.084
Mof_C 	C 	0.06378	0.4687	0.5153	0.084
Mof_H 	H 	0.0749	0.472	0.4889	0.005
Mof_N 	N 	0.07748	0.5252	0.54928	-0.266
Mof_C 	C 	0.06087	0.5204	0.5857	0.081
Mof_H 	H 	0.0702	0.5606	0.6102	-0.01
Mof_C 	C 	0.03115	0.4605	0.5893	-0.12
Mof_H 	H 	0.0201	0.4593	0.6157	0.09
Mof_C 	C 	0.90834	0.3047	0.62129	0.079
Mof_C 	C 	0.87279	0.259	0.6168	-0.114
Mof_H 	H 	0.8653	0.2153	0.5933	0.091
Mof_C 	C 	0.84792	0.2767	0.6465	0.078
Mof_H 	H 	0.8232	0.2452	0.6427	-0.002
Mof_N 	N 	0.85734	0.3364	0.68029	-0.277
Mof_C 	C 	0.8914	0.3808	0.6841	0.09
Mof_H 	H 	0.8983	0.4239	0.7079	-0.016
Mof_C 	C 	0.91751	0.3678	0.6554	-0.123
Mof_H 	H 	0.9415	0.4021	0.6592	0.091
Mof_Br	Br	0.6144	0.7477	0.079	-0.202
Mof_Zn	Zn	0.8267	0.6467	0.2324	0.604
Mof_Br	Br	0.86997	0.6586	0.3034	-0.425
Mof_Br	Br	0.77069	0.7393	0.21094	-0.06
Mof_Zn	Zn	0.12536	0.38897	0.04975	1.189
Mof_Br	Br	0.11178	0.2528	0.0846	-0.227
Mof_Br	Br	0.14196	0.40173	0.9793	-0.472
Mof_Zn	Zn	0.3189	0.1464	0.223	0.613
Mof_Br	Br	0.3603	0.1681	0.2943	-0.033
Mof_Br	Br	0.261	0.2317	0.1973	-0.402
Mof_Zn	Zn	0.41922	0.36411	0.40574	1.192
Mof_Br	Br	0.38497	0.25518	0.43917	-0.473
Mof_Br	Br	0.47114	0.34279	0.36692	-0.449
Mof_N 	N 	0.16871	0.4562	0.09565	-0.264
Mof_C 	C 	0.17206	0.5464	0.09404	0.079
Mof_H 	H 	0.1542	0.5789	0.0712	0.015
Mof_C 	C 	0.20021	0.5946	0.12393	-0.114
Mof_H 	H 	0.2013	0.6591	0.1221	0.094
Mof_C 	C 	0.22685	0.548	0.15663	0.054
Mof_C 	C 	0.22382	0.4537	0.15785	-0.122
Mof_H 	H 	0.2419	0.4194	0.1797	0.101
Mof_C 	C 	0.1945	0.4107	0.12724	0.075
Mof_H 	H 	0.1924	0.3462	0.1285	0.007
Mof_C 	C 	0.25736	0.5959	0.19093	0.091
Mof_N 	N 	0.2625	0.6851	0.18586	-0.139
Mof_C 	C 	0.29079	0.7223	0.21764	0.106
Mof_N 	N 	0.31406	0.6765	0.2514	-0.131
Mof_C 	C 	0.30543	0.5888	0.25368	0.103
Mof_N 	N 	0.27671	0.5446	0.22468	-0.141
Mof_C 	C 	0.29733	0.8224	0.21762	0.065
Mof_C 	C 	0.27496	0.8795	0.18634	-0.123
Mof_H 	H 	0.2549	0.8555	0.1627	0.084
Mof_C 	C 	0.28187	0.972	0.1895	0.076
Mof_H 	H 	0.2664	0.011	0.1676	-0.004
Mof_N 	N 	0.30967	0.0088	0.2225	-0.271
Mof_C 	C 	0.33091	0.9535	0.2523	0.074
Mof_H 	H 	0.3508	0.9791	0.2756	-0.006
Mof_C 	C 	0.32587	0.8612	0.2516	-0.12
Mof_H 	H 	0.3418	0.8241	0.2741	0.088
Mof_C 	C 	0.32887	0.5362	0.29242	0.061
Mof_C 	C 	0.32454	0.4429	0.29624	-0.122
Mof_H 	H 	0.305	0.4107	0.2751	0.08
Mof_C 	C 	0.34913	0.3974	0.33132	0.07
Mof_H 	H 	0.3462	0.3333	0.3337	0.001
Mof_N 	N 	0.37665	0.4397	0.36178	-0.257
Mof_C 	C 	0.37964	0.53	0.35912	0.076
Mof_H 	H 	0.3986	0.5609	0.3815	0.008
Mof_C 	C 	0.35615	0.5801	0.32492	-0.115
Mof_H 	H 	0.3589	0.6445	0.324	0.097
Mof_N 	N 	0.43836	0.4635	0.45454	-0.257
Mof_C 	C 	0.46446	0.528	0.44789	0.066
Mof_H 	H 	0.4789	0.5196	0.4244	0.005
Mof_C 	C 	0.47102	0.6057	0.47389	-0.105
Mof_H 	H 	0.4895	0.6504	0.4682	0.077
Mof_C 	C 	0.45025	0.6179	0.50869	0.049
Mof_C 	C 	0.42491	0.5486	0.51694	-0.107
Mof_H 	H 	0.4114	0.5528	0.5415	0.084
Mof_C 	C 	0.41973	0.4736	0.48869	0.066
Mof_H 	H 	0.402	0.427	0.494	0.003
Mof_C 	C 	0.45429	0.7021	0.53594	0.103
Mof_N 	N 	0.48162	0.7628	0.52929	-0.147
Mof_C 	C 	0.48543	0.8346	0.55689	0.098
Mof_N 	N 	0.46364	0.8507	0.58793	-0.131
Mof_C 	C 	0.43552	0.7886	0.58979	0.113
Mof_N 	N 	0.43018	0.7115	0.56502	-0.132
Mof_C 	C 	0.51738	0.9015	0.55371	0.059
Mof_C 	C 	0.53424	0.9059	0.51652	-0.12
Mof_H 	H 	0.5257	0.8658	0.4917	0.084
Mof_C 	C 	0.56378	0.9687	0.5153	0.084
Mof_H 	H 	0.5749	0.972	0.4889	0.005
Mof_N 	N 	0.57748	0.0252	0.54928	-0.266
Mof_C 	C 	0.56087	0.0204	0.5857	0.081
Mof_H 	H 	0.5702	0.0606	0.6102	-0.01
Mof_C 	C 	0.53115	0.9605	0.5893	-0.12
Mof_H 	H 	0.5201	0.9593	0.6157	0.09
Mof_C 	C 	0.40834	0.8047	0.62129	0.079
Mof_C 	C 	0.37279	0.759	0.6168	-0.114
Mof_H 	H 	0.3653	0.7153	0.5933	0.091
Mof_C 	C 	0.34792	0.7767	0.6465	0.078
Mof_H 	H 	0.3232	0.7452	0.6427	-0.002
Mof_N 	N 	0.35734	0.8364	0.68029	-0.277
Mof_C 	C 	0.3914	0.8808	0.6841	0.09
Mof_H 	H 	0.3983	0.9239	0.7079	-0.016
Mof_C 	C 	0.41751	0.8678	0.6554	-0.123
Mof_H 	H 	0.4415	0.9021	0.6592	0.091
Mof_Br	Br	0.1144	0.2477	0.079	-0.202
Mof_Zn	Zn	0.3267	0.1467	0.2324	0.604
Mof_Br	Br	0.36997	0.1586	0.3034	-0.424
Mof_Br	Br	0.27069	0.2393	0.21094	-0.06
Mof_Zn	Zn	0.62536	0.11103	0.54975	1.189
Mof_Br	Br	0.61178	0.2472	0.5846	-0.227
Mof_Br	Br	0.64196	0.09827	0.4793	-0.472
Mof_Zn	Zn	0.8189	0.3536	0.723	0.613
Mof_Br	Br	0.8603	0.3319	0.7943	-0.033
Mof_Br	Br	0.761	0.2683	0.6973	-0.402
Mof_Zn	Zn	0.91922	0.13589	0.90574	1.192
Mof_Br	Br	0.88497	0.24482	0.93917	-0.473
Mof_Br	Br	0.97114	0.15721	0.86692	-0.449
Mof_N 	N 	0.66871	0.0438	0.59565	-0.264
Mof_C 	C 	0.67206	0.9536	0.59404	0.08
Mof_H 	H 	0.6542	0.9211	0.5712	0.015
Mof_C 	C 	0.70021	0.9054	0.62393	-0.114
Mof_H 	H 	0.7013	0.8409	0.6221	0.094
Mof_C 	C 	0.72685	0.952	0.65663	0.054
Mof_C 	C 	0.72382	0.0463	0.65785	-0.122
Mof_H 	H 	0.7419	0.0806	0.6797	0.101
Mof_C 	C 	0.6945	0.0893	0.62724	0.075
Mof_H 	H 	0.6924	0.1538	0.6285	0.007
Mof_C 	C 	0.75736	0.9041	0.69093	0.091
Mof_N 	N 	0.7625	0.8149	0.68586	-0.139
Mof_C 	C 	0.79079	0.7777	0.71764	0.106
Mof_N 	N 	0.81406	0.8235	0.7514	-0.131
Mof_C 	C 	0.80543	0.9112	0.75368	0.103
Mof_N 	N 	0.77671	0.9554	0.72468	-0.141
Mof_C 	C 	0.79733	0.6776	0.71762	0.065
Mof_C 	C 	0.77496	0.6205	0.68634	-0.123
Mof_H 	H 	0.7549	0.6445	0.6627	0.085
Mof_C 	C 	0.78187	0.528	0.6895	0.077
Mof_H 	H 	0.7664	0.489	0.6676	-0.005
Mof_N 	N 	0.80967	0.4912	0.7225	-0.272
Mof_C 	C 	0.83091	0.5465	0.7523	0.075
Mof_H 	H 	0.8508	0.5209	0.7756	-0.006
Mof_C 	C 	0.82587	0.6388	0.7516	-0.12
Mof_H 	H 	0.8418	0.6759	0.7741	0.088
Mof_C 	C 	0.82887	0.9638	0.79242	0.062
Mof_C 	C 	0.82454	0.0571	0.79624	-0.122
Mof_H 	H 	0.805	0.0893	0.7751	0.08
Mof_C 	C 	0.84913	0.1026	0.83132	0.071
Mof_H 	H 	0.8462	0.1667	0.8337	0.001
Mof_N 	N 	0.87665	0.0603	0.86178	-0.257
Mof_C 	C 	0.87964	0.97	0.85912	0.076
Mof_H 	H 	0.8986	0.9391	0.8815	0.008
Mof_C 	C 	0.85615	0.9199	0.82492	-0.116
Mof_H 	H 	0.8589	0.8555	0.824	0.097
Mof_N 	N 	0.93836	0.0365	0.95454	-0.258
Mof_C 	C 	0.96446	0.972	0.94789	0.066
Mof_H 	H 	0.9789	0.9804	0.9244	0.005
Mof_C 	C 	0.97102	0.8943	0.97389	-0.105
Mof_H 	H 	0.9895	0.8496	0.9682	0.077
Mof_C 	C 	0.95025	0.8821	0.00869	0.049
Mof_C 	C 	0.92491	0.9514	0.01694	-0.107
Mof_H 	H 	0.9114	0.9472	0.0415	0.083
Mof_C 	C 	0.91973	0.0264	0.98869	0.066
Mof_H 	H 	0.902	0.073	0.994	0.003
Mof_C 	C 	0.95429	0.7979	0.03594	0.103
Mof_N 	N 	0.98162	0.7372	0.02929	-0.147
Mof_C 	C 	0.98543	0.6654	0.05689	0.098
Mof_N 	N 	0.96364	0.6493	0.08793	-0.131
Mof_C 	C 	0.93552	0.7114	0.08979	0.113
Mof_N 	N 	0.93018	0.7885	0.06502	-0.132
Mof_C 	C 	0.01738	0.5985	0.05371	0.059
Mof_C 	C 	0.03424	0.5941	0.01652	-0.121
Mof_H 	H 	0.0257	0.6342	0.9917	0.084
Mof_C 	C 	0.06378	0.5313	0.0153	0.084
Mof_H 	H 	0.0749	0.528	0.9889	0.005
Mof_N 	N 	0.07748	0.4748	0.04928	-0.266
Mof_C 	C 	0.06087	0.4796	0.0857	0.081
Mof_H 	H 	0.0702	0.4394	0.1102	-0.01
Mof_C 	C 	0.03115	0.5395	0.0893	-0.12
Mof_H 	H 	0.0201	0.5407	0.1157	0.09
Mof_C 	C 	0.90834	0.6953	0.12129	0.079
Mof_C 	C 	0.87279	0.741	0.1168	-0.114
Mof_H 	H 	0.8653	0.7847	0.0933	0.091
Mof_C 	C 	0.84792	0.7233	0.1465	0.078
Mof_H 	H 	0.8232	0.7548	0.1427	-0.002
Mof_N 	N 	0.85734	0.6636	0.18029	-0.277
Mof_C 	C 	0.8914	0.6192	0.1841	0.09
Mof_H 	H 	0.8983	0.5761	0.2079	-0.016
Mof_C 	C 	0.91751	0.6322	0.1554	-0.123
Mof_H 	H 	0.9415	0.5979	0.1592	0.091
Mof_Br	Br	0.6144	0.2523	0.579	-0.202
Mof_Zn	Zn	0.8267	0.3533	0.7324	0.604
Mof_Br	Br	0.86997	0.3414	0.8034	-0.425
Mof_Br	Br	0.77069	0.2607	0.71094	-0.06
Mof_Zn	Zn	0.12536	0.61103	0.54975	1.189
Mof_Br	Br	0.11178	0.7472	0.5846	-0.227
Mof_Br	Br	0.14196	0.59827	0.4793	-0.472
Mof_Zn	Zn	0.3189	0.8536	0.723	0.613
Mof_Br	Br	0.3603	0.8319	0.7943	-0.033
Mof_Br	Br	0.261	0.7683	0.6973	-0.402
Mof_Zn	Zn	0.41922	0.63589	0.90574	1.192
Mof_Br	Br	0.38497	0.74482	0.93917	-0.472
Mof_Br	Br	0.47114	0.65721	0.86692	-0.449
Mof_N 	N 	0.16871	0.5438	0.59565	-0.264
Mof_C 	C 	0.17206	0.4536	0.59404	0.079
Mof_H 	H 	0.1542	0.4211	0.5712	0.015
Mof_C 	C 	0.20021	0.4054	0.62393	-0.114
Mof_H 	H 	0.2013	0.3409	0.6221	0.094
Mof_C 	C 	0.22685	0.452	0.65663	0.054
Mof_C 	C 	0.22382	0.5463	0.65785	-0.122
Mof_H 	H 	0.2419	0.5806	0.6797	0.101
Mof_C 	C 	0.1945	0.5893	0.62724	0.075
Mof_H 	H 	0.1924	0.6538	0.6285	0.007
Mof_C 	C 	0.25736	0.4041	0.69093	0.091
Mof_N 	N 	0.2625	0.3149	0.68586	-0.139
Mof_C 	C 	0.29079	0.2777	0.71764	0.106
Mof_N 	N 	0.31406	0.3235	0.7514	-0.131
Mof_C 	C 	0.30543	0.4112	0.75368	0.103
Mof_N 	N 	0.27671	0.4554	0.72468	-0.141
Mof_C 	C 	0.29733	0.1776	0.71762	0.065
Mof_C 	C 	0.27496	0.1205	0.68634	-0.123
Mof_H 	H 	0.2549	0.1445	0.6627	0.084
Mof_C 	C 	0.28187	0.028	0.6895	0.076
Mof_H 	H 	0.2664	0.989	0.6676	-0.005
Mof_N 	N 	0.30967	0.9912	0.7225	-0.271
Mof_C 	C 	0.33091	0.0465	0.7523	0.074
Mof_H 	H 	0.3508	0.0209	0.7756	-0.006
Mof_C 	C 	0.32587	0.1388	0.7516	-0.12
Mof_H 	H 	0.3418	0.1759	0.7741	0.088
Mof_C 	C 	0.32887	0.4638	0.79242	0.061
Mof_C 	C 	0.32454	0.5571	0.79624	-0.122
Mof_H 	H 	0.305	0.5893	0.7751	0.08
Mof_C 	C 	0.34913	0.6026	0.83132	0.07
Mof_H 	H 	0.3462	0.6667	0.8337	0.001
Mof_N 	N 	0.37665	0.5603	0.86178	-0.257
Mof_C 	C 	0.37964	0.47	0.85912	0.076
Mof_H 	H 	0.3986	0.4391	0.8815	0.008
Mof_C 	C 	0.35615	0.4199	0.82492	-0.115
Mof_H 	H 	0.3589	0.3555	0.824	0.097
Mof_N 	N 	0.43836	0.5365	0.95454	-0.257
Mof_C 	C 	0.46446	0.472	0.94789	0.066
Mof_H 	H 	0.4789	0.4804	0.9244	0.005
Mof_C 	C 	0.47102	0.3943	0.97389	-0.105
Mof_H 	H 	0.4895	0.3496	0.9682	0.077
Mof_C 	C 	0.45025	0.3821	0.00869	0.049
Mof_C 	C 	0.42491	0.4514	0.01694	-0.107
Mof_H 	H 	0.4114	0.4472	0.0415	0.084
Mof_C 	C 	0.41973	0.5264	0.98869	0.066
Mof_H 	H 	0.402	0.573	0.994	0.003
Mof_C 	C 	0.45429	0.2979	0.03594	0.103
Mof_N 	N 	0.48162	0.2372	0.02929	-0.147
Mof_C 	C 	0.48543	0.1654	0.05689	0.098
Mof_N 	N 	0.46364	0.1493	0.08793	-0.131
Mof_C 	C 	0.43552	0.2114	0.08979	0.113
Mof_N 	N 	0.43018	0.2885	0.06502	-0.132
Mof_C 	C 	0.51738	0.0985	0.05371	0.059
Mof_C 	C 	0.53424	0.0941	0.01652	-0.12
Mof_H 	H 	0.5257	0.1342	0.9917	0.083
Mof_C 	C 	0.56378	0.0313	0.0153	0.085
Mof_H 	H 	0.5749	0.028	0.9889	0.004
Mof_N 	N 	0.57748	0.9748	0.04928	-0.266
Mof_C 	C 	0.56087	0.9796	0.0857	0.081
Mof_H 	H 	0.5702	0.9394	0.1102	-0.01
Mof_C 	C 	0.53115	0.0395	0.0893	-0.119
Mof_H 	H 	0.5201	0.0407	0.1157	0.09
Mof_C 	C 	0.40834	0.1953	0.12129	0.079
Mof_C 	C 	0.37279	0.241	0.1168	-0.114
Mof_H 	H 	0.3653	0.2847	0.0933	0.091
Mof_C 	C 	0.34792	0.2233	0.1465	0.078
Mof_H 	H 	0.3232	0.2548	0.1427	-0.002
Mof_N 	N 	0.35734	0.1636	0.18029	-0.277
Mof_C 	C 	0.3914	0.1192	0.1841	0.09
Mof_H 	H 	0.3983	0.0761	0.2079	-0.016
Mof_C 	C 	0.41751	0.1322	0.1554	-0.123
Mof_H 	H 	0.4415	0.0979	0.1592	0.091
Mof_Br	Br	0.1144	0.7523	0.579	-0.202
Mof_Zn	Zn	0.3267	0.8533	0.7324	0.604
Mof_Br	Br	0.36997	0.8414	0.8034	-0.424
Mof_Br	Br	0.27069	0.7607	0.71094	-0.06
_end
