# CIF file generated by openbabel 3.1.0, see https://openbabel.org
data_I
_chemical_name_common 'image0'
_cell_length_a 26.4842
_cell_length_b 5.891
_cell_length_c 21.4712
_cell_angle_alpha 90
_cell_angle_beta 111.538
_cell_angle_gamma 90
_space_group_name_H-M_alt 'P 1'
_space_group_name_Hall 'P 1'
loop_
    _symmetry_equiv_pos_as_xyz
    x,y,z
loop_
    _atom_site_label
    _atom_site_type_symbol
    _atom_site_fract_x
    _atom_site_fract_y
    _atom_site_fract_z
    _atom_site_occupancy
    O1       O        0.05920    0.87730    0.30285    1.000
    O2       O        0.11910    0.66120    0.28800    1.000
    N1       N        0.99425    0.47210    0.32211    1.000
    C1       C        0.10690    0.81740    0.31520    1.000
    C2       C        0.14950    0.94500    0.37000    1.000
    C3       C        0.13650    0.11430    0.40320    1.000
    H1       H        0.10030    0.15580    0.39150    1.000
    C4       C        0.17610    0.22830    0.45460    1.000
    H2       H        0.16520    0.33940    0.47780    1.000
    C5       C        0.22890    0.18700    0.47250    1.000
    C6       C        0.24320    0.07700    0.42510    1.000
    C7       C        0.20440    0.95400    0.37370    1.000
    C8       C        0.96380    0.28320    0.30580    1.000
    H3       H        0.94350    0.25640    0.26080    1.000
    C9       C        0.96110    0.12910    0.35180    1.000
    H4       H        0.93980    0.99990    0.33790    1.000
    C10      C        0.99040    0.16520    0.41930    1.000
    C11      C        0.02120    0.36110    0.43660    1.000
    H5       H        0.04090    0.39290    0.48140    1.000
    C12      C        0.02290    0.51060    0.38750    1.000
    H6       H        0.04430    0.64020    0.39990    1.000
    C13      C        0.98640    0.99620    0.46820    1.000
    H7       H        0.96250    0.87560    0.45190    1.000
    C14      C        0.23850    0.94800    0.45830    1.000
    C15      C        0.19940    0.83400    0.40760    1.000
    O3       O        0.55920    0.37730    0.30285    1.000
    O4       O        0.61910    0.16120    0.28800    1.000
    N2       N        0.49425    0.97210    0.32211    1.000
    C16      C        0.60690    0.31740    0.31520    1.000
    C17      C        0.64950    0.44500    0.37000    1.000
    C18      C        0.63650    0.61430    0.40320    1.000
    H8       H        0.60030    0.65580    0.39150    1.000
    C19      C        0.67610    0.72830    0.45460    1.000
    H9       H        0.66520    0.83940    0.47780    1.000
    C20      C        0.72890    0.68700    0.47250    1.000
    C21      C        0.74320    0.57700    0.42510    1.000
    C22      C        0.70440    0.45400    0.37370    1.000
    C23      C        0.46380    0.78320    0.30580    1.000
    H10      H        0.44350    0.75640    0.26080    1.000
    C24      C        0.46110    0.62910    0.35180    1.000
    H11      H        0.43980    0.49990    0.33790    1.000
    C25      C        0.49040    0.66520    0.41930    1.000
    C26      C        0.52120    0.86110    0.43660    1.000
    H12      H        0.54090    0.89290    0.48140    1.000
    C27      C        0.52290    0.01060    0.38750    1.000
    H13      H        0.54430    0.14020    0.39990    1.000
    C28      C        0.48640    0.49620    0.46820    1.000
    H14      H        0.46250    0.37560    0.45190    1.000
    C29      C        0.73850    0.44800    0.45830    1.000
    C30      C        0.69940    0.33400    0.40760    1.000
    O5       O        0.94080    0.87730    0.19715    1.000
    O6       O        0.88090    0.66120    0.21200    1.000
    N3       N        0.00575    0.47210    0.17789    1.000
    C31      C        0.89310    0.81740    0.18480    1.000
    C32      C        0.85050    0.94500    0.13000    1.000
    C33      C        0.86350    0.11430    0.09680    1.000
    H15      H        0.89970    0.15580    0.10850    1.000
    C34      C        0.82390    0.22830    0.04540    1.000
    H16      H        0.83480    0.33940    0.02220    1.000
    C35      C        0.77110    0.18700    0.02750    1.000
    C36      C        0.75680    0.07700    0.07490    1.000
    C37      C        0.79560    0.95400    0.12630    1.000
    C38      C        0.03620    0.28320    0.19420    1.000
    H17      H        0.05650    0.25640    0.23920    1.000
    C39      C        0.03890    0.12910    0.14820    1.000
    H18      H        0.06020    0.99990    0.16210    1.000
    C40      C        0.00960    0.16520    0.08070    1.000
    C41      C        0.97880    0.36110    0.06340    1.000
    H19      H        0.95910    0.39290    0.01860    1.000
    C42      C        0.97710    0.51060    0.11250    1.000
    H20      H        0.95570    0.64020    0.10010    1.000
    C43      C        0.01360    0.99620    0.03180    1.000
    H21      H        0.03750    0.87560    0.04810    1.000
    C44      C        0.76150    0.94800    0.04170    1.000
    C45      C        0.80060    0.83400    0.09240    1.000
    O7       O        0.44080    0.37730    0.19715    1.000
    O8       O        0.38090    0.16120    0.21200    1.000
    N4       N        0.50575    0.97210    0.17789    1.000
    C46      C        0.39310    0.31740    0.18480    1.000
    C47      C        0.35050    0.44500    0.13000    1.000
    C48      C        0.36350    0.61430    0.09680    1.000
    H22      H        0.39970    0.65580    0.10850    1.000
    C49      C        0.32390    0.72830    0.04540    1.000
    H23      H        0.33480    0.83940    0.02220    1.000
    C50      C        0.27110    0.68700    0.02750    1.000
    C51      C        0.25680    0.57700    0.07490    1.000
    C52      C        0.29560    0.45400    0.12630    1.000
    C53      C        0.53620    0.78320    0.19420    1.000
    H24      H        0.55650    0.75640    0.23920    1.000
    C54      C        0.53890    0.62910    0.14820    1.000
    H25      H        0.56020    0.49990    0.16210    1.000
    C55      C        0.50960    0.66520    0.08070    1.000
    C56      C        0.47880    0.86110    0.06340    1.000
    H26      H        0.45910    0.89290    0.01860    1.000
    C57      C        0.47710    0.01060    0.11250    1.000
    H27      H        0.45570    0.14020    0.10010    1.000
    C58      C        0.51360    0.49620    0.03180    1.000
    H28      H        0.53750    0.37560    0.04810    1.000
    C59      C        0.26150    0.44800    0.04170    1.000
    C60      C        0.30060    0.33400    0.09240    1.000
    O9       O        0.94080    0.12270    0.69715    1.000
    O10      O        0.88090    0.33880    0.71200    1.000
    N5       N        0.00575    0.52790    0.67789    1.000
    C61      C        0.89310    0.18260    0.68480    1.000
    C62      C        0.85050    0.05500    0.63000    1.000
    C63      C        0.86350    0.88570    0.59680    1.000
    H29      H        0.89970    0.84420    0.60850    1.000
    C64      C        0.82390    0.77170    0.54540    1.000
    H30      H        0.83480    0.66060    0.52220    1.000
    C65      C        0.77110    0.81300    0.52750    1.000
    C66      C        0.75680    0.92300    0.57490    1.000
    C67      C        0.79560    0.04600    0.62630    1.000
    C68      C        0.03620    0.71680    0.69420    1.000
    H31      H        0.05650    0.74360    0.73920    1.000
    C69      C        0.03890    0.87090    0.64820    1.000
    H32      H        0.06020    0.00010    0.66210    1.000
    C70      C        0.00960    0.83480    0.58070    1.000
    C71      C        0.97880    0.63890    0.56340    1.000
    H33      H        0.95910    0.60710    0.51860    1.000
    C72      C        0.97710    0.48940    0.61250    1.000
    H34      H        0.95570    0.35980    0.60010    1.000
    C73      C        0.01360    0.00380    0.53180    1.000
    H35      H        0.03750    0.12440    0.54810    1.000
    C74      C        0.76150    0.05200    0.54170    1.000
    C75      C        0.80060    0.16600    0.59240    1.000
    O11      O        0.44080    0.62270    0.69715    1.000
    O12      O        0.38090    0.83880    0.71200    1.000
    N6       N        0.50575    0.02790    0.67789    1.000
    C76      C        0.39310    0.68260    0.68480    1.000
    C77      C        0.35050    0.55500    0.63000    1.000
    C78      C        0.36350    0.38570    0.59680    1.000
    H36      H        0.39970    0.34420    0.60850    1.000
    C79      C        0.32390    0.27170    0.54540    1.000
    H37      H        0.33480    0.16060    0.52220    1.000
    C80      C        0.27110    0.31300    0.52750    1.000
    C81      C        0.25680    0.42300    0.57490    1.000
    C82      C        0.29560    0.54600    0.62630    1.000
    C83      C        0.53620    0.21680    0.69420    1.000
    H38      H        0.55650    0.24360    0.73920    1.000
    C84      C        0.53890    0.37090    0.64820    1.000
    H39      H        0.56020    0.50010    0.66210    1.000
    C85      C        0.50960    0.33480    0.58070    1.000
    C86      C        0.47880    0.13890    0.56340    1.000
    H40      H        0.45910    0.10710    0.51860    1.000
    C87      C        0.47710    0.98940    0.61250    1.000
    H41      H        0.45570    0.85980    0.60010    1.000
    C88      C        0.51360    0.50380    0.53180    1.000
    H42      H        0.53750    0.62440    0.54810    1.000
    C89      C        0.26150    0.55200    0.54170    1.000
    C90      C        0.30060    0.66600    0.59240    1.000
    O13      O        0.05920    0.12270    0.80285    1.000
    O14      O        0.11910    0.33880    0.78800    1.000
    N7       N        0.99425    0.52790    0.82211    1.000
    C91      C        0.10690    0.18260    0.81520    1.000
    C92      C        0.14950    0.05500    0.87000    1.000
    C93      C        0.13650    0.88570    0.90320    1.000
    H43      H        0.10030    0.84420    0.89150    1.000
    C94      C        0.17610    0.77170    0.95460    1.000
    H44      H        0.16520    0.66060    0.97780    1.000
    C95      C        0.22890    0.81300    0.97250    1.000
    C96      C        0.24320    0.92300    0.92510    1.000
    C97      C        0.20440    0.04600    0.87370    1.000
    C98      C        0.96380    0.71680    0.80580    1.000
    H45      H        0.94350    0.74360    0.76080    1.000
    C99      C        0.96110    0.87090    0.85180    1.000
    H46      H        0.93980    0.00010    0.83790    1.000
    C100     C        0.99040    0.83480    0.91930    1.000
    C101     C        0.02120    0.63890    0.93660    1.000
    H47      H        0.04090    0.60710    0.98140    1.000
    C102     C        0.02290    0.48940    0.88750    1.000
    H48      H        0.04430    0.35980    0.89990    1.000
    C103     C        0.98640    0.00380    0.96820    1.000
    H49      H        0.96250    0.12440    0.95190    1.000
    C104     C        0.23850    0.05200    0.95830    1.000
    C105     C        0.19940    0.16600    0.90760    1.000
    O15      O        0.55920    0.62270    0.80285    1.000
    O16      O        0.61910    0.83880    0.78800    1.000
    N8       N        0.49425    0.02790    0.82211    1.000
    C106     C        0.60690    0.68260    0.81520    1.000
    C107     C        0.64950    0.55500    0.87000    1.000
    C108     C        0.63650    0.38570    0.90320    1.000
    H50      H        0.60030    0.34420    0.89150    1.000
    C109     C        0.67610    0.27170    0.95460    1.000
    H51      H        0.66520    0.16060    0.97780    1.000
    C110     C        0.72890    0.31300    0.97250    1.000
    C111     C        0.74320    0.42300    0.92510    1.000
    C112     C        0.70440    0.54600    0.87370    1.000
    C113     C        0.46380    0.21680    0.80580    1.000
    H52      H        0.44350    0.24360    0.76080    1.000
    C114     C        0.46110    0.37090    0.85180    1.000
    H53      H        0.43980    0.50010    0.83790    1.000
    C115     C        0.49040    0.33480    0.91930    1.000
    C116     C        0.52120    0.13890    0.93660    1.000
    H54      H        0.54090    0.10710    0.98140    1.000
    C117     C        0.52290    0.98940    0.88750    1.000
    H55      H        0.54430    0.85980    0.89990    1.000
    C118     C        0.48640    0.50380    0.96820    1.000
    H56      H        0.46250    0.62440    0.95190    1.000
    C119     C        0.73850    0.55200    0.95830    1.000
    C120     C        0.69940    0.66600    0.90760    1.000
    Zn1      Zn       0.00000    0.68393    0.25000    1.000
    Zn2      Zn       0.50000    0.18393    0.25000    1.000
    Zn3      Zn       0.00000    0.31607    0.75000    1.000
    Zn4      Zn       0.50000    0.81607    0.75000    1.000
