data_functionalizedCrystal
_audit_creation_method	'EQeq! by Chris Wilmer'
_symmetry_space_group_name_H-M	'P1'
_symmetry_Int_Tables_number	1
_symmetry_cell_setting	triclinic
loop_
_symmetry_equiv_pos_as_xyz
  x,y,z
_cell_length_a	11.84
_cell_length_b	12.3247
_cell_length_c	13.7362
_cell_angle_alpha	92.615
_cell_angle_beta	112.675
_cell_angle_gamma	109.04
loop_
_atom_site_label
_atom_site_type_symbol
_atom_site_fract_x
_atom_site_fract_y
_atom_site_fract_z
_atom_site_charge
Mof_Cd	Cd	0.11509	0.23332	0.46084	0.319
Mof_Cd	Cd	0.88491	0.76668	0.53916	0.341
Mof_Cd	Cd	-5.3884e-17	0.5	0.5	0.39
Mof_H 	H 	0.4553	0.331	0.8847	0.054
Mof_H 	H 	0.3993	0.6312	0.934	0.056
Mof_H 	H 	0.8922	0.5489	0.0956	0.045
Mof_H 	H 	0.1378	0.3966	0.0699	0.039
Mof_H 	H 	0.3405	0.075	0.4936	0.041
Mof_H 	H 	0.4691	0.8073	0.5189	0.055
Mof_H 	H 	0.5447	0.669	0.1153	0.057
Mof_H 	H 	0.6007	0.3688	0.066	0.061
Mof_H 	H 	0.1078	0.4511	0.9044	0.075
Mof_H 	H 	0.8622	0.6034	0.9301	0.072
Mof_H 	H 	0.6595	0.925	0.5064	0.047
Mof_H 	H 	0.5309	0.1927	0.4811	0.06
Mof_C 	C 	0.3223	0.4556	0.77697	0.115
Mof_C 	C 	0.4133	0.4784	0.89155	-0.007
Mof_C 	C 	0.4733	0.3998	0.9313	-0.036
Mof_C 	C 	0.4403	0.5775	0.9606	-0.037
Mof_C 	C 	0.0407	0.4413	0.2066	0.128
Mof_C 	C 	0.0197	0.4695	0.0998	-0.054
Mof_C 	C 	0.9365	0.5295	0.0568	0.02
Mof_C 	C 	0.0823	0.439	0.0418	0.003
Mof_C 	C 	0.2661	0.8528	0.5155	0.117
Mof_C 	C 	0.3861	0.9294	0.5081	-0.012
Mof_C 	C 	0.4053	0.0442	0.4963	-0.028
Mof_C 	C 	0.4816	0.8861	0.5113	-0.036
Mof_C 	C 	0.6777	0.5444	0.22303	0.115
Mof_C 	C 	0.5867	0.5216	0.10845	0.001
Mof_C 	C 	0.5267	0.6002	0.0687	-0.046
Mof_C 	C 	0.5597	0.4225	0.0394	-0.047
Mof_C 	C 	0.9593	0.5587	0.7934	0.106
Mof_C 	C 	0.9803	0.5305	0.9002	0.051
Mof_C 	C 	0.0635	0.4705	0.9432	-0.101
Mof_C 	C 	0.9177	0.561	0.9582	-0.081
Mof_C 	C 	0.7339	0.1472	0.4845	0.116
Mof_C 	C 	0.6139	0.0706	0.4919	0.004
Mof_C 	C 	0.5947	0.9558	0.5037	-0.045
Mof_C 	C 	0.5184	0.1139	0.4887	-0.049
Mof_N 	N 	0.2541	0.52277	0.73326	-0.088
Mof_N 	N 	0.1839	0.46988	0.63012	-0.065
Mof_N 	N 	0.20958	0.37639	0.61302	-0.075
Mof_N 	N 	0.2971	0.36488	0.70498	-0.098
Mof_N 	N 	0.0669	0.34794	0.23966	-0.098
Mof_N 	N 	0.0729	0.35663	0.33897	-0.075
Mof_N 	N 	0.0521	0.4507	0.36279	-0.069
Mof_N 	N 	0.0313	0.50614	0.28098	-0.093
Mof_N 	N 	0.2337	0.73726	0.50938	-0.088
Mof_N 	N 	0.11887	0.70063	0.51675	-0.067
Mof_N 	N 	0.08357	0.79039	0.52711	-0.078
Mof_N 	N 	0.1751	0.88791	0.52608	-0.101
Mof_N 	N 	0.7459	0.47723	0.26674	-0.083
Mof_N 	N 	0.8161	0.53012	0.36988	-0.058
Mof_N 	N 	0.79042	0.62361	0.38698	-0.072
Mof_N 	N 	0.7029	0.63512	0.29502	-0.096
Mof_N 	N 	0.9331	0.65206	0.76034	-0.089
Mof_N 	N 	0.9271	0.64337	0.66103	-0.071
Mof_N 	N 	0.9479	0.5493	0.63721	-0.062
Mof_N 	N 	0.9687	0.49386	0.71902	-0.079
Mof_N 	N 	0.7663	0.26274	0.49062	-0.086
Mof_N 	N 	0.88113	0.29937	0.48325	-0.059
Mof_N 	N 	0.91643	0.20961	0.47289	-0.064
Mof_N 	N 	0.8249	0.11209	0.47392	-0.095
_end
