data_functionalizedCrystal
_audit_creation_method	'EQeq! by Chris Wilmer'
_symmetry_space_group_name_H-M	'P1'
_symmetry_Int_Tables_number	1
_symmetry_cell_setting	triclinic
loop_
_symmetry_equiv_pos_as_xyz
  x,y,z
_cell_length_a	7.465
_cell_length_b	9.622
_cell_length_c	16.049
_cell_angle_alpha	90
_cell_angle_beta	90
_cell_angle_gamma	90
loop_
_atom_site_label
_atom_site_type_symbol
_atom_site_fract_x
_atom_site_fract_y
_atom_site_fract_z
_atom_site_charge
Mof_Cu	Cu	0.7402	0.8417	0.8344	0.92
Mof_Cu	Cu	0.7598	0.3417	0.1656	0.92
Mof_H 	H 	0.7263	0.2262	0.8475	0.061
Mof_H 	H 	0.6157	0.0171	0.9334	0.095
Mof_H 	H 	0.5389	0.0488	0.8401	0.108
Mof_H 	H 	0.9389	0.0678	0.9593	0.127
Mof_H 	H 	0.0017	0.2195	0.9243	0.128
Mof_H 	H 	0.8707	0.5277	0.8702	0.001
Mof_H 	H 	0.9668	0.3645	0.7543	0.125
Mof_H 	H 	0.9564	0.5047	0.6205	0.04
Mof_H 	H 	0.8605	0.7464	0.6534	0.032
Mof_H 	H 	0.7737	0.7262	0.1525	0.06
Mof_H 	H 	0.8843	0.5171	0.0666	0.094
Mof_H 	H 	0.9611	0.5488	0.1599	0.108
Mof_H 	H 	0.5611	0.5678	0.0407	0.127
Mof_H 	H 	0.4983	0.7195	0.0757	0.129
Mof_H 	H 	0.6293	0.0277	0.1298	0
Mof_H 	H 	0.5332	0.8645	0.2457	0.124
Mof_H 	H 	0.5436	0.0047	0.3795	0.041
Mof_H 	H 	0.6395	0.2464	0.3466	0.032
Mof_C 	C 	0.9019	0.0934	0.7874	0.342
Mof_C 	C 	0.7889	0.1375	0.8619	-0.032
Mof_C 	C 	0.8964	0.1606	0.9395	-0.316
Mof_C 	C 	0.8039	0.229	0.01	0.396
Mof_C 	C 	0.8796	0.5526	0.8099	0.11
Mof_C 	C 	0.926	0.5403	0.6773	0.028
Mof_C 	C 	0.8741	0.6688	0.6944	0.003
Mof_C 	C 	0.5981	0.5934	0.2126	0.341
Mof_C 	C 	0.7111	0.6375	0.1381	-0.032
Mof_C 	C 	0.6036	0.6606	0.0605	-0.318
Mof_C 	C 	0.6961	0.729	0.99	0.398
Mof_C 	C 	0.6204	0.0526	0.1901	0.108
Mof_C 	C 	0.574	0.0403	0.3227	0.027
Mof_C 	C 	0.6259	0.1688	0.3056	0.003
Mof_N 	N 	0.6479	0.024	0.8731	-0.274
Mof_N 	N 	0.8424	0.6762	0.7784	-0.208
Mof_N 	N 	0.9317	0.4643	0.7484	-0.172
Mof_N 	N 	0.8521	0.524	0.1269	-0.274
Mof_N 	N 	0.6576	0.1762	0.2216	-0.208
Mof_N 	N 	0.5683	0.9643	0.2516	-0.171
Mof_O 	O 	0.9968	0.1843	0.759	-0.361
Mof_O 	O 	0.9012	0.9677	0.7703	-0.408
Mof_O 	O 	0.8754	0.2281	0.0813	-0.415
Mof_O 	O 	0.6633	0.2935	0.9981	-0.326
Mof_O 	O 	0.5032	0.6843	0.241	-0.361
Mof_O 	O 	0.5988	0.4677	0.2297	-0.408
Mof_O 	O 	0.6246	0.7281	0.9187	-0.415
Mof_O 	O 	0.8367	0.7935	0.0019	-0.327
Mof_Cu	Cu	0.2402	0.1583	0.6656	0.919
Mof_Cu	Cu	0.2598	0.6583	0.3344	0.919
Mof_H 	H 	0.2263	0.7738	0.6525	0.06
Mof_H 	H 	0.1157	0.9829	0.5666	0.094
Mof_H 	H 	0.0389	0.9512	0.6599	0.108
Mof_H 	H 	0.4389	0.9322	0.5407	0.127
Mof_H 	H 	0.5017	0.7805	0.5757	0.129
Mof_H 	H 	0.3707	0.4723	0.6298	0
Mof_H 	H 	0.4668	0.6355	0.7457	0.124
Mof_H 	H 	0.4564	0.4953	0.8795	0.04
Mof_H 	H 	0.3605	0.2536	0.8466	0.032
Mof_H 	H 	0.2737	0.2738	0.3475	0.06
Mof_H 	H 	0.3843	0.4829	0.4334	0.094
Mof_H 	H 	0.4611	0.4512	0.3401	0.108
Mof_H 	H 	0.0611	0.4322	0.4593	0.127
Mof_H 	H 	0.9983	0.2805	0.4243	0.127
Mof_H 	H 	0.1293	0.9723	0.3702	0
Mof_H 	H 	0.0332	0.1355	0.2543	0.125
Mof_H 	H 	0.0436	0.9953	0.1205	0.041
Mof_H 	H 	0.1395	0.7536	0.1534	0.033
Mof_C 	C 	0.4019	0.9066	0.7126	0.339
Mof_C 	C 	0.2889	0.8625	0.6381	-0.031
Mof_C 	C 	0.3964	0.8394	0.5605	-0.32
Mof_C 	C 	0.3039	0.771	0.49	0.4
Mof_C 	C 	0.3796	0.4474	0.6901	0.11
Mof_C 	C 	0.426	0.4597	0.8227	0.028
Mof_C 	C 	0.3741	0.3312	0.8056	0.003
Mof_C 	C 	0.0981	0.4066	0.2874	0.341
Mof_C 	C 	0.2111	0.3625	0.3619	-0.032
Mof_C 	C 	0.1036	0.3394	0.4395	-0.317
Mof_C 	C 	0.1961	0.271	0.51	0.399
Mof_C 	C 	0.1204	0.9474	0.3099	0.11
Mof_C 	C 	0.074	0.9597	0.1773	0.029
Mof_C 	C 	0.1259	0.8312	0.1944	0.003
Mof_N 	N 	0.1479	0.976	0.6269	-0.274
Mof_N 	N 	0.3424	0.3238	0.7216	-0.208
Mof_N 	N 	0.4317	0.5357	0.7516	-0.172
Mof_N 	N 	0.3521	0.476	0.3731	-0.274
Mof_N 	N 	0.1576	0.8238	0.2784	-0.208
Mof_N 	N 	0.0683	0.0357	0.2484	-0.173
Mof_O 	O 	0.4968	0.8157	0.741	-0.361
Mof_O 	O 	0.4012	0.0323	0.7297	-0.407
Mof_O 	O 	0.3754	0.7719	0.4187	-0.415
Mof_O 	O 	0.1633	0.7065	0.5019	-0.328
Mof_O 	O 	0.0032	0.3157	0.259	-0.36
Mof_O 	O 	0.0988	0.5323	0.2703	-0.408
Mof_O 	O 	0.1246	0.2719	0.5813	-0.415
Mof_O 	O 	0.3367	0.2065	0.4981	-0.328
_end
