# CIF file generated by openbabel 3.1.0, see https://openbabel.org
data_I
_chemical_name_common 'image0'
_cell_length_a 21.879
_cell_length_b 23.701
_cell_length_c 19.687
_cell_angle_alpha 90
_cell_angle_beta 90
_cell_angle_gamma 90
_space_group_name_H-M_alt 'P 1'
_space_group_name_Hall 'P 1'
loop_
    _symmetry_equiv_pos_as_xyz
    x,y,z
loop_
    _atom_site_label
    _atom_site_type_symbol
    _atom_site_fract_x
    _atom_site_fract_y
    _atom_site_fract_z
    _atom_site_occupancy
    Co1      Co       0.12550    0.67709    0.51616    1.000
    C1       C        0.24010    0.66700    0.60130    1.000
    H1       H        0.25240    0.69320    0.56880    1.000
    C2       C        0.17130    0.60550    0.64120    1.000
    H2       H        0.13390    0.58730    0.63640    1.000
    C3       C        0.28200    0.65340    0.65370    1.000
    H3       H        0.32000    0.67090    0.65590    1.000
    C4       C        0.20830    0.59090    0.69370    1.000
    H4       H        0.19490    0.56470    0.72550    1.000
    C5       C        0.26550    0.61440    0.70050    1.000
    C6       C        0.30650    0.59700    0.75610    1.000
    C7       C        0.38180    0.59660    0.82990    1.000
    C8       C        0.34830    0.54680    0.83560    1.000
    C9       C        0.43730    0.61430    0.86320    1.000
    C10      C        0.45300    0.66960    0.87460    1.000
    H5       H        0.42770    0.69810    0.85820    1.000
    C11      C        0.48260    0.57560    0.88320    1.000
    H6       H        0.47640    0.53750    0.87430    1.000
    C12      C        0.50400    0.68370    0.90890    1.000
    H7       H        0.51050    0.72170    0.91820    1.000
    C13      C        0.53490    0.59110    0.91470    1.000
    H8       H        0.56410    0.56420    0.92610    1.000
    C14      C        0.35520    0.49720    0.87840    1.000
    C15      C        0.41210    0.47200    0.89130    1.000
    H9       H        0.44770    0.48780    0.87380    1.000
    C16      C        0.30480    0.47060    0.90970    1.000
    H10      H        0.26600    0.48610    0.90500    1.000
    C17      C        0.41480    0.42380    0.93000    1.000
    H11      H        0.45260    0.40630    0.93540    1.000
    C18      C        0.31240    0.42250    0.94670    1.000
    H12      H        0.27810    0.40390    0.96340    1.000
    C19      C        0.28480    0.70020    0.35280    1.000
    H13      H        0.26340    0.66720    0.36200    1.000
    C20      C        0.32980    0.69990    0.30460    1.000
    H14      H        0.33930    0.66680    0.28160    1.000
    C21      C        0.44000    0.70120    0.21670    1.000
    H15      H        0.42950    0.66770    0.23820    1.000
    C22      C        0.48460    0.70020    0.16810    1.000
    H16      H        0.50320    0.66630    0.15630    1.000
    N1       N        0.18707    0.64600    0.59550    1.000
    N2       N        0.35390    0.62720    0.78010    1.000
    H17      H        0.36470    0.66020    0.76640    1.000
    N3       N        0.30030    0.54950    0.78960    1.000
    N4       N        0.54477    0.64810    0.92990    1.000
    N5       N        0.36762    0.40120    0.95970    1.000
    O1       O        0.20197    0.70307    0.46180    1.000
    O2       O        0.56734    0.79658    0.05970    1.000
    C23      C        0.22500    0.68210    0.62220    1.000
    H18      H        0.22850    0.71740    0.60200    1.000
    C24      C        0.19290    0.59410    0.61880    1.000
    H19      H        0.16800    0.56700    0.59870    1.000
    C25      C        0.26170    0.67050    0.68080    1.000
    H20      H        0.28180    0.69900    0.70440    1.000
    C26      C        0.22970    0.57610    0.66730    1.000
    H21      H        0.23120    0.53800    0.67860    1.000
    C27      C        0.48120    0.64690    0.83340    1.000
    H22      H        0.47560    0.65820    0.78860    1.000
    C28      C        0.44870    0.60040    0.93190    1.000
    H23      H        0.42090    0.57740    0.95450    1.000
    C29      C        0.53240    0.66330    0.86580    1.000
    H24      H        0.56020    0.68610    0.84290    1.000
    C30      C        0.49770    0.61890    0.96560    1.000
    H25      H        0.50110    0.61280    0.01210    1.000
    C31      C        0.37120    0.50170    0.94380    1.000
    H26      H        0.37930    0.53650    0.96360    1.000
    C32      C        0.34830    0.44240    0.85010    1.000
    H27      H        0.34130    0.43730    0.80390    1.000
    C33      C        0.37510    0.45190    0.98100    1.000
    H28      H        0.38420    0.45590    0.02690    1.000
    C34      C        0.35250    0.39740    0.89350    1.000
    H29      H        0.34440    0.36170    0.87610    1.000
    C35      C        0.30440    0.70150    0.37640    1.000
    H30      H        0.29680    0.66870    0.40100    1.000
    C36      C        0.34960    0.70190    0.32760    1.000
    H31      H        0.37230    0.66940    0.31980    1.000
    C37      C        0.41910    0.70320    0.19400    1.000
    H32      H        0.39370    0.67190    0.19790    1.000
    C38      C        0.46560    0.70370    0.14770    1.000
    H33      H        0.47290    0.67120    0.12250    1.000
    Co2      Co       0.37450    0.32291    0.01616    1.000
    C39      C        0.25990    0.33300    0.10130    1.000
    H34      H        0.24760    0.30680    0.06880    1.000
    C40      C        0.32870    0.39450    0.14120    1.000
    H35      H        0.36610    0.41270    0.13640    1.000
    C41      C        0.21800    0.34660    0.15370    1.000
    H36      H        0.18000    0.32910    0.15590    1.000
    C42      C        0.29170    0.40910    0.19370    1.000
    H37      H        0.30510    0.43530    0.22550    1.000
    C43      C        0.23450    0.38560    0.20050    1.000
    C44      C        0.19350    0.40300    0.25610    1.000
    C45      C        0.11820    0.40340    0.32990    1.000
    C46      C        0.15170    0.45320    0.33560    1.000
    C47      C        0.06270    0.38570    0.36320    1.000
    C48      C        0.04700    0.33040    0.37460    1.000
    H38      H        0.07230    0.30190    0.35820    1.000
    C49      C        0.01740    0.42440    0.38320    1.000
    H39      H        0.02360    0.46250    0.37430    1.000
    C50      C        0.99600    0.31630    0.40890    1.000
    H40      H        0.98950    0.27830    0.41820    1.000
    C51      C        0.96510    0.40890    0.41470    1.000
    H41      H        0.93590    0.43580    0.42610    1.000
    C52      C        0.14480    0.50280    0.37840    1.000
    C53      C        0.08790    0.52800    0.39130    1.000
    H42      H        0.05230    0.51220    0.37380    1.000
    C54      C        0.19520    0.52940    0.40970    1.000
    H43      H        0.23400    0.51390    0.40500    1.000
    C55      C        0.08520    0.57620    0.43000    1.000
    H44      H        0.04740    0.59370    0.43540    1.000
    C56      C        0.18760    0.57750    0.44670    1.000
    H45      H        0.22190    0.59610    0.46340    1.000
    C57      C        0.21520    0.29980    0.85280    1.000
    H46      H        0.23660    0.33280    0.86200    1.000
    C58      C        0.17020    0.30010    0.80460    1.000
    H47      H        0.16070    0.33320    0.78160    1.000
    C59      C        0.06000    0.29880    0.71670    1.000
    H48      H        0.07050    0.33230    0.73820    1.000
    C60      C        0.01540    0.29980    0.66810    1.000
    H49      H        0.99680    0.33370    0.65630    1.000
    N6       N        0.31293    0.35400    0.09550    1.000
    N7       N        0.14610    0.37280    0.28010    1.000
    H50      H        0.13530    0.33980    0.26640    1.000
    N8       N        0.19970    0.45050    0.28960    1.000
    N9       N        0.95523    0.35190    0.42990    1.000
    N10      N        0.13238    0.59880    0.45970    1.000
    O3       O        0.29803    0.29693    0.96180    1.000
    O4       O        0.93266    0.20342    0.55970    1.000
    C61      C        0.27500    0.31790    0.12220    1.000
    H51      H        0.27150    0.28260    0.10200    1.000
    C62      C        0.30710    0.40590    0.11880    1.000
    H52      H        0.33200    0.43300    0.09870    1.000
    C63      C        0.23830    0.32950    0.18080    1.000
    H53      H        0.21820    0.30100    0.20440    1.000
    C64      C        0.27030    0.42390    0.16730    1.000
    H54      H        0.26880    0.46200    0.17860    1.000
    C65      C        0.01880    0.35310    0.33340    1.000
    H55      H        0.02440    0.34180    0.28860    1.000
    C66      C        0.05130    0.39960    0.43190    1.000
    H56      H        0.07910    0.42260    0.45450    1.000
    C67      C        0.96760    0.33670    0.36580    1.000
    H57      H        0.93980    0.31390    0.34290    1.000
    C68      C        0.00230    0.38110    0.46560    1.000
    H58      H        0.99890    0.38720    0.51210    1.000
    C69      C        0.12880    0.49830    0.44380    1.000
    H59      H        0.12070    0.46350    0.46360    1.000
    C70      C        0.15170    0.55760    0.35010    1.000
    H60      H        0.15870    0.56270    0.30390    1.000
    C71      C        0.12490    0.54810    0.48100    1.000
    H61      H        0.11580    0.54410    0.52690    1.000
    C72      C        0.14750    0.60260    0.39350    1.000
    H62      H        0.15560    0.63830    0.37610    1.000
    C73      C        0.19560    0.29850    0.87640    1.000
    H63      H        0.20320    0.33130    0.90100    1.000
    C74      C        0.15040    0.29810    0.82760    1.000
    H64      H        0.12770    0.33060    0.81980    1.000
    C75      C        0.08090    0.29680    0.69400    1.000
    H65      H        0.10630    0.32810    0.69790    1.000
    C76      C        0.03440    0.29630    0.64770    1.000
    H66      H        0.02710    0.32880    0.62250    1.000
    Co3      Co       0.87450    0.17709    0.48384    1.000
    C77      C        0.75990    0.16700    0.39870    1.000
    H67      H        0.74760    0.19320    0.43120    1.000
    C78      C        0.82870    0.10550    0.35880    1.000
    H68      H        0.86610    0.08730    0.36360    1.000
    C79      C        0.71800    0.15340    0.34630    1.000
    H69      H        0.68000    0.17090    0.34410    1.000
    C80      C        0.79170    0.09090    0.30630    1.000
    H70      H        0.80510    0.06470    0.27450    1.000
    C81      C        0.73450    0.11440    0.29950    1.000
    C82      C        0.69350    0.09700    0.24390    1.000
    C83      C        0.61820    0.09660    0.17010    1.000
    C84      C        0.65170    0.04680    0.16440    1.000
    C85      C        0.56270    0.11430    0.13680    1.000
    C86      C        0.54700    0.16960    0.12540    1.000
    H71      H        0.57230    0.19810    0.14180    1.000
    C87      C        0.51740    0.07560    0.11680    1.000
    H72      H        0.52360    0.03750    0.12570    1.000
    C88      C        0.49600    0.18370    0.09110    1.000
    H73      H        0.48950    0.22170    0.08180    1.000
    C89      C        0.46510    0.09110    0.08530    1.000
    H74      H        0.43590    0.06420    0.07390    1.000
    C90      C        0.64480    0.99720    0.12160    1.000
    C91      C        0.58790    0.97200    0.10870    1.000
    H75      H        0.55230    0.98780    0.12620    1.000
    C92      C        0.69520    0.97060    0.09030    1.000
    H76      H        0.73400    0.98610    0.09500    1.000
    C93      C        0.58520    0.92380    0.07000    1.000
    H77      H        0.54740    0.90630    0.06460    1.000
    C94      C        0.68760    0.92250    0.05330    1.000
    H78      H        0.72190    0.90390    0.03660    1.000
    C95      C        0.71520    0.20020    0.64720    1.000
    H79      H        0.73660    0.16720    0.63800    1.000
    C96      C        0.67020    0.19990    0.69540    1.000
    H80      H        0.66070    0.16680    0.71840    1.000
    C97      C        0.56000    0.20120    0.78330    1.000
    H81      H        0.57050    0.16770    0.76180    1.000
    C98      C        0.51540    0.20020    0.83190    1.000
    H82      H        0.49680    0.16630    0.84370    1.000
    N11      N        0.81293    0.14600    0.40450    1.000
    N12      N        0.64610    0.12720    0.21990    1.000
    H83      H        0.63530    0.16020    0.23360    1.000
    N13      N        0.69970    0.04950    0.21040    1.000
    N14      N        0.45523    0.14810    0.07010    1.000
    N15      N        0.63238    0.90120    0.04030    1.000
    O5       O        0.79803    0.20307    0.53820    1.000
    O6       O        0.43266    0.29658    0.94030    1.000
    C99      C        0.77500    0.18210    0.37780    1.000
    H84      H        0.77150    0.21740    0.39800    1.000
    C100     C        0.80710    0.09410    0.38120    1.000
    H85      H        0.83200    0.06700    0.40130    1.000
    C101     C        0.73830    0.17050    0.31920    1.000
    H86      H        0.71820    0.19900    0.29560    1.000
    C102     C        0.77030    0.07610    0.33270    1.000
    H87      H        0.76880    0.03800    0.32140    1.000
    C103     C        0.51880    0.14690    0.16660    1.000
    H88      H        0.52440    0.15820    0.21140    1.000
    C104     C        0.55130    0.10040    0.06810    1.000
    H89      H        0.57910    0.07740    0.04550    1.000
    C105     C        0.46760    0.16330    0.13420    1.000
    H90      H        0.43980    0.18610    0.15710    1.000
    C106     C        0.50230    0.11890    0.03440    1.000
    H91      H        0.49890    0.11280    0.98790    1.000
    C107     C        0.62880    0.00170    0.05620    1.000
    H92      H        0.62070    0.03650    0.03640    1.000
    C108     C        0.65170    0.94240    0.14990    1.000
    H93      H        0.65870    0.93730    0.19610    1.000
    C109     C        0.62490    0.95190    0.01900    1.000
    H94      H        0.61580    0.95590    0.97310    1.000
    C110     C        0.64750    0.89740    0.10650    1.000
    H95      H        0.65560    0.86170    0.12390    1.000
    C111     C        0.69560    0.20150    0.62360    1.000
    H96      H        0.70320    0.16870    0.59900    1.000
    C112     C        0.65040    0.20190    0.67240    1.000
    H97      H        0.62770    0.16940    0.68020    1.000
    C113     C        0.58090    0.20320    0.80600    1.000
    H98      H        0.60630    0.17190    0.80210    1.000
    C114     C        0.53440    0.20370    0.85230    1.000
    H99      H        0.52710    0.17120    0.87750    1.000
    Co4      Co       0.62550    0.82291    0.98384    1.000
    C115     C        0.74010    0.83300    0.89870    1.000
    H100     H        0.75240    0.80680    0.93120    1.000
    C116     C        0.67130    0.89450    0.85880    1.000
    H101     H        0.63390    0.91270    0.86360    1.000
    C117     C        0.78200    0.84660    0.84630    1.000
    H102     H        0.82000    0.82910    0.84410    1.000
    C118     C        0.70830    0.90910    0.80630    1.000
    H103     H        0.69490    0.93530    0.77450    1.000
    C119     C        0.76550    0.88560    0.79950    1.000
    C120     C        0.80650    0.90300    0.74390    1.000
    C121     C        0.88180    0.90340    0.67010    1.000
    C122     C        0.84830    0.95320    0.66440    1.000
    C123     C        0.93730    0.88570    0.63680    1.000
    C124     C        0.95300    0.83040    0.62540    1.000
    H104     H        0.92770    0.80190    0.64180    1.000
    C125     C        0.98260    0.92440    0.61680    1.000
    H105     H        0.97640    0.96250    0.62570    1.000
    C126     C        0.00400    0.81630    0.59110    1.000
    H106     H        0.01050    0.77830    0.58180    1.000
    C127     C        0.03490    0.90890    0.58530    1.000
    H107     H        0.06410    0.93580    0.57390    1.000
    C128     C        0.85520    0.00280    0.62160    1.000
    C129     C        0.91210    0.02800    0.60870    1.000
    H108     H        0.94770    0.01220    0.62620    1.000
    C130     C        0.80480    0.02940    0.59030    1.000
    H109     H        0.76600    0.01390    0.59500    1.000
    C131     C        0.91480    0.07620    0.57000    1.000
    H110     H        0.95260    0.09370    0.56460    1.000
    C132     C        0.81240    0.07750    0.55330    1.000
    H111     H        0.77810    0.09610    0.53660    1.000
    C133     C        0.78480    0.79980    0.14720    1.000
    H112     H        0.76340    0.83280    0.13800    1.000
    C134     C        0.82980    0.80010    0.19540    1.000
    H113     H        0.83930    0.83320    0.21840    1.000
    C135     C        0.94000    0.79880    0.28330    1.000
    H114     H        0.92950    0.83230    0.26180    1.000
    C136     C        0.98460    0.79980    0.33190    1.000
    H115     H        0.00320    0.83370    0.34370    1.000
    N16      N        0.68707    0.85400    0.90450    1.000
    N17      N        0.85390    0.87280    0.71990    1.000
    H116     H        0.86470    0.83980    0.73360    1.000
    N18      N        0.80030    0.95050    0.71040    1.000
    N19      N        0.04477    0.85190    0.57010    1.000
    N20      N        0.86762    0.09880    0.54030    1.000
    O7       O        0.70197    0.79693    0.03820    1.000
    O8       O        0.06734    0.70342    0.44030    1.000
    C137     C        0.72500    0.81790    0.87780    1.000
    H117     H        0.72850    0.78260    0.89800    1.000
    C138     C        0.69290    0.90590    0.88120    1.000
    H118     H        0.66800    0.93300    0.90130    1.000
    C139     C        0.76170    0.82950    0.81920    1.000
    H119     H        0.78180    0.80100    0.79560    1.000
    C140     C        0.72970    0.92390    0.83270    1.000
    H120     H        0.73120    0.96200    0.82140    1.000
    C141     C        0.98120    0.85310    0.66660    1.000
    H121     H        0.97560    0.84180    0.71140    1.000
    C142     C        0.94870    0.89960    0.56810    1.000
    H122     H        0.92090    0.92260    0.54550    1.000
    C143     C        0.03240    0.83670    0.63420    1.000
    H123     H        0.06020    0.81390    0.65710    1.000
    C144     C        0.99770    0.88110    0.53440    1.000
    H124     H        0.00110    0.88720    0.48790    1.000
    C145     C        0.87120    0.99830    0.55620    1.000
    H125     H        0.87930    0.96350    0.53640    1.000
    C146     C        0.84830    0.05760    0.64990    1.000
    H126     H        0.84130    0.06270    0.69610    1.000
    C147     C        0.87510    0.04810    0.51900    1.000
    H127     H        0.88420    0.04410    0.47310    1.000
    C148     C        0.85250    0.10260    0.60650    1.000
    H128     H        0.84440    0.13830    0.62390    1.000
    C149     C        0.80440    0.79850    0.12360    1.000
    H129     H        0.79680    0.83130    0.09900    1.000
    C150     C        0.84960    0.79810    0.17240    1.000
    H130     H        0.87230    0.83060    0.18020    1.000
    C151     C        0.91910    0.79680    0.30600    1.000
    H131     H        0.89370    0.82810    0.30210    1.000
    C152     C        0.96560    0.79630    0.35230    1.000
    H132     H        0.97290    0.82880    0.37750    1.000
    Co5      Co       0.87450    0.32291    0.48384    1.000
    C153     C        0.75990    0.33300    0.39870    1.000
    H133     H        0.74760    0.30680    0.43120    1.000
    C154     C        0.82870    0.39450    0.35880    1.000
    H134     H        0.86610    0.41270    0.36360    1.000
    C155     C        0.71800    0.34660    0.34630    1.000
    H135     H        0.68000    0.32910    0.34410    1.000
    C156     C        0.79170    0.40910    0.30630    1.000
    H136     H        0.80510    0.43530    0.27450    1.000
    C157     C        0.73450    0.38560    0.29950    1.000
    C158     C        0.69350    0.40300    0.24390    1.000
    C159     C        0.61820    0.40340    0.17010    1.000
    C160     C        0.65170    0.45320    0.16440    1.000
    C161     C        0.56270    0.38570    0.13680    1.000
    C162     C        0.54700    0.33040    0.12540    1.000
    H137     H        0.57230    0.30190    0.14180    1.000
    C163     C        0.51740    0.42440    0.11680    1.000
    H138     H        0.52360    0.46250    0.12570    1.000
    C164     C        0.49600    0.31630    0.09110    1.000
    H139     H        0.48950    0.27830    0.08180    1.000
    C165     C        0.46510    0.40890    0.08530    1.000
    H140     H        0.43590    0.43580    0.07390    1.000
    C166     C        0.64480    0.50280    0.12160    1.000
    C167     C        0.58790    0.52800    0.10870    1.000
    H141     H        0.55230    0.51220    0.12620    1.000
    C168     C        0.69520    0.52940    0.09030    1.000
    H142     H        0.73400    0.51390    0.09500    1.000
    C169     C        0.58520    0.57620    0.07000    1.000
    H143     H        0.54740    0.59370    0.06460    1.000
    C170     C        0.68760    0.57750    0.05330    1.000
    H144     H        0.72190    0.59610    0.03660    1.000
    C171     C        0.71520    0.29980    0.64720    1.000
    H145     H        0.73660    0.33280    0.63800    1.000
    C172     C        0.67020    0.30010    0.69540    1.000
    H146     H        0.66070    0.33320    0.71840    1.000
    C173     C        0.56000    0.29880    0.78330    1.000
    H147     H        0.57050    0.33230    0.76180    1.000
    C174     C        0.51540    0.29980    0.83190    1.000
    H148     H        0.49680    0.33370    0.84370    1.000
    N21      N        0.81293    0.35400    0.40450    1.000
    N22      N        0.64610    0.37280    0.21990    1.000
    H149     H        0.63530    0.33980    0.23360    1.000
    N23      N        0.69970    0.45050    0.21040    1.000
    N24      N        0.45523    0.35190    0.07010    1.000
    N25      N        0.63238    0.59880    0.04030    1.000
    O9       O        0.79803    0.29693    0.53820    1.000
    O10      O        0.43266    0.20342    0.94030    1.000
    C175     C        0.77500    0.31790    0.37780    1.000
    H150     H        0.77150    0.28260    0.39800    1.000
    C176     C        0.80710    0.40590    0.38120    1.000
    H151     H        0.83200    0.43300    0.40130    1.000
    C177     C        0.73830    0.32950    0.31920    1.000
    H152     H        0.71820    0.30100    0.29560    1.000
    C178     C        0.77030    0.42390    0.33270    1.000
    H153     H        0.76880    0.46200    0.32140    1.000
    C179     C        0.51880    0.35310    0.16660    1.000
    H154     H        0.52440    0.34180    0.21140    1.000
    C180     C        0.55130    0.39960    0.06810    1.000
    H155     H        0.57910    0.42260    0.04550    1.000
    C181     C        0.46760    0.33670    0.13420    1.000
    H156     H        0.43980    0.31390    0.15710    1.000
    C182     C        0.50230    0.38110    0.03440    1.000
    H157     H        0.49890    0.38720    0.98790    1.000
    C183     C        0.62880    0.49830    0.05620    1.000
    H158     H        0.62070    0.46350    0.03640    1.000
    C184     C        0.65170    0.55760    0.14990    1.000
    H159     H        0.65870    0.56270    0.19610    1.000
    C185     C        0.62490    0.54810    0.01900    1.000
    H160     H        0.61580    0.54410    0.97310    1.000
    C186     C        0.64750    0.60260    0.10650    1.000
    H161     H        0.65560    0.63830    0.12390    1.000
    C187     C        0.69560    0.29850    0.62360    1.000
    H162     H        0.70320    0.33130    0.59900    1.000
    C188     C        0.65040    0.29810    0.67240    1.000
    H163     H        0.62770    0.33060    0.68020    1.000
    C189     C        0.58090    0.29680    0.80600    1.000
    H164     H        0.60630    0.32810    0.80210    1.000
    C190     C        0.53440    0.29630    0.85230    1.000
    H165     H        0.52710    0.32880    0.87750    1.000
    Co6      Co       0.62550    0.67709    0.98384    1.000
    C191     C        0.74010    0.66700    0.89870    1.000
    H166     H        0.75240    0.69320    0.93120    1.000
    C192     C        0.67130    0.60550    0.85880    1.000
    H167     H        0.63390    0.58730    0.86360    1.000
    C193     C        0.78200    0.65340    0.84630    1.000
    H168     H        0.82000    0.67090    0.84410    1.000
    C194     C        0.70830    0.59090    0.80630    1.000
    H169     H        0.69490    0.56470    0.77450    1.000
    C195     C        0.76550    0.61440    0.79950    1.000
    C196     C        0.80650    0.59700    0.74390    1.000
    C197     C        0.88180    0.59660    0.67010    1.000
    C198     C        0.84830    0.54680    0.66440    1.000
    C199     C        0.93730    0.61430    0.63680    1.000
    C200     C        0.95300    0.66960    0.62540    1.000
    H170     H        0.92770    0.69810    0.64180    1.000
    C201     C        0.98260    0.57560    0.61680    1.000
    H171     H        0.97640    0.53750    0.62570    1.000
    C202     C        0.00400    0.68370    0.59110    1.000
    H172     H        0.01050    0.72170    0.58180    1.000
    C203     C        0.03490    0.59110    0.58530    1.000
    H173     H        0.06410    0.56420    0.57390    1.000
    C204     C        0.85520    0.49720    0.62160    1.000
    C205     C        0.91210    0.47200    0.60870    1.000
    H174     H        0.94770    0.48780    0.62620    1.000
    C206     C        0.80480    0.47060    0.59030    1.000
    H175     H        0.76600    0.48610    0.59500    1.000
    C207     C        0.91480    0.42380    0.57000    1.000
    H176     H        0.95260    0.40630    0.56460    1.000
    C208     C        0.81240    0.42250    0.55330    1.000
    H177     H        0.77810    0.40390    0.53660    1.000
    C209     C        0.78480    0.70020    0.14720    1.000
    H178     H        0.76340    0.66720    0.13800    1.000
    C210     C        0.82980    0.69990    0.19540    1.000
    H179     H        0.83930    0.66680    0.21840    1.000
    C211     C        0.94000    0.70120    0.28330    1.000
    H180     H        0.92950    0.66770    0.26180    1.000
    C212     C        0.98460    0.70020    0.33190    1.000
    H181     H        0.00320    0.66630    0.34370    1.000
    N26      N        0.68707    0.64600    0.90450    1.000
    N27      N        0.85390    0.62720    0.71990    1.000
    H182     H        0.86470    0.66020    0.73360    1.000
    N28      N        0.80030    0.54950    0.71040    1.000
    N29      N        0.04477    0.64810    0.57010    1.000
    N30      N        0.86762    0.40120    0.54030    1.000
    O11      O        0.70197    0.70307    0.03820    1.000
    O12      O        0.06734    0.79658    0.44030    1.000
    C213     C        0.72500    0.68210    0.87780    1.000
    H183     H        0.72850    0.71740    0.89800    1.000
    C214     C        0.69290    0.59410    0.88120    1.000
    H184     H        0.66800    0.56700    0.90130    1.000
    C215     C        0.76170    0.67050    0.81920    1.000
    H185     H        0.78180    0.69900    0.79560    1.000
    C216     C        0.72970    0.57610    0.83270    1.000
    H186     H        0.73120    0.53800    0.82140    1.000
    C217     C        0.98120    0.64690    0.66660    1.000
    H187     H        0.97560    0.65820    0.71140    1.000
    C218     C        0.94870    0.60040    0.56810    1.000
    H188     H        0.92090    0.57740    0.54550    1.000
    C219     C        0.03240    0.66330    0.63420    1.000
    H189     H        0.06020    0.68610    0.65710    1.000
    C220     C        0.99770    0.61890    0.53440    1.000
    H190     H        0.00110    0.61280    0.48790    1.000
    C221     C        0.87120    0.50170    0.55620    1.000
    H191     H        0.87930    0.53650    0.53640    1.000
    C222     C        0.84830    0.44240    0.64990    1.000
    H192     H        0.84130    0.43730    0.69610    1.000
    C223     C        0.87510    0.45190    0.51900    1.000
    H193     H        0.88420    0.45590    0.47310    1.000
    C224     C        0.85250    0.39740    0.60650    1.000
    H194     H        0.84440    0.36170    0.62390    1.000
    C225     C        0.80440    0.70150    0.12360    1.000
    H195     H        0.79680    0.66870    0.09900    1.000
    C226     C        0.84960    0.70190    0.17240    1.000
    H196     H        0.87230    0.66940    0.18020    1.000
    C227     C        0.91910    0.70320    0.30600    1.000
    H197     H        0.89370    0.67190    0.30210    1.000
    C228     C        0.96560    0.70370    0.35230    1.000
    H198     H        0.97290    0.67120    0.37750    1.000
    Co7      Co       0.12550    0.82291    0.51616    1.000
    C229     C        0.24010    0.83300    0.60130    1.000
    H199     H        0.25240    0.80680    0.56880    1.000
    C230     C        0.17130    0.89450    0.64120    1.000
    H200     H        0.13390    0.91270    0.63640    1.000
    C231     C        0.28200    0.84660    0.65370    1.000
    H201     H        0.32000    0.82910    0.65590    1.000
    C232     C        0.20830    0.90910    0.69370    1.000
    H202     H        0.19490    0.93530    0.72550    1.000
    C233     C        0.26550    0.88560    0.70050    1.000
    C234     C        0.30650    0.90300    0.75610    1.000
    C235     C        0.38180    0.90340    0.82990    1.000
    C236     C        0.34830    0.95320    0.83560    1.000
    C237     C        0.43730    0.88570    0.86320    1.000
    C238     C        0.45300    0.83040    0.87460    1.000
    H203     H        0.42770    0.80190    0.85820    1.000
    C239     C        0.48260    0.92440    0.88320    1.000
    H204     H        0.47640    0.96250    0.87430    1.000
    C240     C        0.50400    0.81630    0.90890    1.000
    H205     H        0.51050    0.77830    0.91820    1.000
    C241     C        0.53490    0.90890    0.91470    1.000
    H206     H        0.56410    0.93580    0.92610    1.000
    C242     C        0.35520    0.00280    0.87840    1.000
    C243     C        0.41210    0.02800    0.89130    1.000
    H207     H        0.44770    0.01220    0.87380    1.000
    C244     C        0.30480    0.02940    0.90970    1.000
    H208     H        0.26600    0.01390    0.90500    1.000
    C245     C        0.41480    0.07620    0.93000    1.000
    H209     H        0.45260    0.09370    0.93540    1.000
    C246     C        0.31240    0.07750    0.94670    1.000
    H210     H        0.27810    0.09610    0.96340    1.000
    C247     C        0.28480    0.79980    0.35280    1.000
    H211     H        0.26340    0.83280    0.36200    1.000
    C248     C        0.32980    0.80010    0.30460    1.000
    H212     H        0.33930    0.83320    0.28160    1.000
    C249     C        0.44000    0.79880    0.21670    1.000
    H213     H        0.42950    0.83230    0.23820    1.000
    C250     C        0.48460    0.79980    0.16810    1.000
    H214     H        0.50320    0.83370    0.15630    1.000
    N31      N        0.18707    0.85400    0.59550    1.000
    N32      N        0.35390    0.87280    0.78010    1.000
    H215     H        0.36470    0.83980    0.76640    1.000
    N33      N        0.30030    0.95050    0.78960    1.000
    N34      N        0.54477    0.85190    0.92990    1.000
    N35      N        0.36762    0.09880    0.95970    1.000
    O13      O        0.20197    0.79693    0.46180    1.000
    O14      O        0.56734    0.70342    0.05970    1.000
    C251     C        0.22500    0.81790    0.62220    1.000
    H216     H        0.22850    0.78260    0.60200    1.000
    C252     C        0.19290    0.90590    0.61880    1.000
    H217     H        0.16800    0.93300    0.59870    1.000
    C253     C        0.26170    0.82950    0.68080    1.000
    H218     H        0.28180    0.80100    0.70440    1.000
    C254     C        0.22970    0.92390    0.66730    1.000
    H219     H        0.23120    0.96200    0.67860    1.000
    C255     C        0.48120    0.85310    0.83340    1.000
    H220     H        0.47560    0.84180    0.78860    1.000
    C256     C        0.44870    0.89960    0.93190    1.000
    H221     H        0.42090    0.92260    0.95450    1.000
    C257     C        0.53240    0.83670    0.86580    1.000
    H222     H        0.56020    0.81390    0.84290    1.000
    C258     C        0.49770    0.88110    0.96560    1.000
    H223     H        0.50110    0.88720    0.01210    1.000
    C259     C        0.37120    0.99830    0.94380    1.000
    H224     H        0.37930    0.96350    0.96360    1.000
    C260     C        0.34830    0.05760    0.85010    1.000
    H225     H        0.34130    0.06270    0.80390    1.000
    C261     C        0.37510    0.04810    0.98100    1.000
    H226     H        0.38420    0.04410    0.02690    1.000
    C262     C        0.35250    0.10260    0.89350    1.000
    H227     H        0.34440    0.13830    0.87610    1.000
    C263     C        0.30440    0.79850    0.37640    1.000
    H228     H        0.29680    0.83130    0.40100    1.000
    C264     C        0.34960    0.79810    0.32760    1.000
    H229     H        0.37230    0.83060    0.31980    1.000
    C265     C        0.41910    0.79680    0.19400    1.000
    H230     H        0.39370    0.82810    0.19790    1.000
    C266     C        0.46560    0.79630    0.14770    1.000
    H231     H        0.47290    0.82880    0.12250    1.000
    Co8      Co       0.37450    0.17709    0.01616    1.000
    C267     C        0.25990    0.16700    0.10130    1.000
    H232     H        0.24760    0.19320    0.06880    1.000
    C268     C        0.32870    0.10550    0.14120    1.000
    H233     H        0.36610    0.08730    0.13640    1.000
    C269     C        0.21800    0.15340    0.15370    1.000
    H234     H        0.18000    0.17090    0.15590    1.000
    C270     C        0.29170    0.09090    0.19370    1.000
    H235     H        0.30510    0.06470    0.22550    1.000
    C271     C        0.23450    0.11440    0.20050    1.000
    C272     C        0.19350    0.09700    0.25610    1.000
    C273     C        0.11820    0.09660    0.32990    1.000
    C274     C        0.15170    0.04680    0.33560    1.000
    C275     C        0.06270    0.11430    0.36320    1.000
    C276     C        0.04700    0.16960    0.37460    1.000
    H236     H        0.07230    0.19810    0.35820    1.000
    C277     C        0.01740    0.07560    0.38320    1.000
    H237     H        0.02360    0.03750    0.37430    1.000
    C278     C        0.99600    0.18370    0.40890    1.000
    H238     H        0.98950    0.22170    0.41820    1.000
    C279     C        0.96510    0.09110    0.41470    1.000
    H239     H        0.93590    0.06420    0.42610    1.000
    C280     C        0.14480    0.99720    0.37840    1.000
    C281     C        0.08790    0.97200    0.39130    1.000
    H240     H        0.05230    0.98780    0.37380    1.000
    C282     C        0.19520    0.97060    0.40970    1.000
    H241     H        0.23400    0.98610    0.40500    1.000
    C283     C        0.08520    0.92380    0.43000    1.000
    H242     H        0.04740    0.90630    0.43540    1.000
    C284     C        0.18760    0.92250    0.44670    1.000
    H243     H        0.22190    0.90390    0.46340    1.000
    C285     C        0.21520    0.20020    0.85280    1.000
    H244     H        0.23660    0.16720    0.86200    1.000
    C286     C        0.17020    0.19990    0.80460    1.000
    H245     H        0.16070    0.16680    0.78160    1.000
    C287     C        0.06000    0.20120    0.71670    1.000
    H246     H        0.07050    0.16770    0.73820    1.000
    C288     C        0.01540    0.20020    0.66810    1.000
    H247     H        0.99680    0.16630    0.65630    1.000
    N36      N        0.31293    0.14600    0.09550    1.000
    N37      N        0.14610    0.12720    0.28010    1.000
    H248     H        0.13530    0.16020    0.26640    1.000
    N38      N        0.19970    0.04950    0.28960    1.000
    N39      N        0.95523    0.14810    0.42990    1.000
    N40      N        0.13238    0.90120    0.45970    1.000
    O15      O        0.29803    0.20307    0.96180    1.000
    O16      O        0.93266    0.29658    0.55970    1.000
    C289     C        0.27500    0.18210    0.12220    1.000
    H249     H        0.27150    0.21740    0.10200    1.000
    C290     C        0.30710    0.09410    0.11880    1.000
    H250     H        0.33200    0.06700    0.09870    1.000
    C291     C        0.23830    0.17050    0.18080    1.000
    H251     H        0.21820    0.19900    0.20440    1.000
    C292     C        0.27030    0.07610    0.16730    1.000
    H252     H        0.26880    0.03800    0.17860    1.000
    C293     C        0.01880    0.14690    0.33340    1.000
    H253     H        0.02440    0.15820    0.28860    1.000
    C294     C        0.05130    0.10040    0.43190    1.000
    H254     H        0.07910    0.07740    0.45450    1.000
    C295     C        0.96760    0.16330    0.36580    1.000
    H255     H        0.93980    0.18610    0.34290    1.000
    C296     C        0.00230    0.11890    0.46560    1.000
    H256     H        0.99890    0.11280    0.51210    1.000
    C297     C        0.12880    0.00170    0.44380    1.000
    H257     H        0.12070    0.03650    0.46360    1.000
    C298     C        0.15170    0.94240    0.35010    1.000
    H258     H        0.15870    0.93730    0.30390    1.000
    C299     C        0.12490    0.95190    0.48100    1.000
    H259     H        0.11580    0.95590    0.52690    1.000
    C300     C        0.14750    0.89740    0.39350    1.000
    H260     H        0.15560    0.86170    0.37610    1.000
    C301     C        0.19560    0.20150    0.87640    1.000
    H261     H        0.20320    0.16870    0.90100    1.000
    C302     C        0.15040    0.20190    0.82760    1.000
    H262     H        0.12770    0.16940    0.81980    1.000
    C303     C        0.08090    0.20320    0.69400    1.000
    H263     H        0.10630    0.17190    0.69790    1.000
    C304     C        0.03440    0.20370    0.64770    1.000
    H264     H        0.02710    0.17120    0.62250    1.000
    C305     C        0.21990    0.75000    0.44240    1.000
    C306     C        0.27010    0.75000    0.38890    1.000
    C307     C        0.36170    0.75000    0.29010    1.000
    C308     C        0.41020    0.75000    0.23490    1.000
    C309     C        0.50210    0.75000    0.13640    1.000
    C310     C        0.55000    0.75000    0.08120    1.000
    O17      O        0.12077    0.75000    0.56860    1.000
    C311     C        0.28010    0.25000    0.94240    1.000
    C312     C        0.22990    0.25000    0.88890    1.000
    C313     C        0.13830    0.25000    0.79010    1.000
    C314     C        0.08980    0.25000    0.73490    1.000
    C315     C        0.99790    0.25000    0.63640    1.000
    C316     C        0.95000    0.25000    0.58120    1.000
    O18      O        0.37923    0.25000    0.06860    1.000
    C317     C        0.78010    0.25000    0.55760    1.000
    C318     C        0.72990    0.25000    0.61110    1.000
    C319     C        0.63830    0.25000    0.70990    1.000
    C320     C        0.58980    0.25000    0.76510    1.000
    C321     C        0.49790    0.25000    0.86360    1.000
    C322     C        0.45000    0.25000    0.91880    1.000
    O19      O        0.87923    0.25000    0.43140    1.000
    C323     C        0.71990    0.75000    0.05760    1.000
    C324     C        0.77010    0.75000    0.11110    1.000
    C325     C        0.86170    0.75000    0.20990    1.000
    C326     C        0.91020    0.75000    0.26510    1.000
    C327     C        0.00210    0.75000    0.36360    1.000
    C328     C        0.05000    0.75000    0.41880    1.000
    O20      O        0.62077    0.75000    0.93140    1.000
