# CIF file generated by openbabel 3.1.0, see https://openbabel.org
data_I
_chemical_name_common 'image0'
_cell_length_a 12.653
_cell_length_b 25.497
_cell_length_c 28.551
_cell_angle_alpha 90
_cell_angle_beta 90.945
_cell_angle_gamma 90
_space_group_name_H-M_alt 'P 1'
_space_group_name_Hall 'P 1'
loop_
    _symmetry_equiv_pos_as_xyz
    x,y,z
loop_
    _atom_site_label
    _atom_site_type_symbol
    _atom_site_fract_x
    _atom_site_fract_y
    _atom_site_fract_z
    _atom_site_occupancy
    Co1      Co       0.74478    0.99815    0.81303    1.000
    Co2      Co       0.24573    0.49964    0.18707    1.000
    Co3      Co       0.88687    0.75065    0.03238    1.000
    Co4      Co       0.60457    0.74899    0.02427    1.000
    O1       O        0.74170    0.74959    0.07063    1.000
    O2       O        0.84620    0.81250    0.99027    1.000
    O3       O        0.67270    0.80072    0.97909    1.000
    O4       O        0.46020    0.18868    0.94041    1.000
    O5       O        0.33310    0.16943    0.88802    1.000
    O6       O        0.66090    0.68362    0.99125    1.000
    O7       O        0.83480    0.69559    0.98369    1.000
    O8       O        0.94180    0.68954    0.07332    1.000
    O9       O        0.81000    0.66861    0.12090    1.000
    O10      O        0.86510    0.04423    0.84118    1.000
    O11      O        0.90230    0.09680    0.78113    1.000
    O12      O        0.34650    0.55094    0.15417    1.000
    O13      O        0.39110    0.60433    0.21334    1.000
    O14      O        0.27020    0.74911    0.82239    1.000
    O15      O        0.14520    0.74799    0.87687    1.000
    O16      O        0.64140    0.55370    0.71309    1.000
    O17      O        0.62080    0.54213    0.79001    1.000
    O18      O        0.61640    0.95650    0.78837    1.000
    O19      O        0.64660    0.94367    0.71216    1.000
    N1       N        0.74740    0.95113    0.87473    1.000
    N2       N        0.63310    0.05003    0.84505    1.000
    N3       N        0.75440    0.54808    0.87437    1.000
    N4       N        0.11720    0.54572    0.15884    1.000
    N5       N        0.05100    0.19271    0.91933    1.000
    N6       N        0.52870    0.69699    0.07131    1.000
    N7       N        0.47650    0.74824    0.97302    1.000
    N8       N        0.36680    0.68642    0.74942    1.000
    N9       N        0.36800    0.81130    0.74846    1.000
    C1       C        0.84050    0.93372    0.89236    1.000
    H1       H        0.90370    0.94980    0.88200    1.000
    C2       C        0.84830    0.89366    0.92476    1.000
    H2       H        0.91530    0.88270    0.93670    1.000
    C3       C        0.75490    0.86956    0.93969    1.000
    C4       C        0.66100    0.88810    0.92195    1.000
    H3       H        0.59650    0.87290    0.93180    1.000
    C5       C        0.65910    0.92859    0.88988    1.000
    H4       H        0.59280    0.94080    0.87820    1.000
    C6       C        0.75930    0.82365    0.97287    1.000
    C7       C        0.53740    0.06141    0.82517    1.000
    H5       H        0.51800    0.04440    0.79670    1.000
    C8       C        0.46620    0.09680    0.84454    1.000
    H6       H        0.40070    0.10400    0.82920    1.000
    C9       C        0.49240    0.12117    0.88643    1.000
    C10      C        0.58710    0.10850    0.90784    1.000
    H7       H        0.60730    0.12430    0.93680    1.000
    C11      C        0.65290    0.07230    0.88660    1.000
    H8       H        0.71620    0.06260    0.90270    1.000
    C12      C        0.42120    0.16188    0.90691    1.000
    C13      C        0.66400    0.56558    0.89196    1.000
    H9       H        0.59940    0.55020    0.88140    1.000
    C14      C        0.66050    0.60478    0.92457    1.000
    H10      H        0.59440    0.61620    0.93610    1.000
    C15      C        0.75280    0.62777    0.94069    1.000
    C16      C        0.84720    0.60899    0.92367    1.000
    H11      H        0.91270    0.62310    0.93450    1.000
    C17      C        0.84490    0.56975    0.89103    1.000
    H12      H        0.91010    0.55710    0.87950    1.000
    C18      C        0.75090    0.67332    0.97489    1.000
    C19      C        0.12230    0.56490    0.11540    1.000
    H13      H        0.17780    0.55270    0.09620    1.000
    C20      C        0.05230    0.60160    0.09610    1.000
    H14      H        0.06170    0.61460    0.06520    1.000
    C21      C        0.97030    0.61850    0.12244    1.000
    C22      C        0.95710    0.59690    0.16580    1.000
    H15      H        0.89770    0.60620    0.18390    1.000
    C23      C        0.03130    0.56100    0.18330    1.000
    H16      H        0.02120    0.54670    0.21360    1.000
    C24      C        0.90050    0.66180    0.10400    1.000
    C25      C        0.00480    0.14960    0.93370    1.000
    H17      H        0.00280    0.14380    0.96650    1.000
    C26      C        0.95870    0.11200    0.90500    1.000
    H18      H        0.92720    0.08140    0.91750    1.000
    C27      C        0.96050    0.12120    0.85670    1.000
    C28      C        0.01100    0.16610    0.84020    1.000
    H19      H        0.01480    0.17300    0.80760    1.000
    C29      C        0.05520    0.20020    0.87290    1.000
    H20      H        0.09030    0.23060    0.86170    1.000
    C30      C        0.90520    0.08450    0.82360    1.000
    C31      C        0.48190    0.65290    0.05890    1.000
    H21      H        0.48070    0.64450    0.02650    1.000
    C32      C        0.43380    0.61730    0.08917    1.000
    H22      H        0.39880    0.58690    0.07760    1.000
    C33      C        0.43890    0.62800    0.13610    1.000
    C34      C        0.48640    0.67440    0.15160    1.000
    H23      H        0.48910    0.68320    0.18400    1.000
    C35      C        0.52940    0.70720    0.11840    1.000
    H24      H        0.56150    0.73880    0.12890    1.000
    C36      C        0.38960    0.59190    0.17096    1.000
    C37      C        0.37700    0.75378    0.98360    1.000
    H25      H        0.35840    0.75720    0.01560    1.000
    C38      C        0.29730    0.75480    0.94930    1.000
    H26      H        0.22570    0.75930    0.95800    1.000
    C39      C        0.32260    0.74930    0.90250    1.000
    C40      C        0.43000    0.74361    0.89140    1.000
    H27      H        0.45070    0.73990    0.85970    1.000
    C41      C        0.50430    0.74347    0.92712    1.000
    H28      H        0.57690    0.74000    0.91970    1.000
    C42      C        0.23710    0.74903    0.86440    1.000
    C43      C        0.37650    0.65312    0.78605    1.000
    H29      H        0.33000    0.65730    0.81160    1.000
    C44      C        0.44980    0.61369    0.78821    1.000
    H30      H        0.45410    0.59150    0.81490    1.000
    C45      C        0.51890    0.60625    0.75058    1.000
    C46      C        0.50760    0.63956    0.71270    1.000
    H31      H        0.55130    0.63530    0.68620    1.000
    C47      C        0.43290    0.67898    0.71336    1.000
    H32      H        0.42780    0.70200    0.68720    1.000
    C48      C        0.60060    0.56312    0.75189    1.000
    C49      C        0.43020    0.82041    0.71126    1.000
    H33      H        0.42270    0.79840    0.68460    1.000
    C50      C        0.50380    0.85988    0.71015    1.000
    H34      H        0.54470    0.86510    0.68290    1.000
    C51      C        0.51830    0.89223    0.74895    1.000
    C52      C        0.45280    0.88320    0.78662    1.000
    H35      H        0.45890    0.90460    0.81380    1.000
    C53      C        0.38010    0.84400    0.78506    1.000
    H36      H        0.33550    0.83940    0.81120    1.000
    C54      C        0.59990    0.93465    0.74935    1.000
    Co5      Co       0.75522    0.99815    0.68697    1.000
    Co6      Co       0.25427    0.49964    0.31293    1.000
    Co7      Co       0.61313    0.75065    0.46762    1.000
    Co8      Co       0.89543    0.74899    0.47573    1.000
    O20      O        0.75830    0.74959    0.42937    1.000
    O21      O        0.65380    0.81250    0.50973    1.000
    O22      O        0.82730    0.80072    0.52091    1.000
    O23      O        0.03980    0.18868    0.55959    1.000
    O24      O        0.16690    0.16943    0.61198    1.000
    O25      O        0.83910    0.68362    0.50875    1.000
    O26      O        0.66520    0.69559    0.51631    1.000
    O27      O        0.55820    0.68954    0.42668    1.000
    O28      O        0.69000    0.66861    0.37910    1.000
    O29      O        0.63490    0.04423    0.65882    1.000
    O30      O        0.59770    0.09680    0.71887    1.000
    O31      O        0.15350    0.55094    0.34583    1.000
    O32      O        0.10890    0.60433    0.28666    1.000
    O33      O        0.22980    0.74911    0.67761    1.000
    O34      O        0.35480    0.74799    0.62313    1.000
    O35      O        0.85860    0.55370    0.78691    1.000
    O36      O        0.87920    0.54213    0.70999    1.000
    O37      O        0.88360    0.95650    0.71163    1.000
    O38      O        0.85340    0.94367    0.78784    1.000
    N10      N        0.75260    0.95113    0.62527    1.000
    N11      N        0.86690    0.05003    0.65495    1.000
    N12      N        0.74560    0.54808    0.62563    1.000
    N13      N        0.38280    0.54572    0.34116    1.000
    N14      N        0.44900    0.19271    0.58067    1.000
    N15      N        0.97130    0.69699    0.42869    1.000
    N16      N        0.02350    0.74824    0.52698    1.000
    N17      N        0.13320    0.68642    0.75058    1.000
    N18      N        0.13200    0.81130    0.75154    1.000
    C55      C        0.65950    0.93372    0.60764    1.000
    H37      H        0.59630    0.94980    0.61800    1.000
    C56      C        0.65170    0.89366    0.57524    1.000
    H38      H        0.58470    0.88270    0.56330    1.000
    C57      C        0.74510    0.86956    0.56031    1.000
    C58      C        0.83900    0.88810    0.57805    1.000
    H39      H        0.90350    0.87290    0.56820    1.000
    C59      C        0.84090    0.92859    0.61012    1.000
    H40      H        0.90720    0.94080    0.62180    1.000
    C60      C        0.74070    0.82365    0.52713    1.000
    C61      C        0.96260    0.06141    0.67483    1.000
    H41      H        0.98200    0.04440    0.70330    1.000
    C62      C        0.03380    0.09680    0.65546    1.000
    H42      H        0.09930    0.10400    0.67080    1.000
    C63      C        0.00760    0.12117    0.61357    1.000
    C64      C        0.91290    0.10850    0.59216    1.000
    H43      H        0.89270    0.12430    0.56320    1.000
    C65      C        0.84710    0.07230    0.61340    1.000
    H44      H        0.78380    0.06260    0.59730    1.000
    C66      C        0.07880    0.16188    0.59309    1.000
    C67      C        0.83600    0.56558    0.60804    1.000
    H45      H        0.90060    0.55020    0.61860    1.000
    C68      C        0.83950    0.60478    0.57543    1.000
    H46      H        0.90560    0.61620    0.56390    1.000
    C69      C        0.74720    0.62777    0.55931    1.000
    C70      C        0.65280    0.60899    0.57633    1.000
    H47      H        0.58730    0.62310    0.56550    1.000
    C71      C        0.65510    0.56975    0.60897    1.000
    H48      H        0.58990    0.55710    0.62050    1.000
    C72      C        0.74910    0.67332    0.52511    1.000
    C73      C        0.37770    0.56490    0.38460    1.000
    H49      H        0.32220    0.55270    0.40380    1.000
    C74      C        0.44770    0.60160    0.40390    1.000
    H50      H        0.43830    0.61460    0.43480    1.000
    C75      C        0.52970    0.61850    0.37756    1.000
    C76      C        0.54290    0.59690    0.33420    1.000
    H51      H        0.60230    0.60620    0.31610    1.000
    C77      C        0.46870    0.56100    0.31670    1.000
    H52      H        0.47880    0.54670    0.28640    1.000
    C78      C        0.59950    0.66180    0.39600    1.000
    C79      C        0.49520    0.14960    0.56630    1.000
    H53      H        0.49720    0.14380    0.53350    1.000
    C80      C        0.54130    0.11200    0.59500    1.000
    H54      H        0.57280    0.08140    0.58250    1.000
    C81      C        0.53950    0.12120    0.64330    1.000
    C82      C        0.48900    0.16610    0.65980    1.000
    H55      H        0.48520    0.17300    0.69240    1.000
    C83      C        0.44480    0.20020    0.62710    1.000
    H56      H        0.40970    0.23060    0.63830    1.000
    C84      C        0.59480    0.08450    0.67640    1.000
    C85      C        0.01810    0.65290    0.44110    1.000
    H57      H        0.01930    0.64450    0.47350    1.000
    C86      C        0.06620    0.61730    0.41083    1.000
    H58      H        0.10120    0.58690    0.42240    1.000
    C87      C        0.06110    0.62800    0.36390    1.000
    C88      C        0.01360    0.67440    0.34840    1.000
    H59      H        0.01090    0.68320    0.31600    1.000
    C89      C        0.97060    0.70720    0.38160    1.000
    H60      H        0.93850    0.73880    0.37110    1.000
    C90      C        0.11040    0.59190    0.32904    1.000
    C91      C        0.12300    0.75378    0.51640    1.000
    H61      H        0.14160    0.75720    0.48440    1.000
    C92      C        0.20270    0.75480    0.55070    1.000
    H62      H        0.27430    0.75930    0.54200    1.000
    C93      C        0.17740    0.74930    0.59750    1.000
    C94      C        0.07000    0.74361    0.60860    1.000
    H63      H        0.04930    0.73990    0.64030    1.000
    C95      C        0.99570    0.74347    0.57288    1.000
    H64      H        0.92310    0.74000    0.58030    1.000
    C96      C        0.26290    0.74903    0.63560    1.000
    C97      C        0.12350    0.65312    0.71395    1.000
    H65      H        0.17000    0.65730    0.68840    1.000
    C98      C        0.05020    0.61369    0.71179    1.000
    H66      H        0.04590    0.59150    0.68510    1.000
    C99      C        0.98110    0.60625    0.74942    1.000
    C100     C        0.99240    0.63956    0.78730    1.000
    H67      H        0.94870    0.63530    0.81380    1.000
    C101     C        0.06710    0.67898    0.78664    1.000
    H68      H        0.07220    0.70200    0.81280    1.000
    C102     C        0.89940    0.56312    0.74811    1.000
    C103     C        0.06980    0.82041    0.78874    1.000
    H69      H        0.07730    0.79840    0.81540    1.000
    C104     C        0.99620    0.85988    0.78985    1.000
    H70      H        0.95530    0.86510    0.81710    1.000
    C105     C        0.98170    0.89223    0.75105    1.000
    C106     C        0.04720    0.88320    0.71338    1.000
    H71      H        0.04110    0.90460    0.68620    1.000
    C107     C        0.11990    0.84400    0.71494    1.000
    H72      H        0.16450    0.83940    0.68880    1.000
    C108     C        0.90010    0.93465    0.75065    1.000
    Co9      Co       0.25522    0.00185    0.18697    1.000
    Co10     Co       0.75427    0.50036    0.81293    1.000
    Co11     Co       0.11313    0.24935    0.96762    1.000
    Co12     Co       0.39543    0.25101    0.97573    1.000
    O39      O        0.25830    0.25041    0.92937    1.000
    O40      O        0.15380    0.18750    0.00973    1.000
    O41      O        0.32730    0.19928    0.02091    1.000
    O42      O        0.53980    0.81132    0.05959    1.000
    O43      O        0.66690    0.83057    0.11198    1.000
    O44      O        0.33910    0.31638    0.00875    1.000
    O45      O        0.16520    0.30441    0.01631    1.000
    O46      O        0.05820    0.31046    0.92668    1.000
    O47      O        0.19000    0.33139    0.87910    1.000
    O48      O        0.13490    0.95577    0.15882    1.000
    O49      O        0.09770    0.90320    0.21887    1.000
    O50      O        0.65350    0.44906    0.84583    1.000
    O51      O        0.60890    0.39567    0.78666    1.000
    O52      O        0.72980    0.25089    0.17761    1.000
    O53      O        0.85480    0.25201    0.12313    1.000
    O54      O        0.35860    0.44630    0.28691    1.000
    O55      O        0.37920    0.45787    0.20999    1.000
    O56      O        0.38360    0.04350    0.21163    1.000
    O57      O        0.35340    0.05633    0.28784    1.000
    N19      N        0.25260    0.04887    0.12527    1.000
    N20      N        0.36690    0.94997    0.15495    1.000
    N21      N        0.24560    0.45192    0.12563    1.000
    N22      N        0.88280    0.45428    0.84116    1.000
    N23      N        0.94900    0.80729    0.08067    1.000
    N24      N        0.47130    0.30301    0.92869    1.000
    N25      N        0.52350    0.25176    0.02698    1.000
    N26      N        0.63320    0.31358    0.25058    1.000
    N27      N        0.63200    0.18870    0.25154    1.000
    C109     C        0.15950    0.06628    0.10764    1.000
    H73      H        0.09630    0.05020    0.11800    1.000
    C110     C        0.15170    0.10634    0.07524    1.000
    H74      H        0.08470    0.11730    0.06330    1.000
    C111     C        0.24510    0.13044    0.06031    1.000
    C112     C        0.33900    0.11190    0.07805    1.000
    H75      H        0.40350    0.12710    0.06820    1.000
    C113     C        0.34090    0.07141    0.11012    1.000
    H76      H        0.40720    0.05920    0.12180    1.000
    C114     C        0.24070    0.17635    0.02713    1.000
    C115     C        0.46260    0.93859    0.17483    1.000
    H77      H        0.48200    0.95560    0.20330    1.000
    C116     C        0.53380    0.90320    0.15546    1.000
    H78      H        0.59930    0.89600    0.17080    1.000
    C117     C        0.50760    0.87883    0.11357    1.000
    C118     C        0.41290    0.89150    0.09216    1.000
    H79      H        0.39270    0.87570    0.06320    1.000
    C119     C        0.34710    0.92770    0.11340    1.000
    H80      H        0.28380    0.93740    0.09730    1.000
    C120     C        0.57880    0.83812    0.09309    1.000
    C121     C        0.33600    0.43442    0.10804    1.000
    H81      H        0.40060    0.44980    0.11860    1.000
    C122     C        0.33950    0.39522    0.07543    1.000
    H82      H        0.40560    0.38380    0.06390    1.000
    C123     C        0.24720    0.37223    0.05931    1.000
    C124     C        0.15280    0.39101    0.07633    1.000
    H83      H        0.08730    0.37690    0.06550    1.000
    C125     C        0.15510    0.43025    0.10897    1.000
    H84      H        0.08990    0.44290    0.12050    1.000
    C126     C        0.24910    0.32668    0.02511    1.000
    C127     C        0.87770    0.43510    0.88460    1.000
    H85      H        0.82220    0.44730    0.90380    1.000
    C128     C        0.94770    0.39840    0.90390    1.000
    H86      H        0.93830    0.38540    0.93480    1.000
    C129     C        0.02970    0.38150    0.87756    1.000
    C130     C        0.04290    0.40310    0.83420    1.000
    H87      H        0.10230    0.39380    0.81610    1.000
    C131     C        0.96870    0.43900    0.81670    1.000
    H88      H        0.97880    0.45330    0.78640    1.000
    C132     C        0.09950    0.33820    0.89600    1.000
    C133     C        0.99520    0.85040    0.06630    1.000
    H89      H        0.99720    0.85620    0.03350    1.000
    C134     C        0.04130    0.88800    0.09500    1.000
    H90      H        0.07280    0.91860    0.08250    1.000
    C135     C        0.03950    0.87880    0.14330    1.000
    C136     C        0.98900    0.83390    0.15980    1.000
    H91      H        0.98520    0.82700    0.19240    1.000
    C137     C        0.94480    0.79980    0.12710    1.000
    H92      H        0.90970    0.76940    0.13830    1.000
    C138     C        0.09480    0.91550    0.17640    1.000
    C139     C        0.51810    0.34710    0.94110    1.000
    H93      H        0.51930    0.35550    0.97350    1.000
    C140     C        0.56620    0.38270    0.91083    1.000
    H94      H        0.60120    0.41310    0.92240    1.000
    C141     C        0.56110    0.37200    0.86390    1.000
    C142     C        0.51360    0.32560    0.84840    1.000
    H95      H        0.51090    0.31680    0.81600    1.000
    C143     C        0.47060    0.29280    0.88160    1.000
    H96      H        0.43850    0.26120    0.87110    1.000
    C144     C        0.61040    0.40810    0.82904    1.000
    C145     C        0.62300    0.24622    0.01640    1.000
    H97      H        0.64160    0.24280    0.98440    1.000
    C146     C        0.70270    0.24520    0.05070    1.000
    H98      H        0.77430    0.24070    0.04200    1.000
    C147     C        0.67740    0.25070    0.09750    1.000
    C148     C        0.57000    0.25639    0.10860    1.000
    H99      H        0.54930    0.26010    0.14030    1.000
    C149     C        0.49570    0.25653    0.07288    1.000
    H100     H        0.42310    0.26000    0.08030    1.000
    C150     C        0.76290    0.25097    0.13560    1.000
    C151     C        0.62350    0.34688    0.21395    1.000
    H101     H        0.67000    0.34270    0.18840    1.000
    C152     C        0.55020    0.38631    0.21179    1.000
    H102     H        0.54590    0.40850    0.18510    1.000
    C153     C        0.48110    0.39375    0.24942    1.000
    C154     C        0.49240    0.36044    0.28730    1.000
    H103     H        0.44870    0.36470    0.31380    1.000
    C155     C        0.56710    0.32102    0.28664    1.000
    H104     H        0.57220    0.29800    0.31280    1.000
    C156     C        0.39940    0.43688    0.24811    1.000
    C157     C        0.56980    0.17959    0.28874    1.000
    H105     H        0.57730    0.20160    0.31540    1.000
    C158     C        0.49620    0.14012    0.28985    1.000
    H106     H        0.45530    0.13490    0.31710    1.000
    C159     C        0.48170    0.10777    0.25105    1.000
    C160     C        0.54720    0.11680    0.21338    1.000
    H107     H        0.54110    0.09540    0.18620    1.000
    C161     C        0.61990    0.15600    0.21494    1.000
    H108     H        0.66450    0.16060    0.18880    1.000
    C162     C        0.40010    0.06535    0.25065    1.000
    Co13     Co       0.24478    0.00185    0.31303    1.000
    Co14     Co       0.74573    0.50036    0.68707    1.000
    Co15     Co       0.38687    0.24935    0.53238    1.000
    Co16     Co       0.10457    0.25101    0.52427    1.000
    O58      O        0.24170    0.25041    0.57063    1.000
    O59      O        0.34620    0.18750    0.49027    1.000
    O60      O        0.17270    0.19928    0.47909    1.000
    O61      O        0.96020    0.81132    0.44041    1.000
    O62      O        0.83310    0.83057    0.38802    1.000
    O63      O        0.16090    0.31638    0.49125    1.000
    O64      O        0.33480    0.30441    0.48369    1.000
    O65      O        0.44180    0.31046    0.57332    1.000
    O66      O        0.31000    0.33139    0.62090    1.000
    O67      O        0.36510    0.95577    0.34118    1.000
    O68      O        0.40230    0.90320    0.28113    1.000
    O69      O        0.84650    0.44906    0.65417    1.000
    O70      O        0.89110    0.39567    0.71334    1.000
    O71      O        0.77020    0.25089    0.32239    1.000
    O72      O        0.64520    0.25201    0.37687    1.000
    O73      O        0.14140    0.44630    0.21309    1.000
    O74      O        0.12080    0.45787    0.29001    1.000
    O75      O        0.11640    0.04350    0.28837    1.000
    O76      O        0.14660    0.05633    0.21216    1.000
    N28      N        0.24740    0.04887    0.37473    1.000
    N29      N        0.13310    0.94997    0.34505    1.000
    N30      N        0.25440    0.45192    0.37437    1.000
    N31      N        0.61720    0.45428    0.65884    1.000
    N32      N        0.55100    0.80729    0.41933    1.000
    N33      N        0.02870    0.30301    0.57131    1.000
    N34      N        0.97650    0.25176    0.47302    1.000
    N35      N        0.86680    0.31358    0.24942    1.000
    N36      N        0.86800    0.18870    0.24846    1.000
    C163     C        0.34050    0.06628    0.39236    1.000
    H109     H        0.40370    0.05020    0.38200    1.000
    C164     C        0.34830    0.10634    0.42476    1.000
    H110     H        0.41530    0.11730    0.43670    1.000
    C165     C        0.25490    0.13044    0.43969    1.000
    C166     C        0.16100    0.11190    0.42195    1.000
    H111     H        0.09650    0.12710    0.43180    1.000
    C167     C        0.15910    0.07141    0.38988    1.000
    H112     H        0.09280    0.05920    0.37820    1.000
    C168     C        0.25930    0.17635    0.47287    1.000
    C169     C        0.03740    0.93859    0.32517    1.000
    H113     H        0.01800    0.95560    0.29670    1.000
    C170     C        0.96620    0.90320    0.34454    1.000
    H114     H        0.90070    0.89600    0.32920    1.000
    C171     C        0.99240    0.87883    0.38643    1.000
    C172     C        0.08710    0.89150    0.40784    1.000
    H115     H        0.10730    0.87570    0.43680    1.000
    C173     C        0.15290    0.92770    0.38660    1.000
    H116     H        0.21620    0.93740    0.40270    1.000
    C174     C        0.92120    0.83812    0.40691    1.000
    C175     C        0.16400    0.43442    0.39196    1.000
    H117     H        0.09940    0.44980    0.38140    1.000
    C176     C        0.16050    0.39522    0.42457    1.000
    H118     H        0.09440    0.38380    0.43610    1.000
    C177     C        0.25280    0.37223    0.44069    1.000
    C178     C        0.34720    0.39101    0.42367    1.000
    H119     H        0.41270    0.37690    0.43450    1.000
    C179     C        0.34490    0.43025    0.39103    1.000
    H120     H        0.41010    0.44290    0.37950    1.000
    C180     C        0.25090    0.32668    0.47489    1.000
    C181     C        0.62230    0.43510    0.61540    1.000
    H121     H        0.67780    0.44730    0.59620    1.000
    C182     C        0.55230    0.39840    0.59610    1.000
    H122     H        0.56170    0.38540    0.56520    1.000
    C183     C        0.47030    0.38150    0.62244    1.000
    C184     C        0.45710    0.40310    0.66580    1.000
    H123     H        0.39770    0.39380    0.68390    1.000
    C185     C        0.53130    0.43900    0.68330    1.000
    H124     H        0.52120    0.45330    0.71360    1.000
    C186     C        0.40050    0.33820    0.60400    1.000
    C187     C        0.50480    0.85040    0.43370    1.000
    H125     H        0.50280    0.85620    0.46650    1.000
    C188     C        0.45870    0.88800    0.40500    1.000
    H126     H        0.42720    0.91860    0.41750    1.000
    C189     C        0.46050    0.87880    0.35670    1.000
    C190     C        0.51100    0.83390    0.34020    1.000
    H127     H        0.51480    0.82700    0.30760    1.000
    C191     C        0.55520    0.79980    0.37290    1.000
    H128     H        0.59030    0.76940    0.36170    1.000
    C192     C        0.40520    0.91550    0.32360    1.000
    C193     C        0.98190    0.34710    0.55890    1.000
    H129     H        0.98070    0.35550    0.52650    1.000
    C194     C        0.93380    0.38270    0.58917    1.000
    H130     H        0.89880    0.41310    0.57760    1.000
    C195     C        0.93890    0.37200    0.63610    1.000
    C196     C        0.98640    0.32560    0.65160    1.000
    H131     H        0.98910    0.31680    0.68400    1.000
    C197     C        0.02940    0.29280    0.61840    1.000
    H132     H        0.06150    0.26120    0.62890    1.000
    C198     C        0.88960    0.40810    0.67096    1.000
    C199     C        0.87700    0.24622    0.48360    1.000
    H133     H        0.85840    0.24280    0.51560    1.000
    C200     C        0.79730    0.24520    0.44930    1.000
    H134     H        0.72570    0.24070    0.45800    1.000
    C201     C        0.82260    0.25070    0.40250    1.000
    C202     C        0.93000    0.25639    0.39140    1.000
    H135     H        0.95070    0.26010    0.35970    1.000
    C203     C        0.00430    0.25653    0.42712    1.000
    H136     H        0.07690    0.26000    0.41970    1.000
    C204     C        0.73710    0.25097    0.36440    1.000
    C205     C        0.87650    0.34688    0.28605    1.000
    H137     H        0.83000    0.34270    0.31160    1.000
    C206     C        0.94980    0.38631    0.28821    1.000
    H138     H        0.95410    0.40850    0.31490    1.000
    C207     C        0.01890    0.39375    0.25058    1.000
    C208     C        0.00760    0.36044    0.21270    1.000
    H139     H        0.05130    0.36470    0.18620    1.000
    C209     C        0.93290    0.32102    0.21336    1.000
    H140     H        0.92780    0.29800    0.18720    1.000
    C210     C        0.10060    0.43688    0.25189    1.000
    C211     C        0.93020    0.17959    0.21126    1.000
    H141     H        0.92270    0.20160    0.18460    1.000
    C212     C        0.00380    0.14012    0.21015    1.000
    H142     H        0.04470    0.13490    0.18290    1.000
    C213     C        0.01830    0.10777    0.24895    1.000
    C214     C        0.95280    0.11680    0.28662    1.000
    H143     H        0.95890    0.09540    0.31380    1.000
    C215     C        0.88010    0.15600    0.28506    1.000
    H144     H        0.83550    0.16060    0.31120    1.000
    C216     C        0.09990    0.06535    0.24935    1.000
    Co17     Co       0.25000    0.74901    0.75000    1.000
    Co18     Co       0.75000    0.25099    0.25000    1.000
    O77      O        0.75000    0.04243    0.75000    1.000
    O78      O        0.25000    0.95757    0.25000    1.000
    O79      O        0.25000    0.54577    0.25000    1.000
    O80      O        0.75000    0.45423    0.75000    1.000
