# CIF file generated by openbabel 3.1.0, see https://openbabel.org
data_I
_chemical_name_common 'image0'
_cell_length_a 41.702
_cell_length_b 9.8988
_cell_length_c 18.444
_cell_angle_alpha 90
_cell_angle_beta 103.422
_cell_angle_gamma 90
_space_group_name_H-M_alt 'P 1'
_space_group_name_Hall 'P 1'
loop_
    _symmetry_equiv_pos_as_xyz
    x,y,z
loop_
    _atom_site_label
    _atom_site_type_symbol
    _atom_site_fract_x
    _atom_site_fract_y
    _atom_site_fract_z
    _atom_site_occupancy
    Cd1      Cd       0.66146    0.32227    0.45308    1.000
    O1       O        0.66430    0.16520    0.37040    1.000
    O2       O        0.71597    0.11130    0.42080    1.000
    O3       O        0.67050    0.81070    0.05250    1.000
    O4       O        0.72510    0.78660    0.09350    1.000
    O5       O        0.71262    0.41750    0.45390    1.000
    O6       O        0.68049    0.53060    0.51230    1.000
    C1       C        0.69100    0.11220    0.36950    1.000
    C2       C        0.69350    0.03780    0.30050    1.000
    C3       C        0.72230    0.98340    0.29160    1.000
    H1       H        0.74170    0.99150    0.33040    1.000
    C4       C        0.72370    0.91560    0.22570    1.000
    H2       H        0.74400    0.87860    0.22030    1.000
    C5       C        0.69630    0.90180    0.16920    1.000
    C6       C        0.66670    0.95530    0.17830    1.000
    H3       H        0.64740    0.94540    0.13980    1.000
    C7       C        0.66530    0.02250    0.24250    1.000
    H4       H        0.64490    0.05900    0.24780    1.000
    C8       C        0.69770    0.82660    0.09960    1.000
    C9       C        0.70680    0.52390    0.48870    1.000
    C10      C        0.72910    0.64000    0.49490    1.000
    C11      C        0.72600    0.74910    0.54140    1.000
    H5       H        0.70980    0.74750    0.57020    1.000
    C12      C        0.74670    0.85880    0.54480    1.000
    H6       H        0.74430    0.93430    0.57490    1.000
    N1       N        0.60740    0.38760    0.45930    1.000
    C13      C        0.59310    0.49890    0.41840    1.000
    H7       H        0.60330    0.53860    0.38260    1.000
    C14      C        0.56380    0.55190    0.42980    1.000
    H8       H        0.55400    0.62800    0.40180    1.000
    C15      C        0.54880    0.49370    0.48220    1.000
    C16      C        0.56320    0.38250    0.52310    1.000
    H9       H        0.55300    0.34270    0.55890    1.000
    C17      C        0.59250    0.32940    0.51170    1.000
    H10      H        0.60230    0.25330    0.53970    1.000
    N2       N        0.38870    0.68750    0.53340    1.000
    C18      C        0.40690    0.57160    0.52870    1.000
    H11      H        0.39660    0.48550    0.52520    1.000
    C19      C        0.44020    0.58170    0.52920    1.000
    H12      H        0.45270    0.50240    0.52600    1.000
    C20      C        0.45530    0.70770    0.53430    1.000
    C21      C        0.43710    0.82360    0.53900    1.000
    H13      H        0.44740    0.90970    0.54250    1.000
    C22      C        0.40380    0.81350    0.53850    1.000
    H14      H        0.39130    0.89280    0.54170    1.000
    F1       F        0.47330    0.92200    0.40900    1.000
    C23      C        0.51540    0.55700    0.49370    1.000
    H15      H        0.49690    0.49300    0.47340    1.000
    C24      C        0.50480    0.70200    0.46510    1.000
    H16      H        0.52450    0.76080    0.46610    1.000
    C25      C        0.49130    0.72400    0.53480    1.000
    H17      H        0.50020    0.80920    0.56060    1.000
    C26      C        0.51380    0.59700    0.57040    1.000
    H18      H        0.50050    0.53070    0.59180    1.000
    C27      C        0.48190    0.70100    0.38920    1.000
    C28      C        0.46720    0.82700    0.37000    1.000
    C29      C        0.44240    0.84000    0.30500    1.000
    H19      H        0.43240    0.92570    0.29230    1.000
    C30      C        0.43230    0.72900    0.26020    1.000
    H20      H        0.41530    0.73790    0.21610    1.000
    C31      C        0.44690    0.60400    0.27940    1.000
    H21      H        0.44000    0.52730    0.24850    1.000
    C32      C        0.47170    0.59000    0.34390    1.000
    H22      H        0.48170    0.50440    0.35710    1.000
    F2       F        0.51960    0.57400    0.73110    1.000
    C33      C        0.54180    0.65300    0.63110    1.000
    C34      C        0.54320    0.63100    0.70620    1.000
    C35      C        0.56840    0.68800    0.76020    1.000
    H23      H        0.56930    0.67260    0.81150    1.000
    C36      C        0.59230    0.76600    0.73910    1.000
    H24      H        0.60960    0.80530    0.77600    1.000
    C37      C        0.59090    0.78800    0.66400    1.000
    H25      H        0.60720    0.84220    0.64950    1.000
    C38      C        0.56570    0.73100    0.61000    1.000
    H26      H        0.56470    0.74630    0.55860    1.000
    Cd2      Cd       0.16146    0.82227    0.45308    1.000
    O7       O        0.16430    0.66520    0.37040    1.000
    O8       O        0.21597    0.61130    0.42080    1.000
    O9       O        0.17050    0.31070    0.05250    1.000
    O10      O        0.22510    0.28660    0.09350    1.000
    O11      O        0.21262    0.91750    0.45390    1.000
    O12      O        0.18049    0.03060    0.51230    1.000
    C39      C        0.19100    0.61220    0.36950    1.000
    C40      C        0.19350    0.53780    0.30050    1.000
    C41      C        0.22230    0.48340    0.29160    1.000
    H27      H        0.24170    0.49150    0.33040    1.000
    C42      C        0.22370    0.41560    0.22570    1.000
    H28      H        0.24400    0.37860    0.22030    1.000
    C43      C        0.19630    0.40180    0.16920    1.000
    C44      C        0.16670    0.45530    0.17830    1.000
    H29      H        0.14740    0.44540    0.13980    1.000
    C45      C        0.16530    0.52250    0.24250    1.000
    H30      H        0.14490    0.55900    0.24780    1.000
    C46      C        0.19770    0.32660    0.09960    1.000
    C47      C        0.20680    0.02390    0.48870    1.000
    C48      C        0.22910    0.14000    0.49490    1.000
    C49      C        0.22600    0.24910    0.54140    1.000
    H31      H        0.20980    0.24750    0.57020    1.000
    C50      C        0.24670    0.35880    0.54480    1.000
    H32      H        0.24430    0.43430    0.57490    1.000
    N3       N        0.10740    0.88760    0.45930    1.000
    C51      C        0.09310    0.99890    0.41840    1.000
    H33      H        0.10330    0.03860    0.38260    1.000
    C52      C        0.06380    0.05190    0.42980    1.000
    H34      H        0.05400    0.12800    0.40180    1.000
    C53      C        0.04880    0.99370    0.48220    1.000
    C54      C        0.06320    0.88250    0.52310    1.000
    H35      H        0.05300    0.84270    0.55890    1.000
    C55      C        0.09250    0.82940    0.51170    1.000
    H36      H        0.10230    0.75330    0.53970    1.000
    N4       N        0.88870    0.18750    0.53340    1.000
    C56      C        0.90690    0.07160    0.52870    1.000
    H37      H        0.89660    0.98550    0.52520    1.000
    C57      C        0.94020    0.08170    0.52920    1.000
    H38      H        0.95270    0.00240    0.52600    1.000
    C58      C        0.95530    0.20770    0.53430    1.000
    C59      C        0.93710    0.32360    0.53900    1.000
    H39      H        0.94740    0.40970    0.54250    1.000
    C60      C        0.90380    0.31350    0.53850    1.000
    H40      H        0.89130    0.39280    0.54170    1.000
    F3       F        0.97330    0.42200    0.40900    1.000
    C61      C        0.01540    0.05700    0.49370    1.000
    H41      H        0.99690    0.99300    0.47340    1.000
    C62      C        0.00480    0.20200    0.46510    1.000
    H42      H        0.02450    0.26080    0.46610    1.000
    C63      C        0.99130    0.22400    0.53480    1.000
    H43      H        0.00020    0.30920    0.56060    1.000
    C64      C        0.01380    0.09700    0.57040    1.000
    H44      H        0.00050    0.03070    0.59180    1.000
    C65      C        0.98190    0.20100    0.38920    1.000
    C66      C        0.96720    0.32700    0.37000    1.000
    C67      C        0.94240    0.34000    0.30500    1.000
    H45      H        0.93240    0.42570    0.29230    1.000
    C68      C        0.93230    0.22900    0.26020    1.000
    H46      H        0.91530    0.23790    0.21610    1.000
    C69      C        0.94690    0.10400    0.27940    1.000
    H47      H        0.94000    0.02730    0.24850    1.000
    C70      C        0.97170    0.09000    0.34390    1.000
    H48      H        0.98170    0.00440    0.35710    1.000
    F4       F        0.01960    0.07400    0.73110    1.000
    C71      C        0.04180    0.15300    0.63110    1.000
    C72      C        0.04320    0.13100    0.70620    1.000
    C73      C        0.06840    0.18800    0.76020    1.000
    H49      H        0.06930    0.17260    0.81150    1.000
    C74      C        0.09230    0.26600    0.73910    1.000
    H50      H        0.10960    0.30530    0.77600    1.000
    C75      C        0.09090    0.28800    0.66400    1.000
    H51      H        0.10720    0.34220    0.64950    1.000
    C76      C        0.06570    0.23100    0.61000    1.000
    H52      H        0.06470    0.24630    0.55860    1.000
    Cd3      Cd       0.33854    0.32227    0.04692    1.000
    O13      O        0.33570    0.16520    0.12960    1.000
    O14      O        0.28403    0.11130    0.07920    1.000
    O15      O        0.32950    0.81070    0.44750    1.000
    O16      O        0.27490    0.78660    0.40650    1.000
    O17      O        0.28738    0.41750    0.04610    1.000
    O18      O        0.31951    0.53060    0.98770    1.000
    C77      C        0.30900    0.11220    0.13050    1.000
    C78      C        0.30650    0.03780    0.19950    1.000
    C79      C        0.27770    0.98340    0.20840    1.000
    H53      H        0.25830    0.99150    0.16960    1.000
    C80      C        0.27630    0.91560    0.27430    1.000
    H54      H        0.25600    0.87860    0.27970    1.000
    C81      C        0.30370    0.90180    0.33080    1.000
    C82      C        0.33330    0.95530    0.32170    1.000
    H55      H        0.35260    0.94540    0.36020    1.000
    C83      C        0.33470    0.02250    0.25750    1.000
    H56      H        0.35510    0.05900    0.25220    1.000
    C84      C        0.30230    0.82660    0.40040    1.000
    C85      C        0.29320    0.52390    0.01130    1.000
    C86      C        0.27090    0.64000    0.00510    1.000
    C87      C        0.27400    0.74910    0.95860    1.000
    H57      H        0.29020    0.74750    0.92980    1.000
    C88      C        0.25330    0.85880    0.95520    1.000
    H58      H        0.25570    0.93430    0.92510    1.000
    N5       N        0.39260    0.38760    0.04070    1.000
    C89      C        0.40690    0.49890    0.08160    1.000
    H59      H        0.39670    0.53860    0.11740    1.000
    C90      C        0.43620    0.55190    0.07020    1.000
    H60      H        0.44600    0.62800    0.09820    1.000
    C91      C        0.45120    0.49370    0.01780    1.000
    C92      C        0.43680    0.38250    0.97690    1.000
    H61      H        0.44700    0.34270    0.94110    1.000
    C93      C        0.40750    0.32940    0.98830    1.000
    H62      H        0.39770    0.25330    0.96030    1.000
    N6       N        0.61130    0.68750    0.96660    1.000
    C94      C        0.59310    0.57160    0.97130    1.000
    H63      H        0.60340    0.48550    0.97480    1.000
    C95      C        0.55980    0.58170    0.97080    1.000
    H64      H        0.54730    0.50240    0.97400    1.000
    C96      C        0.54470    0.70770    0.96570    1.000
    C97      C        0.56290    0.82360    0.96100    1.000
    H65      H        0.55260    0.90970    0.95750    1.000
    C98      C        0.59620    0.81350    0.96150    1.000
    H66      H        0.60870    0.89280    0.95830    1.000
    F5       F        0.52670    0.92200    0.09100    1.000
    C99      C        0.48460    0.55700    0.00630    1.000
    H67      H        0.50310    0.49300    0.02660    1.000
    C100     C        0.49520    0.70200    0.03490    1.000
    H68      H        0.47550    0.76080    0.03390    1.000
    C101     C        0.50870    0.72400    0.96520    1.000
    H69      H        0.49980    0.80920    0.93940    1.000
    C102     C        0.48620    0.59700    0.92960    1.000
    H70      H        0.49950    0.53070    0.90820    1.000
    C103     C        0.51810    0.70100    0.11080    1.000
    C104     C        0.53280    0.82700    0.13000    1.000
    C105     C        0.55760    0.84000    0.19500    1.000
    H71      H        0.56760    0.92570    0.20770    1.000
    C106     C        0.56770    0.72900    0.23980    1.000
    H72      H        0.58470    0.73790    0.28390    1.000
    C107     C        0.55310    0.60400    0.22060    1.000
    H73      H        0.56000    0.52730    0.25150    1.000
    C108     C        0.52830    0.59000    0.15610    1.000
    H74      H        0.51830    0.50440    0.14290    1.000
    F6       F        0.48040    0.57400    0.76890    1.000
    C109     C        0.45820    0.65300    0.86890    1.000
    C110     C        0.45680    0.63100    0.79380    1.000
    C111     C        0.43160    0.68800    0.73980    1.000
    H75      H        0.43070    0.67260    0.68850    1.000
    C112     C        0.40770    0.76600    0.76090    1.000
    H76      H        0.39040    0.80530    0.72400    1.000
    C113     C        0.40910    0.78800    0.83600    1.000
    H77      H        0.39280    0.84220    0.85050    1.000
    C114     C        0.43430    0.73100    0.89000    1.000
    H78      H        0.43530    0.74630    0.94140    1.000
    Cd4      Cd       0.83854    0.82227    0.04692    1.000
    O19      O        0.83570    0.66520    0.12960    1.000
    O20      O        0.78403    0.61130    0.07920    1.000
    O21      O        0.82950    0.31070    0.44750    1.000
    O22      O        0.77490    0.28660    0.40650    1.000
    O23      O        0.78738    0.91750    0.04610    1.000
    O24      O        0.81951    0.03060    0.98770    1.000
    C115     C        0.80900    0.61220    0.13050    1.000
    C116     C        0.80650    0.53780    0.19950    1.000
    C117     C        0.77770    0.48340    0.20840    1.000
    H79      H        0.75830    0.49150    0.16960    1.000
    C118     C        0.77630    0.41560    0.27430    1.000
    H80      H        0.75600    0.37860    0.27970    1.000
    C119     C        0.80370    0.40180    0.33080    1.000
    C120     C        0.83330    0.45530    0.32170    1.000
    H81      H        0.85260    0.44540    0.36020    1.000
    C121     C        0.83470    0.52250    0.25750    1.000
    H82      H        0.85510    0.55900    0.25220    1.000
    C122     C        0.80230    0.32660    0.40040    1.000
    C123     C        0.79320    0.02390    0.01130    1.000
    C124     C        0.77090    0.14000    0.00510    1.000
    C125     C        0.77400    0.24910    0.95860    1.000
    H83      H        0.79020    0.24750    0.92980    1.000
    C126     C        0.75330    0.35880    0.95520    1.000
    H84      H        0.75570    0.43430    0.92510    1.000
    N7       N        0.89260    0.88760    0.04070    1.000
    C127     C        0.90690    0.99890    0.08160    1.000
    H85      H        0.89670    0.03860    0.11740    1.000
    C128     C        0.93620    0.05190    0.07020    1.000
    H86      H        0.94600    0.12800    0.09820    1.000
    C129     C        0.95120    0.99370    0.01780    1.000
    C130     C        0.93680    0.88250    0.97690    1.000
    H87      H        0.94700    0.84270    0.94110    1.000
    C131     C        0.90750    0.82940    0.98830    1.000
    H88      H        0.89770    0.75330    0.96030    1.000
    N8       N        0.11130    0.18750    0.96660    1.000
    C132     C        0.09310    0.07160    0.97130    1.000
    H89      H        0.10340    0.98550    0.97480    1.000
    C133     C        0.05980    0.08170    0.97080    1.000
    H90      H        0.04730    0.00240    0.97400    1.000
    C134     C        0.04470    0.20770    0.96570    1.000
    C135     C        0.06290    0.32360    0.96100    1.000
    H91      H        0.05260    0.40970    0.95750    1.000
    C136     C        0.09620    0.31350    0.96150    1.000
    H92      H        0.10870    0.39280    0.95830    1.000
    F7       F        0.02670    0.42200    0.09100    1.000
    C137     C        0.98460    0.05700    0.00630    1.000
    H93      H        0.00310    0.99300    0.02660    1.000
    C138     C        0.99520    0.20200    0.03490    1.000
    H94      H        0.97550    0.26080    0.03390    1.000
    C139     C        0.00870    0.22400    0.96520    1.000
    H95      H        0.99980    0.30920    0.93940    1.000
    C140     C        0.98620    0.09700    0.92960    1.000
    H96      H        0.99950    0.03070    0.90820    1.000
    C141     C        0.01810    0.20100    0.11080    1.000
    C142     C        0.03280    0.32700    0.13000    1.000
    C143     C        0.05760    0.34000    0.19500    1.000
    H97      H        0.06760    0.42570    0.20770    1.000
    C144     C        0.06770    0.22900    0.23980    1.000
    H98      H        0.08470    0.23790    0.28390    1.000
    C145     C        0.05310    0.10400    0.22060    1.000
    H99      H        0.06000    0.02730    0.25150    1.000
    C146     C        0.02830    0.09000    0.15610    1.000
    H100     H        0.01830    0.00440    0.14290    1.000
    F8       F        0.98040    0.07400    0.76890    1.000
    C147     C        0.95820    0.15300    0.86890    1.000
    C148     C        0.95680    0.13100    0.79380    1.000
    C149     C        0.93160    0.18800    0.73980    1.000
    H101     H        0.93070    0.17260    0.68850    1.000
    C150     C        0.90770    0.26600    0.76090    1.000
    H102     H        0.89040    0.30530    0.72400    1.000
    C151     C        0.90910    0.28800    0.83600    1.000
    H103     H        0.89280    0.34220    0.85050    1.000
    C152     C        0.93430    0.23100    0.89000    1.000
    H104     H        0.93530    0.24630    0.94140    1.000
    Cd5      Cd       0.33854    0.67773    0.54692    1.000
    O25      O        0.33570    0.83480    0.62960    1.000
    O26      O        0.28403    0.88870    0.57920    1.000
    O27      O        0.32950    0.18930    0.94750    1.000
    O28      O        0.27490    0.21340    0.90650    1.000
    O29      O        0.28738    0.58250    0.54610    1.000
    O30      O        0.31951    0.46940    0.48770    1.000
    C153     C        0.30900    0.88780    0.63050    1.000
    C154     C        0.30650    0.96220    0.69950    1.000
    C155     C        0.27770    0.01660    0.70840    1.000
    H105     H        0.25830    0.00850    0.66960    1.000
    C156     C        0.27630    0.08440    0.77430    1.000
    H106     H        0.25600    0.12140    0.77970    1.000
    C157     C        0.30370    0.09820    0.83080    1.000
    C158     C        0.33330    0.04470    0.82170    1.000
    H107     H        0.35260    0.05460    0.86020    1.000
    C159     C        0.33470    0.97750    0.75750    1.000
    H108     H        0.35510    0.94100    0.75220    1.000
    C160     C        0.30230    0.17340    0.90040    1.000
    C161     C        0.29320    0.47610    0.51130    1.000
    C162     C        0.27090    0.36000    0.50510    1.000
    C163     C        0.27400    0.25090    0.45860    1.000
    H109     H        0.29020    0.25250    0.42980    1.000
    C164     C        0.25330    0.14120    0.45520    1.000
    H110     H        0.25570    0.06570    0.42510    1.000
    N9       N        0.39260    0.61240    0.54070    1.000
    C165     C        0.40690    0.50110    0.58160    1.000
    H111     H        0.39670    0.46140    0.61740    1.000
    C166     C        0.43620    0.44810    0.57020    1.000
    H112     H        0.44600    0.37200    0.59820    1.000
    C167     C        0.45120    0.50630    0.51780    1.000
    C168     C        0.43680    0.61750    0.47690    1.000
    H113     H        0.44700    0.65730    0.44110    1.000
    C169     C        0.40750    0.67060    0.48830    1.000
    H114     H        0.39770    0.74670    0.46030    1.000
    N10      N        0.61130    0.31250    0.46660    1.000
    C170     C        0.59310    0.42840    0.47130    1.000
    H115     H        0.60340    0.51450    0.47480    1.000
    C171     C        0.55980    0.41830    0.47080    1.000
    H116     H        0.54730    0.49760    0.47400    1.000
    C172     C        0.54470    0.29230    0.46570    1.000
    C173     C        0.56290    0.17640    0.46100    1.000
    H117     H        0.55260    0.09030    0.45750    1.000
    C174     C        0.59620    0.18650    0.46150    1.000
    H118     H        0.60870    0.10720    0.45830    1.000
    F9       F        0.52670    0.07800    0.59100    1.000
    C175     C        0.48460    0.44300    0.50630    1.000
    H119     H        0.50310    0.50700    0.52660    1.000
    C176     C        0.49520    0.29800    0.53490    1.000
    H120     H        0.47550    0.23920    0.53390    1.000
    C177     C        0.50870    0.27600    0.46520    1.000
    H121     H        0.49980    0.19080    0.43940    1.000
    C178     C        0.48620    0.40300    0.42960    1.000
    H122     H        0.49950    0.46930    0.40820    1.000
    C179     C        0.51810    0.29900    0.61080    1.000
    C180     C        0.53280    0.17300    0.63000    1.000
    C181     C        0.55760    0.16000    0.69500    1.000
    H123     H        0.56760    0.07430    0.70770    1.000
    C182     C        0.56770    0.27100    0.73980    1.000
    H124     H        0.58470    0.26210    0.78390    1.000
    C183     C        0.55310    0.39600    0.72060    1.000
    H125     H        0.56000    0.47270    0.75150    1.000
    C184     C        0.52830    0.41000    0.65610    1.000
    H126     H        0.51830    0.49560    0.64290    1.000
    F10      F        0.48040    0.42600    0.26890    1.000
    C185     C        0.45820    0.34700    0.36890    1.000
    C186     C        0.45680    0.36900    0.29380    1.000
    C187     C        0.43160    0.31200    0.23980    1.000
    H127     H        0.43070    0.32740    0.18850    1.000
    C188     C        0.40770    0.23400    0.26090    1.000
    H128     H        0.39040    0.19470    0.22400    1.000
    C189     C        0.40910    0.21200    0.33600    1.000
    H129     H        0.39280    0.15780    0.35050    1.000
    C190     C        0.43430    0.26900    0.39000    1.000
    H130     H        0.43530    0.25370    0.44140    1.000
    Cd6      Cd       0.83854    0.17773    0.54692    1.000
    O31      O        0.83570    0.33480    0.62960    1.000
    O32      O        0.78403    0.38870    0.57920    1.000
    O33      O        0.82950    0.68930    0.94750    1.000
    O34      O        0.77490    0.71340    0.90650    1.000
    O35      O        0.78738    0.08250    0.54610    1.000
    O36      O        0.81951    0.96940    0.48770    1.000
    C191     C        0.80900    0.38780    0.63050    1.000
    C192     C        0.80650    0.46220    0.69950    1.000
    C193     C        0.77770    0.51660    0.70840    1.000
    H131     H        0.75830    0.50850    0.66960    1.000
    C194     C        0.77630    0.58440    0.77430    1.000
    H132     H        0.75600    0.62140    0.77970    1.000
    C195     C        0.80370    0.59820    0.83080    1.000
    C196     C        0.83330    0.54470    0.82170    1.000
    H133     H        0.85260    0.55460    0.86020    1.000
    C197     C        0.83470    0.47750    0.75750    1.000
    H134     H        0.85510    0.44100    0.75220    1.000
    C198     C        0.80230    0.67340    0.90040    1.000
    C199     C        0.79320    0.97610    0.51130    1.000
    C200     C        0.77090    0.86000    0.50510    1.000
    C201     C        0.77400    0.75090    0.45860    1.000
    H135     H        0.79020    0.75250    0.42980    1.000
    C202     C        0.75330    0.64120    0.45520    1.000
    H136     H        0.75570    0.56570    0.42510    1.000
    N11      N        0.89260    0.11240    0.54070    1.000
    C203     C        0.90690    0.00110    0.58160    1.000
    H137     H        0.89670    0.96140    0.61740    1.000
    C204     C        0.93620    0.94810    0.57020    1.000
    H138     H        0.94600    0.87200    0.59820    1.000
    C205     C        0.95120    0.00630    0.51780    1.000
    C206     C        0.93680    0.11750    0.47690    1.000
    H139     H        0.94700    0.15730    0.44110    1.000
    C207     C        0.90750    0.17060    0.48830    1.000
    H140     H        0.89770    0.24670    0.46030    1.000
    N12      N        0.11130    0.81250    0.46660    1.000
    C208     C        0.09310    0.92840    0.47130    1.000
    H141     H        0.10340    0.01450    0.47480    1.000
    C209     C        0.05980    0.91830    0.47080    1.000
    H142     H        0.04730    0.99760    0.47400    1.000
    C210     C        0.04470    0.79230    0.46570    1.000
    C211     C        0.06290    0.67640    0.46100    1.000
    H143     H        0.05260    0.59030    0.45750    1.000
    C212     C        0.09620    0.68650    0.46150    1.000
    H144     H        0.10870    0.60720    0.45830    1.000
    F11      F        0.02670    0.57800    0.59100    1.000
    C213     C        0.98460    0.94300    0.50630    1.000
    H145     H        0.00310    0.00700    0.52660    1.000
    C214     C        0.99520    0.79800    0.53490    1.000
    H146     H        0.97550    0.73920    0.53390    1.000
    C215     C        0.00870    0.77600    0.46520    1.000
    H147     H        0.99980    0.69080    0.43940    1.000
    C216     C        0.98620    0.90300    0.42960    1.000
    H148     H        0.99950    0.96930    0.40820    1.000
    C217     C        0.01810    0.79900    0.61080    1.000
    C218     C        0.03280    0.67300    0.63000    1.000
    C219     C        0.05760    0.66000    0.69500    1.000
    H149     H        0.06760    0.57430    0.70770    1.000
    C220     C        0.06770    0.77100    0.73980    1.000
    H150     H        0.08470    0.76210    0.78390    1.000
    C221     C        0.05310    0.89600    0.72060    1.000
    H151     H        0.06000    0.97270    0.75150    1.000
    C222     C        0.02830    0.91000    0.65610    1.000
    H152     H        0.01830    0.99560    0.64290    1.000
    F12      F        0.98040    0.92600    0.26890    1.000
    C223     C        0.95820    0.84700    0.36890    1.000
    C224     C        0.95680    0.86900    0.29380    1.000
    C225     C        0.93160    0.81200    0.23980    1.000
    H153     H        0.93070    0.82740    0.18850    1.000
    C226     C        0.90770    0.73400    0.26090    1.000
    H154     H        0.89040    0.69470    0.22400    1.000
    C227     C        0.90910    0.71200    0.33600    1.000
    H155     H        0.89280    0.65780    0.35050    1.000
    C228     C        0.93430    0.76900    0.39000    1.000
    H156     H        0.93530    0.75370    0.44140    1.000
    Cd7      Cd       0.66146    0.67773    0.95308    1.000
    O37      O        0.66430    0.83480    0.87040    1.000
    O38      O        0.71597    0.88870    0.92080    1.000
    O39      O        0.67050    0.18930    0.55250    1.000
    O40      O        0.72510    0.21340    0.59350    1.000
    O41      O        0.71262    0.58250    0.95390    1.000
    O42      O        0.68049    0.46940    0.01230    1.000
    C229     C        0.69100    0.88780    0.86950    1.000
    C230     C        0.69350    0.96220    0.80050    1.000
    C231     C        0.72230    0.01660    0.79160    1.000
    H157     H        0.74170    0.00850    0.83040    1.000
    C232     C        0.72370    0.08440    0.72570    1.000
    H158     H        0.74400    0.12140    0.72030    1.000
    C233     C        0.69630    0.09820    0.66920    1.000
    C234     C        0.66670    0.04470    0.67830    1.000
    H159     H        0.64740    0.05460    0.63980    1.000
    C235     C        0.66530    0.97750    0.74250    1.000
    H160     H        0.64490    0.94100    0.74780    1.000
    C236     C        0.69770    0.17340    0.59960    1.000
    C237     C        0.70680    0.47610    0.98870    1.000
    C238     C        0.72910    0.36000    0.99490    1.000
    C239     C        0.72600    0.25090    0.04140    1.000
    H161     H        0.70980    0.25250    0.07020    1.000
    C240     C        0.74670    0.14120    0.04480    1.000
    H162     H        0.74430    0.06570    0.07490    1.000
    N13      N        0.60740    0.61240    0.95930    1.000
    C241     C        0.59310    0.50110    0.91840    1.000
    H163     H        0.60330    0.46140    0.88260    1.000
    C242     C        0.56380    0.44810    0.92980    1.000
    H164     H        0.55400    0.37200    0.90180    1.000
    C243     C        0.54880    0.50630    0.98220    1.000
    C244     C        0.56320    0.61750    0.02310    1.000
    H165     H        0.55300    0.65730    0.05890    1.000
    C245     C        0.59250    0.67060    0.01170    1.000
    H166     H        0.60230    0.74670    0.03970    1.000
    N14      N        0.38870    0.31250    0.03340    1.000
    C246     C        0.40690    0.42840    0.02870    1.000
    H167     H        0.39660    0.51450    0.02520    1.000
    C247     C        0.44020    0.41830    0.02920    1.000
    H168     H        0.45270    0.49760    0.02600    1.000
    C248     C        0.45530    0.29230    0.03430    1.000
    C249     C        0.43710    0.17640    0.03900    1.000
    H169     H        0.44740    0.09030    0.04250    1.000
    C250     C        0.40380    0.18650    0.03850    1.000
    H170     H        0.39130    0.10720    0.04170    1.000
    F13      F        0.47330    0.07800    0.90900    1.000
    C251     C        0.51540    0.44300    0.99370    1.000
    H171     H        0.49690    0.50700    0.97340    1.000
    C252     C        0.50480    0.29800    0.96510    1.000
    H172     H        0.52450    0.23920    0.96610    1.000
    C253     C        0.49130    0.27600    0.03480    1.000
    H173     H        0.50020    0.19080    0.06060    1.000
    C254     C        0.51380    0.40300    0.07040    1.000
    H174     H        0.50050    0.46930    0.09180    1.000
    C255     C        0.48190    0.29900    0.88920    1.000
    C256     C        0.46720    0.17300    0.87000    1.000
    C257     C        0.44240    0.16000    0.80500    1.000
    H175     H        0.43240    0.07430    0.79230    1.000
    C258     C        0.43230    0.27100    0.76020    1.000
    H176     H        0.41530    0.26210    0.71610    1.000
    C259     C        0.44690    0.39600    0.77940    1.000
    H177     H        0.44000    0.47270    0.74850    1.000
    C260     C        0.47170    0.41000    0.84390    1.000
    H178     H        0.48170    0.49560    0.85710    1.000
    F14      F        0.51960    0.42600    0.23110    1.000
    C261     C        0.54180    0.34700    0.13110    1.000
    C262     C        0.54320    0.36900    0.20620    1.000
    C263     C        0.56840    0.31200    0.26020    1.000
    H179     H        0.56930    0.32740    0.31150    1.000
    C264     C        0.59230    0.23400    0.23910    1.000
    H180     H        0.60960    0.19470    0.27600    1.000
    C265     C        0.59090    0.21200    0.16400    1.000
    H181     H        0.60720    0.15780    0.14950    1.000
    C266     C        0.56570    0.26900    0.11000    1.000
    H182     H        0.56470    0.25370    0.05860    1.000
    Cd8      Cd       0.16146    0.17773    0.95308    1.000
    O43      O        0.16430    0.33480    0.87040    1.000
    O44      O        0.21597    0.38870    0.92080    1.000
    O45      O        0.17050    0.68930    0.55250    1.000
    O46      O        0.22510    0.71340    0.59350    1.000
    O47      O        0.21262    0.08250    0.95390    1.000
    O48      O        0.18049    0.96940    0.01230    1.000
    C267     C        0.19100    0.38780    0.86950    1.000
    C268     C        0.19350    0.46220    0.80050    1.000
    C269     C        0.22230    0.51660    0.79160    1.000
    H183     H        0.24170    0.50850    0.83040    1.000
    C270     C        0.22370    0.58440    0.72570    1.000
    H184     H        0.24400    0.62140    0.72030    1.000
    C271     C        0.19630    0.59820    0.66920    1.000
    C272     C        0.16670    0.54470    0.67830    1.000
    H185     H        0.14740    0.55460    0.63980    1.000
    C273     C        0.16530    0.47750    0.74250    1.000
    H186     H        0.14490    0.44100    0.74780    1.000
    C274     C        0.19770    0.67340    0.59960    1.000
    C275     C        0.20680    0.97610    0.98870    1.000
    C276     C        0.22910    0.86000    0.99490    1.000
    C277     C        0.22600    0.75090    0.04140    1.000
    H187     H        0.20980    0.75250    0.07020    1.000
    C278     C        0.24670    0.64120    0.04480    1.000
    H188     H        0.24430    0.56570    0.07490    1.000
    N15      N        0.10740    0.11240    0.95930    1.000
    C279     C        0.09310    0.00110    0.91840    1.000
    H189     H        0.10330    0.96140    0.88260    1.000
    C280     C        0.06380    0.94810    0.92980    1.000
    H190     H        0.05400    0.87200    0.90180    1.000
    C281     C        0.04880    0.00630    0.98220    1.000
    C282     C        0.06320    0.11750    0.02310    1.000
    H191     H        0.05300    0.15730    0.05890    1.000
    C283     C        0.09250    0.17060    0.01170    1.000
    H192     H        0.10230    0.24670    0.03970    1.000
    N16      N        0.88870    0.81250    0.03340    1.000
    C284     C        0.90690    0.92840    0.02870    1.000
    H193     H        0.89660    0.01450    0.02520    1.000
    C285     C        0.94020    0.91830    0.02920    1.000
    H194     H        0.95270    0.99760    0.02600    1.000
    C286     C        0.95530    0.79230    0.03430    1.000
    C287     C        0.93710    0.67640    0.03900    1.000
    H195     H        0.94740    0.59030    0.04250    1.000
    C288     C        0.90380    0.68650    0.03850    1.000
    H196     H        0.89130    0.60720    0.04170    1.000
    F15      F        0.97330    0.57800    0.90900    1.000
    C289     C        0.01540    0.94300    0.99370    1.000
    H197     H        0.99690    0.00700    0.97340    1.000
    C290     C        0.00480    0.79800    0.96510    1.000
    H198     H        0.02450    0.73920    0.96610    1.000
    C291     C        0.99130    0.77600    0.03480    1.000
    H199     H        0.00020    0.69080    0.06060    1.000
    C292     C        0.01380    0.90300    0.07040    1.000
    H200     H        0.00050    0.96930    0.09180    1.000
    C293     C        0.98190    0.79900    0.88920    1.000
    C294     C        0.96720    0.67300    0.87000    1.000
    C295     C        0.94240    0.66000    0.80500    1.000
    H201     H        0.93240    0.57430    0.79230    1.000
    C296     C        0.93230    0.77100    0.76020    1.000
    H202     H        0.91530    0.76210    0.71610    1.000
    C297     C        0.94690    0.89600    0.77940    1.000
    H203     H        0.94000    0.97270    0.74850    1.000
    C298     C        0.97170    0.91000    0.84390    1.000
    H204     H        0.98170    0.99560    0.85710    1.000
    F16      F        0.01960    0.92600    0.23110    1.000
    C299     C        0.04180    0.84700    0.13110    1.000
    C300     C        0.04320    0.86900    0.20620    1.000
    C301     C        0.06840    0.81200    0.26020    1.000
    H205     H        0.06930    0.82740    0.31150    1.000
    C302     C        0.09230    0.73400    0.23910    1.000
    H206     H        0.10960    0.69470    0.27600    1.000
    C303     C        0.09090    0.71200    0.16400    1.000
    H207     H        0.10720    0.65780    0.14950    1.000
    C304     C        0.06570    0.76900    0.11000    1.000
    H208     H        0.06470    0.75370    0.05860    1.000
    Cd9      Cd       0.75000    0.25000    0.50000    1.000
    Cd10     Cd       0.25000    0.25000    0.00000    1.000
    Cd11     Cd       0.25000    0.75000    0.50000    1.000
    Cd12     Cd       0.75000    0.75000    0.00000    1.000
