# CIF file generated by openbabel 3.1.0, see https://openbabel.org
data_I
_chemical_name_common 'WUNTAB_charged'
_cell_length_a 15.8267
_cell_length_b 15.8267
_cell_length_c 21.778
_cell_angle_alpha 90
_cell_angle_beta 90
_cell_angle_gamma 90
_space_group_name_H-M_alt 'P 1'
_space_group_name_Hall 'P 1'
loop_
    _symmetry_equiv_pos_as_xyz
    x,y,z
loop_
    _atom_site_label
    _atom_site_type_symbol
    _atom_site_fract_x
    _atom_site_fract_y
    _atom_site_fract_z
    _atom_site_occupancy
    Cd1      Cd       0.06012    0.93988    0.25000    1.000
    Cd2      Cd       0.93988    0.06012    0.75000    1.000
    Cd3      Cd       0.56012    0.56012    0.50000    1.000
    Cd4      Cd       0.43988    0.43988    0.00000    1.000
    H1       H        0.35930    0.26870    0.04240    1.000
    H2       H        0.26330    0.20940    0.10650    1.000
    H3       H        0.28610    0.41300    0.21500    1.000
    H4       H        0.38530    0.46380    0.14840    1.000
    H5       H        0.20580    0.34280    0.28210    1.000
    H6       H        0.09170    0.29190    0.33630    1.000
    H7       H        0.99810    0.19860    0.29190    1.000
    H8       H        0.14000    0.19620    0.13960    1.000
    H9       H        0.87920    0.95390    0.04230    1.000
    H10      H        0.76760    0.93130    0.97720    1.000
    H11      H        0.66120    0.02990    0.96920    1.000
    H12      H        0.77550    0.17180    0.09710    1.000
    H13      H        0.59720    0.14620    0.94100    1.000
    H14      H        0.50550    0.25750    0.92990    1.000
    H15      H        0.55800    0.34000    0.09230    1.000
    H16      H        0.65160    0.23260    0.10840    1.000
    H17      H        0.97390    0.24150    0.10230    1.000
    H18      H        0.90300    0.25620    0.15380    1.000
    H19      H        0.64070    0.73130    0.54240    1.000
    H20      H        0.73670    0.79060    0.60650    1.000
    H21      H        0.71390    0.58700    0.71500    1.000
    H22      H        0.61470    0.53620    0.64840    1.000
    H23      H        0.79420    0.65720    0.78210    1.000
    H24      H        0.90830    0.70810    0.83630    1.000
    H25      H        0.00190    0.80140    0.79190    1.000
    H26      H        0.86000    0.80380    0.63960    1.000
    H27      H        0.12080    0.04610    0.54230    1.000
    H28      H        0.23240    0.06870    0.47720    1.000
    H29      H        0.33880    0.97010    0.46920    1.000
    H30      H        0.22450    0.82820    0.59710    1.000
    H31      H        0.40280    0.85380    0.44100    1.000
    H32      H        0.49450    0.74250    0.42990    1.000
    H33      H        0.44200    0.66000    0.59230    1.000
    H34      H        0.34840    0.76740    0.60840    1.000
    H35      H        0.02610    0.75850    0.60230    1.000
    H36      H        0.09700    0.74380    0.65380    1.000
    H37      H        0.23130    0.85930    0.29240    1.000
    H38      H        0.29060    0.76330    0.35650    1.000
    H39      H        0.08700    0.78610    0.46500    1.000
    H40      H        0.03620    0.88530    0.39840    1.000
    H41      H        0.15720    0.70580    0.53210    1.000
    H42      H        0.20810    0.59170    0.58630    1.000
    H43      H        0.30140    0.49810    0.54190    1.000
    H44      H        0.30380    0.64000    0.38960    1.000
    H45      H        0.54610    0.37920    0.29230    1.000
    H46      H        0.56870    0.26760    0.22720    1.000
    H47      H        0.47010    0.16120    0.21920    1.000
    H48      H        0.32820    0.27550    0.34710    1.000
    H49      H        0.35380    0.09720    0.19100    1.000
    H50      H        0.24250    0.00550    0.17990    1.000
    H51      H        0.16000    0.05800    0.34230    1.000
    H52      H        0.26740    0.15160    0.35840    1.000
    H53      H        0.25850    0.47390    0.35230    1.000
    H54      H        0.24380    0.40300    0.40380    1.000
    H55      H        0.76870    0.14070    0.79240    1.000
    H56      H        0.70940    0.23670    0.85650    1.000
    H57      H        0.91300    0.21390    0.96500    1.000
    H58      H        0.96380    0.11470    0.89840    1.000
    H59      H        0.84280    0.29420    0.03210    1.000
    H60      H        0.79190    0.40830    0.08630    1.000
    H61      H        0.69860    0.50190    0.04190    1.000
    H62      H        0.69620    0.36000    0.88960    1.000
    H63      H        0.45390    0.62080    0.79230    1.000
    H64      H        0.43130    0.73240    0.72720    1.000
    H65      H        0.52990    0.83880    0.71920    1.000
    H66      H        0.67180    0.72450    0.84710    1.000
    H67      H        0.64620    0.90280    0.69100    1.000
    H68      H        0.75750    0.99450    0.67990    1.000
    H69      H        0.84000    0.94200    0.84230    1.000
    H70      H        0.73260    0.84840    0.85840    1.000
    H71      H        0.74150    0.52610    0.85230    1.000
    H72      H        0.75620    0.59700    0.90380    1.000
    H73      H        0.14070    0.76870    0.20760    1.000
    H74      H        0.23670    0.70940    0.14350    1.000
    H75      H        0.21390    0.91300    0.03500    1.000
    H76      H        0.11470    0.96380    0.10160    1.000
    H77      H        0.29420    0.84280    0.96790    1.000
    H78      H        0.40830    0.79190    0.91370    1.000
    H79      H        0.50190    0.69860    0.95810    1.000
    H80      H        0.36000    0.69620    0.11040    1.000
    H81      H        0.62080    0.45390    0.20770    1.000
    H82      H        0.73240    0.43130    0.27280    1.000
    H83      H        0.83880    0.52990    0.28080    1.000
    H84      H        0.72450    0.67180    0.15290    1.000
    H85      H        0.90280    0.64620    0.30900    1.000
    H86      H        0.99450    0.75750    0.32010    1.000
    H87      H        0.94200    0.84000    0.15770    1.000
    H88      H        0.84840    0.73260    0.14160    1.000
    H89      H        0.52610    0.74150    0.14770    1.000
    H90      H        0.59700    0.75620    0.09620    1.000
    H91      H        0.85930    0.23130    0.70760    1.000
    H92      H        0.76330    0.29060    0.64350    1.000
    H93      H        0.78610    0.08700    0.53500    1.000
    H94      H        0.88530    0.03620    0.60160    1.000
    H95      H        0.70580    0.15720    0.46790    1.000
    H96      H        0.59170    0.20810    0.41370    1.000
    H97      H        0.49810    0.30140    0.45810    1.000
    H98      H        0.64000    0.30380    0.61040    1.000
    H99      H        0.37920    0.54610    0.70770    1.000
    H100     H        0.26760    0.56870    0.77280    1.000
    H101     H        0.16120    0.47010    0.78080    1.000
    H102     H        0.27550    0.32820    0.65290    1.000
    H103     H        0.09720    0.35380    0.80900    1.000
    H104     H        0.00550    0.24250    0.82010    1.000
    H105     H        0.05800    0.16000    0.65770    1.000
    H106     H        0.15160    0.26740    0.64160    1.000
    H107     H        0.47390    0.25850    0.64770    1.000
    H108     H        0.40300    0.24380    0.59620    1.000
    H109     H        0.26870    0.35930    0.95760    1.000
    H110     H        0.20940    0.26330    0.89350    1.000
    H111     H        0.41300    0.28610    0.78500    1.000
    H112     H        0.46380    0.38530    0.85160    1.000
    H113     H        0.34280    0.20580    0.71790    1.000
    H114     H        0.29190    0.09170    0.66370    1.000
    H115     H        0.19860    0.99810    0.70810    1.000
    H116     H        0.19620    0.14000    0.86040    1.000
    H117     H        0.95390    0.87920    0.95770    1.000
    H118     H        0.93130    0.76760    0.02280    1.000
    H119     H        0.02990    0.66120    0.03080    1.000
    H120     H        0.17180    0.77550    0.90290    1.000
    H121     H        0.14620    0.59720    0.05900    1.000
    H122     H        0.25750    0.50550    0.07010    1.000
    H123     H        0.34000    0.55800    0.90770    1.000
    H124     H        0.23260    0.65160    0.89160    1.000
    H125     H        0.24150    0.97390    0.89770    1.000
    H126     H        0.25620    0.90300    0.84620    1.000
    H127     H        0.73130    0.64070    0.45760    1.000
    H128     H        0.79060    0.73670    0.39350    1.000
    H129     H        0.58700    0.71390    0.28500    1.000
    H130     H        0.53620    0.61470    0.35160    1.000
    H131     H        0.65720    0.79420    0.21790    1.000
    H132     H        0.70810    0.90830    0.16370    1.000
    H133     H        0.80140    0.00190    0.20810    1.000
    H134     H        0.80380    0.86000    0.36040    1.000
    H135     H        0.04610    0.12080    0.45770    1.000
    H136     H        0.06870    0.23240    0.52280    1.000
    H137     H        0.97010    0.33880    0.53080    1.000
    H138     H        0.82820    0.22450    0.40290    1.000
    H139     H        0.85380    0.40280    0.55900    1.000
    H140     H        0.74250    0.49450    0.57010    1.000
    H141     H        0.66000    0.44200    0.40770    1.000
    H142     H        0.76740    0.34840    0.39160    1.000
    H143     H        0.75850    0.02610    0.39770    1.000
    H144     H        0.74380    0.09700    0.34620    1.000
    C1       C        0.34320    0.29880    0.07722    1.000
    C2       C        0.28470    0.26280    0.11524    1.000
    C3       C        0.25730    0.30620    0.16685    1.000
    C4       C        0.29880    0.38290    0.17944    1.000
    C5       C        0.35820    0.41340    0.13889    1.000
    C6       C        0.18580    0.27510    0.20426    1.000
    C7       C        0.16990    0.30350    0.26400    1.000
    C8       C        0.10080    0.27350    0.29630    1.000
    C9       C        0.04540    0.21670    0.27030    1.000
    C10      C        0.06110    0.18680    0.21110    1.000
    C11      C        0.13010    0.21620    0.17916    1.000
    C12      C        0.00480    0.12510    0.18113    1.000
    C13      C        0.90920    0.07460    0.11918    1.000
    C14      C        0.83860    0.06630    0.07562    1.000
    C15      C        0.83590    0.99340    0.03970    1.000
    C16      C        0.76970    0.98020    0.00080    1.000
    C17      C        0.70570    0.03920    0.99630    1.000
    C18      C        0.70690    0.11210    0.03150    1.000
    C19      C        0.77430    0.12410    0.07221    1.000
    C20      C        0.63900    0.17820    0.02469    1.000
    C21      C        0.59190    0.18580    0.97230    1.000
    C22      C        0.53590    0.25290    0.96620    1.000
    C23      C        0.56660    0.30110    0.06094    1.000
    C24      C        0.62370    0.23680    0.07099    1.000
    C25      C        0.65680    0.70120    0.57722    1.000
    C26      C        0.71530    0.73720    0.61524    1.000
    C27      C        0.74270    0.69380    0.66685    1.000
    C28      C        0.70120    0.61710    0.67944    1.000
    C29      C        0.64180    0.58660    0.63889    1.000
    C30      C        0.81420    0.72490    0.70426    1.000
    C31      C        0.83010    0.69650    0.76400    1.000
    C32      C        0.89920    0.72650    0.79630    1.000
    C33      C        0.95460    0.78330    0.77030    1.000
    C34      C        0.93890    0.81320    0.71110    1.000
    C35      C        0.86990    0.78380    0.67916    1.000
    C36      C        0.99520    0.87490    0.68113    1.000
    C37      C        0.09080    0.92540    0.61918    1.000
    C38      C        0.16140    0.93370    0.57562    1.000
    C39      C        0.16410    0.00660    0.53970    1.000
    C40      C        0.23030    0.01980    0.50080    1.000
    C41      C        0.29430    0.96080    0.49630    1.000
    C42      C        0.29310    0.88790    0.53150    1.000
    C43      C        0.22570    0.87590    0.57221    1.000
    C44      C        0.36100    0.82180    0.52469    1.000
    C45      C        0.40810    0.81420    0.47230    1.000
    C46      C        0.46410    0.74710    0.46620    1.000
    C47      C        0.43340    0.69890    0.56094    1.000
    C48      C        0.37630    0.76320    0.57099    1.000
    C49      C        0.20120    0.84320    0.32722    1.000
    C50      C        0.23720    0.78470    0.36524    1.000
    C51      C        0.19380    0.75730    0.41685    1.000
    C52      C        0.11710    0.79880    0.42944    1.000
    C53      C        0.08660    0.85820    0.38889    1.000
    C54      C        0.22490    0.68580    0.45426    1.000
    C55      C        0.19650    0.66990    0.51400    1.000
    C56      C        0.22650    0.60080    0.54630    1.000
    C57      C        0.28330    0.54540    0.52030    1.000
    C58      C        0.31320    0.56110    0.46110    1.000
    C59      C        0.28380    0.63010    0.42916    1.000
    C60      C        0.37490    0.50480    0.43113    1.000
    C61      C        0.42540    0.40920    0.36918    1.000
    C62      C        0.43370    0.33860    0.32562    1.000
    C63      C        0.50660    0.33590    0.28970    1.000
    C64      C        0.51980    0.26970    0.25080    1.000
    C65      C        0.46080    0.20570    0.24630    1.000
    C66      C        0.38790    0.20690    0.28150    1.000
    C67      C        0.37590    0.27430    0.32221    1.000
    C68      C        0.32180    0.13900    0.27469    1.000
    C69      C        0.31420    0.09190    0.22230    1.000
    C70      C        0.24710    0.03590    0.21620    1.000
    C71      C        0.19890    0.06660    0.31094    1.000
    C72      C        0.26320    0.12370    0.32099    1.000
    C73      C        0.79880    0.15680    0.82722    1.000
    C74      C        0.76280    0.21530    0.86524    1.000
    C75      C        0.80620    0.24270    0.91685    1.000
    C76      C        0.88290    0.20120    0.92944    1.000
    C77      C        0.91340    0.14180    0.88889    1.000
    C78      C        0.77510    0.31420    0.95426    1.000
    C79      C        0.80350    0.33010    0.01400    1.000
    C80      C        0.77350    0.39920    0.04630    1.000
    C81      C        0.71670    0.45460    0.02030    1.000
    C82      C        0.68680    0.43890    0.96110    1.000
    C83      C        0.71620    0.36990    0.92916    1.000
    C84      C        0.62510    0.49520    0.93113    1.000
    C85      C        0.57460    0.59080    0.86918    1.000
    C86      C        0.56630    0.66140    0.82562    1.000
    C87      C        0.49340    0.66410    0.78970    1.000
    C88      C        0.48020    0.73030    0.75080    1.000
    C89      C        0.53920    0.79430    0.74630    1.000
    C90      C        0.61210    0.79310    0.78150    1.000
    C91      C        0.62410    0.72570    0.82221    1.000
    C92      C        0.67820    0.86100    0.77469    1.000
    C93      C        0.68580    0.90810    0.72230    1.000
    C94      C        0.75290    0.96410    0.71620    1.000
    C95      C        0.80110    0.93340    0.81094    1.000
    C96      C        0.73680    0.87630    0.82099    1.000
    C97      C        0.15680    0.79880    0.17278    1.000
    C98      C        0.21530    0.76280    0.13476    1.000
    C99      C        0.24270    0.80620    0.08315    1.000
    C100     C        0.20120    0.88290    0.07056    1.000
    C101     C        0.14180    0.91340    0.11111    1.000
    C102     C        0.31420    0.77510    0.04574    1.000
    C103     C        0.33010    0.80350    0.98600    1.000
    C104     C        0.39920    0.77350    0.95370    1.000
    C105     C        0.45460    0.71670    0.97970    1.000
    C106     C        0.43890    0.68680    0.03890    1.000
    C107     C        0.36990    0.71620    0.07084    1.000
    C108     C        0.49520    0.62510    0.06887    1.000
    C109     C        0.59080    0.57460    0.13082    1.000
    C110     C        0.66140    0.56630    0.17438    1.000
    C111     C        0.66410    0.49340    0.21030    1.000
    C112     C        0.73030    0.48020    0.24920    1.000
    C113     C        0.79430    0.53920    0.25370    1.000
    C114     C        0.79310    0.61210    0.21850    1.000
    C115     C        0.72570    0.62410    0.17779    1.000
    C116     C        0.86100    0.67820    0.22531    1.000
    C117     C        0.90810    0.68580    0.27770    1.000
    C118     C        0.96410    0.75290    0.28380    1.000
    C119     C        0.93340    0.80110    0.18906    1.000
    C120     C        0.87630    0.73680    0.17901    1.000
    C121     C        0.84320    0.20120    0.67278    1.000
    C122     C        0.78470    0.23720    0.63476    1.000
    C123     C        0.75730    0.19380    0.58315    1.000
    C124     C        0.79880    0.11710    0.57056    1.000
    C125     C        0.85820    0.08660    0.61111    1.000
    C126     C        0.68580    0.22490    0.54574    1.000
    C127     C        0.66990    0.19650    0.48600    1.000
    C128     C        0.60080    0.22650    0.45370    1.000
    C129     C        0.54540    0.28330    0.47970    1.000
    C130     C        0.56110    0.31320    0.53890    1.000
    C131     C        0.63010    0.28380    0.57084    1.000
    C132     C        0.50480    0.37490    0.56887    1.000
    C133     C        0.40920    0.42540    0.63082    1.000
    C134     C        0.33860    0.43370    0.67438    1.000
    C135     C        0.33590    0.50660    0.71030    1.000
    C136     C        0.26970    0.51980    0.74920    1.000
    C137     C        0.20570    0.46080    0.75370    1.000
    C138     C        0.20690    0.38790    0.71850    1.000
    C139     C        0.27430    0.37590    0.67779    1.000
    C140     C        0.13900    0.32180    0.72531    1.000
    C141     C        0.09190    0.31420    0.77770    1.000
    C142     C        0.03590    0.24710    0.78380    1.000
    C143     C        0.06660    0.19890    0.68906    1.000
    C144     C        0.12370    0.26320    0.67901    1.000
    C145     C        0.29880    0.34320    0.92278    1.000
    C146     C        0.26280    0.28470    0.88476    1.000
    C147     C        0.30620    0.25730    0.83315    1.000
    C148     C        0.38290    0.29880    0.82056    1.000
    C149     C        0.41340    0.35820    0.86111    1.000
    C150     C        0.27510    0.18580    0.79574    1.000
    C151     C        0.30350    0.16990    0.73600    1.000
    C152     C        0.27350    0.10080    0.70370    1.000
    C153     C        0.21670    0.04540    0.72970    1.000
    C154     C        0.18680    0.06110    0.78890    1.000
    C155     C        0.21620    0.13010    0.82084    1.000
    C156     C        0.12510    0.00480    0.81887    1.000
    C157     C        0.07460    0.90920    0.88082    1.000
    C158     C        0.06630    0.83860    0.92438    1.000
    C159     C        0.99340    0.83590    0.96030    1.000
    C160     C        0.98020    0.76970    0.99920    1.000
    C161     C        0.03920    0.70570    0.00370    1.000
    C162     C        0.11210    0.70690    0.96850    1.000
    C163     C        0.12410    0.77430    0.92779    1.000
    C164     C        0.17820    0.63900    0.97531    1.000
    C165     C        0.18580    0.59190    0.02770    1.000
    C166     C        0.25290    0.53590    0.03380    1.000
    C167     C        0.30110    0.56660    0.93906    1.000
    C168     C        0.23680    0.62370    0.92901    1.000
    C169     C        0.70120    0.65680    0.42278    1.000
    C170     C        0.73720    0.71530    0.38476    1.000
    C171     C        0.69380    0.74270    0.33315    1.000
    C172     C        0.61710    0.70120    0.32056    1.000
    C173     C        0.58660    0.64180    0.36111    1.000
    C174     C        0.72490    0.81420    0.29574    1.000
    C175     C        0.69650    0.83010    0.23600    1.000
    C176     C        0.72650    0.89920    0.20370    1.000
    C177     C        0.78330    0.95460    0.22970    1.000
    C178     C        0.81320    0.93890    0.28890    1.000
    C179     C        0.78380    0.86990    0.32084    1.000
    C180     C        0.87490    0.99520    0.31887    1.000
    C181     C        0.92540    0.09080    0.38082    1.000
    C182     C        0.93370    0.16140    0.42438    1.000
    C183     C        0.00660    0.16410    0.46030    1.000
    C184     C        0.01980    0.23030    0.49920    1.000
    C185     C        0.96080    0.29430    0.50370    1.000
    C186     C        0.88790    0.29310    0.46850    1.000
    C187     C        0.87590    0.22570    0.42779    1.000
    C188     C        0.82180    0.36100    0.47531    1.000
    C189     C        0.81420    0.40810    0.52770    1.000
    C190     C        0.74710    0.46410    0.53380    1.000
    C191     C        0.69890    0.43340    0.43906    1.000
    C192     C        0.76320    0.37630    0.42901    1.000
    N1       N        0.94660    0.01069    0.14539    1.000
    N2       N        0.00744    0.04292    0.18434    1.000
    N3       N        0.94380    0.14748    0.14005    1.000
    N4       N        0.92410    0.23020    0.12014    1.000
    N5       N        0.52320    0.31100    0.00935    1.000
    N6       N        0.37910    0.37420    0.08663    1.000
    N7       N        0.05340    0.98931    0.64539    1.000
    N8       N        0.99256    0.95708    0.68434    1.000
    N9       N        0.05620    0.85252    0.64005    1.000
    N10      N        0.07590    0.76980    0.62014    1.000
    N11      N        0.47680    0.68900    0.50935    1.000
    N12      N        0.62090    0.62580    0.58663    1.000
    N13      N        0.48931    0.44660    0.39539    1.000
    N14      N        0.45708    0.50744    0.43434    1.000
    N15      N        0.35252    0.44380    0.39005    1.000
    N16      N        0.26980    0.42410    0.37014    1.000
    N17      N        0.18900    0.02320    0.25935    1.000
    N18      N        0.12580    0.87910    0.33663    1.000
    N19      N        0.51069    0.55340    0.89539    1.000
    N20      N        0.54292    0.49256    0.93434    1.000
    N21      N        0.64748    0.55620    0.89005    1.000
    N22      N        0.73020    0.57590    0.87014    1.000
    N23      N        0.81100    0.97680    0.75935    1.000
    N24      N        0.87420    0.12090    0.83663    1.000
    N25      N        0.55340    0.51069    0.10461    1.000
    N26      N        0.49256    0.54292    0.06566    1.000
    N27      N        0.55620    0.64748    0.10995    1.000
    N28      N        0.57590    0.73020    0.12986    1.000
    N29      N        0.97680    0.81100    0.24065    1.000
    N30      N        0.12090    0.87420    0.16337    1.000
    N31      N        0.44660    0.48931    0.60461    1.000
    N32      N        0.50744    0.45708    0.56566    1.000
    N33      N        0.44380    0.35252    0.60995    1.000
    N34      N        0.42410    0.26980    0.62986    1.000
    N35      N        0.02320    0.18900    0.74065    1.000
    N36      N        0.87910    0.12580    0.66337    1.000
    N37      N        0.01069    0.94660    0.85461    1.000
    N38      N        0.04292    0.00744    0.81566    1.000
    N39      N        0.14748    0.94380    0.85995    1.000
    N40      N        0.23020    0.92410    0.87986    1.000
    N41      N        0.31100    0.52320    0.99065    1.000
    N42      N        0.37420    0.37910    0.91337    1.000
    N43      N        0.98931    0.05340    0.35461    1.000
    N44      N        0.95708    0.99256    0.31566    1.000
    N45      N        0.85252    0.05620    0.35995    1.000
    N46      N        0.76980    0.07590    0.37986    1.000
    N47      N        0.68900    0.47680    0.49065    1.000
    N48      N        0.62580    0.62090    0.41337    1.000
    Cl1      Cl       0.12713    0.12713    0.00000    1.000
    O1       O        0.11790    0.08410    0.94650    1.000
    O2       O        0.10580    0.21350    0.01000    1.000
    O3       O        0.08410    0.11790    0.05350    1.000
    O4       O        0.21350    0.10580    0.99000    1.000
    Cl2      Cl       0.87287    0.87287    0.50000    1.000
    O5       O        0.88210    0.91590    0.44650    1.000
    O6       O        0.89420    0.78650    0.51000    1.000
    O7       O        0.91590    0.88210    0.55350    1.000
    O8       O        0.78650    0.89420    0.49000    1.000
    Cl3      Cl       0.37287    0.62713    0.25000    1.000
    O9       O        0.41590    0.61790    0.19650    1.000
    O10      O        0.28650    0.60580    0.26000    1.000
    O11      O        0.38210    0.58410    0.30350    1.000
    O12      O        0.39420    0.71350    0.24000    1.000
    Cl4      Cl       0.62713    0.37287    0.75000    1.000
    O13      O        0.58410    0.38210    0.69650    1.000
    O14      O        0.71350    0.39420    0.76000    1.000
    O15      O        0.61790    0.41590    0.80350    1.000
    O16      O        0.60580    0.28650    0.74000    1.000
