# CIF file generated by openbabel 3.1.0, see https://openbabel.org
data_I
_chemical_name_common 'image0'
_cell_length_a 16.2945
_cell_length_b 16.2945
_cell_length_c 17.4321
_cell_angle_alpha 90
_cell_angle_beta 90
_cell_angle_gamma 90
_space_group_name_H-M_alt 'P 1'
_space_group_name_Hall 'P 1'
loop_
    _symmetry_equiv_pos_as_xyz
    x,y,z
loop_
    _atom_site_label
    _atom_site_type_symbol
    _atom_site_fract_x
    _atom_site_fract_y
    _atom_site_fract_z
    _atom_site_occupancy
    Mn1      Mn       0.23920    0.77370    0.21873    1.000
    N1       N        0.22510    0.78080    0.34515    1.000
    N2       N        0.12006    0.70549    0.21184    1.000
    N3       N        0.17497    0.89328    0.20958    1.000
    N4       N        0.86072    0.66258    0.27065    1.000
    N5       N        0.19433    0.15468    0.26681    1.000
    N6       N        0.26210    0.75430    0.59381    1.000
    C1       C        0.15368    0.95822    0.22246    1.000
    C2       C        0.16362    0.09362    0.25158    1.000
    N7       N        0.17610    0.77550    0.47880    1.000
    C3       C        0.20370    0.77520    0.40900    1.000
    C4       C        0.22250    0.76160    0.53750    1.000
    N8       N        0.99480    0.62210    0.22180    1.000
    C5       C        0.05910    0.66920    0.21970    1.000
    C6       C        0.92520    0.64790    0.24850    1.000
    N9       N        0.12090    0.02915    0.23470    1.000
    N10      N        0.19620    0.81160    0.47970    1.000
    C7       C        0.21530    0.79480    0.40920    1.000
    C8       C        0.28110    0.73340    0.03820    1.000
    N11      N        0.18600    0.73340    0.47550    1.000
    C9       C        0.21190    0.75120    0.40660    1.000
    C10      C        0.24060    0.73660    0.03290    1.000
    N12      N        0.23460    0.83270    0.47800    1.000
    C11      C        0.23700    0.80300    0.40860    1.000
    C12      C        0.28710    0.75800    0.03570    1.000
    N13      N        0.48750    0.86080    0.30410    1.000
    C13      C        0.05550    0.67990    0.20320    1.000
    C14      C        0.42300    0.84630    0.26370    1.000
    N14      N        0.50320    0.88100    0.24490    1.000
    C15      C        0.06310    0.66740    0.23550    1.000
    C16      C        0.42880    0.85390    0.23560    1.000
    Mn2      Mn       0.76080    0.22630    0.21873    1.000
    N15      N        0.77490    0.21920    0.34515    1.000
    N16      N        0.87994    0.29451    0.21184    1.000
    N17      N        0.82503    0.10672    0.20958    1.000
    N18      N        0.13928    0.33742    0.27065    1.000
    N19      N        0.80567    0.84532    0.26681    1.000
    N20      N        0.73790    0.24570    0.59381    1.000
    C17      C        0.84632    0.04178    0.22246    1.000
    C18      C        0.83638    0.90638    0.25158    1.000
    N21      N        0.82390    0.22450    0.47880    1.000
    C19      C        0.79630    0.22480    0.40900    1.000
    C20      C        0.77750    0.23840    0.53750    1.000
    N22      N        0.00520    0.37790    0.22180    1.000
    C21      C        0.94090    0.33080    0.21970    1.000
    C22      C        0.07480    0.35210    0.24850    1.000
    N23      N        0.87910    0.97085    0.23470    1.000
    N24      N        0.80380    0.18840    0.47970    1.000
    C23      C        0.78470    0.20520    0.40920    1.000
    C24      C        0.71890    0.26660    0.03820    1.000
    N25      N        0.81400    0.26660    0.47550    1.000
    C25      C        0.78810    0.24880    0.40660    1.000
    C26      C        0.75940    0.26340    0.03290    1.000
    N26      N        0.76540    0.16730    0.47800    1.000
    C27      C        0.76300    0.19700    0.40860    1.000
    C28      C        0.71290    0.24200    0.03570    1.000
    N27      N        0.51250    0.13920    0.30410    1.000
    C29      C        0.94450    0.32010    0.20320    1.000
    C30      C        0.57700    0.15370    0.26370    1.000
    N28      N        0.49680    0.11900    0.24490    1.000
    C31      C        0.93690    0.33260    0.23550    1.000
    C32      C        0.57120    0.14610    0.23560    1.000
    Mn3      Mn       0.77370    0.76080    0.78127    1.000
    N29      N        0.78080    0.77490    0.65485    1.000
    N30      N        0.70549    0.87994    0.78816    1.000
    N31      N        0.89328    0.82503    0.79042    1.000
    N32      N        0.66258    0.13928    0.72935    1.000
    N33      N        0.15468    0.80567    0.73319    1.000
    N34      N        0.75430    0.73790    0.40619    1.000
    C33      C        0.95822    0.84632    0.77754    1.000
    C34      C        0.09362    0.83638    0.74842    1.000
    N35      N        0.77550    0.82390    0.52120    1.000
    C35      C        0.77520    0.79630    0.59100    1.000
    C36      C        0.76160    0.77750    0.46250    1.000
    N36      N        0.62210    0.00520    0.77820    1.000
    C37      C        0.66920    0.94090    0.78030    1.000
    C38      C        0.64790    0.07480    0.75150    1.000
    N37      N        0.02915    0.87910    0.76530    1.000
    N38      N        0.81160    0.80380    0.52030    1.000
    C39      C        0.79480    0.78470    0.59080    1.000
    C40      C        0.73340    0.71890    0.96180    1.000
    N39      N        0.73340    0.81400    0.52450    1.000
    C41      C        0.75120    0.78810    0.59340    1.000
    C42      C        0.73660    0.75940    0.96710    1.000
    N40      N        0.83270    0.76540    0.52200    1.000
    C43      C        0.80300    0.76300    0.59140    1.000
    C44      C        0.75800    0.71290    0.96430    1.000
    N41      N        0.86080    0.51250    0.69590    1.000
    C45      C        0.67990    0.94450    0.79680    1.000
    C46      C        0.84630    0.57700    0.73630    1.000
    N42      N        0.88100    0.49680    0.75510    1.000
    C47      C        0.66740    0.93690    0.76450    1.000
    C48      C        0.85390    0.57120    0.76440    1.000
    Mn4      Mn       0.22630    0.23920    0.78127    1.000
    N43      N        0.21920    0.22510    0.65485    1.000
    N44      N        0.29451    0.12006    0.78816    1.000
    N45      N        0.10672    0.17497    0.79042    1.000
    N46      N        0.33742    0.86072    0.72935    1.000
    N47      N        0.84532    0.19433    0.73319    1.000
    N48      N        0.24570    0.26210    0.40619    1.000
    C49      C        0.04178    0.15368    0.77754    1.000
    C50      C        0.90638    0.16362    0.74842    1.000
    N49      N        0.22450    0.17610    0.52120    1.000
    C51      C        0.22480    0.20370    0.59100    1.000
    C52      C        0.23840    0.22250    0.46250    1.000
    N50      N        0.37790    0.99480    0.77820    1.000
    C53      C        0.33080    0.05910    0.78030    1.000
    C54      C        0.35210    0.92520    0.75150    1.000
    N51      N        0.97085    0.12090    0.76530    1.000
    N52      N        0.18840    0.19620    0.52030    1.000
    C55      C        0.20520    0.21530    0.59080    1.000
    C56      C        0.26660    0.28110    0.96180    1.000
    N53      N        0.26660    0.18600    0.52450    1.000
    C57      C        0.24880    0.21190    0.59340    1.000
    C58      C        0.26340    0.24060    0.96710    1.000
    N54      N        0.16730    0.23460    0.52200    1.000
    C59      C        0.19700    0.23700    0.59140    1.000
    C60      C        0.24200    0.28710    0.96430    1.000
    N55      N        0.13920    0.48750    0.69590    1.000
    C61      C        0.32010    0.05550    0.79680    1.000
    C62      C        0.15370    0.42300    0.73630    1.000
    N56      N        0.11900    0.50320    0.75510    1.000
    C63      C        0.33260    0.06310    0.76450    1.000
    C64      C        0.14610    0.42880    0.76440    1.000
    Mn5      Mn       0.26080    0.27370    0.28127    1.000
    N57      N        0.27490    0.28080    0.15485    1.000
    N58      N        0.37994    0.20549    0.28816    1.000
    N59      N        0.32503    0.39328    0.29042    1.000
    N60      N        0.63928    0.16258    0.22935    1.000
    N61      N        0.30567    0.65468    0.23319    1.000
    N62      N        0.23790    0.25430    0.90619    1.000
    C65      C        0.34632    0.45822    0.27754    1.000
    C66      C        0.33638    0.59362    0.24842    1.000
    N63      N        0.32390    0.27550    0.02120    1.000
    C67      C        0.29630    0.27520    0.09100    1.000
    C68      C        0.27750    0.26160    0.96250    1.000
    N64      N        0.50520    0.12210    0.27820    1.000
    C69      C        0.44090    0.16920    0.28030    1.000
    C70      C        0.57480    0.14790    0.25150    1.000
    N65      N        0.37910    0.52915    0.26530    1.000
    N66      N        0.30380    0.31160    0.02030    1.000
    C71      C        0.28470    0.29480    0.09080    1.000
    C72      C        0.21890    0.23340    0.46180    1.000
    N67      N        0.31400    0.23340    0.02450    1.000
    C73      C        0.28810    0.25120    0.09340    1.000
    C74      C        0.25940    0.23660    0.46710    1.000
    N68      N        0.26540    0.33270    0.02200    1.000
    C75      C        0.26300    0.30300    0.09140    1.000
    C76      C        0.21290    0.25800    0.46430    1.000
    N69      N        0.01250    0.36080    0.19590    1.000
    C77      C        0.44450    0.17990    0.29680    1.000
    C78      C        0.07700    0.34630    0.23630    1.000
    N70      N        0.99680    0.38100    0.25510    1.000
    C79      C        0.43690    0.16740    0.26450    1.000
    C80      C        0.07120    0.35390    0.26440    1.000
    Mn6      Mn       0.73920    0.72630    0.28127    1.000
    N71      N        0.72510    0.71920    0.15485    1.000
    N72      N        0.62006    0.79451    0.28816    1.000
    N73      N        0.67497    0.60672    0.29042    1.000
    N74      N        0.36072    0.83742    0.22935    1.000
    N75      N        0.69433    0.34532    0.23319    1.000
    N76      N        0.76210    0.74570    0.90619    1.000
    C81      C        0.65368    0.54178    0.27754    1.000
    C82      C        0.66362    0.40638    0.24842    1.000
    N77      N        0.67610    0.72450    0.02120    1.000
    C83      C        0.70370    0.72480    0.09100    1.000
    C84      C        0.72250    0.73840    0.96250    1.000
    N78      N        0.49480    0.87790    0.27820    1.000
    C85      C        0.55910    0.83080    0.28030    1.000
    C86      C        0.42520    0.85210    0.25150    1.000
    N79      N        0.62090    0.47085    0.26530    1.000
    N80      N        0.69620    0.68840    0.02030    1.000
    C87      C        0.71530    0.70520    0.09080    1.000
    C88      C        0.78110    0.76660    0.46180    1.000
    N81      N        0.68600    0.76660    0.02450    1.000
    C89      C        0.71190    0.74880    0.09340    1.000
    C90      C        0.74060    0.76340    0.46710    1.000
    N82      N        0.73460    0.66730    0.02200    1.000
    C91      C        0.73700    0.69700    0.09140    1.000
    C92      C        0.78710    0.74200    0.46430    1.000
    N83      N        0.98750    0.63920    0.19590    1.000
    C93      C        0.55550    0.82010    0.29680    1.000
    C94      C        0.92300    0.65370    0.23630    1.000
    N84      N        0.00320    0.61900    0.25510    1.000
    C95      C        0.56310    0.83260    0.26450    1.000
    C96      C        0.92880    0.64610    0.26440    1.000
    Mn7      Mn       0.72630    0.26080    0.71873    1.000
    N85      N        0.71920    0.27490    0.84515    1.000
    N86      N        0.79451    0.37994    0.71184    1.000
    N87      N        0.60672    0.32503    0.70958    1.000
    N88      N        0.83742    0.63928    0.77065    1.000
    N89      N        0.34532    0.30567    0.76681    1.000
    N90      N        0.74570    0.23790    0.09381    1.000
    C97      C        0.54178    0.34632    0.72246    1.000
    C98      C        0.40638    0.33638    0.75158    1.000
    N91      N        0.72450    0.32390    0.97880    1.000
    C99      C        0.72480    0.29630    0.90900    1.000
    C100     C        0.73840    0.27750    0.03750    1.000
    N92      N        0.87790    0.50520    0.72180    1.000
    C101     C        0.83080    0.44090    0.71970    1.000
    C102     C        0.85210    0.57480    0.74850    1.000
    N93      N        0.47085    0.37910    0.73470    1.000
    N94      N        0.68840    0.30380    0.97970    1.000
    C103     C        0.70520    0.28470    0.90920    1.000
    C104     C        0.76660    0.21890    0.53820    1.000
    N95      N        0.76660    0.31400    0.97550    1.000
    C105     C        0.74880    0.28810    0.90660    1.000
    C106     C        0.76340    0.25940    0.53290    1.000
    N96      N        0.66730    0.26540    0.97800    1.000
    C107     C        0.69700    0.26300    0.90860    1.000
    C108     C        0.74200    0.21290    0.53570    1.000
    N97      N        0.63920    0.01250    0.80410    1.000
    C109     C        0.82010    0.44450    0.70320    1.000
    C110     C        0.65370    0.07700    0.76370    1.000
    N98      N        0.61900    0.99680    0.74490    1.000
    C111     C        0.83260    0.43690    0.73550    1.000
    C112     C        0.64610    0.07120    0.73560    1.000
    Mn8      Mn       0.27370    0.73920    0.71873    1.000
    N99      N        0.28080    0.72510    0.84515    1.000
    N100     N        0.20549    0.62006    0.71184    1.000
    N101     N        0.39328    0.67497    0.70958    1.000
    N102     N        0.16258    0.36072    0.77065    1.000
    N103     N        0.65468    0.69433    0.76681    1.000
    N104     N        0.25430    0.76210    0.09381    1.000
    C113     C        0.45822    0.65368    0.72246    1.000
    C114     C        0.59362    0.66362    0.75158    1.000
    N105     N        0.27550    0.67610    0.97880    1.000
    C115     C        0.27520    0.70370    0.90900    1.000
    C116     C        0.26160    0.72250    0.03750    1.000
    N106     N        0.12210    0.49480    0.72180    1.000
    C117     C        0.16920    0.55910    0.71970    1.000
    C118     C        0.14790    0.42520    0.74850    1.000
    N107     N        0.52915    0.62090    0.73470    1.000
    N108     N        0.31160    0.69620    0.97970    1.000
    C119     C        0.29480    0.71530    0.90920    1.000
    C120     C        0.23340    0.78110    0.53820    1.000
    N109     N        0.23340    0.68600    0.97550    1.000
    C121     C        0.25120    0.71190    0.90660    1.000
    C122     C        0.23660    0.74060    0.53290    1.000
    N110     N        0.33270    0.73460    0.97800    1.000
    C123     C        0.30300    0.73700    0.90860    1.000
    C124     C        0.25800    0.78710    0.53570    1.000
    N111     N        0.36080    0.98750    0.80410    1.000
    C125     C        0.17990    0.55550    0.70320    1.000
    C126     C        0.34630    0.92300    0.76370    1.000
    N112     N        0.38100    0.00320    0.74490    1.000
    C127     C        0.16740    0.56310    0.73550    1.000
    C128     C        0.35390    0.92880    0.73560    1.000
