# CIF file generated by openbabel 3.1.0, see https://openbabel.org
data_I
_chemical_name_common 'image0'
_cell_length_a 10.024
_cell_length_b 18.725
_cell_length_c 24.813
_cell_angle_alpha 90
_cell_angle_beta 90
_cell_angle_gamma 90
_space_group_name_H-M_alt 'P 1'
_space_group_name_Hall 'P 1'
loop_
    _symmetry_equiv_pos_as_xyz
    x,y,z
loop_
    _atom_site_label
    _atom_site_type_symbol
    _atom_site_fract_x
    _atom_site_fract_y
    _atom_site_fract_z
    _atom_site_occupancy
    Rh1      Rh       0.30612    0.17106    0.11315    1.000
    Ag1      Ag       0.37512    0.21471    0.96284    1.000
    S1       S        0.32003    0.26256    0.05059    1.000
    S2       S        0.29342    0.08266    0.04771    1.000
    S3       S        0.53499    0.16002    0.11771    1.000
    O1       O        0.84550    0.22890    0.08950    1.000
    O2       O        0.89650    0.34430    0.09270    1.000
    O3       O        0.22500    0.96840    0.22820    1.000
    O4       O        0.12970    0.91170    0.16290    1.000
    H1       H        0.12780    0.87830    0.18550    1.000
    O5       O        0.37020    0.30400    0.27590    1.000
    O6       O        0.58900    0.31230    0.26320    1.000
    H2       H        0.64590    0.29440    0.24230    1.000
    N1       N        0.09940    0.18940    0.11081    1.000
    H3       H        0.06050    0.16010    0.08560    1.000
    H4       H        0.06240    0.17930    0.14390    1.000
    N2       N        0.27700    0.08750    0.16821    1.000
    H5       H        0.35830    0.07270    0.18130    1.000
    H6       H        0.22730    0.10380    0.19680    1.000
    N3       N        0.32790    0.24300    0.17712    1.000
    H7       H        0.32680    0.28890    0.16380    1.000
    H8       H        0.25680    0.23810    0.20030    1.000
    C1       C        0.14270    0.28090    0.04360    1.000
    H9       H        0.12890    0.33160    0.03370    1.000
    H10      H        0.10430    0.25070    0.01470    1.000
    C2       C        0.07420    0.26490    0.09680    1.000
    H11      H        0.11290    0.29620    0.12540    1.000
    C3       C        0.92530    0.27980    0.09210    1.000
    C4       C        0.28560    0.00560    0.09357    1.000
    H12      H        0.24090    0.96500    0.07550    1.000
    H13      H        0.37690    0.99060    0.10380    1.000
    C5       C        0.20860    0.02710    0.14300    1.000
    H14      H        0.11630    0.04180    0.13240    1.000
    C6       C        0.20090    0.96460    0.18210    1.000
    C7       C        0.56720    0.22930    0.16790    1.000
    H15      H        0.65130    0.21880    0.18730    1.000
    H16      H        0.57670    0.27620    0.14990    1.000
    C8       C        0.45270    0.23150    0.20720    1.000
    H17      H        0.44670    0.18330    0.22440    1.000
    C9       C        0.46990    0.28570    0.25210    1.000
    O7       O        0.84050    0.24110    0.10130    1.000
    O8       O        0.90520    0.35010    0.07650    1.000
    H18      H        0.82300    0.35820    0.07400    1.000
    O9       O        0.29310    0.95480    0.21640    1.000
    O10      O        0.10920    0.92410    0.17610    1.000
    O11      O        0.36840    0.32490    0.26090    1.000
    H19      H        0.38520    0.35340    0.28610    1.000
    O12      O        0.57580    0.29180    0.27700    1.000
    Rh2      Rh       0.80612    0.67106    0.61315    1.000
    Ag2      Ag       0.87512    0.71471    0.46284    1.000
    S4       S        0.82003    0.76256    0.55059    1.000
    S5       S        0.79342    0.58266    0.54771    1.000
    S6       S        0.03499    0.66002    0.61771    1.000
    O13      O        0.34550    0.72890    0.58950    1.000
    O14      O        0.39650    0.84430    0.59270    1.000
    O15      O        0.72500    0.46840    0.72820    1.000
    O16      O        0.62970    0.41170    0.66290    1.000
    H20      H        0.62780    0.37830    0.68550    1.000
    O17      O        0.87020    0.80400    0.77590    1.000
    O18      O        0.08900    0.81230    0.76320    1.000
    H21      H        0.14590    0.79440    0.74230    1.000
    N4       N        0.59940    0.68940    0.61081    1.000
    H22      H        0.56050    0.66010    0.58560    1.000
    H23      H        0.56240    0.67930    0.64390    1.000
    N5       N        0.77700    0.58750    0.66821    1.000
    H24      H        0.85830    0.57270    0.68130    1.000
    H25      H        0.72730    0.60380    0.69680    1.000
    N6       N        0.82790    0.74300    0.67712    1.000
    H26      H        0.82680    0.78890    0.66380    1.000
    H27      H        0.75680    0.73810    0.70030    1.000
    C10      C        0.64270    0.78090    0.54360    1.000
    H28      H        0.62890    0.83160    0.53370    1.000
    H29      H        0.60430    0.75070    0.51470    1.000
    C11      C        0.57420    0.76490    0.59680    1.000
    H30      H        0.61290    0.79620    0.62540    1.000
    C12      C        0.42530    0.77980    0.59210    1.000
    C13      C        0.78560    0.50560    0.59357    1.000
    H31      H        0.74090    0.46500    0.57550    1.000
    H32      H        0.87690    0.49060    0.60380    1.000
    C14      C        0.70860    0.52710    0.64300    1.000
    H33      H        0.61630    0.54180    0.63240    1.000
    C15      C        0.70090    0.46460    0.68210    1.000
    C16      C        0.06720    0.72930    0.66790    1.000
    H34      H        0.15130    0.71880    0.68730    1.000
    H35      H        0.07670    0.77620    0.64990    1.000
    C17      C        0.95270    0.73150    0.70720    1.000
    H36      H        0.94670    0.68330    0.72440    1.000
    C18      C        0.96990    0.78570    0.75210    1.000
    O19      O        0.34050    0.74110    0.60130    1.000
    O20      O        0.40520    0.85010    0.57650    1.000
    H37      H        0.32300    0.85820    0.57400    1.000
    O21      O        0.79310    0.45480    0.71640    1.000
    O22      O        0.60920    0.42410    0.67610    1.000
    O23      O        0.86840    0.82490    0.76090    1.000
    H38      H        0.88520    0.85340    0.78610    1.000
    O24      O        0.07580    0.79180    0.77700    1.000
    Rh3      Rh       0.69388    0.82894    0.11315    1.000
    Ag3      Ag       0.62488    0.78529    0.96284    1.000
    S7       S        0.67997    0.73744    0.05059    1.000
    S8       S        0.70658    0.91734    0.04771    1.000
    S9       S        0.46501    0.83998    0.11771    1.000
    O25      O        0.15450    0.77110    0.08950    1.000
    O26      O        0.10350    0.65570    0.09270    1.000
    O27      O        0.77500    0.03160    0.22820    1.000
    O28      O        0.87030    0.08830    0.16290    1.000
    H39      H        0.87220    0.12170    0.18550    1.000
    O29      O        0.62980    0.69600    0.27590    1.000
    O30      O        0.41100    0.68770    0.26320    1.000
    H40      H        0.35410    0.70560    0.24230    1.000
    N7       N        0.90060    0.81060    0.11081    1.000
    H41      H        0.93950    0.83990    0.08560    1.000
    H42      H        0.93760    0.82070    0.14390    1.000
    N8       N        0.72300    0.91250    0.16821    1.000
    H43      H        0.64170    0.92730    0.18130    1.000
    H44      H        0.77270    0.89620    0.19680    1.000
    N9       N        0.67210    0.75700    0.17712    1.000
    H45      H        0.67320    0.71110    0.16380    1.000
    H46      H        0.74320    0.76190    0.20030    1.000
    C19      C        0.85730    0.71910    0.04360    1.000
    H47      H        0.87110    0.66840    0.03370    1.000
    H48      H        0.89570    0.74930    0.01470    1.000
    C20      C        0.92580    0.73510    0.09680    1.000
    H49      H        0.88710    0.70380    0.12540    1.000
    C21      C        0.07470    0.72020    0.09210    1.000
    C22      C        0.71440    0.99440    0.09357    1.000
    H50      H        0.75910    0.03500    0.07550    1.000
    H51      H        0.62310    0.00940    0.10380    1.000
    C23      C        0.79140    0.97290    0.14300    1.000
    H52      H        0.88370    0.95820    0.13240    1.000
    C24      C        0.79910    0.03540    0.18210    1.000
    C25      C        0.43280    0.77070    0.16790    1.000
    H53      H        0.34870    0.78120    0.18730    1.000
    H54      H        0.42330    0.72380    0.14990    1.000
    C26      C        0.54730    0.76850    0.20720    1.000
    H55      H        0.55330    0.81670    0.22440    1.000
    C27      C        0.53010    0.71430    0.25210    1.000
    O31      O        0.15950    0.75890    0.10130    1.000
    O32      O        0.09480    0.64990    0.07650    1.000
    H56      H        0.17700    0.64180    0.07400    1.000
    O33      O        0.70690    0.04520    0.21640    1.000
    O34      O        0.89080    0.07590    0.17610    1.000
    O35      O        0.63160    0.67510    0.26090    1.000
    H57      H        0.61480    0.64660    0.28610    1.000
    O36      O        0.42420    0.70820    0.27700    1.000
    Rh4      Rh       0.19388    0.32894    0.61315    1.000
    Ag4      Ag       0.12488    0.28529    0.46284    1.000
    S10      S        0.17997    0.23744    0.55059    1.000
    S11      S        0.20658    0.41734    0.54771    1.000
    S12      S        0.96501    0.33998    0.61771    1.000
    O37      O        0.65450    0.27110    0.58950    1.000
    O38      O        0.60350    0.15570    0.59270    1.000
    O39      O        0.27500    0.53160    0.72820    1.000
    O40      O        0.37030    0.58830    0.66290    1.000
    H58      H        0.37220    0.62170    0.68550    1.000
    O41      O        0.12980    0.19600    0.77590    1.000
    O42      O        0.91100    0.18770    0.76320    1.000
    H59      H        0.85410    0.20560    0.74230    1.000
    N10      N        0.40060    0.31060    0.61081    1.000
    H60      H        0.43950    0.33990    0.58560    1.000
    H61      H        0.43760    0.32070    0.64390    1.000
    N11      N        0.22300    0.41250    0.66821    1.000
    H62      H        0.14170    0.42730    0.68130    1.000
    H63      H        0.27270    0.39620    0.69680    1.000
    N12      N        0.17210    0.25700    0.67712    1.000
    H64      H        0.17320    0.21110    0.66380    1.000
    H65      H        0.24320    0.26190    0.70030    1.000
    C28      C        0.35730    0.21910    0.54360    1.000
    H66      H        0.37110    0.16840    0.53370    1.000
    H67      H        0.39570    0.24930    0.51470    1.000
    C29      C        0.42580    0.23510    0.59680    1.000
    H68      H        0.38710    0.20380    0.62540    1.000
    C30      C        0.57470    0.22020    0.59210    1.000
    C31      C        0.21440    0.49440    0.59357    1.000
    H69      H        0.25910    0.53500    0.57550    1.000
    H70      H        0.12310    0.50940    0.60380    1.000
    C32      C        0.29140    0.47290    0.64300    1.000
    H71      H        0.38370    0.45820    0.63240    1.000
    C33      C        0.29910    0.53540    0.68210    1.000
    C34      C        0.93280    0.27070    0.66790    1.000
    H72      H        0.84870    0.28120    0.68730    1.000
    H73      H        0.92330    0.22380    0.64990    1.000
    C35      C        0.04730    0.26850    0.70720    1.000
    H74      H        0.05330    0.31670    0.72440    1.000
    C36      C        0.03010    0.21430    0.75210    1.000
    O43      O        0.65950    0.25890    0.60130    1.000
    O44      O        0.59480    0.14990    0.57650    1.000
    H75      H        0.67700    0.14180    0.57400    1.000
    O45      O        0.20690    0.54520    0.71640    1.000
    O46      O        0.39080    0.57590    0.67610    1.000
    O47      O        0.13160    0.17510    0.76090    1.000
    H76      H        0.11480    0.14660    0.78610    1.000
    O48      O        0.92420    0.20820    0.77700    1.000
    Rh5      Rh       0.69388    0.17106    0.88685    1.000
    Ag5      Ag       0.62488    0.21471    0.03716    1.000
    S13      S        0.67997    0.26256    0.94941    1.000
    S14      S        0.70658    0.08266    0.95229    1.000
    S15      S        0.46501    0.16002    0.88229    1.000
    O49      O        0.15450    0.22890    0.91050    1.000
    O50      O        0.10350    0.34430    0.90730    1.000
    O51      O        0.77500    0.96840    0.77180    1.000
    O52      O        0.87030    0.91170    0.83710    1.000
    H77      H        0.87220    0.87830    0.81450    1.000
    O53      O        0.62980    0.30400    0.72410    1.000
    O54      O        0.41100    0.31230    0.73680    1.000
    H78      H        0.35410    0.29440    0.75770    1.000
    N13      N        0.90060    0.18940    0.88919    1.000
    H79      H        0.93950    0.16010    0.91440    1.000
    H80      H        0.93760    0.17930    0.85610    1.000
    N14      N        0.72300    0.08750    0.83179    1.000
    H81      H        0.64170    0.07270    0.81870    1.000
    H82      H        0.77270    0.10380    0.80320    1.000
    N15      N        0.67210    0.24300    0.82288    1.000
    H83      H        0.67320    0.28890    0.83620    1.000
    H84      H        0.74320    0.23810    0.79970    1.000
    C37      C        0.85730    0.28090    0.95640    1.000
    H85      H        0.87110    0.33160    0.96630    1.000
    H86      H        0.89570    0.25070    0.98530    1.000
    C38      C        0.92580    0.26490    0.90320    1.000
    H87      H        0.88710    0.29620    0.87460    1.000
    C39      C        0.07470    0.27980    0.90790    1.000
    C40      C        0.71440    0.00560    0.90643    1.000
    H88      H        0.75910    0.96500    0.92450    1.000
    H89      H        0.62310    0.99060    0.89620    1.000
    C41      C        0.79140    0.02710    0.85700    1.000
    H90      H        0.88370    0.04180    0.86760    1.000
    C42      C        0.79910    0.96460    0.81790    1.000
    C43      C        0.43280    0.22930    0.83210    1.000
    H91      H        0.34870    0.21880    0.81270    1.000
    H92      H        0.42330    0.27620    0.85010    1.000
    C44      C        0.54730    0.23150    0.79280    1.000
    H93      H        0.55330    0.18330    0.77560    1.000
    C45      C        0.53010    0.28570    0.74790    1.000
    O55      O        0.15950    0.24110    0.89870    1.000
    O56      O        0.09480    0.35010    0.92350    1.000
    H94      H        0.17700    0.35820    0.92600    1.000
    O57      O        0.70690    0.95480    0.78360    1.000
    O58      O        0.89080    0.92410    0.82390    1.000
    O59      O        0.63160    0.32490    0.73910    1.000
    H95      H        0.61480    0.35340    0.71390    1.000
    O60      O        0.42420    0.29180    0.72300    1.000
    Rh6      Rh       0.19388    0.67106    0.38685    1.000
    Ag6      Ag       0.12488    0.71471    0.53716    1.000
    S16      S        0.17997    0.76256    0.44941    1.000
    S17      S        0.20658    0.58266    0.45229    1.000
    S18      S        0.96501    0.66002    0.38229    1.000
    O61      O        0.65450    0.72890    0.41050    1.000
    O62      O        0.60350    0.84430    0.40730    1.000
    O63      O        0.27500    0.46840    0.27180    1.000
    O64      O        0.37030    0.41170    0.33710    1.000
    H96      H        0.37220    0.37830    0.31450    1.000
    O65      O        0.12980    0.80400    0.22410    1.000
    O66      O        0.91100    0.81230    0.23680    1.000
    H97      H        0.85410    0.79440    0.25770    1.000
    N16      N        0.40060    0.68940    0.38919    1.000
    H98      H        0.43950    0.66010    0.41440    1.000
    H99      H        0.43760    0.67930    0.35610    1.000
    N17      N        0.22300    0.58750    0.33179    1.000
    H100     H        0.14170    0.57270    0.31870    1.000
    H101     H        0.27270    0.60380    0.30320    1.000
    N18      N        0.17210    0.74300    0.32288    1.000
    H102     H        0.17320    0.78890    0.33620    1.000
    H103     H        0.24320    0.73810    0.29970    1.000
    C46      C        0.35730    0.78090    0.45640    1.000
    H104     H        0.37110    0.83160    0.46630    1.000
    H105     H        0.39570    0.75070    0.48530    1.000
    C47      C        0.42580    0.76490    0.40320    1.000
    H106     H        0.38710    0.79620    0.37460    1.000
    C48      C        0.57470    0.77980    0.40790    1.000
    C49      C        0.21440    0.50560    0.40643    1.000
    H107     H        0.25910    0.46500    0.42450    1.000
    H108     H        0.12310    0.49060    0.39620    1.000
    C50      C        0.29140    0.52710    0.35700    1.000
    H109     H        0.38370    0.54180    0.36760    1.000
    C51      C        0.29910    0.46460    0.31790    1.000
    C52      C        0.93280    0.72930    0.33210    1.000
    H110     H        0.84870    0.71880    0.31270    1.000
    H111     H        0.92330    0.77620    0.35010    1.000
    C53      C        0.04730    0.73150    0.29280    1.000
    H112     H        0.05330    0.68330    0.27560    1.000
    C54      C        0.03010    0.78570    0.24790    1.000
    O67      O        0.65950    0.74110    0.39870    1.000
    O68      O        0.59480    0.85010    0.42350    1.000
    H113     H        0.67700    0.85820    0.42600    1.000
    O69      O        0.20690    0.45480    0.28360    1.000
    O70      O        0.39080    0.42410    0.32390    1.000
    O71      O        0.13160    0.82490    0.23910    1.000
    H114     H        0.11480    0.85340    0.21390    1.000
    O72      O        0.92420    0.79180    0.22300    1.000
    Rh7      Rh       0.30612    0.82894    0.88685    1.000
    Ag7      Ag       0.37512    0.78529    0.03716    1.000
    S19      S        0.32003    0.73744    0.94941    1.000
    S20      S        0.29342    0.91734    0.95229    1.000
    S21      S        0.53499    0.83998    0.88229    1.000
    O73      O        0.84550    0.77110    0.91050    1.000
    O74      O        0.89650    0.65570    0.90730    1.000
    O75      O        0.22500    0.03160    0.77180    1.000
    O76      O        0.12970    0.08830    0.83710    1.000
    H115     H        0.12780    0.12170    0.81450    1.000
    O77      O        0.37020    0.69600    0.72410    1.000
    O78      O        0.58900    0.68770    0.73680    1.000
    H116     H        0.64590    0.70560    0.75770    1.000
    N19      N        0.09940    0.81060    0.88919    1.000
    H117     H        0.06050    0.83990    0.91440    1.000
    H118     H        0.06240    0.82070    0.85610    1.000
    N20      N        0.27700    0.91250    0.83179    1.000
    H119     H        0.35830    0.92730    0.81870    1.000
    H120     H        0.22730    0.89620    0.80320    1.000
    N21      N        0.32790    0.75700    0.82288    1.000
    H121     H        0.32680    0.71110    0.83620    1.000
    H122     H        0.25680    0.76190    0.79970    1.000
    C55      C        0.14270    0.71910    0.95640    1.000
    H123     H        0.12890    0.66840    0.96630    1.000
    H124     H        0.10430    0.74930    0.98530    1.000
    C56      C        0.07420    0.73510    0.90320    1.000
    H125     H        0.11290    0.70380    0.87460    1.000
    C57      C        0.92530    0.72020    0.90790    1.000
    C58      C        0.28560    0.99440    0.90643    1.000
    H126     H        0.24090    0.03500    0.92450    1.000
    H127     H        0.37690    0.00940    0.89620    1.000
    C59      C        0.20860    0.97290    0.85700    1.000
    H128     H        0.11630    0.95820    0.86760    1.000
    C60      C        0.20090    0.03540    0.81790    1.000
    C61      C        0.56720    0.77070    0.83210    1.000
    H129     H        0.65130    0.78120    0.81270    1.000
    H130     H        0.57670    0.72380    0.85010    1.000
    C62      C        0.45270    0.76850    0.79280    1.000
    H131     H        0.44670    0.81670    0.77560    1.000
    C63      C        0.46990    0.71430    0.74790    1.000
    O79      O        0.84050    0.75890    0.89870    1.000
    O80      O        0.90520    0.64990    0.92350    1.000
    H132     H        0.82300    0.64180    0.92600    1.000
    O81      O        0.29310    0.04520    0.78360    1.000
    O82      O        0.10920    0.07590    0.82390    1.000
    O83      O        0.36840    0.67510    0.73910    1.000
    H133     H        0.38520    0.64660    0.71390    1.000
    O84      O        0.57580    0.70820    0.72300    1.000
    Rh8      Rh       0.80612    0.32894    0.38685    1.000
    Ag8      Ag       0.87512    0.28529    0.53716    1.000
    S22      S        0.82003    0.23744    0.44941    1.000
    S23      S        0.79342    0.41734    0.45229    1.000
    S24      S        0.03499    0.33998    0.38229    1.000
    O85      O        0.34550    0.27110    0.41050    1.000
    O86      O        0.39650    0.15570    0.40730    1.000
    O87      O        0.72500    0.53160    0.27180    1.000
    O88      O        0.62970    0.58830    0.33710    1.000
    H134     H        0.62780    0.62170    0.31450    1.000
    O89      O        0.87020    0.19600    0.22410    1.000
    O90      O        0.08900    0.18770    0.23680    1.000
    H135     H        0.14590    0.20560    0.25770    1.000
    N22      N        0.59940    0.31060    0.38919    1.000
    H136     H        0.56050    0.33990    0.41440    1.000
    H137     H        0.56240    0.32070    0.35610    1.000
    N23      N        0.77700    0.41250    0.33179    1.000
    H138     H        0.85830    0.42730    0.31870    1.000
    H139     H        0.72730    0.39620    0.30320    1.000
    N24      N        0.82790    0.25700    0.32288    1.000
    H140     H        0.82680    0.21110    0.33620    1.000
    H141     H        0.75680    0.26190    0.29970    1.000
    C64      C        0.64270    0.21910    0.45640    1.000
    H142     H        0.62890    0.16840    0.46630    1.000
    H143     H        0.60430    0.24930    0.48530    1.000
    C65      C        0.57420    0.23510    0.40320    1.000
    H144     H        0.61290    0.20380    0.37460    1.000
    C66      C        0.42530    0.22020    0.40790    1.000
    C67      C        0.78560    0.49440    0.40643    1.000
    H145     H        0.74090    0.53500    0.42450    1.000
    H146     H        0.87690    0.50940    0.39620    1.000
    C68      C        0.70860    0.47290    0.35700    1.000
    H147     H        0.61630    0.45820    0.36760    1.000
    C69      C        0.70090    0.53540    0.31790    1.000
    C70      C        0.06720    0.27070    0.33210    1.000
    H148     H        0.15130    0.28120    0.31270    1.000
    H149     H        0.07670    0.22380    0.35010    1.000
    C71      C        0.95270    0.26850    0.29280    1.000
    H150     H        0.94670    0.31670    0.27560    1.000
    C72      C        0.96990    0.21430    0.24790    1.000
    O91      O        0.34050    0.25890    0.39870    1.000
    O92      O        0.40520    0.14990    0.42350    1.000
    H151     H        0.32300    0.14180    0.42600    1.000
    O93      O        0.79310    0.54520    0.28360    1.000
    O94      O        0.60920    0.57590    0.32390    1.000
    O95      O        0.86840    0.17510    0.23910    1.000
    H152     H        0.88520    0.14660    0.21390    1.000
    O96      O        0.07580    0.20820    0.22300    1.000
    Ag9      Ag       0.50000    0.07838    0.00000    1.000
    Ag10     Ag       0.00000    0.57838    0.50000    1.000
    Ag11     Ag       0.50000    0.92162    0.00000    1.000
    Ag12     Ag       0.00000    0.42162    0.50000    1.000
