data_functionalizedCrystal
_audit_creation_method	'EQeq! by Chris Wilmer'
_symmetry_space_group_name_H-M	'P1'
_symmetry_Int_Tables_number	1
_symmetry_cell_setting	triclinic
loop_
_symmetry_equiv_pos_as_xyz
  x,y,z
_cell_length_a	22.0101
_cell_length_b	16.5266
_cell_length_c	25.5684
_cell_angle_alpha	90
_cell_angle_beta	115.234
_cell_angle_gamma	90
loop_
_atom_site_label
_atom_site_type_symbol
_atom_site_fract_x
_atom_site_fract_y
_atom_site_fract_z
_atom_site_charge
Mof_Ag	Ag	0.34427	0.95731	0.36747	0.523
Mof_Ag	Ag	0.32249	0.25433	0.86691	0.534
Mof_C 	C 	0.5977	0.471	0.9999	0.098
Mof_C 	C 	0.7773	0.6381	0.0087	-0.131
Mof_H 	H 	0.798	0.6348	0.0489	0.073
Mof_C 	C 	0.2978	0.0839	0.5046	-0.137
Mof_H 	H 	0.3199	0.0878	0.5446	0.086
Mof_C 	C 	0.1235	0.2567	0.501	0.095
Mof_C 	C 	0.0597	0.3016	0.4688	0.068
Mof_C 	C 	0.5032	0.3843	0.9953	-0.143
Mof_H 	H 	0.5226	0.3833	0.0355	0.089
Mof_C 	C 	0.4441	0.3442	0.9639	0.094
Mof_H 	H 	0.4241	0.3164	0.9841	-0.016
Mof_C 	C 	0.2097	0.2262	0.5867	0.1
Mof_C 	C 	0.0327	0.3113	0.4101	-0.154
Mof_H 	H 	0.0542	0.2901	0.3888	0.085
Mof_C 	C 	0.682	0.5526	0.006	0.095
Mof_C 	C 	0.5334	0.4262	0.9659	0.072
Mof_C 	C 	0.2355	0.0643	0.3882	0.089
Mof_H 	H 	0.2138	0.0568	0.3484	-0.012
Mof_C 	C 	0.7203	0.6529	0.8916	0.067
Mof_H 	H 	0.7004	0.6578	0.8515	-0.027
Mof_C 	C 	0.2431	0.2371	0.6505	0.063
Mof_C 	C 	0.679	0.4563	0.1804	-0.139
Mof_H 	H 	0.6348	0.4391	0.1602	0.082
Mof_C 	C 	0.6802	0.5019	0.087	0.097
Mof_C 	C 	0.7149	0.6012	0.9768	0.052
Mof_C 	C 	0.2352	0.1211	0.4736	0.07
Mof_C 	C 	0.0259	0.3351	0.4988	-0.153
Mof_H 	H 	0.0432	0.3307	0.5388	0.078
Mof_C 	C 	0.2038	0.11	0.4142	-0.138
Mof_H 	H 	0.1621	0.1331	0.3923	0.086
Mof_C 	C 	0.6864	0.61	0.9179	-0.134
Mof_H 	H 	0.6445	0.5875	0.8956	0.077
Mof_C 	C 	0.205	0.172	0.5041	0.103
Mof_C 	C 	0.7124	0.4919	0.1512	0.057
Mof_C 	C 	0.9733	0.353	0.3834	0.082
Mof_H 	H 	0.9558	0.3602	0.3436	-0.023
Mof_C 	C 	0.3254	0.0413	0.4734	0.093
Mof_H 	H 	0.3679	0.019	0.4936	-0.015
Mof_C 	C 	0.8076	0.6802	0.9785	0.074
Mof_H 	H 	0.8491	0.7045	0.9995	-0.012
Mof_C 	C 	0.9669	0.3748	0.4681	0.081
Mof_H 	H 	0.9445	0.397	0.4884	-0.023
Mof_C 	C 	0.8068	0.5052	0.2419	0.077
Mof_H 	H 	0.8508	0.5224	0.2628	-0.026
Mof_C 	C 	0.5018	0.4279	0.9063	-0.144
Mof_H 	H 	0.5192	0.4584	0.8853	0.082
Mof_C 	C 	0.4439	0.3833	0.8785	0.087
Mof_H 	H 	0.4247	0.3811	0.8384	-0.009
Mof_C 	C 	0.2153	0.2884	0.6774	-0.141
Mof_H 	H 	0.1767	0.3178	0.6557	0.071
Mof_C 	C 	0.2455	0.2949	0.7362	0.076
Mof_H 	H 	0.2266	0.3299	0.7537	-0.019
Mof_C 	C 	0.7116	0.4466	0.2396	0.078
Mof_H 	H 	0.6886	0.4223	0.2587	-0.015
Mof_C 	C 	0.7781	0.5167	0.1826	-0.145
Mof_H 	H 	0.8024	0.5403	0.1644	0.074
Mof_C 	C 	0.3285	0.2081	0.7436	0.089
Mof_H 	H 	0.368	0.1809	0.7663	-0.022
Mof_C 	C 	0.3023	0.1985	0.6843	-0.146
Mof_H 	H 	0.3241	0.1667	0.6676	0.085
Mof_N 	N 	0.2954	0.0302	0.4168	-0.195
Mof_N 	N 	0.9394	0.3836	0.4111	-0.218
Mof_N 	N 	0.3007	0.254	0.7701	-0.201
Mof_N 	N 	0.2379	0.1772	0.5621	-0.137
Mof_N 	N 	0.1482	0.2105	0.4716	-0.137
Mof_N 	N 	0.1527	0.2669	0.5583	-0.142
Mof_N 	N 	0.4138	0.3427	0.9065	-0.191
Mof_N 	N 	0.7757	0.4712	0.2709	-0.199
Mof_N 	N 	0.7798	0.6869	0.9213	-0.209
Mof_N 	N 	0.623	0.4628	0.0579	-0.137
Mof_N 	N 	0.7113	0.5496	0.0639	-0.15
Mof_N 	N 	0.6261	0.5122	0.9724	-0.142
Mof_Ag	Ag	0.84427	0.45731	0.36747	0.524
Mof_Ag	Ag	0.82249	0.75433	0.86691	0.535
Mof_C 	C 	0.0977	0.971	0.9999	0.1
Mof_C 	C 	0.2773	0.1381	0.0087	-0.138
Mof_H 	H 	0.298	0.1348	0.0489	0.075
Mof_C 	C 	0.7978	0.5839	0.5046	-0.137
Mof_H 	H 	0.8199	0.5878	0.5446	0.086
Mof_C 	C 	0.6235	0.7567	0.501	0.095
Mof_C 	C 	0.5597	0.8016	0.4688	0.068
Mof_C 	C 	0.0032	0.8843	0.9953	-0.137
Mof_H 	H 	0.0226	0.8833	0.0355	0.086
Mof_C 	C 	0.9441	0.8442	0.9639	0.09
Mof_H 	H 	0.9241	0.8164	0.9841	-0.014
Mof_C 	C 	0.7097	0.7262	0.5867	0.1
Mof_C 	C 	0.5327	0.8113	0.4101	-0.153
Mof_H 	H 	0.5542	0.7901	0.3888	0.085
Mof_C 	C 	0.182	0.0526	0.006	0.091
Mof_C 	C 	0.0334	0.9262	0.9659	0.068
Mof_C 	C 	0.7355	0.5643	0.3882	0.089
Mof_H 	H 	0.7138	0.5568	0.3484	-0.012
Mof_C 	C 	0.2203	0.1529	0.8916	0.069
Mof_H 	H 	0.2004	0.1578	0.8515	-0.027
Mof_C 	C 	0.7431	0.7371	0.6505	0.063
Mof_C 	C 	0.179	0.9563	0.1804	-0.139
Mof_H 	H 	0.1348	0.9391	0.1602	0.082
Mof_C 	C 	0.1802	0.0019	0.087	0.096
Mof_C 	C 	0.2149	0.1012	0.9768	0.057
Mof_C 	C 	0.7352	0.6211	0.4736	0.07
Mof_C 	C 	0.5259	0.8351	0.4988	-0.153
Mof_H 	H 	0.5432	0.8307	0.5388	0.077
Mof_C 	C 	0.7038	0.61	0.4142	-0.138
Mof_H 	H 	0.6621	0.6331	0.3923	0.086
Mof_C 	C 	0.1864	0.11	0.9179	-0.137
Mof_H 	H 	0.1445	0.0875	0.8956	0.079
Mof_C 	C 	0.705	0.672	0.5041	0.103
Mof_C 	C 	0.2124	0.9919	0.1512	0.057
Mof_C 	C 	0.4733	0.853	0.3834	0.081
Mof_H 	H 	0.4558	0.8602	0.3436	-0.023
Mof_C 	C 	0.8254	0.5413	0.4734	0.093
Mof_H 	H 	0.8679	0.519	0.4936	-0.015
Mof_C 	C 	0.3076	0.1802	0.9785	0.078
Mof_H 	H 	0.3491	0.2045	0.9995	-0.013
Mof_C 	C 	0.4669	0.8748	0.4681	0.081
Mof_H 	H 	0.4445	0.897	0.4884	-0.023
Mof_C 	C 	0.3068	0.0052	0.2419	0.077
Mof_H 	H 	0.3508	0.0224	0.2628	-0.026
Mof_C 	C 	0.0018	0.9279	0.9063	-0.14
Mof_H 	H 	0.0192	0.9584	0.8853	0.081
Mof_C 	C 	0.9439	0.8833	0.8785	0.084
Mof_H 	H 	0.9247	0.8811	0.8384	-0.008
Mof_C 	C 	0.7153	0.7884	0.6774	-0.141
Mof_H 	H 	0.6767	0.8178	0.6557	0.071
Mof_C 	C 	0.7455	0.7949	0.7362	0.076
Mof_H 	H 	0.7266	0.8299	0.7537	-0.019
Mof_C 	C 	0.2116	0.9466	0.2396	0.078
Mof_H 	H 	0.1886	0.9223	0.2587	-0.015
Mof_C 	C 	0.2781	0.0167	0.1826	-0.145
Mof_H 	H 	0.3024	0.0403	0.1644	0.074
Mof_C 	C 	0.8285	0.7081	0.7436	0.089
Mof_H 	H 	0.868	0.6809	0.7663	-0.022
Mof_C 	C 	0.8023	0.6985	0.6843	-0.146
Mof_H 	H 	0.8241	0.6667	0.6676	0.085
Mof_N 	N 	0.7954	0.5302	0.4168	-0.195
Mof_N 	N 	0.4394	0.8836	0.4111	-0.218
Mof_N 	N 	0.8007	0.754	0.7701	-0.201
Mof_N 	N 	0.7379	0.6772	0.5621	-0.137
Mof_N 	N 	0.6482	0.7105	0.4716	-0.137
Mof_N 	N 	0.6527	0.7669	0.5583	-0.142
Mof_N 	N 	0.9138	0.8427	0.9065	-0.19
Mof_N 	N 	0.2757	0.9712	0.2709	-0.199
Mof_N 	N 	0.2798	0.1869	0.9213	-0.21
Mof_N 	N 	0.123	0.9628	0.0579	-0.138
Mof_N 	N 	0.2113	0.0496	0.0639	-0.149
Mof_N 	N 	0.1261	0.0122	0.9724	-0.141
Mof_Ag	Ag	0.65573	0.95731	0.13253	0.524
Mof_Ag	Ag	0.67751	0.25433	0.63309	0.535
Mof_C 	C 	0.4023	0.471	0.5001	0.099
Mof_C 	C 	0.2227	0.6381	0.4913	-0.134
Mof_H 	H 	0.202	0.6348	0.4511	0.073
Mof_C 	C 	0.7022	0.0839	0.9954	-0.14
Mof_H 	H 	0.6801	0.0878	0.9554	0.087
Mof_C 	C 	0.8765	0.2567	0.999	0.095
Mof_C 	C 	0.9403	0.3016	0.0312	0.066
Mof_C 	C 	0.4968	0.3843	0.5047	-0.142
Mof_H 	H 	0.4774	0.3833	0.4645	0.088
Mof_C 	C 	0.5559	0.3442	0.5361	0.094
Mof_H 	H 	0.5759	0.3164	0.5159	-0.015
Mof_C 	C 	0.7903	0.2262	0.9133	0.1
Mof_C 	C 	0.9673	0.3113	0.0899	-0.15
Mof_H 	H 	0.9458	0.2901	0.1112	0.084
Mof_C 	C 	0.318	0.5526	0.494	0.093
Mof_C 	C 	0.4666	0.4262	0.5341	0.071
Mof_C 	C 	0.7645	0.0643	0.1118	0.089
Mof_H 	H 	0.7862	0.0568	0.1516	-0.012
Mof_C 	C 	0.2797	0.6529	0.6084	0.068
Mof_H 	H 	0.2996	0.6578	0.6485	-0.027
Mof_C 	C 	0.7569	0.2371	0.8495	0.063
Mof_C 	C 	0.321	0.4563	0.3196	-0.139
Mof_H 	H 	0.3652	0.4391	0.3398	0.082
Mof_C 	C 	0.3198	0.5019	0.413	0.097
Mof_C 	C 	0.2851	0.6012	0.5232	0.054
Mof_C 	C 	0.7648	0.1211	0.0264	0.073
Mof_C 	C 	0.9741	0.3351	0.0012	-0.148
Mof_H 	H 	0.9568	0.3307	0.9612	0.075
Mof_C 	C 	0.7962	0.11	0.0858	-0.14
Mof_H 	H 	0.8379	0.1331	0.1077	0.086
Mof_C 	C 	0.3136	0.61	0.5821	-0.136
Mof_H 	H 	0.3555	0.5875	0.6044	0.078
Mof_C 	C 	0.795	0.172	0.9959	0.101
Mof_C 	C 	0.2876	0.4919	0.3488	0.057
Mof_C 	C 	0.0267	0.353	0.1166	0.079
Mof_H 	H 	0.0442	0.3602	0.1564	-0.023
Mof_C 	C 	0.6746	0.0413	0.0266	0.095
Mof_H 	H 	0.6321	0.019	0.0064	-0.016
Mof_C 	C 	0.1924	0.6802	0.5215	0.076
Mof_H 	H 	0.1509	0.7045	0.5005	-0.012
Mof_C 	C 	0.0331	0.3748	0.0319	0.077
Mof_H 	H 	0.0555	0.397	0.0116	-0.022
Mof_C 	C 	0.1932	0.5052	0.2581	0.077
Mof_H 	H 	0.1492	0.5224	0.2372	-0.026
Mof_C 	C 	0.4982	0.4279	0.5937	-0.143
Mof_H 	H 	0.4808	0.4584	0.6147	0.082
Mof_C 	C 	0.5561	0.3833	0.6215	0.087
Mof_H 	H 	0.5753	0.3811	0.6616	-0.009
Mof_C 	C 	0.7847	0.2884	0.8226	-0.141
Mof_H 	H 	0.8233	0.3178	0.8443	0.071
Mof_C 	C 	0.7545	0.2949	0.7638	0.076
Mof_H 	H 	0.7734	0.3299	0.7463	-0.019
Mof_C 	C 	0.2884	0.4466	0.2604	0.078
Mof_H 	H 	0.3114	0.4223	0.2413	-0.015
Mof_C 	C 	0.2219	0.5167	0.3174	-0.145
Mof_H 	H 	0.1976	0.5403	0.3356	0.074
Mof_C 	C 	0.6715	0.2081	0.7564	0.089
Mof_H 	H 	0.632	0.1809	0.7337	-0.022
Mof_C 	C 	0.6977	0.1985	0.8157	-0.146
Mof_H 	H 	0.6759	0.1667	0.8324	0.085
Mof_N 	N 	0.7046	0.0302	0.0832	-0.196
Mof_N 	N 	0.0606	0.3836	0.0889	-0.217
Mof_N 	N 	0.6993	0.254	0.7299	-0.201
Mof_N 	N 	0.7621	0.1772	0.9379	-0.137
Mof_N 	N 	0.8518	0.2105	0.0284	-0.137
Mof_N 	N 	0.8473	0.2669	0.9417	-0.142
Mof_N 	N 	0.5862	0.3427	0.5935	-0.191
Mof_N 	N 	0.2243	0.4712	0.2291	-0.199
Mof_N 	N 	0.2202	0.6869	0.5787	-0.209
Mof_N 	N 	0.377	0.4628	0.4421	-0.137
Mof_N 	N 	0.2887	0.5496	0.4361	-0.15
Mof_N 	N 	0.3739	0.5122	0.5276	-0.141
Mof_Ag	Ag	0.15573	0.45731	0.13253	0.524
Mof_Ag	Ag	0.17751	0.75433	0.63309	0.535
Mof_C 	C 	0.9023	0.971	0.5001	0.099
Mof_C 	C 	0.7227	0.1381	0.4913	-0.134
Mof_H 	H 	0.702	0.1348	0.4511	0.073
Mof_C 	C 	0.2022	0.5839	0.9954	-0.134
Mof_H 	H 	0.1801	0.5878	0.9554	0.085
Mof_C 	C 	0.3765	0.7567	0.999	0.096
Mof_C 	C 	0.4403	0.8016	0.0312	0.067
Mof_C 	C 	0.9968	0.8843	0.5047	-0.143
Mof_H 	H 	0.9774	0.8833	0.4645	0.089
Mof_C 	C 	0.0559	0.8442	0.5361	0.094
Mof_H 	H 	0.0759	0.8164	0.5159	-0.016
Mof_C 	C 	0.2903	0.7262	0.9133	0.1
Mof_C 	C 	0.4673	0.8113	0.0899	-0.153
Mof_H 	H 	0.4458	0.7901	0.1112	0.085
Mof_C 	C 	0.818	0.0526	0.494	0.093
Mof_C 	C 	0.9666	0.9262	0.5341	0.072
Mof_C 	C 	0.2645	0.5643	0.1118	0.088
Mof_H 	H 	0.2862	0.5568	0.1516	-0.012
Mof_C 	C 	0.7797	0.1529	0.6084	0.068
Mof_H 	H 	0.7996	0.1578	0.6485	-0.027
Mof_C 	C 	0.2569	0.7371	0.8495	0.063
Mof_C 	C 	0.821	0.9563	0.3196	-0.139
Mof_H 	H 	0.8652	0.9391	0.3398	0.082
Mof_C 	C 	0.8198	0.0019	0.413	0.096
Mof_C 	C 	0.7851	0.1012	0.5232	0.054
Mof_C 	C 	0.2648	0.6211	0.0264	0.068
Mof_C 	C 	0.4741	0.8351	0.0012	-0.153
Mof_H 	H 	0.4568	0.8307	0.9612	0.077
Mof_C 	C 	0.2962	0.61	0.0858	-0.137
Mof_H 	H 	0.3379	0.6331	0.1077	0.085
Mof_C 	C 	0.8136	0.11	0.5821	-0.136
Mof_H 	H 	0.8555	0.0875	0.6044	0.078
Mof_C 	C 	0.295	0.672	0.9959	0.104
Mof_C 	C 	0.7876	0.9919	0.3488	0.057
Mof_C 	C 	0.5267	0.853	0.1166	0.081
Mof_H 	H 	0.5442	0.8602	0.1564	-0.023
Mof_C 	C 	0.1746	0.5413	0.0266	0.091
Mof_H 	H 	0.1321	0.519	0.0064	-0.015
Mof_C 	C 	0.6924	0.1802	0.5215	0.076
Mof_H 	H 	0.6509	0.2045	0.5005	-0.012
Mof_C 	C 	0.5331	0.8748	0.0319	0.081
Mof_H 	H 	0.5555	0.897	0.0116	-0.023
Mof_C 	C 	0.6932	0.0052	0.2581	0.077
Mof_H 	H 	0.6492	0.0224	0.2372	-0.026
Mof_C 	C 	0.9982	0.9279	0.5937	-0.144
Mof_H 	H 	0.9808	0.9584	0.6147	0.082
Mof_C 	C 	0.0561	0.8833	0.6215	0.088
Mof_H 	H 	0.0753	0.8811	0.6616	-0.009
Mof_C 	C 	0.2847	0.7884	0.8226	-0.141
Mof_H 	H 	0.3233	0.8178	0.8443	0.071
Mof_C 	C 	0.2545	0.7949	0.7638	0.076
Mof_H 	H 	0.2734	0.8299	0.7463	-0.019
Mof_C 	C 	0.7884	0.9466	0.2604	0.078
Mof_H 	H 	0.8114	0.9223	0.2413	-0.015
Mof_C 	C 	0.7219	0.0167	0.3174	-0.145
Mof_H 	H 	0.6976	0.0403	0.3356	0.074
Mof_C 	C 	0.1715	0.7081	0.7564	0.089
Mof_H 	H 	0.132	0.6809	0.7337	-0.022
Mof_C 	C 	0.1977	0.6985	0.8157	-0.146
Mof_H 	H 	0.1759	0.6667	0.8324	0.085
Mof_N 	N 	0.2046	0.5302	0.0832	-0.195
Mof_N 	N 	0.5606	0.8836	0.0889	-0.218
Mof_N 	N 	0.1993	0.754	0.7299	-0.201
Mof_N 	N 	0.2621	0.6772	0.9379	-0.137
Mof_N 	N 	0.3518	0.7105	0.0284	-0.138
Mof_N 	N 	0.3473	0.7669	0.9417	-0.142
Mof_N 	N 	0.0862	0.8427	0.5935	-0.191
Mof_N 	N 	0.7243	0.9712	0.2291	-0.199
Mof_N 	N 	0.7202	0.1869	0.5787	-0.209
Mof_N 	N 	0.877	0.9628	0.4421	-0.137
Mof_N 	N 	0.7887	0.0496	0.4361	-0.15
Mof_N 	N 	0.8739	0.0122	0.5276	-0.141
Mof_Ag	Ag	0.65573	0.04269	0.63253	0.524
Mof_Ag	Ag	0.67751	0.74567	0.13309	0.535
Mof_C 	C 	0.4023	0.529	0.0001	0.098
Mof_C 	C 	0.2227	0.3619	0.9913	-0.131
Mof_H 	H 	0.202	0.3652	0.9511	0.073
Mof_C 	C 	0.7022	0.9161	0.4954	-0.137
Mof_H 	H 	0.6801	0.9122	0.4554	0.086
Mof_C 	C 	0.8765	0.7433	0.499	0.095
Mof_C 	C 	0.9403	0.6984	0.5312	0.068
Mof_C 	C 	0.4968	0.6157	0.0047	-0.143
Mof_H 	H 	0.4774	0.6167	0.9645	0.089
Mof_C 	C 	0.5559	0.6558	0.0361	0.094
Mof_H 	H 	0.5759	0.6836	0.0159	-0.016
Mof_C 	C 	0.7903	0.7738	0.4133	0.1
Mof_C 	C 	0.9673	0.6887	0.5899	-0.154
Mof_H 	H 	0.9458	0.7099	0.6112	0.085
Mof_C 	C 	0.318	0.4474	0.994	0.095
Mof_C 	C 	0.4666	0.5738	0.0341	0.072
Mof_C 	C 	0.7645	0.9357	0.6118	0.089
Mof_H 	H 	0.7862	0.9432	0.6516	-0.012
Mof_C 	C 	0.2797	0.3471	0.1084	0.067
Mof_H 	H 	0.2996	0.3422	0.1485	-0.027
Mof_C 	C 	0.7569	0.7629	0.3495	0.063
Mof_C 	C 	0.321	0.5437	0.8196	-0.139
Mof_H 	H 	0.3652	0.5609	0.8398	0.082
Mof_C 	C 	0.3198	0.4981	0.913	0.097
Mof_C 	C 	0.2851	0.3988	0.0232	0.052
Mof_C 	C 	0.7648	0.8789	0.5264	0.07
Mof_C 	C 	0.9741	0.6649	0.5012	-0.153
Mof_H 	H 	0.9568	0.6693	0.4612	0.078
Mof_C 	C 	0.7962	0.89	0.5858	-0.138
Mof_H 	H 	0.8379	0.8669	0.6077	0.086
Mof_C 	C 	0.3136	0.39	0.0821	-0.134
Mof_H 	H 	0.3555	0.4125	0.1044	0.077
Mof_C 	C 	0.795	0.828	0.4959	0.103
Mof_C 	C 	0.2876	0.5081	0.8488	0.057
Mof_C 	C 	0.0267	0.647	0.6166	0.082
Mof_H 	H 	0.0442	0.6398	0.6564	-0.023
Mof_C 	C 	0.6746	0.9587	0.5266	0.093
Mof_H 	H 	0.6321	0.981	0.5064	-0.015
Mof_C 	C 	0.1924	0.3198	0.0215	0.074
Mof_H 	H 	0.1509	0.2955	0.0005	-0.012
Mof_C 	C 	0.0331	0.6252	0.5319	0.081
Mof_H 	H 	0.0555	0.603	0.5116	-0.023
Mof_C 	C 	0.1932	0.4948	0.7581	0.077
Mof_H 	H 	0.1492	0.4776	0.7372	-0.026
Mof_C 	C 	0.4982	0.5721	0.0937	-0.144
Mof_H 	H 	0.4808	0.5416	0.1147	0.082
Mof_C 	C 	0.5561	0.6167	0.1215	0.087
Mof_H 	H 	0.5753	0.6189	0.1616	-0.009
Mof_C 	C 	0.7847	0.7116	0.3226	-0.141
Mof_H 	H 	0.8233	0.6822	0.3443	0.071
Mof_C 	C 	0.7545	0.7051	0.2638	0.076
Mof_H 	H 	0.7734	0.6701	0.2463	-0.019
Mof_C 	C 	0.2884	0.5534	0.7604	0.078
Mof_H 	H 	0.3114	0.5777	0.7413	-0.015
Mof_C 	C 	0.2219	0.4833	0.8174	-0.145
Mof_H 	H 	0.1976	0.4597	0.8356	0.074
Mof_C 	C 	0.6715	0.7919	0.2564	0.089
Mof_H 	H 	0.632	0.8191	0.2337	-0.022
Mof_C 	C 	0.6977	0.8015	0.3157	-0.146
Mof_H 	H 	0.6759	0.8333	0.3324	0.085
Mof_N 	N 	0.7046	0.9698	0.5832	-0.195
Mof_N 	N 	0.0606	0.6164	0.5889	-0.218
Mof_N 	N 	0.6993	0.746	0.2299	-0.201
Mof_N 	N 	0.7621	0.8228	0.4379	-0.137
Mof_N 	N 	0.8518	0.7895	0.5284	-0.137
Mof_N 	N 	0.8473	0.7331	0.4417	-0.142
Mof_N 	N 	0.5862	0.6573	0.0935	-0.191
Mof_N 	N 	0.2243	0.5288	0.7291	-0.199
Mof_N 	N 	0.2202	0.3131	0.0787	-0.209
Mof_N 	N 	0.377	0.5372	0.9421	-0.137
Mof_N 	N 	0.2887	0.4504	0.9361	-0.15
Mof_N 	N 	0.3739	0.4878	0.0276	-0.142
Mof_Ag	Ag	0.15573	0.54269	0.63253	0.524
Mof_Ag	Ag	0.17751	0.24567	0.13309	0.535
Mof_C 	C 	0.9023	0.029	0.0001	0.1
Mof_C 	C 	0.7227	0.8619	0.9913	-0.138
Mof_H 	H 	0.702	0.8652	0.9511	0.075
Mof_C 	C 	0.2022	0.4161	0.4954	-0.137
Mof_H 	H 	0.1801	0.4122	0.4554	0.086
Mof_C 	C 	0.3765	0.2433	0.499	0.095
Mof_C 	C 	0.4403	0.1984	0.5312	0.068
Mof_C 	C 	0.9968	0.1157	0.0047	-0.137
Mof_H 	H 	0.9774	0.1167	0.9645	0.086
Mof_C 	C 	0.0559	0.1558	0.0361	0.09
Mof_H 	H 	0.0759	0.1836	0.0159	-0.014
Mof_C 	C 	0.2903	0.2738	0.4133	0.1
Mof_C 	C 	0.4673	0.1887	0.5899	-0.153
Mof_H 	H 	0.4458	0.2099	0.6112	0.085
Mof_C 	C 	0.818	0.9474	0.994	0.091
Mof_C 	C 	0.9666	0.0738	0.0341	0.068
Mof_C 	C 	0.2645	0.4357	0.6118	0.089
Mof_H 	H 	0.2862	0.4432	0.6516	-0.012
Mof_C 	C 	0.7797	0.8471	0.1084	0.069
Mof_H 	H 	0.7996	0.8422	0.1485	-0.027
Mof_C 	C 	0.2569	0.2629	0.3495	0.063
Mof_C 	C 	0.821	0.0437	0.8196	-0.139
Mof_H 	H 	0.8652	0.0609	0.8398	0.082
Mof_C 	C 	0.8198	0.9981	0.913	0.096
Mof_C 	C 	0.7851	0.8988	0.0232	0.057
Mof_C 	C 	0.2648	0.3789	0.5264	0.07
Mof_C 	C 	0.4741	0.1649	0.5012	-0.153
Mof_H 	H 	0.4568	0.1693	0.4612	0.077
Mof_C 	C 	0.2962	0.39	0.5858	-0.138
Mof_H 	H 	0.3379	0.3669	0.6077	0.086
Mof_C 	C 	0.8136	0.89	0.0821	-0.137
Mof_H 	H 	0.8555	0.9125	0.1044	0.079
Mof_C 	C 	0.295	0.328	0.4959	0.103
Mof_C 	C 	0.7876	0.0081	0.8488	0.057
Mof_C 	C 	0.5267	0.147	0.6166	0.081
Mof_H 	H 	0.5442	0.1398	0.6564	-0.023
Mof_C 	C 	0.1746	0.4587	0.5266	0.093
Mof_H 	H 	0.1321	0.481	0.5064	-0.015
Mof_C 	C 	0.6924	0.8198	0.0215	0.078
Mof_H 	H 	0.6509	0.7955	0.0005	-0.013
Mof_C 	C 	0.5331	0.1252	0.5319	0.081
Mof_H 	H 	0.5555	0.103	0.5116	-0.023
Mof_C 	C 	0.6932	0.9948	0.7581	0.077
Mof_H 	H 	0.6492	0.9776	0.7372	-0.026
Mof_C 	C 	0.9982	0.0721	0.0937	-0.14
Mof_H 	H 	0.9808	0.0416	0.1147	0.081
Mof_C 	C 	0.0561	0.1167	0.1215	0.084
Mof_H 	H 	0.0753	0.1189	0.1616	-0.008
Mof_C 	C 	0.2847	0.2116	0.3226	-0.141
Mof_H 	H 	0.3233	0.1822	0.3443	0.071
Mof_C 	C 	0.2545	0.2051	0.2638	0.076
Mof_H 	H 	0.2734	0.1701	0.2463	-0.019
Mof_C 	C 	0.7884	0.0534	0.7604	0.078
Mof_H 	H 	0.8114	0.0777	0.7413	-0.015
Mof_C 	C 	0.7219	0.9833	0.8174	-0.145
Mof_H 	H 	0.6976	0.9597	0.8356	0.074
Mof_C 	C 	0.1715	0.2919	0.2564	0.089
Mof_H 	H 	0.132	0.3191	0.2337	-0.022
Mof_C 	C 	0.1977	0.3015	0.3157	-0.146
Mof_H 	H 	0.1759	0.3333	0.3324	0.085
Mof_N 	N 	0.2046	0.4698	0.5832	-0.195
Mof_N 	N 	0.5606	0.1164	0.5889	-0.218
Mof_N 	N 	0.1993	0.246	0.2299	-0.201
Mof_N 	N 	0.2621	0.3228	0.4379	-0.137
Mof_N 	N 	0.3518	0.2895	0.5284	-0.137
Mof_N 	N 	0.3473	0.2331	0.4417	-0.142
Mof_N 	N 	0.0862	0.1573	0.0935	-0.19
Mof_N 	N 	0.7243	0.0288	0.7291	-0.199
Mof_N 	N 	0.7202	0.8131	0.0787	-0.21
Mof_N 	N 	0.877	0.0372	0.9421	-0.138
Mof_N 	N 	0.7887	0.9504	0.9361	-0.149
Mof_N 	N 	0.8739	0.9878	0.0276	-0.141
Mof_Ag	Ag	0.34427	0.04269	0.86747	0.524
Mof_Ag	Ag	0.32249	0.74567	0.36691	0.535
Mof_C 	C 	0.5977	0.529	0.4999	0.099
Mof_C 	C 	0.7773	0.3619	0.5087	-0.134
Mof_H 	H 	0.798	0.3652	0.5489	0.073
Mof_C 	C 	0.2978	0.9161	0.0046	-0.14
Mof_H 	H 	0.3199	0.9122	0.0446	0.087
Mof_C 	C 	0.1235	0.7433	0.001	0.095
Mof_C 	C 	0.0597	0.6984	0.9688	0.066
Mof_C 	C 	0.5032	0.6157	0.4953	-0.142
Mof_H 	H 	0.5226	0.6167	0.5355	0.088
Mof_C 	C 	0.4441	0.6558	0.4639	0.094
Mof_H 	H 	0.4241	0.6836	0.4841	-0.015
Mof_C 	C 	0.2097	0.7738	0.0867	0.1
Mof_C 	C 	0.0327	0.6887	0.9101	-0.15
Mof_H 	H 	0.0542	0.7099	0.8888	0.084
Mof_C 	C 	0.682	0.4474	0.506	0.093
Mof_C 	C 	0.5334	0.5738	0.4659	0.071
Mof_C 	C 	0.2355	0.9357	0.8882	0.089
Mof_H 	H 	0.2138	0.9432	0.8484	-0.012
Mof_C 	C 	0.7203	0.3471	0.3916	0.068
Mof_H 	H 	0.7004	0.3422	0.3515	-0.027
Mof_C 	C 	0.2431	0.7629	0.1505	0.063
Mof_C 	C 	0.679	0.5437	0.6804	-0.139
Mof_H 	H 	0.6348	0.5609	0.6602	0.082
Mof_C 	C 	0.6802	0.4981	0.587	0.097
Mof_C 	C 	0.7149	0.3988	0.4768	0.054
Mof_C 	C 	0.2352	0.8789	0.9736	0.073
Mof_C 	C 	0.0259	0.6649	0.9988	-0.148
Mof_H 	H 	0.0432	0.6693	0.0388	0.075
Mof_C 	C 	0.2038	0.89	0.9142	-0.14
Mof_H 	H 	0.1621	0.8669	0.8923	0.086
Mof_C 	C 	0.6864	0.39	0.4179	-0.136
Mof_H 	H 	0.6445	0.4125	0.3956	0.078
Mof_C 	C 	0.205	0.828	0.0041	0.101
Mof_C 	C 	0.7124	0.5081	0.6512	0.057
Mof_C 	C 	0.9733	0.647	0.8834	0.079
Mof_H 	H 	0.9558	0.6398	0.8436	-0.023
Mof_C 	C 	0.3254	0.9587	0.9734	0.095
Mof_H 	H 	0.3679	0.981	0.9936	-0.016
Mof_C 	C 	0.8076	0.3198	0.4785	0.076
Mof_H 	H 	0.8491	0.2955	0.4995	-0.012
Mof_C 	C 	0.9669	0.6252	0.9681	0.077
Mof_H 	H 	0.9445	0.603	0.9884	-0.022
Mof_C 	C 	0.8068	0.4948	0.7419	0.077
Mof_H 	H 	0.8508	0.4776	0.7628	-0.026
Mof_C 	C 	0.5018	0.5721	0.4063	-0.143
Mof_H 	H 	0.5192	0.5416	0.3853	0.082
Mof_C 	C 	0.4439	0.6167	0.3785	0.087
Mof_H 	H 	0.4247	0.6189	0.3384	-0.009
Mof_C 	C 	0.2153	0.7116	0.1774	-0.141
Mof_H 	H 	0.1767	0.6822	0.1557	0.071
Mof_C 	C 	0.2455	0.7051	0.2362	0.076
Mof_H 	H 	0.2266	0.6701	0.2537	-0.019
Mof_C 	C 	0.7116	0.5534	0.7396	0.078
Mof_H 	H 	0.6886	0.5777	0.7587	-0.015
Mof_C 	C 	0.7781	0.4833	0.6826	-0.145
Mof_H 	H 	0.8024	0.4597	0.6644	0.074
Mof_C 	C 	0.3285	0.7919	0.2436	0.089
Mof_H 	H 	0.368	0.8191	0.2663	-0.022
Mof_C 	C 	0.3023	0.8015	0.1843	-0.146
Mof_H 	H 	0.3241	0.8333	0.1676	0.085
Mof_N 	N 	0.2954	0.9698	0.9168	-0.196
Mof_N 	N 	0.9394	0.6164	0.9111	-0.217
Mof_N 	N 	0.3007	0.746	0.2701	-0.201
Mof_N 	N 	0.2379	0.8228	0.0621	-0.137
Mof_N 	N 	0.1482	0.7895	0.9716	-0.137
Mof_N 	N 	0.1527	0.7331	0.0583	-0.142
Mof_N 	N 	0.4138	0.6573	0.4065	-0.191
Mof_N 	N 	0.7757	0.5288	0.7709	-0.199
Mof_N 	N 	0.7798	0.3131	0.4213	-0.209
Mof_N 	N 	0.623	0.5372	0.5579	-0.137
Mof_N 	N 	0.7113	0.4504	0.5639	-0.15
Mof_N 	N 	0.6261	0.4878	0.4724	-0.141
Mof_Ag	Ag	0.84427	0.54269	0.86747	0.524
Mof_Ag	Ag	0.82249	0.24567	0.36691	0.535
Mof_C 	C 	0.0977	0.029	0.4999	0.099
Mof_C 	C 	0.2773	0.8619	0.5087	-0.134
Mof_H 	H 	0.298	0.8652	0.5489	0.073
Mof_C 	C 	0.7978	0.4161	0.0046	-0.134
Mof_H 	H 	0.8199	0.4122	0.0446	0.085
Mof_C 	C 	0.6235	0.2433	0.001	0.096
Mof_C 	C 	0.5597	0.1984	0.9688	0.067
Mof_C 	C 	0.0032	0.1157	0.4953	-0.143
Mof_H 	H 	0.0226	0.1167	0.5355	0.089
Mof_C 	C 	0.9441	0.1558	0.4639	0.094
Mof_H 	H 	0.9241	0.1836	0.4841	-0.016
Mof_C 	C 	0.7097	0.2738	0.0867	0.1
Mof_C 	C 	0.5327	0.1887	0.9101	-0.153
Mof_H 	H 	0.5542	0.2099	0.8888	0.085
Mof_C 	C 	0.182	0.9474	0.506	0.093
Mof_C 	C 	0.0334	0.0738	0.4659	0.072
Mof_C 	C 	0.7355	0.4357	0.8882	0.088
Mof_H 	H 	0.7138	0.4432	0.8484	-0.012
Mof_C 	C 	0.2203	0.8471	0.3916	0.068
Mof_H 	H 	0.2004	0.8422	0.3515	-0.027
Mof_C 	C 	0.7431	0.2629	0.1505	0.063
Mof_C 	C 	0.179	0.0437	0.6804	-0.139
Mof_H 	H 	0.1348	0.0609	0.6602	0.082
Mof_C 	C 	0.1802	0.9981	0.587	0.096
Mof_C 	C 	0.2149	0.8988	0.4768	0.054
Mof_C 	C 	0.7352	0.3789	0.9736	0.068
Mof_C 	C 	0.5259	0.1649	0.9988	-0.153
Mof_H 	H 	0.5432	0.1693	0.0388	0.077
Mof_C 	C 	0.7038	0.39	0.9142	-0.137
Mof_H 	H 	0.6621	0.3669	0.8923	0.085
Mof_C 	C 	0.1864	0.89	0.4179	-0.136
Mof_H 	H 	0.1445	0.9125	0.3956	0.078
Mof_C 	C 	0.705	0.328	0.0041	0.104
Mof_C 	C 	0.2124	0.0081	0.6512	0.057
Mof_C 	C 	0.4733	0.147	0.8834	0.081
Mof_H 	H 	0.4558	0.1398	0.8436	-0.023
Mof_C 	C 	0.8254	0.4587	0.9734	0.091
Mof_H 	H 	0.8679	0.481	0.9936	-0.015
Mof_C 	C 	0.3076	0.8198	0.4785	0.076
Mof_H 	H 	0.3491	0.7955	0.4995	-0.012
Mof_C 	C 	0.4669	0.1252	0.9681	0.081
Mof_H 	H 	0.4445	0.103	0.9884	-0.023
Mof_C 	C 	0.3068	0.9948	0.7419	0.077
Mof_H 	H 	0.3508	0.9776	0.7628	-0.026
Mof_C 	C 	0.0018	0.0721	0.4063	-0.144
Mof_H 	H 	0.0192	0.0416	0.3853	0.082
Mof_C 	C 	0.9439	0.1167	0.3785	0.088
Mof_H 	H 	0.9247	0.1189	0.3384	-0.009
Mof_C 	C 	0.7153	0.2116	0.1774	-0.141
Mof_H 	H 	0.6767	0.1822	0.1557	0.071
Mof_C 	C 	0.7455	0.2051	0.2362	0.076
Mof_H 	H 	0.7266	0.1701	0.2537	-0.019
Mof_C 	C 	0.2116	0.0534	0.7396	0.078
Mof_H 	H 	0.1886	0.0777	0.7587	-0.015
Mof_C 	C 	0.2781	0.9833	0.6826	-0.145
Mof_H 	H 	0.3024	0.9597	0.6644	0.074
Mof_C 	C 	0.8285	0.2919	0.2436	0.089
Mof_H 	H 	0.868	0.3191	0.2663	-0.022
Mof_C 	C 	0.8023	0.3015	0.1843	-0.146
Mof_H 	H 	0.8241	0.3333	0.1676	0.085
Mof_N 	N 	0.7954	0.4698	0.9168	-0.195
Mof_N 	N 	0.4394	0.1164	0.9111	-0.218
Mof_N 	N 	0.8007	0.246	0.2701	-0.201
Mof_N 	N 	0.7379	0.3228	0.0621	-0.137
Mof_N 	N 	0.6482	0.2895	0.9716	-0.138
Mof_N 	N 	0.6527	0.2331	0.0583	-0.142
Mof_N 	N 	0.9138	0.1573	0.4065	-0.191
Mof_N 	N 	0.2757	0.0288	0.7709	-0.199
Mof_N 	N 	0.2798	0.8131	0.4213	-0.209
Mof_N 	N 	0.123	0.0372	0.5579	-0.137
Mof_N 	N 	0.2113	0.9504	0.5639	-0.15
Mof_N 	N 	0.1261	0.9878	0.4724	-0.141
_end
