# CIF file generated by openbabel 3.1.0, see https://openbabel.org
data_I
_chemical_name_common 'image0'
_cell_length_a 13.758
_cell_length_b 8.18
_cell_length_c 18.037
_cell_angle_alpha 90
_cell_angle_beta 106.647
_cell_angle_gamma 90
_space_group_name_H-M_alt 'P 1'
_space_group_name_Hall 'P 1'
loop_
    _symmetry_equiv_pos_as_xyz
    x,y,z
loop_
    _atom_site_label
    _atom_site_type_symbol
    _atom_site_fract_x
    _atom_site_fract_y
    _atom_site_fract_z
    _atom_site_occupancy
    U1       U        0.76746    0.07603    0.45994    1.000
    U2       U        0.91195    0.78605    0.73467    1.000
    P1       P        0.00490    0.05500    0.60960    1.000
    H1       H        0.02720    0.12110    0.65670    1.000
    P2       P        0.76930    0.15530    0.65780    1.000
    H2       H        0.83810    0.20010    0.67580    1.000
    O1       O        0.92610    0.15730    0.55030    1.000
    O2       O        0.95460    0.90330    0.63040    1.000
    O3       O        0.09750    0.01780    0.58530    1.000
    O4       O        0.73280    0.17700    0.57010    1.000
    O5       O        0.69850    0.98810    0.32710    1.000
    O6       O        0.77550    0.97520    0.67960    1.000
    O7       O        0.70380    0.25300    0.69460    1.000
    O8       O        0.48440    0.89260    0.34550    1.000
    O9       O        0.57650    0.80880    0.23010    1.000
    O10      O        0.58520    0.12210    0.42660    1.000
    P3       P        0.49830    0.07390    0.35810    1.000
    H3       H        0.50960    0.12240    0.31160    1.000
    P4       P        0.67840    0.82550    0.28900    1.000
    H4       H        0.67950    0.74610    0.33000    1.000
    O11      O        0.40400    0.15630    0.37260    1.000
    H5       H        0.39840    0.12670    0.41460    1.000
    O12      O        0.76790    0.78300    0.25780    1.000
    H6       H        0.79050    0.86650    0.24410    1.000
    U3       U        0.73254    0.57603    0.04006    1.000
    U4       U        0.58805    0.28605    0.76533    1.000
    P5       P        0.49510    0.55500    0.89040    1.000
    H7       H        0.47280    0.62110    0.84330    1.000
    P6       P        0.73070    0.65530    0.84220    1.000
    H8       H        0.66190    0.70010    0.82420    1.000
    O13      O        0.57390    0.65730    0.94970    1.000
    O14      O        0.54540    0.40330    0.86960    1.000
    O15      O        0.40250    0.51780    0.91470    1.000
    O16      O        0.76720    0.67700    0.92990    1.000
    O17      O        0.80150    0.48810    0.17290    1.000
    O18      O        0.72450    0.47520    0.82040    1.000
    O19      O        0.79620    0.75300    0.80540    1.000
    O20      O        0.01560    0.39260    0.15450    1.000
    O21      O        0.92350    0.30880    0.26990    1.000
    O22      O        0.91480    0.62210    0.07340    1.000
    P7       P        0.00170    0.57390    0.14190    1.000
    H9       H        0.99040    0.62240    0.18840    1.000
    P8       P        0.82160    0.32550    0.21100    1.000
    H10      H        0.82050    0.24610    0.17000    1.000
    O23      O        0.09600    0.65630    0.12740    1.000
    H11      H        0.10160    0.62670    0.08540    1.000
    O24      O        0.73210    0.28300    0.24220    1.000
    H12      H        0.70950    0.36650    0.25590    1.000
    U5       U        0.23254    0.92397    0.54006    1.000
    U6       U        0.08805    0.21395    0.26533    1.000
    P9       P        0.99510    0.94500    0.39040    1.000
    H13      H        0.97280    0.87890    0.34330    1.000
    P10      P        0.23070    0.84470    0.34220    1.000
    H14      H        0.16190    0.79990    0.32420    1.000
    O25      O        0.07390    0.84270    0.44970    1.000
    O26      O        0.04540    0.09670    0.36960    1.000
    O27      O        0.90250    0.98220    0.41470    1.000
    O28      O        0.26720    0.82300    0.42990    1.000
    O29      O        0.30150    0.01190    0.67290    1.000
    O30      O        0.22450    0.02480    0.32040    1.000
    O31      O        0.29620    0.74700    0.30540    1.000
    O32      O        0.51560    0.10740    0.65450    1.000
    O33      O        0.42350    0.19120    0.76990    1.000
    O34      O        0.41480    0.87790    0.57340    1.000
    P11      P        0.50170    0.92610    0.64190    1.000
    H15      H        0.49040    0.87760    0.68840    1.000
    P12      P        0.32160    0.17450    0.71100    1.000
    H16      H        0.32050    0.25390    0.67000    1.000
    O35      O        0.59600    0.84370    0.62740    1.000
    H17      H        0.60160    0.87330    0.58540    1.000
    O36      O        0.23210    0.21700    0.74220    1.000
    H18      H        0.20950    0.13350    0.75590    1.000
    U7       U        0.26746    0.42397    0.95994    1.000
    U8       U        0.41195    0.71395    0.23467    1.000
    P13      P        0.50490    0.44500    0.10960    1.000
    H19      H        0.52720    0.37890    0.15670    1.000
    P14      P        0.26930    0.34470    0.15780    1.000
    H20      H        0.33810    0.29990    0.17580    1.000
    O37      O        0.42610    0.34270    0.05030    1.000
    O38      O        0.45460    0.59670    0.13040    1.000
    O39      O        0.59750    0.48220    0.08530    1.000
    O40      O        0.23280    0.32300    0.07010    1.000
    O41      O        0.19850    0.51190    0.82710    1.000
    O42      O        0.27550    0.52480    0.17960    1.000
    O43      O        0.20380    0.24700    0.19460    1.000
    O44      O        0.98440    0.60740    0.84550    1.000
    O45      O        0.07650    0.69120    0.73010    1.000
    O46      O        0.08520    0.37790    0.92660    1.000
    P15      P        0.99830    0.42610    0.85810    1.000
    H21      H        0.00960    0.37760    0.81160    1.000
    P16      P        0.17840    0.67450    0.78900    1.000
    H22      H        0.17950    0.75390    0.83000    1.000
    O47      O        0.90400    0.34370    0.87260    1.000
    H23      H        0.89840    0.37330    0.91460    1.000
    O48      O        0.26790    0.71700    0.75780    1.000
    H24      H        0.29050    0.63350    0.74410    1.000
