data_functionalizedCrystal
_audit_creation_method	'EQeq! by Chris Wilmer'
_symmetry_space_group_name_H-M	'P1'
_symmetry_Int_Tables_number	1
_symmetry_cell_setting	triclinic
loop_
_symmetry_equiv_pos_as_xyz
  x,y,z
_cell_length_a	9.7589
_cell_length_b	18.9319
_cell_length_c	19.6525
_cell_angle_alpha	103.092
_cell_angle_beta	90
_cell_angle_gamma	104.936
loop_
_atom_site_label
_atom_site_type_symbol
_atom_site_fract_x
_atom_site_fract_y
_atom_site_fract_z
_atom_site_charge
Mof_Li	Li	0.5444	0.9608	0.6907	-16.516
Mof_Li	Li	0.5836	0.0392	0.8093	-16.178
Mof_Li	Li	0.4556	0.0392	0.3093	-16.515
Mof_Li	Li	0.4164	0.9608	0.1907	-16.177
Mof_In	In	0.4553	0.78705	0.61196	3.335
Mof_In	In	0.66825	0.21295	0.88804	3.315
Mof_In	In	0.5447	0.21295	0.38804	3.335
Mof_In	In	0.33175	0.78705	0.11196	3.315
Mof_H 	H 	0.3574	0.5904	0.7204	0.101
Mof_H 	H 	0.3877	0.7846	0.865	0.213
Mof_H 	H 	0.2626	0.586	0.9186	0.098
Mof_H 	H 	0.3811	0.3538	0.7002	0.075
Mof_H 	H 	0.4343	0.4832	0.7338	0.039
Mof_H 	H 	0.0971	0.4698	0.853	0.039
Mof_H 	H 	0.0434	0.3402	0.821	0.068
Mof_H 	H 	0.3138	0.1102	0.6919	0.299
Mof_H 	H 	0.3679	0.2384	0.7329	0.062
Mof_H 	H 	0.9544	0.2322	0.7271	0.066
Mof_H 	H 	0.8986	0.1034	0.6921	0.251
Mof_H 	H 	0.2651	0.9952	0.6579	0.885
Mof_H 	H 	0.9624	0.7954	0.6124	0.482
Mof_H 	H 	0.8501	0.9894	0.6629	0.874
Mof_H 	H 	0.767	0.4096	0.7796	0.1
Mof_H 	H 	0.6031	0.2154	0.635	0.214
Mof_H 	H 	0.6766	0.414	0.5814	0.098
Mof_H 	H 	0.0273	0.6462	0.7998	0.065
Mof_H 	H 	0.9511	0.5168	0.7662	0.045
Mof_H 	H 	0.6273	0.5302	0.647	0.042
Mof_H 	H 	0.7032	0.6598	0.679	0.062
Mof_H 	H 	0.2036	0.8898	0.8081	0.294
Mof_H 	H 	0.1295	0.7616	0.7671	0.068
Mof_H 	H 	0.7222	0.7678	0.7729	0.077
Mof_H 	H 	0.7952	0.8966	0.8079	0.244
Mof_H 	H 	0.2699	0.0048	0.8421	0.866
Mof_H 	H 	0.167	0.2046	0.8876	0.47
Mof_H 	H 	0.8607	0.0106	0.8371	0.853
Mof_H 	H 	0.6426	0.4096	0.2796	0.101
Mof_H 	H 	0.6123	0.2154	0.135	0.213
Mof_H 	H 	0.7374	0.414	0.0814	0.098
Mof_H 	H 	0.6189	0.6462	0.2998	0.075
Mof_H 	H 	0.5657	0.5168	0.2662	0.039
Mof_H 	H 	0.9029	0.5302	0.147	0.039
Mof_H 	H 	0.9566	0.6598	0.179	0.068
Mof_H 	H 	0.6862	0.8898	0.3081	0.299
Mof_H 	H 	0.6321	0.7616	0.2671	0.062
Mof_H 	H 	0.0456	0.7678	0.2729	0.066
Mof_H 	H 	0.1014	0.8966	0.3079	0.251
Mof_H 	H 	0.7349	0.0048	0.3421	0.885
Mof_H 	H 	0.0376	0.2046	0.3876	0.482
Mof_H 	H 	0.1499	0.0106	0.3371	0.874
Mof_H 	H 	0.233	0.5904	0.2204	0.1
Mof_H 	H 	0.3969	0.7846	0.365	0.214
Mof_H 	H 	0.3234	0.586	0.4186	0.098
Mof_H 	H 	0.9727	0.3538	0.2002	0.065
Mof_H 	H 	0.0489	0.4832	0.2338	0.045
Mof_H 	H 	0.3727	0.4698	0.353	0.042
Mof_H 	H 	0.2968	0.3402	0.321	0.062
Mof_H 	H 	0.7964	0.1102	0.1919	0.294
Mof_H 	H 	0.8705	0.2384	0.2329	0.068
Mof_H 	H 	0.2778	0.2322	0.2271	0.077
Mof_H 	H 	0.2048	0.1034	0.1921	0.244
Mof_H 	H 	0.7301	0.9952	0.1579	0.866
Mof_H 	H 	0.833	0.7954	0.1124	0.47
Mof_H 	H 	0.1393	0.9894	0.1629	0.853
Mof_C 	C 	0.4151	0.7352	0.727	0.156
Mof_C 	C 	0.3199	0.729	0.9767	0.224
Mof_C 	C 	0.3468	0.616	0.7669	-0.138
Mof_C 	C 	0.376	0.6936	0.7835	0.114
Mof_C 	C 	0.3659	0.7312	0.8523	-0.155
Mof_C 	C 	0.3242	0.6906	0.902	0.093
Mof_C 	C 	0.2923	0.6132	0.8837	-0.134
Mof_C 	C 	0.3019	0.5738	0.8164	0.087
Mof_C 	C 	0.3226	0.3772	0.7313	-0.086
Mof_C 	C 	0.3541	0.454	0.7514	-0.009
Mof_C 	C 	0.2708	0.4906	0.7972	-0.03
Mof_C 	C 	0.1553	0.4462	0.8219	-0.013
Mof_C 	C 	0.1227	0.369	0.8025	-0.081
Mof_C 	C 	0.2047	0.3324	0.7561	0.064
Mof_C 	C 	0.2395	0.1344	0.7002	-0.08
Mof_C 	C 	0.271	0.2108	0.7233	0.076
Mof_C 	C 	0.169	0.2502	0.7333	-0.033
Mof_C 	C 	0.0285	0.2076	0.7208	0.074
Mof_C 	C 	0.9958	0.131	0.6997	-0.089
Mof_C 	C 	0.0979	0.092	0.689	-0.037
Mof_C 	C 	0.0629	0.0078	0.6651	0.92
Mof_C 	C 	0.1678	0.9682	0.6534	-1.08
Mof_C 	C 	0.1307	0.89	0.6353	1.274
Mof_C 	C 	0.9876	0.8488	0.6256	-1.09
Mof_C 	C 	0.8851	0.8868	0.6354	1.298
Mof_C 	C 	0.9234	0.9644	0.6554	-1.141
Mof_C 	C 	0.2457	0.8508	0.6259	-1.234
Mof_C 	C 	0.7324	0.845	0.6268	-1.187
Mof_C 	C 	0.6799	0.2648	0.773	0.161
Mof_C 	C 	0.5909	0.271	0.5233	0.23
Mof_C 	C 	0.7308	0.384	0.7331	-0.134
Mof_C 	C 	0.6824	0.3064	0.7165	0.111
Mof_C 	C 	0.6347	0.2688	0.6477	-0.153
Mof_C 	C 	0.6336	0.3094	0.598	0.091
Mof_C 	C 	0.6791	0.3868	0.6163	-0.131
Mof_C 	C 	0.7281	0.4262	0.6836	0.083
Mof_C 	C 	0.9454	0.6228	0.7687	-0.064
Mof_C 	C 	0.9001	0.546	0.7486	-0.022
Mof_C 	C 	0.7802	0.5094	0.7028	-0.02
Mof_C 	C 	0.7091	0.5538	0.6781	-0.024
Mof_C 	C 	0.7537	0.631	0.6975	-0.068
Mof_C 	C 	0.8723	0.6676	0.7439	0.046
Mof_C 	C 	0.1051	0.8656	0.7998	-0.071
Mof_C 	C 	0.0602	0.7892	0.7767	0.054
Mof_C 	C 	0.9188	0.7498	0.7667	-0.007
Mof_C 	C 	0.8209	0.7924	0.7792	0.044
Mof_C 	C 	0.8648	0.869	0.8003	-0.062
Mof_C 	C 	0.0059	0.908	0.811	-0.045
Mof_C 	C 	0.0551	0.9922	0.8349	0.86
Mof_C 	C 	0.1996	0.0318	0.8466	-1.019
Mof_C 	C 	0.2407	0.11	0.8647	1.239
Mof_C 	C 	0.1388	0.1512	0.8744	-1.059
Mof_C 	C 	0.9983	0.1132	0.8646	1.256
Mof_C 	C 	0.959	0.0356	0.8446	-1.092
Mof_C 	C 	0.3949	0.1492	0.8741	-1.197
Mof_C 	C 	0.8874	0.155	0.8732	-1.149
Mof_C 	C 	0.5849	0.2648	0.273	0.156
Mof_C 	C 	0.6801	0.271	0.0233	0.224
Mof_C 	C 	0.6532	0.384	0.2331	-0.138
Mof_C 	C 	0.624	0.3064	0.2165	0.114
Mof_C 	C 	0.6341	0.2688	0.1477	-0.155
Mof_C 	C 	0.6758	0.3094	0.098	0.093
Mof_C 	C 	0.7077	0.3868	0.1163	-0.134
Mof_C 	C 	0.6981	0.4262	0.1836	0.087
Mof_C 	C 	0.6774	0.6228	0.2687	-0.086
Mof_C 	C 	0.6459	0.546	0.2486	-0.009
Mof_C 	C 	0.7292	0.5094	0.2028	-0.03
Mof_C 	C 	0.8447	0.5538	0.1781	-0.013
Mof_C 	C 	0.8773	0.631	0.1975	-0.081
Mof_C 	C 	0.7953	0.6676	0.2439	0.064
Mof_C 	C 	0.7605	0.8656	0.2998	-0.08
Mof_C 	C 	0.729	0.7892	0.2767	0.076
Mof_C 	C 	0.831	0.7498	0.2667	-0.033
Mof_C 	C 	0.9715	0.7924	0.2792	0.074
Mof_C 	C 	0.0042	0.869	0.3003	-0.089
Mof_C 	C 	0.9021	0.908	0.311	-0.037
Mof_C 	C 	0.9371	0.9922	0.3349	0.92
Mof_C 	C 	0.8322	0.0318	0.3466	-1.08
Mof_C 	C 	0.8693	0.11	0.3647	1.274
Mof_C 	C 	0.0124	0.1512	0.3744	-1.09
Mof_C 	C 	0.1149	0.1132	0.3646	1.298
Mof_C 	C 	0.0766	0.0356	0.3446	-1.141
Mof_C 	C 	0.7543	0.1492	0.3741	-1.234
Mof_C 	C 	0.2676	0.155	0.3732	-1.187
Mof_C 	C 	0.3201	0.7352	0.227	0.161
Mof_C 	C 	0.4091	0.729	0.4767	0.23
Mof_C 	C 	0.2692	0.616	0.2669	-0.134
Mof_C 	C 	0.3176	0.6936	0.2835	0.111
Mof_C 	C 	0.3653	0.7312	0.3523	-0.153
Mof_C 	C 	0.3664	0.6906	0.402	0.091
Mof_C 	C 	0.3209	0.6132	0.3837	-0.131
Mof_C 	C 	0.2719	0.5738	0.3164	0.083
Mof_C 	C 	0.0546	0.3772	0.2313	-0.064
Mof_C 	C 	0.0999	0.454	0.2514	-0.022
Mof_C 	C 	0.2198	0.4906	0.2972	-0.02
Mof_C 	C 	0.2909	0.4462	0.3219	-0.024
Mof_C 	C 	0.2463	0.369	0.3025	-0.068
Mof_C 	C 	0.1277	0.3324	0.2561	0.046
Mof_C 	C 	0.8949	0.1344	0.2002	-0.071
Mof_C 	C 	0.9398	0.2108	0.2233	0.054
Mof_C 	C 	0.0812	0.2502	0.2333	-0.007
Mof_C 	C 	0.1791	0.2076	0.2208	0.044
Mof_C 	C 	0.1352	0.131	0.1997	-0.062
Mof_C 	C 	0.9941	0.092	0.189	-0.045
Mof_C 	C 	0.9449	0.0078	0.1651	0.86
Mof_C 	C 	0.8004	0.9682	0.1534	-1.019
Mof_C 	C 	0.7593	0.89	0.1353	1.239
Mof_C 	C 	0.8612	0.8488	0.1256	-1.059
Mof_C 	C 	0.0017	0.8868	0.1354	1.256
Mof_C 	C 	0.041	0.9644	0.1554	-1.092
Mof_C 	C 	0.6051	0.8508	0.1259	-1.197
Mof_C 	C 	0.1126	0.845	0.1268	-1.149
Mof_O 	O 	0.69163	0.77726	0.6061	-0.068
Mof_O 	O 	0.6414	0.8806	0.639	2.276
Mof_O 	O 	0.37247	0.89034	0.636	2.732
Mof_O 	O 	0.22015	0.7803	0.6096	-0.105
Mof_O 	O 	0.3518	0.7996	0.9968	-0.368
Mof_O 	O 	0.28758	0.68876	0.0217	-0.585
Mof_O 	O 	0.44077	0.80514	0.7398	-0.134
Mof_O 	O 	0.41612	0.69664	0.6657	-0.584
Mof_O 	O 	0.5896	0.0312	0.7143	8.636
Mof_O 	O 	0.91437	0.22274	0.8939	-0.077
Mof_O 	O 	0.7608	0.1194	0.861	2.214
Mof_O 	O 	0.48213	0.10966	0.864	2.666
Mof_O 	O 	0.43985	0.2197	0.8904	-0.111
Mof_O 	O 	0.5522	0.2004	0.5032	-0.364
Mof_O 	O 	0.59882	0.31124	0.4783	-0.593
Mof_O 	O 	0.63563	0.19486	0.7602	-0.143
Mof_O 	O 	0.71948	0.30336	0.8343	-0.583
Mof_O 	O 	0.5584	0.9688	0.7857	8.563
Mof_O 	O 	0.30837	0.22274	0.3939	-0.068
Mof_O 	O 	0.3586	0.1194	0.361	2.276
Mof_O 	O 	0.62753	0.10966	0.364	2.732
Mof_O 	O 	0.77985	0.2197	0.3904	-0.105
Mof_O 	O 	0.6482	0.2004	0.0032	-0.368
Mof_O 	O 	0.71242	0.31124	0.9783	-0.585
Mof_O 	O 	0.55923	0.19486	0.2602	-0.134
Mof_O 	O 	0.58388	0.30336	0.3343	-0.584
Mof_O 	O 	0.4104	0.9688	0.2857	8.636
Mof_O 	O 	0.08563	0.77726	0.1061	-0.077
Mof_O 	O 	0.2392	0.8806	0.139	2.214
Mof_O 	O 	0.51787	0.89034	0.136	2.666
Mof_O 	O 	0.56015	0.7803	0.1096	-0.111
Mof_O 	O 	0.4478	0.7996	0.4968	-0.364
Mof_O 	O 	0.40118	0.68876	0.5217	-0.593
Mof_O 	O 	0.36437	0.80514	0.2398	-0.143
Mof_O 	O 	0.28052	0.69664	0.1657	-0.583
Mof_O 	O 	0.4416	0.0312	0.2143	8.563
_end
