data_functionalizedCrystal
_audit_creation_method	'EQeq! by Chris Wilmer'
_symmetry_space_group_name_H-M	'P1'
_symmetry_Int_Tables_number	1
_symmetry_cell_setting	triclinic
loop_
_symmetry_equiv_pos_as_xyz
  x,y,z
_cell_length_a	13.6086
_cell_length_b	13.6086
_cell_length_c	15.2777
_cell_angle_alpha	90
_cell_angle_beta	90
_cell_angle_gamma	120
loop_
_atom_site_label
_atom_site_type_symbol
_atom_site_fract_x
_atom_site_fract_y
_atom_site_fract_z
_atom_site_charge
Mof_Zn	Zn	0.97196	0.21547	0.08991	1.229
Mof_P 	P 	0.77325	0.97987	0.10648	0.604
Mof_O 	O 	0.7053	0.6156	0.149	-0.477
Mof_O 	O 	0.1178	0.2567	0.1364	-0.479
Mof_O 	O 	0.9757	0.2733	0.9719	-0.415
Mof_O 	O 	0.9002	0.0472	0.079	-0.646
Mof_Zn	Zn	0.63863	0.5488	0.42324	1.233
Mof_P 	P 	0.43992	0.3132	0.43981	0.549
Mof_O 	O 	0.37197	0.94893	0.48233	-0.448
Mof_O 	O 	0.78447	0.59003	0.46973	-0.439
Mof_O 	O 	0.64237	0.60663	0.30523	-0.453
Mof_O 	O 	0.56687	0.38053	0.41233	-0.611
Mof_Zn	Zn	0.30529	0.88214	0.75658	1.234
Mof_P 	P 	0.10658	0.64654	0.77315	0.549
Mof_O 	O 	0.03863	0.28227	0.81567	-0.505
Mof_O 	O 	0.45113	0.92337	0.80307	-0.43
Mof_O 	O 	0.30903	0.93997	0.63857	-0.447
Mof_O 	O 	0.23353	0.71387	0.74567	-0.609
Mof_Zn	Zn	0.78453	0.75649	0.08991	1.225
Mof_P 	P 	0.02013	0.79338	0.10648	0.494
Mof_O 	O 	0.3844	0.0897	0.149	-0.492
Mof_O 	O 	0.7433	0.8611	0.1364	-0.45
Mof_O 	O 	0.7267	0.7024	0.9719	-0.423
Mof_O 	O 	0.9528	0.853	0.079	-0.576
Mof_Zn	Zn	0.4512	0.08982	0.42324	1.225
Mof_P 	P 	0.6868	0.12671	0.43981	0.549
Mof_O 	O 	0.05107	0.42303	0.48233	-0.494
Mof_O 	O 	0.40997	0.19443	0.46973	-0.458
Mof_O 	O 	0.39337	0.03573	0.30523	-0.476
Mof_O 	O 	0.61947	0.18633	0.41233	-0.614
Mof_Zn	Zn	0.11786	0.42316	0.75658	1.232
Mof_P 	P 	0.35346	0.46005	0.77315	0.549
Mof_O 	O 	0.71773	0.75637	0.81567	-0.46
Mof_O 	O 	0.07663	0.52777	0.80307	-0.451
Mof_O 	O 	0.06003	0.36907	0.63857	-0.471
Mof_O 	O 	0.28613	0.51967	0.74567	-0.61
Mof_Zn	Zn	0.24351	0.02804	0.08991	1.213
Mof_P 	P 	0.20662	0.22675	0.10648	0.549
Mof_O 	O 	0.9103	0.2947	0.149	-0.474
Mof_O 	O 	0.1389	0.8822	0.1364	-0.434
Mof_O 	O 	0.2976	0.0243	0.9719	-0.432
Mof_O 	O 	0.147	0.0998	0.079	-0.647
Mof_Zn	Zn	0.91018	0.36137	0.42324	1.239
Mof_P 	P 	0.87329	0.56008	0.43981	0.549
Mof_O 	O 	0.57697	0.62803	0.48233	-0.465
Mof_O 	O 	0.80557	0.21553	0.46973	-0.44
Mof_O 	O 	0.96427	0.35763	0.30523	-0.442
Mof_O 	O 	0.81367	0.43313	0.41233	-0.608
Mof_Zn	Zn	0.57684	0.69471	0.75658	1.234
Mof_P 	P 	0.53995	0.89342	0.77315	0.549
Mof_O 	O 	0.24363	0.96137	0.81567	-0.439
Mof_O 	O 	0.47223	0.54887	0.80307	-0.439
Mof_O 	O 	0.63093	0.69097	0.63857	-0.449
Mof_O 	O 	0.48033	0.76647	0.74567	-0.608
Mof_Zn	Zn	0.02804	0.78453	0.91009	1.233
Mof_P 	P 	0.22675	0.02013	0.89352	0.5
Mof_O 	O 	0.2947	0.3844	0.851	-0.46
Mof_O 	O 	0.8822	0.7433	0.8636	-0.415
Mof_O 	O 	0.0243	0.7267	0.0281	-0.491
Mof_O 	O 	0.0998	0.9528	0.921	-0.569
Mof_Zn	Zn	0.69471	0.11786	0.24342	1.231
Mof_P 	P 	0.89342	0.35346	0.22685	0.549
Mof_O 	O 	0.96137	0.71773	0.18433	-0.436
Mof_O 	O 	0.54887	0.07663	0.19693	-0.466
Mof_O 	O 	0.69097	0.06003	0.36143	-0.465
Mof_O 	O 	0.76647	0.28613	0.25433	-0.614
Mof_Zn	Zn	0.36137	0.4512	0.57676	1.232
Mof_P 	P 	0.56008	0.6868	0.56019	0.548
Mof_O 	O 	0.62803	0.05107	0.51767	-0.488
Mof_O 	O 	0.21553	0.40997	0.53027	-0.455
Mof_O 	O 	0.35763	0.39337	0.69477	-0.459
Mof_O 	O 	0.43313	0.61947	0.58767	-0.611
Mof_Zn	Zn	0.21547	0.24351	0.91009	1.24
Mof_P 	P 	0.97987	0.20662	0.89352	0.61
Mof_O 	O 	0.6156	0.9103	0.851	-0.449
Mof_O 	O 	0.2567	0.1389	0.8636	-0.441
Mof_O 	O 	0.2733	0.2976	0.0281	-0.49
Mof_O 	O 	0.0472	0.147	0.921	-0.634
Mof_Zn	Zn	0.88214	0.57684	0.24342	1.233
Mof_P 	P 	0.64654	0.53995	0.22685	0.549
Mof_O 	O 	0.28227	0.24363	0.18433	-0.479
Mof_O 	O 	0.92337	0.47223	0.19693	-0.444
Mof_O 	O 	0.93997	0.63093	0.36143	-0.441
Mof_O 	O 	0.71387	0.48033	0.25433	-0.613
Mof_Zn	Zn	0.5488	0.91018	0.57676	1.239
Mof_P 	P 	0.3132	0.87329	0.56019	0.549
Mof_O 	O 	0.94893	0.57697	0.51767	-0.444
Mof_O 	O 	0.59003	0.80557	0.53027	-0.436
Mof_O 	O 	0.60663	0.96427	0.69477	-0.437
Mof_O 	O 	0.38053	0.81367	0.58767	-0.609
Mof_Zn	Zn	0.75649	0.97196	0.91009	1.249
Mof_P 	P 	0.79338	0.77325	0.89352	0.547
Mof_O 	O 	0.0897	0.7053	0.851	-0.465
Mof_O 	O 	0.8611	0.1178	0.8636	-0.452
Mof_O 	O 	0.7024	0.9757	0.0281	-0.475
Mof_O 	O 	0.853	0.9002	0.921	-0.567
Mof_Zn	Zn	0.42316	0.30529	0.24342	1.231
Mof_P 	P 	0.46005	0.10658	0.22685	0.549
Mof_O 	O 	0.75637	0.03863	0.18433	-0.503
Mof_O 	O 	0.52777	0.45113	0.19693	-0.455
Mof_O 	O 	0.36907	0.30903	0.36143	-0.463
Mof_O 	O 	0.51967	0.23353	0.25433	-0.615
Mof_Zn	Zn	0.08982	0.63863	0.57676	1.225
Mof_P 	P 	0.12671	0.43992	0.56019	0.549
Mof_O 	O 	0.42303	0.37197	0.51767	-0.472
Mof_O 	O 	0.19443	0.78447	0.53027	-0.452
Mof_O 	O 	0.03573	0.64237	0.69477	-0.47
Mof_O 	O 	0.18633	0.56687	0.58767	-0.614
Mof_Zn	Zn	-0	0	-0	1.168
Mof_Zn	Zn	0.66667	0.33333	0.33333	1.212
Mof_Zn	Zn	0.33333	0.66667	0.66667	1.212
_end
