data_functionalizedCrystal
_audit_creation_method	'EQeq! by Chris Wilmer'
_symmetry_space_group_name_H-M	'P1'
_symmetry_Int_Tables_number	1
_symmetry_cell_setting	triclinic
loop_
_symmetry_equiv_pos_as_xyz
  x,y,z
_cell_length_a	26.221
_cell_length_b	26.221
_cell_length_c	26.02
_cell_angle_alpha	90
_cell_angle_beta	90
_cell_angle_gamma	120
loop_
_atom_site_label
_atom_site_type_symbol
_atom_site_fract_x
_atom_site_fract_y
_atom_site_fract_z
_atom_site_charge
Mof_O 	O 	0.25103	0.85452	0.15741	-0.414
Mof_O 	O 	0.22509	0.8784	0.23063	-0.422
Mof_O 	O 	0.50697	0.11796	0.9459	-0.391
Mof_O 	O 	0.53444	0.17116	0.87116	-0.389
Mof_C 	C 	0.2476	0.8904	0.1878	0.386
Mof_C 	C 	0.26564	0.9504	0.1636	-0.135
Mof_C 	C 	0.2848	0.9626	0.1158	0.078
Mof_H 	H 	0.2859	0.9333	0.0951	0.019
Mof_C 	C 	0.3026	0.0154	0.0966	-0.135
Mof_H 	H 	0.315	0.0226	0.0617	0.076
Mof_C 	C 	0.3039	0.0606	0.1244	0.068
Mof_C 	C 	0.2828	0.0483	0.1715	-0.122
Mof_H 	H 	0.2809	0.0776	0.1915	0.079
Mof_C 	C 	0.2631	0.9921	0.1922	0.059
Mof_H 	H 	0.2481	0.9834	0.2263	0.025
Mof_C 	C 	0.3266	0.1183	0.1026	0.056
Mof_C 	C 	0.3728	0.13906	0.0647	-0.106
Mof_H 	H 	0.3879	0.1145	0.054	0.066
Mof_C 	C 	0.4556	0.1828	0.9816	-0.015
Mof_H 	H 	0.4439	0.1453	0.9961	0.049
Mof_C 	C 	0.4933	0.20206	0.9381	-0.068
Mof_C 	C 	0.5126	0.1617	0.9166	0.31
Mof_O 	O 	0.9177	0.18785	0.49074	-0.414
Mof_O 	O 	0.89176	0.21173	0.56396	-0.422
Mof_O 	O 	0.17364	0.45129	0.27923	-0.391
Mof_O 	O 	0.20111	0.50449	0.20449	-0.389
Mof_C 	C 	0.91427	0.22373	0.52113	0.387
Mof_C 	C 	0.93231	0.28373	0.49693	-0.139
Mof_C 	C 	0.95147	0.29593	0.44913	0.084
Mof_H 	H 	0.95257	0.26663	0.42843	0.018
Mof_C 	C 	0.96927	0.34873	0.42993	-0.14
Mof_H 	H 	0.98167	0.35593	0.39503	0.078
Mof_C 	C 	0.97057	0.39393	0.45773	0.072
Mof_C 	C 	0.94947	0.38163	0.50483	-0.125
Mof_H 	H 	0.94757	0.41093	0.52483	0.082
Mof_C 	C 	0.92977	0.32543	0.52553	0.064
Mof_H 	H 	0.91477	0.31673	0.55963	0.025
Mof_C 	C 	0.99327	0.45163	0.43593	0.057
Mof_C 	C 	0.03947	0.47239	0.39803	-0.105
Mof_H 	H 	0.05457	0.44783	0.38733	0.067
Mof_C 	C 	0.12227	0.51613	0.31493	-0.016
Mof_H 	H 	0.11057	0.47863	0.32943	0.05
Mof_C 	C 	0.15997	0.53539	0.27143	-0.067
Mof_C 	C 	0.17927	0.49503	0.24993	0.311
Mof_O 	O 	0.58436	0.52119	0.82408	-0.413
Mof_O 	O 	0.55842	0.54507	0.8973	-0.421
Mof_O 	O 	0.8403	0.78463	0.61257	-0.39
Mof_O 	O 	0.86777	0.83783	0.53783	-0.388
Mof_C 	C 	0.58093	0.55707	0.85447	0.388
Mof_C 	C 	0.59897	0.61707	0.83027	-0.138
Mof_C 	C 	0.61813	0.62927	0.78247	0.085
Mof_H 	H 	0.61923	0.59997	0.76177	0.019
Mof_C 	C 	0.63593	0.68207	0.76327	-0.139
Mof_H 	H 	0.64833	0.68927	0.72837	0.079
Mof_C 	C 	0.63723	0.72727	0.79107	0.073
Mof_C 	C 	0.61613	0.71497	0.83817	-0.126
Mof_H 	H 	0.61423	0.74427	0.85817	0.082
Mof_C 	C 	0.59643	0.65877	0.85887	0.065
Mof_H 	H 	0.58143	0.65007	0.89297	0.025
Mof_C 	C 	0.65993	0.78497	0.76927	0.055
Mof_C 	C 	0.70613	0.80573	0.73137	-0.103
Mof_H 	H 	0.72123	0.78117	0.72067	0.067
Mof_C 	C 	0.78893	0.84947	0.64827	-0.016
Mof_H 	H 	0.77723	0.81197	0.66277	0.05
Mof_C 	C 	0.82663	0.86873	0.60477	-0.067
Mof_C 	C 	0.84593	0.82837	0.58327	0.311
Mof_O 	O 	0.14548	0.39651	0.15741	-0.413
Mof_O 	O 	0.1216	0.34669	0.23063	-0.42
Mof_O 	O 	0.88204	0.38901	0.9459	-0.39
Mof_O 	O 	0.82884	0.36328	0.87116	-0.388
Mof_C 	C 	0.1096	0.3572	0.1878	0.387
Mof_C 	C 	0.0496	0.31524	0.1636	-0.134
Mof_C 	C 	0.0374	0.3222	0.1158	0.08
Mof_H 	H 	0.0667	0.3526	0.0951	0.02
Mof_C 	C 	0.9846	0.2872	0.0966	-0.134
Mof_H 	H 	0.9774	0.2924	0.0617	0.077
Mof_C 	C 	0.9394	0.2433	0.1244	0.069
Mof_C 	C 	0.9517	0.2345	0.1715	-0.121
Mof_H 	H 	0.9224	0.2033	0.1915	0.081
Mof_C 	C 	0.0079	0.271	0.1922	0.06
Mof_H 	H 	0.0166	0.2647	0.2263	0.026
Mof_C 	C 	0.8817	0.2083	0.1026	0.057
Mof_C 	C 	0.86094	0.23374	0.0647	-0.105
Mof_H 	H 	0.8855	0.2734	0.054	0.067
Mof_C 	C 	0.8172	0.2728	0.9816	-0.014
Mof_H 	H 	0.8547	0.2986	0.9961	0.05
Mof_C 	C 	0.79794	0.29124	0.9381	-0.067
Mof_C 	C 	0.8383	0.3509	0.9166	0.311
Mof_O 	O 	0.81215	0.72984	0.49074	-0.413
Mof_O 	O 	0.78827	0.68002	0.56396	-0.421
Mof_O 	O 	0.54871	0.72234	0.27923	-0.39
Mof_O 	O 	0.49551	0.69661	0.20449	-0.388
Mof_C 	C 	0.77627	0.69053	0.52113	0.388
Mof_C 	C 	0.71627	0.64857	0.49693	-0.138
Mof_C 	C 	0.70407	0.65553	0.44913	0.085
Mof_H 	H 	0.73337	0.68593	0.42843	0.018
Mof_C 	C 	0.65127	0.62053	0.42993	-0.14
Mof_H 	H 	0.64407	0.62573	0.39503	0.079
Mof_C 	C 	0.60607	0.57663	0.45773	0.073
Mof_C 	C 	0.61837	0.56783	0.50483	-0.126
Mof_H 	H 	0.58907	0.53663	0.52483	0.082
Mof_C 	C 	0.67457	0.60433	0.52553	0.065
Mof_H 	H 	0.68327	0.59803	0.55963	0.025
Mof_C 	C 	0.54837	0.54163	0.43593	0.055
Mof_C 	C 	0.52761	0.56707	0.39803	-0.103
Mof_H 	H 	0.55217	0.60673	0.38733	0.066
Mof_C 	C 	0.48387	0.60613	0.31493	-0.017
Mof_H 	H 	0.52137	0.63193	0.32943	0.05
Mof_C 	C 	0.46461	0.62457	0.27143	-0.066
Mof_C 	C 	0.50497	0.68423	0.24993	0.311
Mof_O 	O 	0.47881	0.06318	0.82408	-0.413
Mof_O 	O 	0.45493	0.01336	0.8973	-0.42
Mof_O 	O 	0.21537	0.05568	0.61257	-0.39
Mof_O 	O 	0.16217	0.02995	0.53783	-0.388
Mof_C 	C 	0.44293	0.02387	0.85447	0.389
Mof_C 	C 	0.38293	0.98191	0.83027	-0.138
Mof_C 	C 	0.37073	0.98887	0.78247	0.083
Mof_H 	H 	0.40003	0.01927	0.76177	0.02
Mof_C 	C 	0.31793	0.95387	0.76327	-0.138
Mof_H 	H 	0.31073	0.95907	0.72837	0.078
Mof_C 	C 	0.27273	0.90997	0.79107	0.072
Mof_C 	C 	0.28503	0.90117	0.83817	-0.125
Mof_H 	H 	0.25573	0.86997	0.85817	0.082
Mof_C 	C 	0.34123	0.93767	0.85887	0.064
Mof_H 	H 	0.34993	0.93137	0.89297	0.025
Mof_C 	C 	0.21503	0.87497	0.76927	0.056
Mof_C 	C 	0.19427	0.90041	0.73137	-0.104
Mof_H 	H 	0.21883	0.94007	0.72067	0.067
Mof_C 	C 	0.15053	0.93947	0.64827	-0.016
Mof_H 	H 	0.18803	0.96527	0.66277	0.049
Mof_C 	C 	0.13127	0.95791	0.60477	-0.068
Mof_C 	C 	0.17163	0.01757	0.58327	0.312
Mof_O 	O 	0.60349	0.74897	0.15741	-0.413
Mof_O 	O 	0.65331	0.77491	0.23063	-0.421
Mof_O 	O 	0.61099	0.49303	0.9459	-0.39
Mof_O 	O 	0.63672	0.46556	0.87116	-0.388
Mof_C 	C 	0.6428	0.7524	0.1878	0.388
Mof_C 	C 	0.68476	0.73436	0.1636	-0.138
Mof_C 	C 	0.6778	0.7152	0.1158	0.085
Mof_H 	H 	0.6474	0.7141	0.0951	0.018
Mof_C 	C 	0.7128	0.6974	0.0966	-0.139
Mof_H 	H 	0.7076	0.685	0.0617	0.078
Mof_C 	C 	0.7567	0.6961	0.1244	0.073
Mof_C 	C 	0.7655	0.7172	0.1715	-0.126
Mof_H 	H 	0.7967	0.7191	0.1915	0.082
Mof_C 	C 	0.729	0.7369	0.1922	0.065
Mof_H 	H 	0.7353	0.7519	0.2263	0.025
Mof_C 	C 	0.7917	0.6734	0.1026	0.055
Mof_C 	C 	0.76626	0.6272	0.0647	-0.104
Mof_H 	H 	0.7266	0.6121	0.054	0.067
Mof_C 	C 	0.7272	0.5444	0.9816	-0.014
Mof_H 	H 	0.7014	0.5561	0.9961	0.049
Mof_C 	C 	0.70876	0.5067	0.9381	-0.068
Mof_C 	C 	0.6491	0.4874	0.9166	0.311
Mof_O 	O 	0.27016	0.0823	0.49074	-0.413
Mof_O 	O 	0.31998	0.10824	0.56396	-0.421
Mof_O 	O 	0.27766	0.82636	0.27923	-0.39
Mof_O 	O 	0.30339	0.79889	0.20449	-0.388
Mof_C 	C 	0.30947	0.08573	0.52113	0.388
Mof_C 	C 	0.35143	0.06769	0.49693	-0.138
Mof_C 	C 	0.34447	0.04853	0.44913	0.085
Mof_H 	H 	0.31407	0.04743	0.42843	0.019
Mof_C 	C 	0.37947	0.03073	0.42993	-0.139
Mof_H 	H 	0.37427	0.01833	0.39503	0.079
Mof_C 	C 	0.42337	0.02943	0.45773	0.072
Mof_C 	C 	0.43217	0.05053	0.50483	-0.126
Mof_H 	H 	0.46337	0.05243	0.52483	0.082
Mof_C 	C 	0.39567	0.07023	0.52553	0.064
Mof_H 	H 	0.40197	0.08523	0.55963	0.025
Mof_C 	C 	0.45837	0.00673	0.43593	0.057
Mof_C 	C 	0.43293	0.96053	0.39803	-0.105
Mof_H 	H 	0.39327	0.94543	0.38733	0.067
Mof_C 	C 	0.39387	0.87773	0.31493	-0.016
Mof_H 	H 	0.36807	0.88943	0.32943	0.05
Mof_C 	C 	0.37543	0.84003	0.27143	-0.067
Mof_C 	C 	0.31577	0.82073	0.24993	0.311
Mof_O 	O 	0.93682	0.41564	0.82408	-0.413
Mof_O 	O 	0.98664	0.44158	0.8973	-0.42
Mof_O 	O 	0.94432	0.1597	0.61257	-0.39
Mof_O 	O 	0.97005	0.13223	0.53783	-0.388
Mof_C 	C 	0.97613	0.41907	0.85447	0.389
Mof_C 	C 	0.01809	0.40103	0.83027	-0.138
Mof_C 	C 	0.01113	0.38187	0.78247	0.083
Mof_H 	H 	0.98073	0.38077	0.76177	0.02
Mof_C 	C 	0.04613	0.36407	0.76327	-0.138
Mof_H 	H 	0.04093	0.35167	0.72837	0.078
Mof_C 	C 	0.09003	0.36277	0.79107	0.072
Mof_C 	C 	0.09883	0.38387	0.83817	-0.125
Mof_H 	H 	0.13003	0.38577	0.85817	0.082
Mof_C 	C 	0.06233	0.40357	0.85887	0.064
Mof_H 	H 	0.06863	0.41857	0.89297	0.025
Mof_C 	C 	0.12503	0.34007	0.76927	0.056
Mof_C 	C 	0.09959	0.29387	0.73137	-0.104
Mof_H 	H 	0.05993	0.27877	0.72067	0.066
Mof_C 	C 	0.06053	0.21107	0.64827	-0.016
Mof_H 	H 	0.03473	0.22277	0.66277	0.05
Mof_C 	C 	0.04209	0.17337	0.60477	-0.068
Mof_C 	C 	0.98243	0.15407	0.58327	0.312
Mof_O 	O 	0.14548	0.74897	0.15741	-0.413
Mof_O 	O 	0.1216	0.77491	0.23063	-0.421
Mof_O 	O 	0.88204	0.49303	0.9459	-0.39
Mof_O 	O 	0.82884	0.46556	0.87116	-0.388
Mof_C 	C 	0.1096	0.7524	0.1878	0.387
Mof_C 	C 	0.0496	0.73436	0.1636	-0.134
Mof_C 	C 	0.0374	0.7152	0.1158	0.079
Mof_H 	H 	0.0667	0.7141	0.0951	0.02
Mof_C 	C 	0.9846	0.6974	0.0966	-0.134
Mof_H 	H 	0.9774	0.685	0.0617	0.077
Mof_C 	C 	0.9394	0.6961	0.1244	0.069
Mof_C 	C 	0.9517	0.7172	0.1715	-0.121
Mof_H 	H 	0.9224	0.7191	0.1915	0.08
Mof_C 	C 	0.0079	0.7369	0.1922	0.06
Mof_H 	H 	0.0166	0.7519	0.2263	0.026
Mof_C 	C 	0.8817	0.6734	0.1026	0.057
Mof_C 	C 	0.86094	0.6272	0.0647	-0.105
Mof_H 	H 	0.8855	0.6121	0.054	0.067
Mof_C 	C 	0.8172	0.5444	0.9816	-0.014
Mof_H 	H 	0.8547	0.5561	0.9961	0.05
Mof_C 	C 	0.79794	0.5067	0.9381	-0.067
Mof_C 	C 	0.8383	0.4874	0.9166	0.311
Mof_O 	O 	0.81215	0.0823	0.49074	-0.413
Mof_O 	O 	0.78827	0.10824	0.56396	-0.421
Mof_O 	O 	0.54871	0.82636	0.27923	-0.39
Mof_O 	O 	0.49551	0.79889	0.20449	-0.388
Mof_C 	C 	0.77627	0.08573	0.52113	0.388
Mof_C 	C 	0.71627	0.06769	0.49693	-0.138
Mof_C 	C 	0.70407	0.04853	0.44913	0.085
Mof_H 	H 	0.73337	0.04743	0.42843	0.019
Mof_C 	C 	0.65127	0.03073	0.42993	-0.139
Mof_H 	H 	0.64407	0.01833	0.39503	0.079
Mof_C 	C 	0.60607	0.02943	0.45773	0.072
Mof_C 	C 	0.61837	0.05053	0.50483	-0.125
Mof_H 	H 	0.58907	0.05243	0.52483	0.082
Mof_C 	C 	0.67457	0.07023	0.52553	0.064
Mof_H 	H 	0.68327	0.08523	0.55963	0.025
Mof_C 	C 	0.54837	0.00673	0.43593	0.057
Mof_C 	C 	0.52761	0.96053	0.39803	-0.105
Mof_H 	H 	0.55217	0.94543	0.38733	0.067
Mof_C 	C 	0.48387	0.87773	0.31493	-0.016
Mof_H 	H 	0.52137	0.88943	0.32943	0.05
Mof_C 	C 	0.46461	0.84003	0.27143	-0.067
Mof_C 	C 	0.50497	0.82073	0.24993	0.311
Mof_O 	O 	0.47881	0.41564	0.82408	-0.413
Mof_O 	O 	0.45493	0.44158	0.8973	-0.421
Mof_O 	O 	0.21537	0.1597	0.61257	-0.39
Mof_O 	O 	0.16217	0.13223	0.53783	-0.388
Mof_C 	C 	0.44293	0.41907	0.85447	0.388
Mof_C 	C 	0.38293	0.40103	0.83027	-0.138
Mof_C 	C 	0.37073	0.38187	0.78247	0.085
Mof_H 	H 	0.40003	0.38077	0.76177	0.019
Mof_C 	C 	0.31793	0.36407	0.76327	-0.139
Mof_H 	H 	0.31073	0.35167	0.72837	0.079
Mof_C 	C 	0.27273	0.36277	0.79107	0.073
Mof_C 	C 	0.28503	0.38387	0.83817	-0.126
Mof_H 	H 	0.25573	0.38577	0.85817	0.082
Mof_C 	C 	0.34123	0.40357	0.85887	0.065
Mof_H 	H 	0.34993	0.41857	0.89297	0.025
Mof_C 	C 	0.21503	0.34007	0.76927	0.055
Mof_C 	C 	0.19427	0.29387	0.73137	-0.103
Mof_H 	H 	0.21883	0.27877	0.72067	0.067
Mof_C 	C 	0.15053	0.21107	0.64827	-0.016
Mof_H 	H 	0.18803	0.22277	0.66277	0.05
Mof_C 	C 	0.13127	0.17337	0.60477	-0.067
Mof_C 	C 	0.17163	0.15407	0.58327	0.311
Mof_O 	O 	0.60349	0.85452	0.15741	-0.413
Mof_O 	O 	0.65331	0.8784	0.23063	-0.42
Mof_O 	O 	0.61099	0.11796	0.9459	-0.39
Mof_O 	O 	0.63672	0.17116	0.87116	-0.388
Mof_C 	C 	0.6428	0.8904	0.1878	0.387
Mof_C 	C 	0.68476	0.9504	0.1636	-0.134
Mof_C 	C 	0.6778	0.9626	0.1158	0.08
Mof_H 	H 	0.6474	0.9333	0.0951	0.02
Mof_C 	C 	0.7128	0.0154	0.0966	-0.134
Mof_H 	H 	0.7076	0.0226	0.0617	0.077
Mof_C 	C 	0.7567	0.0606	0.1244	0.069
Mof_C 	C 	0.7655	0.0483	0.1715	-0.121
Mof_H 	H 	0.7967	0.0776	0.1915	0.081
Mof_C 	C 	0.729	0.9921	0.1922	0.06
Mof_H 	H 	0.7353	0.9834	0.2263	0.026
Mof_C 	C 	0.7917	0.1183	0.1026	0.057
Mof_C 	C 	0.76626	0.13906	0.0647	-0.105
Mof_H 	H 	0.7266	0.1145	0.054	0.067
Mof_C 	C 	0.7272	0.1828	0.9816	-0.014
Mof_H 	H 	0.7014	0.1453	0.9961	0.05
Mof_C 	C 	0.70876	0.20206	0.9381	-0.067
Mof_C 	C 	0.6491	0.1617	0.9166	0.311
Mof_O 	O 	0.27016	0.18785	0.49074	-0.413
Mof_O 	O 	0.31998	0.21173	0.56396	-0.421
Mof_O 	O 	0.27766	0.45129	0.27923	-0.39
Mof_O 	O 	0.30339	0.50449	0.20449	-0.388
Mof_C 	C 	0.30947	0.22373	0.52113	0.388
Mof_C 	C 	0.35143	0.28373	0.49693	-0.138
Mof_C 	C 	0.34447	0.29593	0.44913	0.085
Mof_H 	H 	0.31407	0.26663	0.42843	0.018
Mof_C 	C 	0.37947	0.34873	0.42993	-0.14
Mof_H 	H 	0.37427	0.35593	0.39503	0.079
Mof_C 	C 	0.42337	0.39393	0.45773	0.073
Mof_C 	C 	0.43217	0.38163	0.50483	-0.126
Mof_H 	H 	0.46337	0.41093	0.52483	0.082
Mof_C 	C 	0.39567	0.32543	0.52553	0.065
Mof_H 	H 	0.40197	0.31673	0.55963	0.025
Mof_C 	C 	0.45837	0.45163	0.43593	0.055
Mof_C 	C 	0.43293	0.47239	0.39803	-0.103
Mof_H 	H 	0.39327	0.44783	0.38733	0.066
Mof_C 	C 	0.39387	0.51613	0.31493	-0.017
Mof_H 	H 	0.36807	0.47863	0.32943	0.05
Mof_C 	C 	0.37543	0.53539	0.27143	-0.066
Mof_C 	C 	0.31577	0.49503	0.24993	0.311
Mof_O 	O 	0.93682	0.52119	0.82408	-0.413
Mof_O 	O 	0.98664	0.54507	0.8973	-0.42
Mof_O 	O 	0.94432	0.78463	0.61257	-0.39
Mof_O 	O 	0.97005	0.83783	0.53783	-0.388
Mof_C 	C 	0.97613	0.55707	0.85447	0.389
Mof_C 	C 	0.01809	0.61707	0.83027	-0.138
Mof_C 	C 	0.01113	0.62927	0.78247	0.083
Mof_H 	H 	0.98073	0.59997	0.76177	0.02
Mof_C 	C 	0.04613	0.68207	0.76327	-0.138
Mof_H 	H 	0.04093	0.68927	0.72837	0.078
Mof_C 	C 	0.09003	0.72727	0.79107	0.072
Mof_C 	C 	0.09883	0.71497	0.83817	-0.125
Mof_H 	H 	0.13003	0.74427	0.85817	0.082
Mof_C 	C 	0.06233	0.65877	0.85887	0.064
Mof_H 	H 	0.06863	0.65007	0.89297	0.025
Mof_C 	C 	0.12503	0.78497	0.76927	0.056
Mof_C 	C 	0.09959	0.80573	0.73137	-0.104
Mof_H 	H 	0.05993	0.78117	0.72067	0.067
Mof_C 	C 	0.06053	0.84947	0.64827	-0.016
Mof_H 	H 	0.03473	0.81197	0.66277	0.049
Mof_C 	C 	0.04209	0.86873	0.60477	-0.068
Mof_C 	C 	0.98243	0.82837	0.58327	0.312
Mof_O 	O 	0.25103	0.39651	0.15741	-0.413
Mof_O 	O 	0.22509	0.34669	0.23063	-0.421
Mof_O 	O 	0.50697	0.38901	0.9459	-0.39
Mof_O 	O 	0.53444	0.36328	0.87116	-0.388
Mof_C 	C 	0.2476	0.3572	0.1878	0.388
Mof_C 	C 	0.26564	0.31524	0.1636	-0.138
Mof_C 	C 	0.2848	0.3222	0.1158	0.085
Mof_H 	H 	0.2859	0.3526	0.0951	0.018
Mof_C 	C 	0.3026	0.2872	0.0966	-0.139
Mof_H 	H 	0.315	0.2924	0.0617	0.078
Mof_C 	C 	0.3039	0.2433	0.1244	0.073
Mof_C 	C 	0.2828	0.2345	0.1715	-0.126
Mof_H 	H 	0.2809	0.2033	0.1915	0.082
Mof_C 	C 	0.2631	0.271	0.1922	0.065
Mof_H 	H 	0.2481	0.2647	0.2263	0.025
Mof_C 	C 	0.3266	0.2083	0.1026	0.055
Mof_C 	C 	0.3728	0.23374	0.0647	-0.104
Mof_H 	H 	0.3879	0.2734	0.054	0.067
Mof_C 	C 	0.4556	0.2728	0.9816	-0.014
Mof_H 	H 	0.4439	0.2986	0.9961	0.049
Mof_C 	C 	0.4933	0.29124	0.9381	-0.068
Mof_C 	C 	0.5126	0.3509	0.9166	0.311
Mof_O 	O 	0.9177	0.72984	0.49074	-0.413
Mof_O 	O 	0.89176	0.68002	0.56396	-0.421
Mof_O 	O 	0.17364	0.72234	0.27923	-0.39
Mof_O 	O 	0.20111	0.69661	0.20449	-0.388
Mof_C 	C 	0.91427	0.69053	0.52113	0.388
Mof_C 	C 	0.93231	0.64857	0.49693	-0.138
Mof_C 	C 	0.95147	0.65553	0.44913	0.085
Mof_H 	H 	0.95257	0.68593	0.42843	0.019
Mof_C 	C 	0.96927	0.62053	0.42993	-0.139
Mof_H 	H 	0.98167	0.62573	0.39503	0.079
Mof_C 	C 	0.97057	0.57663	0.45773	0.072
Mof_C 	C 	0.94947	0.56783	0.50483	-0.126
Mof_H 	H 	0.94757	0.53663	0.52483	0.082
Mof_C 	C 	0.92977	0.60433	0.52553	0.064
Mof_H 	H 	0.91477	0.59803	0.55963	0.025
Mof_C 	C 	0.99327	0.54163	0.43593	0.057
Mof_C 	C 	0.03947	0.56707	0.39803	-0.105
Mof_H 	H 	0.05457	0.60673	0.38733	0.067
Mof_C 	C 	0.12227	0.60613	0.31493	-0.016
Mof_H 	H 	0.11057	0.63193	0.32943	0.05
Mof_C 	C 	0.15997	0.62457	0.27143	-0.067
Mof_C 	C 	0.17927	0.68423	0.24993	0.311
Mof_O 	O 	0.58436	0.06318	0.82408	-0.413
Mof_O 	O 	0.55842	0.01336	0.8973	-0.42
Mof_O 	O 	0.8403	0.05568	0.61257	-0.39
Mof_O 	O 	0.86777	0.02995	0.53783	-0.388
Mof_C 	C 	0.58093	0.02387	0.85447	0.389
Mof_C 	C 	0.59897	0.98191	0.83027	-0.138
Mof_C 	C 	0.61813	0.98887	0.78247	0.083
Mof_H 	H 	0.61923	0.01927	0.76177	0.02
Mof_C 	C 	0.63593	0.95387	0.76327	-0.138
Mof_H 	H 	0.64833	0.95907	0.72837	0.078
Mof_C 	C 	0.63723	0.90997	0.79107	0.072
Mof_C 	C 	0.61613	0.90117	0.83817	-0.125
Mof_H 	H 	0.61423	0.86997	0.85817	0.082
Mof_C 	C 	0.59643	0.93767	0.85887	0.064
Mof_H 	H 	0.58143	0.93137	0.89297	0.025
Mof_C 	C 	0.65993	0.87497	0.76927	0.056
Mof_C 	C 	0.70613	0.90041	0.73137	-0.104
Mof_H 	H 	0.72123	0.94007	0.72067	0.066
Mof_C 	C 	0.78893	0.93947	0.64827	-0.016
Mof_H 	H 	0.77723	0.96527	0.66277	0.05
Mof_C 	C 	0.82663	0.95791	0.60477	-0.068
Mof_C 	C 	0.84593	0.01757	0.58327	0.312
Mof_Cu	Cu	0.2275	0.7725	0.17367	0.909
Mof_Cu	Cu	0.19787	0.80213	0.26203	0.914
Mof_Cu	Cu	0.89417	0.10583	0.507	0.909
Mof_Cu	Cu	0.86454	0.13546	0.59536	0.914
Mof_Cu	Cu	0.56084	0.43916	0.84034	0.909
Mof_Cu	Cu	0.53121	0.46879	0.9287	0.914
Mof_Cu	Cu	0.2275	0.45501	0.17367	0.909
Mof_Cu	Cu	0.19787	0.39575	0.26203	0.914
Mof_Cu	Cu	0.89417	0.78834	0.507	0.909
Mof_Cu	Cu	0.86454	0.72908	0.59536	0.914
Mof_Cu	Cu	0.56084	0.12167	0.84034	0.909
Mof_Cu	Cu	0.53121	0.06241	0.9287	0.914
Mof_Cu	Cu	0.54499	0.7725	0.17367	0.909
Mof_Cu	Cu	0.60425	0.80213	0.26203	0.914
Mof_Cu	Cu	0.21166	0.10583	0.507	0.909
Mof_Cu	Cu	0.27092	0.13546	0.59536	0.914
Mof_Cu	Cu	0.87833	0.43916	0.84034	0.909
Mof_Cu	Cu	0.93759	0.46879	0.9287	0.914
Mof_N 	N 	0.3074	0.1537	0.1226	-0.122
Mof_C 	C 	0.3965	0.19825	0.0428	0.058
Mof_C 	C 	0.4357	0.21785	0.0033	-0.019
Mof_C 	C 	0.5106	0.2553	0.9134	0.014
Mof_H 	H 	0.5325	0.26625	0.8823	0.056
Mof_N 	N 	0.97407	0.48703	0.45593	-0.122
Mof_C 	C 	0.06317	0.53158	0.37613	0.057
Mof_C 	C 	0.10237	0.55118	0.33663	-0.016
Mof_C 	C 	0.17727	0.58863	0.24673	0.013
Mof_H 	H 	0.19917	0.59958	0.21563	0.056
Mof_N 	N 	0.64073	0.82037	0.78927	-0.122
Mof_C 	C 	0.72983	0.86492	0.70947	0.056
Mof_C 	C 	0.76903	0.88452	0.66997	-0.016
Mof_C 	C 	0.84393	0.92197	0.58007	0.013
Mof_H 	H 	0.86583	0.93292	0.54897	0.056
Mof_N 	N 	0.8463	0.1537	0.1226	-0.122
Mof_C 	C 	0.80175	0.19825	0.0428	0.058
Mof_C 	C 	0.78215	0.21785	0.0033	-0.019
Mof_C 	C 	0.7447	0.2553	0.9134	0.014
Mof_H 	H 	0.73375	0.26625	0.8823	0.056
Mof_N 	N 	0.51297	0.48703	0.45593	-0.121
Mof_C 	C 	0.46842	0.53158	0.37613	0.056
Mof_C 	C 	0.44882	0.55118	0.33663	-0.016
Mof_C 	C 	0.41137	0.58863	0.24673	0.012
Mof_H 	H 	0.40042	0.59958	0.21563	0.056
Mof_N 	N 	0.17963	0.82037	0.78927	-0.122
Mof_C 	C 	0.13508	0.86492	0.70947	0.057
Mof_C 	C 	0.11548	0.88452	0.66997	-0.017
Mof_C 	C 	0.07803	0.92197	0.58007	0.014
Mof_H 	H 	0.06708	0.93292	0.54897	0.055
Mof_N 	N 	0.8463	0.6926	0.1226	-0.122
Mof_C 	C 	0.80175	0.6035	0.0428	0.058
Mof_C 	C 	0.78215	0.5643	0.0033	-0.019
Mof_C 	C 	0.7447	0.4894	0.9134	0.014
Mof_H 	H 	0.73375	0.4675	0.8823	0.056
Mof_N 	N 	0.51297	0.02593	0.45593	-0.122
Mof_C 	C 	0.46842	0.93683	0.37613	0.057
Mof_C 	C 	0.44882	0.89763	0.33663	-0.016
Mof_C 	C 	0.41137	0.82273	0.24673	0.013
Mof_H 	H 	0.40042	0.80083	0.21563	0.056
Mof_N 	N 	0.17963	0.35927	0.78927	-0.122
Mof_C 	C 	0.13508	0.27017	0.70947	0.056
Mof_C 	C 	0.11548	0.23097	0.66997	-0.016
Mof_C 	C 	0.07803	0.15607	0.58007	0.013
Mof_H 	H 	0.06708	0.13417	0.54897	0.056
_end
