# CIF file generated by openbabel 3.1.0, see https://openbabel.org
data_I
_chemical_name_common 'image0'
_cell_length_a 29.0302
_cell_length_b 29.0302
_cell_length_c 29.0302
_cell_angle_alpha 90
_cell_angle_beta 90
_cell_angle_gamma 90
_space_group_name_H-M_alt 'P 1'
_space_group_name_Hall 'P 1'
loop_
    _symmetry_equiv_pos_as_xyz
    x,y,z
loop_
    _atom_site_label
    _atom_site_type_symbol
    _atom_site_fract_x
    _atom_site_fract_y
    _atom_site_fract_z
    _atom_site_occupancy
    C1       C        0.60560    0.97400    0.17990    1.000
    H1       H        0.60530    0.95460    0.15450    1.000
    C2       C        0.65950    0.87430    0.16020    1.000
    H2       H        0.67600    0.90170    0.15930    1.000
    N1       N        0.60600    0.96240    0.22250    1.000
    N2       N        0.63160    0.86060    0.19460    1.000
    O1       O        0.60520    0.96350    0.31740    1.000
    O2       O        0.57410    0.75380    0.19350    1.000
    C3       C        0.10560    0.47400    0.67990    1.000
    H3       H        0.10530    0.45460    0.65450    1.000
    C4       C        0.15950    0.37430    0.66020    1.000
    H4       H        0.17600    0.40170    0.65930    1.000
    N3       N        0.10600    0.46240    0.72250    1.000
    N4       N        0.13160    0.36060    0.69460    1.000
    O3       O        0.10520    0.46350    0.81740    1.000
    O4       O        0.07410    0.25380    0.69350    1.000
    C5       C        0.39440    0.02600    0.17990    1.000
    H5       H        0.39470    0.04540    0.15450    1.000
    C6       C        0.34050    0.12570    0.16020    1.000
    H6       H        0.32400    0.09830    0.15930    1.000
    N5       N        0.39400    0.03760    0.22250    1.000
    N6       N        0.36840    0.13940    0.19460    1.000
    O5       O        0.39480    0.03650    0.31740    1.000
    O6       O        0.42590    0.24620    0.19350    1.000
    C7       C        0.89440    0.52600    0.67990    1.000
    H7       H        0.89470    0.54540    0.65450    1.000
    C8       C        0.84050    0.62570    0.66020    1.000
    H8       H        0.82400    0.59830    0.65930    1.000
    N7       N        0.89400    0.53760    0.72250    1.000
    N8       N        0.86840    0.63940    0.69460    1.000
    O7       O        0.89480    0.53650    0.81740    1.000
    O8       O        0.92590    0.74620    0.69350    1.000
    C9       C        0.39440    0.97400    0.82010    1.000
    H9       H        0.39470    0.95460    0.84550    1.000
    C10      C        0.34050    0.87430    0.83980    1.000
    H10      H        0.32400    0.90170    0.84070    1.000
    N9       N        0.39400    0.96240    0.77750    1.000
    N10      N        0.36840    0.86060    0.80540    1.000
    O9       O        0.39480    0.96350    0.68260    1.000
    O10      O        0.42590    0.75380    0.80650    1.000
    C11      C        0.89440    0.47400    0.32010    1.000
    H11      H        0.89470    0.45460    0.34550    1.000
    C12      C        0.84050    0.37430    0.33980    1.000
    H12      H        0.82400    0.40170    0.34070    1.000
    N11      N        0.89400    0.46240    0.27750    1.000
    N12      N        0.86840    0.36060    0.30540    1.000
    O11      O        0.89480    0.46350    0.18260    1.000
    O12      O        0.92590    0.25380    0.30650    1.000
    C13      C        0.60560    0.02600    0.82010    1.000
    H13      H        0.60530    0.04540    0.84550    1.000
    C14      C        0.65950    0.12570    0.83980    1.000
    H14      H        0.67600    0.09830    0.84070    1.000
    N13      N        0.60600    0.03760    0.77750    1.000
    N14      N        0.63160    0.13940    0.80540    1.000
    O13      O        0.60520    0.03650    0.68260    1.000
    O14      O        0.57410    0.24620    0.80650    1.000
    C15      C        0.10560    0.52600    0.32010    1.000
    H15      H        0.10530    0.54540    0.34550    1.000
    C16      C        0.15950    0.62570    0.33980    1.000
    H16      H        0.17600    0.59830    0.34070    1.000
    N15      N        0.10600    0.53760    0.27750    1.000
    N16      N        0.13160    0.63940    0.30540    1.000
    O15      O        0.10520    0.53650    0.18260    1.000
    O16      O        0.07410    0.74620    0.30650    1.000
    C17      C        0.17990    0.60560    0.97400    1.000
    H17      H        0.15450    0.60530    0.95460    1.000
    C18      C        0.16020    0.65950    0.87430    1.000
    H18      H        0.15930    0.67600    0.90170    1.000
    N17      N        0.22250    0.60600    0.96240    1.000
    N18      N        0.19460    0.63160    0.86060    1.000
    O17      O        0.31740    0.60520    0.96350    1.000
    O18      O        0.19350    0.57410    0.75380    1.000
    C19      C        0.67990    0.10560    0.47400    1.000
    H19      H        0.65450    0.10530    0.45460    1.000
    C20      C        0.66020    0.15950    0.37430    1.000
    H20      H        0.65930    0.17600    0.40170    1.000
    N19      N        0.72250    0.10600    0.46240    1.000
    N20      N        0.69460    0.13160    0.36060    1.000
    O19      O        0.81740    0.10520    0.46350    1.000
    O20      O        0.69350    0.07410    0.25380    1.000
    C21      C        0.17990    0.39440    0.02600    1.000
    H21      H        0.15450    0.39470    0.04540    1.000
    C22      C        0.16020    0.34050    0.12570    1.000
    H22      H        0.15930    0.32400    0.09830    1.000
    N21      N        0.22250    0.39400    0.03760    1.000
    N22      N        0.19460    0.36840    0.13940    1.000
    O21      O        0.31740    0.39480    0.03650    1.000
    O22      O        0.19350    0.42590    0.24620    1.000
    C23      C        0.67990    0.89440    0.52600    1.000
    H23      H        0.65450    0.89470    0.54540    1.000
    C24      C        0.66020    0.84050    0.62570    1.000
    H24      H        0.65930    0.82400    0.59830    1.000
    N23      N        0.72250    0.89400    0.53760    1.000
    N24      N        0.69460    0.86840    0.63940    1.000
    O23      O        0.81740    0.89480    0.53650    1.000
    O24      O        0.69350    0.92590    0.74620    1.000
    C25      C        0.82010    0.39440    0.97400    1.000
    H25      H        0.84550    0.39470    0.95460    1.000
    C26      C        0.83980    0.34050    0.87430    1.000
    H26      H        0.84070    0.32400    0.90170    1.000
    N25      N        0.77750    0.39400    0.96240    1.000
    N26      N        0.80540    0.36840    0.86060    1.000
    O25      O        0.68260    0.39480    0.96350    1.000
    O26      O        0.80650    0.42590    0.75380    1.000
    C27      C        0.32010    0.89440    0.47400    1.000
    H27      H        0.34550    0.89470    0.45460    1.000
    C28      C        0.33980    0.84050    0.37430    1.000
    H28      H        0.34070    0.82400    0.40170    1.000
    N27      N        0.27750    0.89400    0.46240    1.000
    N28      N        0.30540    0.86840    0.36060    1.000
    O27      O        0.18260    0.89480    0.46350    1.000
    O28      O        0.30650    0.92590    0.25380    1.000
    C29      C        0.82010    0.60560    0.02600    1.000
    H29      H        0.84550    0.60530    0.04540    1.000
    C30      C        0.83980    0.65950    0.12570    1.000
    H30      H        0.84070    0.67600    0.09830    1.000
    N29      N        0.77750    0.60600    0.03760    1.000
    N30      N        0.80540    0.63160    0.13940    1.000
    O29      O        0.68260    0.60520    0.03650    1.000
    O30      O        0.80650    0.57410    0.24620    1.000
    C31      C        0.32010    0.10560    0.52600    1.000
    H31      H        0.34550    0.10530    0.54540    1.000
    C32      C        0.33980    0.15950    0.62570    1.000
    H32      H        0.34070    0.17600    0.59830    1.000
    N31      N        0.27750    0.10600    0.53760    1.000
    N32      N        0.30540    0.13160    0.63940    1.000
    O31      O        0.18260    0.10520    0.53650    1.000
    O32      O        0.30650    0.07410    0.74620    1.000
    C33      C        0.97400    0.17990    0.60560    1.000
    H33      H        0.95460    0.15450    0.60530    1.000
    C34      C        0.87430    0.16020    0.65950    1.000
    H34      H        0.90170    0.15930    0.67600    1.000
    N33      N        0.96240    0.22250    0.60600    1.000
    N34      N        0.86060    0.19460    0.63160    1.000
    O33      O        0.96350    0.31740    0.60520    1.000
    O34      O        0.75380    0.19350    0.57410    1.000
    C35      C        0.47400    0.67990    0.10560    1.000
    H35      H        0.45460    0.65450    0.10530    1.000
    C36      C        0.37430    0.66020    0.15950    1.000
    H36      H        0.40170    0.65930    0.17600    1.000
    N35      N        0.46240    0.72250    0.10600    1.000
    N36      N        0.36060    0.69460    0.13160    1.000
    O35      O        0.46350    0.81740    0.10520    1.000
    O36      O        0.25380    0.69350    0.07410    1.000
    C37      C        0.02600    0.17990    0.39440    1.000
    H37      H        0.04540    0.15450    0.39470    1.000
    C38      C        0.12570    0.16020    0.34050    1.000
    H38      H        0.09830    0.15930    0.32400    1.000
    N37      N        0.03760    0.22250    0.39400    1.000
    N38      N        0.13940    0.19460    0.36840    1.000
    O37      O        0.03650    0.31740    0.39480    1.000
    O38      O        0.24620    0.19350    0.42590    1.000
    C39      C        0.52600    0.67990    0.89440    1.000
    H39      H        0.54540    0.65450    0.89470    1.000
    C40      C        0.62570    0.66020    0.84050    1.000
    H40      H        0.59830    0.65930    0.82400    1.000
    N39      N        0.53760    0.72250    0.89400    1.000
    N40      N        0.63940    0.69460    0.86840    1.000
    O39      O        0.53650    0.81740    0.89480    1.000
    O40      O        0.74620    0.69350    0.92590    1.000
    C41      C        0.97400    0.82010    0.39440    1.000
    H41      H        0.95460    0.84550    0.39470    1.000
    C42      C        0.87430    0.83980    0.34050    1.000
    H42      H        0.90170    0.84070    0.32400    1.000
    N41      N        0.96240    0.77750    0.39400    1.000
    N42      N        0.86060    0.80540    0.36840    1.000
    O41      O        0.96350    0.68260    0.39480    1.000
    O42      O        0.75380    0.80650    0.42590    1.000
    C43      C        0.47400    0.32010    0.89440    1.000
    H43      H        0.45460    0.34550    0.89470    1.000
    C44      C        0.37430    0.33980    0.84050    1.000
    H44      H        0.40170    0.34070    0.82400    1.000
    N43      N        0.46240    0.27750    0.89400    1.000
    N44      N        0.36060    0.30540    0.86840    1.000
    O43      O        0.46350    0.18260    0.89480    1.000
    O44      O        0.25380    0.30650    0.92590    1.000
    C45      C        0.02600    0.82010    0.60560    1.000
    H45      H        0.04540    0.84550    0.60530    1.000
    C46      C        0.12570    0.83980    0.65950    1.000
    H46      H        0.09830    0.84070    0.67600    1.000
    N45      N        0.03760    0.77750    0.60600    1.000
    N46      N        0.13940    0.80540    0.63160    1.000
    O45      O        0.03650    0.68260    0.60520    1.000
    O46      O        0.24620    0.80650    0.57410    1.000
    C47      C        0.52600    0.32010    0.10560    1.000
    H47      H        0.54540    0.34550    0.10530    1.000
    C48      C        0.62570    0.33980    0.15950    1.000
    H48      H        0.59830    0.34070    0.17600    1.000
    N47      N        0.53760    0.27750    0.10600    1.000
    N48      N        0.63940    0.30540    0.13160    1.000
    O47      O        0.53650    0.18260    0.10520    1.000
    O48      O        0.74620    0.30650    0.07410    1.000
    C49      C        0.97400    0.60560    0.82010    1.000
    H49      H        0.95460    0.60530    0.84550    1.000
    C50      C        0.87430    0.65950    0.83980    1.000
    H50      H        0.90170    0.67600    0.84070    1.000
    N49      N        0.96240    0.60600    0.77750    1.000
    N50      N        0.86060    0.63160    0.80540    1.000
    O49      O        0.96350    0.60520    0.68260    1.000
    O50      O        0.75380    0.57410    0.80650    1.000
    C51      C        0.47400    0.10560    0.32010    1.000
    H51      H        0.45460    0.10530    0.34550    1.000
    C52      C        0.37430    0.15950    0.33980    1.000
    H52      H        0.40170    0.17600    0.34070    1.000
    N51      N        0.46240    0.10600    0.27750    1.000
    N52      N        0.36060    0.13160    0.30540    1.000
    O51      O        0.46350    0.10520    0.18260    1.000
    O52      O        0.25380    0.07410    0.30650    1.000
    C53      C        0.02600    0.39440    0.82010    1.000
    H53      H        0.04540    0.39470    0.84550    1.000
    C54      C        0.12570    0.34050    0.83980    1.000
    H54      H        0.09830    0.32400    0.84070    1.000
    N53      N        0.03760    0.39400    0.77750    1.000
    N54      N        0.13940    0.36840    0.80540    1.000
    O53      O        0.03650    0.39480    0.68260    1.000
    O54      O        0.24620    0.42590    0.80650    1.000
    C55      C        0.52600    0.89440    0.32010    1.000
    H55      H        0.54540    0.89470    0.34550    1.000
    C56      C        0.62570    0.84050    0.33980    1.000
    H56      H        0.59830    0.82400    0.34070    1.000
    N55      N        0.53760    0.89400    0.27750    1.000
    N56      N        0.63940    0.86840    0.30540    1.000
    O55      O        0.53650    0.89480    0.18260    1.000
    O56      O        0.74620    0.92590    0.30650    1.000
    C57      C        0.97400    0.39440    0.17990    1.000
    H57      H        0.95460    0.39470    0.15450    1.000
    C58      C        0.87430    0.34050    0.16020    1.000
    H58      H        0.90170    0.32400    0.15930    1.000
    N57      N        0.96240    0.39400    0.22250    1.000
    N58      N        0.86060    0.36840    0.19460    1.000
    O57      O        0.96350    0.39480    0.31740    1.000
    O58      O        0.75380    0.42590    0.19350    1.000
    C59      C        0.47400    0.89440    0.67990    1.000
    H59      H        0.45460    0.89470    0.65450    1.000
    C60      C        0.37430    0.84050    0.66020    1.000
    H60      H        0.40170    0.82400    0.65930    1.000
    N59      N        0.46240    0.89400    0.72250    1.000
    N60      N        0.36060    0.86840    0.69460    1.000
    O59      O        0.46350    0.89480    0.81740    1.000
    O60      O        0.25380    0.92590    0.69350    1.000
    C61      C        0.02600    0.60560    0.17990    1.000
    H61      H        0.04540    0.60530    0.15450    1.000
    C62      C        0.12570    0.65950    0.16020    1.000
    H62      H        0.09830    0.67600    0.15930    1.000
    N61      N        0.03760    0.60600    0.22250    1.000
    N62      N        0.13940    0.63160    0.19460    1.000
    O61      O        0.03650    0.60520    0.31740    1.000
    O62      O        0.24620    0.57410    0.19350    1.000
    C63      C        0.52600    0.10560    0.67990    1.000
    H63      H        0.54540    0.10530    0.65450    1.000
    C64      C        0.62570    0.15950    0.66020    1.000
    H64      H        0.59830    0.17600    0.65930    1.000
    N63      N        0.53760    0.10600    0.72250    1.000
    N64      N        0.63940    0.13160    0.69460    1.000
    O63      O        0.53650    0.10520    0.81740    1.000
    O64      O        0.74620    0.07410    0.69350    1.000
    C65      C        0.60560    0.17990    0.02600    1.000
    H65      H        0.60530    0.15450    0.04540    1.000
    C66      C        0.65950    0.16020    0.12570    1.000
    H66      H        0.67600    0.15930    0.09830    1.000
    N65      N        0.60600    0.22250    0.03760    1.000
    N66      N        0.63160    0.19460    0.13940    1.000
    O65      O        0.60520    0.31740    0.03650    1.000
    O66      O        0.57410    0.19350    0.24620    1.000
    C67      C        0.10560    0.67990    0.52600    1.000
    H67      H        0.10530    0.65450    0.54540    1.000
    C68      C        0.15950    0.66020    0.62570    1.000
    H68      H        0.17600    0.65930    0.59830    1.000
    N67      N        0.10600    0.72250    0.53760    1.000
    N68      N        0.13160    0.69460    0.63940    1.000
    O67      O        0.10520    0.81740    0.53650    1.000
    O68      O        0.07410    0.69350    0.74620    1.000
    C69      C        0.39440    0.17990    0.97400    1.000
    H69      H        0.39470    0.15450    0.95460    1.000
    C70      C        0.34050    0.16020    0.87430    1.000
    H70      H        0.32400    0.15930    0.90170    1.000
    N69      N        0.39400    0.22250    0.96240    1.000
    N70      N        0.36840    0.19460    0.86060    1.000
    O69      O        0.39480    0.31740    0.96350    1.000
    O70      O        0.42590    0.19350    0.75380    1.000
    C71      C        0.89440    0.67990    0.47400    1.000
    H71      H        0.89470    0.65450    0.45460    1.000
    C72      C        0.84050    0.66020    0.37430    1.000
    H72      H        0.82400    0.65930    0.40170    1.000
    N71      N        0.89400    0.72250    0.46240    1.000
    N72      N        0.86840    0.69460    0.36060    1.000
    O71      O        0.89480    0.81740    0.46350    1.000
    O72      O        0.92590    0.69350    0.25380    1.000
    C73      C        0.39440    0.82010    0.02600    1.000
    H73      H        0.39470    0.84550    0.04540    1.000
    C74      C        0.34050    0.83980    0.12570    1.000
    H74      H        0.32400    0.84070    0.09830    1.000
    N73      N        0.39400    0.77750    0.03760    1.000
    N74      N        0.36840    0.80540    0.13940    1.000
    O73      O        0.39480    0.68260    0.03650    1.000
    O74      O        0.42590    0.80650    0.24620    1.000
    C75      C        0.89440    0.32010    0.52600    1.000
    H75      H        0.89470    0.34550    0.54540    1.000
    C76      C        0.84050    0.33980    0.62570    1.000
    H76      H        0.82400    0.34070    0.59830    1.000
    N75      N        0.89400    0.27750    0.53760    1.000
    N76      N        0.86840    0.30540    0.63940    1.000
    O75      O        0.89480    0.18260    0.53650    1.000
    O76      O        0.92590    0.30650    0.74620    1.000
    C77      C        0.60560    0.82010    0.97400    1.000
    H77      H        0.60530    0.84550    0.95460    1.000
    C78      C        0.65950    0.83980    0.87430    1.000
    H78      H        0.67600    0.84070    0.90170    1.000
    N77      N        0.60600    0.77750    0.96240    1.000
    N78      N        0.63160    0.80540    0.86060    1.000
    O77      O        0.60520    0.68260    0.96350    1.000
    O78      O        0.57410    0.80650    0.75380    1.000
    C79      C        0.10560    0.32010    0.47400    1.000
    H79      H        0.10530    0.34550    0.45460    1.000
    C80      C        0.15950    0.33980    0.37430    1.000
    H80      H        0.17600    0.34070    0.40170    1.000
    N79      N        0.10600    0.27750    0.46240    1.000
    N80      N        0.13160    0.30540    0.36060    1.000
    O79      O        0.10520    0.18260    0.46350    1.000
    O80      O        0.07410    0.30650    0.25380    1.000
    C81      C        0.17990    0.97400    0.39440    1.000
    H81      H        0.15450    0.95460    0.39470    1.000
    C82      C        0.16020    0.87430    0.34050    1.000
    H82      H        0.15930    0.90170    0.32400    1.000
    N81      N        0.22250    0.96240    0.39400    1.000
    N82      N        0.19460    0.86060    0.36840    1.000
    O81      O        0.31740    0.96350    0.39480    1.000
    O82      O        0.19350    0.75380    0.42590    1.000
    C83      C        0.67990    0.47400    0.89440    1.000
    H83      H        0.65450    0.45460    0.89470    1.000
    C84      C        0.66020    0.37430    0.84050    1.000
    H84      H        0.65930    0.40170    0.82400    1.000
    N83      N        0.72250    0.46240    0.89400    1.000
    N84      N        0.69460    0.36060    0.86840    1.000
    O83      O        0.81740    0.46350    0.89480    1.000
    O84      O        0.69350    0.25380    0.92590    1.000
    C85      C        0.17990    0.02600    0.60560    1.000
    H85      H        0.15450    0.04540    0.60530    1.000
    C86      C        0.16020    0.12570    0.65950    1.000
    H86      H        0.15930    0.09830    0.67600    1.000
    N85      N        0.22250    0.03760    0.60600    1.000
    N86      N        0.19460    0.13940    0.63160    1.000
    O85      O        0.31740    0.03650    0.60520    1.000
    O86      O        0.19350    0.24620    0.57410    1.000
    C87      C        0.67990    0.52600    0.10560    1.000
    H87      H        0.65450    0.54540    0.10530    1.000
    C88      C        0.66020    0.62570    0.15950    1.000
    H88      H        0.65930    0.59830    0.17600    1.000
    N87      N        0.72250    0.53760    0.10600    1.000
    N88      N        0.69460    0.63940    0.13160    1.000
    O87      O        0.81740    0.53650    0.10520    1.000
    O88      O        0.69350    0.74620    0.07410    1.000
    C89      C        0.82010    0.97400    0.60560    1.000
    H89      H        0.84550    0.95460    0.60530    1.000
    C90      C        0.83980    0.87430    0.65950    1.000
    H90      H        0.84070    0.90170    0.67600    1.000
    N89      N        0.77750    0.96240    0.60600    1.000
    N90      N        0.80540    0.86060    0.63160    1.000
    O89      O        0.68260    0.96350    0.60520    1.000
    O90      O        0.80650    0.75380    0.57410    1.000
    C91      C        0.32010    0.47400    0.10560    1.000
    H91      H        0.34550    0.45460    0.10530    1.000
    C92      C        0.33980    0.37430    0.15950    1.000
    H92      H        0.34070    0.40170    0.17600    1.000
    N91      N        0.27750    0.46240    0.10600    1.000
    N92      N        0.30540    0.36060    0.13160    1.000
    O91      O        0.18260    0.46350    0.10520    1.000
    O92      O        0.30650    0.25380    0.07410    1.000
    C93      C        0.82010    0.02600    0.39440    1.000
    H93      H        0.84550    0.04540    0.39470    1.000
    C94      C        0.83980    0.12570    0.34050    1.000
    H94      H        0.84070    0.09830    0.32400    1.000
    N93      N        0.77750    0.03760    0.39400    1.000
    N94      N        0.80540    0.13940    0.36840    1.000
    O93      O        0.68260    0.03650    0.39480    1.000
    O94      O        0.80650    0.24620    0.42590    1.000
    C95      C        0.32010    0.52600    0.89440    1.000
    H95      H        0.34550    0.54540    0.89470    1.000
    C96      C        0.33980    0.62570    0.84050    1.000
    H96      H        0.34070    0.59830    0.82400    1.000
    N95      N        0.27750    0.53760    0.89400    1.000
    N96      N        0.30540    0.63940    0.86840    1.000
    O95      O        0.18260    0.53650    0.89480    1.000
    O96      O        0.30650    0.74620    0.92590    1.000
    C97      C        0.39440    0.02600    0.82010    1.000
    H97      H        0.39470    0.04540    0.84550    1.000
    C98      C        0.34050    0.12570    0.83980    1.000
    H98      H        0.32400    0.09830    0.84070    1.000
    N97      N        0.39400    0.03760    0.77750    1.000
    N98      N        0.36840    0.13940    0.80540    1.000
    O97      O        0.39480    0.03650    0.68260    1.000
    O98      O        0.42590    0.24620    0.80650    1.000
    C99      C        0.89440    0.52600    0.32010    1.000
    H99      H        0.89470    0.54540    0.34550    1.000
    C100     C        0.84050    0.62570    0.33980    1.000
    H100     H        0.82400    0.59830    0.34070    1.000
    N99      N        0.89400    0.53760    0.27750    1.000
    N100     N        0.86840    0.63940    0.30540    1.000
    O99      O        0.89480    0.53650    0.18260    1.000
    O100     O        0.92590    0.74620    0.30650    1.000
    C101     C        0.60560    0.97400    0.82010    1.000
    H101     H        0.60530    0.95460    0.84550    1.000
    C102     C        0.65950    0.87430    0.83980    1.000
    H102     H        0.67600    0.90170    0.84070    1.000
    N101     N        0.60600    0.96240    0.77750    1.000
    N102     N        0.63160    0.86060    0.80540    1.000
    O101     O        0.60520    0.96350    0.68260    1.000
    O102     O        0.57410    0.75380    0.80650    1.000
    C103     C        0.10560    0.47400    0.32010    1.000
    H103     H        0.10530    0.45460    0.34550    1.000
    C104     C        0.15950    0.37430    0.33980    1.000
    H104     H        0.17600    0.40170    0.34070    1.000
    N103     N        0.10600    0.46240    0.27750    1.000
    N104     N        0.13160    0.36060    0.30540    1.000
    O103     O        0.10520    0.46350    0.18260    1.000
    O104     O        0.07410    0.25380    0.30650    1.000
    C105     C        0.60560    0.02600    0.17990    1.000
    H105     H        0.60530    0.04540    0.15450    1.000
    C106     C        0.65950    0.12570    0.16020    1.000
    H106     H        0.67600    0.09830    0.15930    1.000
    N105     N        0.60600    0.03760    0.22250    1.000
    N106     N        0.63160    0.13940    0.19460    1.000
    O105     O        0.60520    0.03650    0.31740    1.000
    O106     O        0.57410    0.24620    0.19350    1.000
    C107     C        0.10560    0.52600    0.67990    1.000
    H107     H        0.10530    0.54540    0.65450    1.000
    C108     C        0.15950    0.62570    0.66020    1.000
    H108     H        0.17600    0.59830    0.65930    1.000
    N107     N        0.10600    0.53760    0.72250    1.000
    N108     N        0.13160    0.63940    0.69460    1.000
    O107     O        0.10520    0.53650    0.81740    1.000
    O108     O        0.07410    0.74620    0.69350    1.000
    C109     C        0.39440    0.97400    0.17990    1.000
    H109     H        0.39470    0.95460    0.15450    1.000
    C110     C        0.34050    0.87430    0.16020    1.000
    H110     H        0.32400    0.90170    0.15930    1.000
    N109     N        0.39400    0.96240    0.22250    1.000
    N110     N        0.36840    0.86060    0.19460    1.000
    O109     O        0.39480    0.96350    0.31740    1.000
    O110     O        0.42590    0.75380    0.19350    1.000
    C111     C        0.89440    0.47400    0.67990    1.000
    H111     H        0.89470    0.45460    0.65450    1.000
    C112     C        0.84050    0.37430    0.66020    1.000
    H112     H        0.82400    0.40170    0.65930    1.000
    N111     N        0.89400    0.46240    0.72250    1.000
    N112     N        0.86840    0.36060    0.69460    1.000
    O111     O        0.89480    0.46350    0.81740    1.000
    O112     O        0.92590    0.25380    0.69350    1.000
    C113     C        0.82010    0.39440    0.02600    1.000
    H113     H        0.84550    0.39470    0.04540    1.000
    C114     C        0.83980    0.34050    0.12570    1.000
    H114     H        0.84070    0.32400    0.09830    1.000
    N113     N        0.77750    0.39400    0.03760    1.000
    N114     N        0.80540    0.36840    0.13940    1.000
    O113     O        0.68260    0.39480    0.03650    1.000
    O114     O        0.80650    0.42590    0.24620    1.000
    C115     C        0.32010    0.89440    0.52600    1.000
    H115     H        0.34550    0.89470    0.54540    1.000
    C116     C        0.33980    0.84050    0.62570    1.000
    H116     H        0.34070    0.82400    0.59830    1.000
    N115     N        0.27750    0.89400    0.53760    1.000
    N116     N        0.30540    0.86840    0.63940    1.000
    O115     O        0.18260    0.89480    0.53650    1.000
    O116     O        0.30650    0.92590    0.74620    1.000
    C117     C        0.82010    0.60560    0.97400    1.000
    H117     H        0.84550    0.60530    0.95460    1.000
    C118     C        0.83980    0.65950    0.87430    1.000
    H118     H        0.84070    0.67600    0.90170    1.000
    N117     N        0.77750    0.60600    0.96240    1.000
    N118     N        0.80540    0.63160    0.86060    1.000
    O117     O        0.68260    0.60520    0.96350    1.000
    O118     O        0.80650    0.57410    0.75380    1.000
    C119     C        0.32010    0.10560    0.47400    1.000
    H119     H        0.34550    0.10530    0.45460    1.000
    C120     C        0.33980    0.15950    0.37430    1.000
    H120     H        0.34070    0.17600    0.40170    1.000
    N119     N        0.27750    0.10600    0.46240    1.000
    N120     N        0.30540    0.13160    0.36060    1.000
    O119     O        0.18260    0.10520    0.46350    1.000
    O120     O        0.30650    0.07410    0.25380    1.000
    C121     C        0.17990    0.60560    0.02600    1.000
    H121     H        0.15450    0.60530    0.04540    1.000
    C122     C        0.16020    0.65950    0.12570    1.000
    H122     H        0.15930    0.67600    0.09830    1.000
    N121     N        0.22250    0.60600    0.03760    1.000
    N122     N        0.19460    0.63160    0.13940    1.000
    O121     O        0.31740    0.60520    0.03650    1.000
    O122     O        0.19350    0.57410    0.24620    1.000
    C123     C        0.67990    0.10560    0.52600    1.000
    H123     H        0.65450    0.10530    0.54540    1.000
    C124     C        0.66020    0.15950    0.62570    1.000
    H124     H        0.65930    0.17600    0.59830    1.000
    N123     N        0.72250    0.10600    0.53760    1.000
    N124     N        0.69460    0.13160    0.63940    1.000
    O123     O        0.81740    0.10520    0.53650    1.000
    O124     O        0.69350    0.07410    0.74620    1.000
    C125     C        0.17990    0.39440    0.97400    1.000
    H125     H        0.15450    0.39470    0.95460    1.000
    C126     C        0.16020    0.34050    0.87430    1.000
    H126     H        0.15930    0.32400    0.90170    1.000
    N125     N        0.22250    0.39400    0.96240    1.000
    N126     N        0.19460    0.36840    0.86060    1.000
    O125     O        0.31740    0.39480    0.96350    1.000
    O126     O        0.19350    0.42590    0.75380    1.000
    C127     C        0.67990    0.89440    0.47400    1.000
    H127     H        0.65450    0.89470    0.45460    1.000
    C128     C        0.66020    0.84050    0.37430    1.000
    H128     H        0.65930    0.82400    0.40170    1.000
    N127     N        0.72250    0.89400    0.46240    1.000
    N128     N        0.69460    0.86840    0.36060    1.000
    O127     O        0.81740    0.89480    0.46350    1.000
    O128     O        0.69350    0.92590    0.25380    1.000
    C129     C        0.02600    0.82010    0.39440    1.000
    H129     H        0.04540    0.84550    0.39470    1.000
    C130     C        0.12570    0.83980    0.34050    1.000
    H130     H        0.09830    0.84070    0.32400    1.000
    N129     N        0.03760    0.77750    0.39400    1.000
    N130     N        0.13940    0.80540    0.36840    1.000
    O129     O        0.03650    0.68260    0.39480    1.000
    O130     O        0.24620    0.80650    0.42590    1.000
    C131     C        0.52600    0.32010    0.89440    1.000
    H131     H        0.54540    0.34550    0.89470    1.000
    C132     C        0.62570    0.33980    0.84050    1.000
    H132     H        0.59830    0.34070    0.82400    1.000
    N131     N        0.53760    0.27750    0.89400    1.000
    N132     N        0.63940    0.30540    0.86840    1.000
    O131     O        0.53650    0.18260    0.89480    1.000
    O132     O        0.74620    0.30650    0.92590    1.000
    C133     C        0.97400    0.82010    0.60560    1.000
    H133     H        0.95460    0.84550    0.60530    1.000
    C134     C        0.87430    0.83980    0.65950    1.000
    H134     H        0.90170    0.84070    0.67600    1.000
    N133     N        0.96240    0.77750    0.60600    1.000
    N134     N        0.86060    0.80540    0.63160    1.000
    O133     O        0.96350    0.68260    0.60520    1.000
    O134     O        0.75380    0.80650    0.57410    1.000
    C135     C        0.47400    0.32010    0.10560    1.000
    H135     H        0.45460    0.34550    0.10530    1.000
    C136     C        0.37430    0.33980    0.15950    1.000
    H136     H        0.40170    0.34070    0.17600    1.000
    N135     N        0.46240    0.27750    0.10600    1.000
    N136     N        0.36060    0.30540    0.13160    1.000
    O135     O        0.46350    0.18260    0.10520    1.000
    O136     O        0.25380    0.30650    0.07410    1.000
    C137     C        0.02600    0.17990    0.60560    1.000
    H137     H        0.04540    0.15450    0.60530    1.000
    C138     C        0.12570    0.16020    0.65950    1.000
    H138     H        0.09830    0.15930    0.67600    1.000
    N137     N        0.03760    0.22250    0.60600    1.000
    N138     N        0.13940    0.19460    0.63160    1.000
    O137     O        0.03650    0.31740    0.60520    1.000
    O138     O        0.24620    0.19350    0.57410    1.000
    C139     C        0.52600    0.67990    0.10560    1.000
    H139     H        0.54540    0.65450    0.10530    1.000
    C140     C        0.62570    0.66020    0.15950    1.000
    H140     H        0.59830    0.65930    0.17600    1.000
    N139     N        0.53760    0.72250    0.10600    1.000
    N140     N        0.63940    0.69460    0.13160    1.000
    O139     O        0.53650    0.81740    0.10520    1.000
    O140     O        0.74620    0.69350    0.07410    1.000
    C141     C        0.97400    0.17990    0.39440    1.000
    H141     H        0.95460    0.15450    0.39470    1.000
    C142     C        0.87430    0.16020    0.34050    1.000
    H142     H        0.90170    0.15930    0.32400    1.000
    N141     N        0.96240    0.22250    0.39400    1.000
    N142     N        0.86060    0.19460    0.36840    1.000
    O141     O        0.96350    0.31740    0.39480    1.000
    O142     O        0.75380    0.19350    0.42590    1.000
    C143     C        0.47400    0.67990    0.89440    1.000
    H143     H        0.45460    0.65450    0.89470    1.000
    C144     C        0.37430    0.66020    0.84050    1.000
    H144     H        0.40170    0.65930    0.82400    1.000
    N143     N        0.46240    0.72250    0.89400    1.000
    N144     N        0.36060    0.69460    0.86840    1.000
    O143     O        0.46350    0.81740    0.89480    1.000
    O144     O        0.25380    0.69350    0.92590    1.000
    C145     C        0.02600    0.39440    0.17990    1.000
    H145     H        0.04540    0.39470    0.15450    1.000
    C146     C        0.12570    0.34050    0.16020    1.000
    H146     H        0.09830    0.32400    0.15930    1.000
    N145     N        0.03760    0.39400    0.22250    1.000
    N146     N        0.13940    0.36840    0.19460    1.000
    O145     O        0.03650    0.39480    0.31740    1.000
    O146     O        0.24620    0.42590    0.19350    1.000
    C147     C        0.52600    0.89440    0.67990    1.000
    H147     H        0.54540    0.89470    0.65450    1.000
    C148     C        0.62570    0.84050    0.66020    1.000
    H148     H        0.59830    0.82400    0.65930    1.000
    N147     N        0.53760    0.89400    0.72250    1.000
    N148     N        0.63940    0.86840    0.69460    1.000
    O147     O        0.53650    0.89480    0.81740    1.000
    O148     O        0.74620    0.92590    0.69350    1.000
    C149     C        0.97400    0.60560    0.17990    1.000
    H149     H        0.95460    0.60530    0.15450    1.000
    C150     C        0.87430    0.65950    0.16020    1.000
    H150     H        0.90170    0.67600    0.15930    1.000
    N149     N        0.96240    0.60600    0.22250    1.000
    N150     N        0.86060    0.63160    0.19460    1.000
    O149     O        0.96350    0.60520    0.31740    1.000
    O150     O        0.75380    0.57410    0.19350    1.000
    C151     C        0.47400    0.10560    0.67990    1.000
    H151     H        0.45460    0.10530    0.65450    1.000
    C152     C        0.37430    0.15950    0.66020    1.000
    H152     H        0.40170    0.17600    0.65930    1.000
    N151     N        0.46240    0.10600    0.72250    1.000
    N152     N        0.36060    0.13160    0.69460    1.000
    O151     O        0.46350    0.10520    0.81740    1.000
    O152     O        0.25380    0.07410    0.69350    1.000
    C153     C        0.02600    0.60560    0.82010    1.000
    H153     H        0.04540    0.60530    0.84550    1.000
    C154     C        0.12570    0.65950    0.83980    1.000
    H154     H        0.09830    0.67600    0.84070    1.000
    N153     N        0.03760    0.60600    0.77750    1.000
    N154     N        0.13940    0.63160    0.80540    1.000
    O153     O        0.03650    0.60520    0.68260    1.000
    O154     O        0.24620    0.57410    0.80650    1.000
    C155     C        0.52600    0.10560    0.32010    1.000
    H155     H        0.54540    0.10530    0.34550    1.000
    C156     C        0.62570    0.15950    0.33980    1.000
    H156     H        0.59830    0.17600    0.34070    1.000
    N155     N        0.53760    0.10600    0.27750    1.000
    N156     N        0.63940    0.13160    0.30540    1.000
    O155     O        0.53650    0.10520    0.18260    1.000
    O156     O        0.74620    0.07410    0.30650    1.000
    C157     C        0.97400    0.39440    0.82010    1.000
    H157     H        0.95460    0.39470    0.84550    1.000
    C158     C        0.87430    0.34050    0.83980    1.000
    H158     H        0.90170    0.32400    0.84070    1.000
    N157     N        0.96240    0.39400    0.77750    1.000
    N158     N        0.86060    0.36840    0.80540    1.000
    O157     O        0.96350    0.39480    0.68260    1.000
    O158     O        0.75380    0.42590    0.80650    1.000
    C159     C        0.47400    0.89440    0.32010    1.000
    H159     H        0.45460    0.89470    0.34550    1.000
    C160     C        0.37430    0.84050    0.33980    1.000
    H160     H        0.40170    0.82400    0.34070    1.000
    N159     N        0.46240    0.89400    0.27750    1.000
    N160     N        0.36060    0.86840    0.30540    1.000
    O159     O        0.46350    0.89480    0.18260    1.000
    O160     O        0.25380    0.92590    0.30650    1.000
    C161     C        0.39440    0.82010    0.97400    1.000
    H161     H        0.39470    0.84550    0.95460    1.000
    C162     C        0.34050    0.83980    0.87430    1.000
    H162     H        0.32400    0.84070    0.90170    1.000
    N161     N        0.39400    0.77750    0.96240    1.000
    N162     N        0.36840    0.80540    0.86060    1.000
    O161     O        0.39480    0.68260    0.96350    1.000
    O162     O        0.42590    0.80650    0.75380    1.000
    C163     C        0.89440    0.32010    0.47400    1.000
    H163     H        0.89470    0.34550    0.45460    1.000
    C164     C        0.84050    0.33980    0.37430    1.000
    H164     H        0.82400    0.34070    0.40170    1.000
    N163     N        0.89400    0.27750    0.46240    1.000
    N164     N        0.86840    0.30540    0.36060    1.000
    O163     O        0.89480    0.18260    0.46350    1.000
    O164     O        0.92590    0.30650    0.25380    1.000
    C165     C        0.60560    0.82010    0.02600    1.000
    H165     H        0.60530    0.84550    0.04540    1.000
    C166     C        0.65950    0.83980    0.12570    1.000
    H166     H        0.67600    0.84070    0.09830    1.000
    N165     N        0.60600    0.77750    0.03760    1.000
    N166     N        0.63160    0.80540    0.13940    1.000
    O165     O        0.60520    0.68260    0.03650    1.000
    O166     O        0.57410    0.80650    0.24620    1.000
    C167     C        0.10560    0.32010    0.52600    1.000
    H167     H        0.10530    0.34550    0.54540    1.000
    C168     C        0.15950    0.33980    0.62570    1.000
    H168     H        0.17600    0.34070    0.59830    1.000
    N167     N        0.10600    0.27750    0.53760    1.000
    N168     N        0.13160    0.30540    0.63940    1.000
    O167     O        0.10520    0.18260    0.53650    1.000
    O168     O        0.07410    0.30650    0.74620    1.000
    C169     C        0.60560    0.17990    0.97400    1.000
    H169     H        0.60530    0.15450    0.95460    1.000
    C170     C        0.65950    0.16020    0.87430    1.000
    H170     H        0.67600    0.15930    0.90170    1.000
    N169     N        0.60600    0.22250    0.96240    1.000
    N170     N        0.63160    0.19460    0.86060    1.000
    O169     O        0.60520    0.31740    0.96350    1.000
    O170     O        0.57410    0.19350    0.75380    1.000
    C171     C        0.10560    0.67990    0.47400    1.000
    H171     H        0.10530    0.65450    0.45460    1.000
    C172     C        0.15950    0.66020    0.37430    1.000
    H172     H        0.17600    0.65930    0.40170    1.000
    N171     N        0.10600    0.72250    0.46240    1.000
    N172     N        0.13160    0.69460    0.36060    1.000
    O171     O        0.10520    0.81740    0.46350    1.000
    O172     O        0.07410    0.69350    0.25380    1.000
    C173     C        0.39440    0.17990    0.02600    1.000
    H173     H        0.39470    0.15450    0.04540    1.000
    C174     C        0.34050    0.16020    0.12570    1.000
    H174     H        0.32400    0.15930    0.09830    1.000
    N173     N        0.39400    0.22250    0.03760    1.000
    N174     N        0.36840    0.19460    0.13940    1.000
    O173     O        0.39480    0.31740    0.03650    1.000
    O174     O        0.42590    0.19350    0.24620    1.000
    C175     C        0.89440    0.67990    0.52600    1.000
    H175     H        0.89470    0.65450    0.54540    1.000
    C176     C        0.84050    0.66020    0.62570    1.000
    H176     H        0.82400    0.65930    0.59830    1.000
    N175     N        0.89400    0.72250    0.53760    1.000
    N176     N        0.86840    0.69460    0.63940    1.000
    O175     O        0.89480    0.81740    0.53650    1.000
    O176     O        0.92590    0.69350    0.74620    1.000
    C177     C        0.82010    0.02600    0.60560    1.000
    H177     H        0.84550    0.04540    0.60530    1.000
    C178     C        0.83980    0.12570    0.65950    1.000
    H178     H        0.84070    0.09830    0.67600    1.000
    N177     N        0.77750    0.03760    0.60600    1.000
    N178     N        0.80540    0.13940    0.63160    1.000
    O177     O        0.68260    0.03650    0.60520    1.000
    O178     O        0.80650    0.24620    0.57410    1.000
    C179     C        0.32010    0.52600    0.10560    1.000
    H179     H        0.34550    0.54540    0.10530    1.000
    C180     C        0.33980    0.62570    0.15950    1.000
    H180     H        0.34070    0.59830    0.17600    1.000
    N179     N        0.27750    0.53760    0.10600    1.000
    N180     N        0.30540    0.63940    0.13160    1.000
    O179     O        0.18260    0.53650    0.10520    1.000
    O180     O        0.30650    0.74620    0.07410    1.000
    C181     C        0.82010    0.97400    0.39440    1.000
    H181     H        0.84550    0.95460    0.39470    1.000
    C182     C        0.83980    0.87430    0.34050    1.000
    H182     H        0.84070    0.90170    0.32400    1.000
    N181     N        0.77750    0.96240    0.39400    1.000
    N182     N        0.80540    0.86060    0.36840    1.000
    O181     O        0.68260    0.96350    0.39480    1.000
    O182     O        0.80650    0.75380    0.42590    1.000
    C183     C        0.32010    0.47400    0.89440    1.000
    H183     H        0.34550    0.45460    0.89470    1.000
    C184     C        0.33980    0.37430    0.84050    1.000
    H184     H        0.34070    0.40170    0.82400    1.000
    N183     N        0.27750    0.46240    0.89400    1.000
    N184     N        0.30540    0.36060    0.86840    1.000
    O183     O        0.18260    0.46350    0.89480    1.000
    O184     O        0.30650    0.25380    0.92590    1.000
    C185     C        0.17990    0.02600    0.39440    1.000
    H185     H        0.15450    0.04540    0.39470    1.000
    C186     C        0.16020    0.12570    0.34050    1.000
    H186     H        0.15930    0.09830    0.32400    1.000
    N185     N        0.22250    0.03760    0.39400    1.000
    N186     N        0.19460    0.13940    0.36840    1.000
    O185     O        0.31740    0.03650    0.39480    1.000
    O186     O        0.19350    0.24620    0.42590    1.000
    C187     C        0.67990    0.52600    0.89440    1.000
    H187     H        0.65450    0.54540    0.89470    1.000
    C188     C        0.66020    0.62570    0.84050    1.000
    H188     H        0.65930    0.59830    0.82400    1.000
    N187     N        0.72250    0.53760    0.89400    1.000
    N188     N        0.69460    0.63940    0.86840    1.000
    O187     O        0.81740    0.53650    0.89480    1.000
    O188     O        0.69350    0.74620    0.92590    1.000
    C189     C        0.17990    0.97400    0.60560    1.000
    H189     H        0.15450    0.95460    0.60530    1.000
    C190     C        0.16020    0.87430    0.65950    1.000
    H190     H        0.15930    0.90170    0.67600    1.000
    N189     N        0.22250    0.96240    0.60600    1.000
    N190     N        0.19460    0.86060    0.63160    1.000
    O189     O        0.31740    0.96350    0.60520    1.000
    O190     O        0.19350    0.75380    0.57410    1.000
    C191     C        0.67990    0.47400    0.10560    1.000
    H191     H        0.65450    0.45460    0.10530    1.000
    C192     C        0.66020    0.37430    0.15950    1.000
    H192     H        0.65930    0.40170    0.17600    1.000
    N191     N        0.72250    0.46240    0.10600    1.000
    N192     N        0.69460    0.36060    0.13160    1.000
    O191     O        0.81740    0.46350    0.10520    1.000
    O192     O        0.69350    0.25380    0.07410    1.000
    C193     C        0.61560    0.81870    0.18130    1.000
    N193     N        0.58650    0.79100    0.20900    1.000
    C194     C        0.11560    0.31870    0.68130    1.000
    N194     N        0.08650    0.29100    0.70900    1.000
    C195     C        0.38440    0.18130    0.18130    1.000
    N195     N        0.41350    0.20900    0.20900    1.000
    C196     C        0.88440    0.68130    0.68130    1.000
    N196     N        0.91350    0.70900    0.70900    1.000
    C197     C        0.38440    0.81870    0.81870    1.000
    N197     N        0.41350    0.79100    0.79100    1.000
    C198     C        0.88440    0.31870    0.31870    1.000
    N198     N        0.91350    0.29100    0.29100    1.000
    C199     C        0.61560    0.18130    0.81870    1.000
    N199     N        0.58650    0.20900    0.79100    1.000
    C200     C        0.11560    0.68130    0.31870    1.000
    N200     N        0.08650    0.70900    0.29100    1.000
    C201     C        0.18130    0.61560    0.81870    1.000
    N201     N        0.20900    0.58650    0.79100    1.000
    C202     C        0.68130    0.11560    0.31870    1.000
    N202     N        0.70900    0.08650    0.29100    1.000
    C203     C        0.18130    0.38440    0.18130    1.000
    N203     N        0.20900    0.41350    0.20900    1.000
    C204     C        0.68130    0.88440    0.68130    1.000
    N204     N        0.70900    0.91350    0.70900    1.000
    C205     C        0.81870    0.38440    0.81870    1.000
    N205     N        0.79100    0.41350    0.79100    1.000
    C206     C        0.31870    0.88440    0.31870    1.000
    N206     N        0.29100    0.91350    0.29100    1.000
    C207     C        0.81870    0.61560    0.18130    1.000
    N207     N        0.79100    0.58650    0.20900    1.000
    C208     C        0.31870    0.11560    0.68130    1.000
    N208     N        0.29100    0.08650    0.70900    1.000
    C209     C        0.81870    0.18130    0.61560    1.000
    N209     N        0.79100    0.20900    0.58650    1.000
    C210     C        0.31870    0.68130    0.11560    1.000
    N210     N        0.29100    0.70900    0.08650    1.000
    C211     C        0.18130    0.18130    0.38440    1.000
    N211     N        0.20900    0.20900    0.41350    1.000
    C212     C        0.68130    0.68130    0.88440    1.000
    N212     N        0.70900    0.70900    0.91350    1.000
    C213     C        0.81870    0.81870    0.38440    1.000
    N213     N        0.79100    0.79100    0.41350    1.000
    C214     C        0.31870    0.31870    0.88440    1.000
    N214     N        0.29100    0.29100    0.91350    1.000
    C215     C        0.18130    0.81870    0.61560    1.000
    N215     N        0.20900    0.79100    0.58650    1.000
    C216     C        0.68130    0.31870    0.11560    1.000
    N216     N        0.70900    0.29100    0.08650    1.000
    C217     C        0.81870    0.61560    0.81870    1.000
    N217     N        0.79100    0.58650    0.79100    1.000
    C218     C        0.31870    0.11560    0.31870    1.000
    N218     N        0.29100    0.08650    0.29100    1.000
    C219     C        0.18130    0.38440    0.81870    1.000
    N219     N        0.20900    0.41350    0.79100    1.000
    C220     C        0.68130    0.88440    0.31870    1.000
    N220     N        0.70900    0.91350    0.29100    1.000
    C221     C        0.81870    0.38440    0.18130    1.000
    N221     N        0.79100    0.41350    0.20900    1.000
    C222     C        0.31870    0.88440    0.68130    1.000
    N222     N        0.29100    0.91350    0.70900    1.000
    C223     C        0.18130    0.61560    0.18130    1.000
    N223     N        0.20900    0.58650    0.20900    1.000
    C224     C        0.68130    0.11560    0.68130    1.000
    N224     N        0.70900    0.08650    0.70900    1.000
    C225     C        0.61560    0.18130    0.18130    1.000
    N225     N        0.58650    0.20900    0.20900    1.000
    C226     C        0.11560    0.68130    0.68130    1.000
    N226     N        0.08650    0.70900    0.70900    1.000
    C227     C        0.38440    0.18130    0.81870    1.000
    N227     N        0.41350    0.20900    0.79100    1.000
    C228     C        0.88440    0.68130    0.31870    1.000
    N228     N        0.91350    0.70900    0.29100    1.000
    C229     C        0.38440    0.81870    0.18130    1.000
    N229     N        0.41350    0.79100    0.20900    1.000
    C230     C        0.88440    0.31870    0.68130    1.000
    N230     N        0.91350    0.29100    0.70900    1.000
    C231     C        0.61560    0.81870    0.81870    1.000
    N231     N        0.58650    0.79100    0.79100    1.000
    C232     C        0.11560    0.31870    0.31870    1.000
    N232     N        0.08650    0.29100    0.29100    1.000
    C233     C        0.18130    0.81870    0.38440    1.000
    N233     N        0.20900    0.79100    0.41350    1.000
    C234     C        0.68130    0.31870    0.88440    1.000
    N234     N        0.70900    0.29100    0.91350    1.000
    C235     C        0.18130    0.18130    0.61560    1.000
    N235     N        0.20900    0.20900    0.58650    1.000
    C236     C        0.68130    0.68130    0.11560    1.000
    N236     N        0.70900    0.70900    0.08650    1.000
    C237     C        0.81870    0.81870    0.61560    1.000
    N237     N        0.79100    0.79100    0.58650    1.000
    C238     C        0.31870    0.31870    0.11560    1.000
    N238     N        0.29100    0.29100    0.08650    1.000
    C239     C        0.81870    0.18130    0.38440    1.000
    N239     N        0.79100    0.20900    0.41350    1.000
    C240     C        0.31870    0.68130    0.88440    1.000
    N240     N        0.29100    0.70900    0.91350    1.000
    C241     C        0.60690    0.00000    0.25000    1.000
    N241     N        0.60770    0.00000    0.29540    1.000
    C242     C        0.10690    0.50000    0.75000    1.000
    N242     N        0.10770    0.50000    0.79540    1.000
    C243     C        0.39310    0.00000    0.25000    1.000
    N243     N        0.39230    0.00000    0.29540    1.000
    C244     C        0.89310    0.50000    0.75000    1.000
    N244     N        0.89230    0.50000    0.79540    1.000
    C245     C        0.39310    0.00000    0.75000    1.000
    N245     N        0.39230    0.00000    0.70460    1.000
    C246     C        0.89310    0.50000    0.25000    1.000
    N246     N        0.89230    0.50000    0.20460    1.000
    C247     C        0.60690    0.00000    0.75000    1.000
    N247     N        0.60770    0.00000    0.70460    1.000
    C248     C        0.10690    0.50000    0.25000    1.000
    N248     N        0.10770    0.50000    0.20460    1.000
    C249     C        0.25000    0.60690    0.00000    1.000
    N249     N        0.29540    0.60770    0.00000    1.000
    C250     C        0.75000    0.10690    0.50000    1.000
    N250     N        0.79540    0.10770    0.50000    1.000
    C251     C        0.25000    0.39310    0.00000    1.000
    N251     N        0.29540    0.39230    0.00000    1.000
    C252     C        0.75000    0.89310    0.50000    1.000
    N252     N        0.79540    0.89230    0.50000    1.000
    C253     C        0.75000    0.39310    0.00000    1.000
    N253     N        0.70460    0.39230    0.00000    1.000
    C254     C        0.25000    0.89310    0.50000    1.000
    N254     N        0.20460    0.89230    0.50000    1.000
    C255     C        0.75000    0.60690    0.00000    1.000
    N255     N        0.70460    0.60770    0.00000    1.000
    C256     C        0.25000    0.10690    0.50000    1.000
    N256     N        0.20460    0.10770    0.50000    1.000
    C257     C        0.00000    0.25000    0.60690    1.000
    N257     N        0.00000    0.29540    0.60770    1.000
    C258     C        0.50000    0.75000    0.10690    1.000
    N258     N        0.50000    0.79540    0.10770    1.000
    C259     C        0.00000    0.25000    0.39310    1.000
    N259     N        0.00000    0.29540    0.39230    1.000
    C260     C        0.50000    0.75000    0.89310    1.000
    N260     N        0.50000    0.79540    0.89230    1.000
    C261     C        0.00000    0.75000    0.39310    1.000
    N261     N        0.00000    0.70460    0.39230    1.000
    C262     C        0.50000    0.25000    0.89310    1.000
    N262     N        0.50000    0.20460    0.89230    1.000
    C263     C        0.00000    0.75000    0.60690    1.000
    N263     N        0.00000    0.70460    0.60770    1.000
    C264     C        0.50000    0.25000    0.10690    1.000
    N264     N        0.50000    0.20460    0.10770    1.000
    C265     C        0.00000    0.60690    0.75000    1.000
    N265     N        0.00000    0.60770    0.70460    1.000
    C266     C        0.50000    0.10690    0.25000    1.000
    N266     N        0.50000    0.10770    0.20460    1.000
    C267     C        0.00000    0.39310    0.75000    1.000
    N267     N        0.00000    0.39230    0.70460    1.000
    C268     C        0.50000    0.89310    0.25000    1.000
    N268     N        0.50000    0.89230    0.20460    1.000
    C269     C        0.00000    0.39310    0.25000    1.000
    N269     N        0.00000    0.39230    0.29540    1.000
    C270     C        0.50000    0.89310    0.75000    1.000
    N270     N        0.50000    0.89230    0.79540    1.000
    C271     C        0.00000    0.60690    0.25000    1.000
    N271     N        0.00000    0.60770    0.29540    1.000
    C272     C        0.50000    0.10690    0.75000    1.000
    N272     N        0.50000    0.10770    0.79540    1.000
    C273     C        0.60690    0.25000    0.00000    1.000
    N273     N        0.60770    0.29540    0.00000    1.000
    C274     C        0.10690    0.75000    0.50000    1.000
    N274     N        0.10770    0.79540    0.50000    1.000
    C275     C        0.39310    0.25000    0.00000    1.000
    N275     N        0.39230    0.29540    0.00000    1.000
    C276     C        0.89310    0.75000    0.50000    1.000
    N276     N        0.89230    0.79540    0.50000    1.000
    C277     C        0.39310    0.75000    0.00000    1.000
    N277     N        0.39230    0.70460    0.00000    1.000
    C278     C        0.89310    0.25000    0.50000    1.000
    N278     N        0.89230    0.20460    0.50000    1.000
    C279     C        0.60690    0.75000    0.00000    1.000
    N279     N        0.60770    0.70460    0.00000    1.000
    C280     C        0.10690    0.25000    0.50000    1.000
    N280     N        0.10770    0.20460    0.50000    1.000
    C281     C        0.25000    0.00000    0.39310    1.000
    N281     N        0.29540    0.00000    0.39230    1.000
    C282     C        0.75000    0.50000    0.89310    1.000
    N282     N        0.79540    0.50000    0.89230    1.000
    C283     C        0.25000    0.00000    0.60690    1.000
    N283     N        0.29540    0.00000    0.60770    1.000
    C284     C        0.75000    0.50000    0.10690    1.000
    N284     N        0.79540    0.50000    0.10770    1.000
    C285     C        0.75000    0.00000    0.60690    1.000
    N285     N        0.70460    0.00000    0.60770    1.000
    C286     C        0.25000    0.50000    0.10690    1.000
    N286     N        0.20460    0.50000    0.10770    1.000
    C287     C        0.75000    0.00000    0.39310    1.000
    N287     N        0.70460    0.00000    0.39230    1.000
    C288     C        0.25000    0.50000    0.89310    1.000
    N288     N        0.20460    0.50000    0.89230    1.000
    Co1      Co       0.60500    0.89500    0.25000    1.000
    Co2      Co       0.39500    0.10500    0.25000    1.000
    Co3      Co       0.39500    0.89500    0.75000    1.000
    Co4      Co       0.60500    0.10500    0.75000    1.000
    Co5      Co       0.25000    0.60500    0.89500    1.000
    Co6      Co       0.25000    0.39500    0.10500    1.000
    Co7      Co       0.75000    0.39500    0.89500    1.000
    Co8      Co       0.75000    0.60500    0.10500    1.000
    Co9      Co       0.89500    0.25000    0.60500    1.000
    Co10     Co       0.10500    0.25000    0.39500    1.000
    Co11     Co       0.89500    0.75000    0.39500    1.000
    Co12     Co       0.10500    0.75000    0.60500    1.000
    Co13     Co       0.89500    0.60500    0.75000    1.000
    Co14     Co       0.10500    0.39500    0.75000    1.000
    Co15     Co       0.89500    0.39500    0.25000    1.000
    Co16     Co       0.10500    0.60500    0.25000    1.000
    Co17     Co       0.60500    0.25000    0.10500    1.000
    Co18     Co       0.39500    0.25000    0.89500    1.000
    Co19     Co       0.39500    0.75000    0.10500    1.000
    Co20     Co       0.60500    0.75000    0.89500    1.000
    Co21     Co       0.25000    0.89500    0.39500    1.000
    Co22     Co       0.25000    0.10500    0.60500    1.000
    Co23     Co       0.75000    0.89500    0.60500    1.000
    Co24     Co       0.75000    0.10500    0.39500    1.000
    Co25     Co       0.39500    0.10500    0.75000    1.000
    Co26     Co       0.60500    0.89500    0.75000    1.000
    Co27     Co       0.60500    0.10500    0.25000    1.000
    Co28     Co       0.39500    0.89500    0.25000    1.000
    Co29     Co       0.75000    0.39500    0.10500    1.000
    Co30     Co       0.75000    0.60500    0.89500    1.000
    Co31     Co       0.25000    0.60500    0.10500    1.000
    Co32     Co       0.25000    0.39500    0.89500    1.000
    Co33     Co       0.10500    0.75000    0.39500    1.000
    Co34     Co       0.89500    0.75000    0.60500    1.000
    Co35     Co       0.10500    0.25000    0.60500    1.000
    Co36     Co       0.89500    0.25000    0.39500    1.000
    Co37     Co       0.10500    0.39500    0.25000    1.000
    Co38     Co       0.89500    0.60500    0.25000    1.000
    Co39     Co       0.10500    0.60500    0.75000    1.000
    Co40     Co       0.89500    0.39500    0.75000    1.000
    Co41     Co       0.39500    0.75000    0.89500    1.000
    Co42     Co       0.60500    0.75000    0.10500    1.000
    Co43     Co       0.60500    0.25000    0.89500    1.000
    Co44     Co       0.39500    0.25000    0.10500    1.000
    Co45     Co       0.75000    0.10500    0.60500    1.000
    Co46     Co       0.75000    0.89500    0.39500    1.000
    Co47     Co       0.25000    0.10500    0.39500    1.000
    Co48     Co       0.25000    0.89500    0.60500    1.000
