data_functionalizedCrystal
_audit_creation_method	'EQeq! by Chris Wilmer'
_symmetry_space_group_name_H-M	'P1'
_symmetry_Int_Tables_number	1
_symmetry_cell_setting	triclinic
loop_
_symmetry_equiv_pos_as_xyz
  x,y,z
_cell_length_a	7.9391
_cell_length_b	9.4382
_cell_length_c	15.4815
_cell_angle_alpha	82.233
_cell_angle_beta	82.868
_cell_angle_gamma	75.513
loop_
_atom_site_label
_atom_site_type_symbol
_atom_site_fract_x
_atom_site_fract_y
_atom_site_fract_z
_atom_site_charge
Mof_Zn	Zn	0.0806	0.2534	0.9142	1.199
Mof_Zn	Zn	0.4122	0.2467	0.5824	1.232
Mof_K 	K 	0.5643	0.3205	0.935	2.742
Mof_O 	O 	0.0419	0.349	0.7873	-0.445
Mof_O 	O 	0.8639	0.3971	0.972	-0.733
Mof_O 	O 	0.7971	0.5998	0.0418	-0.745
Mof_O 	O 	0.3191	0.152	0.8479	-0.57
Mof_O 	O 	0.1462	0.0979	0.0232	-0.497
Mof_O 	O 	0.0879	0.8884	0.091	-0.611
Mof_O 	O 	0.2936	0.103	0.5362	-0.355
Mof_O 	O 	0.3653	0.9008	0.4669	-0.357
Mof_O 	O 	0.5459	0.4047	0.6022	-0.393
Mof_O 	O 	0.1775	0.3506	0.6518	-0.369
Mof_O 	O 	0.6205	0.6091	0.5352	-0.359
Mof_O 	O 	0.4508	0.1436	0.7119	-0.423
Mof_C 	C 	0.902	0.4982	0.0034	0.327
Mof_C 	C 	0.1698	0.3065	0.7312	0.203
Mof_C 	C 	0.0673	0.9957	0.0328	0.193
Mof_C 	C 	0.3287	0.1909	0.7662	0.201
Mof_C 	C 	0.4027	0.0002	0.5019	0.21
Mof_C 	C 	0.5484	0.5043	0.5394	0.225
Mof_O 	O 	0.5063	0.6203	0.8781	-0.674
Mof_Zn	Zn	0.9194	0.7466	0.0858	1.198
Mof_Zn	Zn	0.5878	0.7533	0.4176	1.231
Mof_K 	K 	0.4357	0.6795	0.065	2.742
Mof_O 	O 	0.9581	0.651	0.2127	-0.445
Mof_O 	O 	0.1361	0.6029	0.028	-0.733
Mof_O 	O 	0.2029	0.4002	0.9582	-0.745
Mof_O 	O 	0.6809	0.848	0.1521	-0.57
Mof_O 	O 	0.8538	0.9021	0.9768	-0.497
Mof_O 	O 	0.9121	0.1116	0.909	-0.611
Mof_O 	O 	0.7064	0.897	0.4638	-0.355
Mof_O 	O 	0.6347	0.0992	0.5331	-0.357
Mof_O 	O 	0.4541	0.5953	0.3978	-0.393
Mof_O 	O 	0.8225	0.6494	0.3482	-0.369
Mof_O 	O 	0.3795	0.3909	0.4648	-0.359
Mof_O 	O 	0.5492	0.8564	0.2881	-0.423
Mof_C 	C 	0.098	0.5018	0.9966	0.327
Mof_C 	C 	0.8302	0.6935	0.2688	0.203
Mof_C 	C 	0.9327	0.0043	0.9672	0.193
Mof_C 	C 	0.6713	0.8091	0.2338	0.201
Mof_C 	C 	0.5973	0.9998	0.4981	0.21
Mof_C 	C 	0.4516	0.4957	0.4606	0.225
Mof_O 	O 	0.4937	0.3797	0.1219	-0.674
_end
