# CIF file generated by openbabel 3.1.0, see https://openbabel.org
data_I
_chemical_name_common 'image0'
_cell_length_a 6.8055
_cell_length_b 13.4475
_cell_length_c 16.1809
_cell_angle_alpha 90
_cell_angle_beta 90
_cell_angle_gamma 90
_space_group_name_H-M_alt 'P 1'
_space_group_name_Hall 'P 1'
loop_
    _symmetry_equiv_pos_as_xyz
    x,y,z
loop_
    _atom_site_label
    _atom_site_type_symbol
    _atom_site_fract_x
    _atom_site_fract_y
    _atom_site_fract_z
    _atom_site_occupancy
    C1       C        0.22430    0.60960    0.40430    1.000
    C2       C        0.24020    0.53430    0.33790    1.000
    C3       C        0.41920    0.51180    0.30210    1.000
    H1       H        0.53310    0.54100    0.32250    1.000
    C4       C        0.43100    0.44830    0.23810    1.000
    H2       H        0.55320    0.43300    0.21580    1.000
    C5       C        0.07140    0.48930    0.30710    1.000
    H3       H        0.95010    0.50220    0.33120    1.000
    C6       C        0.08450    0.42530    0.24050    1.000
    H4       H        0.97120    0.39580    0.21980    1.000
    C7       C        0.26230    0.40490    0.20470    1.000
    C8       C        0.27690    0.34430    0.12950    1.000
    O1       O        0.28350    0.18980    0.99000    1.000
    O2       O        0.11570    0.31260    0.09960    1.000
    O3       O        0.05640    0.63210    0.43020    1.000
    O4       O        0.44280    0.32840    0.09910    1.000
    O5       O        0.38450    0.64730    0.42860    1.000
    V1       V        0.06454    0.23546    0.99852    1.000
    C9       C        0.27570    0.39040    0.90430    1.000
    C10      C        0.25980    0.46570    0.83790    1.000
    C11      C        0.08080    0.48820    0.80210    1.000
    H5       H        0.96690    0.45900    0.82250    1.000
    C12      C        0.06900    0.55170    0.73810    1.000
    H6       H        0.94680    0.56700    0.71580    1.000
    C13      C        0.42860    0.51070    0.80710    1.000
    H7       H        0.54990    0.49780    0.83120    1.000
    C14      C        0.41550    0.57470    0.74050    1.000
    H8       H        0.52880    0.60420    0.71980    1.000
    C15      C        0.23770    0.59510    0.70470    1.000
    C16      C        0.22310    0.65570    0.62950    1.000
    O6       O        0.21650    0.81020    0.49000    1.000
    O7       O        0.38430    0.68740    0.59960    1.000
    O8       O        0.44360    0.36790    0.93020    1.000
    O9       O        0.05720    0.67160    0.59910    1.000
    O10      O        0.11550    0.35270    0.92860    1.000
    V2       V        0.43546    0.76454    0.49852    1.000
    C17      C        0.77570    0.10960    0.09570    1.000
    C18      C        0.75980    0.03430    0.16210    1.000
    C19      C        0.58080    0.01180    0.19790    1.000
    H9       H        0.46690    0.04100    0.17750    1.000
    C20      C        0.56900    0.94830    0.26190    1.000
    H10      H        0.44680    0.93300    0.28420    1.000
    C21      C        0.92860    0.98930    0.19290    1.000
    H11      H        0.04990    0.00220    0.16880    1.000
    C22      C        0.91550    0.92530    0.25950    1.000
    H12      H        0.02880    0.89580    0.28020    1.000
    C23      C        0.73770    0.90490    0.29530    1.000
    C24      C        0.72310    0.84430    0.37050    1.000
    O11      O        0.71650    0.68980    0.51000    1.000
    O12      O        0.88430    0.81260    0.40040    1.000
    O13      O        0.94360    0.13210    0.06980    1.000
    O14      O        0.55720    0.82840    0.40090    1.000
    O15      O        0.61550    0.14730    0.07140    1.000
    V3       V        0.93546    0.73546    0.50148    1.000
    C25      C        0.72430    0.89040    0.59570    1.000
    C26      C        0.74020    0.96570    0.66210    1.000
    C27      C        0.91920    0.98820    0.69790    1.000
    H13      H        0.03310    0.95900    0.67750    1.000
    C28      C        0.93100    0.05170    0.76190    1.000
    H14      H        0.05320    0.06700    0.78420    1.000
    C29      C        0.57140    0.01070    0.69290    1.000
    H15      H        0.45010    0.99780    0.66880    1.000
    C30      C        0.58450    0.07470    0.75950    1.000
    H16      H        0.47120    0.10420    0.78020    1.000
    C31      C        0.76230    0.09510    0.79530    1.000
    C32      C        0.77690    0.15570    0.87050    1.000
    O16      O        0.78350    0.31020    0.01000    1.000
    O17      O        0.61570    0.18740    0.90040    1.000
    O18      O        0.55640    0.86790    0.56980    1.000
    O19      O        0.94280    0.17160    0.90090    1.000
    O20      O        0.88450    0.85270    0.57140    1.000
    V4       V        0.56454    0.26454    0.00148    1.000
