# CIF file generated by openbabel 3.1.0, see https://openbabel.org
data_I
_chemical_name_common 'image0'
_cell_length_a 13.137
_cell_length_b 30.227
_cell_length_c 23.326
_cell_angle_alpha 90
_cell_angle_beta 102.075
_cell_angle_gamma 90
_space_group_name_H-M_alt 'P 1'
_space_group_name_Hall 'P 1'
loop_
    _symmetry_equiv_pos_as_xyz
    x,y,z
loop_
    _atom_site_label
    _atom_site_type_symbol
    _atom_site_fract_x
    _atom_site_fract_y
    _atom_site_fract_z
    _atom_site_occupancy
    Gd1      Gd       0.64970    0.27018    0.77143    1.000
    Gd2      Gd       0.34925    0.24513    0.69915    1.000
    C1       C        0.50890    0.24441    0.62890    1.000
    C2       C        0.58910    0.24237    0.59080    1.000
    C3       C        0.67390    0.27051    0.60080    1.000
    H1       H        0.68310    0.29080    0.63150    1.000
    C4       C        0.74450    0.26807    0.56460    1.000
    C5       C        0.73470    0.23883    0.51770    1.000
    C6       C        0.64690    0.21185    0.50910    1.000
    C7       C        0.57460    0.21317    0.54420    1.000
    H2       H        0.51680    0.19460    0.53660    1.000
    C8       C        0.80530    0.23909    0.47490    1.000
    C9       C        0.90210    0.21782    0.48450    1.000
    C10      C        0.96500    0.21743    0.44400    1.000
    H3       H        0.03060    0.20450    0.45300    1.000
    C11      C        0.92880    0.23656    0.38970    1.000
    C12      C        0.83330    0.25760    0.37710    1.000
    H4       H        0.80870    0.27030    0.34060    1.000
    C13      C        0.77490    0.25928    0.42020    1.000
    C14      C        0.99610    0.23453    0.34490    1.000
    C15      C        0.45740    0.34741    0.72680    1.000
    C16      C        0.43300    0.39660    0.72890    1.000
    C17      C        0.50660    0.42559    0.75830    1.000
    H5       H        0.57320    0.41550    0.77480    1.000
    C18      C        0.48180    0.46978    0.76320    1.000
    C19      C        0.38410    0.48737    0.73960    1.000
    C20      C        0.31210    0.45649    0.71000    1.000
    C21      C        0.33520    0.41269    0.70440    1.000
    H6       H        0.28470    0.39370    0.68400    1.000
    C22      C        0.54150    0.16981    0.75320    1.000
    C23      C        0.56540    0.12080    0.75690    1.000
    C24      C        0.49060    0.09056    0.73170    1.000
    H7       H        0.42400    0.10000    0.71410    1.000
    C25      C        0.51600    0.04583    0.73310    1.000
    C26      C        0.61380    0.02937    0.75680    1.000
    C27      C        0.68870    0.06159    0.78070    1.000
    C28      C        0.66450    0.10584    0.78170    1.000
    H8       H        0.71510    0.12590    0.79920    1.000
    C29      C        0.64050    0.98165    0.75110    1.000
    C30      C        0.65970    0.96558    0.69860    1.000
    C31      C        0.68590    0.92213    0.69050    1.000
    H9       H        0.69800    0.91290    0.65440    1.000
    C32      C        0.69420    0.89238    0.73660    1.000
    C33      C        0.67200    0.90651    0.78940    1.000
    H10      H        0.67550    0.88670    0.82030    1.000
    C34      C        0.64470    0.95019    0.79570    1.000
    C35      C        0.73060    0.84596    0.72920    1.000
    C36      C        0.25810    0.66685    0.78510    1.000
    C37      C        0.29790    0.62144    0.77480    1.000
    C38      C        0.31590    0.61060    0.72020    1.000
    H11      H        0.30680    0.63170    0.69060    1.000
    C39      C        0.34750    0.56826    0.70970    1.000
    C40      C        0.35630    0.53408    0.75130    1.000
    C41      C        0.34110    0.54752    0.80570    1.000
    C42      C        0.31490    0.59021    0.81870    1.000
    H12      H        0.30880    0.59760    0.85650    1.000
    N1       N        0.83140    0.29953    0.57590    1.000
    N2       N        0.62730    0.18179    0.45860    1.000
    N3       N        0.94110    0.19419    0.53980    1.000
    N4       N        0.67640    0.28409    0.40560    1.000
    N5       N        0.56300    0.49791    0.79840    1.000
    N6       N        0.20590    0.47053    0.68260    1.000
    N7       N        0.43290    0.01593    0.70300    1.000
    N8       N        0.79800    0.04906    0.80120    1.000
    N9       N        0.65450    0.99527    0.64770    1.000
    N10      N        0.61930    0.96267    0.85190    1.000
    N11      N        0.35460    0.51525    0.85490    1.000
    N12      N        0.37110    0.56035    0.65190    1.000
    O1       O        0.41970    0.23056    0.60916    1.000
    O2       O        0.53600    0.26098    0.67969    1.000
    O3       O        0.81470    0.33628    0.59180    1.000
    O4       O        0.91660    0.28630    0.57040    1.000
    O5       O        0.53750    0.17760    0.43280    1.000
    O6       O        0.69790    0.16212    0.44470    1.000
    O7       O        0.63500    0.28734    0.35435    1.000
    O8       O        0.64290    0.30120    0.44512    1.000
    O9       O        0.87750    0.18040    0.56640    1.000
    O10      O        0.03260    0.18640    0.55400    1.000
    O11      O        0.95500    0.24111    0.29186    1.000
    O12      O        0.38440    0.32336    0.70105    1.000
    O13      O        0.54730    0.33620    0.75136    1.000
    O14      O        0.14990    0.44480    0.65390    1.000
    O15      O        0.17420    0.50604    0.69460    1.000
    O16      O        0.62800    0.47965    0.83620    1.000
    O17      O        0.56120    0.53759    0.78920    1.000
    O18      O        0.60780    0.19420    0.78422    1.000
    O19      O        0.45910    0.18051    0.71869    1.000
    O20      O        0.43450    0.97719    0.71810    1.000
    O21      O        0.36800    0.03111    0.66310    1.000
    O22      O        0.82310    0.01023    0.79790    1.000
    O23      O        0.86110    0.07855    0.81820    1.000
    O24      O        0.63040    0.97868    0.59922    1.000
    O25      O        0.67410    0.03445    0.65668    1.000
    O26      O        0.59830    0.93361    0.88300    1.000
    O27      O        0.62010    0.00152    0.86470    1.000
    O28      O        0.74990    0.83537    0.68078    1.000
    O29      O        0.22390    0.69026    0.74132    1.000
    O30      O        0.25710    0.67871    0.83690    1.000
    O31      O        0.39350    0.59151    0.62480    1.000
    O32      O        0.37280    0.52336    0.63470    1.000
    O33      O        0.38790    0.52969    0.90390    1.000
    O34      O        0.33010    0.47700    0.84380    1.000
    O35      O        0.09050    0.22644    0.36222    1.000
    O36      O        0.74440    0.82060    0.77305    1.000
    Gd3      Gd       0.85030    0.77018    0.72857    1.000
    Gd4      Gd       0.15075    0.74513    0.80085    1.000
    C43      C        0.99110    0.74441    0.87110    1.000
    C44      C        0.91090    0.74237    0.90920    1.000
    C45      C        0.82610    0.77051    0.89920    1.000
    H13      H        0.81690    0.79080    0.86850    1.000
    C46      C        0.75550    0.76807    0.93540    1.000
    C47      C        0.76530    0.73883    0.98230    1.000
    C48      C        0.85310    0.71185    0.99090    1.000
    C49      C        0.92540    0.71317    0.95580    1.000
    H14      H        0.98320    0.69460    0.96340    1.000
    C50      C        0.69470    0.73909    0.02510    1.000
    C51      C        0.59790    0.71782    0.01550    1.000
    C52      C        0.53500    0.71743    0.05600    1.000
    H15      H        0.46940    0.70450    0.04700    1.000
    C53      C        0.57120    0.73656    0.11030    1.000
    C54      C        0.66670    0.75760    0.12290    1.000
    H16      H        0.69130    0.77030    0.15940    1.000
    C55      C        0.72510    0.75928    0.07980    1.000
    C56      C        0.50390    0.73453    0.15510    1.000
    C57      C        0.04260    0.84741    0.77320    1.000
    C58      C        0.06700    0.89660    0.77110    1.000
    C59      C        0.99340    0.92559    0.74170    1.000
    H17      H        0.92680    0.91550    0.72520    1.000
    C60      C        0.01820    0.96978    0.73680    1.000
    C61      C        0.11590    0.98737    0.76040    1.000
    C62      C        0.18790    0.95649    0.79000    1.000
    C63      C        0.16480    0.91269    0.79560    1.000
    H18      H        0.21530    0.89370    0.81600    1.000
    C64      C        0.95850    0.66981    0.74680    1.000
    C65      C        0.93460    0.62080    0.74310    1.000
    C66      C        0.00940    0.59056    0.76830    1.000
    H19      H        0.07600    0.60000    0.78590    1.000
    C67      C        0.98400    0.54583    0.76690    1.000
    C68      C        0.88620    0.52937    0.74320    1.000
    C69      C        0.81130    0.56159    0.71930    1.000
    C70      C        0.83550    0.60584    0.71830    1.000
    H20      H        0.78490    0.62590    0.70080    1.000
    C71      C        0.85950    0.48165    0.74890    1.000
    C72      C        0.84030    0.46558    0.80140    1.000
    C73      C        0.81410    0.42213    0.80950    1.000
    H21      H        0.80200    0.41290    0.84560    1.000
    C74      C        0.80580    0.39238    0.76340    1.000
    C75      C        0.82800    0.40651    0.71060    1.000
    H22      H        0.82450    0.38670    0.67970    1.000
    C76      C        0.85530    0.45019    0.70430    1.000
    C77      C        0.76940    0.34596    0.77080    1.000
    C78      C        0.24190    0.16685    0.71490    1.000
    C79      C        0.20210    0.12144    0.72520    1.000
    C80      C        0.18410    0.11060    0.77980    1.000
    H23      H        0.19320    0.13170    0.80940    1.000
    C81      C        0.15250    0.06826    0.79030    1.000
    C82      C        0.14370    0.03408    0.74870    1.000
    C83      C        0.15890    0.04752    0.69430    1.000
    C84      C        0.18510    0.09021    0.68130    1.000
    H24      H        0.19120    0.09760    0.64350    1.000
    N13      N        0.66860    0.79953    0.92410    1.000
    N14      N        0.87270    0.68179    0.04140    1.000
    N15      N        0.55890    0.69419    0.96020    1.000
    N16      N        0.82360    0.78409    0.09440    1.000
    N17      N        0.93700    0.99791    0.70160    1.000
    N18      N        0.29410    0.97053    0.81740    1.000
    N19      N        0.06710    0.51593    0.79700    1.000
    N20      N        0.70200    0.54906    0.69880    1.000
    N21      N        0.84550    0.49527    0.85230    1.000
    N22      N        0.88070    0.46267    0.64810    1.000
    N23      N        0.14540    0.01525    0.64510    1.000
    N24      N        0.12890    0.06035    0.84810    1.000
    O37      O        0.08030    0.73056    0.89084    1.000
    O38      O        0.96400    0.76098    0.82031    1.000
    O39      O        0.68530    0.83628    0.90820    1.000
    O40      O        0.58340    0.78630    0.92960    1.000
    O41      O        0.96250    0.67760    0.06720    1.000
    O42      O        0.80210    0.66212    0.05530    1.000
    O43      O        0.86500    0.78734    0.14565    1.000
    O44      O        0.85710    0.80120    0.05488    1.000
    O45      O        0.62250    0.68040    0.93360    1.000
    O46      O        0.46740    0.68640    0.94600    1.000
    O47      O        0.54500    0.74111    0.20814    1.000
    O48      O        0.11560    0.82336    0.79895    1.000
    O49      O        0.95270    0.83620    0.74864    1.000
    O50      O        0.35010    0.94480    0.84610    1.000
    O51      O        0.32580    0.00604    0.80540    1.000
    O52      O        0.87200    0.97965    0.66380    1.000
    O53      O        0.93880    0.03759    0.71080    1.000
    O54      O        0.89220    0.69420    0.71578    1.000
    O55      O        0.04090    0.68051    0.78131    1.000
    O56      O        0.06550    0.47719    0.78190    1.000
    O57      O        0.13200    0.53111    0.83690    1.000
    O58      O        0.67690    0.51023    0.70210    1.000
    O59      O        0.63890    0.57855    0.68180    1.000
    O60      O        0.86960    0.47868    0.90078    1.000
    O61      O        0.82590    0.53445    0.84332    1.000
    O62      O        0.90170    0.43361    0.61700    1.000
    O63      O        0.87990    0.50152    0.63530    1.000
    O64      O        0.75010    0.33537    0.81922    1.000
    O65      O        0.27610    0.19026    0.75868    1.000
    O66      O        0.24290    0.17871    0.66310    1.000
    O67      O        0.10650    0.09151    0.87520    1.000
    O68      O        0.12720    0.02336    0.86530    1.000
    O69      O        0.11210    0.02969    0.59610    1.000
    O70      O        0.16990    0.97700    0.65620    1.000
    O71      O        0.40950    0.72644    0.13778    1.000
    O72      O        0.75560    0.32060    0.72695    1.000
    Gd5      Gd       0.35030    0.72982    0.22857    1.000
    Gd6      Gd       0.65075    0.75487    0.30085    1.000
    C85      C        0.49110    0.75559    0.37110    1.000
    C86      C        0.41090    0.75763    0.40920    1.000
    C87      C        0.32610    0.72949    0.39920    1.000
    H25      H        0.31690    0.70920    0.36850    1.000
    C88      C        0.25550    0.73193    0.43540    1.000
    C89      C        0.26530    0.76117    0.48230    1.000
    C90      C        0.35310    0.78815    0.49090    1.000
    C91      C        0.42540    0.78683    0.45580    1.000
    H26      H        0.48320    0.80540    0.46340    1.000
    C92      C        0.19470    0.76091    0.52510    1.000
    C93      C        0.09790    0.78218    0.51550    1.000
    C94      C        0.03500    0.78257    0.55600    1.000
    H27      H        0.96940    0.79550    0.54700    1.000
    C95      C        0.07120    0.76344    0.61030    1.000
    C96      C        0.16670    0.74240    0.62290    1.000
    H28      H        0.19130    0.72970    0.65940    1.000
    C97      C        0.22510    0.74072    0.57980    1.000
    C98      C        0.00390    0.76547    0.65510    1.000
    C99      C        0.54260    0.65259    0.27320    1.000
    C100     C        0.56700    0.60340    0.27110    1.000
    C101     C        0.49340    0.57441    0.24170    1.000
    H29      H        0.42680    0.58450    0.22520    1.000
    C102     C        0.51820    0.53022    0.23680    1.000
    C103     C        0.61590    0.51263    0.26040    1.000
    C104     C        0.68790    0.54351    0.29000    1.000
    C105     C        0.66480    0.58731    0.29560    1.000
    H30      H        0.71530    0.60630    0.31600    1.000
    C106     C        0.45850    0.83019    0.24680    1.000
    C107     C        0.43460    0.87920    0.24310    1.000
    C108     C        0.50940    0.90944    0.26830    1.000
    H31      H        0.57600    0.90000    0.28590    1.000
    C109     C        0.48400    0.95417    0.26690    1.000
    C110     C        0.38620    0.97063    0.24320    1.000
    C111     C        0.31130    0.93841    0.21930    1.000
    C112     C        0.33550    0.89416    0.21830    1.000
    H32      H        0.28490    0.87410    0.20080    1.000
    C113     C        0.35950    0.01835    0.24890    1.000
    C114     C        0.34030    0.03442    0.30140    1.000
    C115     C        0.31410    0.07787    0.30950    1.000
    H33      H        0.30200    0.08710    0.34560    1.000
    C116     C        0.30580    0.10762    0.26340    1.000
    C117     C        0.32800    0.09349    0.21060    1.000
    H34      H        0.32450    0.11330    0.17970    1.000
    C118     C        0.35530    0.04981    0.20430    1.000
    C119     C        0.26940    0.15404    0.27080    1.000
    C120     C        0.74190    0.33315    0.21490    1.000
    C121     C        0.70210    0.37856    0.22520    1.000
    C122     C        0.68410    0.38940    0.27980    1.000
    H35      H        0.69320    0.36830    0.30940    1.000
    C123     C        0.65250    0.43174    0.29030    1.000
    C124     C        0.64370    0.46592    0.24870    1.000
    C125     C        0.65890    0.45248    0.19430    1.000
    C126     C        0.68510    0.40979    0.18130    1.000
    H36      H        0.69120    0.40240    0.14350    1.000
    N25      N        0.16860    0.70047    0.42410    1.000
    N26      N        0.37270    0.81821    0.54140    1.000
    N27      N        0.05890    0.80581    0.46020    1.000
    N28      N        0.32360    0.71591    0.59440    1.000
    N29      N        0.43700    0.50209    0.20160    1.000
    N30      N        0.79410    0.52947    0.31740    1.000
    N31      N        0.56710    0.98407    0.29700    1.000
    N32      N        0.20200    0.95094    0.19880    1.000
    N33      N        0.34550    0.00473    0.35230    1.000
    N34      N        0.38070    0.03733    0.14810    1.000
    N35      N        0.64540    0.48475    0.14510    1.000
    N36      N        0.62890    0.43965    0.34810    1.000
    O73      O        0.58030    0.76944    0.39084    1.000
    O74      O        0.46400    0.73902    0.32031    1.000
    O75      O        0.18530    0.66372    0.40820    1.000
    O76      O        0.08340    0.71370    0.42960    1.000
    O77      O        0.46250    0.82240    0.56720    1.000
    O78      O        0.30210    0.83788    0.55530    1.000
    O79      O        0.36500    0.71266    0.64565    1.000
    O80      O        0.35710    0.69880    0.55488    1.000
    O81      O        0.12250    0.81960    0.43360    1.000
    O82      O        0.96740    0.81360    0.44600    1.000
    O83      O        0.04500    0.75889    0.70814    1.000
    O84      O        0.61560    0.67664    0.29895    1.000
    O85      O        0.45270    0.66380    0.24864    1.000
    O86      O        0.85010    0.55520    0.34610    1.000
    O87      O        0.82580    0.49396    0.30540    1.000
    O88      O        0.37200    0.52035    0.16380    1.000
    O89      O        0.43880    0.46241    0.21080    1.000
    O90      O        0.39220    0.80580    0.21578    1.000
    O91      O        0.54090    0.81949    0.28131    1.000
    O92      O        0.56550    0.02281    0.28190    1.000
    O93      O        0.63200    0.96889    0.33690    1.000
    O94      O        0.17690    0.98977    0.20210    1.000
    O95      O        0.13890    0.92145    0.18180    1.000
    O96      O        0.36960    0.02132    0.40078    1.000
    O97      O        0.32590    0.96555    0.34332    1.000
    O98      O        0.40170    0.06639    0.11700    1.000
    O99      O        0.37990    0.99848    0.13530    1.000
    O100     O        0.25010    0.16463    0.31922    1.000
    O101     O        0.77610    0.30974    0.25868    1.000
    O102     O        0.74290    0.32129    0.16310    1.000
    O103     O        0.60650    0.40849    0.37520    1.000
    O104     O        0.62720    0.47664    0.36530    1.000
    O105     O        0.61210    0.47031    0.09610    1.000
    O106     O        0.66990    0.52300    0.15620    1.000
    O107     O        0.90950    0.77356    0.63778    1.000
    O108     O        0.25560    0.17940    0.22695    1.000
    Gd7      Gd       0.14970    0.22982    0.27143    1.000
    Gd8      Gd       0.84925    0.25487    0.19915    1.000
    C127     C        0.00890    0.25559    0.12890    1.000
    C128     C        0.08910    0.25763    0.09080    1.000
    C129     C        0.17390    0.22949    0.10080    1.000
    H37      H        0.18310    0.20920    0.13150    1.000
    C130     C        0.24450    0.23193    0.06460    1.000
    C131     C        0.23470    0.26117    0.01770    1.000
    C132     C        0.14690    0.28815    0.00910    1.000
    C133     C        0.07460    0.28683    0.04420    1.000
    H38      H        0.01680    0.30540    0.03660    1.000
    C134     C        0.30530    0.26091    0.97490    1.000
    C135     C        0.40210    0.28218    0.98450    1.000
    C136     C        0.46500    0.28257    0.94400    1.000
    H39      H        0.53060    0.29550    0.95300    1.000
    C137     C        0.42880    0.26344    0.88970    1.000
    C138     C        0.33330    0.24240    0.87710    1.000
    H40      H        0.30870    0.22970    0.84060    1.000
    C139     C        0.27490    0.24072    0.92020    1.000
    C140     C        0.49610    0.26547    0.84490    1.000
    C141     C        0.95740    0.15259    0.22680    1.000
    C142     C        0.93300    0.10340    0.22890    1.000
    C143     C        0.00660    0.07441    0.25830    1.000
    H41      H        0.07320    0.08450    0.27480    1.000
    C144     C        0.98180    0.03022    0.26320    1.000
    C145     C        0.88410    0.01263    0.23960    1.000
    C146     C        0.81210    0.04351    0.21000    1.000
    C147     C        0.83520    0.08731    0.20440    1.000
    H42      H        0.78470    0.10630    0.18400    1.000
    C148     C        0.04150    0.33019    0.25320    1.000
    C149     C        0.06540    0.37920    0.25690    1.000
    C150     C        0.99060    0.40944    0.23170    1.000
    H43      H        0.92400    0.40000    0.21410    1.000
    C151     C        0.01600    0.45417    0.23310    1.000
    C152     C        0.11380    0.47063    0.25680    1.000
    C153     C        0.18870    0.43841    0.28070    1.000
    C154     C        0.16450    0.39416    0.28170    1.000
    H44      H        0.21510    0.37410    0.29920    1.000
    C155     C        0.14050    0.51835    0.25110    1.000
    C156     C        0.15970    0.53442    0.19860    1.000
    C157     C        0.18590    0.57787    0.19050    1.000
    H45      H        0.19800    0.58710    0.15440    1.000
    C158     C        0.19420    0.60762    0.23660    1.000
    C159     C        0.17200    0.59349    0.28940    1.000
    H46      H        0.17550    0.61330    0.32030    1.000
    C160     C        0.14470    0.54981    0.29570    1.000
    C161     C        0.23060    0.65404    0.22920    1.000
    C162     C        0.75810    0.83315    0.28510    1.000
    C163     C        0.79790    0.87856    0.27480    1.000
    C164     C        0.81590    0.88940    0.22020    1.000
    H47      H        0.80680    0.86830    0.19060    1.000
    C165     C        0.84750    0.93174    0.20970    1.000
    C166     C        0.85630    0.96592    0.25130    1.000
    C167     C        0.84110    0.95248    0.30570    1.000
    C168     C        0.81490    0.90979    0.31870    1.000
    H48      H        0.80880    0.90240    0.35650    1.000
    N37      N        0.33140    0.20047    0.07590    1.000
    N38      N        0.12730    0.31821    0.95860    1.000
    N39      N        0.44110    0.30581    0.03980    1.000
    N40      N        0.17640    0.21591    0.90560    1.000
    N41      N        0.06300    0.00209    0.29840    1.000
    N42      N        0.70590    0.02947    0.18260    1.000
    N43      N        0.93290    0.48407    0.20300    1.000
    N44      N        0.29800    0.45094    0.30120    1.000
    N45      N        0.15450    0.50473    0.14770    1.000
    N46      N        0.11930    0.53733    0.35190    1.000
    N47      N        0.85460    0.98475    0.35490    1.000
    N48      N        0.87110    0.93965    0.15190    1.000
    O109     O        0.91970    0.26944    0.10916    1.000
    O110     O        0.03600    0.23902    0.17969    1.000
    O111     O        0.31470    0.16372    0.09180    1.000
    O112     O        0.41660    0.21370    0.07040    1.000
    O113     O        0.03750    0.32240    0.93280    1.000
    O114     O        0.19790    0.33788    0.94470    1.000
    O115     O        0.13500    0.21266    0.85435    1.000
    O116     O        0.14290    0.19880    0.94512    1.000
    O117     O        0.37750    0.31960    0.06640    1.000
    O118     O        0.53260    0.31360    0.05400    1.000
    O119     O        0.45500    0.25889    0.79186    1.000
    O120     O        0.88440    0.17664    0.20105    1.000
    O121     O        0.04730    0.16380    0.25136    1.000
    O122     O        0.64990    0.05520    0.15390    1.000
    O123     O        0.67420    0.99396    0.19460    1.000
    O124     O        0.12800    0.02035    0.33620    1.000
    O125     O        0.06120    0.96241    0.28920    1.000
    O126     O        0.10780    0.30580    0.28422    1.000
    O127     O        0.95910    0.31949    0.21869    1.000
    O128     O        0.93450    0.52281    0.21810    1.000
    O129     O        0.86800    0.46889    0.16310    1.000
    O130     O        0.32310    0.48977    0.29790    1.000
    O131     O        0.36110    0.42145    0.31820    1.000
    O132     O        0.13040    0.52132    0.09922    1.000
    O133     O        0.17410    0.46555    0.15668    1.000
    O134     O        0.09830    0.56639    0.38300    1.000
    O135     O        0.12010    0.49848    0.36470    1.000
    O136     O        0.24990    0.66463    0.18078    1.000
    O137     O        0.72390    0.80974    0.24132    1.000
    O138     O        0.75710    0.82129    0.33690    1.000
    O139     O        0.89350    0.90849    0.12480    1.000
    O140     O        0.87280    0.97664    0.13470    1.000
    O141     O        0.88790    0.97031    0.40390    1.000
    O142     O        0.83010    0.02300    0.34380    1.000
    O143     O        0.59050    0.27356    0.86222    1.000
    O144     O        0.24440    0.67940    0.27305    1.000
