data_functionalizedCrystal
_audit_creation_method	'EQeq! by Chris Wilmer'
_symmetry_space_group_name_H-M	'P1'
_symmetry_Int_Tables_number	1
_symmetry_cell_setting	triclinic
loop_
_symmetry_equiv_pos_as_xyz
  x,y,z
_cell_length_a	15.961
_cell_length_b	23.415
_cell_length_c	24.165
_cell_angle_alpha	90
_cell_angle_beta	91.832
_cell_angle_gamma	90
loop_
_atom_site_label
_atom_site_type_symbol
_atom_site_fract_x
_atom_site_fract_y
_atom_site_fract_z
_atom_site_charge
Mof_Ho	Ho	0.24774	0.78831	0.98759	2.047
Mof_Ho	Ho	0.16114	0.81545	0.13193	1.811
Mof_Ho	Ho	0.02488	0.75005	0.02087	1.637
Mof_Ho	Ho	0.20094	0.66642	0.08813	1.967
Mof_Ho	Ho	0.33116	0.83371	0.84676	1.75
Mof_Ho	Ho	0.29926	0.6777	0.87443	1.857
Mof_Ho	Ho	0.47023	0.75757	0.9479	1.908
Mof_O 	O 	0.131	0.8174	0.0364	-0.809
Mof_H 	H 	0.1124	0.8555	0.0245	0.227
Mof_O 	O 	0.156	0.7073	0.0029	-0.82
Mof_H 	H 	0.1536	0.6801	0.9721	0.21
Mof_O 	O 	0.2631	0.7567	0.0797	-0.805
Mof_H 	H 	0.3208	0.7587	0.0948	0.21
Mof_O 	O 	0.0953	0.7311	0.1066	-0.846
Mof_H 	H 	0.0575	0.7172	0.1348	0.164
Mof_O 	O 	0.2343	0.7669	0.8937	-0.78
Mof_H 	H 	0.1763	0.7693	0.8792	0.205
Mof_O 	O 	0.3612	0.8236	0.9408	-0.838
Mof_H 	H 	0.3792	0.8602	0.9568	0.228
Mof_O 	O 	0.3391	0.7129	0.9636	-0.817
Mof_H 	H 	0.3429	0.6828	0.9918	0.222
Mof_O 	O 	0.4026	0.7475	0.8622	-0.852
Mof_H 	H 	0.4408	0.738	0.8326	0.142
Mof_O 	O 	0.9552	0.1288	0.8794	-0.556
Mof_O 	O 	0.0367	0.169	0.9437	-0.532
Mof_O 	O 	0.1813	0.8748	0.9517	-0.501
Mof_O 	O 	0.242	0.9033	0.8745	-0.536
Mof_O 	O 	0.5369	0.7218	0.4249	-0.449
Mof_O 	O 	0.4101	0.734	0.4565	-0.432
Mof_O 	O 	0.2708	0.6781	0.1746	-0.512
Mof_O 	O 	0.2376	0.7675	0.1965	-0.609
Mof_O 	O 	0.2512	0.7918	0.7786	-0.563
Mof_O 	O 	0.2189	0.7015	0.796	-0.549
Mof_O 	O 	0.0816	0.7421	0.5158	-0.448
Mof_O 	O 	0.9566	0.7328	0.5463	-0.486
Mof_O 	O 	0.8227	0.3667	0.0864	-0.476
Mof_O 	O 	0.7635	0.4128	0.1532	-0.438
Mof_O 	O 	0.0924	0.6	0.0576	-0.474
Mof_O 	O 	0.1083	0.6121	0.1459	-0.452
Mof_O 	O 	0.5499	0.1084	0.1325	-0.52
Mof_O 	O 	0.4692	0.156	0.0726	-0.552
Mof_O 	O 	0.3177	0.8673	0.0347	-0.502
Mof_O 	O 	0.2487	0.8883	0.1105	-0.547
Mof_O 	O 	0.5969	0.3845	0.0946	-0.552
Mof_O 	O 	0.4983	0.3373	0.0481	-0.562
Mof_O 	O 	0.3158	0.624	0.0429	-0.548
Mof_O 	O 	0.2682	0.5769	0.1074	-0.428
Mof_C 	C 	0.0174	0.1289	0.9139	0.449
Mof_C 	C 	0.0739	0.0738	0.9149	-0.057
Mof_C 	C 	0.0295	0.0244	0.9016	-0.022
Mof_H 	H 	0.9727	0.0264	0.8921	0.028
Mof_C 	C 	0.07	0.9718	0.9026	-0.012
Mof_H 	H 	0.0403	0.9387	0.8937	0.019
Mof_C 	C 	0.155	0.9687	0.9168	-0.045
Mof_C 	C 	0.1994	0.0182	0.9301	0.007
Mof_C 	C 	0.1588	0.0708	0.9291	0.015
Mof_C 	C 	0.2032	0.1202	0.9424	-0.036
Mof_H 	H 	0.1761	0.1554	0.9418	0.049
Mof_C 	C 	0.2882	0.1171	0.9567	-0
Mof_H 	H 	0.3179	0.1502	0.9655	0.033
Mof_C 	C 	0.3287	0.0646	0.9576	-0.039
Mof_H 	H 	0.3856	0.0626	0.9671	0.039
Mof_C 	C 	0.2843	0.0151	0.9443	-0.044
Mof_H 	H 	0.3115	0.98	0.945	0.024
Mof_C 	C 	0.0683	0.0731	0.9205	-0.047
Mof_C 	C 	0.0253	0.0217	0.9243	-0.006
Mof_H 	H 	0.9673	0.0216	0.9268	0.013
Mof_C 	C 	0.069	0.9703	0.9246	-0.013
Mof_H 	H 	0.0403	0.9359	0.9271	0.019
Mof_C 	C 	0.1558	0.9704	0.9209	-0.061
Mof_C 	C 	0.1988	0.0218	0.9171	0.024
Mof_C 	C 	0.155	0.0731	0.9168	0.014
Mof_C 	C 	0.198	0.1245	0.913	-0.026
Mof_H 	H 	0.1687	0.1589	0.9128	0.005
Mof_C 	C 	0.2847	0.1246	0.9093	-0.06
Mof_H 	H 	0.3135	0.159	0.9067	0.048
Mof_C 	C 	0.3285	0.0733	0.9095	-0.018
Mof_H 	H 	0.3865	0.0733	0.9071	0.027
Mof_C 	C 	0.2855	0.0219	0.9134	-0.015
Mof_H 	H 	0.3148	0.9876	0.9136	0.025
Mof_C 	C 	0.1956	0.9111	0.9143	0.444
Mof_C 	C 	0.4592	0.726	0.4164	0.297
Mof_C 	C 	0.4188	0.7217	0.3593	-0.059
Mof_C 	C 	0.3462	0.7521	0.3502	-0.082
Mof_H 	H 	0.3242	0.7729	0.3791	0.053
Mof_C 	C 	0.3054	0.7523	0.2995	0.055
Mof_H 	H 	0.2578	0.7749	0.2948	-0.007
Mof_C 	C 	0.3312	0.7209	0.2554	-0.186
Mof_C 	C 	0.4067	0.6886	0.263	0.094
Mof_C 	C 	0.4415	0.6588	0.2182	-0.113
Mof_H 	H 	0.4144	0.6598	0.1836	0.078
Mof_C 	C 	0.5135	0.6289	0.225	0.004
Mof_H 	H 	0.5333	0.6079	0.1955	0.024
Mof_C 	C 	0.5592	0.6288	0.276	-0.056
Mof_H 	H 	0.6094	0.6089	0.2799	0.039
Mof_C 	C 	0.5283	0.6587	0.3198	-0.049
Mof_H 	H 	0.5577	0.6589	0.3537	0.046
Mof_C 	C 	0.4514	0.6897	0.3138	-0.005
Mof_C 	C 	0.2755	0.7233	0.2046	0.502
Mof_C 	C 	0.2112	0.7449	0.7685	0.475
Mof_C 	C 	0.1558	0.7449	0.7166	-0.158
Mof_C 	C 	0.1869	0.7705	0.6716	0.021
Mof_H 	H 	0.2372	0.7905	0.6746	0.002
Mof_C 	C 	0.1428	0.7669	0.6194	-0.041
Mof_H 	H 	0.1655	0.7848	0.589	0.045
Mof_C 	C 	0.0698	0.7387	0.6124	-0.098
Mof_C 	C 	0.0344	0.7121	0.659	0.027
Mof_C 	C 	0.9568	0.6823	0.6567	-0.078
Mof_H 	H 	0.9276	0.6795	0.6229	0.053
Mof_C 	C 	0.9233	0.6576	0.7025	-0.026
Mof_H 	H 	0.8738	0.6368	0.6988	0.028
Mof_C 	C 	0.9622	0.6632	0.7541	-0.024
Mof_H 	H 	0.9373	0.6483	0.7852	0.037
Mof_C 	C 	0.0367	0.6905	0.7592	-0.082
Mof_H 	H 	0.0627	0.6937	0.794	0.062
Mof_C 	C 	0.0772	0.7151	0.7116	0.061
Mof_C 	C 	0.0319	0.7359	0.5558	0.354
Mof_C 	C 	0.8201	0.4084	0.1207	0.337
Mof_C 	C 	0.8914	0.4524	0.1185	-0.089
Mof_C 	C 	0.9135	0.4745	0.0697	-0.03
Mof_H 	H 	0.8886	0.4608	0.037	0.041
Mof_C 	C 	0.9728	0.5172	0.0677	-0.018
Mof_H 	H 	0.9849	0.5329	0.0335	0.036
Mof_C 	C 	0.0146	0.5376	0.1143	-0.111
Mof_C 	C 	0.9946	0.5154	0.1663	0.044
Mof_C 	C 	0.0359	0.5332	0.2171	-0.098
Mof_H 	H 	0.0765	0.5616	0.2159	0.08
Mof_C 	C 	0.0175	0.5099	0.2672	-0.029
Mof_H 	H 	0.0472	0.5208	0.2992	0.041
Mof_C 	C 	0.95	0.4674	0.2698	-0.037
Mof_H 	H 	0.9354	0.4521	0.3037	0.04
Mof_C 	C 	0.909	0.4505	0.2223	-0.076
Mof_H 	H 	0.8669	0.4232	0.2242	0.07
Mof_C 	C 	0.9295	0.4739	0.1693	0.024
Mof_C 	C 	0.0752	0.5861	0.1062	0.343
Mof_C 	C 	0.4871	0.1119	0.0985	0.44
Mof_C 	C 	0.4326	0.0586	0.0916	-0.059
Mof_C 	C 	0.4729	0.0082	0.0776	-0.011
Mof_H 	H 	0.5303	0.0082	0.0722	0.006
Mof_C 	C 	0.4273	0.9579	0.0717	-0.011
Mof_H 	H 	0.4543	0.9242	0.0623	0.017
Mof_C 	C 	0.3415	0.9579	0.0798	-0.048
Mof_C 	C 	0.3012	0.0082	0.0938	0.006
Mof_C 	C 	0.3468	0.0586	0.0998	0.013
Mof_C 	C 	0.3065	0.1089	0.1138	-0.04
Mof_H 	H 	0.337	0.1426	0.1178	0.019
Mof_C 	C 	0.2207	0.1089	0.1219	-0.041
Mof_H 	H 	0.1938	0.1426	0.1313	0.045
Mof_C 	C 	0.1752	0.0586	0.116	-0.012
Mof_H 	H 	0.1177	0.0586	0.1214	0.026
Mof_C 	C 	0.2154	0.0082	0.1019	-0.056
Mof_H 	H 	0.1849	0.9746	0.098	0.042
Mof_C 	C 	0.4316	0.0605	0.0877	-0.051
Mof_C 	C 	0.4747	0.009	0.0899	-0.01
Mof_H 	H 	0.5326	0.0087	0.0956	0.024
Mof_C 	C 	0.4313	0.9578	0.0835	-0.005
Mof_H 	H 	0.4602	0.9233	0.085	0.014
Mof_C 	C 	0.3448	0.9582	0.0749	-0.059
Mof_C 	C 	0.3017	0.0098	0.0728	0.028
Mof_C 	C 	0.3451	0.0609	0.0791	0.019
Mof_C 	C 	0.3019	0.1125	0.077	-0.022
Mof_H 	H 	0.331	0.1467	0.0812	0.035
Mof_C 	C 	0.2154	0.1129	0.0684	-0.03
Mof_H 	H 	0.1866	0.1474	0.0669	0.047
Mof_C 	C 	0.172	0.0617	0.062	-0.034
Mof_H 	H 	0.1141	0.062	0.0563	0.036
Mof_C 	C 	0.2151	0.0102	0.0642	-0.019
Mof_H 	H 	0.1861	0.9759	0.0599	0.021
Mof_C 	C 	0.2984	0.9004	0.074	0.45
Mof_C 	C 	0.5293	0.3824	0.068	0.493
Mof_C 	C 	0.4777	0.4361	0.0602	-0.162
Mof_C 	C 	0.4838	0.4756	0.1011	0.019
Mof_H 	H 	0.5241	0.4706	0.1294	0.021
Mof_C 	C 	0.432	0.5235	0.1024	-0.021
Mof_H 	H 	0.4357	0.5489	0.132	0.038
Mof_C 	C 	0.375	0.5325	0.059	-0.12
Mof_C 	C 	0.3686	0.4951	0.0148	0.03
Mof_C 	C 	0.3107	0.505	0.971	-0.048
Mof_H 	H 	0.275	0.5364	0.9719	0.041
Mof_C 	C 	0.3069	0.4692	0.9282	-0.056
Mof_H 	H 	0.2693	0.4767	0.899	0.05
Mof_C 	C 	0.3574	0.421	0.9258	-0.005
Mof_H 	H 	0.3537	0.3971	0.8951	0.023
Mof_C 	C 	0.4125	0.4085	0.9688	-0.108
Mof_H 	H 	0.4447	0.3754	0.9676	0.08
Mof_C 	C 	0.4208	0.4451	0.0144	0.078
Mof_C 	C 	0.3185	0.5814	0.0662	0.424
Mof_Ho	Ho	0.25226	0.28831	0.51241	2.051
Mof_Ho	Ho	0.33886	0.31545	0.36807	1.811
Mof_Ho	Ho	0.47512	0.25005	0.47913	1.634
Mof_Ho	Ho	0.29906	0.16642	0.41187	1.967
Mof_Ho	Ho	0.16884	0.33371	0.65324	1.751
Mof_Ho	Ho	0.20074	0.1777	0.62557	1.858
Mof_Ho	Ho	0.02977	0.25757	0.5521	1.908
Mof_O 	O 	0.369	0.3174	0.4636	-0.808
Mof_H 	H 	0.3876	0.3555	0.4755	0.227
Mof_O 	O 	0.344	0.2073	0.4971	-0.82
Mof_H 	H 	0.3464	0.1801	0.5279	0.212
Mof_O 	O 	0.2369	0.2567	0.4203	-0.804
Mof_H 	H 	0.1792	0.2587	0.4052	0.211
Mof_O 	O 	0.4047	0.2311	0.3934	-0.845
Mof_H 	H 	0.4425	0.2172	0.3652	0.164
Mof_O 	O 	0.2657	0.2669	0.6063	-0.78
Mof_H 	H 	0.3237	0.2693	0.6208	0.205
Mof_O 	O 	0.1388	0.3236	0.5592	-0.838
Mof_H 	H 	0.1208	0.3602	0.5432	0.229
Mof_O 	O 	0.1609	0.2129	0.5364	-0.818
Mof_H 	H 	0.1571	0.1828	0.5082	0.222
Mof_O 	O 	0.0974	0.2475	0.6378	-0.852
Mof_H 	H 	0.0592	0.238	0.6674	0.142
Mof_O 	O 	0.5448	0.6288	0.6206	-0.557
Mof_O 	O 	0.4633	0.669	0.5563	-0.531
Mof_O 	O 	0.3187	0.3748	0.5483	-0.501
Mof_O 	O 	0.258	0.4033	0.6255	-0.536
Mof_O 	O 	0.9631	0.2218	0.0751	-0.449
Mof_O 	O 	0.0899	0.234	0.0435	-0.432
Mof_O 	O 	0.2292	0.1781	0.3254	-0.512
Mof_O 	O 	0.2624	0.2675	0.3035	-0.609
Mof_O 	O 	0.2488	0.2918	0.7214	-0.563
Mof_O 	O 	0.2811	0.2015	0.704	-0.549
Mof_O 	O 	0.4184	0.2421	0.9842	-0.447
Mof_O 	O 	0.5434	0.2328	0.9537	-0.485
Mof_O 	O 	0.6773	0.8667	0.4136	-0.476
Mof_O 	O 	0.7365	0.9128	0.3468	-0.439
Mof_O 	O 	0.4076	0.1	0.4424	-0.475
Mof_O 	O 	0.3917	0.1121	0.3541	-0.452
Mof_O 	O 	0.9501	0.6084	0.3675	-0.521
Mof_O 	O 	0.0308	0.656	0.4274	-0.552
Mof_O 	O 	0.1823	0.3673	0.4653	-0.504
Mof_O 	O 	0.2513	0.3883	0.3895	-0.548
Mof_O 	O 	0.9031	0.8845	0.4054	-0.552
Mof_O 	O 	0.0017	0.8373	0.4519	-0.561
Mof_O 	O 	0.1842	0.124	0.4571	-0.549
Mof_O 	O 	0.2318	0.0769	0.3926	-0.428
Mof_C 	C 	0.4826	0.6289	0.5861	0.45
Mof_C 	C 	0.4261	0.5738	0.5851	-0.057
Mof_C 	C 	0.4705	0.5244	0.5984	-0.021
Mof_H 	H 	0.5273	0.5264	0.6079	0.027
Mof_C 	C 	0.43	0.4718	0.5974	-0.012
Mof_H 	H 	0.4597	0.4387	0.6063	0.019
Mof_C 	C 	0.345	0.4687	0.5832	-0.045
Mof_C 	C 	0.3006	0.5182	0.5699	0.007
Mof_C 	C 	0.3412	0.5708	0.5709	0.016
Mof_C 	C 	0.2968	0.6202	0.5576	-0.036
Mof_H 	H 	0.3239	0.6554	0.5582	0.049
Mof_C 	C 	0.2118	0.6171	0.5433	-0.001
Mof_H 	H 	0.1821	0.6502	0.5345	0.033
Mof_C 	C 	0.1713	0.5646	0.5424	-0.039
Mof_H 	H 	0.1144	0.5626	0.5329	0.039
Mof_C 	C 	0.2157	0.5151	0.5557	-0.044
Mof_H 	H 	0.1885	0.48	0.555	0.025
Mof_C 	C 	0.4317	0.5731	0.5795	-0.047
Mof_C 	C 	0.4747	0.5217	0.5757	-0.004
Mof_H 	H 	0.5327	0.5216	0.5732	0.012
Mof_C 	C 	0.431	0.4703	0.5754	-0.013
Mof_H 	H 	0.4597	0.4359	0.5729	0.02
Mof_C 	C 	0.3442	0.4704	0.5791	-0.061
Mof_C 	C 	0.3012	0.5218	0.5829	0.024
Mof_C 	C 	0.345	0.5731	0.5832	0.014
Mof_C 	C 	0.302	0.6245	0.587	-0.026
Mof_H 	H 	0.3313	0.6589	0.5872	0.006
Mof_C 	C 	0.2153	0.6246	0.5907	-0.06
Mof_H 	H 	0.1865	0.659	0.5933	0.048
Mof_C 	C 	0.1715	0.5733	0.5905	-0.017
Mof_H 	H 	0.1135	0.5733	0.5929	0.027
Mof_C 	C 	0.2145	0.5219	0.5866	-0.017
Mof_H 	H 	0.1852	0.4876	0.5864	0.026
Mof_C 	C 	0.3044	0.4111	0.5857	0.444
Mof_C 	C 	0.0408	0.226	0.0836	0.296
Mof_C 	C 	0.0812	0.2217	0.1407	-0.059
Mof_C 	C 	0.1538	0.2521	0.1498	-0.082
Mof_H 	H 	0.1758	0.2729	0.1209	0.053
Mof_C 	C 	0.1946	0.2523	0.2005	0.056
Mof_H 	H 	0.2422	0.2749	0.2052	-0.007
Mof_C 	C 	0.1688	0.2209	0.2446	-0.187
Mof_C 	C 	0.0933	0.1886	0.237	0.095
Mof_C 	C 	0.0585	0.1588	0.2818	-0.115
Mof_H 	H 	0.0856	0.1598	0.3164	0.078
Mof_C 	C 	0.9865	0.1289	0.275	0.006
Mof_H 	H 	0.9667	0.1079	0.3045	0.023
Mof_C 	C 	0.9408	0.1288	0.224	-0.057
Mof_H 	H 	0.8906	0.1089	0.2201	0.039
Mof_C 	C 	0.9717	0.1587	0.1802	-0.047
Mof_H 	H 	0.9423	0.1589	0.1463	0.046
Mof_C 	C 	0.0486	0.1897	0.1862	-0.006
Mof_C 	C 	0.2245	0.2233	0.2954	0.502
Mof_C 	C 	0.2888	0.2449	0.7315	0.475
Mof_C 	C 	0.3442	0.2449	0.7834	-0.158
Mof_C 	C 	0.3131	0.2705	0.8284	0.021
Mof_H 	H 	0.2628	0.2905	0.8254	0.002
Mof_C 	C 	0.3572	0.2669	0.8806	-0.041
Mof_H 	H 	0.3345	0.2848	0.911	0.045
Mof_C 	C 	0.4302	0.2387	0.8876	-0.098
Mof_C 	C 	0.4656	0.2121	0.841	0.027
Mof_C 	C 	0.5432	0.1823	0.8433	-0.077
Mof_H 	H 	0.5724	0.1795	0.8771	0.053
Mof_C 	C 	0.5767	0.1576	0.7975	-0.026
Mof_H 	H 	0.6262	0.1368	0.8012	0.028
Mof_C 	C 	0.5378	0.1632	0.7459	-0.023
Mof_H 	H 	0.5627	0.1483	0.7148	0.037
Mof_C 	C 	0.4633	0.1905	0.7408	-0.082
Mof_H 	H 	0.4373	0.1937	0.706	0.062
Mof_C 	C 	0.4228	0.2151	0.7884	0.061
Mof_C 	C 	0.4681	0.2359	0.9442	0.353
Mof_C 	C 	0.6799	0.9084	0.3793	0.337
Mof_C 	C 	0.6086	0.9524	0.3815	-0.089
Mof_C 	C 	0.5865	0.9745	0.4303	-0.03
Mof_H 	H 	0.6114	0.9608	0.463	0.041
Mof_C 	C 	0.5272	0.0172	0.4323	-0.017
Mof_H 	H 	0.5151	0.0329	0.4665	0.036
Mof_C 	C 	0.4854	0.0376	0.3857	-0.112
Mof_C 	C 	0.5054	0.0154	0.3337	0.044
Mof_C 	C 	0.4641	0.0332	0.2829	-0.098
Mof_H 	H 	0.4235	0.0616	0.2841	0.079
Mof_C 	C 	0.4825	0.0099	0.2328	-0.032
Mof_H 	H 	0.4528	0.0208	0.2008	0.041
Mof_C 	C 	0.55	0.9674	0.2302	-0.034
Mof_H 	H 	0.5646	0.9521	0.1963	0.04
Mof_C 	C 	0.591	0.9505	0.2777	-0.077
Mof_H 	H 	0.6331	0.9232	0.2758	0.07
Mof_C 	C 	0.5705	0.9739	0.3307	0.025
Mof_C 	C 	0.4248	0.0861	0.3938	0.343
Mof_C 	C 	0.0129	0.6119	0.4015	0.441
Mof_C 	C 	0.0674	0.5586	0.4084	-0.059
Mof_C 	C 	0.0271	0.5082	0.4224	-0.01
Mof_H 	H 	0.9697	0.5082	0.4278	0.007
Mof_C 	C 	0.0727	0.4579	0.4283	-0.012
Mof_H 	H 	0.0457	0.4242	0.4377	0.017
Mof_C 	C 	0.1585	0.4579	0.4202	-0.048
Mof_C 	C 	0.1988	0.5082	0.4062	0.006
Mof_C 	C 	0.1532	0.5586	0.4002	0.012
Mof_C 	C 	0.1935	0.6089	0.3862	-0.041
Mof_H 	H 	0.163	0.6426	0.3822	0.02
Mof_C 	C 	0.2793	0.6089	0.3781	-0.04
Mof_H 	H 	0.3062	0.6426	0.3687	0.044
Mof_C 	C 	0.3248	0.5586	0.384	-0.013
Mof_H 	H 	0.3823	0.5586	0.3786	0.027
Mof_C 	C 	0.2846	0.5082	0.3981	-0.054
Mof_H 	H 	0.3151	0.4746	0.402	0.04
Mof_C 	C 	0.0684	0.5605	0.4123	-0.051
Mof_C 	C 	0.0253	0.509	0.4101	-0.009
Mof_H 	H 	0.9674	0.5087	0.4044	0.024
Mof_C 	C 	0.0687	0.4578	0.4165	-0.006
Mof_H 	H 	0.0398	0.4233	0.415	0.014
Mof_C 	C 	0.1552	0.4582	0.4251	-0.06
Mof_C 	C 	0.1983	0.5098	0.4272	0.028
Mof_C 	C 	0.1549	0.5609	0.4209	0.02
Mof_C 	C 	0.1981	0.6125	0.423	-0.021
Mof_H 	H 	0.169	0.6467	0.4188	0.034
Mof_C 	C 	0.2846	0.6129	0.4316	-0.03
Mof_H 	H 	0.3134	0.6474	0.4331	0.047
Mof_C 	C 	0.328	0.5617	0.438	-0.035
Mof_H 	H 	0.3859	0.562	0.4437	0.037
Mof_C 	C 	0.2849	0.5102	0.4358	-0.016
Mof_H 	H 	0.3139	0.4759	0.4401	0.019
Mof_C 	C 	0.2016	0.4004	0.426	0.45
Mof_C 	C 	0.9707	0.8824	0.432	0.491
Mof_C 	C 	0.0223	0.9361	0.4398	-0.162
Mof_C 	C 	0.0162	0.9756	0.3989	0.023
Mof_H 	H 	0.9759	0.9706	0.3706	0.019
Mof_C 	C 	0.068	0.0235	0.3976	-0.024
Mof_H 	H 	0.0643	0.0489	0.368	0.039
Mof_C 	C 	0.125	0.0325	0.441	-0.121
Mof_C 	C 	0.1314	0.9951	0.4852	0.032
Mof_C 	C 	0.1893	0.005	0.529	-0.053
Mof_H 	H 	0.225	0.0364	0.5281	0.042
Mof_C 	C 	0.1931	0.9692	0.5718	-0.053
Mof_H 	H 	0.2307	0.9767	0.601	0.048
Mof_C 	C 	0.1426	0.921	0.5742	-0.007
Mof_H 	H 	0.1463	0.8971	0.6049	0.024
Mof_C 	C 	0.0875	0.9085	0.5312	-0.106
Mof_H 	H 	0.0553	0.8754	0.5324	0.08
Mof_C 	C 	0.0792	0.9451	0.4856	0.077
Mof_C 	C 	0.1815	0.0814	0.4338	0.424
Mof_Ho	Ho	0.75226	0.21169	0.01241	2.048
Mof_Ho	Ho	0.83886	0.18455	0.86807	1.812
Mof_Ho	Ho	0.97512	0.24995	0.97913	1.638
Mof_Ho	Ho	0.79906	0.33358	0.91187	1.968
Mof_Ho	Ho	0.66884	0.16629	0.15324	1.751
Mof_Ho	Ho	0.70074	0.3223	0.12557	1.858
Mof_Ho	Ho	0.52977	0.24243	0.0521	1.909
Mof_O 	O 	0.869	0.1826	0.9636	-0.808
Mof_H 	H 	0.8876	0.1445	0.9755	0.228
Mof_O 	O 	0.844	0.2927	0.9971	-0.819
Mof_H 	H 	0.8464	0.3199	0.0279	0.211
Mof_O 	O 	0.7369	0.2433	0.9203	-0.804
Mof_H 	H 	0.6792	0.2413	0.9052	0.211
Mof_O 	O 	0.9047	0.2689	0.8934	-0.845
Mof_H 	H 	0.9425	0.2828	0.8652	0.164
Mof_O 	O 	0.7657	0.2331	0.1063	-0.78
Mof_H 	H 	0.8237	0.2307	0.1208	0.205
Mof_O 	O 	0.6388	0.1764	0.0592	-0.838
Mof_H 	H 	0.6208	0.1398	0.0432	0.228
Mof_O 	O 	0.6609	0.2871	0.0364	-0.817
Mof_H 	H 	0.6571	0.3172	0.0082	0.222
Mof_O 	O 	0.5974	0.2525	0.1378	-0.852
Mof_H 	H 	0.5592	0.262	0.1674	0.142
Mof_O 	O 	0.0448	0.8712	0.1206	-0.556
Mof_O 	O 	0.9633	0.831	0.0563	-0.532
Mof_O 	O 	0.8187	0.1252	0.0483	-0.501
Mof_O 	O 	0.758	0.0967	0.1255	-0.536
Mof_O 	O 	0.4631	0.2782	0.5751	-0.449
Mof_O 	O 	0.5899	0.266	0.5435	-0.432
Mof_O 	O 	0.7292	0.3219	0.8254	-0.512
Mof_O 	O 	0.7624	0.2325	0.8035	-0.609
Mof_O 	O 	0.7488	0.2082	0.2214	-0.563
Mof_O 	O 	0.7811	0.2985	0.204	-0.549
Mof_O 	O 	0.9184	0.2579	0.4842	-0.448
Mof_O 	O 	0.0434	0.2672	0.4537	-0.486
Mof_O 	O 	0.1773	0.6333	0.9136	-0.476
Mof_O 	O 	0.2365	0.5872	0.8468	-0.438
Mof_O 	O 	0.9076	0.4	0.9424	-0.474
Mof_O 	O 	0.8917	0.3879	0.8541	-0.452
Mof_O 	O 	0.4501	0.8916	0.8675	-0.52
Mof_O 	O 	0.5308	0.844	0.9274	-0.552
Mof_O 	O 	0.6823	0.1327	0.9653	-0.502
Mof_O 	O 	0.7513	0.1117	0.8895	-0.547
Mof_O 	O 	0.4031	0.6155	0.9054	-0.552
Mof_O 	O 	0.5017	0.6627	0.9519	-0.562
Mof_O 	O 	0.6842	0.376	0.9571	-0.548
Mof_O 	O 	0.7318	0.4231	0.8926	-0.428
Mof_C 	C 	0.9826	0.8711	0.0861	0.449
Mof_C 	C 	0.9261	0.9262	0.0851	-0.057
Mof_C 	C 	0.9705	0.9756	0.0984	-0.022
Mof_H 	H 	0.0273	0.9736	0.1079	0.028
Mof_C 	C 	0.93	0.0282	0.0974	-0.012
Mof_H 	H 	0.9597	0.0613	0.1063	0.019
Mof_C 	C 	0.845	0.0313	0.0832	-0.045
Mof_C 	C 	0.8006	0.9818	0.0699	0.007
Mof_C 	C 	0.8412	0.9292	0.0709	0.015
Mof_C 	C 	0.7968	0.8798	0.0576	-0.036
Mof_H 	H 	0.8239	0.8446	0.0582	0.049
Mof_C 	C 	0.7118	0.8829	0.0433	-0
Mof_H 	H 	0.6821	0.8498	0.0345	0.033
Mof_C 	C 	0.6713	0.9354	0.0424	-0.039
Mof_H 	H 	0.6144	0.9374	0.0329	0.039
Mof_C 	C 	0.7157	0.9849	0.0557	-0.044
Mof_H 	H 	0.6885	0.02	0.055	0.024
Mof_C 	C 	0.9317	0.9269	0.0795	-0.047
Mof_C 	C 	0.9747	0.9783	0.0757	-0.006
Mof_H 	H 	0.0327	0.9784	0.0732	0.013
Mof_C 	C 	0.931	0.0297	0.0754	-0.013
Mof_H 	H 	0.9597	0.0641	0.0729	0.019
Mof_C 	C 	0.8442	0.0296	0.0791	-0.061
Mof_C 	C 	0.8012	0.9782	0.0829	0.024
Mof_C 	C 	0.845	0.9269	0.0832	0.014
Mof_C 	C 	0.802	0.8755	0.087	-0.026
Mof_H 	H 	0.8313	0.8411	0.0872	0.005
Mof_C 	C 	0.7153	0.8754	0.0907	-0.06
Mof_H 	H 	0.6865	0.841	0.0933	0.048
Mof_C 	C 	0.6715	0.9267	0.0905	-0.018
Mof_H 	H 	0.6135	0.9267	0.0929	0.027
Mof_C 	C 	0.7145	0.9781	0.0866	-0.015
Mof_H 	H 	0.6852	0.0124	0.0864	0.025
Mof_C 	C 	0.8044	0.0889	0.0857	0.444
Mof_C 	C 	0.5408	0.274	0.5836	0.297
Mof_C 	C 	0.5812	0.2783	0.6407	-0.059
Mof_C 	C 	0.6538	0.2479	0.6498	-0.082
Mof_H 	H 	0.6758	0.2271	0.6209	0.053
Mof_C 	C 	0.6946	0.2477	0.7005	0.055
Mof_H 	H 	0.7422	0.2251	0.7052	-0.007
Mof_C 	C 	0.6688	0.2791	0.7446	-0.186
Mof_C 	C 	0.5933	0.3114	0.737	0.094
Mof_C 	C 	0.5585	0.3412	0.7818	-0.113
Mof_H 	H 	0.5856	0.3402	0.8164	0.078
Mof_C 	C 	0.4865	0.3711	0.775	0.004
Mof_H 	H 	0.4667	0.3921	0.8045	0.024
Mof_C 	C 	0.4408	0.3712	0.724	-0.056
Mof_H 	H 	0.3906	0.3911	0.7201	0.039
Mof_C 	C 	0.4717	0.3413	0.6802	-0.049
Mof_H 	H 	0.4423	0.3411	0.6463	0.046
Mof_C 	C 	0.5486	0.3103	0.6862	-0.005
Mof_C 	C 	0.7245	0.2767	0.7954	0.502
Mof_C 	C 	0.7888	0.2551	0.2315	0.475
Mof_C 	C 	0.8442	0.2551	0.2834	-0.158
Mof_C 	C 	0.8131	0.2295	0.3284	0.021
Mof_H 	H 	0.7628	0.2095	0.3254	0.002
Mof_C 	C 	0.8572	0.2331	0.3806	-0.041
Mof_H 	H 	0.8345	0.2152	0.411	0.045
Mof_C 	C 	0.9302	0.2613	0.3876	-0.098
Mof_C 	C 	0.9656	0.2879	0.341	0.027
Mof_C 	C 	0.0432	0.3177	0.3433	-0.078
Mof_H 	H 	0.0724	0.3205	0.3771	0.053
Mof_C 	C 	0.0767	0.3424	0.2975	-0.026
Mof_H 	H 	0.1262	0.3632	0.3012	0.028
Mof_C 	C 	0.0378	0.3368	0.2459	-0.024
Mof_H 	H 	0.0627	0.3517	0.2148	0.037
Mof_C 	C 	0.9633	0.3095	0.2408	-0.082
Mof_H 	H 	0.9373	0.3063	0.206	0.062
Mof_C 	C 	0.9228	0.2849	0.2884	0.061
Mof_C 	C 	0.9681	0.2641	0.4442	0.354
Mof_C 	C 	0.1799	0.5916	0.8793	0.337
Mof_C 	C 	0.1086	0.5476	0.8815	-0.089
Mof_C 	C 	0.0865	0.5255	0.9303	-0.03
Mof_H 	H 	0.1114	0.5392	0.963	0.041
Mof_C 	C 	0.0272	0.4828	0.9323	-0.018
Mof_H 	H 	0.0151	0.4671	0.9665	0.036
Mof_C 	C 	0.9854	0.4624	0.8857	-0.111
Mof_C 	C 	0.0054	0.4846	0.8337	0.044
Mof_C 	C 	0.9641	0.4668	0.7829	-0.098
Mof_H 	H 	0.9235	0.4384	0.7841	0.08
Mof_C 	C 	0.9825	0.4901	0.7328	-0.029
Mof_H 	H 	0.9528	0.4792	0.7008	0.041
Mof_C 	C 	0.05	0.5326	0.7302	-0.037
Mof_H 	H 	0.0646	0.5479	0.6963	0.04
Mof_C 	C 	0.091	0.5495	0.7777	-0.076
Mof_H 	H 	0.1331	0.5768	0.7758	0.07
Mof_C 	C 	0.0705	0.5261	0.8307	0.024
Mof_C 	C 	0.9248	0.4139	0.8938	0.343
Mof_C 	C 	0.5129	0.8881	0.9015	0.44
Mof_C 	C 	0.5674	0.9414	0.9084	-0.059
Mof_C 	C 	0.5271	0.9918	0.9224	-0.011
Mof_H 	H 	0.4697	0.9918	0.9278	0.006
Mof_C 	C 	0.5727	0.0421	0.9283	-0.011
Mof_H 	H 	0.5457	0.0758	0.9377	0.017
Mof_C 	C 	0.6585	0.0421	0.9202	-0.048
Mof_C 	C 	0.6988	0.9918	0.9062	0.006
Mof_C 	C 	0.6532	0.9414	0.9002	0.013
Mof_C 	C 	0.6935	0.8911	0.8862	-0.04
Mof_H 	H 	0.663	0.8574	0.8822	0.019
Mof_C 	C 	0.7793	0.8911	0.8781	-0.041
Mof_H 	H 	0.8062	0.8574	0.8687	0.045
Mof_C 	C 	0.8248	0.9414	0.884	-0.012
Mof_H 	H 	0.8823	0.9414	0.8786	0.026
Mof_C 	C 	0.7846	0.9918	0.8981	-0.056
Mof_H 	H 	0.8151	0.0254	0.902	0.042
Mof_C 	C 	0.5684	0.9395	0.9123	-0.051
Mof_C 	C 	0.5253	0.991	0.9101	-0.01
Mof_H 	H 	0.4674	0.9913	0.9044	0.024
Mof_C 	C 	0.5687	0.0422	0.9165	-0.005
Mof_H 	H 	0.5398	0.0767	0.915	0.014
Mof_C 	C 	0.6552	0.0418	0.9251	-0.059
Mof_C 	C 	0.6983	0.9902	0.9272	0.028
Mof_C 	C 	0.6549	0.9391	0.9209	0.019
Mof_C 	C 	0.6981	0.8875	0.923	-0.022
Mof_H 	H 	0.669	0.8533	0.9188	0.035
Mof_C 	C 	0.7846	0.8871	0.9316	-0.03
Mof_H 	H 	0.8134	0.8526	0.9331	0.047
Mof_C 	C 	0.828	0.9383	0.938	-0.034
Mof_H 	H 	0.8859	0.938	0.9437	0.036
Mof_C 	C 	0.7849	0.9898	0.9358	-0.019
Mof_H 	H 	0.8139	0.0241	0.9401	0.021
Mof_C 	C 	0.7016	0.0996	0.926	0.45
Mof_C 	C 	0.4707	0.6176	0.932	0.493
Mof_C 	C 	0.5223	0.5639	0.9398	-0.162
Mof_C 	C 	0.5162	0.5244	0.8989	0.019
Mof_H 	H 	0.4759	0.5294	0.8706	0.021
Mof_C 	C 	0.568	0.4765	0.8976	-0.021
Mof_H 	H 	0.5643	0.4511	0.868	0.038
Mof_C 	C 	0.625	0.4675	0.941	-0.12
Mof_C 	C 	0.6314	0.5049	0.9852	0.03
Mof_C 	C 	0.6893	0.495	0.029	-0.048
Mof_H 	H 	0.725	0.4636	0.0281	0.041
Mof_C 	C 	0.6931	0.5308	0.0718	-0.056
Mof_H 	H 	0.7307	0.5233	0.101	0.05
Mof_C 	C 	0.6426	0.579	0.0742	-0.005
Mof_H 	H 	0.6463	0.6029	0.1049	0.023
Mof_C 	C 	0.5875	0.5915	0.0312	-0.108
Mof_H 	H 	0.5553	0.6246	0.0324	0.08
Mof_C 	C 	0.5792	0.5549	0.9856	0.078
Mof_C 	C 	0.6815	0.4186	0.9338	0.424
Mof_Ho	Ho	0.74774	0.71169	0.48759	2.051
Mof_Ho	Ho	0.66114	0.68455	0.63193	1.811
Mof_Ho	Ho	0.52488	0.74995	0.52087	1.634
Mof_Ho	Ho	0.70094	0.83358	0.58813	1.967
Mof_Ho	Ho	0.83116	0.66629	0.34676	1.751
Mof_Ho	Ho	0.79926	0.8223	0.37443	1.858
Mof_Ho	Ho	0.97023	0.74243	0.4479	1.908
Mof_O 	O 	0.631	0.6826	0.5364	-0.808
Mof_H 	H 	0.6124	0.6445	0.5245	0.227
Mof_O 	O 	0.656	0.7927	0.5029	-0.82
Mof_H 	H 	0.6536	0.8199	0.4721	0.212
Mof_O 	O 	0.7631	0.7433	0.5797	-0.804
Mof_H 	H 	0.8208	0.7413	0.5948	0.211
Mof_O 	O 	0.5953	0.7689	0.6066	-0.845
Mof_H 	H 	0.5575	0.7828	0.6348	0.164
Mof_O 	O 	0.7343	0.7331	0.3937	-0.78
Mof_H 	H 	0.6763	0.7307	0.3792	0.205
Mof_O 	O 	0.8612	0.6764	0.4408	-0.838
Mof_H 	H 	0.8792	0.6398	0.4568	0.229
Mof_O 	O 	0.8391	0.7871	0.4636	-0.818
Mof_H 	H 	0.8429	0.8172	0.4918	0.222
Mof_O 	O 	0.9026	0.7525	0.3622	-0.852
Mof_H 	H 	0.9408	0.762	0.3326	0.142
Mof_O 	O 	0.4552	0.3712	0.3794	-0.557
Mof_O 	O 	0.5367	0.331	0.4437	-0.531
Mof_O 	O 	0.6813	0.6252	0.4517	-0.501
Mof_O 	O 	0.742	0.5967	0.3745	-0.536
Mof_O 	O 	0.0369	0.7782	0.9249	-0.449
Mof_O 	O 	0.9101	0.766	0.9565	-0.432
Mof_O 	O 	0.7708	0.8219	0.6746	-0.512
Mof_O 	O 	0.7376	0.7325	0.6965	-0.609
Mof_O 	O 	0.7512	0.7082	0.2786	-0.563
Mof_O 	O 	0.7189	0.7985	0.296	-0.549
Mof_O 	O 	0.5816	0.7579	0.0158	-0.447
Mof_O 	O 	0.4566	0.7672	0.0463	-0.485
Mof_O 	O 	0.3227	0.1333	0.5864	-0.476
Mof_O 	O 	0.2635	0.0872	0.6532	-0.439
Mof_O 	O 	0.5924	0.9	0.5576	-0.475
Mof_O 	O 	0.6083	0.8879	0.6459	-0.452
Mof_O 	O 	0.0499	0.3916	0.6325	-0.521
Mof_O 	O 	0.9692	0.344	0.5726	-0.552
Mof_O 	O 	0.8177	0.6327	0.5347	-0.504
Mof_O 	O 	0.7487	0.6117	0.6105	-0.548
Mof_O 	O 	0.0969	0.1155	0.5946	-0.552
Mof_O 	O 	0.9983	0.1627	0.5481	-0.561
Mof_O 	O 	0.8158	0.876	0.5429	-0.549
Mof_O 	O 	0.7682	0.9231	0.6074	-0.428
Mof_C 	C 	0.5174	0.3711	0.4139	0.45
Mof_C 	C 	0.5739	0.4262	0.4149	-0.057
Mof_C 	C 	0.5295	0.4756	0.4016	-0.021
Mof_H 	H 	0.4727	0.4736	0.3921	0.027
Mof_C 	C 	0.57	0.5282	0.4026	-0.012
Mof_H 	H 	0.5403	0.5613	0.3937	0.019
Mof_C 	C 	0.655	0.5313	0.4168	-0.045
Mof_C 	C 	0.6994	0.4818	0.4301	0.007
Mof_C 	C 	0.6588	0.4292	0.4291	0.016
Mof_C 	C 	0.7032	0.3798	0.4424	-0.036
Mof_H 	H 	0.6761	0.3446	0.4418	0.049
Mof_C 	C 	0.7882	0.3829	0.4567	-0.001
Mof_H 	H 	0.8179	0.3498	0.4655	0.033
Mof_C 	C 	0.8287	0.4354	0.4576	-0.039
Mof_H 	H 	0.8856	0.4374	0.4671	0.039
Mof_C 	C 	0.7843	0.4849	0.4443	-0.044
Mof_H 	H 	0.8115	0.52	0.445	0.025
Mof_C 	C 	0.5683	0.4269	0.4205	-0.047
Mof_C 	C 	0.5253	0.4783	0.4243	-0.004
Mof_H 	H 	0.4673	0.4784	0.4268	0.012
Mof_C 	C 	0.569	0.5297	0.4246	-0.013
Mof_H 	H 	0.5403	0.5641	0.4271	0.02
Mof_C 	C 	0.6558	0.5296	0.4209	-0.061
Mof_C 	C 	0.6988	0.4782	0.4171	0.024
Mof_C 	C 	0.655	0.4269	0.4168	0.014
Mof_C 	C 	0.698	0.3755	0.413	-0.026
Mof_H 	H 	0.6687	0.3411	0.4128	0.006
Mof_C 	C 	0.7847	0.3754	0.4093	-0.06
Mof_H 	H 	0.8135	0.341	0.4067	0.048
Mof_C 	C 	0.8285	0.4267	0.4095	-0.017
Mof_H 	H 	0.8865	0.4267	0.4071	0.027
Mof_C 	C 	0.7855	0.4781	0.4134	-0.017
Mof_H 	H 	0.8148	0.5124	0.4136	0.026
Mof_C 	C 	0.6956	0.5889	0.4143	0.444
Mof_C 	C 	0.9592	0.774	0.9164	0.296
Mof_C 	C 	0.9188	0.7783	0.8593	-0.059
Mof_C 	C 	0.8462	0.7479	0.8502	-0.082
Mof_H 	H 	0.8242	0.7271	0.8791	0.053
Mof_C 	C 	0.8054	0.7477	0.7995	0.056
Mof_H 	H 	0.7578	0.7251	0.7948	-0.007
Mof_C 	C 	0.8312	0.7791	0.7554	-0.187
Mof_C 	C 	0.9067	0.8114	0.763	0.095
Mof_C 	C 	0.9415	0.8412	0.7182	-0.115
Mof_H 	H 	0.9144	0.8402	0.6836	0.078
Mof_C 	C 	0.0135	0.8711	0.725	0.006
Mof_H 	H 	0.0333	0.8921	0.6955	0.023
Mof_C 	C 	0.0592	0.8712	0.776	-0.057
Mof_H 	H 	0.1094	0.8911	0.7799	0.039
Mof_C 	C 	0.0283	0.8413	0.8198	-0.047
Mof_H 	H 	0.0577	0.8411	0.8537	0.046
Mof_C 	C 	0.9514	0.8103	0.8138	-0.006
Mof_C 	C 	0.7755	0.7767	0.7046	0.502
Mof_C 	C 	0.7112	0.7551	0.2685	0.475
Mof_C 	C 	0.6558	0.7551	0.2166	-0.158
Mof_C 	C 	0.6869	0.7295	0.1716	0.021
Mof_H 	H 	0.7372	0.7095	0.1746	0.002
Mof_C 	C 	0.6428	0.7331	0.1194	-0.041
Mof_H 	H 	0.6655	0.7152	0.089	0.045
Mof_C 	C 	0.5698	0.7613	0.1124	-0.098
Mof_C 	C 	0.5344	0.7879	0.159	0.027
Mof_C 	C 	0.4568	0.8177	0.1567	-0.077
Mof_H 	H 	0.4276	0.8205	0.1229	0.053
Mof_C 	C 	0.4233	0.8424	0.2025	-0.026
Mof_H 	H 	0.3738	0.8632	0.1988	0.028
Mof_C 	C 	0.4622	0.8368	0.2541	-0.023
Mof_H 	H 	0.4373	0.8517	0.2852	0.037
Mof_C 	C 	0.5367	0.8095	0.2592	-0.082
Mof_H 	H 	0.5627	0.8063	0.294	0.062
Mof_C 	C 	0.5772	0.7849	0.2116	0.061
Mof_C 	C 	0.5319	0.7641	0.0558	0.353
Mof_C 	C 	0.3201	0.0916	0.6207	0.337
Mof_C 	C 	0.3914	0.0476	0.6185	-0.089
Mof_C 	C 	0.4135	0.0255	0.5697	-0.03
Mof_H 	H 	0.3886	0.0392	0.537	0.041
Mof_C 	C 	0.4728	0.9828	0.5677	-0.017
Mof_H 	H 	0.4849	0.9671	0.5335	0.036
Mof_C 	C 	0.5146	0.9624	0.6143	-0.112
Mof_C 	C 	0.4946	0.9846	0.6663	0.044
Mof_C 	C 	0.5359	0.9668	0.7171	-0.098
Mof_H 	H 	0.5765	0.9384	0.7159	0.079
Mof_C 	C 	0.5175	0.9901	0.7672	-0.032
Mof_H 	H 	0.5472	0.9792	0.7992	0.041
Mof_C 	C 	0.45	0.0326	0.7698	-0.034
Mof_H 	H 	0.4354	0.0479	0.8037	0.04
Mof_C 	C 	0.409	0.0495	0.7223	-0.077
Mof_H 	H 	0.3669	0.0768	0.7242	0.07
Mof_C 	C 	0.4295	0.0261	0.6693	0.025
Mof_C 	C 	0.5752	0.9139	0.6062	0.343
Mof_C 	C 	0.9871	0.3881	0.5985	0.441
Mof_C 	C 	0.9326	0.4414	0.5916	-0.059
Mof_C 	C 	0.9729	0.4918	0.5776	-0.01
Mof_H 	H 	0.0303	0.4918	0.5722	0.007
Mof_C 	C 	0.9273	0.5421	0.5717	-0.012
Mof_H 	H 	0.9543	0.5758	0.5623	0.017
Mof_C 	C 	0.8415	0.5421	0.5798	-0.048
Mof_C 	C 	0.8012	0.4918	0.5938	0.006
Mof_C 	C 	0.8468	0.4414	0.5998	0.012
Mof_C 	C 	0.8065	0.3911	0.6138	-0.041
Mof_H 	H 	0.837	0.3574	0.6178	0.02
Mof_C 	C 	0.7207	0.3911	0.6219	-0.04
Mof_H 	H 	0.6938	0.3574	0.6313	0.044
Mof_C 	C 	0.6752	0.4414	0.616	-0.013
Mof_H 	H 	0.6177	0.4414	0.6214	0.027
Mof_C 	C 	0.7154	0.4918	0.6019	-0.054
Mof_H 	H 	0.6849	0.5254	0.598	0.04
Mof_C 	C 	0.9316	0.4395	0.5877	-0.051
Mof_C 	C 	0.9747	0.491	0.5899	-0.009
Mof_H 	H 	0.0326	0.4913	0.5956	0.024
Mof_C 	C 	0.9313	0.5422	0.5835	-0.006
Mof_H 	H 	0.9602	0.5767	0.585	0.014
Mof_C 	C 	0.8448	0.5418	0.5749	-0.06
Mof_C 	C 	0.8017	0.4902	0.5728	0.028
Mof_C 	C 	0.8451	0.4391	0.5791	0.02
Mof_C 	C 	0.8019	0.3875	0.577	-0.021
Mof_H 	H 	0.831	0.3533	0.5812	0.034
Mof_C 	C 	0.7154	0.3871	0.5684	-0.03
Mof_H 	H 	0.6866	0.3526	0.5669	0.047
Mof_C 	C 	0.672	0.4383	0.562	-0.035
Mof_H 	H 	0.6141	0.438	0.5563	0.037
Mof_C 	C 	0.7151	0.4898	0.5642	-0.016
Mof_H 	H 	0.6861	0.5241	0.5599	0.019
Mof_C 	C 	0.7984	0.5996	0.574	0.45
Mof_C 	C 	0.0293	0.1176	0.568	0.491
Mof_C 	C 	0.9777	0.0639	0.5602	-0.162
Mof_C 	C 	0.9838	0.0244	0.6011	0.023
Mof_H 	H 	0.0241	0.0294	0.6294	0.019
Mof_C 	C 	0.932	0.9765	0.6024	-0.024
Mof_H 	H 	0.9357	0.9511	0.632	0.039
Mof_C 	C 	0.875	0.9675	0.559	-0.121
Mof_C 	C 	0.8686	0.0049	0.5148	0.032
Mof_C 	C 	0.8107	0.995	0.471	-0.053
Mof_H 	H 	0.775	0.9636	0.4719	0.042
Mof_C 	C 	0.8069	0.0308	0.4282	-0.053
Mof_H 	H 	0.7693	0.0233	0.399	0.048
Mof_C 	C 	0.8574	0.079	0.4258	-0.007
Mof_H 	H 	0.8537	0.1029	0.3951	0.024
Mof_C 	C 	0.9125	0.0915	0.4688	-0.106
Mof_H 	H 	0.9447	0.1246	0.4676	0.08
Mof_C 	C 	0.9208	0.0549	0.5144	0.077
Mof_C 	C 	0.8185	0.9186	0.5662	0.424
_end
