data_functionalizedCrystal
_audit_creation_method	'EQeq! by Chris Wilmer'
_symmetry_space_group_name_H-M	'P1'
_symmetry_Int_Tables_number	1
_symmetry_cell_setting	triclinic
loop_
_symmetry_equiv_pos_as_xyz
  x,y,z
_cell_length_a	20.3474
_cell_length_b	26.6001
_cell_length_c	26.6001
_cell_angle_alpha	80.059
_cell_angle_beta	90
_cell_angle_gamma	90
loop_
_atom_site_label
_atom_site_type_symbol
_atom_site_fract_x
_atom_site_fract_y
_atom_site_fract_z
_atom_site_charge
Mof_Cd	Cd	0.38514	0.54104	0.54104	0.398
Mof_Cd	Cd	0.31667	0.21793	0.21793	0.392
Mof_Cd	Cd	0.04387	0.41989	0.91525	0.383
Mof_Cd	Cd	0.54387	0.58011	0.08475	0.39
Mof_Cd	Cd	0.36235	0.12005	0.12005	0.408
Mof_Cd	Cd	0.68185	0.33435	0.83075	0.394
Mof_Cd	Cd	0.04387	0.91525	0.41989	0.383
Mof_Cd	Cd	0.41016	0.0219	0.0219	0.392
Mof_Cd	Cd	0.86308	0.86507	0.38112	0.414
Mof_Cd	Cd	0.54387	0.08475	0.58011	0.39
Mof_Cd	Cd	0.81667	0.78207	0.78207	0.393
Mof_Cd	Cd	0.86308	0.38112	0.86507	0.414
Mof_Cd	Cd	0.86757	0.36171	0.36171	0.412
Mof_Cd	Cd	0.68185	0.83075	0.33435	0.393
Mof_Cd	Cd	0.88514	0.45896	0.45896	0.398
Mof_Cd	Cd	0.36308	0.61888	0.13493	0.411
Mof_Cd	Cd	0.36757	0.63829	0.63829	0.41
Mof_Cd	Cd	0.31565	0.73609	0.73609	0.392
Mof_Cd	Cd	0.81565	0.26391	0.26391	0.392
Mof_Cd	Cd	0.18185	0.66565	0.16925	0.392
Mof_Cd	Cd	0.91016	0.9781	0.9781	0.394
Mof_Cd	Cd	0.18185	0.16925	0.66565	0.392
Mof_Cd	Cd	0.36308	0.13493	0.61888	0.411
Mof_Cd	Cd	0.86235	0.87995	0.87995	0.408
Mof_H 	H 	0.0851	0.5314	0.8838	0.015
Mof_H 	H 	0.0817	0.0726	0.0726	0.089
Mof_H 	H 	0.0618	0.548	0.0462	0.086
Mof_H 	H 	0.1437	0.7774	0.128	0.012
Mof_H 	H 	0.662	0.0912	0.673	0.014
Mof_H 	H 	0.4163	0.3454	0.5608	0.099
Mof_H 	H 	0.2245	0.9618	0.268	0.089
Mof_H 	H 	0.6315	0.7217	0.3763	0.01
Mof_H 	H 	0.9671	0.9332	0.0864	0.014
Mof_H 	H 	0.0678	0.5689	0.3325	0.091
Mof_H 	H 	0.1796	0.9579	0.4491	0.01
Mof_H 	H 	0.5109	0.5011	0.0053	0.012
Mof_H 	H 	0.7906	0.8498	0.5866	0.094
Mof_H 	H 	0.6315	0.3763	0.7217	0.01
Mof_H 	H 	0.4684	0.7106	0.8978	0.094
Mof_H 	H 	0.9933	0.7512	0.2538	0.106
Mof_H 	H 	0.7176	0.7472	0.2578	0.022
Mof_H 	H 	0.5655	0.9238	0.3346	0.011
Mof_H 	H 	0.937	0.5712	0.469	0.012
Mof_H 	H 	0.2582	0.8433	0.6883	0.019
Mof_H 	H 	0.6482	0.4082	0.1676	0.089
Mof_H 	H 	0.9163	0.4392	0.6546	0.1
Mof_H 	H 	0.4933	0.7462	0.2488	0.088
Mof_H 	H 	0.9375	0.2663	0.1833	0.008
Mof_H 	H 	0.5844	0.6243	0.9737	0.021
Mof_H 	H 	0.7329	0.5025	0.9939	0.092
Mof_H 	H 	0.2591	0.8587	0.0495	0.09
Mof_H 	H 	0.1645	0.8262	0.4222	0.009
Mof_H 	H 	0.6796	0.0421	0.5509	0.01
Mof_H 	H 	0.291	0.0127	0.9379	0.007
Mof_H 	H 	0.7591	0.1413	0.9505	0.09
Mof_H 	H 	0.7591	0.9505	0.1413	0.09
Mof_H 	H 	0.937	0.469	0.5712	0.012
Mof_H 	H 	0.7245	0.732	0.0382	0.089
Mof_H 	H 	0.4703	0.2062	0.3836	0.092
Mof_H 	H 	0.5049	0.4875	0.7891	0.091
Mof_H 	H 	0.5844	0.9737	0.6243	0.021
Mof_H 	H 	0.1485	0.0814	0.318	0.083
Mof_H 	H 	0.5851	0.1162	0.4686	0.016
Mof_H 	H 	0.0844	0.3757	0.0263	0.019
Mof_H 	H 	0.6645	0.1738	0.5778	0.009
Mof_H 	H 	0.9684	0.1022	0.2894	0.097
Mof_H 	H 	0.0851	0.8838	0.5314	0.015
Mof_H 	H 	0.9684	0.2894	0.1022	0.097
Mof_H 	H 	0.4684	0.8978	0.7106	0.094
Mof_H 	H 	0.0618	0.0462	0.548	0.086
Mof_H 	H 	0.7679	0.5375	0.4141	0.011
Mof_H 	H 	0.5049	0.7891	0.4875	0.091
Mof_H 	H 	0.5851	0.4686	0.1162	0.016
Mof_H 	H 	0.2614	0.3316	0.1768	0.013
Mof_H 	H 	0.2318	0.7754	0.479	0.092
Mof_H 	H 	0.2679	0.4625	0.5859	0.011
Mof_H 	H 	0.4375	0.8167	0.7337	0.006
Mof_H 	H 	0.939	0.7793	0.7013	0.014
Mof_H 	H 	0.0655	0.6654	0.0762	0.007
Mof_H 	H 	0.2906	0.4134	0.1502	0.093
Mof_H 	H 	0.9703	0.7938	0.6164	0.094
Mof_H 	H 	0.437	0.531	0.4288	0.011
Mof_H 	H 	0.5616	0.2559	0.2559	0.084
Mof_H 	H 	0.1482	0.5918	0.8324	0.088
Mof_H 	H 	0.9998	0.7201	0.0207	0.104
Mof_H 	H 	0.2318	0.479	0.7754	0.092
Mof_H 	H 	0.7436	0.3956	0.6216	0.097
Mof_H 	H 	0.1315	0.6237	0.2783	0.011
Mof_H 	H 	0.4403	0.8296	0.101	0.092
Mof_H 	H 	0.1675	0.1987	0.1987	0.028
Mof_H 	H 	0.2436	0.3784	0.6044	0.097
Mof_H 	H 	0.5461	0.2978	0.798	0.013
Mof_H 	H 	0.9403	0.899	0.1704	0.094
Mof_H 	H 	0.162	0.327	0.9088	0.014
Mof_H 	H 	0.2456	0.2888	0.2888	0.019
Mof_H 	H 	0.0678	0.3325	0.5689	0.091
Mof_H 	H 	0.1673	0.9853	0.9853	0.082
Mof_H 	H 	0.6645	0.5778	0.1738	0.009
Mof_H 	H 	0.6485	0.9186	0.682	0.084
Mof_H 	H 	0.5735	0.4299	0.8389	0.014
Mof_H 	H 	0.7245	0.0382	0.732	0.089
Mof_H 	H 	0.6673	0.0147	0.0147	0.084
Mof_H 	H 	0.0787	0.8351	0.0785	0.089
Mof_H 	H 	0.5109	0.0053	0.5011	0.012
Mof_H 	H 	0.2614	0.1768	0.3316	0.013
Mof_H 	H 	0.0787	0.0785	0.8351	0.089
Mof_H 	H 	0.1645	0.4222	0.8262	0.009
Mof_H 	H 	0.4998	0.2799	0.9793	0.091
Mof_H 	H 	0.4843	0.9518	0.9518	0.001
Mof_H 	H 	0.7456	0.7112	0.7112	0.019
Mof_H 	H 	0.6448	0.1688	0.1688	0.092
Mof_H 	H 	0.6796	0.5509	0.0421	0.01
Mof_H 	H 	0.7906	0.5866	0.8498	0.094
Mof_H 	H 	0.9933	0.2538	0.7512	0.106
Mof_H 	H 	0.1689	0.3047	0.7897	0.086
Mof_H 	H 	0.7582	0.1567	0.3117	0.019
Mof_H 	H 	0.1448	0.8312	0.8312	0.092
Mof_H 	H 	0.2329	0.0061	0.4975	0.091
Mof_H 	H 	0.6437	0.872	0.2226	0.013
Mof_H 	H 	0.7582	0.3117	0.1567	0.019
Mof_H 	H 	0.0049	0.2109	0.5125	0.085
Mof_H 	H 	0.0655	0.0762	0.6654	0.007
Mof_H 	H 	0.141	0.3162	0.3162	0.081
Mof_H 	H 	0.7452	0.1929	0.1929	0.002
Mof_H 	H 	0.641	0.6838	0.6838	0.082
Mof_H 	H 	0.2176	0.2528	0.7422	0.02
Mof_H 	H 	0.7318	0.521	0.2246	0.093
Mof_H 	H 	0.7318	0.2246	0.521	0.093
Mof_H 	H 	0.4163	0.5608	0.3454	0.099
Mof_H 	H 	0.7679	0.4141	0.5375	0.011
Mof_H 	H 	0.2245	0.268	0.9618	0.089
Mof_H 	H 	0.6675	0.8013	0.8013	0.028
Mof_H 	H 	0.7436	0.6216	0.3956	0.097
Mof_H 	H 	0.2176	0.7422	0.2528	0.02
Mof_H 	H 	0.0109	0.4989	0.9947	0.009
Mof_H 	H 	0.0461	0.202	0.7022	0.007
Mof_H 	H 	0.9671	0.0864	0.9332	0.014
Mof_H 	H 	0.1437	0.128	0.7774	0.012
Mof_H 	H 	0.2875	0.6513	0.9251	0.088
Mof_H 	H 	0.2679	0.5859	0.4625	0.011
Mof_H 	H 	0.7875	0.3487	0.0749	0.089
Mof_H 	H 	0.2582	0.6883	0.8433	0.019
Mof_H 	H 	0.1482	0.8324	0.5918	0.088
Mof_H 	H 	0.9843	0.0482	0.0482	0.015
Mof_H 	H 	0.5618	0.452	0.9538	0.087
Mof_H 	H 	0.6689	0.6953	0.2103	0.083
Mof_H 	H 	0.162	0.9088	0.327	0.014
Mof_H 	H 	0.9703	0.6164	0.7938	0.094
Mof_H 	H 	0.1627	0.7214	0.7214	0.016
Mof_H 	H 	0.437	0.4288	0.531	0.011
Mof_H 	H 	0.5735	0.8389	0.4299	0.014
Mof_H 	H 	0.5787	0.1649	0.9215	0.091
Mof_H 	H 	0.439	0.2987	0.2207	0.012
Mof_H 	H 	0.7176	0.2578	0.7472	0.022
Mof_H 	H 	0.1485	0.318	0.0814	0.083
Mof_H 	H 	0.0844	0.0263	0.3757	0.019
Mof_H 	H 	0.5615	0.0379	0.0379	0.02
Mof_H 	H 	0.2906	0.1502	0.4134	0.093
Mof_H 	H 	0.0616	0.7441	0.7441	0.081
Mof_H 	H 	0.1796	0.4491	0.9579	0.01
Mof_H 	H 	0.7875	0.0749	0.3487	0.089
Mof_H 	H 	0.0109	0.9947	0.4989	0.009
Mof_H 	H 	0.4375	0.7337	0.8167	0.006
Mof_H 	H 	0.4671	0.9136	0.0668	0.011
Mof_H 	H 	0.5817	0.9274	0.9274	0.096
Mof_H 	H 	0.0735	0.1611	0.5701	0.015
Mof_H 	H 	0.2452	0.8071	0.8071	0.002
Mof_H 	H 	0.9403	0.1704	0.899	0.094
Mof_H 	H 	0.5678	0.6675	0.4311	0.097
Mof_H 	H 	0.2591	0.0495	0.8587	0.09
Mof_H 	H 	0.4703	0.3836	0.2062	0.092
Mof_H 	H 	0.2436	0.6044	0.3784	0.097
Mof_H 	H 	0.1315	0.2783	0.6237	0.011
Mof_H 	H 	0.5678	0.4311	0.6675	0.097
Mof_H 	H 	0.7614	0.8232	0.6684	0.013
Mof_H 	H 	0.0049	0.5125	0.2109	0.085
Mof_H 	H 	0.791	0.0621	0.9873	0.007
Mof_H 	H 	0.5787	0.9215	0.1649	0.091
Mof_H 	H 	0.4998	0.9793	0.2799	0.091
Mof_H 	H 	0.0615	0.9621	0.9621	0.018
Mof_H 	H 	0.4933	0.2488	0.7462	0.088
Mof_H 	H 	0.4671	0.0668	0.9136	0.011
Mof_H 	H 	0.7329	0.9939	0.5025	0.092
Mof_H 	H 	0.9375	0.1833	0.2663	0.008
Mof_H 	H 	0.0735	0.5701	0.1611	0.015
Mof_H 	H 	0.0461	0.7022	0.202	0.007
Mof_H 	H 	0.6689	0.2103	0.6953	0.083
Mof_H 	H 	0.9163	0.6546	0.4392	0.1
Mof_H 	H 	0.9998	0.0207	0.7201	0.104
Mof_H 	H 	0.5461	0.798	0.2978	0.013
Mof_H 	H 	0.791	0.9873	0.0621	0.007
Mof_H 	H 	0.662	0.673	0.0912	0.014
Mof_H 	H 	0.5629	0.7758	0.7758	0.072
Mof_H 	H 	0.6485	0.682	0.9186	0.084
Mof_H 	H 	0.291	0.9379	0.0127	0.007
Mof_H 	H 	0.5618	0.9538	0.452	0.087
Mof_H 	H 	0.2329	0.4975	0.0061	0.091
Mof_H 	H 	0.5655	0.3346	0.9238	0.011
Mof_H 	H 	0.4403	0.101	0.8296	0.092
Mof_H 	H 	0.439	0.2207	0.2987	0.012
Mof_H 	H 	0.6437	0.2226	0.872	0.013
Mof_H 	H 	0.6627	0.2786	0.2786	0.017
Mof_H 	H 	0.939	0.7013	0.7793	0.014
Mof_H 	H 	0.0629	0.2242	0.2242	0.069
Mof_H 	H 	0.7614	0.6684	0.8232	0.013
Mof_H 	H 	0.2875	0.9251	0.6513	0.088
Mof_H 	H 	0.1689	0.7897	0.3047	0.086
Mof_H 	H 	0.6482	0.1676	0.4082	0.089
Mof_C 	C 	0.6001	0.7625	0.7625	-0.096
Mof_C 	C 	0.8251	0.2179	0.8987	0.09
Mof_C 	C 	0.2079	0.7939	0.7939	0.103
Mof_C 	C 	0.5565	0.5021	0.0029	0.088
Mof_C 	C 	0.5898	0.2072	0.2072	0.067
Mof_C 	C 	0.8838	0.6308	0.4358	-0.154
Mof_C 	C 	0.5284	0.4656	0.7214	0.075
Mof_C 	C 	0.9083	0.9154	0.1484	-0.137
Mof_C 	C 	0.1622	0.2214	0.2214	0.047
Mof_C 	C 	0.3217	0.1654	0.39	-0.141
Mof_C 	C 	0.3976	0.5477	0.4193	0.097
Mof_C 	C 	0.3259	0.5847	0.3519	0.096
Mof_C 	C 	0.145	0.2934	0.2934	-0.103
Mof_C 	C 	0.0876	0.5283	0.0281	-0.14
Mof_C 	C 	0.697	0.0242	0.7102	-0.131
Mof_C 	C 	0.197	0.9758	0.2898	-0.132
Mof_C 	C 	0.0671	0.5681	0.2977	-0.14
Mof_C 	C 	0.653	0.4426	0.1692	-0.136
Mof_C 	C 	0.5684	0.9236	0.2998	0.087
Mof_C 	C 	0.9073	0.7924	0.6774	0.089
Mof_C 	C 	0.8858	0.8277	0.5939	0.078
Mof_C 	C 	0.653	0.1692	0.4426	-0.136
Mof_C 	C 	0.2018	0.7971	0.4909	-0.142
Mof_C 	C 	0.039	0.2543	0.7493	-0.156
Mof_C 	C 	0.7018	0.2029	0.5091	-0.141
Mof_C 	C 	0.3124	0.297	0.5992	0.083
Mof_C 	C 	0.9242	0.0977	0.9365	0.092
Mof_C 	C 	0.0711	0.7195	0.2227	0.084
Mof_C 	C 	0.5984	0.2424	0.2424	-0.13
Mof_C 	C 	0.9025	0.3471	0.0279	0.098
Mof_C 	C 	0.2031	0.0456	0.0456	0.094
Mof_C 	C 	0.6982	0.4584	0.2016	0.073
Mof_C 	C 	0.3838	0.3692	0.5642	-0.154
Mof_C 	C 	0.1549	0.4695	0.9759	0.083
Mof_C 	C 	0.5731	0.2252	0.7148	0.058
Mof_C 	C 	0.1982	0.7984	0.5416	0.072
Mof_C 	C 	0.6609	0.1722	0.5432	0.093
Mof_C 	C 	0.4906	0.1776	0.9886	0.092
Mof_C 	C 	0.5671	0.7023	0.4319	-0.15
Mof_C 	C 	0.1873	0.4983	0.0045	-0.137
Mof_C 	C 	0.0749	0.0764	0.8006	-0.145
Mof_C 	C 	0.4083	0.0846	0.8516	-0.138
Mof_C 	C 	0.3178	0.6706	0.9038	-0.126
Mof_C 	C 	0.6051	0.7357	0.3989	0.104
Mof_C 	C 	0.2018	0.4909	0.7971	-0.142
Mof_C 	C 	0.8453	0.9192	0.1652	0.076
Mof_C 	C 	0.4258	0.7042	0.8878	-0.155
Mof_C 	C 	0.2368	0.0641	0.2535	0.096
Mof_C 	C 	0.7368	0.9359	0.7465	0.097
Mof_C 	C 	0.637	0.9673	0.9673	0.071
Mof_C 	C 	0.9073	0.6774	0.7924	0.089
Mof_C 	C 	0.6436	0.2278	0.7156	-0.121
Mof_C 	C 	0.4906	0.9886	0.1776	0.092
Mof_C 	C 	0.3023	0.8688	0.0536	-0.143
Mof_C 	C 	0.6127	0.9869	0.6461	0.068
Mof_C 	C 	0.1051	0.6011	0.2643	0.098
Mof_C 	C 	0.5713	0.43	0.804	0.083
Mof_C 	C 	0.8008	0.3077	0.1453	0.071
Mof_C 	C 	0.4864	0.689	0.5014	0.09
Mof_C 	C 	0.9864	0.4986	0.311	0.103
Mof_C 	C 	0.3822	0.6781	0.9211	0.071
Mof_C 	C 	0.0713	0.57	0.196	0.077
Mof_C 	C 	0.0731	0.7748	0.2852	0.073
Mof_C 	C 	0.0713	0.196	0.57	0.077
Mof_C 	C 	0.3023	0.0536	0.8688	-0.143
Mof_C 	C 	0.9258	0.1122	0.2958	-0.155
Mof_C 	C 	0.5713	0.804	0.43	0.083
Mof_C 	C 	0.137	0.0327	0.0327	0.064
Mof_C 	C 	0.7984	0.5612	0.4216	0.104
Mof_C 	C 	0.1001	0.2375	0.2375	-0.097
Mof_C 	C 	0.0659	0.9848	0.9848	0.07
Mof_C 	C 	0.2394	0.7676	0.5806	0.092
Mof_C 	C 	0.7031	0.9544	0.9544	0.092
Mof_C 	C 	0.6132	0.8932	0.2346	0.094
Mof_C 	C 	0.4052	0.7204	0.84	0.109
Mof_C 	C 	0.6513	0.4699	0.9673	0.067
Mof_C 	C 	0.0671	0.2977	0.5681	-0.14
Mof_C 	C 	0.4052	0.84	0.7204	0.109
Mof_C 	C 	0.1951	0.2871	0.0269	0.063
Mof_C 	C 	0.8124	0.703	0.4008	0.084
Mof_C 	C 	0.7368	0.7465	0.9359	0.097
Mof_C 	C 	0.0304	0.2256	0.535	-0.128
Mof_C 	C 	0.2394	0.5806	0.7676	0.092
Mof_C 	C 	0.6863	0.4389	0.9335	0.108
Mof_C 	C 	0.3178	0.9038	0.6706	-0.126
Mof_C 	C 	0.6982	0.2016	0.4584	0.073
Mof_C 	C 	0.0876	0.0281	0.5283	-0.14
Mof_C 	C 	0.1132	0.1068	0.7654	0.093
Mof_C 	C 	0.5684	0.2998	0.9236	0.087
Mof_C 	C 	0.6517	0.9537	0.6807	-0.122
Mof_C 	C 	0.6513	0.9673	0.4699	0.067
Mof_C 	C 	0.2848	0.5908	0.388	-0.161
Mof_C 	C 	0.1873	0.0045	0.4983	-0.137
Mof_C 	C 	0.0565	0.9971	0.4979	0.086
Mof_C 	C 	0.4242	0.0635	0.9023	0.092
Mof_C 	C 	0.1436	0.7722	0.2844	-0.132
Mof_C 	C 	0.6873	0.9955	0.5017	-0.138
Mof_C 	C 	0.5565	0.0029	0.5021	0.088
Mof_C 	C 	0.5304	0.7744	0.465	-0.136
Mof_C 	C 	0.5904	0.7287	0.7287	0.036
Mof_C 	C 	0.8838	0.4358	0.6308	-0.154
Mof_C 	C 	0.5224	0.1945	0.1945	0.096
Mof_C 	C 	0.9906	0.0114	0.8224	0.1
Mof_C 	C 	0.9052	0.2796	0.16	0.11
Mof_C 	C 	0.032	0.7857	0.0437	0.067
Mof_C 	C 	0.2984	0.4388	0.5784	0.103
Mof_C 	C 	0.9083	0.1484	0.9154	-0.137
Mof_C 	C 	0.6549	0.0241	0.5305	0.084
Mof_C 	C 	0.0284	0.2786	0.5344	0.059
Mof_C 	C 	0.532	0.2143	0.9563	0.071
Mof_C 	C 	0.7079	0.2061	0.2061	0.103
Mof_C 	C 	0.9056	0.5414	0.8462	0.096
Mof_C 	C 	0.9056	0.8462	0.5414	0.096
Mof_C 	C 	0.8251	0.8987	0.2179	0.09
Mof_C 	C 	0.7394	0.4194	0.2324	0.093
Mof_C 	C 	0.032	0.0437	0.7857	0.067
Mof_C 	C 	0.1951	0.0269	0.2871	0.063
Mof_C 	C 	0.0684	0.0764	0.7002	0.095
Mof_C 	C 	0.0801	0.0498	0.0498	-0.14
Mof_C 	C 	0.8178	0.3294	0.0962	-0.126
Mof_C 	C 	0.3208	0.9166	0.0326	0.092
Mof_C 	C 	0.0898	0.7928	0.7928	0.069
Mof_C 	C 	0.0749	0.8006	0.0764	-0.145
Mof_C 	C 	0.8124	0.4008	0.703	0.084
Mof_C 	C 	0.6863	0.9335	0.4389	0.108
Mof_C 	C 	0.6873	0.5017	0.9955	-0.138
Mof_C 	C 	0.1582	0.3249	0.9439	0.079
Mof_C 	C 	0.3822	0.9211	0.6781	0.071
Mof_C 	C 	0.3453	0.0808	0.8348	0.075
Mof_C 	C 	0.8822	0.3219	0.0789	0.072
Mof_C 	C 	0.3217	0.39	0.1654	-0.141
Mof_C 	C 	0.0214	0.0349	0.0349	0.079
Mof_C 	C 	0.539	0.2507	0.7457	-0.125
Mof_C 	C 	0.4025	0.9721	0.6529	0.097
Mof_C 	C 	0.4073	0.3226	0.2076	0.088
Mof_C 	C 	0.0284	0.5344	0.2786	0.059
Mof_C 	C 	0.1719	0.7436	0.2534	0.07
Mof_C 	C 	0.1517	0.3193	0.0463	-0.123
Mof_C 	C 	0.1609	0.8278	0.4568	0.092
Mof_C 	C 	0.5214	0.9651	0.9651	0.105
Mof_C 	C 	0.1127	0.0131	0.3539	0.068
Mof_C 	C 	0.8178	0.0962	0.3294	-0.126
Mof_C 	C 	0.4289	0.3736	0.1968	-0.145
Mof_C 	C 	0.6127	0.6461	0.9869	0.068
Mof_C 	C 	0.8023	0.9464	0.1312	-0.143
Mof_C 	C 	0.6145	0.4793	0.1389	0.082
Mof_C 	C 	0.6304	0.0013	0.0013	-0.129
Mof_C 	C 	0.3251	0.1013	0.7821	0.09
Mof_C 	C 	0.1436	0.2844	0.7722	-0.132
Mof_C 	C 	0.6586	0.2559	0.2559	0.08
Mof_C 	C 	0.6463	0.1917	0.1917	-0.146
Mof_C 	C 	0.5731	0.7148	0.2252	0.058
Mof_C 	C 	0.5876	0.4717	0.9719	-0.14
Mof_C 	C 	0.4864	0.5014	0.689	0.09
Mof_C 	C 	0.5659	0.0152	0.0152	0.075
Mof_C 	C 	0.5282	0.9572	0.2672	-0.135
Mof_C 	C 	0.9289	0.8032	0.6264	-0.145
Mof_C 	C 	0.0684	0.7002	0.0764	0.095
Mof_C 	C 	0.0984	0.7576	0.7576	-0.132
Mof_C 	C 	0.1982	0.5416	0.7984	0.072
Mof_C 	C 	0.3259	0.3519	0.5847	0.096
Mof_C 	C 	0.153	0.8308	0.5574	-0.136
Mof_C 	C 	0.0407	0.8051	0.3161	0.071
Mof_C 	C 	0.197	0.2898	0.9758	-0.132
Mof_C 	C 	0.9258	0.2958	0.1122	-0.155
Mof_C 	C 	0.0282	0.7328	0.0428	-0.155
Mof_C 	C 	0.4025	0.6529	0.9721	0.097
Mof_C 	C 	0.3049	0.3409	0.1807	0.085
Mof_C 	C 	0.4289	0.1968	0.3736	-0.145
Mof_C 	C 	0.5749	0.9236	0.1994	-0.145
Mof_C 	C 	0.8217	0.61	0.8346	-0.142
Mof_C 	C 	0.0407	0.3161	0.8051	0.071
Mof_C 	C 	0.8858	0.5939	0.8277	0.078
Mof_C 	C 	0.1145	0.5207	0.8611	0.081
Mof_C 	C 	0.9906	0.8224	0.0114	0.1
Mof_C 	C 	0.5711	0.7773	0.2805	0.071
Mof_C 	C 	0.1051	0.2643	0.6011	0.098
Mof_C 	C 	0.5284	0.7214	0.4656	0.075
Mof_C 	C 	0.5671	0.4319	0.7023	-0.15
Mof_C 	C 	0.8023	0.1312	0.9464	-0.143
Mof_C 	C 	0.9052	0.16	0.2796	0.11
Mof_C 	C 	0.4083	0.8516	0.0846	-0.138
Mof_C 	C 	0.3858	0.4061	0.1723	0.077
Mof_C 	C 	0.9242	0.9365	0.0977	0.092
Mof_C 	C 	0.7984	0.4216	0.5612	0.104
Mof_C 	C 	0.0711	0.2227	0.7195	0.084
Mof_C 	C 	0.3858	0.1723	0.4061	0.077
Mof_C 	C 	0.6517	0.6807	0.9537	-0.122
Mof_C 	C 	0.6901	0.4126	0.4126	0.113
Mof_C 	C 	0.6436	0.7156	0.2278	-0.121
Mof_C 	C 	0.6951	0.7129	0.9731	0.063
Mof_C 	C 	0.3251	0.7821	0.1013	0.09
Mof_C 	C 	0.1304	0.9987	0.9987	-0.125
Mof_C 	C 	0.532	0.9563	0.2143	0.071
Mof_C 	C 	0.6719	0.7466	0.2564	0.065
Mof_C 	C 	0.1863	0.0665	0.5611	0.108
Mof_C 	C 	0.1145	0.8611	0.5207	0.081
Mof_C 	C 	0.1132	0.7654	0.1068	0.093
Mof_C 	C 	0.1513	0.0327	0.5301	0.066
Mof_C 	C 	0.1127	0.3539	0.0131	0.068
Mof_C 	C 	0.6582	0.6751	0.0561	0.079
Mof_C 	C 	0.6951	0.9731	0.7129	0.063
Mof_C 	C 	0.1719	0.2534	0.7436	0.07
Mof_C 	C 	0.0304	0.535	0.2256	-0.128
Mof_C 	C 	0.1609	0.4568	0.8278	0.092
Mof_C 	C 	0.153	0.5574	0.8308	-0.136
Mof_C 	C 	0.4056	0.4586	0.1538	0.095
Mof_C 	C 	0.8453	0.1652	0.9192	0.076
Mof_C 	C 	0.1517	0.0463	0.3193	-0.123
Mof_C 	C 	0.9289	0.6264	0.8032	-0.145
Mof_C 	C 	0.1549	0.9759	0.4695	0.083
Mof_C 	C 	0.3208	0.0326	0.9166	0.092
Mof_C 	C 	0.3453	0.8348	0.0808	0.075
Mof_C 	C 	0.539	0.7457	0.2507	-0.125
Mof_C 	C 	0.1586	0.7441	0.7441	0.08
Mof_C 	C 	0.8259	0.6481	0.4153	0.097
Mof_C 	C 	0.6609	0.5432	0.1722	0.093
Mof_C 	C 	0.4073	0.2076	0.3226	0.088
Mof_C 	C 	0.7074	0.7237	0.7237	0.057
Mof_C 	C 	0.5801	0.9502	0.9502	-0.155
Mof_C 	C 	0.8208	0.0834	0.9674	0.093
Mof_C 	C 	0.0731	0.2852	0.7748	0.073
Mof_C 	C 	0.0282	0.0428	0.7328	-0.155
Mof_C 	C 	0.3008	0.8547	0.6923	0.07
Mof_C 	C 	0.3838	0.5642	0.3692	-0.154
Mof_C 	C 	0.6719	0.2564	0.7466	0.065
Mof_C 	C 	0.8822	0.0789	0.3219	0.072
Mof_C 	C 	0.039	0.7493	0.2543	-0.156
Mof_C 	C 	0.1863	0.5611	0.0665	0.108
Mof_C 	C 	0.2848	0.388	0.5908	-0.161
Mof_C 	C 	0.3049	0.1807	0.3409	0.085
Mof_C 	C 	0.0565	0.4979	0.9971	0.086
Mof_C 	C 	0.1463	0.8083	0.8083	-0.148
Mof_C 	C 	0.5282	0.2672	0.9572	-0.135
Mof_C 	C 	0.3976	0.4193	0.5477	0.097
Mof_C 	C 	0.5304	0.465	0.7744	-0.136
Mof_C 	C 	0.6549	0.5305	0.0241	0.084
Mof_C 	C 	0.8259	0.4153	0.6481	0.097
Mof_C 	C 	0.8976	0.5807	0.4523	0.098
Mof_C 	C 	0.5407	0.6839	0.1949	0.085
Mof_C 	C 	0.5407	0.1949	0.6839	0.085
Mof_C 	C 	0.8208	0.9674	0.0834	0.093
Mof_C 	C 	0.6582	0.0561	0.6751	0.079
Mof_C 	C 	0.7018	0.5091	0.2029	-0.141
Mof_C 	C 	0.1582	0.9439	0.3249	0.079
Mof_C 	C 	0.7848	0.612	0.4092	-0.161
Mof_C 	C 	0.5876	0.9719	0.4717	-0.14
Mof_C 	C 	0.6051	0.3989	0.7357	0.104
Mof_C 	C 	0.8976	0.4523	0.5807	0.098
Mof_C 	C 	0.3124	0.5992	0.297	0.083
Mof_C 	C 	0.1513	0.5301	0.0327	0.066
Mof_C 	C 	0.2368	0.2535	0.0641	0.096
Mof_C 	C 	0.4258	0.8878	0.7042	-0.155
Mof_C 	C 	0.6622	0.7786	0.7786	0.047
Mof_C 	C 	0.5749	0.1994	0.9236	-0.145
Mof_C 	C 	0.8217	0.8346	0.61	-0.142
Mof_C 	C 	0.2984	0.5784	0.4388	0.103
Mof_C 	C 	0.4056	0.1538	0.4586	0.095
Mof_C 	C 	0.8008	0.1453	0.3077	0.071
Mof_C 	C 	0.9864	0.311	0.4986	0.103
Mof_C 	C 	0.0904	0.2713	0.2713	0.036
Mof_C 	C 	0.3008	0.6923	0.8547	0.07
Mof_C 	C 	0.7848	0.4092	0.612	-0.161
Mof_C 	C 	0.8049	0.6591	0.8193	0.086
Mof_C 	C 	0.2074	0.2763	0.2763	0.057
Mof_C 	C 	0.645	0.7066	0.7066	-0.103
Mof_C 	C 	0.6145	0.1389	0.4793	0.082
Mof_C 	C 	0.5711	0.2805	0.7773	0.071
Mof_C 	C 	0.0244	0.2867	0.2867	0.104
Mof_C 	C 	0.1901	0.5874	0.5874	0.111
Mof_C 	C 	0.8049	0.8193	0.6591	0.086
Mof_C 	C 	0.9025	0.0279	0.3471	0.098
Mof_C 	C 	0.5244	0.7133	0.7133	0.112
Mof_C 	C 	0.697	0.7102	0.0242	-0.131
Mof_C 	C 	0.6132	0.2346	0.8932	0.094
Mof_C 	C 	0.4242	0.9023	0.0635	0.092
Mof_C 	C 	0.7394	0.2324	0.4194	0.093
Mof_C 	C 	0.0224	0.8055	0.8055	0.086
Mof_N 	N 	0.7712	0.7862	0.9458	-0.082
Mof_N 	N 	0.2138	0.763	0.763	-0.16
Mof_N 	N 	0.8054	0.2855	0.3829	-0.062
Mof_N 	N 	0.2418	0.6286	0.7768	-0.092
Mof_N 	N 	0.4585	0.5435	0.6987	-0.081
Mof_N 	N 	0.443	0.0168	0.1074	-0.07
Mof_N 	N 	0.4592	0.5237	0.1231	-0.068
Mof_N 	N 	0.7576	0.3763	0.7215	-0.088
Mof_N 	N 	0.4544	0.029	0.1862	-0.08
Mof_N 	N 	0.7441	0.7387	0.8883	-0.093
Mof_N 	N 	0.943	0.9832	0.8926	-0.069
Mof_N 	N 	0.9408	0.8375	0.8375	-0.06
Mof_N 	N 	0.4582	0.6184	0.0334	-0.069
Mof_N 	N 	0.7648	0.2302	0.88	-0.089
Mof_N 	N 	0.2418	0.7768	0.6286	-0.092
Mof_N 	N 	0.9692	0.3583	0.5085	-0.083
Mof_N 	N 	0.943	0.8926	0.9832	-0.069
Mof_N 	N 	0.9253	0.8583	0.9545	-0.064
Mof_N 	N 	0.443	0.1074	0.0168	-0.07
Mof_N 	N 	0.3484	0.304	0.2016	-0.154
Mof_N 	N 	0.4852	0.1301	0.9811	-0.092
Mof_N 	N 	0.7837	0.4295	0.4295	-0.073
Mof_N 	N 	0.269	0.7197	0.1347	-0.07
Mof_N 	N 	0.4218	0.7122	0.7122	-0.068
Mof_N 	N 	0.1576	0.0908	0.5904	-0.101
Mof_N 	N 	0.96	0.0162	0.368	-0.089
Mof_N 	N 	0.4711	0.7332	0.7332	-0.097
Mof_N 	N 	0.4585	0.6987	0.5435	-0.081
Mof_N 	N 	0.8675	0.8403	0.5021	-0.083
Mof_N 	N 	0.2513	0.07	0.56	-0.087
Mof_N 	N 	0.1368	0.7155	0.2217	-0.152
Mof_N 	N 	0.3675	0.4979	0.1597	-0.083
Mof_N 	N 	0.975	0.3234	0.8082	-0.072
Mof_N 	N 	0.7418	0.2232	0.3714	-0.091
Mof_N 	N 	0.4582	0.0334	0.6184	-0.069
Mof_N 	N 	0.8814	0.9602	0.066	-0.156
Mof_N 	N 	0.6576	0.4096	0.9092	-0.101
Mof_N 	N 	0.8288	0.8766	0.296	-0.064
Mof_N 	N 	0.4299	0.531	0.6228	-0.069
Mof_N 	N 	0.7836	0.3497	0.2575	-0.069
Mof_N 	N 	0.4246	0.5617	0.6569	-0.066
Mof_N 	N 	0.2837	0.5705	0.5705	-0.073
Mof_N 	N 	0.0719	0.8348	0.3472	-0.087
Mof_N 	N 	0.1078	0.6037	0.2157	-0.155
Mof_N 	N 	0.4672	0.161	0.6464	-0.061
Mof_N 	N 	0.5075	0.6838	0.6838	-0.089
Mof_N 	N 	0.4253	0.1417	0.0455	-0.064
Mof_N 	N 	0.3542	0.5559	0.4551	-0.157
Mof_N 	N 	0.475	0.1918	0.6766	-0.079
Mof_N 	N 	0.4246	0.6569	0.5617	-0.066
Mof_N 	N 	0.2994	0.1954	0.0984	-0.065
Mof_N 	N 	0.9544	0.8138	0.971	-0.08
Mof_N 	N 	0.2835	0.2244	0.1322	-0.069
Mof_N 	N 	0.4042	0.1414	0.5384	-0.068
Mof_N 	N 	0.0075	0.3162	0.3162	-0.092
Mof_N 	N 	0.5719	0.6528	0.1652	-0.088
Mof_N 	N 	0.2625	0.5934	0.1034	-0.066
Mof_N 	N 	0.46	0.9838	0.632	-0.091
Mof_N 	N 	0.8542	0.4441	0.5449	-0.157
Mof_N 	N 	0.975	0.8082	0.3234	-0.072
Mof_N 	N 	0.8288	0.296	0.8766	-0.064
Mof_N 	N 	0.4207	0.1936	0.1936	-0.069
Mof_N 	N 	0.9852	0.8699	0.0189	-0.091
Mof_N 	N 	0.28	0.6022	0.6022	-0.067
Mof_N 	N 	0.512	0.9967	0.9967	-0.16
Mof_N 	N 	0.8519	0.7402	0.4098	-0.08
Mof_N 	N 	0.5227	0.6325	0.1451	-0.068
Mof_N 	N 	0.6158	0.038	0.6444	-0.146
Mof_N 	N 	0.4008	0.051	0.6306	-0.065
Mof_N 	N 	0.7853	0.9247	0.9247	-0.06
Mof_N 	N 	0.6576	0.9092	0.4096	-0.101
Mof_N 	N 	0.3519	0.2598	0.5902	-0.081
Mof_N 	N 	0.7644	0.3696	0.7708	-0.067
Mof_N 	N 	0.9246	0.3431	0.4383	-0.065
Mof_N 	N 	0.2199	0.6142	0.6142	-0.089
Mof_N 	N 	0.9711	0.7869	0.7869	-0.09
Mof_N 	N 	0.4408	0.1625	0.1625	-0.064
Mof_N 	N 	0.4592	0.1231	0.5237	-0.068
Mof_N 	N 	0.3062	0.0469	0.0469	-0.068
Mof_N 	N 	0.5886	0.5315	0.0287	-0.158
Mof_N 	N 	0.7793	0.4274	0.27	-0.081
Mof_N 	N 	0.9585	0.4565	0.3013	-0.081
Mof_N 	N 	0.2441	0.1117	0.2613	-0.093
Mof_N 	N 	0.3054	0.7145	0.6171	-0.062
Mof_N 	N 	0.229	0.5538	0.5538	-0.085
Mof_N 	N 	0.2793	0.73	0.5726	-0.081
Mof_N 	N 	0.9582	0.3816	0.9666	-0.065
Mof_N 	N 	0.7559	0.9735	0.9735	-0.095
Mof_N 	N 	0.9299	0.469	0.3772	-0.068
Mof_N 	N 	0.2648	0.12	0.7698	-0.089
Mof_N 	N 	0.3214	0.6102	0.2172	-0.067
Mof_N 	N 	0.8632	0.9878	0.3484	-0.082
Mof_N 	N 	0.1158	0.962	0.3556	-0.146
Mof_N 	N 	0.2441	0.2613	0.1117	-0.093
Mof_N 	N 	0.8645	0.8956	0.2586	-0.079
Mof_N 	N 	0.9672	0.3536	0.839	-0.056
Mof_N 	N 	0.2195	0.0775	0.0775	-0.083
Mof_N 	N 	0.2037	0.6126	0.1164	-0.077
Mof_N 	N 	0.7836	0.2575	0.3497	-0.069
Mof_N 	N 	0.6158	0.6444	0.038	-0.146
Mof_N 	N 	0.9218	0.2878	0.2878	-0.068
Mof_N 	N 	0.7712	0.9458	0.7862	-0.082
Mof_N 	N 	0.769	0.2803	0.8653	-0.07
Mof_N 	N 	0.3288	0.1234	0.704	-0.064
Mof_N 	N 	0.9692	0.5085	0.3583	-0.083
Mof_N 	N 	0.2835	0.1322	0.2244	-0.069
Mof_N 	N 	0.2994	0.0984	0.1954	-0.065
Mof_N 	N 	0.2836	0.7425	0.6503	-0.069
Mof_N 	N 	0.2793	0.5726	0.73	-0.081
Mof_N 	N 	0.2644	0.2292	0.6304	-0.068
Mof_N 	N 	0.1576	0.5904	0.0908	-0.101
Mof_N 	N 	0.1158	0.3556	0.962	-0.146
Mof_N 	N 	0.7648	0.88	0.2302	-0.089
Mof_N 	N 	0.7195	0.9225	0.9225	-0.082
Mof_N 	N 	0.6368	0.2845	0.7783	-0.148
Mof_N 	N 	0.0227	0.3675	0.8549	-0.073
Mof_N 	N 	0.4617	0.4723	0.1319	-0.092
Mof_N 	N 	0.7513	0.93	0.44	-0.087
Mof_N 	N 	0.9582	0.9666	0.3816	-0.065
Mof_N 	N 	0.729	0.4462	0.4462	-0.084
Mof_N 	N 	0.6078	0.3963	0.7843	-0.156
Mof_N 	N 	0.269	0.1347	0.7197	-0.07
Mof_N 	N 	0.8054	0.3829	0.2855	-0.062
Mof_N 	N 	0.8214	0.7828	0.3898	-0.067
Mof_N 	N 	0.4852	0.9811	0.1301	-0.092
Mof_N 	N 	0.9253	0.9545	0.8583	-0.064
Mof_N 	N 	0.1099	0.716	0.108	-0.157
Mof_N 	N 	0.3814	0.0398	0.934	-0.157
Mof_N 	N 	0.5719	0.1652	0.6528	-0.088
Mof_N 	N 	0.5227	0.1451	0.6325	-0.068
Mof_N 	N 	0.769	0.8653	0.2803	-0.07
Mof_N 	N 	0.2836	0.6503	0.7425	-0.069
Mof_N 	N 	0.9042	0.4616	0.8586	-0.067
Mof_N 	N 	0.2644	0.6304	0.2292	-0.068
Mof_N 	N 	0.7418	0.3714	0.2232	-0.091
Mof_N 	N 	0.2513	0.56	0.07	-0.087
Mof_N 	N 	0.6078	0.7843	0.3963	-0.156
Mof_N 	N 	0.4672	0.6464	0.161	-0.061
Mof_N 	N 	0.3632	0.0122	0.6516	-0.082
Mof_N 	N 	0.4875	0.5151	0.5151	-0.107
Mof_N 	N 	0.5063	0.1624	0.1624	-0.08
Mof_N 	N 	0.8519	0.4098	0.7402	-0.08
Mof_N 	N 	0.0719	0.3472	0.8348	-0.087
Mof_N 	N 	0.3645	0.1044	0.7414	-0.08
Mof_N 	N 	0.7037	0.8836	0.3874	-0.077
Mof_N 	N 	0.3675	0.1597	0.4979	-0.083
Mof_N 	N 	0.3519	0.5902	0.2598	-0.081
Mof_N 	N 	0.8484	0.696	0.7984	-0.154
Mof_N 	N 	0.475	0.6766	0.1918	-0.079
Mof_N 	N 	0.2625	0.1034	0.5934	-0.066
Mof_N 	N 	0.7793	0.27	0.4274	-0.081
Mof_N 	N 	0.8214	0.3898	0.7828	-0.067
Mof_N 	N 	0.1368	0.2217	0.7155	-0.152
Mof_N 	N 	0.9246	0.4383	0.3431	-0.065
Mof_N 	N 	0.9008	0.949	0.3694	-0.064
Mof_N 	N 	0.4425	0.6822	0.6822	-0.063
Mof_N 	N 	0.2576	0.2785	0.6237	-0.088
Mof_N 	N 	0.8814	0.066	0.9602	-0.156
Mof_N 	N 	0.6368	0.7783	0.2845	-0.148
Mof_N 	N 	0.7576	0.7215	0.3763	-0.088
Mof_N 	N 	0.8463	0.178	0.28	-0.156
Mof_N 	N 	0.3632	0.6516	0.0122	-0.082
Mof_N 	N 	0.8632	0.3484	0.9878	-0.082
Mof_N 	N 	0.9617	0.5277	0.8681	-0.089
Mof_N 	N 	0.2559	0.0265	0.0265	-0.095
Mof_N 	N 	0.4692	0.6417	0.4915	-0.083
Mof_N 	N 	0.0227	0.8549	0.3675	-0.073
Mof_N 	N 	0.6178	0.5291	0.1411	-0.154
Mof_N 	N 	0.2137	0.2435	0.2435	-0.141
Mof_N 	N 	0.7644	0.7708	0.3696	-0.067
Mof_N 	N 	0.7037	0.3874	0.8836	-0.077
Mof_N 	N 	0.7835	0.8678	0.7756	-0.069
Mof_N 	N 	0.3054	0.6171	0.7145	-0.062
Mof_N 	N 	0.8645	0.2586	0.8956	-0.079
Mof_N 	N 	0.3484	0.2016	0.304	-0.154
Mof_N 	N 	0.2648	0.7698	0.12	-0.089
Mof_N 	N 	0.2712	0.0542	0.2138	-0.083
Mof_N 	N 	0.2037	0.1164	0.6126	-0.077
Mof_N 	N 	0.7513	0.44	0.93	-0.087
Mof_N 	N 	0.7835	0.7756	0.8678	-0.069
Mof_N 	N 	0.9592	0.4763	0.8769	-0.065
Mof_N 	N 	0.1178	0.8589	0.4709	-0.155
Mof_N 	N 	0.9585	0.3013	0.4565	-0.081
Mof_N 	N 	0.0886	0.4685	0.9713	-0.158
Mof_N 	N 	0.3542	0.4551	0.5559	-0.157
Mof_N 	N 	0.3645	0.7414	0.1044	-0.08
Mof_N 	N 	0.7994	0.9016	0.8046	-0.064
Mof_N 	N 	0.7138	0.237	0.237	-0.16
Mof_N 	N 	0.6178	0.1411	0.5291	-0.154
Mof_N 	N 	0.8463	0.28	0.178	-0.156
Mof_N 	N 	0.9008	0.3694	0.949	-0.064
Mof_N 	N 	0.9617	0.8681	0.5277	-0.089
Mof_N 	N 	0.4042	0.5384	0.1414	-0.068
Mof_N 	N 	0.9425	0.3178	0.3178	-0.059
Mof_N 	N 	0.8062	0.9531	0.9531	-0.068
Mof_N 	N 	0.7625	0.4066	0.8966	-0.066
Mof_N 	N 	0.4617	0.1319	0.4723	-0.092
Mof_N 	N 	0.4253	0.0455	0.1417	-0.064
Mof_N 	N 	0.5886	0.0287	0.5315	-0.158
Mof_N 	N 	0.8542	0.5449	0.4441	-0.157
Mof_N 	N 	0.4711	0.2131	0.2131	-0.096
Mof_N 	N 	0.3214	0.2172	0.6102	-0.067
Mof_N 	N 	0.46	0.632	0.9838	-0.091
Mof_N 	N 	0.9672	0.839	0.3536	-0.056
Mof_N 	N 	0.3814	0.934	0.0398	-0.157
Mof_N 	N 	0.9711	0.2668	0.2668	-0.092
Mof_N 	N 	0.6099	0.284	0.892	-0.155
Mof_N 	N 	0.7199	0.3858	0.3858	-0.088
Mof_N 	N 	0.8675	0.5021	0.8403	-0.083
Mof_N 	N 	0.3463	0.72	0.822	-0.156
Mof_N 	N 	0.9207	0.8064	0.8064	-0.069
Mof_N 	N 	0.3288	0.704	0.1234	-0.064
Mof_N 	N 	0.4692	0.4915	0.6417	-0.083
Mof_N 	N 	0.012	0.0033	0.0033	-0.158
Mof_N 	N 	0.7994	0.8046	0.9016	-0.064
Mof_N 	N 	0.9299	0.3772	0.469	-0.068
Mof_N 	N 	0.9042	0.8586	0.4616	-0.067
Mof_N 	N 	0.9852	0.0189	0.8699	-0.091
Mof_N 	N 	0.0886	0.9713	0.4685	-0.158
Mof_N 	N 	0.2576	0.6237	0.2785	-0.088
Mof_N 	N 	0.78	0.3978	0.3978	-0.067
Mof_N 	N 	0.2712	0.2138	0.0542	-0.083
Mof_N 	N 	0.1099	0.108	0.716	-0.157
Mof_N 	N 	0.4299	0.6228	0.531	-0.069
Mof_N 	N 	0.1078	0.2157	0.6037	-0.155
Mof_N 	N 	0.7441	0.8883	0.7387	-0.093
Mof_N 	N 	0.9544	0.971	0.8138	-0.08
Mof_N 	N 	0.6099	0.892	0.284	-0.155
Mof_N 	N 	0.7625	0.8966	0.4066	-0.066
Mof_N 	N 	0.96	0.368	0.0162	-0.089
Mof_N 	N 	0.4008	0.6306	0.051	-0.065
Mof_N 	N 	0.1178	0.4709	0.8589	-0.155
Mof_N 	N 	0.7137	0.7565	0.7565	-0.141
Mof_N 	N 	0.0063	0.8376	0.8376	-0.085
Mof_N 	N 	0.8484	0.7984	0.696	-0.154
Mof_N 	N 	0.3463	0.822	0.72	-0.156
Mof_N 	N 	0.2853	0.0753	0.0753	-0.06
Mof_N 	N 	0.9875	0.4849	0.4849	-0.104
Mof_N 	N 	0.4544	0.1862	0.029	-0.08
Mof_N 	N 	0.9592	0.8769	0.4763	-0.065
_end
