# CIF file generated by openbabel 3.1.0, see https://openbabel.org
data_I
_chemical_name_common 'image0'
_cell_length_a 20.123
_cell_length_b 20.123
_cell_length_c 20.123
_cell_angle_alpha 90
_cell_angle_beta 90
_cell_angle_gamma 90
_space_group_name_H-M_alt 'P 1'
_space_group_name_Hall 'P 1'
loop_
    _symmetry_equiv_pos_as_xyz
    x,y,z
loop_
    _atom_site_label
    _atom_site_type_symbol
    _atom_site_fract_x
    _atom_site_fract_y
    _atom_site_fract_z
    _atom_site_occupancy
    Zn1      Zn       0.35581    0.25061    0.23074    1.000
    O1       O        0.44670    0.28270    0.24230    1.000
    O2       O        0.45320    0.20720    0.16380    1.000
    C1       C        0.47960    0.25000    0.19930    1.000
    C2       C        0.59990    0.23180    0.15780    1.000
    H1       H        0.59180    0.19730    0.12810    1.000
    C3       C        0.55130    0.26340    0.19580    1.000
    C4       C        0.58720    0.31000    0.23190    1.000
    H2       H        0.56900    0.33910    0.26280    1.000
    N1       N        0.65100    0.30700    0.21610    1.000
    N2       N        0.65900    0.25760    0.16980    1.000
    Zn2      Zn       0.14419    0.74939    0.73074    1.000
    O3       O        0.05330    0.71730    0.74230    1.000
    O4       O        0.04680    0.79280    0.66380    1.000
    C5       C        0.02040    0.75000    0.69930    1.000
    C6       C        0.90010    0.76820    0.65780    1.000
    H3       H        0.90820    0.80270    0.62810    1.000
    C7       C        0.94870    0.73660    0.69580    1.000
    C8       C        0.91280    0.69000    0.73190    1.000
    H4       H        0.93100    0.66090    0.76280    1.000
    N3       N        0.84900    0.69300    0.71610    1.000
    N4       N        0.84100    0.74240    0.66980    1.000
    Zn3      Zn       0.64419    0.75061    0.26926    1.000
    O5       O        0.55330    0.78270    0.25770    1.000
    O6       O        0.54680    0.70720    0.33620    1.000
    C9       C        0.52040    0.75000    0.30070    1.000
    C10      C        0.40010    0.73180    0.34220    1.000
    H5       H        0.40820    0.69730    0.37190    1.000
    C11      C        0.44870    0.76340    0.30420    1.000
    C12      C        0.41280    0.81000    0.26810    1.000
    H6       H        0.43100    0.83910    0.23720    1.000
    N5       N        0.34900    0.80700    0.28390    1.000
    N6       N        0.34100    0.75760    0.33020    1.000
    Zn4      Zn       0.85581    0.24939    0.76926    1.000
    O7       O        0.94670    0.21730    0.75770    1.000
    O8       O        0.95320    0.29280    0.83620    1.000
    C13      C        0.97960    0.25000    0.80070    1.000
    C14      C        0.09990    0.26820    0.84220    1.000
    H7       H        0.09180    0.30270    0.87190    1.000
    C15      C        0.05130    0.23660    0.80420    1.000
    C16      C        0.08720    0.19000    0.76810    1.000
    H8       H        0.06900    0.16090    0.73720    1.000
    N7       N        0.15100    0.19300    0.78390    1.000
    N8       N        0.15900    0.24240    0.83020    1.000
    Zn5      Zn       0.23074    0.35581    0.25061    1.000
    O9       O        0.24230    0.44670    0.28270    1.000
    O10      O        0.16380    0.45320    0.20720    1.000
    C17      C        0.19930    0.47960    0.25000    1.000
    C18      C        0.15780    0.59990    0.23180    1.000
    H9       H        0.12810    0.59180    0.19730    1.000
    C19      C        0.19580    0.55130    0.26340    1.000
    C20      C        0.23190    0.58720    0.31000    1.000
    H10      H        0.26280    0.56900    0.33910    1.000
    N9       N        0.21610    0.65100    0.30700    1.000
    N10      N        0.16980    0.65900    0.25760    1.000
    Zn6      Zn       0.73074    0.14419    0.74939    1.000
    O11      O        0.74230    0.05330    0.71730    1.000
    O12      O        0.66380    0.04680    0.79280    1.000
    C21      C        0.69930    0.02040    0.75000    1.000
    C22      C        0.65780    0.90010    0.76820    1.000
    H11      H        0.62810    0.90820    0.80270    1.000
    C23      C        0.69580    0.94870    0.73660    1.000
    C24      C        0.73190    0.91280    0.69000    1.000
    H12      H        0.76280    0.93100    0.66090    1.000
    N11      N        0.71610    0.84900    0.69300    1.000
    N12      N        0.66980    0.84100    0.74240    1.000
    Zn7      Zn       0.26926    0.64419    0.75061    1.000
    O13      O        0.25770    0.55330    0.78270    1.000
    O14      O        0.33620    0.54680    0.70720    1.000
    C25      C        0.30070    0.52040    0.75000    1.000
    C26      C        0.34220    0.40010    0.73180    1.000
    H13      H        0.37190    0.40820    0.69730    1.000
    C27      C        0.30420    0.44870    0.76340    1.000
    C28      C        0.26810    0.41280    0.81000    1.000
    H14      H        0.23720    0.43100    0.83910    1.000
    N13      N        0.28390    0.34900    0.80700    1.000
    N14      N        0.33020    0.34100    0.75760    1.000
    Zn8      Zn       0.76926    0.85581    0.24939    1.000
    O15      O        0.75770    0.94670    0.21730    1.000
    O16      O        0.83620    0.95320    0.29280    1.000
    C29      C        0.80070    0.97960    0.25000    1.000
    C30      C        0.84220    0.09990    0.26820    1.000
    H15      H        0.87190    0.09180    0.30270    1.000
    C31      C        0.80420    0.05130    0.23660    1.000
    C32      C        0.76810    0.08720    0.19000    1.000
    H16      H        0.73720    0.06900    0.16090    1.000
    N15      N        0.78390    0.15100    0.19300    1.000
    N16      N        0.83020    0.15900    0.24240    1.000
    Zn9      Zn       0.25061    0.23074    0.35581    1.000
    O17      O        0.28270    0.24230    0.44670    1.000
    O18      O        0.20720    0.16380    0.45320    1.000
    C33      C        0.25000    0.19930    0.47960    1.000
    C34      C        0.23180    0.15780    0.59990    1.000
    H17      H        0.19730    0.12810    0.59180    1.000
    C35      C        0.26340    0.19580    0.55130    1.000
    C36      C        0.31000    0.23190    0.58720    1.000
    H18      H        0.33910    0.26280    0.56900    1.000
    N17      N        0.30700    0.21610    0.65100    1.000
    N18      N        0.25760    0.16980    0.65900    1.000
    Zn10     Zn       0.74939    0.73074    0.14419    1.000
    O19      O        0.71730    0.74230    0.05330    1.000
    O20      O        0.79280    0.66380    0.04680    1.000
    C37      C        0.75000    0.69930    0.02040    1.000
    C38      C        0.76820    0.65780    0.90010    1.000
    H19      H        0.80270    0.62810    0.90820    1.000
    C39      C        0.73660    0.69580    0.94870    1.000
    C40      C        0.69000    0.73190    0.91280    1.000
    H20      H        0.66090    0.76280    0.93100    1.000
    N19      N        0.69300    0.71610    0.84900    1.000
    N20      N        0.74240    0.66980    0.84100    1.000
    Zn11     Zn       0.75061    0.26926    0.64419    1.000
    O21      O        0.78270    0.25770    0.55330    1.000
    O22      O        0.70720    0.33620    0.54680    1.000
    C41      C        0.75000    0.30070    0.52040    1.000
    C42      C        0.73180    0.34220    0.40010    1.000
    H21      H        0.69730    0.37190    0.40820    1.000
    C43      C        0.76340    0.30420    0.44870    1.000
    C44      C        0.81000    0.26810    0.41280    1.000
    H22      H        0.83910    0.23720    0.43100    1.000
    N21      N        0.80700    0.28390    0.34900    1.000
    N22      N        0.75760    0.33020    0.34100    1.000
    Zn12     Zn       0.24939    0.76926    0.85581    1.000
    O23      O        0.21730    0.75770    0.94670    1.000
    O24      O        0.29280    0.83620    0.95320    1.000
    C45      C        0.25000    0.80070    0.97960    1.000
    C46      C        0.26820    0.84220    0.09990    1.000
    H23      H        0.30270    0.87190    0.09180    1.000
    C47      C        0.23660    0.80420    0.05130    1.000
    C48      C        0.19000    0.76810    0.08720    1.000
    H24      H        0.16090    0.73720    0.06900    1.000
    N23      N        0.19300    0.78390    0.15100    1.000
    N24      N        0.24240    0.83020    0.15900    1.000
    Zn13     Zn       0.64419    0.74939    0.76926    1.000
    O25      O        0.55330    0.71730    0.75770    1.000
    O26      O        0.54680    0.79280    0.83620    1.000
    C49      C        0.52040    0.75000    0.80070    1.000
    C50      C        0.40010    0.76820    0.84220    1.000
    H25      H        0.40820    0.80270    0.87190    1.000
    C51      C        0.44870    0.73660    0.80420    1.000
    C52      C        0.41280    0.69000    0.76810    1.000
    H26      H        0.43100    0.66090    0.73720    1.000
    N25      N        0.34900    0.69300    0.78390    1.000
    N26      N        0.34100    0.74240    0.83020    1.000
    Zn14     Zn       0.85581    0.25061    0.26926    1.000
    O27      O        0.94670    0.28270    0.25770    1.000
    O28      O        0.95320    0.20720    0.33620    1.000
    C53      C        0.97960    0.25000    0.30070    1.000
    C54      C        0.09990    0.23180    0.34220    1.000
    H27      H        0.09180    0.19730    0.37190    1.000
    C55      C        0.05130    0.26340    0.30420    1.000
    C56      C        0.08720    0.31000    0.26810    1.000
    H28      H        0.06900    0.33910    0.23720    1.000
    N27      N        0.15100    0.30700    0.28390    1.000
    N28      N        0.15900    0.25760    0.33020    1.000
    Zn15     Zn       0.35581    0.24939    0.73074    1.000
    O29      O        0.44670    0.21730    0.74230    1.000
    O30      O        0.45320    0.29280    0.66380    1.000
    C57      C        0.47960    0.25000    0.69930    1.000
    C58      C        0.59990    0.26820    0.65780    1.000
    H29      H        0.59180    0.30270    0.62810    1.000
    C59      C        0.55130    0.23660    0.69580    1.000
    C60      C        0.58720    0.19000    0.73190    1.000
    H30      H        0.56900    0.16090    0.76280    1.000
    N29      N        0.65100    0.19300    0.71610    1.000
    N30      N        0.65900    0.24240    0.66980    1.000
    Zn16     Zn       0.14419    0.75061    0.23074    1.000
    O31      O        0.05330    0.78270    0.24230    1.000
    O32      O        0.04680    0.70720    0.16380    1.000
    C61      C        0.02040    0.75000    0.19930    1.000
    C62      C        0.90010    0.73180    0.15780    1.000
    H31      H        0.90820    0.69730    0.12810    1.000
    C63      C        0.94870    0.76340    0.19580    1.000
    C64      C        0.91280    0.81000    0.23190    1.000
    H32      H        0.93100    0.83910    0.26280    1.000
    N31      N        0.84900    0.80700    0.21610    1.000
    N32      N        0.84100    0.75760    0.16980    1.000
    Zn17     Zn       0.76926    0.64419    0.74939    1.000
    O33      O        0.75770    0.55330    0.71730    1.000
    O34      O        0.83620    0.54680    0.79280    1.000
    C65      C        0.80070    0.52040    0.75000    1.000
    C66      C        0.84220    0.40010    0.76820    1.000
    H33      H        0.87190    0.40820    0.80270    1.000
    C67      C        0.80420    0.44870    0.73660    1.000
    C68      C        0.76810    0.41280    0.69000    1.000
    H34      H        0.73720    0.43100    0.66090    1.000
    N33      N        0.78390    0.34900    0.69300    1.000
    N34      N        0.83020    0.34100    0.74240    1.000
    Zn18     Zn       0.26926    0.85581    0.25061    1.000
    O35      O        0.25770    0.94670    0.28270    1.000
    O36      O        0.33620    0.95320    0.20720    1.000
    C69      C        0.30070    0.97960    0.25000    1.000
    C70      C        0.34220    0.09990    0.23180    1.000
    H35      H        0.37190    0.09180    0.19730    1.000
    C71      C        0.30420    0.05130    0.26340    1.000
    C72      C        0.26810    0.08720    0.31000    1.000
    H36      H        0.23720    0.06900    0.33910    1.000
    N35      N        0.28390    0.15100    0.30700    1.000
    N36      N        0.33020    0.15900    0.25760    1.000
    Zn19     Zn       0.73074    0.35581    0.24939    1.000
    O37      O        0.74230    0.44670    0.21730    1.000
    O38      O        0.66380    0.45320    0.29280    1.000
    C73      C        0.69930    0.47960    0.25000    1.000
    C74      C        0.65780    0.59990    0.26820    1.000
    H37      H        0.62810    0.59180    0.30270    1.000
    C75      C        0.69580    0.55130    0.23660    1.000
    C76      C        0.73190    0.58720    0.19000    1.000
    H38      H        0.76280    0.56900    0.16090    1.000
    N37      N        0.71610    0.65100    0.19300    1.000
    N38      N        0.66980    0.65900    0.24240    1.000
    Zn20     Zn       0.23074    0.14419    0.75061    1.000
    O39      O        0.24230    0.05330    0.78270    1.000
    O40      O        0.16380    0.04680    0.70720    1.000
    C77      C        0.19930    0.02040    0.75000    1.000
    C78      C        0.15780    0.90010    0.73180    1.000
    H39      H        0.12810    0.90820    0.69730    1.000
    C79      C        0.19580    0.94870    0.76340    1.000
    C80      C        0.23190    0.91280    0.81000    1.000
    H40      H        0.26280    0.93100    0.83910    1.000
    N39      N        0.21610    0.84900    0.80700    1.000
    N40      N        0.16980    0.84100    0.75760    1.000
    Zn21     Zn       0.74939    0.76926    0.64419    1.000
    O41      O        0.71730    0.75770    0.55330    1.000
    O42      O        0.79280    0.83620    0.54680    1.000
    C81      C        0.75000    0.80070    0.52040    1.000
    C82      C        0.76820    0.84220    0.40010    1.000
    H41      H        0.80270    0.87190    0.40820    1.000
    C83      C        0.73660    0.80420    0.44870    1.000
    C84      C        0.69000    0.76810    0.41280    1.000
    H42      H        0.66090    0.73720    0.43100    1.000
    N41      N        0.69300    0.78390    0.34900    1.000
    N42      N        0.74240    0.83020    0.34100    1.000
    Zn22     Zn       0.25061    0.26926    0.85581    1.000
    O43      O        0.28270    0.25770    0.94670    1.000
    O44      O        0.20720    0.33620    0.95320    1.000
    C85      C        0.25000    0.30070    0.97960    1.000
    C86      C        0.23180    0.34220    0.09990    1.000
    H43      H        0.19730    0.37190    0.09180    1.000
    C87      C        0.26340    0.30420    0.05130    1.000
    C88      C        0.31000    0.26810    0.08720    1.000
    H44      H        0.33910    0.23720    0.06900    1.000
    N43      N        0.30700    0.28390    0.15100    1.000
    N44      N        0.25760    0.33020    0.15900    1.000
    Zn23     Zn       0.24939    0.73074    0.35581    1.000
    O45      O        0.21730    0.74230    0.44670    1.000
    O46      O        0.29280    0.66380    0.45320    1.000
    C89      C        0.25000    0.69930    0.47960    1.000
    C90      C        0.26820    0.65780    0.59990    1.000
    H45      H        0.30270    0.62810    0.59180    1.000
    C91      C        0.23660    0.69580    0.55130    1.000
    C92      C        0.19000    0.73190    0.58720    1.000
    H46      H        0.16090    0.76280    0.56900    1.000
    N45      N        0.19300    0.71610    0.65100    1.000
    N46      N        0.24240    0.66980    0.65900    1.000
    Zn24     Zn       0.75061    0.23074    0.14419    1.000
    O47      O        0.78270    0.24230    0.05330    1.000
    O48      O        0.70720    0.16380    0.04680    1.000
    C93      C        0.75000    0.19930    0.02040    1.000
    C94      C        0.73180    0.15780    0.90010    1.000
    H47      H        0.69730    0.12810    0.90820    1.000
    C95      C        0.76340    0.19580    0.94870    1.000
    C96      C        0.81000    0.23190    0.91280    1.000
    H48      H        0.83910    0.26280    0.93100    1.000
    N47      N        0.80700    0.21610    0.84900    1.000
    N48      N        0.75760    0.16980    0.84100    1.000
    O49      O        0.30003    0.30003    0.30003    1.000
    O50      O        0.19997    0.69997    0.80003    1.000
    O51      O        0.69997    0.80003    0.19997    1.000
    O52      O        0.80003    0.19997    0.69997    1.000
    O53      O        0.69997    0.69997    0.69997    1.000
    O54      O        0.80003    0.30003    0.19997    1.000
    O55      O        0.30003    0.19997    0.80003    1.000
    O56      O        0.19997    0.80003    0.30003    1.000
