data_functionalizedCrystal
_audit_creation_method	'EQeq! by Chris Wilmer'
_symmetry_space_group_name_H-M	'P1'
_symmetry_Int_Tables_number	1
_symmetry_cell_setting	triclinic
loop_
_symmetry_equiv_pos_as_xyz
  x,y,z
_cell_length_a	10.205
_cell_length_b	21.215
_cell_length_c	7.866
_cell_angle_alpha	90
_cell_angle_beta	98.642
_cell_angle_gamma	90
loop_
_atom_site_label
_atom_site_type_symbol
_atom_site_fract_x
_atom_site_fract_y
_atom_site_fract_z
_atom_site_charge
Mof_C 	C 	0.5	0.1269	0.6349	0.674
Mof_C 	C 	0.4991	0.0608	0.5698	-0.284
Mof_C 	C 	0.6151	0.0299	0.5562	0.305
Mof_C 	C 	0.3835	0.0302	0.5072	0.314
Mof_C 	C 	0.0898	0.2083	0.7206	0.297
Mof_C 	C 	0.1352	0.2705	0.7138	-0.259
Mof_C 	C 	0.052	0.3178	0.7486	0.322
Mof_C 	C 	0.9293	0.3042	0.793	0.298
Mof_C 	C 	0.885	0.2433	0.8049	-0.246
Mof_C 	C 	0.9694	0.195	0.7667	0.301
Mof_C 	C 	0.7515	0.228	0.857	0.552
Mof_C 	C 	0.2685	0.2837	0.6598	0.57
Mof_O 	O 	0.7453	0.1897	0.9694	-0.463
Mof_O 	O 	0.6506	0.2577	0.783	-0.694
Mof_O 	O 	0.5128	0.1696	0.5297	-0.588
Mof_O 	O 	0.4884	0.1333	0.7914	-0.567
Mof_O 	O 	0.3703	0.2595	0.7466	-0.705
Mof_O 	O 	0.2755	0.3158	0.5339	-0.474
Mof_F 	F 	0.2678	0.0587	0.5164	-0.324
Mof_F 	F 	0.7309	0.059	0.6127	-0.329
Mof_F 	F 	0.9312	0.1352	0.7725	-0.317
Mof_F 	F 	0.1646	0.1611	0.6764	-0.364
Mof_F 	F 	0.8539	0.3521	0.8359	-0.359
Mof_F 	F 	0.0892	0.3781	0.7426	-0.322
Mof_Nd	Nd	0.50925	0.21527	0.0042	2.673
Mof_C 	C 	0.5	0.6269	0.8651	0.675
Mof_C 	C 	0.5009	0.5608	0.9302	-0.287
Mof_C 	C 	0.3849	0.5299	0.9438	0.304
Mof_C 	C 	0.6165	0.5302	0.9928	0.315
Mof_C 	C 	0.9102	0.7083	0.7794	0.299
Mof_C 	C 	0.8648	0.7705	0.7862	-0.264
Mof_C 	C 	0.948	0.8178	0.7514	0.325
Mof_C 	C 	0.0707	0.8042	0.707	0.292
Mof_C 	C 	0.115	0.7433	0.6951	-0.246
Mof_C 	C 	0.0306	0.695	0.7333	0.296
Mof_C 	C 	0.2485	0.728	0.643	0.551
Mof_C 	C 	0.7315	0.7837	0.8402	0.572
Mof_O 	O 	0.2547	0.6897	0.5306	-0.47
Mof_O 	O 	0.3494	0.7577	0.717	-0.696
Mof_O 	O 	0.4872	0.6696	0.9703	-0.589
Mof_O 	O 	0.5116	0.6333	0.7086	-0.572
Mof_O 	O 	0.6297	0.7595	0.7534	-0.709
Mof_O 	O 	0.7245	0.8158	0.9661	-0.476
Mof_F 	F 	0.7322	0.5587	0.9836	-0.324
Mof_F 	F 	0.2691	0.559	0.8873	-0.33
Mof_F 	F 	0.0688	0.6352	0.7275	-0.318
Mof_F 	F 	0.8354	0.6611	0.8236	-0.366
Mof_F 	F 	0.1461	0.8521	0.6641	-0.361
Mof_F 	F 	0.9108	0.8781	0.7574	-0.323
Mof_Nd	Nd	0.49075	0.71527	0.4958	2.694
Mof_C 	C 	0.5	0.8731	0.3651	0.673
Mof_C 	C 	0.5009	0.9392	0.4302	-0.285
Mof_C 	C 	0.3849	0.9701	0.4438	0.304
Mof_C 	C 	0.6165	0.9698	0.4928	0.313
Mof_C 	C 	0.9102	0.7917	0.2794	0.296
Mof_C 	C 	0.8648	0.7295	0.2862	-0.26
Mof_C 	C 	0.948	0.6822	0.2514	0.322
Mof_C 	C 	0.0707	0.6958	0.207	0.298
Mof_C 	C 	0.115	0.7567	0.1951	-0.246
Mof_C 	C 	0.0306	0.805	0.2333	0.301
Mof_C 	C 	0.2485	0.772	0.143	0.552
Mof_C 	C 	0.7315	0.7163	0.3402	0.57
Mof_O 	O 	0.2547	0.8103	0.0306	-0.463
Mof_O 	O 	0.3494	0.7423	0.217	-0.694
Mof_O 	O 	0.4872	0.8304	0.4703	-0.588
Mof_O 	O 	0.5116	0.8667	0.2086	-0.567
Mof_O 	O 	0.6297	0.7405	0.2534	-0.705
Mof_O 	O 	0.7245	0.6842	0.4661	-0.474
Mof_F 	F 	0.7322	0.9413	0.4836	-0.324
Mof_F 	F 	0.2691	0.941	0.3873	-0.329
Mof_F 	F 	0.0688	0.8648	0.2275	-0.317
Mof_F 	F 	0.8354	0.8389	0.3236	-0.364
Mof_F 	F 	0.1461	0.6479	0.1641	-0.359
Mof_F 	F 	0.9108	0.6219	0.2574	-0.322
Mof_Nd	Nd	0.49075	0.78473	0.9958	2.673
Mof_C 	C 	0.5	0.3731	0.1349	0.675
Mof_C 	C 	0.4991	0.4392	0.0698	-0.287
Mof_C 	C 	0.6151	0.4701	0.0562	0.304
Mof_C 	C 	0.3835	0.4698	0.0072	0.315
Mof_C 	C 	0.0898	0.2917	0.2206	0.299
Mof_C 	C 	0.1352	0.2295	0.2138	-0.264
Mof_C 	C 	0.052	0.1822	0.2486	0.325
Mof_C 	C 	0.9293	0.1958	0.293	0.292
Mof_C 	C 	0.885	0.2567	0.3049	-0.246
Mof_C 	C 	0.9694	0.305	0.2667	0.296
Mof_C 	C 	0.7515	0.272	0.357	0.551
Mof_C 	C 	0.2685	0.2163	0.1598	0.572
Mof_O 	O 	0.7453	0.3103	0.4694	-0.47
Mof_O 	O 	0.6506	0.2423	0.283	-0.696
Mof_O 	O 	0.5128	0.3304	0.0297	-0.589
Mof_O 	O 	0.4884	0.3667	0.2914	-0.572
Mof_O 	O 	0.3703	0.2405	0.2466	-0.709
Mof_O 	O 	0.2755	0.1842	0.0339	-0.476
Mof_F 	F 	0.2678	0.4413	0.0164	-0.324
Mof_F 	F 	0.7309	0.441	0.1127	-0.33
Mof_F 	F 	0.9312	0.3648	0.2725	-0.318
Mof_F 	F 	0.1646	0.3389	0.1764	-0.366
Mof_F 	F 	0.8539	0.1479	0.3359	-0.361
Mof_F 	F 	0.0892	0.1219	0.2426	-0.323
Mof_Nd	Nd	0.50925	0.28473	0.5042	2.694
_end
