# CIF file generated by openbabel 3.1.0, see https://openbabel.org
data_I
_chemical_name_common 'image0'
_cell_length_a 26.742
_cell_length_b 26.742
_cell_length_c 5.1504
_cell_angle_alpha 90
_cell_angle_beta 90
_cell_angle_gamma 90
_space_group_name_H-M_alt 'P 1'
_space_group_name_Hall 'P 1'
loop_
    _symmetry_equiv_pos_as_xyz
    x,y,z
loop_
    _atom_site_label
    _atom_site_type_symbol
    _atom_site_fract_x
    _atom_site_fract_y
    _atom_site_fract_z
    _atom_site_occupancy
    Zn1      Zn       0.72947    0.28654    0.79226    1.000
    O1       O        0.78008    0.24716    0.61770    1.000
    C1       C        0.73597    0.39578    0.67410    1.000
    H1       H        0.71060    0.39270    0.54600    1.000
    O2       O        0.72123    0.66856    0.42030    1.000
    N1       N        0.75236    0.35822    0.81220    1.000
    C2       C        0.78961    0.37759    0.97770    1.000
    N2       N        0.75896    0.43994    0.73250    1.000
    C3       C        0.81692    0.35445    0.16510    1.000
    H2       H        0.81240    0.31990    0.20210    1.000
    C4       C        0.85222    0.38336    0.30290    1.000
    C5       C        0.88182    0.36224    0.50540    1.000
    H3       H        0.87800    0.32780    0.54700    1.000
    C6       C        0.91559    0.39048    0.64110    1.000
    H4       H        0.93460    0.37590    0.77720    1.000
    C7       C        0.92202    0.44205    0.57640    1.000
    H5       H        0.94570    0.46160    0.66950    1.000
    C8       C        0.89505    0.46332    0.38550    1.000
    H6       H        0.90050    0.49750    0.34400    1.000
    C9       C        0.85818    0.43561    0.24330    1.000
    C10      C        0.82871    0.45871    0.05330    1.000
    H7       H        0.83230    0.49320    0.01430    1.000
    C11      C        0.79468    0.42969    0.92670    1.000
    C12      C        0.74518    0.48756    0.62810    1.000
    C13      C        0.71761    0.58052    0.43500    1.000
    C14      C        0.70260    0.63023    0.32430    1.000
    O3       O        0.68740    0.63020    0.07580    1.000
    C15      C        0.72860    0.49050    0.38120    1.000
    H8       H        0.72590    0.46100    0.27930    1.000
    C16      C        0.71510    0.53710    0.27330    1.000
    H9       H        0.70470    0.53960    0.09750    1.000
    C17      C        0.73470    0.57770    0.67830    1.000
    H10      H        0.73820    0.60740    0.77800    1.000
    C18      C        0.74760    0.53170    0.78820    1.000
    H11      H        0.75770    0.52950    0.96460    1.000
    O4       O        0.66110    0.63292    0.21450    1.000
    C19      C        0.69530    0.49440    0.56250    1.000
    H12      H        0.67170    0.46810    0.58050    1.000
    C20      C        0.68140    0.54060    0.47040    1.000
    H13      H        0.64730    0.54660    0.42900    1.000
    C21      C        0.76500    0.57180    0.51080    1.000
    H14      H        0.78860    0.59840    0.51020    1.000
    C22      C        0.78020    0.52410    0.59050    1.000
    H15      H        0.81460    0.51710    0.61820    1.000
    Zn2      Zn       0.22947    0.78654    0.29226    1.000
    O5       O        0.28008    0.74716    0.11770    1.000
    C23      C        0.23597    0.89578    0.17410    1.000
    H16      H        0.21060    0.89270    0.04600    1.000
    O6       O        0.22123    0.16856    0.92030    1.000
    N3       N        0.25236    0.85822    0.31220    1.000
    C24      C        0.28961    0.87759    0.47770    1.000
    N4       N        0.25896    0.93994    0.23250    1.000
    C25      C        0.31692    0.85445    0.66510    1.000
    H17      H        0.31240    0.81990    0.70210    1.000
    C26      C        0.35222    0.88336    0.80290    1.000
    C27      C        0.38182    0.86224    0.00540    1.000
    H18      H        0.37800    0.82780    0.04700    1.000
    C28      C        0.41559    0.89048    0.14110    1.000
    H19      H        0.43460    0.87590    0.27720    1.000
    C29      C        0.42202    0.94205    0.07640    1.000
    H20      H        0.44570    0.96160    0.16950    1.000
    C30      C        0.39505    0.96332    0.88550    1.000
    H21      H        0.40050    0.99750    0.84400    1.000
    C31      C        0.35818    0.93561    0.74330    1.000
    C32      C        0.32871    0.95871    0.55330    1.000
    H22      H        0.33230    0.99320    0.51430    1.000
    C33      C        0.29468    0.92969    0.42670    1.000
    C34      C        0.24518    0.98756    0.12810    1.000
    C35      C        0.21761    0.08052    0.93500    1.000
    C36      C        0.20260    0.13023    0.82430    1.000
    O7       O        0.18740    0.13020    0.57580    1.000
    C37      C        0.22860    0.99050    0.88120    1.000
    H23      H        0.22590    0.96100    0.77930    1.000
    C38      C        0.21510    0.03710    0.77330    1.000
    H24      H        0.20470    0.03960    0.59750    1.000
    C39      C        0.23470    0.07770    0.17830    1.000
    H25      H        0.23820    0.10740    0.27800    1.000
    C40      C        0.24760    0.03170    0.28820    1.000
    H26      H        0.25770    0.02950    0.46460    1.000
    O8       O        0.16110    0.13292    0.71450    1.000
    C41      C        0.19530    0.99440    0.06250    1.000
    H27      H        0.17170    0.96810    0.08050    1.000
    C42      C        0.18140    0.04060    0.97040    1.000
    H28      H        0.14730    0.04660    0.92900    1.000
    C43      C        0.26500    0.07180    0.01080    1.000
    H29      H        0.28860    0.09840    0.01020    1.000
    C44      C        0.28020    0.02410    0.09050    1.000
    H30      H        0.31460    0.01710    0.11820    1.000
    Zn3      Zn       0.27053    0.71346    0.79226    1.000
    O9       O        0.21992    0.75284    0.61770    1.000
    C45      C        0.26403    0.60422    0.67410    1.000
    H31      H        0.28940    0.60730    0.54600    1.000
    O10      O        0.27877    0.33144    0.42030    1.000
    N5       N        0.24764    0.64178    0.81220    1.000
    C46      C        0.21039    0.62241    0.97770    1.000
    N6       N        0.24104    0.56006    0.73250    1.000
    C47      C        0.18308    0.64555    0.16510    1.000
    H32      H        0.18760    0.68010    0.20210    1.000
    C48      C        0.14778    0.61664    0.30290    1.000
    C49      C        0.11818    0.63776    0.50540    1.000
    H33      H        0.12200    0.67220    0.54700    1.000
    C50      C        0.08441    0.60952    0.64110    1.000
    H34      H        0.06540    0.62410    0.77720    1.000
    C51      C        0.07798    0.55795    0.57640    1.000
    H35      H        0.05430    0.53840    0.66950    1.000
    C52      C        0.10495    0.53668    0.38550    1.000
    H36      H        0.09950    0.50250    0.34400    1.000
    C53      C        0.14182    0.56439    0.24330    1.000
    C54      C        0.17129    0.54129    0.05330    1.000
    H37      H        0.16770    0.50680    0.01430    1.000
    C55      C        0.20532    0.57031    0.92670    1.000
    C56      C        0.25482    0.51244    0.62810    1.000
    C57      C        0.28239    0.41948    0.43500    1.000
    C58      C        0.29740    0.36977    0.32430    1.000
    O11      O        0.31260    0.36980    0.07580    1.000
    C59      C        0.27140    0.50950    0.38120    1.000
    H38      H        0.27410    0.53900    0.27930    1.000
    C60      C        0.28490    0.46290    0.27330    1.000
    H39      H        0.29530    0.46040    0.09750    1.000
    C61      C        0.26530    0.42230    0.67830    1.000
    H40      H        0.26180    0.39260    0.77800    1.000
    C62      C        0.25240    0.46830    0.78820    1.000
    H41      H        0.24230    0.47050    0.96460    1.000
    O12      O        0.33890    0.36708    0.21450    1.000
    C63      C        0.30470    0.50560    0.56250    1.000
    H42      H        0.32830    0.53190    0.58050    1.000
    C64      C        0.31860    0.45940    0.47040    1.000
    H43      H        0.35270    0.45340    0.42900    1.000
    C65      C        0.23500    0.42820    0.51080    1.000
    H44      H        0.21140    0.40160    0.51020    1.000
    C66      C        0.21980    0.47590    0.59050    1.000
    H45      H        0.18540    0.48290    0.61820    1.000
    Zn4      Zn       0.77053    0.21346    0.29226    1.000
    O13      O        0.71992    0.25284    0.11770    1.000
    C67      C        0.76403    0.10422    0.17410    1.000
    H46      H        0.78940    0.10730    0.04600    1.000
    O14      O        0.77877    0.83144    0.92030    1.000
    N7       N        0.74764    0.14178    0.31220    1.000
    C68      C        0.71039    0.12241    0.47770    1.000
    N8       N        0.74104    0.06006    0.23250    1.000
    C69      C        0.68308    0.14555    0.66510    1.000
    H47      H        0.68760    0.18010    0.70210    1.000
    C70      C        0.64778    0.11664    0.80290    1.000
    C71      C        0.61818    0.13776    0.00540    1.000
    H48      H        0.62200    0.17220    0.04700    1.000
    C72      C        0.58441    0.10952    0.14110    1.000
    H49      H        0.56540    0.12410    0.27720    1.000
    C73      C        0.57798    0.05795    0.07640    1.000
    H50      H        0.55430    0.03840    0.16950    1.000
    C74      C        0.60495    0.03668    0.88550    1.000
    H51      H        0.59950    0.00250    0.84400    1.000
    C75      C        0.64182    0.06439    0.74330    1.000
    C76      C        0.67129    0.04129    0.55330    1.000
    H52      H        0.66770    0.00680    0.51430    1.000
    C77      C        0.70532    0.07031    0.42670    1.000
    C78      C        0.75482    0.01244    0.12810    1.000
    C79      C        0.78239    0.91948    0.93500    1.000
    C80      C        0.79740    0.86977    0.82430    1.000
    O15      O        0.81260    0.86980    0.57580    1.000
    C81      C        0.77140    0.00950    0.88120    1.000
    H53      H        0.77410    0.03900    0.77930    1.000
    C82      C        0.78490    0.96290    0.77330    1.000
    H54      H        0.79530    0.96040    0.59750    1.000
    C83      C        0.76530    0.92230    0.17830    1.000
    H55      H        0.76180    0.89260    0.27800    1.000
    C84      C        0.75240    0.96830    0.28820    1.000
    H56      H        0.74230    0.97050    0.46460    1.000
    O16      O        0.83890    0.86708    0.71450    1.000
    C85      C        0.80470    0.00560    0.06250    1.000
    H57      H        0.82830    0.03190    0.08050    1.000
    C86      C        0.81860    0.95940    0.97040    1.000
    H58      H        0.85270    0.95340    0.92900    1.000
    C87      C        0.73500    0.92820    0.01080    1.000
    H59      H        0.71140    0.90160    0.01020    1.000
    C88      C        0.71980    0.97590    0.09050    1.000
    H60      H        0.68540    0.98290    0.11820    1.000
    Zn5      Zn       0.28654    0.27053    0.20774    1.000
    O17      O        0.24716    0.21992    0.38230    1.000
    C89      C        0.39578    0.26403    0.32590    1.000
    H61      H        0.39270    0.28940    0.45400    1.000
    O18      O        0.66856    0.27877    0.57970    1.000
    N9       N        0.35822    0.24764    0.18780    1.000
    C90      C        0.37759    0.21039    0.02230    1.000
    N10      N        0.43994    0.24104    0.26750    1.000
    C91      C        0.35445    0.18308    0.83490    1.000
    H62      H        0.31990    0.18760    0.79790    1.000
    C92      C        0.38336    0.14778    0.69710    1.000
    C93      C        0.36224    0.11818    0.49460    1.000
    H63      H        0.32780    0.12200    0.45300    1.000
    C94      C        0.39048    0.08441    0.35890    1.000
    H64      H        0.37590    0.06540    0.22280    1.000
    C95      C        0.44205    0.07798    0.42360    1.000
    H65      H        0.46160    0.05430    0.33050    1.000
    C96      C        0.46332    0.10495    0.61450    1.000
    H66      H        0.49750    0.09950    0.65600    1.000
    C97      C        0.43561    0.14182    0.75670    1.000
    C98      C        0.45871    0.17129    0.94670    1.000
    H67      H        0.49320    0.16770    0.98570    1.000
    C99      C        0.42969    0.20532    0.07330    1.000
    C100     C        0.48756    0.25482    0.37190    1.000
    C101     C        0.58052    0.28239    0.56500    1.000
    C102     C        0.63023    0.29740    0.67570    1.000
    O19      O        0.63020    0.31260    0.92420    1.000
    C103     C        0.49050    0.27140    0.61880    1.000
    H68      H        0.46100    0.27410    0.72070    1.000
    C104     C        0.53710    0.28490    0.72670    1.000
    H69      H        0.53960    0.29530    0.90250    1.000
    C105     C        0.57770    0.26530    0.32170    1.000
    H70      H        0.60740    0.26180    0.22200    1.000
    C106     C        0.53170    0.25240    0.21180    1.000
    H71      H        0.52950    0.24230    0.03540    1.000
    O20      O        0.63292    0.33890    0.78550    1.000
    C107     C        0.49440    0.30470    0.43750    1.000
    H72      H        0.46810    0.32830    0.41950    1.000
    C108     C        0.54060    0.31860    0.52960    1.000
    H73      H        0.54660    0.35270    0.57100    1.000
    C109     C        0.57180    0.23500    0.48920    1.000
    H74      H        0.59840    0.21140    0.48980    1.000
    C110     C        0.52410    0.21980    0.40950    1.000
    H75      H        0.51710    0.18540    0.38180    1.000
    Zn6      Zn       0.78654    0.77053    0.70774    1.000
    O21      O        0.74716    0.71992    0.88230    1.000
    C111     C        0.89578    0.76403    0.82590    1.000
    H76      H        0.89270    0.78940    0.95400    1.000
    O22      O        0.16856    0.77877    0.07970    1.000
    N11      N        0.85822    0.74764    0.68780    1.000
    C112     C        0.87759    0.71039    0.52230    1.000
    N12      N        0.93994    0.74104    0.76750    1.000
    C113     C        0.85445    0.68308    0.33490    1.000
    H77      H        0.81990    0.68760    0.29790    1.000
    C114     C        0.88336    0.64778    0.19710    1.000
    C115     C        0.86224    0.61818    0.99460    1.000
    H78      H        0.82780    0.62200    0.95300    1.000
    C116     C        0.89048    0.58441    0.85890    1.000
    H79      H        0.87590    0.56540    0.72280    1.000
    C117     C        0.94205    0.57798    0.92360    1.000
    H80      H        0.96160    0.55430    0.83050    1.000
    C118     C        0.96332    0.60495    0.11450    1.000
    H81      H        0.99750    0.59950    0.15600    1.000
    C119     C        0.93561    0.64182    0.25670    1.000
    C120     C        0.95871    0.67129    0.44670    1.000
    H82      H        0.99320    0.66770    0.48570    1.000
    C121     C        0.92969    0.70532    0.57330    1.000
    C122     C        0.98756    0.75482    0.87190    1.000
    C123     C        0.08052    0.78239    0.06500    1.000
    C124     C        0.13023    0.79740    0.17570    1.000
    O23      O        0.13020    0.81260    0.42420    1.000
    C125     C        0.99050    0.77140    0.11880    1.000
    H83      H        0.96100    0.77410    0.22070    1.000
    C126     C        0.03710    0.78490    0.22670    1.000
    H84      H        0.03960    0.79530    0.40250    1.000
    C127     C        0.07770    0.76530    0.82170    1.000
    H85      H        0.10740    0.76180    0.72200    1.000
    C128     C        0.03170    0.75240    0.71180    1.000
    H86      H        0.02950    0.74230    0.53540    1.000
    O24      O        0.13292    0.83890    0.28550    1.000
    C129     C        0.99440    0.80470    0.93750    1.000
    H87      H        0.96810    0.82830    0.91950    1.000
    C130     C        0.04060    0.81860    0.02960    1.000
    H88      H        0.04660    0.85270    0.07100    1.000
    C131     C        0.07180    0.73500    0.98920    1.000
    H89      H        0.09840    0.71140    0.98980    1.000
    C132     C        0.02410    0.71980    0.90950    1.000
    H90      H        0.01710    0.68540    0.88180    1.000
    Zn7      Zn       0.71346    0.72947    0.20774    1.000
    O25      O        0.75284    0.78008    0.38230    1.000
    C133     C        0.60422    0.73597    0.32590    1.000
    H91      H        0.60730    0.71060    0.45400    1.000
    O26      O        0.33144    0.72123    0.57970    1.000
    N13      N        0.64178    0.75236    0.18780    1.000
    C134     C        0.62241    0.78961    0.02230    1.000
    N14      N        0.56006    0.75896    0.26750    1.000
    C135     C        0.64555    0.81692    0.83490    1.000
    H92      H        0.68010    0.81240    0.79790    1.000
    C136     C        0.61664    0.85222    0.69710    1.000
    C137     C        0.63776    0.88182    0.49460    1.000
    H93      H        0.67220    0.87800    0.45300    1.000
    C138     C        0.60952    0.91559    0.35890    1.000
    H94      H        0.62410    0.93460    0.22280    1.000
    C139     C        0.55795    0.92202    0.42360    1.000
    H95      H        0.53840    0.94570    0.33050    1.000
    C140     C        0.53668    0.89505    0.61450    1.000
    H96      H        0.50250    0.90050    0.65600    1.000
    C141     C        0.56439    0.85818    0.75670    1.000
    C142     C        0.54129    0.82871    0.94670    1.000
    H97      H        0.50680    0.83230    0.98570    1.000
    C143     C        0.57031    0.79468    0.07330    1.000
    C144     C        0.51244    0.74518    0.37190    1.000
    C145     C        0.41948    0.71761    0.56500    1.000
    C146     C        0.36977    0.70260    0.67570    1.000
    O27      O        0.36980    0.68740    0.92420    1.000
    C147     C        0.50950    0.72860    0.61880    1.000
    H98      H        0.53900    0.72590    0.72070    1.000
    C148     C        0.46290    0.71510    0.72670    1.000
    H99      H        0.46040    0.70470    0.90250    1.000
    C149     C        0.42230    0.73470    0.32170    1.000
    H100     H        0.39260    0.73820    0.22200    1.000
    C150     C        0.46830    0.74760    0.21180    1.000
    H101     H        0.47050    0.75770    0.03540    1.000
    O28      O        0.36708    0.66110    0.78550    1.000
    C151     C        0.50560    0.69530    0.43750    1.000
    H102     H        0.53190    0.67170    0.41950    1.000
    C152     C        0.45940    0.68140    0.52960    1.000
    H103     H        0.45340    0.64730    0.57100    1.000
    C153     C        0.42820    0.76500    0.48920    1.000
    H104     H        0.40160    0.78860    0.48980    1.000
    C154     C        0.47590    0.78020    0.40950    1.000
    H105     H        0.48290    0.81460    0.38180    1.000
    Zn8      Zn       0.21346    0.22947    0.70774    1.000
    O29      O        0.25284    0.28008    0.88230    1.000
    C155     C        0.10422    0.23597    0.82590    1.000
    H106     H        0.10730    0.21060    0.95400    1.000
    O30      O        0.83144    0.22123    0.07970    1.000
    N15      N        0.14178    0.25236    0.68780    1.000
    C156     C        0.12241    0.28961    0.52230    1.000
    N16      N        0.06006    0.25896    0.76750    1.000
    C157     C        0.14555    0.31692    0.33490    1.000
    H107     H        0.18010    0.31240    0.29790    1.000
    C158     C        0.11664    0.35222    0.19710    1.000
    C159     C        0.13776    0.38182    0.99460    1.000
    H108     H        0.17220    0.37800    0.95300    1.000
    C160     C        0.10952    0.41559    0.85890    1.000
    H109     H        0.12410    0.43460    0.72280    1.000
    C161     C        0.05795    0.42202    0.92360    1.000
    H110     H        0.03840    0.44570    0.83050    1.000
    C162     C        0.03668    0.39505    0.11450    1.000
    H111     H        0.00250    0.40050    0.15600    1.000
    C163     C        0.06439    0.35818    0.25670    1.000
    C164     C        0.04129    0.32871    0.44670    1.000
    H112     H        0.00680    0.33230    0.48570    1.000
    C165     C        0.07031    0.29468    0.57330    1.000
    C166     C        0.01244    0.24518    0.87190    1.000
    C167     C        0.91948    0.21761    0.06500    1.000
    C168     C        0.86977    0.20260    0.17570    1.000
    O31      O        0.86980    0.18740    0.42420    1.000
    C169     C        0.00950    0.22860    0.11880    1.000
    H113     H        0.03900    0.22590    0.22070    1.000
    C170     C        0.96290    0.21510    0.22670    1.000
    H114     H        0.96040    0.20470    0.40250    1.000
    C171     C        0.92230    0.23470    0.82170    1.000
    H115     H        0.89260    0.23820    0.72200    1.000
    C172     C        0.96830    0.24760    0.71180    1.000
    H116     H        0.97050    0.25770    0.53540    1.000
    O32      O        0.86708    0.16110    0.28550    1.000
    C173     C        0.00560    0.19530    0.93750    1.000
    H117     H        0.03190    0.17170    0.91950    1.000
    C174     C        0.95940    0.18140    0.02960    1.000
    H118     H        0.95340    0.14730    0.07100    1.000
    C175     C        0.92820    0.26500    0.98920    1.000
    H119     H        0.90160    0.28860    0.98980    1.000
    C176     C        0.97590    0.28020    0.90950    1.000
    H120     H        0.98290    0.31460    0.88180    1.000
