data_functionalizedCrystal
_audit_creation_method	'EQeq! by Chris Wilmer'
_symmetry_space_group_name_H-M	'P1'
_symmetry_Int_Tables_number	1
_symmetry_cell_setting	triclinic
loop_
_symmetry_equiv_pos_as_xyz
  x,y,z
_cell_length_a	27.6817
_cell_length_b	10.2694
_cell_length_c	20.6356
_cell_angle_alpha	90
_cell_angle_beta	123.241
_cell_angle_gamma	90
loop_
_atom_site_label
_atom_site_type_symbol
_atom_site_fract_x
_atom_site_fract_y
_atom_site_fract_z
_atom_site_charge
Mof_Cd	Cd	0.82489	0.79745	0.54825	0.469
Mof_Cd	Cd	0.95707	0.9783	0.63539	0.401
Mof_O 	O 	0.90568	0.7911	0.5406	-0.284
Mof_O 	O 	0.73838	0.151	0.04436	-0.291
Mof_O 	O 	0.70076	0.4654	0.02978	-0.284
Mof_N 	N 	0.92844	0.8847	0.71203	-0.077
Mof_O 	O 	0.6645	0.0642	0.93786	-0.255
Mof_N 	N 	0.95504	0.878	0.78883	-0.114
Mof_O 	O 	0.94788	0.9539	0.52036	-0.277
Mof_N 	N 	0.8791	0.8176	0.67614	-0.112
Mof_O 	O 	0.63171	0.5812	0.92985	-0.289
Mof_C 	C 	0.87331	0.7649	0.73193	0.077
Mof_C 	C 	0.76169	0.9154	0.12435	-0.03
Mof_H 	H 	0.7807	0.9907	0.1514	0.055
Mof_C 	C 	0.81513	0.7975	0.25007	0.071
Mof_C 	C 	0.72126	0.923	0.04529	-0.057
Mof_C 	C 	0.91463	0.8566	0.49614	0.308
Mof_C 	C 	0.69223	0.8118	0.00395	0.001
Mof_H 	H 	0.6644	0.8168	0.9511	0.058
Mof_C 	C 	0.77457	0.7984	0.16434	-0.012
Mof_C 	C 	0.70719	0.0525	0.00559	0.287
Mof_C 	C 	0.70505	0.6936	0.04203	-0.06
Mof_C 	C 	0.74589	0.687	0.12162	-0.026
Mof_H 	H 	0.7542	0.6069	0.1467	0.056
Mof_C 	C 	0.67616	0.571	0.99676	0.308
Mof_C 	C 	0.9215	0.8029	0.80328	0.064
Mof_C 	C 	0.80615	0.7199	0.2972	-0.12
Mof_H 	H 	0.7768	0.6582	0.2748	0.077
Mof_C 	C 	0.92737	0.766	0.8735	-0.084
Mof_H 	H 	0.959	0.7917	0.9215	0.081
Mof_C 	C 	0.83996	0.7321	0.3772	0.041
Mof_H 	H 	0.8333	0.6785	0.4078	0.035
Mof_C 	C 	0.88386	0.8244	0.41169	-0.096
Mof_C 	C 	0.89558	0.8963	0.36477	0.039
Mof_H 	H 	0.9264	0.9544	0.3872	0.037
Mof_C 	C 	0.86199	0.8825	0.28516	-0.122
Mof_H 	H 	0.8708	0.9305	0.2547	0.084
Mof_C 	C 	0.83019	0.6856	0.7268	-0.102
Mof_H 	H 	0.7986	0.658	0.6793	0.087
Mof_C 	C 	0.83686	0.651	0.7947	-0.008
Mof_H 	H 	0.8089	0.5985	0.7932	0.038
Mof_C 	C 	0.88442	0.6912	0.8674	-0.026
Mof_H 	H 	0.8865	0.6661	0.9121	0.05
Mof_Cd	Cd	0.32489	0.29745	0.54825	0.469
Mof_Cd	Cd	0.45707	0.4783	0.63539	0.401
Mof_O 	O 	0.40568	0.2911	0.5406	-0.283
Mof_O 	O 	0.23838	0.651	0.04436	-0.291
Mof_O 	O 	0.20076	0.9654	0.02978	-0.284
Mof_N 	N 	0.42844	0.3847	0.71203	-0.077
Mof_O 	O 	0.1645	0.5642	0.93786	-0.256
Mof_N 	N 	0.45504	0.378	0.78883	-0.114
Mof_O 	O 	0.44788	0.4539	0.52036	-0.277
Mof_N 	N 	0.3791	0.3176	0.67614	-0.112
Mof_O 	O 	0.13171	0.0812	0.92985	-0.289
Mof_C 	C 	0.37331	0.2649	0.73193	0.077
Mof_C 	C 	0.26169	0.4154	0.12435	-0.03
Mof_H 	H 	0.2807	0.4907	0.1514	0.055
Mof_C 	C 	0.31513	0.2975	0.25007	0.071
Mof_C 	C 	0.22126	0.423	0.04529	-0.057
Mof_C 	C 	0.41463	0.3566	0.49614	0.308
Mof_C 	C 	0.19223	0.3118	0.00395	-0.002
Mof_H 	H 	0.1644	0.3168	0.9511	0.061
Mof_C 	C 	0.27457	0.2984	0.16434	-0.013
Mof_C 	C 	0.20719	0.5525	0.00559	0.288
Mof_C 	C 	0.20505	0.1936	0.04203	-0.062
Mof_C 	C 	0.24589	0.187	0.12162	-0.025
Mof_H 	H 	0.2542	0.1069	0.1467	0.056
Mof_C 	C 	0.17616	0.071	0.99676	0.311
Mof_C 	C 	0.4215	0.3029	0.80328	0.064
Mof_C 	C 	0.30615	0.2199	0.2972	-0.12
Mof_H 	H 	0.2768	0.1582	0.2748	0.077
Mof_C 	C 	0.42737	0.266	0.8735	-0.084
Mof_H 	H 	0.459	0.2917	0.9215	0.081
Mof_C 	C 	0.33996	0.2321	0.3772	0.041
Mof_H 	H 	0.3333	0.1785	0.4078	0.035
Mof_C 	C 	0.38386	0.3244	0.41169	-0.096
Mof_C 	C 	0.39558	0.3963	0.36477	0.039
Mof_H 	H 	0.4264	0.4544	0.3872	0.037
Mof_C 	C 	0.36199	0.3825	0.28516	-0.122
Mof_H 	H 	0.3708	0.4305	0.2547	0.084
Mof_C 	C 	0.33019	0.1856	0.7268	-0.102
Mof_H 	H 	0.2986	0.158	0.6793	0.087
Mof_C 	C 	0.33686	0.151	0.7947	-0.008
Mof_H 	H 	0.3089	0.0985	0.7932	0.038
Mof_C 	C 	0.38442	0.1912	0.8674	-0.026
Mof_H 	H 	0.3865	0.1661	0.9121	0.051
Mof_Cd	Cd	0.17511	0.79745	0.95175	0.469
Mof_Cd	Cd	0.04293	0.9783	0.86461	0.401
Mof_O 	O 	0.09432	0.7911	0.9594	-0.283
Mof_O 	O 	0.26162	0.151	0.45564	-0.291
Mof_O 	O 	0.29924	0.4654	0.47022	-0.284
Mof_N 	N 	0.07156	0.8847	0.78797	-0.077
Mof_O 	O 	0.3355	0.0642	0.56214	-0.256
Mof_N 	N 	0.04496	0.878	0.71117	-0.114
Mof_O 	O 	0.05212	0.9539	0.97964	-0.277
Mof_N 	N 	0.1209	0.8176	0.82386	-0.112
Mof_O 	O 	0.36829	0.5812	0.57015	-0.289
Mof_C 	C 	0.12669	0.7649	0.76807	0.077
Mof_C 	C 	0.23831	0.9154	0.37565	-0.03
Mof_H 	H 	0.2193	0.9907	0.3486	0.055
Mof_C 	C 	0.18487	0.7975	0.24993	0.071
Mof_C 	C 	0.27874	0.923	0.45471	-0.058
Mof_C 	C 	0.08537	0.8566	0.00386	0.309
Mof_C 	C 	0.30777	0.8118	0.49605	-0.001
Mof_H 	H 	0.3356	0.8168	0.5489	0.06
Mof_C 	C 	0.22543	0.7984	0.33566	-0.012
Mof_C 	C 	0.29281	0.0525	0.49441	0.289
Mof_C 	C 	0.29495	0.6936	0.45797	-0.06
Mof_C 	C 	0.25411	0.687	0.37838	-0.026
Mof_H 	H 	0.2458	0.6069	0.3533	0.056
Mof_C 	C 	0.32384	0.571	0.50324	0.309
Mof_C 	C 	0.0785	0.8029	0.69672	0.064
Mof_C 	C 	0.19385	0.7199	0.2028	-0.12
Mof_H 	H 	0.2232	0.6582	0.2252	0.077
Mof_C 	C 	0.07263	0.766	0.6265	-0.084
Mof_H 	H 	0.041	0.7917	0.5785	0.081
Mof_C 	C 	0.16004	0.7321	0.1228	0.041
Mof_H 	H 	0.1667	0.6785	0.0922	0.035
Mof_C 	C 	0.11614	0.8244	0.08831	-0.096
Mof_C 	C 	0.10442	0.8963	0.13523	0.04
Mof_H 	H 	0.0736	0.9544	0.1128	0.037
Mof_C 	C 	0.13801	0.8825	0.21484	-0.122
Mof_H 	H 	0.1292	0.9305	0.2453	0.084
Mof_C 	C 	0.16981	0.6856	0.7732	-0.102
Mof_H 	H 	0.2014	0.658	0.8207	0.087
Mof_C 	C 	0.16314	0.651	0.7053	-0.008
Mof_H 	H 	0.1911	0.5985	0.7068	0.038
Mof_C 	C 	0.11558	0.6912	0.6326	-0.026
Mof_H 	H 	0.1135	0.6661	0.5879	0.05
Mof_Cd	Cd	0.67511	0.29745	0.95175	0.469
Mof_Cd	Cd	0.54293	0.4783	0.86461	0.401
Mof_O 	O 	0.59432	0.2911	0.9594	-0.283
Mof_O 	O 	0.76162	0.651	0.45564	-0.291
Mof_O 	O 	0.79924	0.9654	0.47022	-0.284
Mof_N 	N 	0.57156	0.3847	0.78797	-0.077
Mof_O 	O 	0.8355	0.5642	0.56214	-0.256
Mof_N 	N 	0.54496	0.378	0.71117	-0.114
Mof_O 	O 	0.55212	0.4539	0.97964	-0.277
Mof_N 	N 	0.6209	0.3176	0.82386	-0.112
Mof_O 	O 	0.86829	0.0812	0.57015	-0.289
Mof_C 	C 	0.62669	0.2649	0.76807	0.077
Mof_C 	C 	0.73831	0.4154	0.37565	-0.03
Mof_H 	H 	0.7193	0.4907	0.3486	0.054
Mof_C 	C 	0.68487	0.2975	0.24993	0.071
Mof_C 	C 	0.77874	0.423	0.45471	-0.058
Mof_C 	C 	0.58537	0.3566	0.00386	0.308
Mof_C 	C 	0.80777	0.3118	0.49605	-0.001
Mof_H 	H 	0.8356	0.3168	0.5489	0.06
Mof_C 	C 	0.72543	0.2984	0.33566	-0.012
Mof_C 	C 	0.79281	0.5525	0.49441	0.289
Mof_C 	C 	0.79495	0.1936	0.45797	-0.06
Mof_C 	C 	0.75411	0.187	0.37838	-0.026
Mof_H 	H 	0.7458	0.1069	0.3533	0.056
Mof_C 	C 	0.82384	0.071	0.50324	0.309
Mof_C 	C 	0.5785	0.3029	0.69672	0.064
Mof_C 	C 	0.69385	0.2199	0.2028	-0.12
Mof_H 	H 	0.7232	0.1582	0.2252	0.077
Mof_C 	C 	0.57263	0.266	0.6265	-0.084
Mof_H 	H 	0.541	0.2917	0.5785	0.081
Mof_C 	C 	0.66004	0.2321	0.1228	0.041
Mof_H 	H 	0.6667	0.1785	0.0922	0.034
Mof_C 	C 	0.61614	0.3244	0.08831	-0.096
Mof_C 	C 	0.60442	0.3963	0.13523	0.039
Mof_H 	H 	0.5736	0.4544	0.1128	0.037
Mof_C 	C 	0.63801	0.3825	0.21484	-0.122
Mof_H 	H 	0.6292	0.4305	0.2453	0.084
Mof_C 	C 	0.66981	0.1856	0.7732	-0.102
Mof_H 	H 	0.7014	0.158	0.8207	0.087
Mof_C 	C 	0.66314	0.151	0.7053	-0.008
Mof_H 	H 	0.6911	0.0985	0.7068	0.038
Mof_C 	C 	0.61558	0.1912	0.6326	-0.026
Mof_H 	H 	0.6135	0.1661	0.5879	0.051
Mof_Cd	Cd	0.17511	0.20255	0.45175	0.469
Mof_Cd	Cd	0.04293	0.0217	0.36461	0.401
Mof_O 	O 	0.09432	0.2089	0.4594	-0.284
Mof_O 	O 	0.26162	0.849	0.95564	-0.291
Mof_O 	O 	0.29924	0.5346	0.97022	-0.284
Mof_N 	N 	0.07156	0.1153	0.28797	-0.077
Mof_O 	O 	0.3355	0.9358	0.06214	-0.255
Mof_N 	N 	0.04496	0.122	0.21117	-0.114
Mof_O 	O 	0.05212	0.0461	0.47964	-0.277
Mof_N 	N 	0.1209	0.1824	0.32386	-0.112
Mof_O 	O 	0.36829	0.4188	0.07015	-0.289
Mof_C 	C 	0.12669	0.2351	0.26807	0.077
Mof_C 	C 	0.23831	0.0846	0.87565	-0.03
Mof_H 	H 	0.2193	0.0093	0.8486	0.055
Mof_C 	C 	0.18487	0.2025	0.74993	0.071
Mof_C 	C 	0.27874	0.077	0.95471	-0.057
Mof_C 	C 	0.08537	0.1434	0.50386	0.308
Mof_C 	C 	0.30777	0.1882	0.99605	0.001
Mof_H 	H 	0.3356	0.1832	0.0489	0.058
Mof_C 	C 	0.22543	0.2016	0.83566	-0.012
Mof_C 	C 	0.29281	0.9475	0.99441	0.287
Mof_C 	C 	0.29495	0.3064	0.95797	-0.06
Mof_C 	C 	0.25411	0.313	0.87838	-0.026
Mof_H 	H 	0.2458	0.3931	0.8533	0.056
Mof_C 	C 	0.32384	0.429	0.00324	0.308
Mof_C 	C 	0.0785	0.1971	0.19672	0.064
Mof_C 	C 	0.19385	0.2801	0.7028	-0.12
Mof_H 	H 	0.2232	0.3418	0.7252	0.077
Mof_C 	C 	0.07263	0.234	0.1265	-0.084
Mof_H 	H 	0.041	0.2083	0.0785	0.081
Mof_C 	C 	0.16004	0.2679	0.6228	0.041
Mof_H 	H 	0.1667	0.3215	0.5922	0.035
Mof_C 	C 	0.11614	0.1756	0.58831	-0.096
Mof_C 	C 	0.10442	0.1037	0.63523	0.039
Mof_H 	H 	0.0736	0.0456	0.6128	0.037
Mof_C 	C 	0.13801	0.1175	0.71484	-0.122
Mof_H 	H 	0.1292	0.0695	0.7453	0.084
Mof_C 	C 	0.16981	0.3144	0.2732	-0.102
Mof_H 	H 	0.2014	0.342	0.3207	0.087
Mof_C 	C 	0.16314	0.349	0.2053	-0.008
Mof_H 	H 	0.1911	0.4015	0.2068	0.038
Mof_C 	C 	0.11558	0.3088	0.1326	-0.026
Mof_H 	H 	0.1135	0.3339	0.0879	0.05
Mof_Cd	Cd	0.67511	0.70255	0.45175	0.469
Mof_Cd	Cd	0.54293	0.5217	0.36461	0.401
Mof_O 	O 	0.59432	0.7089	0.4594	-0.283
Mof_O 	O 	0.76162	0.349	0.95564	-0.291
Mof_O 	O 	0.79924	0.0346	0.97022	-0.284
Mof_N 	N 	0.57156	0.6153	0.28797	-0.077
Mof_O 	O 	0.8355	0.4358	0.06214	-0.256
Mof_N 	N 	0.54496	0.622	0.21117	-0.114
Mof_O 	O 	0.55212	0.5461	0.47964	-0.277
Mof_N 	N 	0.6209	0.6824	0.32386	-0.112
Mof_O 	O 	0.86829	0.9188	0.07015	-0.289
Mof_C 	C 	0.62669	0.7351	0.26807	0.077
Mof_C 	C 	0.73831	0.5846	0.87565	-0.03
Mof_H 	H 	0.7193	0.5093	0.8486	0.055
Mof_C 	C 	0.68487	0.7025	0.74993	0.071
Mof_C 	C 	0.77874	0.577	0.95471	-0.057
Mof_C 	C 	0.58537	0.6434	0.50386	0.308
Mof_C 	C 	0.80777	0.6882	0.99605	-0.002
Mof_H 	H 	0.8356	0.6832	0.0489	0.061
Mof_C 	C 	0.72543	0.7016	0.83566	-0.013
Mof_C 	C 	0.79281	0.4475	0.99441	0.288
Mof_C 	C 	0.79495	0.8064	0.95797	-0.062
Mof_C 	C 	0.75411	0.813	0.87838	-0.025
Mof_H 	H 	0.7458	0.8931	0.8533	0.056
Mof_C 	C 	0.82384	0.929	0.00324	0.311
Mof_C 	C 	0.5785	0.6971	0.19672	0.064
Mof_C 	C 	0.69385	0.7801	0.7028	-0.12
Mof_H 	H 	0.7232	0.8418	0.7252	0.077
Mof_C 	C 	0.57263	0.734	0.1265	-0.084
Mof_H 	H 	0.541	0.7083	0.0785	0.081
Mof_C 	C 	0.66004	0.7679	0.6228	0.041
Mof_H 	H 	0.6667	0.8215	0.5922	0.035
Mof_C 	C 	0.61614	0.6756	0.58831	-0.096
Mof_C 	C 	0.60442	0.6037	0.63523	0.039
Mof_H 	H 	0.5736	0.5456	0.6128	0.037
Mof_C 	C 	0.63801	0.6175	0.71484	-0.122
Mof_H 	H 	0.6292	0.5695	0.7453	0.084
Mof_C 	C 	0.66981	0.8144	0.2732	-0.102
Mof_H 	H 	0.7014	0.842	0.3207	0.087
Mof_C 	C 	0.66314	0.849	0.2053	-0.008
Mof_H 	H 	0.6911	0.9015	0.2068	0.038
Mof_C 	C 	0.61558	0.8088	0.1326	-0.026
Mof_H 	H 	0.6135	0.8339	0.0879	0.051
Mof_Cd	Cd	0.82489	0.20255	0.04825	0.469
Mof_Cd	Cd	0.95707	0.0217	0.13539	0.401
Mof_O 	O 	0.90568	0.2089	0.0406	-0.283
Mof_O 	O 	0.73838	0.849	0.54436	-0.291
Mof_O 	O 	0.70076	0.5346	0.52978	-0.284
Mof_N 	N 	0.92844	0.1153	0.21203	-0.077
Mof_O 	O 	0.6645	0.9358	0.43786	-0.256
Mof_N 	N 	0.95504	0.122	0.28883	-0.114
Mof_O 	O 	0.94788	0.0461	0.02036	-0.277
Mof_N 	N 	0.8791	0.1824	0.17614	-0.112
Mof_O 	O 	0.63171	0.4188	0.42985	-0.289
Mof_C 	C 	0.87331	0.2351	0.23193	0.077
Mof_C 	C 	0.76169	0.0846	0.62435	-0.03
Mof_H 	H 	0.7807	0.0093	0.6514	0.055
Mof_C 	C 	0.81513	0.2025	0.75007	0.071
Mof_C 	C 	0.72126	0.077	0.54529	-0.058
Mof_C 	C 	0.91463	0.1434	0.99614	0.309
Mof_C 	C 	0.69223	0.1882	0.50395	-0.001
Mof_H 	H 	0.6644	0.1832	0.4511	0.06
Mof_C 	C 	0.77457	0.2016	0.66434	-0.012
Mof_C 	C 	0.70719	0.9475	0.50559	0.289
Mof_C 	C 	0.70505	0.3064	0.54203	-0.06
Mof_C 	C 	0.74589	0.313	0.62162	-0.026
Mof_H 	H 	0.7542	0.3931	0.6467	0.056
Mof_C 	C 	0.67616	0.429	0.49676	0.309
Mof_C 	C 	0.9215	0.1971	0.30328	0.064
Mof_C 	C 	0.80615	0.2801	0.7972	-0.12
Mof_H 	H 	0.7768	0.3418	0.7748	0.077
Mof_C 	C 	0.92737	0.234	0.3735	-0.084
Mof_H 	H 	0.959	0.2083	0.4215	0.081
Mof_C 	C 	0.83996	0.2679	0.8772	0.041
Mof_H 	H 	0.8333	0.3215	0.9078	0.035
Mof_C 	C 	0.88386	0.1756	0.91169	-0.096
Mof_C 	C 	0.89558	0.1037	0.86477	0.04
Mof_H 	H 	0.9264	0.0456	0.8872	0.037
Mof_C 	C 	0.86199	0.1175	0.78516	-0.122
Mof_H 	H 	0.8708	0.0695	0.7547	0.084
Mof_C 	C 	0.83019	0.3144	0.2268	-0.102
Mof_H 	H 	0.7986	0.342	0.1793	0.087
Mof_C 	C 	0.83686	0.349	0.2947	-0.008
Mof_H 	H 	0.8089	0.4015	0.2932	0.038
Mof_C 	C 	0.88442	0.3088	0.3674	-0.026
Mof_H 	H 	0.8865	0.3339	0.4121	0.05
Mof_Cd	Cd	0.32489	0.70255	0.04825	0.469
Mof_Cd	Cd	0.45707	0.5217	0.13539	0.401
Mof_O 	O 	0.40568	0.7089	0.0406	-0.283
Mof_O 	O 	0.23838	0.349	0.54436	-0.291
Mof_O 	O 	0.20076	0.0346	0.52978	-0.284
Mof_N 	N 	0.42844	0.6153	0.21203	-0.077
Mof_O 	O 	0.1645	0.4358	0.43786	-0.256
Mof_N 	N 	0.45504	0.622	0.28883	-0.114
Mof_O 	O 	0.44788	0.5461	0.02036	-0.277
Mof_N 	N 	0.3791	0.6824	0.17614	-0.112
Mof_O 	O 	0.13171	0.9188	0.42985	-0.289
Mof_C 	C 	0.37331	0.7351	0.23193	0.077
Mof_C 	C 	0.26169	0.5846	0.62435	-0.03
Mof_H 	H 	0.2807	0.5093	0.6514	0.054
Mof_C 	C 	0.31513	0.7025	0.75007	0.071
Mof_C 	C 	0.22126	0.577	0.54529	-0.058
Mof_C 	C 	0.41463	0.6434	0.99614	0.308
Mof_C 	C 	0.19223	0.6882	0.50395	-0.001
Mof_H 	H 	0.1644	0.6832	0.4511	0.06
Mof_C 	C 	0.27457	0.7016	0.66434	-0.012
Mof_C 	C 	0.20719	0.4475	0.50559	0.289
Mof_C 	C 	0.20505	0.8064	0.54203	-0.06
Mof_C 	C 	0.24589	0.813	0.62162	-0.026
Mof_H 	H 	0.2542	0.8931	0.6467	0.056
Mof_C 	C 	0.17616	0.929	0.49676	0.309
Mof_C 	C 	0.4215	0.6971	0.30328	0.064
Mof_C 	C 	0.30615	0.7801	0.7972	-0.12
Mof_H 	H 	0.2768	0.8418	0.7748	0.077
Mof_C 	C 	0.42737	0.734	0.3735	-0.084
Mof_H 	H 	0.459	0.7083	0.4215	0.081
Mof_C 	C 	0.33996	0.7679	0.8772	0.041
Mof_H 	H 	0.3333	0.8215	0.9078	0.034
Mof_C 	C 	0.38386	0.6756	0.91169	-0.096
Mof_C 	C 	0.39558	0.6037	0.86477	0.039
Mof_H 	H 	0.4264	0.5456	0.8872	0.037
Mof_C 	C 	0.36199	0.6175	0.78516	-0.122
Mof_H 	H 	0.3708	0.5695	0.7547	0.084
Mof_C 	C 	0.33019	0.8144	0.2268	-0.102
Mof_H 	H 	0.2986	0.842	0.1793	0.087
Mof_C 	C 	0.33686	0.849	0.2947	-0.008
Mof_H 	H 	0.3089	0.9015	0.2932	0.038
Mof_C 	C 	0.38442	0.8088	0.3674	-0.026
Mof_H 	H 	0.3865	0.8339	0.4121	0.051
_end
