# CIF file generated by openbabel 3.1.0, see https://openbabel.org
data_I
_chemical_name_common 'image0'
_cell_length_a 5.459
_cell_length_b 18.467
_cell_length_c 11.634
_cell_angle_alpha 90
_cell_angle_beta 94.86
_cell_angle_gamma 90
_space_group_name_H-M_alt 'P 1'
_space_group_name_Hall 'P 1'
loop_
    _symmetry_equiv_pos_as_xyz
    x,y,z
loop_
    _atom_site_label
    _atom_site_type_symbol
    _atom_site_fract_x
    _atom_site_fract_y
    _atom_site_fract_z
    _atom_site_occupancy
    Ag1      Ag       0.20849    0.04623    0.49247    1.000
    C1       C        0.24130    0.88000    0.42660    1.000
    C2       C        0.38840    0.82120    0.37240    1.000
    H1       H        0.42780    0.83660    0.29640    1.000
    H2       H        0.54180    0.81360    0.41930    1.000
    C3       C        0.37800    0.69680    0.29650    1.000
    H3       H        0.55220    0.69730    0.32130    1.000
    H4       H        0.35960    0.70900    0.21510    1.000
    C4       C        0.27690    0.62090    0.31310    1.000
    H5       H        0.39030    0.58600    0.28520    1.000
    H6       H        0.26880    0.61230    0.39500    1.000
    C5       C        0.03300    0.60890    0.25360    1.000
    N1       N        0.25230    0.75255    0.36180    1.000
    H7       H        0.09200    0.76140    0.32390    1.000
    H8       H        0.23130    0.73429    0.43760    1.000
    N2       N        0.84570    0.59740    0.20770    1.000
    O1       O        0.02110    0.86869    0.43410    1.000
    O2       O        0.35820    0.93644    0.45580    1.000
    Ag2      Ag       0.79151    0.95377    0.50753    1.000
    C6       C        0.75870    0.12000    0.57340    1.000
    C7       C        0.61160    0.17880    0.62760    1.000
    H9       H        0.57220    0.16340    0.70360    1.000
    H10      H        0.45820    0.18640    0.58070    1.000
    C8       C        0.62200    0.30320    0.70350    1.000
    H11      H        0.44780    0.30270    0.67870    1.000
    H12      H        0.64040    0.29100    0.78490    1.000
    C9       C        0.72310    0.37910    0.68690    1.000
    H13      H        0.60970    0.41400    0.71480    1.000
    H14      H        0.73120    0.38770    0.60500    1.000
    C10      C        0.96700    0.39110    0.74640    1.000
    N3       N        0.74770    0.24745    0.63820    1.000
    H15      H        0.90800    0.23860    0.67610    1.000
    H16      H        0.76870    0.26571    0.56240    1.000
    N4       N        0.15430    0.40260    0.79230    1.000
    O3       O        0.97890    0.13131    0.56590    1.000
    O4       O        0.64180    0.06356    0.54420    1.000
    C11      C        0.75870    0.38000    0.07340    1.000
    C12      C        0.61160    0.32120    0.12760    1.000
    H17      H        0.57220    0.33660    0.20360    1.000
    H18      H        0.45820    0.31360    0.08070    1.000
    C13      C        0.62200    0.19680    0.20350    1.000
    H19      H        0.44780    0.19730    0.17870    1.000
    H20      H        0.64040    0.20900    0.28490    1.000
    C14      C        0.72310    0.12090    0.18690    1.000
    H21      H        0.60970    0.08600    0.21480    1.000
    H22      H        0.73120    0.11230    0.10500    1.000
    C15      C        0.96700    0.10890    0.24640    1.000
    N5       N        0.74770    0.25255    0.13820    1.000
    H23      H        0.90800    0.26140    0.17610    1.000
    H24      H        0.76870    0.23429    0.06240    1.000
    N6       N        0.15430    0.09740    0.29230    1.000
    O5       O        0.97890    0.36869    0.06590    1.000
    O6       O        0.64180    0.43644    0.04420    1.000
    Ag3      Ag       0.79151    0.54623    0.00753    1.000
    C16      C        0.24130    0.62000    0.92660    1.000
    C17      C        0.38840    0.67880    0.87240    1.000
    H25      H        0.42780    0.66340    0.79640    1.000
    H26      H        0.54180    0.68640    0.91930    1.000
    C18      C        0.37800    0.80320    0.79650    1.000
    H27      H        0.55220    0.80270    0.82130    1.000
    H28      H        0.35960    0.79100    0.71510    1.000
    C19      C        0.27690    0.87910    0.81310    1.000
    H29      H        0.39030    0.91400    0.78520    1.000
    H30      H        0.26880    0.88770    0.89500    1.000
    C20      C        0.03300    0.89110    0.75360    1.000
    N7       N        0.25230    0.74745    0.86180    1.000
    H31      H        0.09200    0.73860    0.82390    1.000
    H32      H        0.23130    0.76571    0.93760    1.000
    N8       N        0.84570    0.90260    0.70770    1.000
    O7       O        0.02110    0.63131    0.93410    1.000
    O8       O        0.35820    0.56356    0.95580    1.000
    Ag4      Ag       0.20849    0.45377    0.99247    1.000
