# CIF file generated by openbabel 3.1.0, see https://openbabel.org
data_I
_chemical_name_common 'image0'
_cell_length_a 34.018
_cell_length_b 34.018
_cell_length_c 15.308
_cell_angle_alpha 90
_cell_angle_beta 90
_cell_angle_gamma 90
_space_group_name_H-M_alt 'P 1'
_space_group_name_Hall 'P 1'
loop_
    _symmetry_equiv_pos_as_xyz
    x,y,z
loop_
    _atom_site_label
    _atom_site_type_symbol
    _atom_site_fract_x
    _atom_site_fract_y
    _atom_site_fract_z
    _atom_site_occupancy
    Cu1      Cu       0.23616    0.23849    0.67480    1.000
    Cu2      Cu       0.99855    0.03431    0.96766    1.000
    I1       I        0.06020    0.98976    0.93468    1.000
    O1       O        0.19884    0.20954    0.74950    1.000
    O2       O        0.22270    0.22863    0.87770    1.000
    C1       C        0.19841    0.21088    0.83090    1.000
    C2       C        0.16544    0.18980    0.87670    1.000
    C3       C        0.13630    0.17189    0.82705    1.000
    H1       H        0.13850    0.17120    0.76520    1.000
    C4       C        0.10393    0.15503    0.86790    1.000
    H2       H        0.08400    0.14280    0.83390    1.000
    C5       C        0.10068    0.15609    0.95830    1.000
    C6       C        0.12982    0.17401    0.00801    1.000
    H3       H        0.12760    0.17470    0.06990    1.000
    C7       C        0.16220    0.19086    0.96720    1.000
    H4       H        0.18210    0.20310    0.00120    1.000
    C8       C        0.06545    0.13946    0.00130    1.000
    C9       C        0.05095    0.10354    0.97230    1.000
    H5       H        0.06440    0.08950    0.92770    1.000
    N1       N        0.01681    0.08815    0.00870    1.000
    C10      C        0.99717    0.10867    0.07390    1.000
    H6       H        0.97380    0.09810    0.09870    1.000
    N2       N        0.01166    0.14458    0.10290    1.000
    C11      C        0.04580    0.15997    0.06660    1.000
    H7       H        0.05570    0.18450    0.08640    1.000
    O3       O        0.27421    0.19558    0.68580    1.000
    O4       O        0.29762    0.21597    0.81340    1.000
    C12      C        0.29775    0.19374    0.74800    1.000
    C13      C        0.32840    0.16230    0.74510    1.000
    C14      C        0.33043    0.13685    0.67420    1.000
    H8       H        0.31130    0.13830    0.62910    1.000
    C15      C        0.36050    0.10927    0.66910    1.000
    H9       H        0.36190    0.09190    0.62070    1.000
    C16      C        0.38853    0.10714    0.73500    1.000
    C17      C        0.38650    0.13259    0.80590    1.000
    H10      H        0.40570    0.13110    0.85100    1.000
    C18      C        0.35643    0.16016    0.81090    1.000
    H11      H        0.35500    0.17760    0.85940    1.000
    C19      C        0.42083    0.07844    0.73030    1.000
    C20      C        0.43953    0.07062    0.65143    1.000
    H12      H        0.42990    0.08190    0.59890    1.000
    N3       N        0.47233    0.04627    0.64948    1.000
    C21      C        0.48643    0.02974    0.72640    1.000
    H13      H        0.50890    0.01310    0.72500    1.000
    N4       N        0.46774    0.03756    0.80522    1.000
    C22      C        0.43494    0.06191    0.80718    1.000
    H14      H        0.42220    0.06730    0.86110    1.000
    Cu3      Cu       0.73616    0.73849    0.17480    1.000
    Cu4      Cu       0.49855    0.53431    0.46766    1.000
    I2       I        0.56020    0.48976    0.43468    1.000
    O5       O        0.69884    0.70954    0.24950    1.000
    O6       O        0.72270    0.72863    0.37770    1.000
    C23      C        0.69841    0.71088    0.33090    1.000
    C24      C        0.66544    0.68980    0.37670    1.000
    C25      C        0.63630    0.67189    0.32705    1.000
    H15      H        0.63850    0.67120    0.26520    1.000
    C26      C        0.60393    0.65503    0.36790    1.000
    H16      H        0.58400    0.64280    0.33390    1.000
    C27      C        0.60068    0.65609    0.45830    1.000
    C28      C        0.62982    0.67401    0.50801    1.000
    H17      H        0.62760    0.67470    0.56990    1.000
    C29      C        0.66220    0.69086    0.46720    1.000
    H18      H        0.68210    0.70310    0.50120    1.000
    C30      C        0.56545    0.63946    0.50130    1.000
    C31      C        0.55095    0.60354    0.47230    1.000
    H19      H        0.56440    0.58950    0.42770    1.000
    N5       N        0.51681    0.58815    0.50870    1.000
    C32      C        0.49717    0.60867    0.57390    1.000
    H20      H        0.47380    0.59810    0.59870    1.000
    N6       N        0.51166    0.64458    0.60290    1.000
    C33      C        0.54580    0.65997    0.56660    1.000
    H21      H        0.55570    0.68450    0.58640    1.000
    O7       O        0.77421    0.69558    0.18580    1.000
    O8       O        0.79762    0.71597    0.31340    1.000
    C34      C        0.79775    0.69374    0.24800    1.000
    C35      C        0.82840    0.66230    0.24510    1.000
    C36      C        0.83043    0.63685    0.17420    1.000
    H22      H        0.81130    0.63830    0.12910    1.000
    C37      C        0.86050    0.60927    0.16910    1.000
    H23      H        0.86190    0.59190    0.12070    1.000
    C38      C        0.88853    0.60714    0.23500    1.000
    C39      C        0.88650    0.63259    0.30590    1.000
    H24      H        0.90570    0.63110    0.35100    1.000
    C40      C        0.85643    0.66016    0.31090    1.000
    H25      H        0.85500    0.67760    0.35940    1.000
    C41      C        0.92083    0.57844    0.23030    1.000
    C42      C        0.93953    0.57062    0.15143    1.000
    H26      H        0.92990    0.58190    0.09890    1.000
    N7       N        0.97233    0.54627    0.14948    1.000
    C43      C        0.98643    0.52974    0.22640    1.000
    H27      H        0.00890    0.51310    0.22500    1.000
    N8       N        0.96774    0.53756    0.30522    1.000
    C44      C        0.93494    0.56191    0.30718    1.000
    H28      H        0.92220    0.56730    0.36110    1.000
    Cu5      Cu       0.26384    0.76151    0.17480    1.000
    Cu6      Cu       0.50145    0.96569    0.46766    1.000
    I3       I        0.43980    0.01024    0.43468    1.000
    O9       O        0.30116    0.79046    0.24950    1.000
    O10      O        0.27730    0.77137    0.37770    1.000
    C45      C        0.30159    0.78912    0.33090    1.000
    C46      C        0.33456    0.81020    0.37670    1.000
    C47      C        0.36370    0.82811    0.32705    1.000
    H29      H        0.36150    0.82880    0.26520    1.000
    C48      C        0.39607    0.84497    0.36790    1.000
    H30      H        0.41600    0.85720    0.33390    1.000
    C49      C        0.39932    0.84391    0.45830    1.000
    C50      C        0.37018    0.82599    0.50801    1.000
    H31      H        0.37240    0.82530    0.56990    1.000
    C51      C        0.33780    0.80914    0.46720    1.000
    H32      H        0.31790    0.79690    0.50120    1.000
    C52      C        0.43455    0.86054    0.50130    1.000
    C53      C        0.44905    0.89646    0.47230    1.000
    H33      H        0.43560    0.91050    0.42770    1.000
    N9       N        0.48319    0.91185    0.50870    1.000
    C54      C        0.50283    0.89133    0.57390    1.000
    H34      H        0.52620    0.90190    0.59870    1.000
    N10      N        0.48834    0.85542    0.60290    1.000
    C55      C        0.45420    0.84003    0.56660    1.000
    H35      H        0.44430    0.81550    0.58640    1.000
    O11      O        0.22579    0.80442    0.18580    1.000
    O12      O        0.20238    0.78403    0.31340    1.000
    C56      C        0.20225    0.80626    0.24800    1.000
    C57      C        0.17160    0.83770    0.24510    1.000
    C58      C        0.16957    0.86315    0.17420    1.000
    H36      H        0.18870    0.86170    0.12910    1.000
    C59      C        0.13950    0.89073    0.16910    1.000
    H37      H        0.13810    0.90810    0.12070    1.000
    C60      C        0.11147    0.89286    0.23500    1.000
    C61      C        0.11350    0.86741    0.30590    1.000
    H38      H        0.09430    0.86890    0.35100    1.000
    C62      C        0.14357    0.83984    0.31090    1.000
    H39      H        0.14500    0.82240    0.35940    1.000
    C63      C        0.07917    0.92156    0.23030    1.000
    C64      C        0.06047    0.92938    0.15143    1.000
    H40      H        0.07010    0.91810    0.09890    1.000
    N11      N        0.02767    0.95373    0.14948    1.000
    C65      C        0.01357    0.97026    0.22640    1.000
    H41      H        0.99110    0.98690    0.22500    1.000
    N12      N        0.03226    0.96244    0.30522    1.000
    C66      C        0.06506    0.93809    0.30718    1.000
    H42      H        0.07780    0.93270    0.36110    1.000
    Cu7      Cu       0.76384    0.26151    0.67480    1.000
    Cu8      Cu       0.00145    0.46569    0.96766    1.000
    I4       I        0.93980    0.51024    0.93468    1.000
    O13      O        0.80116    0.29046    0.74950    1.000
    O14      O        0.77730    0.27137    0.87770    1.000
    C67      C        0.80159    0.28912    0.83090    1.000
    C68      C        0.83456    0.31020    0.87670    1.000
    C69      C        0.86370    0.32811    0.82705    1.000
    H43      H        0.86150    0.32880    0.76520    1.000
    C70      C        0.89607    0.34497    0.86790    1.000
    H44      H        0.91600    0.35720    0.83390    1.000
    C71      C        0.89932    0.34391    0.95830    1.000
    C72      C        0.87018    0.32599    0.00801    1.000
    H45      H        0.87240    0.32530    0.06990    1.000
    C73      C        0.83780    0.30914    0.96720    1.000
    H46      H        0.81790    0.29690    0.00120    1.000
    C74      C        0.93455    0.36054    0.00130    1.000
    C75      C        0.94905    0.39646    0.97230    1.000
    H47      H        0.93560    0.41050    0.92770    1.000
    N13      N        0.98319    0.41185    0.00870    1.000
    C76      C        0.00283    0.39133    0.07390    1.000
    H48      H        0.02620    0.40190    0.09870    1.000
    N14      N        0.98834    0.35542    0.10290    1.000
    C77      C        0.95420    0.34003    0.06660    1.000
    H49      H        0.94430    0.31550    0.08640    1.000
    O15      O        0.72579    0.30442    0.68580    1.000
    O16      O        0.70238    0.28403    0.81340    1.000
    C78      C        0.70225    0.30626    0.74800    1.000
    C79      C        0.67160    0.33770    0.74510    1.000
    C80      C        0.66957    0.36315    0.67420    1.000
    H50      H        0.68870    0.36170    0.62910    1.000
    C81      C        0.63950    0.39073    0.66910    1.000
    H51      H        0.63810    0.40810    0.62070    1.000
    C82      C        0.61147    0.39286    0.73500    1.000
    C83      C        0.61350    0.36741    0.80590    1.000
    H52      H        0.59430    0.36890    0.85100    1.000
    C84      C        0.64357    0.33984    0.81090    1.000
    H53      H        0.64500    0.32240    0.85940    1.000
    C85      C        0.57917    0.42156    0.73030    1.000
    C86      C        0.56047    0.42938    0.65143    1.000
    H54      H        0.57010    0.41810    0.59890    1.000
    N15      N        0.52767    0.45373    0.64948    1.000
    C87      C        0.51357    0.47026    0.72640    1.000
    H55      H        0.49110    0.48690    0.72500    1.000
    N16      N        0.53226    0.46244    0.80522    1.000
    C88      C        0.56506    0.43809    0.80718    1.000
    H56      H        0.57780    0.43270    0.86110    1.000
    Cu9      Cu       0.51151    0.48616    0.92480    1.000
    Cu10     Cu       0.71569    0.24855    0.21766    1.000
    I5       I        0.76024    0.31020    0.18468    1.000
    O17      O        0.54046    0.44884    0.99950    1.000
    O18      O        0.52137    0.47270    0.12770    1.000
    C89      C        0.53912    0.44841    0.08090    1.000
    C90      C        0.56020    0.41544    0.12670    1.000
    C91      C        0.57811    0.38630    0.07705    1.000
    H57      H        0.57880    0.38850    0.01520    1.000
    C92      C        0.59497    0.35393    0.11790    1.000
    H58      H        0.60720    0.33400    0.08390    1.000
    C93      C        0.59391    0.35068    0.20830    1.000
    C94      C        0.57599    0.37982    0.25801    1.000
    H59      H        0.57530    0.37760    0.31990    1.000
    C95      C        0.55914    0.41220    0.21720    1.000
    H60      H        0.54690    0.43210    0.25120    1.000
    C96      C        0.61054    0.31545    0.25130    1.000
    C97      C        0.64646    0.30095    0.22230    1.000
    H61      H        0.66050    0.31440    0.17770    1.000
    N17      N        0.66185    0.26681    0.25870    1.000
    C98      C        0.64133    0.24717    0.32390    1.000
    H62      H        0.65190    0.22380    0.34870    1.000
    N18      N        0.60542    0.26166    0.35290    1.000
    C99      C        0.59003    0.29580    0.31660    1.000
    H63      H        0.56550    0.30570    0.33640    1.000
    O19      O        0.55442    0.52421    0.93580    1.000
    O20      O        0.53403    0.54762    0.06340    1.000
    C100     C        0.55626    0.54775    0.99800    1.000
    C101     C        0.58770    0.57840    0.99510    1.000
    C102     C        0.61315    0.58043    0.92420    1.000
    H64      H        0.61170    0.56130    0.87910    1.000
    C103     C        0.64073    0.61050    0.91910    1.000
    H65      H        0.65810    0.61190    0.87070    1.000
    C104     C        0.64286    0.63853    0.98500    1.000
    C105     C        0.61741    0.63650    0.05590    1.000
    H66      H        0.61890    0.65570    0.10100    1.000
    C106     C        0.58984    0.60643    0.06090    1.000
    H67      H        0.57240    0.60500    0.10940    1.000
    C107     C        0.67156    0.67083    0.98030    1.000
    C108     C        0.67938    0.68953    0.90143    1.000
    H68      H        0.66810    0.67990    0.84890    1.000
    N19      N        0.70373    0.72233    0.89948    1.000
    C109     C        0.72026    0.73643    0.97640    1.000
    H69      H        0.73690    0.75890    0.97500    1.000
    N20      N        0.71244    0.71774    0.05522    1.000
    C110     C        0.68809    0.68494    0.05718    1.000
    H70      H        0.68270    0.67220    0.11110    1.000
    Cu11     Cu       0.01151    0.98616    0.42480    1.000
    Cu12     Cu       0.21569    0.74855    0.71766    1.000
    I6       I        0.26024    0.81020    0.68468    1.000
    O21      O        0.04046    0.94884    0.49950    1.000
    O22      O        0.02137    0.97270    0.62770    1.000
    C111     C        0.03912    0.94841    0.58090    1.000
    C112     C        0.06020    0.91544    0.62670    1.000
    C113     C        0.07811    0.88630    0.57705    1.000
    H71      H        0.07880    0.88850    0.51520    1.000
    C114     C        0.09497    0.85393    0.61790    1.000
    H72      H        0.10720    0.83400    0.58390    1.000
    C115     C        0.09391    0.85068    0.70830    1.000
    C116     C        0.07599    0.87982    0.75801    1.000
    H73      H        0.07530    0.87760    0.81990    1.000
    C117     C        0.05914    0.91220    0.71720    1.000
    H74      H        0.04690    0.93210    0.75120    1.000
    C118     C        0.11054    0.81545    0.75130    1.000
    C119     C        0.14646    0.80095    0.72230    1.000
    H75      H        0.16050    0.81440    0.67770    1.000
    N21      N        0.16185    0.76681    0.75870    1.000
    C120     C        0.14133    0.74717    0.82390    1.000
    H76      H        0.15190    0.72380    0.84870    1.000
    N22      N        0.10542    0.76166    0.85290    1.000
    C121     C        0.09003    0.79580    0.81660    1.000
    H77      H        0.06550    0.80570    0.83640    1.000
    O23      O        0.05442    0.02421    0.43580    1.000
    O24      O        0.03403    0.04762    0.56340    1.000
    C122     C        0.05626    0.04775    0.49800    1.000
    C123     C        0.08770    0.07840    0.49510    1.000
    C124     C        0.11315    0.08043    0.42420    1.000
    H78      H        0.11170    0.06130    0.37910    1.000
    C125     C        0.14073    0.11050    0.41910    1.000
    H79      H        0.15810    0.11190    0.37070    1.000
    C126     C        0.14286    0.13853    0.48500    1.000
    C127     C        0.11741    0.13650    0.55590    1.000
    H80      H        0.11890    0.15570    0.60100    1.000
    C128     C        0.08984    0.10643    0.56090    1.000
    H81      H        0.07240    0.10500    0.60940    1.000
    C129     C        0.17156    0.17083    0.48030    1.000
    C130     C        0.17938    0.18953    0.40143    1.000
    H82      H        0.16810    0.17990    0.34890    1.000
    N23      N        0.20373    0.22233    0.39948    1.000
    C131     C        0.22026    0.23643    0.47640    1.000
    H83      H        0.23690    0.25890    0.47500    1.000
    N24      N        0.21244    0.21774    0.55522    1.000
    C132     C        0.18809    0.18494    0.55718    1.000
    H84      H        0.18270    0.17220    0.61110    1.000
    Cu13     Cu       0.98849    0.51384    0.42480    1.000
    Cu14     Cu       0.78431    0.75145    0.71766    1.000
    I7       I        0.73976    0.68980    0.68468    1.000
    O25      O        0.95954    0.55116    0.49950    1.000
    O26      O        0.97863    0.52730    0.62770    1.000
    C133     C        0.96088    0.55159    0.58090    1.000
    C134     C        0.93980    0.58456    0.62670    1.000
    C135     C        0.92189    0.61370    0.57705    1.000
    H85      H        0.92120    0.61150    0.51520    1.000
    C136     C        0.90503    0.64607    0.61790    1.000
    H86      H        0.89280    0.66600    0.58390    1.000
    C137     C        0.90609    0.64932    0.70830    1.000
    C138     C        0.92401    0.62018    0.75801    1.000
    H87      H        0.92470    0.62240    0.81990    1.000
    C139     C        0.94086    0.58780    0.71720    1.000
    H88      H        0.95310    0.56790    0.75120    1.000
    C140     C        0.88946    0.68455    0.75130    1.000
    C141     C        0.85354    0.69905    0.72230    1.000
    H89      H        0.83950    0.68560    0.67770    1.000
    N25      N        0.83815    0.73319    0.75870    1.000
    C142     C        0.85867    0.75283    0.82390    1.000
    H90      H        0.84810    0.77620    0.84870    1.000
    N26      N        0.89458    0.73834    0.85290    1.000
    C143     C        0.90997    0.70420    0.81660    1.000
    H91      H        0.93450    0.69430    0.83640    1.000
    O27      O        0.94558    0.47579    0.43580    1.000
    O28      O        0.96597    0.45238    0.56340    1.000
    C144     C        0.94374    0.45225    0.49800    1.000
    C145     C        0.91230    0.42160    0.49510    1.000
    C146     C        0.88685    0.41957    0.42420    1.000
    H92      H        0.88830    0.43870    0.37910    1.000
    C147     C        0.85927    0.38950    0.41910    1.000
    H93      H        0.84190    0.38810    0.37070    1.000
    C148     C        0.85714    0.36147    0.48500    1.000
    C149     C        0.88259    0.36350    0.55590    1.000
    H94      H        0.88110    0.34430    0.60100    1.000
    C150     C        0.91016    0.39357    0.56090    1.000
    H95      H        0.92760    0.39500    0.60940    1.000
    C151     C        0.82844    0.32917    0.48030    1.000
    C152     C        0.82062    0.31047    0.40143    1.000
    H96      H        0.83190    0.32010    0.34890    1.000
    N27      N        0.79627    0.27767    0.39948    1.000
    C153     C        0.77974    0.26357    0.47640    1.000
    H97      H        0.76310    0.24110    0.47500    1.000
    N28      N        0.78756    0.28226    0.55522    1.000
    C154     C        0.81191    0.31506    0.55718    1.000
    H98      H        0.81730    0.32780    0.61110    1.000
    Cu15     Cu       0.48849    0.01384    0.92480    1.000
    Cu16     Cu       0.28431    0.25145    0.21766    1.000
    I8       I        0.23976    0.18980    0.18468    1.000
    O29      O        0.45954    0.05116    0.99950    1.000
    O30      O        0.47863    0.02730    0.12770    1.000
    C155     C        0.46088    0.05159    0.08090    1.000
    C156     C        0.43980    0.08456    0.12670    1.000
    C157     C        0.42189    0.11370    0.07705    1.000
    H99      H        0.42120    0.11150    0.01520    1.000
    C158     C        0.40503    0.14607    0.11790    1.000
    H100     H        0.39280    0.16600    0.08390    1.000
    C159     C        0.40609    0.14932    0.20830    1.000
    C160     C        0.42401    0.12018    0.25801    1.000
    H101     H        0.42470    0.12240    0.31990    1.000
    C161     C        0.44086    0.08780    0.21720    1.000
    H102     H        0.45310    0.06790    0.25120    1.000
    C162     C        0.38946    0.18455    0.25130    1.000
    C163     C        0.35354    0.19905    0.22230    1.000
    H103     H        0.33950    0.18560    0.17770    1.000
    N29      N        0.33815    0.23319    0.25870    1.000
    C164     C        0.35867    0.25283    0.32390    1.000
    H104     H        0.34810    0.27620    0.34870    1.000
    N30      N        0.39458    0.23834    0.35290    1.000
    C165     C        0.40997    0.20420    0.31660    1.000
    H105     H        0.43450    0.19430    0.33640    1.000
    O31      O        0.44558    0.97579    0.93580    1.000
    O32      O        0.46597    0.95238    0.06340    1.000
    C166     C        0.44374    0.95225    0.99800    1.000
    C167     C        0.41230    0.92160    0.99510    1.000
    C168     C        0.38685    0.91957    0.92420    1.000
    H106     H        0.38830    0.93870    0.87910    1.000
    C169     C        0.35927    0.88950    0.91910    1.000
    H107     H        0.34190    0.88810    0.87070    1.000
    C170     C        0.35714    0.86147    0.98500    1.000
    C171     C        0.38259    0.86350    0.05590    1.000
    H108     H        0.38110    0.84430    0.10100    1.000
    C172     C        0.41016    0.89357    0.06090    1.000
    H109     H        0.42760    0.89500    0.10940    1.000
    C173     C        0.32844    0.82917    0.98030    1.000
    C174     C        0.32062    0.81047    0.90143    1.000
    H110     H        0.33190    0.82010    0.84890    1.000
    N31      N        0.29627    0.77767    0.89948    1.000
    C175     C        0.27974    0.76357    0.97640    1.000
    H111     H        0.26310    0.74110    0.97500    1.000
    N32      N        0.28756    0.78226    0.05522    1.000
    C176     C        0.31191    0.81506    0.05718    1.000
    H112     H        0.31730    0.82780    0.11110    1.000
    Cu17     Cu       0.76384    0.76151    0.32520    1.000
    Cu18     Cu       0.00145    0.96569    0.03234    1.000
    I9       I        0.93980    0.01024    0.06532    1.000
    O33      O        0.80116    0.79046    0.25050    1.000
    O34      O        0.77730    0.77137    0.12230    1.000
    C177     C        0.80159    0.78912    0.16910    1.000
    C178     C        0.83456    0.81020    0.12330    1.000
    C179     C        0.86370    0.82811    0.17295    1.000
    H113     H        0.86150    0.82880    0.23480    1.000
    C180     C        0.89607    0.84497    0.13210    1.000
    H114     H        0.91600    0.85720    0.16610    1.000
    C181     C        0.89932    0.84391    0.04170    1.000
    C182     C        0.87018    0.82599    0.99199    1.000
    H115     H        0.87240    0.82530    0.93010    1.000
    C183     C        0.83780    0.80914    0.03280    1.000
    H116     H        0.81790    0.79690    0.99880    1.000
    C184     C        0.93455    0.86054    0.99870    1.000
    C185     C        0.94905    0.89646    0.02770    1.000
    H117     H        0.93560    0.91050    0.07230    1.000
    N33      N        0.98319    0.91185    0.99130    1.000
    C186     C        0.00283    0.89133    0.92610    1.000
    H118     H        0.02620    0.90190    0.90130    1.000
    N34      N        0.98834    0.85542    0.89710    1.000
    C187     C        0.95420    0.84003    0.93340    1.000
    H119     H        0.94430    0.81550    0.91360    1.000
    O35      O        0.72579    0.80442    0.31420    1.000
    O36      O        0.70238    0.78403    0.18660    1.000
    C188     C        0.70225    0.80626    0.25200    1.000
    C189     C        0.67160    0.83770    0.25490    1.000
    C190     C        0.66957    0.86315    0.32580    1.000
    H120     H        0.68870    0.86170    0.37090    1.000
    C191     C        0.63950    0.89073    0.33090    1.000
    H121     H        0.63810    0.90810    0.37930    1.000
    C192     C        0.61147    0.89286    0.26500    1.000
    C193     C        0.61350    0.86741    0.19410    1.000
    H122     H        0.59430    0.86890    0.14900    1.000
    C194     C        0.64357    0.83984    0.18910    1.000
    H123     H        0.64500    0.82240    0.14060    1.000
    C195     C        0.57917    0.92156    0.26970    1.000
    C196     C        0.56047    0.92938    0.34857    1.000
    H124     H        0.57010    0.91810    0.40110    1.000
    N35      N        0.52767    0.95373    0.35052    1.000
    C197     C        0.51357    0.97026    0.27360    1.000
    H125     H        0.49110    0.98690    0.27500    1.000
    N36      N        0.53226    0.96244    0.19478    1.000
    C198     C        0.56506    0.93809    0.19282    1.000
    H126     H        0.57780    0.93270    0.13890    1.000
    Cu19     Cu       0.26384    0.26151    0.82520    1.000
    Cu20     Cu       0.50145    0.46569    0.53234    1.000
    I10      I        0.43980    0.51024    0.56532    1.000
    O37      O        0.30116    0.29046    0.75050    1.000
    O38      O        0.27730    0.27137    0.62230    1.000
    C199     C        0.30159    0.28912    0.66910    1.000
    C200     C        0.33456    0.31020    0.62330    1.000
    C201     C        0.36370    0.32811    0.67295    1.000
    H127     H        0.36150    0.32880    0.73480    1.000
    C202     C        0.39607    0.34497    0.63210    1.000
    H128     H        0.41600    0.35720    0.66610    1.000
    C203     C        0.39932    0.34391    0.54170    1.000
    C204     C        0.37018    0.32599    0.49199    1.000
    H129     H        0.37240    0.32530    0.43010    1.000
    C205     C        0.33780    0.30914    0.53280    1.000
    H130     H        0.31790    0.29690    0.49880    1.000
    C206     C        0.43455    0.36054    0.49870    1.000
    C207     C        0.44905    0.39646    0.52770    1.000
    H131     H        0.43560    0.41050    0.57230    1.000
    N37      N        0.48319    0.41185    0.49130    1.000
    C208     C        0.50283    0.39133    0.42610    1.000
    H132     H        0.52620    0.40190    0.40130    1.000
    N38      N        0.48834    0.35542    0.39710    1.000
    C209     C        0.45420    0.34003    0.43340    1.000
    H133     H        0.44430    0.31550    0.41360    1.000
    O39      O        0.22579    0.30442    0.81420    1.000
    O40      O        0.20238    0.28403    0.68660    1.000
    C210     C        0.20225    0.30626    0.75200    1.000
    C211     C        0.17160    0.33770    0.75490    1.000
    C212     C        0.16957    0.36315    0.82580    1.000
    H134     H        0.18870    0.36170    0.87090    1.000
    C213     C        0.13950    0.39073    0.83090    1.000
    H135     H        0.13810    0.40810    0.87930    1.000
    C214     C        0.11147    0.39286    0.76500    1.000
    C215     C        0.11350    0.36741    0.69410    1.000
    H136     H        0.09430    0.36890    0.64900    1.000
    C216     C        0.14357    0.33984    0.68910    1.000
    H137     H        0.14500    0.32240    0.64060    1.000
    C217     C        0.07917    0.42156    0.76970    1.000
    C218     C        0.06047    0.42938    0.84857    1.000
    H138     H        0.07010    0.41810    0.90110    1.000
    N39      N        0.02767    0.45373    0.85052    1.000
    C219     C        0.01357    0.47026    0.77360    1.000
    H139     H        0.99110    0.48690    0.77500    1.000
    N40      N        0.03226    0.46244    0.69478    1.000
    C220     C        0.06506    0.43809    0.69282    1.000
    H140     H        0.07780    0.43270    0.63890    1.000
    Cu21     Cu       0.73616    0.23849    0.82520    1.000
    Cu22     Cu       0.49855    0.03431    0.53234    1.000
    I11      I        0.56020    0.98976    0.56532    1.000
    O41      O        0.69884    0.20954    0.75050    1.000
    O42      O        0.72270    0.22863    0.62230    1.000
    C221     C        0.69841    0.21088    0.66910    1.000
    C222     C        0.66544    0.18980    0.62330    1.000
    C223     C        0.63630    0.17189    0.67295    1.000
    H141     H        0.63850    0.17120    0.73480    1.000
    C224     C        0.60393    0.15503    0.63210    1.000
    H142     H        0.58400    0.14280    0.66610    1.000
    C225     C        0.60068    0.15609    0.54170    1.000
    C226     C        0.62982    0.17401    0.49199    1.000
    H143     H        0.62760    0.17470    0.43010    1.000
    C227     C        0.66220    0.19086    0.53280    1.000
    H144     H        0.68210    0.20310    0.49880    1.000
    C228     C        0.56545    0.13946    0.49870    1.000
    C229     C        0.55095    0.10354    0.52770    1.000
    H145     H        0.56440    0.08950    0.57230    1.000
    N41      N        0.51681    0.08815    0.49130    1.000
    C230     C        0.49717    0.10867    0.42610    1.000
    H146     H        0.47380    0.09810    0.40130    1.000
    N42      N        0.51166    0.14458    0.39710    1.000
    C231     C        0.54580    0.15997    0.43340    1.000
    H147     H        0.55570    0.18450    0.41360    1.000
    O43      O        0.77421    0.19558    0.81420    1.000
    O44      O        0.79762    0.21597    0.68660    1.000
    C232     C        0.79775    0.19374    0.75200    1.000
    C233     C        0.82840    0.16230    0.75490    1.000
    C234     C        0.83043    0.13685    0.82580    1.000
    H148     H        0.81130    0.13830    0.87090    1.000
    C235     C        0.86050    0.10927    0.83090    1.000
    H149     H        0.86190    0.09190    0.87930    1.000
    C236     C        0.88853    0.10714    0.76500    1.000
    C237     C        0.88650    0.13259    0.69410    1.000
    H150     H        0.90570    0.13110    0.64900    1.000
    C238     C        0.85643    0.16016    0.68910    1.000
    H151     H        0.85500    0.17760    0.64060    1.000
    C239     C        0.92083    0.07844    0.76970    1.000
    C240     C        0.93953    0.07062    0.84857    1.000
    H152     H        0.92990    0.08190    0.90110    1.000
    N43      N        0.97233    0.04627    0.85052    1.000
    C241     C        0.98643    0.02974    0.77360    1.000
    H153     H        0.00890    0.01310    0.77500    1.000
    N44      N        0.96774    0.03756    0.69478    1.000
    C242     C        0.93494    0.06191    0.69282    1.000
    H154     H        0.92220    0.06730    0.63890    1.000
    Cu23     Cu       0.23616    0.73849    0.32520    1.000
    Cu24     Cu       0.99855    0.53431    0.03234    1.000
    I12      I        0.06020    0.48976    0.06532    1.000
    O45      O        0.19884    0.70954    0.25050    1.000
    O46      O        0.22270    0.72863    0.12230    1.000
    C243     C        0.19841    0.71088    0.16910    1.000
    C244     C        0.16544    0.68980    0.12330    1.000
    C245     C        0.13630    0.67189    0.17295    1.000
    H155     H        0.13850    0.67120    0.23480    1.000
    C246     C        0.10393    0.65503    0.13210    1.000
    H156     H        0.08400    0.64280    0.16610    1.000
    C247     C        0.10068    0.65609    0.04170    1.000
    C248     C        0.12982    0.67401    0.99199    1.000
    H157     H        0.12760    0.67470    0.93010    1.000
    C249     C        0.16220    0.69086    0.03280    1.000
    H158     H        0.18210    0.70310    0.99880    1.000
    C250     C        0.06545    0.63946    0.99870    1.000
    C251     C        0.05095    0.60354    0.02770    1.000
    H159     H        0.06440    0.58950    0.07230    1.000
    N45      N        0.01681    0.58815    0.99130    1.000
    C252     C        0.99717    0.60867    0.92610    1.000
    H160     H        0.97380    0.59810    0.90130    1.000
    N46      N        0.01166    0.64458    0.89710    1.000
    C253     C        0.04580    0.65997    0.93340    1.000
    H161     H        0.05570    0.68450    0.91360    1.000
    O47      O        0.27421    0.69558    0.31420    1.000
    O48      O        0.29762    0.71597    0.18660    1.000
    C254     C        0.29775    0.69374    0.25200    1.000
    C255     C        0.32840    0.66230    0.25490    1.000
    C256     C        0.33043    0.63685    0.32580    1.000
    H162     H        0.31130    0.63830    0.37090    1.000
    C257     C        0.36050    0.60927    0.33090    1.000
    H163     H        0.36190    0.59190    0.37930    1.000
    C258     C        0.38853    0.60714    0.26500    1.000
    C259     C        0.38650    0.63259    0.19410    1.000
    H164     H        0.40570    0.63110    0.14900    1.000
    C260     C        0.35643    0.66016    0.18910    1.000
    H165     H        0.35500    0.67760    0.14060    1.000
    C261     C        0.42083    0.57844    0.26970    1.000
    C262     C        0.43953    0.57062    0.34857    1.000
    H166     H        0.42990    0.58190    0.40110    1.000
    N47      N        0.47233    0.54627    0.35052    1.000
    C263     C        0.48643    0.52974    0.27360    1.000
    H167     H        0.50890    0.51310    0.27500    1.000
    N48      N        0.46774    0.53756    0.19478    1.000
    C264     C        0.43494    0.56191    0.19282    1.000
    H168     H        0.42220    0.56730    0.13890    1.000
    Cu25     Cu       0.48849    0.51384    0.07520    1.000
    Cu26     Cu       0.28431    0.75145    0.78234    1.000
    I13      I        0.23976    0.68980    0.81532    1.000
    O49      O        0.45954    0.55116    0.00050    1.000
    O50      O        0.47863    0.52730    0.87230    1.000
    C265     C        0.46088    0.55159    0.91910    1.000
    C266     C        0.43980    0.58456    0.87330    1.000
    C267     C        0.42189    0.61370    0.92295    1.000
    H169     H        0.42120    0.61150    0.98480    1.000
    C268     C        0.40503    0.64607    0.88210    1.000
    H170     H        0.39280    0.66600    0.91610    1.000
    C269     C        0.40609    0.64932    0.79170    1.000
    C270     C        0.42401    0.62018    0.74199    1.000
    H171     H        0.42470    0.62240    0.68010    1.000
    C271     C        0.44086    0.58780    0.78280    1.000
    H172     H        0.45310    0.56790    0.74880    1.000
    C272     C        0.38946    0.68455    0.74870    1.000
    C273     C        0.35354    0.69905    0.77770    1.000
    H173     H        0.33950    0.68560    0.82230    1.000
    N49      N        0.33815    0.73319    0.74130    1.000
    C274     C        0.35867    0.75283    0.67610    1.000
    H174     H        0.34810    0.77620    0.65130    1.000
    N50      N        0.39458    0.73834    0.64710    1.000
    C275     C        0.40997    0.70420    0.68340    1.000
    H175     H        0.43450    0.69430    0.66360    1.000
    O51      O        0.44558    0.47579    0.06420    1.000
    O52      O        0.46597    0.45238    0.93660    1.000
    C276     C        0.44374    0.45225    0.00200    1.000
    C277     C        0.41230    0.42160    0.00490    1.000
    C278     C        0.38685    0.41957    0.07580    1.000
    H176     H        0.38830    0.43870    0.12090    1.000
    C279     C        0.35927    0.38950    0.08090    1.000
    H177     H        0.34190    0.38810    0.12930    1.000
    C280     C        0.35714    0.36147    0.01500    1.000
    C281     C        0.38259    0.36350    0.94410    1.000
    H178     H        0.38110    0.34430    0.89900    1.000
    C282     C        0.41016    0.39357    0.93910    1.000
    H179     H        0.42760    0.39500    0.89060    1.000
    C283     C        0.32844    0.32917    0.01970    1.000
    C284     C        0.32062    0.31047    0.09857    1.000
    H180     H        0.33190    0.32010    0.15110    1.000
    N51      N        0.29627    0.27767    0.10052    1.000
    C285     C        0.27974    0.26357    0.02360    1.000
    H181     H        0.26310    0.24110    0.02500    1.000
    N52      N        0.28756    0.28226    0.94478    1.000
    C286     C        0.31191    0.31506    0.94282    1.000
    H182     H        0.31730    0.32780    0.88890    1.000
    Cu27     Cu       0.98849    0.01384    0.57520    1.000
    Cu28     Cu       0.78431    0.25145    0.28234    1.000
    I14      I        0.73976    0.18980    0.31532    1.000
    O53      O        0.95954    0.05116    0.50050    1.000
    O54      O        0.97863    0.02730    0.37230    1.000
    C287     C        0.96088    0.05159    0.41910    1.000
    C288     C        0.93980    0.08456    0.37330    1.000
    C289     C        0.92189    0.11370    0.42295    1.000
    H183     H        0.92120    0.11150    0.48480    1.000
    C290     C        0.90503    0.14607    0.38210    1.000
    H184     H        0.89280    0.16600    0.41610    1.000
    C291     C        0.90609    0.14932    0.29170    1.000
    C292     C        0.92401    0.12018    0.24199    1.000
    H185     H        0.92470    0.12240    0.18010    1.000
    C293     C        0.94086    0.08780    0.28280    1.000
    H186     H        0.95310    0.06790    0.24880    1.000
    C294     C        0.88946    0.18455    0.24870    1.000
    C295     C        0.85354    0.19905    0.27770    1.000
    H187     H        0.83950    0.18560    0.32230    1.000
    N53      N        0.83815    0.23319    0.24130    1.000
    C296     C        0.85867    0.25283    0.17610    1.000
    H188     H        0.84810    0.27620    0.15130    1.000
    N54      N        0.89458    0.23834    0.14710    1.000
    C297     C        0.90997    0.20420    0.18340    1.000
    H189     H        0.93450    0.19430    0.16360    1.000
    O55      O        0.94558    0.97579    0.56420    1.000
    O56      O        0.96597    0.95238    0.43660    1.000
    C298     C        0.94374    0.95225    0.50200    1.000
    C299     C        0.91230    0.92160    0.50490    1.000
    C300     C        0.88685    0.91957    0.57580    1.000
    H190     H        0.88830    0.93870    0.62090    1.000
    C301     C        0.85927    0.88950    0.58090    1.000
    H191     H        0.84190    0.88810    0.62930    1.000
    C302     C        0.85714    0.86147    0.51500    1.000
    C303     C        0.88259    0.86350    0.44410    1.000
    H192     H        0.88110    0.84430    0.39900    1.000
    C304     C        0.91016    0.89357    0.43910    1.000
    H193     H        0.92760    0.89500    0.39060    1.000
    C305     C        0.82844    0.82917    0.51970    1.000
    C306     C        0.82062    0.81047    0.59857    1.000
    H194     H        0.83190    0.82010    0.65110    1.000
    N55      N        0.79627    0.77767    0.60052    1.000
    C307     C        0.77974    0.76357    0.52360    1.000
    H195     H        0.76310    0.74110    0.52500    1.000
    N56      N        0.78756    0.78226    0.44478    1.000
    C308     C        0.81191    0.81506    0.44282    1.000
    H196     H        0.81730    0.82780    0.38890    1.000
    Cu29     Cu       0.01151    0.48616    0.57520    1.000
    Cu30     Cu       0.21569    0.24855    0.28234    1.000
    I15      I        0.26024    0.31020    0.31532    1.000
    O57      O        0.04046    0.44884    0.50050    1.000
    O58      O        0.02137    0.47270    0.37230    1.000
    C309     C        0.03912    0.44841    0.41910    1.000
    C310     C        0.06020    0.41544    0.37330    1.000
    C311     C        0.07811    0.38630    0.42295    1.000
    H197     H        0.07880    0.38850    0.48480    1.000
    C312     C        0.09497    0.35393    0.38210    1.000
    H198     H        0.10720    0.33400    0.41610    1.000
    C313     C        0.09391    0.35068    0.29170    1.000
    C314     C        0.07599    0.37982    0.24199    1.000
    H199     H        0.07530    0.37760    0.18010    1.000
    C315     C        0.05914    0.41220    0.28280    1.000
    H200     H        0.04690    0.43210    0.24880    1.000
    C316     C        0.11054    0.31545    0.24870    1.000
    C317     C        0.14646    0.30095    0.27770    1.000
    H201     H        0.16050    0.31440    0.32230    1.000
    N57      N        0.16185    0.26681    0.24130    1.000
    C318     C        0.14133    0.24717    0.17610    1.000
    H202     H        0.15190    0.22380    0.15130    1.000
    N58      N        0.10542    0.26166    0.14710    1.000
    C319     C        0.09003    0.29580    0.18340    1.000
    H203     H        0.06550    0.30570    0.16360    1.000
    O59      O        0.05442    0.52421    0.56420    1.000
    O60      O        0.03403    0.54762    0.43660    1.000
    C320     C        0.05626    0.54775    0.50200    1.000
    C321     C        0.08770    0.57840    0.50490    1.000
    C322     C        0.11315    0.58043    0.57580    1.000
    H204     H        0.11170    0.56130    0.62090    1.000
    C323     C        0.14073    0.61050    0.58090    1.000
    H205     H        0.15810    0.61190    0.62930    1.000
    C324     C        0.14286    0.63853    0.51500    1.000
    C325     C        0.11741    0.63650    0.44410    1.000
    H206     H        0.11890    0.65570    0.39900    1.000
    C326     C        0.08984    0.60643    0.43910    1.000
    H207     H        0.07240    0.60500    0.39060    1.000
    C327     C        0.17156    0.67083    0.51970    1.000
    C328     C        0.17938    0.68953    0.59857    1.000
    H208     H        0.16810    0.67990    0.65110    1.000
    N59      N        0.20373    0.72233    0.60052    1.000
    C329     C        0.22026    0.73643    0.52360    1.000
    H209     H        0.23690    0.75890    0.52500    1.000
    N60      N        0.21244    0.71774    0.44478    1.000
    C330     C        0.18809    0.68494    0.44282    1.000
    H210     H        0.18270    0.67220    0.38890    1.000
    Cu31     Cu       0.51151    0.98616    0.07520    1.000
    Cu32     Cu       0.71569    0.74855    0.78234    1.000
    I16      I        0.76024    0.81020    0.81532    1.000
    O61      O        0.54046    0.94884    0.00050    1.000
    O62      O        0.52137    0.97270    0.87230    1.000
    C331     C        0.53912    0.94841    0.91910    1.000
    C332     C        0.56020    0.91544    0.87330    1.000
    C333     C        0.57811    0.88630    0.92295    1.000
    H211     H        0.57880    0.88850    0.98480    1.000
    C334     C        0.59497    0.85393    0.88210    1.000
    H212     H        0.60720    0.83400    0.91610    1.000
    C335     C        0.59391    0.85068    0.79170    1.000
    C336     C        0.57599    0.87982    0.74199    1.000
    H213     H        0.57530    0.87760    0.68010    1.000
    C337     C        0.55914    0.91220    0.78280    1.000
    H214     H        0.54690    0.93210    0.74880    1.000
    C338     C        0.61054    0.81545    0.74870    1.000
    C339     C        0.64646    0.80095    0.77770    1.000
    H215     H        0.66050    0.81440    0.82230    1.000
    N61      N        0.66185    0.76681    0.74130    1.000
    C340     C        0.64133    0.74717    0.67610    1.000
    H216     H        0.65190    0.72380    0.65130    1.000
    N62      N        0.60542    0.76166    0.64710    1.000
    C341     C        0.59003    0.79580    0.68340    1.000
    H217     H        0.56550    0.80570    0.66360    1.000
    O63      O        0.55442    0.02421    0.06420    1.000
    O64      O        0.53403    0.04762    0.93660    1.000
    C342     C        0.55626    0.04775    0.00200    1.000
    C343     C        0.58770    0.07840    0.00490    1.000
    C344     C        0.61315    0.08043    0.07580    1.000
    H218     H        0.61170    0.06130    0.12090    1.000
    C345     C        0.64073    0.11050    0.08090    1.000
    H219     H        0.65810    0.11190    0.12930    1.000
    C346     C        0.64286    0.13853    0.01500    1.000
    C347     C        0.61741    0.13650    0.94410    1.000
    H220     H        0.61890    0.15570    0.89900    1.000
    C348     C        0.58984    0.10643    0.93910    1.000
    H221     H        0.57240    0.10500    0.89060    1.000
    C349     C        0.67156    0.17083    0.01970    1.000
    C350     C        0.67938    0.18953    0.09857    1.000
    H222     H        0.66810    0.17990    0.15110    1.000
    N63      N        0.70373    0.22233    0.10052    1.000
    C351     C        0.72026    0.23643    0.02360    1.000
    H223     H        0.73690    0.25890    0.02500    1.000
    N64      N        0.71244    0.21774    0.94478    1.000
    C352     C        0.68809    0.18494    0.94282    1.000
    H224     H        0.68270    0.17220    0.88890    1.000
