# CIF file generated by openbabel 3.1.0, see https://openbabel.org
data_I
_chemical_name_common 'image0'
_cell_length_a 6.4633
_cell_length_b 17.072
_cell_length_c 23.816
_cell_angle_alpha 90
_cell_angle_beta 90.602
_cell_angle_gamma 90
_space_group_name_H-M_alt 'P 1'
_space_group_name_Hall 'P 1'
loop_
    _symmetry_equiv_pos_as_xyz
    x,y,z
loop_
    _atom_site_label
    _atom_site_type_symbol
    _atom_site_fract_x
    _atom_site_fract_y
    _atom_site_fract_z
    _atom_site_occupancy
    Eu1      Eu       0.26189    0.06280    0.02277    1.000
    C1       C        0.23490    0.94080    0.93130    1.000
    C2       C        0.27170    0.89440    0.88250    1.000
    C3       C        0.46770    0.85700    0.87250    1.000
    C4       C        0.48630    0.81280    0.82310    1.000
    H1       H        0.61240    0.78880    0.81580    1.000
    C5       C        0.32650    0.80330    0.78470    1.000
    C6       C        0.13660    0.83940    0.79440    1.000
    H2       H        0.02710    0.83300    0.76910    1.000
    C7       C        0.11270    0.88500    0.84220    1.000
    H3       H        0.98720    0.91030    0.84770    1.000
    C8       C        0.35620    0.75130    0.73480    1.000
    C9       C        0.19660    0.70610    0.71480    1.000
    H4       H        0.06840    0.70900    0.73210    1.000
    C10      C        0.22160    0.65570    0.66920    1.000
    C11      C        0.41210    0.65260    0.64200    1.000
    C12      C        0.57240    0.70110    0.66200    1.000
    H5       H        0.69970    0.70070    0.64420    1.000
    C13      C        0.54330    0.74920    0.70770    1.000
    H6       H        0.65150    0.78060    0.72040    1.000
    C14      C        0.44640    0.60090    0.59350    1.000
    O1       O        0.06310    0.97660    0.94010    1.000
    O2       O        0.37590    0.95090    0.96920    1.000
    O3       O        0.60110    0.61260    0.56280    1.000
    O4       O        0.31560    0.54540    0.58540    1.000
    O5       O        0.62670    0.86290    0.90690    1.000
    O6       O        0.05650    0.61160    0.65390    1.000
    H7       H        0.09060    0.58070    0.62930    1.000
    Eu2      Eu       0.73811    0.56280    0.47723    1.000
    C15      C        0.76510    0.44080    0.56870    1.000
    C16      C        0.72830    0.39440    0.61750    1.000
    C17      C        0.53230    0.35700    0.62750    1.000
    C18      C        0.51370    0.31280    0.67690    1.000
    H8       H        0.38760    0.28880    0.68420    1.000
    C19      C        0.67350    0.30330    0.71530    1.000
    C20      C        0.86340    0.33940    0.70560    1.000
    H9       H        0.97290    0.33300    0.73090    1.000
    C21      C        0.88730    0.38500    0.65780    1.000
    H10      H        0.01280    0.41030    0.65230    1.000
    C22      C        0.64380    0.25130    0.76520    1.000
    C23      C        0.80340    0.20610    0.78520    1.000
    H11      H        0.93160    0.20900    0.76790    1.000
    C24      C        0.77840    0.15570    0.83080    1.000
    C25      C        0.58790    0.15260    0.85800    1.000
    C26      C        0.42760    0.20110    0.83800    1.000
    H12      H        0.30030    0.20070    0.85580    1.000
    C27      C        0.45670    0.24920    0.79230    1.000
    H13      H        0.34850    0.28060    0.77960    1.000
    C28      C        0.55360    0.10090    0.90650    1.000
    O7       O        0.93690    0.47660    0.55990    1.000
    O8       O        0.62410    0.45090    0.53080    1.000
    O9       O        0.39890    0.11260    0.93720    1.000
    O10      O        0.68440    0.04540    0.91460    1.000
    O11      O        0.37330    0.36290    0.59310    1.000
    O12      O        0.94350    0.11160    0.84610    1.000
    H14      H        0.90940    0.08070    0.87070    1.000
    Eu3      Eu       0.73811    0.93720    0.97723    1.000
    C29      C        0.76510    0.05920    0.06870    1.000
    C30      C        0.72830    0.10560    0.11750    1.000
    C31      C        0.53230    0.14300    0.12750    1.000
    C32      C        0.51370    0.18720    0.17690    1.000
    H15      H        0.38760    0.21120    0.18420    1.000
    C33      C        0.67350    0.19670    0.21530    1.000
    C34      C        0.86340    0.16060    0.20560    1.000
    H16      H        0.97290    0.16700    0.23090    1.000
    C35      C        0.88730    0.11500    0.15780    1.000
    H17      H        0.01280    0.08970    0.15230    1.000
    C36      C        0.64380    0.24870    0.26520    1.000
    C37      C        0.80340    0.29390    0.28520    1.000
    H18      H        0.93160    0.29100    0.26790    1.000
    C38      C        0.77840    0.34430    0.33080    1.000
    C39      C        0.58790    0.34740    0.35800    1.000
    C40      C        0.42760    0.29890    0.33800    1.000
    H19      H        0.30030    0.29930    0.35580    1.000
    C41      C        0.45670    0.25080    0.29230    1.000
    H20      H        0.34850    0.21940    0.27960    1.000
    C42      C        0.55360    0.39910    0.40650    1.000
    O13      O        0.93690    0.02340    0.05990    1.000
    O14      O        0.62410    0.04910    0.03080    1.000
    O15      O        0.39890    0.38740    0.43720    1.000
    O16      O        0.68440    0.45460    0.41460    1.000
    O17      O        0.37330    0.13710    0.09310    1.000
    O18      O        0.94350    0.38840    0.34610    1.000
    H21      H        0.90940    0.41930    0.37070    1.000
    Eu4      Eu       0.26189    0.43720    0.52277    1.000
    C43      C        0.23490    0.55920    0.43130    1.000
    C44      C        0.27170    0.60560    0.38250    1.000
    C45      C        0.46770    0.64300    0.37250    1.000
    C46      C        0.48630    0.68720    0.32310    1.000
    H22      H        0.61240    0.71120    0.31580    1.000
    C47      C        0.32650    0.69670    0.28470    1.000
    C48      C        0.13660    0.66060    0.29440    1.000
    H23      H        0.02710    0.66700    0.26910    1.000
    C49      C        0.11270    0.61500    0.34220    1.000
    H24      H        0.98720    0.58970    0.34770    1.000
    C50      C        0.35620    0.74870    0.23480    1.000
    C51      C        0.19660    0.79390    0.21480    1.000
    H25      H        0.06840    0.79100    0.23210    1.000
    C52      C        0.22160    0.84430    0.16920    1.000
    C53      C        0.41210    0.84740    0.14200    1.000
    C54      C        0.57240    0.79890    0.16200    1.000
    H26      H        0.69970    0.79930    0.14420    1.000
    C55      C        0.54330    0.75080    0.20770    1.000
    H27      H        0.65150    0.71940    0.22040    1.000
    C56      C        0.44640    0.89910    0.09350    1.000
    O19      O        0.06310    0.52340    0.44010    1.000
    O20      O        0.37590    0.54910    0.46920    1.000
    O21      O        0.60110    0.88740    0.06280    1.000
    O22      O        0.31560    0.95460    0.08540    1.000
    O23      O        0.62670    0.63710    0.40690    1.000
    O24      O        0.05650    0.88840    0.15390    1.000
    H28      H        0.09060    0.91930    0.12930    1.000
