data_functionalizedCrystal
_audit_creation_method	'EQeq! by Chris Wilmer'
_symmetry_space_group_name_H-M	'P1'
_symmetry_Int_Tables_number	1
_symmetry_cell_setting	triclinic
loop_
_symmetry_equiv_pos_as_xyz
  x,y,z
_cell_length_a	8.172
_cell_length_b	14.1969
_cell_length_c	14.1969
_cell_angle_alpha	110.241
_cell_angle_beta	91.0476
_cell_angle_gamma	88.9524
loop_
_atom_site_label
_atom_site_type_symbol
_atom_site_fract_x
_atom_site_fract_y
_atom_site_fract_z
_atom_site_charge
Mof_Ce	Ce	0.39888	0.91447	0.05243	2.168
Mof_Ce	Ce	0.89888	0.94757	0.08553	2.031
Mof_H 	H 	0.9026	0.2993	0.8669	0.113
Mof_H 	H 	0.9725	0.1049	0.5853	0.108
Mof_H 	H 	0.1229	0.3914	0.6604	0.097
Mof_H 	H 	0.9407	0.65	0.0472	-0.143
Mof_H 	H 	0.8745	0.4718	0.962	0.106
Mof_H 	H 	0.6178	0.9122	0.7002	0.111
Mof_H 	H 	0.7702	0.0085	0.6167	-0.014
Mof_H 	H 	0.3508	0.266	0.3412	0.026
Mof_H 	H 	0.2707	0.3441	0.5175	0.044
Mof_H 	H 	0.4026	0.1331	0.7007	0.093
Mof_H 	H 	0.4725	0.4147	0.8951	0.087
Mof_H 	H 	0.6229	0.3396	0.6086	0.071
Mof_H 	H 	0.4407	0.9528	0.35	-0.141
Mof_H 	H 	0.3745	0.038	0.5282	0.106
Mof_H 	H 	0.1178	0.2998	0.0878	0.116
Mof_H 	H 	0.2702	0.3833	0.9915	-0
Mof_H 	H 	0.8508	0.6588	0.734	0.012
Mof_H 	H 	0.7707	0.4825	0.6559	0.042
Mof_C 	C 	0.0174	0.3618	0.7762	0.146
Mof_C 	C 	0.9412	0.2857	0.8007	-0.241
Mof_C 	C 	0.9212	0.1899	0.7287	0.176
Mof_C 	C 	0.9824	0.1706	0.6334	-0.265
Mof_C 	C 	0.0578	0.2438	0.6058	0.178
Mof_C 	C 	0.0733	0.34	0.6782	-0.188
Mof_C 	C 	0.0336	0.4642	0.8512	0.047
Mof_C 	C 	0.1017	0.6413	0.9357	-0.166
Mof_C 	C 	0.9887	0.6088	0.986	0.21
Mof_C 	C 	0.9507	0.5069	0.9371	-0.225
Mof_C 	C 	0.1736	0.7445	0.9639	0.512
Mof_C 	C 	0.8348	0.1127	0.7543	-0.117
Mof_C 	C 	0.6869	0.0131	0.8395	0.099
Mof_C 	C 	0.6764	0.9715	0.7353	-0.286
Mof_C 	C 	0.7626	0.0275	0.6875	0.149
Mof_C 	C 	0.6098	0.9776	0.912	0.238
Mof_C 	C 	0.1271	0.2229	0.5045	-0.055
Mof_C 	C 	0.2047	0.1458	0.3284	-0.127
Mof_C 	C 	0.2777	0.2365	0.3739	0.026
Mof_C 	C 	0.2324	0.2808	0.4746	-0.049
Mof_C 	C 	0.2411	0.0749	0.2263	0.455
Mof_C 	C 	0.5174	0.2238	0.6382	0.069
Mof_C 	C 	0.4412	0.1993	0.7143	-0.144
Mof_C 	C 	0.4212	0.2713	0.8101	0.119
Mof_C 	C 	0.4824	0.3666	0.8294	-0.159
Mof_C 	C 	0.5578	0.3942	0.7562	0.085
Mof_C 	C 	0.5733	0.3218	0.66	-0.134
Mof_C 	C 	0.5336	0.1488	0.5358	0.022
Mof_C 	C 	0.6017	0.0643	0.3587	-0.224
Mof_C 	C 	0.4887	0.014	0.3912	0.257
Mof_C 	C 	0.4507	0.0629	0.4931	-0.191
Mof_C 	C 	0.6736	0.0361	0.2555	0.526
Mof_C 	C 	0.3348	0.2457	0.8873	-0.089
Mof_C 	C 	0.1869	0.1605	0.9869	0.09
Mof_C 	C 	0.1764	0.2647	0.0285	-0.267
Mof_C 	C 	0.2626	0.3125	0.9725	0.137
Mof_C 	C 	0.1098	0.088	0.0224	0.28
Mof_C 	C 	0.6271	0.4955	0.7771	-0.03
Mof_C 	C 	0.7047	0.6716	0.8542	-0.138
Mof_C 	C 	0.7777	0.6261	0.7635	0.031
Mof_C 	C 	0.7324	0.5254	0.7192	-0.076
Mof_C 	C 	0.7411	0.7737	0.9251	0.468
Mof_S 	S 	0.1662	0.54799	0.82973	0.043
Mof_S 	S 	0.8031	0.12046	0.876	0.042
Mof_S 	S 	0.0803	0.1147	0.40704	0.084
Mof_S 	S 	0.6662	0.17027	0.45201	0.029
Mof_S 	S 	0.3031	0.124	0.87954	0.06
Mof_S 	S 	0.5803	0.59296	0.8853	0.054
Mof_O 	O 	0.1104	0.8146	0.0364	-0.705
Mof_O 	O 	0.2958	0.7586	0.9182	-0.474
Mof_O 	O 	0.4954	0.9158	0.8848	-0.409
Mof_O 	O 	0.6582	0.0117	0.0053	-0.502
Mof_O 	O 	0.3494	0.0948	0.174	-0.452
Mof_O 	O 	0.1639	0.9909	0.1927	-0.651
Mof_O 	O 	0.6104	0.9636	0.1854	-0.738
Mof_O 	O 	0.7958	0.0818	0.2414	-0.484
Mof_O 	O 	0.9954	0.1152	0.0842	-0.447
Mof_O 	O 	0.1582	0.9947	0.9883	-0.49
Mof_O 	O 	0.8494	0.826	0.9052	-0.46
Mof_O 	O 	0.6639	0.8073	0.0091	-0.682
_end
