data_functionalizedCrystal
_audit_creation_method	'EQeq! by Chris Wilmer'
_symmetry_space_group_name_H-M	'P1'
_symmetry_Int_Tables_number	1
_symmetry_cell_setting	triclinic
loop_
_symmetry_equiv_pos_as_xyz
  x,y,z
_cell_length_a	8.505
_cell_length_b	9.536
_cell_length_c	13.145
_cell_angle_alpha	90
_cell_angle_beta	90
_cell_angle_gamma	94.73
loop_
_atom_site_label
_atom_site_type_symbol
_atom_site_fract_x
_atom_site_fract_y
_atom_site_fract_z
_atom_site_charge
Mof_Eu	Eu	0.03952	0.49251	0.76835	1.738
Mof_Eu	Eu	0.46048	0.00749	0.26835	1.736
Mof_Eu	Eu	0.96048	0.50749	0.23165	1.737
Mof_Eu	Eu	0.53952	0.99251	0.73165	1.735
Mof_C 	C 	0.0925	0.1245	0.9738	-0.089
Mof_C 	C 	0.9757	0.126	0.0492	-0.06
Mof_C 	C 	0.1176	0.9972	0.9259	-0.054
Mof_C 	C 	0.1984	0.2572	0.9478	0.415
Mof_C 	C 	0.9603	0.2559	0.1108	0.309
Mof_C 	C 	0.2538	0.9897	0.853	0.296
Mof_C 	C 	0.4075	0.3755	0.4738	-0.099
Mof_C 	C 	0.5243	0.374	0.5492	-0.053
Mof_C 	C 	0.3824	0.5028	0.4259	-0.049
Mof_C 	C 	0.3016	0.2428	0.4478	0.418
Mof_C 	C 	0.5397	0.2441	0.6108	0.307
Mof_C 	C 	0.2462	0.5103	0.353	0.3
Mof_C 	C 	0.9075	0.8755	0.0262	-0.089
Mof_C 	C 	0.0243	0.874	0.9508	-0.06
Mof_C 	C 	0.8824	0.0028	0.0741	-0.054
Mof_C 	C 	0.8016	0.7428	0.0522	0.415
Mof_C 	C 	0.0397	0.7441	0.8892	0.309
Mof_C 	C 	0.7462	0.0103	0.147	0.296
Mof_C 	C 	0.5925	0.6245	0.5262	-0.099
Mof_C 	C 	0.4757	0.626	0.4508	-0.053
Mof_C 	C 	0.6176	0.4972	0.5741	-0.049
Mof_C 	C 	0.6984	0.7572	0.5522	0.418
Mof_C 	C 	0.4603	0.7559	0.3892	0.307
Mof_C 	C 	0.7538	0.4897	0.647	0.3
Mof_O 	O 	0.1491	0.3414	0.8858	-0.513
Mof_O 	O 	0.3314	0.2688	0.9892	-0.324
Mof_O 	O 	0.9504	0.3728	0.067	-0.416
Mof_O 	O 	0.9626	0.2479	0.2057	-0.44
Mof_O 	O 	0.2825	0.084	0.7877	-0.419
Mof_O 	O 	0.3421	0.8897	0.863	-0.445
Mof_O 	O 	0.3509	0.1586	0.3858	-0.514
Mof_O 	O 	0.1686	0.2312	0.4892	-0.325
Mof_O 	O 	0.5496	0.1272	0.567	-0.413
Mof_O 	O 	0.5374	0.2521	0.7057	-0.438
Mof_O 	O 	0.2175	0.416	0.2877	-0.423
Mof_O 	O 	0.1579	0.6103	0.363	-0.444
Mof_O 	O 	0.8509	0.6586	0.1142	-0.513
Mof_O 	O 	0.6686	0.7312	0.0108	-0.324
Mof_O 	O 	0.0496	0.6272	0.933	-0.416
Mof_O 	O 	0.0374	0.7521	0.7943	-0.44
Mof_O 	O 	0.7175	0.916	0.2123	-0.419
Mof_O 	O 	0.6579	0.1103	0.137	-0.445
Mof_O 	O 	0.6491	0.8414	0.6142	-0.514
Mof_O 	O 	0.8314	0.7688	0.5108	-0.325
Mof_O 	O 	0.4504	0.8728	0.433	-0.413
Mof_O 	O 	0.4626	0.7479	0.2943	-0.438
Mof_O 	O 	0.7825	0.584	0.7123	-0.423
Mof_O 	O 	0.8421	0.3897	0.637	-0.444
_end
