# CIF file generated by openbabel 3.1.0, see https://openbabel.org
data_I
_chemical_name_common 'image0'
_cell_length_a 10.443
_cell_length_b 11.542
_cell_length_c 13.197
_cell_angle_alpha 87.51
_cell_angle_beta 70.648
_cell_angle_gamma 85.711
_space_group_name_H-M_alt 'P 1'
_space_group_name_Hall 'P 1'
loop_
    _symmetry_equiv_pos_as_xyz
    x,y,z
loop_
    _atom_site_label
    _atom_site_type_symbol
    _atom_site_fract_x
    _atom_site_fract_y
    _atom_site_fract_z
    _atom_site_occupancy
    Cd1      Cd       0.61267    0.88678    0.04891    1.000
    O1       O        0.48850    0.07520    0.08500    1.000
    O2       O        0.57950    0.00920    0.20480    1.000
    O3       O        0.72050    0.71000    0.96410    1.000
    O4       O        0.74260    0.73980    0.12110    1.000
    N1       N        0.80700    0.97650    0.94860    1.000
    N2       N        0.04470    0.99380    0.59250    1.000
    N3       N        0.43150    0.78770    0.15880    1.000
    N4       N        0.42220    0.58060    0.45810    1.000
    C1       C        0.24590    0.66810    0.18850    1.000
    H1       H        0.18450    0.63610    0.16200    1.000
    C2       C        0.84890    0.07070    0.98150    1.000
    H2       H        0.79830    0.10130    0.04790    1.000
    C3       C        0.96460    0.12370    0.92030    1.000
    H3       H        0.99000    0.18990    0.94460    1.000
    C4       C        0.04160    0.07790    0.82330    1.000
    H4       H        0.12090    0.11160    0.78200    1.000
    C5       C        0.00040    0.98120    0.78740    1.000
    C6       C        0.88200    0.93330    0.85470    1.000
    H5       H        0.85430    0.86720    0.83210    1.000
    C7       C        0.07620    0.92830    0.68060    1.000
    H6       H        0.17320    0.92720    0.66820    1.000
    H7       H        0.05210    0.84870    0.68130    1.000
    C8       C        0.90070    0.99440    0.60320    1.000
    H8       H        0.84630    0.03160    0.66960    1.000
    H9       H        0.87460    0.91510    0.60640    1.000
    C9       C        0.12650    0.94160    0.49040    1.000
    H10      H        0.10550    0.86110    0.49080    1.000
    H11      H        0.22210    0.94310    0.48210    1.000
    C10      C        0.34300    0.73720    0.12400    1.000
    H12      H        0.34750    0.74970    0.05280    1.000
    C11      C        0.24100    0.64670    0.29440    1.000
    H13      H        0.17700    0.59900    0.33920    1.000
    C12      C        0.33170    0.69680    0.33220    1.000
    C13      C        0.42600    0.76710    0.26060    1.000
    H14      H        0.48790    0.80120    0.28500    1.000
    C14      C        0.33290    0.67890    0.44620    1.000
    H15      H        0.36170    0.74860    0.46850    1.000
    H16      H        0.24120    0.66700    0.49330    1.000
    C15      C        0.54570    0.56270    0.40070    1.000
    H17      H        0.59560    0.62670    0.41020    1.000
    H18      H        0.55070    0.56410    0.32590    1.000
    C16      C        0.38280    0.54990    0.57710    1.000
    H19      H        0.40490    0.61240    0.61400    1.000
    H20      H        0.28520    0.54310    0.60590    1.000
    C17      C        0.75960    0.67700    0.04070    1.000
    C18      C        0.82710    0.55660    0.04050    1.000
    H21      H        0.89430    0.55820    0.07640    1.000
    H22      H        0.87440    0.53410    0.96680    1.000
    C19      C        0.72710    0.46570    0.09570    1.000
    C20      C        0.59320    0.47450    0.09740    1.000
    H23      H        0.56180    0.53980    0.06670    1.000
    C21      C        0.76890    0.36780    0.14410    1.000
    H24      H        0.85780    0.35980    0.14520    1.000
    C22      C        0.50560    0.38900    0.14340    1.000
    H25      H        0.41650    0.39710    0.14310    1.000
    C23      C        0.68230    0.28290    0.19040    1.000
    H26      H        0.71310    0.21850    0.22270    1.000
    C24      C        0.54960    0.29100    0.19010    1.000
    C25      C        0.45480    0.19400    0.23750    1.000
    H27      H        0.44840    0.17920    0.31190    1.000
    H28      H        0.36450    0.21690    0.23530    1.000
    C26      C        0.50960    0.08480    0.17330    1.000
    C27      C        0.42510    0.48070    0.42870    1.000
    H29      H        0.42860    0.48370    0.35430    1.000
    H30      H        0.34070    0.44740    0.47070    1.000
    C28      C        0.45490    0.60200    0.56200    1.000
    H31      H        0.47790    0.68190    0.56180    1.000
    H32      H        0.37490    0.59020    0.62400    1.000
    Cd2      Cd       0.38733    0.11322    0.95109    1.000
    O5       O        0.51150    0.92480    0.91500    1.000
    O6       O        0.42050    0.99080    0.79520    1.000
    O7       O        0.27950    0.29000    0.03590    1.000
    O8       O        0.25740    0.26020    0.87890    1.000
    N5       N        0.19300    0.02350    0.05140    1.000
    N6       N        0.95530    0.00620    0.40750    1.000
    N7       N        0.56850    0.21230    0.84120    1.000
    N8       N        0.57780    0.41940    0.54190    1.000
    C29      C        0.75410    0.33190    0.81150    1.000
    H33      H        0.81550    0.36390    0.83800    1.000
    C30      C        0.15110    0.92930    0.01850    1.000
    H34      H        0.20170    0.89870    0.95210    1.000
    C31      C        0.03540    0.87630    0.07970    1.000
    H35      H        0.01000    0.81010    0.05540    1.000
    C32      C        0.95840    0.92210    0.17670    1.000
    H36      H        0.87910    0.88840    0.21800    1.000
    C33      C        0.99960    0.01880    0.21260    1.000
    C34      C        0.11800    0.06670    0.14530    1.000
    H37      H        0.14570    0.13280    0.16790    1.000
    C35      C        0.92380    0.07170    0.31940    1.000
    H38      H        0.82680    0.07280    0.33180    1.000
    H39      H        0.94790    0.15130    0.31870    1.000
    C36      C        0.09930    0.00560    0.39680    1.000
    H40      H        0.15370    0.96840    0.33040    1.000
    H41      H        0.12540    0.08490    0.39360    1.000
    C37      C        0.87350    0.05840    0.50960    1.000
    H42      H        0.89450    0.13890    0.50920    1.000
    H43      H        0.77790    0.05690    0.51790    1.000
    C38      C        0.65700    0.26280    0.87600    1.000
    H44      H        0.65250    0.25030    0.94720    1.000
    C39      C        0.75900    0.35330    0.70560    1.000
    H45      H        0.82300    0.40100    0.66080    1.000
    C40      C        0.66830    0.30320    0.66780    1.000
    C41      C        0.57400    0.23290    0.73940    1.000
    H46      H        0.51210    0.19880    0.71500    1.000
    C42      C        0.66710    0.32110    0.55380    1.000
    H47      H        0.63830    0.25140    0.53150    1.000
    H48      H        0.75880    0.33300    0.50670    1.000
    C43      C        0.45430    0.43730    0.59930    1.000
    H49      H        0.40440    0.37330    0.58980    1.000
    H50      H        0.44930    0.43590    0.67410    1.000
    C44      C        0.61720    0.45010    0.42290    1.000
    H51      H        0.59510    0.38760    0.38600    1.000
    H52      H        0.71480    0.45690    0.39410    1.000
    C45      C        0.24040    0.32300    0.95930    1.000
    C46      C        0.17290    0.44340    0.95950    1.000
    H53      H        0.10570    0.44180    0.92360    1.000
    H54      H        0.12560    0.46590    0.03320    1.000
    C47      C        0.27290    0.53430    0.90430    1.000
    C48      C        0.40680    0.52550    0.90260    1.000
    H55      H        0.43820    0.46020    0.93330    1.000
    C49      C        0.23110    0.63220    0.85590    1.000
    H56      H        0.14220    0.64020    0.85480    1.000
    C50      C        0.49440    0.61100    0.85660    1.000
    H57      H        0.58350    0.60290    0.85690    1.000
    C51      C        0.31770    0.71710    0.80960    1.000
    H58      H        0.28690    0.78150    0.77730    1.000
    C52      C        0.45040    0.70900    0.80990    1.000
    C53      C        0.54520    0.80600    0.76250    1.000
    H59      H        0.55160    0.82080    0.68810    1.000
    H60      H        0.63550    0.78310    0.76470    1.000
    C54      C        0.49040    0.91520    0.82670    1.000
    C55      C        0.57490    0.51930    0.57130    1.000
    H61      H        0.57140    0.51630    0.64570    1.000
    H62      H        0.65930    0.55260    0.52930    1.000
    C56      C        0.54510    0.39800    0.43800    1.000
    H63      H        0.52210    0.31810    0.43820    1.000
    H64      H        0.62510    0.40980    0.37600    1.000
