data_functionalizedCrystal
_audit_creation_method	'EQeq! by Chris Wilmer'
_symmetry_space_group_name_H-M	'P1'
_symmetry_Int_Tables_number	1
_symmetry_cell_setting	triclinic
loop_
_symmetry_equiv_pos_as_xyz
  x,y,z
_cell_length_a	18.6923
_cell_length_b	18.6923
_cell_length_c	38.2023
_cell_angle_alpha	90
_cell_angle_beta	90
_cell_angle_gamma	120
loop_
_atom_site_label
_atom_site_type_symbol
_atom_site_fract_x
_atom_site_fract_y
_atom_site_fract_z
_atom_site_charge
Mof_O 	O 	0.58928	0.5568	0.54377	-0.389
Mof_C 	C 	0.7194	0.5671	0.54309	-0.052
Mof_C 	C 	0.6394	0.5458	0.52595	0.358
Mof_C 	C 	0.7351	0.5979	0.57705	-0.02
Mof_H 	H 	0.6972	0.6086	0.5883	0.08
Mof_C 	C 	0.899	0.7016	0.6434	-0.081
Mof_C 	C 	0.757	0.607	0.6554	0.041
Mof_O 	O 	0.0471	0.7783	0.6274	-0.221
Mof_O 	O 	0.968	0.7762	0.5933	-0.289
Mof_C 	C 	0.9777	0.7646	0.6181	0.443
Mof_O 	O 	0.62854	0.5174	0.49549	-0.39
Mof_O 	O 	0.25595	0.89013	0.8771	-0.39
Mof_C 	C 	0.38607	0.90043	0.87642	-0.053
Mof_C 	C 	0.30607	0.87913	0.85928	0.357
Mof_C 	C 	0.40177	0.93123	0.91038	-0.021
Mof_H 	H 	0.36387	0.94193	0.92163	0.079
Mof_C 	C 	0.56567	0.03493	0.97673	-0.081
Mof_C 	C 	0.42367	0.94033	0.98873	0.04
Mof_O 	O 	0.71377	0.11163	0.96073	-0.222
Mof_O 	O 	0.63467	0.10953	0.92663	-0.29
Mof_C 	C 	0.64437	0.09793	0.95143	0.441
Mof_O 	O 	0.29521	0.85073	0.82882	-0.39
Mof_O 	O 	0.92261	0.22347	0.21044	-0.39
Mof_C 	C 	0.05273	0.23377	0.20976	-0.053
Mof_C 	C 	0.97273	0.21247	0.19262	0.357
Mof_C 	C 	0.06843	0.26457	0.24372	-0.021
Mof_H 	H 	0.03053	0.27527	0.25497	0.079
Mof_C 	C 	0.23233	0.36827	0.31007	-0.082
Mof_C 	C 	0.09033	0.27367	0.32207	0.04
Mof_O 	O 	0.38043	0.44497	0.29407	-0.222
Mof_O 	O 	0.30133	0.44287	0.25997	-0.29
Mof_C 	C 	0.31103	0.43127	0.28477	0.442
Mof_O 	O 	0.96187	0.18407	0.16216	-0.39
Mof_O 	O 	0.4432	0.03248	0.54377	-0.39
Mof_C 	C 	0.4329	0.1523	0.54309	-0.053
Mof_C 	C 	0.4542	0.0936	0.52595	0.357
Mof_C 	C 	0.4021	0.1372	0.57705	-0.021
Mof_H 	H 	0.3914	0.0886	0.5883	0.079
Mof_C 	C 	0.2984	0.1974	0.6434	-0.082
Mof_C 	C 	0.393	0.15	0.6554	0.04
Mof_O 	O 	0.2217	0.2688	0.6274	-0.222
Mof_O 	O 	0.2238	0.1918	0.5933	-0.29
Mof_C 	C 	0.2354	0.2131	0.6181	0.442
Mof_O 	O 	0.4826	0.11114	0.49549	-0.39
Mof_O 	O 	0.10987	0.36581	0.8771	-0.39
Mof_C 	C 	0.09957	0.48563	0.87642	-0.053
Mof_C 	C 	0.12087	0.42693	0.85928	0.357
Mof_C 	C 	0.06877	0.47053	0.91038	-0.021
Mof_H 	H 	0.05807	0.42193	0.92163	0.079
Mof_C 	C 	0.96507	0.53073	0.97673	-0.082
Mof_C 	C 	0.05967	0.48333	0.98873	0.04
Mof_O 	O 	0.88837	0.60213	0.96073	-0.222
Mof_O 	O 	0.89047	0.52513	0.92663	-0.29
Mof_C 	C 	0.90207	0.54643	0.95143	0.441
Mof_O 	O 	0.14927	0.44447	0.82882	-0.39
Mof_O 	O 	0.77653	0.69915	0.21044	-0.39
Mof_C 	C 	0.76623	0.81897	0.20976	-0.053
Mof_C 	C 	0.78753	0.76027	0.19262	0.357
Mof_C 	C 	0.73543	0.80387	0.24372	-0.021
Mof_H 	H 	0.72473	0.75527	0.25497	0.079
Mof_C 	C 	0.63173	0.86407	0.31007	-0.082
Mof_C 	C 	0.72633	0.81667	0.32207	0.04
Mof_O 	O 	0.55503	0.93547	0.29407	-0.222
Mof_O 	O 	0.55713	0.85847	0.25997	-0.29
Mof_C 	C 	0.56873	0.87977	0.28477	0.442
Mof_O 	O 	0.81593	0.77781	0.16216	-0.39
Mof_O 	O 	0.96752	0.41072	0.54377	-0.39
Mof_C 	C 	0.8477	0.2806	0.54309	-0.053
Mof_C 	C 	0.9064	0.3606	0.52595	0.357
Mof_C 	C 	0.8628	0.2649	0.57705	-0.021
Mof_H 	H 	0.9114	0.3028	0.5883	0.079
Mof_C 	C 	0.8026	0.101	0.6434	-0.082
Mof_C 	C 	0.85	0.243	0.6554	0.04
Mof_O 	O 	0.7312	0.9529	0.6274	-0.222
Mof_O 	O 	0.8082	0.032	0.5933	-0.29
Mof_C 	C 	0.7869	0.0223	0.6181	0.442
Mof_O 	O 	0.88886	0.37146	0.49549	-0.39
Mof_O 	O 	0.63419	0.74405	0.8771	-0.39
Mof_C 	C 	0.51437	0.61393	0.87642	-0.053
Mof_C 	C 	0.57307	0.69393	0.85928	0.357
Mof_C 	C 	0.52947	0.59823	0.91038	-0.021
Mof_H 	H 	0.57807	0.63613	0.92163	0.079
Mof_C 	C 	0.46927	0.43433	0.97673	-0.082
Mof_C 	C 	0.51667	0.57633	0.98873	0.04
Mof_O 	O 	0.39787	0.28623	0.96073	-0.222
Mof_O 	O 	0.47487	0.36533	0.92663	-0.29
Mof_C 	C 	0.45357	0.35563	0.95143	0.442
Mof_O 	O 	0.55553	0.70479	0.82882	-0.39
Mof_O 	O 	0.30085	0.07739	0.21044	-0.39
Mof_C 	C 	0.18103	0.94727	0.20976	-0.053
Mof_C 	C 	0.23973	0.02727	0.19262	0.357
Mof_C 	C 	0.19613	0.93157	0.24372	-0.021
Mof_H 	H 	0.24473	0.96947	0.25497	0.079
Mof_C 	C 	0.13593	0.76767	0.31007	-0.082
Mof_C 	C 	0.18333	0.90967	0.32207	0.04
Mof_O 	O 	0.06453	0.61957	0.29407	-0.222
Mof_O 	O 	0.14153	0.69867	0.25997	-0.29
Mof_C 	C 	0.12023	0.68897	0.28477	0.442
Mof_O 	O 	0.22219	0.03813	0.16216	-0.39
Mof_O 	O 	0.5568	0.58928	0.45623	-0.39
Mof_C 	C 	0.5671	0.7194	0.45691	-0.053
Mof_C 	C 	0.5458	0.6394	0.47405	0.357
Mof_C 	C 	0.5979	0.7351	0.42295	-0.021
Mof_H 	H 	0.6086	0.6972	0.4117	0.079
Mof_C 	C 	0.7016	0.899	0.3566	-0.082
Mof_C 	C 	0.607	0.757	0.3446	0.04
Mof_O 	O 	0.7783	0.0471	0.3726	-0.222
Mof_O 	O 	0.7762	0.968	0.4067	-0.29
Mof_C 	C 	0.7646	0.9777	0.3819	0.442
Mof_O 	O 	0.5174	0.62854	0.50451	-0.39
Mof_O 	O 	0.22347	0.92261	0.78956	-0.39
Mof_C 	C 	0.23377	0.05273	0.79024	-0.053
Mof_C 	C 	0.21247	0.97273	0.80738	0.357
Mof_C 	C 	0.26457	0.06843	0.75628	-0.021
Mof_H 	H 	0.27527	0.03053	0.74503	0.079
Mof_C 	C 	0.36827	0.23233	0.68993	-0.082
Mof_C 	C 	0.27367	0.09033	0.67793	0.04
Mof_O 	O 	0.44497	0.38043	0.70593	-0.222
Mof_O 	O 	0.44287	0.30133	0.74003	-0.29
Mof_C 	C 	0.43127	0.31103	0.71523	0.442
Mof_O 	O 	0.18407	0.96187	0.83784	-0.39
Mof_O 	O 	0.89013	0.25595	0.1229	-0.39
Mof_C 	C 	0.90043	0.38607	0.12358	-0.053
Mof_C 	C 	0.87913	0.30607	0.14072	0.357
Mof_C 	C 	0.93123	0.40177	0.08962	-0.021
Mof_H 	H 	0.94193	0.36387	0.07837	0.079
Mof_C 	C 	0.03493	0.56567	0.02327	-0.081
Mof_C 	C 	0.94033	0.42367	0.01127	0.04
Mof_O 	O 	0.11163	0.71377	0.03927	-0.222
Mof_O 	O 	0.10953	0.63467	0.07337	-0.29
Mof_C 	C 	0.09793	0.64437	0.04857	0.441
Mof_O 	O 	0.85073	0.29521	0.17118	-0.39
Mof_O 	O 	0.03248	0.4432	0.45623	-0.39
Mof_C 	C 	0.1523	0.4329	0.45691	-0.053
Mof_C 	C 	0.0936	0.4542	0.47405	0.357
Mof_C 	C 	0.1372	0.4021	0.42295	-0.021
Mof_H 	H 	0.0886	0.3914	0.4117	0.079
Mof_C 	C 	0.1974	0.2984	0.3566	-0.082
Mof_C 	C 	0.15	0.393	0.3446	0.04
Mof_O 	O 	0.2688	0.2217	0.3726	-0.222
Mof_O 	O 	0.1918	0.2238	0.4067	-0.29
Mof_C 	C 	0.2131	0.2354	0.3819	0.442
Mof_O 	O 	0.11114	0.4826	0.50451	-0.39
Mof_O 	O 	0.69915	0.77653	0.78956	-0.39
Mof_C 	C 	0.81897	0.76623	0.79024	-0.053
Mof_C 	C 	0.76027	0.78753	0.80738	0.357
Mof_C 	C 	0.80387	0.73543	0.75628	-0.021
Mof_H 	H 	0.75527	0.72473	0.74503	0.079
Mof_C 	C 	0.86407	0.63173	0.68993	-0.082
Mof_C 	C 	0.81667	0.72633	0.67793	0.04
Mof_O 	O 	0.93547	0.55503	0.70593	-0.222
Mof_O 	O 	0.85847	0.55713	0.74003	-0.29
Mof_C 	C 	0.87977	0.56873	0.71523	0.442
Mof_O 	O 	0.77781	0.81593	0.83784	-0.39
Mof_O 	O 	0.36581	0.10987	0.1229	-0.39
Mof_C 	C 	0.48563	0.09957	0.12358	-0.053
Mof_C 	C 	0.42693	0.12087	0.14072	0.357
Mof_C 	C 	0.47053	0.06877	0.08962	-0.021
Mof_H 	H 	0.42193	0.05807	0.07837	0.079
Mof_C 	C 	0.53073	0.96507	0.02327	-0.082
Mof_C 	C 	0.48333	0.05967	0.01127	0.04
Mof_O 	O 	0.60213	0.88837	0.03927	-0.222
Mof_O 	O 	0.52513	0.89047	0.07337	-0.29
Mof_C 	C 	0.54643	0.90207	0.04857	0.441
Mof_O 	O 	0.44447	0.14927	0.17118	-0.39
Mof_O 	O 	0.41072	0.96752	0.45623	-0.39
Mof_C 	C 	0.2806	0.8477	0.45691	-0.053
Mof_C 	C 	0.3606	0.9064	0.47405	0.357
Mof_C 	C 	0.2649	0.8628	0.42295	-0.021
Mof_H 	H 	0.3028	0.9114	0.4117	0.079
Mof_C 	C 	0.101	0.8026	0.3566	-0.082
Mof_C 	C 	0.243	0.85	0.3446	0.04
Mof_O 	O 	0.9529	0.7312	0.3726	-0.222
Mof_O 	O 	0.032	0.8082	0.4067	-0.29
Mof_C 	C 	0.0223	0.7869	0.3819	0.442
Mof_O 	O 	0.37146	0.88886	0.50451	-0.39
Mof_O 	O 	0.07739	0.30085	0.78956	-0.39
Mof_C 	C 	0.94727	0.18103	0.79024	-0.053
Mof_C 	C 	0.02727	0.23973	0.80738	0.357
Mof_C 	C 	0.93157	0.19613	0.75628	-0.021
Mof_H 	H 	0.96947	0.24473	0.74503	0.079
Mof_C 	C 	0.76767	0.13593	0.68993	-0.082
Mof_C 	C 	0.90967	0.18333	0.67793	0.04
Mof_O 	O 	0.61957	0.06453	0.70593	-0.222
Mof_O 	O 	0.69867	0.14153	0.74003	-0.29
Mof_C 	C 	0.68897	0.12023	0.71523	0.442
Mof_O 	O 	0.03813	0.22219	0.83784	-0.39
Mof_O 	O 	0.74405	0.63419	0.1229	-0.39
Mof_C 	C 	0.61393	0.51437	0.12358	-0.053
Mof_C 	C 	0.69393	0.57307	0.14072	0.357
Mof_C 	C 	0.59823	0.52947	0.08962	-0.021
Mof_H 	H 	0.63613	0.57807	0.07837	0.079
Mof_C 	C 	0.43433	0.46927	0.02327	-0.082
Mof_C 	C 	0.57633	0.51667	0.01127	0.04
Mof_O 	O 	0.28623	0.39787	0.03927	-0.222
Mof_O 	O 	0.36533	0.47487	0.07337	-0.29
Mof_C 	C 	0.35563	0.45357	0.04857	0.442
Mof_O 	O 	0.70479	0.55553	0.17118	-0.39
Mof_O 	O 	0.41072	0.4432	0.45623	-0.39
Mof_C 	C 	0.2806	0.4329	0.45691	-0.053
Mof_C 	C 	0.3606	0.4542	0.47405	0.357
Mof_C 	C 	0.2649	0.4021	0.42295	-0.021
Mof_H 	H 	0.3028	0.3914	0.4117	0.079
Mof_C 	C 	0.101	0.2984	0.3566	-0.082
Mof_C 	C 	0.243	0.393	0.3446	0.04
Mof_O 	O 	0.9529	0.2217	0.3726	-0.222
Mof_O 	O 	0.032	0.2238	0.4067	-0.29
Mof_C 	C 	0.0223	0.2354	0.3819	0.442
Mof_O 	O 	0.37146	0.4826	0.50451	-0.39
Mof_O 	O 	0.07739	0.77653	0.78956	-0.39
Mof_C 	C 	0.94727	0.76623	0.79024	-0.053
Mof_C 	C 	0.02727	0.78753	0.80738	0.357
Mof_C 	C 	0.93157	0.73543	0.75628	-0.021
Mof_H 	H 	0.96947	0.72473	0.74503	0.079
Mof_C 	C 	0.76767	0.63173	0.68993	-0.082
Mof_C 	C 	0.90967	0.72633	0.67793	0.04
Mof_O 	O 	0.61957	0.55503	0.70593	-0.222
Mof_O 	O 	0.69867	0.55713	0.74003	-0.29
Mof_C 	C 	0.68897	0.56873	0.71523	0.442
Mof_O 	O 	0.03813	0.81593	0.83784	-0.39
Mof_O 	O 	0.74405	0.10987	0.1229	-0.39
Mof_C 	C 	0.61393	0.09957	0.12358	-0.053
Mof_C 	C 	0.69393	0.12087	0.14072	0.357
Mof_C 	C 	0.59823	0.06877	0.08962	-0.021
Mof_H 	H 	0.63613	0.05807	0.07837	0.079
Mof_C 	C 	0.43433	0.96507	0.02327	-0.081
Mof_C 	C 	0.57633	0.05967	0.01127	0.04
Mof_O 	O 	0.28623	0.88837	0.03927	-0.222
Mof_O 	O 	0.36533	0.89047	0.07337	-0.29
Mof_C 	C 	0.35563	0.90207	0.04857	0.441
Mof_O 	O 	0.70479	0.14927	0.17118	-0.39
Mof_O 	O 	0.5568	0.96752	0.45623	-0.39
Mof_C 	C 	0.5671	0.8477	0.45691	-0.053
Mof_C 	C 	0.5458	0.9064	0.47405	0.357
Mof_C 	C 	0.5979	0.8628	0.42295	-0.021
Mof_H 	H 	0.6086	0.9114	0.4117	0.079
Mof_C 	C 	0.7016	0.8026	0.3566	-0.082
Mof_C 	C 	0.607	0.85	0.3446	0.04
Mof_O 	O 	0.7783	0.7312	0.3726	-0.222
Mof_O 	O 	0.7762	0.8082	0.4067	-0.29
Mof_C 	C 	0.7646	0.7869	0.3819	0.442
Mof_O 	O 	0.5174	0.88886	0.50451	-0.39
Mof_O 	O 	0.22347	0.30085	0.78956	-0.39
Mof_C 	C 	0.23377	0.18103	0.79024	-0.053
Mof_C 	C 	0.21247	0.23973	0.80738	0.357
Mof_C 	C 	0.26457	0.19613	0.75628	-0.021
Mof_H 	H 	0.27527	0.24473	0.74503	0.079
Mof_C 	C 	0.36827	0.13593	0.68993	-0.082
Mof_C 	C 	0.27367	0.18333	0.67793	0.04
Mof_O 	O 	0.44497	0.06453	0.70593	-0.222
Mof_O 	O 	0.44287	0.14153	0.74003	-0.29
Mof_C 	C 	0.43127	0.12023	0.71523	0.442
Mof_O 	O 	0.18407	0.22219	0.83784	-0.39
Mof_O 	O 	0.89013	0.63419	0.1229	-0.39
Mof_C 	C 	0.90043	0.51437	0.12358	-0.053
Mof_C 	C 	0.87913	0.57307	0.14072	0.357
Mof_C 	C 	0.93123	0.52947	0.08962	-0.021
Mof_H 	H 	0.94193	0.57807	0.07837	0.079
Mof_C 	C 	0.03493	0.46927	0.02327	-0.082
Mof_C 	C 	0.94033	0.51667	0.01127	0.04
Mof_O 	O 	0.11163	0.39787	0.03927	-0.222
Mof_O 	O 	0.10953	0.47487	0.07337	-0.29
Mof_C 	C 	0.09793	0.45357	0.04857	0.441
Mof_O 	O 	0.85073	0.55553	0.17118	-0.39
Mof_O 	O 	0.03248	0.58928	0.45623	-0.39
Mof_C 	C 	0.1523	0.7194	0.45691	-0.053
Mof_C 	C 	0.0936	0.6394	0.47405	0.357
Mof_C 	C 	0.1372	0.7351	0.42295	-0.021
Mof_H 	H 	0.0886	0.6972	0.4117	0.079
Mof_C 	C 	0.1974	0.899	0.3566	-0.082
Mof_C 	C 	0.15	0.757	0.3446	0.04
Mof_O 	O 	0.2688	0.0471	0.3726	-0.222
Mof_O 	O 	0.1918	0.968	0.4067	-0.29
Mof_C 	C 	0.2131	0.9777	0.3819	0.442
Mof_O 	O 	0.11114	0.62854	0.50451	-0.39
Mof_O 	O 	0.69915	0.92261	0.78956	-0.39
Mof_C 	C 	0.81897	0.05273	0.79024	-0.053
Mof_C 	C 	0.76027	0.97273	0.80738	0.357
Mof_C 	C 	0.80387	0.06843	0.75628	-0.021
Mof_H 	H 	0.75527	0.03053	0.74503	0.079
Mof_C 	C 	0.86407	0.23233	0.68993	-0.082
Mof_C 	C 	0.81667	0.09033	0.67793	0.04
Mof_O 	O 	0.93547	0.38043	0.70593	-0.222
Mof_O 	O 	0.85847	0.30133	0.74003	-0.29
Mof_C 	C 	0.87977	0.31103	0.71523	0.442
Mof_O 	O 	0.77781	0.96187	0.83784	-0.39
Mof_O 	O 	0.36581	0.25595	0.1229	-0.39
Mof_C 	C 	0.48563	0.38607	0.12358	-0.053
Mof_C 	C 	0.42693	0.30607	0.14072	0.357
Mof_C 	C 	0.47053	0.40177	0.08962	-0.021
Mof_H 	H 	0.42193	0.36387	0.07837	0.079
Mof_C 	C 	0.53073	0.56567	0.02327	-0.082
Mof_C 	C 	0.48333	0.42367	0.01127	0.04
Mof_O 	O 	0.60213	0.71377	0.03927	-0.222
Mof_O 	O 	0.52513	0.63467	0.07337	-0.29
Mof_C 	C 	0.54643	0.64437	0.04857	0.442
Mof_O 	O 	0.44447	0.29521	0.17118	-0.39
Mof_O 	O 	0.4432	0.41072	0.54377	-0.39
Mof_C 	C 	0.4329	0.2806	0.54309	-0.053
Mof_C 	C 	0.4542	0.3606	0.52595	0.357
Mof_C 	C 	0.4021	0.2649	0.57705	-0.021
Mof_H 	H 	0.3914	0.3028	0.5883	0.079
Mof_C 	C 	0.2984	0.101	0.6434	-0.082
Mof_C 	C 	0.393	0.243	0.6554	0.04
Mof_O 	O 	0.2217	0.9529	0.6274	-0.222
Mof_O 	O 	0.2238	0.032	0.5933	-0.29
Mof_C 	C 	0.2354	0.0223	0.6181	0.442
Mof_O 	O 	0.4826	0.37146	0.49549	-0.39
Mof_O 	O 	0.10987	0.74405	0.8771	-0.39
Mof_C 	C 	0.09957	0.61393	0.87642	-0.053
Mof_C 	C 	0.12087	0.69393	0.85928	0.357
Mof_C 	C 	0.06877	0.59823	0.91038	-0.021
Mof_H 	H 	0.05807	0.63613	0.92163	0.079
Mof_C 	C 	0.96507	0.43433	0.97673	-0.081
Mof_C 	C 	0.05967	0.57633	0.98873	0.04
Mof_O 	O 	0.88837	0.28623	0.96073	-0.222
Mof_O 	O 	0.89047	0.36533	0.92663	-0.29
Mof_C 	C 	0.90207	0.35563	0.95143	0.441
Mof_O 	O 	0.14927	0.70479	0.82882	-0.39
Mof_O 	O 	0.77653	0.07739	0.21044	-0.39
Mof_C 	C 	0.76623	0.94727	0.20976	-0.053
Mof_C 	C 	0.78753	0.02727	0.19262	0.357
Mof_C 	C 	0.73543	0.93157	0.24372	-0.021
Mof_H 	H 	0.72473	0.96947	0.25497	0.079
Mof_C 	C 	0.63173	0.76767	0.31007	-0.082
Mof_C 	C 	0.72633	0.90967	0.32207	0.04
Mof_O 	O 	0.55503	0.61957	0.29407	-0.222
Mof_O 	O 	0.55713	0.69867	0.25997	-0.29
Mof_C 	C 	0.56873	0.68897	0.28477	0.442
Mof_O 	O 	0.81593	0.03813	0.16216	-0.39
Mof_O 	O 	0.96752	0.5568	0.54377	-0.39
Mof_C 	C 	0.8477	0.5671	0.54309	-0.053
Mof_C 	C 	0.9064	0.5458	0.52595	0.357
Mof_C 	C 	0.8628	0.5979	0.57705	-0.021
Mof_H 	H 	0.9114	0.6086	0.5883	0.079
Mof_C 	C 	0.8026	0.7016	0.6434	-0.082
Mof_C 	C 	0.85	0.607	0.6554	0.04
Mof_O 	O 	0.7312	0.7783	0.6274	-0.222
Mof_O 	O 	0.8082	0.7762	0.5933	-0.29
Mof_C 	C 	0.7869	0.7646	0.6181	0.442
Mof_O 	O 	0.88886	0.5174	0.49549	-0.39
Mof_O 	O 	0.63419	0.89013	0.8771	-0.39
Mof_C 	C 	0.51437	0.90043	0.87642	-0.053
Mof_C 	C 	0.57307	0.87913	0.85928	0.357
Mof_C 	C 	0.52947	0.93123	0.91038	-0.021
Mof_H 	H 	0.57807	0.94193	0.92163	0.079
Mof_C 	C 	0.46927	0.03493	0.97673	-0.082
Mof_C 	C 	0.51667	0.94033	0.98873	0.04
Mof_O 	O 	0.39787	0.11163	0.96073	-0.222
Mof_O 	O 	0.47487	0.10953	0.92663	-0.29
Mof_C 	C 	0.45357	0.09793	0.95143	0.441
Mof_O 	O 	0.55553	0.85073	0.82882	-0.39
Mof_O 	O 	0.30085	0.22347	0.21044	-0.39
Mof_C 	C 	0.18103	0.23377	0.20976	-0.053
Mof_C 	C 	0.23973	0.21247	0.19262	0.357
Mof_C 	C 	0.19613	0.26457	0.24372	-0.021
Mof_H 	H 	0.24473	0.27527	0.25497	0.079
Mof_C 	C 	0.13593	0.36827	0.31007	-0.082
Mof_C 	C 	0.18333	0.27367	0.32207	0.04
Mof_O 	O 	0.06453	0.44497	0.29407	-0.222
Mof_O 	O 	0.14153	0.44287	0.25997	-0.29
Mof_C 	C 	0.12023	0.43127	0.28477	0.442
Mof_O 	O 	0.22219	0.18407	0.16216	-0.39
Mof_O 	O 	0.58928	0.03248	0.54377	-0.39
Mof_C 	C 	0.7194	0.1523	0.54309	-0.053
Mof_C 	C 	0.6394	0.0936	0.52595	0.357
Mof_C 	C 	0.7351	0.1372	0.57705	-0.021
Mof_H 	H 	0.6972	0.0886	0.5883	0.079
Mof_C 	C 	0.899	0.1974	0.6434	-0.082
Mof_C 	C 	0.757	0.15	0.6554	0.04
Mof_O 	O 	0.0471	0.2688	0.6274	-0.222
Mof_O 	O 	0.968	0.1918	0.5933	-0.29
Mof_C 	C 	0.9777	0.2131	0.6181	0.442
Mof_O 	O 	0.62854	0.11114	0.49549	-0.39
Mof_O 	O 	0.25595	0.36581	0.8771	-0.39
Mof_C 	C 	0.38607	0.48563	0.87642	-0.053
Mof_C 	C 	0.30607	0.42693	0.85928	0.357
Mof_C 	C 	0.40177	0.47053	0.91038	-0.021
Mof_H 	H 	0.36387	0.42193	0.92163	0.079
Mof_C 	C 	0.56567	0.53073	0.97673	-0.082
Mof_C 	C 	0.42367	0.48333	0.98873	0.04
Mof_O 	O 	0.71377	0.60213	0.96073	-0.222
Mof_O 	O 	0.63467	0.52513	0.92663	-0.29
Mof_C 	C 	0.64437	0.54643	0.95143	0.442
Mof_O 	O 	0.29521	0.44447	0.82882	-0.39
Mof_O 	O 	0.92261	0.69915	0.21044	-0.39
Mof_C 	C 	0.05273	0.81897	0.20976	-0.053
Mof_C 	C 	0.97273	0.76027	0.19262	0.357
Mof_C 	C 	0.06843	0.80387	0.24372	-0.021
Mof_H 	H 	0.03053	0.75527	0.25497	0.079
Mof_C 	C 	0.23233	0.86407	0.31007	-0.082
Mof_C 	C 	0.09033	0.81667	0.32207	0.04
Mof_O 	O 	0.38043	0.93547	0.29407	-0.222
Mof_O 	O 	0.30133	0.85847	0.25997	-0.29
Mof_C 	C 	0.31103	0.87977	0.28477	0.442
Mof_O 	O 	0.96187	0.77781	0.16216	-0.39
Mof_Cu	Cu	0.4769	0.5231	0.52873	0.913
Mof_Cu	Cu	0.14357	0.85643	0.86207	0.913
Mof_Cu	Cu	0.81023	0.18977	0.1954	0.913
Mof_Cu	Cu	0.4769	0.9538	0.52873	0.913
Mof_Cu	Cu	0.14357	0.28713	0.86207	0.913
Mof_Cu	Cu	0.81023	0.62046	0.1954	0.913
Mof_Cu	Cu	0.0462	0.5231	0.52873	0.913
Mof_Cu	Cu	0.71287	0.85643	0.86207	0.913
Mof_Cu	Cu	0.37954	0.18977	0.1954	0.913
Mof_Cu	Cu	0.5231	0.4769	0.47127	0.913
Mof_Cu	Cu	0.18977	0.81023	0.8046	0.913
Mof_Cu	Cu	0.85643	0.14357	0.13793	0.913
Mof_Cu	Cu	0.9538	0.4769	0.47127	0.913
Mof_Cu	Cu	0.62046	0.81023	0.8046	0.913
Mof_Cu	Cu	0.28713	0.14357	0.13793	0.913
Mof_Cu	Cu	0.5231	0.0462	0.47127	0.913
Mof_Cu	Cu	0.18977	0.37954	0.8046	0.913
Mof_Cu	Cu	0.85643	0.71287	0.13793	0.913
Mof_C 	C 	0.8214	0.6428	0.63146	0.028
Mof_C 	C 	0.77535	0.5507	0.52638	0.018
Mof_H 	H 	0.7643	0.5286	0.5039	0.07
Mof_C 	C 	0.8065	0.613	0.59452	0.031
Mof_C 	C 	0.48807	0.97613	0.96479	0.028
Mof_C 	C 	0.44202	0.88403	0.85971	0.018
Mof_H 	H 	0.43097	0.86193	0.83723	0.07
Mof_C 	C 	0.47317	0.94633	0.92785	0.031
Mof_C 	C 	0.15473	0.30947	0.29813	0.028
Mof_C 	C 	0.10868	0.21737	0.19305	0.017
Mof_H 	H 	0.09763	0.19527	0.17057	0.07
Mof_C 	C 	0.13983	0.27967	0.26119	0.031
Mof_C 	C 	0.3572	0.1786	0.63146	0.028
Mof_C 	C 	0.4493	0.22465	0.52638	0.018
Mof_H 	H 	0.4714	0.2357	0.5039	0.07
Mof_C 	C 	0.387	0.1935	0.59452	0.031
Mof_C 	C 	0.02387	0.51193	0.96479	0.028
Mof_C 	C 	0.11597	0.55798	0.85971	0.018
Mof_H 	H 	0.13807	0.56903	0.83723	0.07
Mof_C 	C 	0.05367	0.52683	0.92785	0.031
Mof_C 	C 	0.69053	0.84527	0.29813	0.028
Mof_C 	C 	0.78263	0.89132	0.19305	0.017
Mof_H 	H 	0.80473	0.90237	0.17057	0.07
Mof_C 	C 	0.72033	0.86017	0.26119	0.031
Mof_C 	C 	0.8214	0.1786	0.63146	0.028
Mof_C 	C 	0.77535	0.22465	0.52638	0.018
Mof_H 	H 	0.7643	0.2357	0.5039	0.07
Mof_C 	C 	0.8065	0.1935	0.59452	0.031
Mof_C 	C 	0.48807	0.51193	0.96479	0.028
Mof_C 	C 	0.44202	0.55798	0.85971	0.018
Mof_H 	H 	0.43097	0.56903	0.83723	0.07
Mof_C 	C 	0.47317	0.52683	0.92785	0.031
Mof_C 	C 	0.15473	0.84527	0.29813	0.028
Mof_C 	C 	0.10868	0.89132	0.19305	0.017
Mof_H 	H 	0.09763	0.90237	0.17057	0.07
Mof_C 	C 	0.13983	0.86017	0.26119	0.031
Mof_C 	C 	0.6428	0.8214	0.36854	0.028
Mof_C 	C 	0.5507	0.77535	0.47362	0.018
Mof_H 	H 	0.5286	0.7643	0.4961	0.07
Mof_C 	C 	0.613	0.8065	0.40548	0.031
Mof_C 	C 	0.30947	0.15473	0.70187	0.028
Mof_C 	C 	0.21737	0.10868	0.80695	0.017
Mof_H 	H 	0.19527	0.09763	0.82943	0.07
Mof_C 	C 	0.27967	0.13983	0.73881	0.031
Mof_C 	C 	0.97613	0.48807	0.03521	0.028
Mof_C 	C 	0.88403	0.44202	0.14029	0.018
Mof_H 	H 	0.86193	0.43097	0.16277	0.07
Mof_C 	C 	0.94633	0.47317	0.07215	0.031
Mof_C 	C 	0.1786	0.3572	0.36854	0.028
Mof_C 	C 	0.22465	0.4493	0.47362	0.018
Mof_H 	H 	0.2357	0.4714	0.4961	0.07
Mof_C 	C 	0.1935	0.387	0.40548	0.031
Mof_C 	C 	0.84527	0.69053	0.70187	0.028
Mof_C 	C 	0.89132	0.78263	0.80695	0.017
Mof_H 	H 	0.90237	0.80473	0.82943	0.07
Mof_C 	C 	0.86017	0.72033	0.73881	0.031
Mof_C 	C 	0.51193	0.02387	0.03521	0.028
Mof_C 	C 	0.55798	0.11597	0.14029	0.018
Mof_H 	H 	0.56903	0.13807	0.16277	0.07
Mof_C 	C 	0.52683	0.05367	0.07215	0.031
Mof_C 	C 	0.1786	0.8214	0.36854	0.028
Mof_C 	C 	0.22465	0.77535	0.47362	0.018
Mof_H 	H 	0.2357	0.7643	0.4961	0.07
Mof_C 	C 	0.1935	0.8065	0.40548	0.031
Mof_C 	C 	0.84527	0.15473	0.70187	0.028
Mof_C 	C 	0.89132	0.10868	0.80695	0.017
Mof_H 	H 	0.90237	0.09763	0.82943	0.07
Mof_C 	C 	0.86017	0.13983	0.73881	0.031
Mof_C 	C 	0.51193	0.48807	0.03521	0.028
Mof_C 	C 	0.55798	0.44202	0.14029	0.018
Mof_H 	H 	0.56903	0.43097	0.16277	0.07
Mof_C 	C 	0.52683	0.47317	0.07215	0.031
_end
