data_functionalizedCrystal
_audit_creation_method	'EQeq! by Chris Wilmer'
_symmetry_space_group_name_H-M	'P1'
_symmetry_Int_Tables_number	1
_symmetry_cell_setting	triclinic
loop_
_symmetry_equiv_pos_as_xyz
  x,y,z
_cell_length_a	49.365
_cell_length_b	49.365
_cell_length_c	49.365
_cell_angle_alpha	90
_cell_angle_beta	90
_cell_angle_gamma	90
loop_
_atom_site_label
_atom_site_type_symbol
_atom_site_fract_x
_atom_site_fract_y
_atom_site_fract_z
_atom_site_charge
Mof_O 	O 	0.25187	0.42023	0.97577	-0.584
Mof_O 	O 	0.21111	0.44804	0.94731	-0.608
Mof_O 	O 	0.17675	0.52756	0.02887	-0.589
Mof_O 	O 	0.9802	0.9297	0.04	-0.52
Mof_C 	C 	0.266	0.3652	0.0259	0.077
Mof_H 	H 	0.2656	0.3746	0.0423	0.044
Mof_C 	C 	0.2707	0.3377	0.025	-0.149
Mof_H 	H 	0.2722	0.3277	0.0409	0.134
Mof_C 	C 	0.2952	0.2308	0.0219	0.113
Mof_C 	C 	0.1869	0.546	0.0462	0.447
Mof_C 	C 	0.1654	0.5595	0.0622	-0.156
Mof_C 	C 	0.17235	0.5782	0.0821	0.125
Mof_H 	H 	0.1904	0.5808	0.0867	0.028
Mof_C 	C 	0.1523	0.5929	0.0953	-0.18
Mof_H 	H 	0.1569	0.6053	0.1086	0.142
Mof_C 	C 	0.1252	0.5889	0.0885	0.18
Mof_C 	C 	0.11826	0.5702	0.0686	-0.179
Mof_H 	H 	0.1002	0.5676	0.0641	0.134
Mof_C 	C 	0.1384	0.5555	0.0555	0.124
Mof_H 	H 	0.1337	0.5431	0.0421	0.025
Mof_C 	C 	0.1043	0.6052	0.1016	-0.052
Mof_C 	C 	0.0876	0.619	0.1118	0.17
Mof_C 	C 	0.0666	0.637	0.1228	-0.021
Mof_C 	C 	0.0568	0.6317	0.1486	0.138
Mof_C 	C 	0.0364	0.6478	0.1596	0.657
Mof_C 	C 	0.02595	0.6693	0.1446	-0.844
Mof_C 	C 	0.0358	0.6746	0.1188	0.686
Mof_C 	C 	0.0561	0.6584	0.1079	0.135
Mof_C 	C 	0.0213	0.7332	0.1427	0.647
Mof_C 	C 	0.0213	0.7596	0.1351	0.05
Mof_C 	C 	0.9764	0.8621	0.0863	-0.175
Mof_H 	H 	0.9611	0.8561	0.0954	0.141
Mof_C 	C 	0.9768	0.8866	0.0726	0.119
Mof_H 	H 	0.9602	0.8948	0.0688	0.03
Mof_C 	C 	0.0228	0.6975	0.204	0.577
Mof_F 	F 	0.0277	0.6434	0.1826	-0.449
Mof_F 	F 	0.0658	0.6117	0.1633	-0.333
Mof_F 	F 	0.0675	0.661	0.0841	-0.338
Mof_F 	F 	0.0258	0.691	0.104	-0.473
Mof_F 	F 	0.0459	0.7203	0.1428	-0.404
Mof_F 	F 	0.0451	0.7737	0.131	-0.316
Mof_F 	F 	0.0461	0.6923	0.1915	-0.402
Mof_F 	F 	0.2937	0.2454	0.0453	-0.329
Mof_O 	O 	0.74813	0.57977	0.97577	-0.584
Mof_O 	O 	0.78889	0.55196	0.94731	-0.608
Mof_O 	O 	0.82325	0.47244	0.02887	-0.589
Mof_O 	O 	0.0198	0.0703	0.04	-0.52
Mof_C 	C 	0.734	0.6348	0.0259	0.077
Mof_H 	H 	0.7344	0.6254	0.0423	0.044
Mof_C 	C 	0.7293	0.6623	0.025	-0.149
Mof_H 	H 	0.7278	0.6723	0.0409	0.134
Mof_C 	C 	0.7048	0.7692	0.0219	0.113
Mof_C 	C 	0.8131	0.454	0.0462	0.447
Mof_C 	C 	0.8346	0.4405	0.0622	-0.156
Mof_C 	C 	0.82765	0.4218	0.0821	0.125
Mof_H 	H 	0.8096	0.4192	0.0867	0.028
Mof_C 	C 	0.8477	0.4071	0.0953	-0.18
Mof_H 	H 	0.8431	0.3947	0.1086	0.142
Mof_C 	C 	0.8748	0.4111	0.0885	0.18
Mof_C 	C 	0.88174	0.4298	0.0686	-0.179
Mof_H 	H 	0.8998	0.4324	0.0641	0.134
Mof_C 	C 	0.8616	0.4445	0.0555	0.124
Mof_H 	H 	0.8663	0.4569	0.0421	0.025
Mof_C 	C 	0.8957	0.3948	0.1016	-0.052
Mof_C 	C 	0.9124	0.381	0.1118	0.17
Mof_C 	C 	0.9334	0.363	0.1228	-0.021
Mof_C 	C 	0.9432	0.3683	0.1486	0.138
Mof_C 	C 	0.9636	0.3522	0.1596	0.657
Mof_C 	C 	0.97405	0.3307	0.1446	-0.843
Mof_C 	C 	0.9642	0.3254	0.1188	0.686
Mof_C 	C 	0.9439	0.3416	0.1079	0.135
Mof_C 	C 	0.9787	0.2668	0.1427	0.648
Mof_C 	C 	0.9787	0.2404	0.1351	0.05
Mof_C 	C 	0.0236	0.1379	0.0863	-0.176
Mof_H 	H 	0.0389	0.1439	0.0954	0.141
Mof_C 	C 	0.0232	0.1134	0.0726	0.119
Mof_H 	H 	0.0398	0.1052	0.0688	0.03
Mof_C 	C 	0.9772	0.3025	0.204	0.577
Mof_F 	F 	0.9723	0.3566	0.1826	-0.449
Mof_F 	F 	0.9342	0.3883	0.1633	-0.333
Mof_F 	F 	0.9325	0.339	0.0841	-0.338
Mof_F 	F 	0.9742	0.309	0.104	-0.473
Mof_F 	F 	0.9541	0.2797	0.1428	-0.404
Mof_F 	F 	0.9549	0.2263	0.131	-0.316
Mof_F 	F 	0.9539	0.3077	0.1915	-0.402
Mof_F 	F 	0.7063	0.7546	0.0453	-0.329
Mof_O 	O 	0.74813	0.42023	0.02423	-0.584
Mof_O 	O 	0.78889	0.44804	0.05269	-0.608
Mof_O 	O 	0.82325	0.52756	0.97113	-0.588
Mof_O 	O 	0.0198	0.9297	0.96	-0.52
Mof_C 	C 	0.734	0.3652	0.9741	0.078
Mof_H 	H 	0.7344	0.3746	0.9577	0.044
Mof_C 	C 	0.7293	0.3377	0.975	-0.148
Mof_H 	H 	0.7278	0.3277	0.9591	0.134
Mof_C 	C 	0.7048	0.2308	0.9781	0.113
Mof_C 	C 	0.8131	0.546	0.9538	0.447
Mof_C 	C 	0.8346	0.5595	0.9378	-0.156
Mof_C 	C 	0.82765	0.5782	0.9179	0.125
Mof_H 	H 	0.8096	0.5808	0.9133	0.028
Mof_C 	C 	0.8477	0.5929	0.9047	-0.18
Mof_H 	H 	0.8431	0.6053	0.8914	0.142
Mof_C 	C 	0.8748	0.5889	0.9115	0.18
Mof_C 	C 	0.88174	0.5702	0.9314	-0.179
Mof_H 	H 	0.8998	0.5676	0.9359	0.134
Mof_C 	C 	0.8616	0.5555	0.9445	0.124
Mof_H 	H 	0.8663	0.5431	0.9579	0.025
Mof_C 	C 	0.8957	0.6052	0.8984	-0.052
Mof_C 	C 	0.9124	0.619	0.8882	0.17
Mof_C 	C 	0.9334	0.637	0.8772	-0.021
Mof_C 	C 	0.9432	0.6317	0.8514	0.137
Mof_C 	C 	0.9636	0.6478	0.8404	0.656
Mof_C 	C 	0.97405	0.6693	0.8554	-0.844
Mof_C 	C 	0.9642	0.6746	0.8812	0.685
Mof_C 	C 	0.9439	0.6584	0.8921	0.134
Mof_C 	C 	0.9787	0.7332	0.8573	0.647
Mof_C 	C 	0.9787	0.7596	0.8649	0.049
Mof_C 	C 	0.0236	0.8621	0.9137	-0.177
Mof_H 	H 	0.0389	0.8561	0.9046	0.14
Mof_C 	C 	0.0232	0.8866	0.9274	0.117
Mof_H 	H 	0.0398	0.8948	0.9312	0.029
Mof_C 	C 	0.9772	0.6975	0.796	0.576
Mof_F 	F 	0.9723	0.6434	0.8174	-0.45
Mof_F 	F 	0.9342	0.6117	0.8367	-0.334
Mof_F 	F 	0.9325	0.661	0.9159	-0.339
Mof_F 	F 	0.9742	0.691	0.896	-0.474
Mof_F 	F 	0.9541	0.7203	0.8572	-0.405
Mof_F 	F 	0.9549	0.7737	0.869	-0.317
Mof_F 	F 	0.9539	0.6923	0.8085	-0.403
Mof_F 	F 	0.7063	0.2454	0.9547	-0.33
Mof_O 	O 	0.25187	0.57977	0.02423	-0.585
Mof_O 	O 	0.21111	0.55196	0.05269	-0.609
Mof_O 	O 	0.17675	0.47244	0.97113	-0.589
Mof_O 	O 	0.9802	0.0703	0.96	-0.521
Mof_C 	C 	0.266	0.6348	0.9741	0.077
Mof_H 	H 	0.2656	0.6254	0.9577	0.043
Mof_C 	C 	0.2707	0.6623	0.975	-0.149
Mof_H 	H 	0.2722	0.6723	0.9591	0.133
Mof_C 	C 	0.2952	0.7692	0.9781	0.112
Mof_C 	C 	0.1869	0.454	0.9538	0.446
Mof_C 	C 	0.1654	0.4405	0.9378	-0.157
Mof_C 	C 	0.17235	0.4218	0.9179	0.124
Mof_H 	H 	0.1904	0.4192	0.9133	0.027
Mof_C 	C 	0.1523	0.4071	0.9047	-0.181
Mof_H 	H 	0.1569	0.3947	0.8914	0.141
Mof_C 	C 	0.1252	0.4111	0.9115	0.179
Mof_C 	C 	0.11826	0.4298	0.9314	-0.18
Mof_H 	H 	0.1002	0.4324	0.9359	0.133
Mof_C 	C 	0.1384	0.4445	0.9445	0.123
Mof_H 	H 	0.1337	0.4569	0.9579	0.024
Mof_C 	C 	0.1043	0.3948	0.8984	-0.053
Mof_C 	C 	0.0876	0.381	0.8882	0.169
Mof_C 	C 	0.0666	0.363	0.8772	-0.022
Mof_C 	C 	0.0568	0.3683	0.8514	0.137
Mof_C 	C 	0.0364	0.3522	0.8404	0.656
Mof_C 	C 	0.02595	0.3307	0.8554	-0.845
Mof_C 	C 	0.0358	0.3254	0.8812	0.685
Mof_C 	C 	0.0561	0.3416	0.8921	0.134
Mof_C 	C 	0.0213	0.2668	0.8573	0.646
Mof_C 	C 	0.0213	0.2404	0.8649	0.049
Mof_C 	C 	0.9764	0.1379	0.9137	-0.176
Mof_H 	H 	0.9611	0.1439	0.9046	0.14
Mof_C 	C 	0.9768	0.1134	0.9274	0.118
Mof_H 	H 	0.9602	0.1052	0.9312	0.029
Mof_C 	C 	0.0228	0.3025	0.796	0.575
Mof_F 	F 	0.0277	0.3566	0.8174	-0.45
Mof_F 	F 	0.0658	0.3883	0.8367	-0.334
Mof_F 	F 	0.0675	0.339	0.9159	-0.339
Mof_F 	F 	0.0258	0.309	0.896	-0.474
Mof_F 	F 	0.0459	0.2797	0.8572	-0.405
Mof_F 	F 	0.0451	0.2263	0.869	-0.317
Mof_F 	F 	0.0461	0.3077	0.8085	-0.403
Mof_F 	F 	0.2937	0.7546	0.9547	-0.33
Mof_O 	O 	0.97577	0.25187	0.42023	-0.585
Mof_O 	O 	0.94731	0.21111	0.44804	-0.609
Mof_O 	O 	0.02887	0.17675	0.52756	-0.59
Mof_O 	O 	0.04	0.9802	0.9297	-0.521
Mof_C 	C 	0.0259	0.266	0.3652	0.076
Mof_H 	H 	0.0423	0.2656	0.3746	0.043
Mof_C 	C 	0.025	0.2707	0.3377	-0.15
Mof_H 	H 	0.0409	0.2722	0.3277	0.133
Mof_C 	C 	0.0219	0.2952	0.2308	0.112
Mof_C 	C 	0.0462	0.1869	0.546	0.446
Mof_C 	C 	0.0622	0.1654	0.5595	-0.157
Mof_C 	C 	0.0821	0.17235	0.5782	0.124
Mof_H 	H 	0.0867	0.1904	0.5808	0.027
Mof_C 	C 	0.0953	0.1523	0.5929	-0.181
Mof_H 	H 	0.1086	0.1569	0.6053	0.141
Mof_C 	C 	0.0885	0.1252	0.5889	0.179
Mof_C 	C 	0.0686	0.11826	0.5702	-0.18
Mof_H 	H 	0.0641	0.1002	0.5676	0.133
Mof_C 	C 	0.0555	0.1384	0.5555	0.123
Mof_H 	H 	0.0421	0.1337	0.5431	0.024
Mof_C 	C 	0.1016	0.1043	0.6052	-0.053
Mof_C 	C 	0.1118	0.0876	0.619	0.169
Mof_C 	C 	0.1228	0.0666	0.637	-0.022
Mof_C 	C 	0.1486	0.0568	0.6317	0.137
Mof_C 	C 	0.1596	0.0364	0.6478	0.656
Mof_C 	C 	0.1446	0.02595	0.6693	-0.845
Mof_C 	C 	0.1188	0.0358	0.6746	0.685
Mof_C 	C 	0.1079	0.0561	0.6584	0.134
Mof_C 	C 	0.1427	0.0213	0.7332	0.646
Mof_C 	C 	0.1351	0.0213	0.7596	0.049
Mof_C 	C 	0.0863	0.9764	0.8621	-0.176
Mof_H 	H 	0.0954	0.9611	0.8561	0.14
Mof_C 	C 	0.0726	0.9768	0.8866	0.118
Mof_H 	H 	0.0688	0.9602	0.8948	0.029
Mof_C 	C 	0.204	0.0228	0.6975	0.576
Mof_F 	F 	0.1826	0.0277	0.6434	-0.45
Mof_F 	F 	0.1633	0.0658	0.6117	-0.334
Mof_F 	F 	0.0841	0.0675	0.661	-0.339
Mof_F 	F 	0.104	0.0258	0.691	-0.474
Mof_F 	F 	0.1428	0.0459	0.7203	-0.405
Mof_F 	F 	0.131	0.0451	0.7737	-0.317
Mof_F 	F 	0.1915	0.0461	0.6923	-0.403
Mof_F 	F 	0.0453	0.2937	0.2454	-0.33
Mof_O 	O 	0.97577	0.74813	0.57977	-0.585
Mof_O 	O 	0.94731	0.78889	0.55196	-0.609
Mof_O 	O 	0.02887	0.82325	0.47244	-0.59
Mof_O 	O 	0.04	0.0198	0.0703	-0.521
Mof_C 	C 	0.0259	0.734	0.6348	0.076
Mof_H 	H 	0.0423	0.7344	0.6254	0.043
Mof_C 	C 	0.025	0.7293	0.6623	-0.15
Mof_H 	H 	0.0409	0.7278	0.6723	0.133
Mof_C 	C 	0.0219	0.7048	0.7692	0.112
Mof_C 	C 	0.0462	0.8131	0.454	0.446
Mof_C 	C 	0.0622	0.8346	0.4405	-0.157
Mof_C 	C 	0.0821	0.82765	0.4218	0.124
Mof_H 	H 	0.0867	0.8096	0.4192	0.027
Mof_C 	C 	0.0953	0.8477	0.4071	-0.181
Mof_H 	H 	0.1086	0.8431	0.3947	0.141
Mof_C 	C 	0.0885	0.8748	0.4111	0.179
Mof_C 	C 	0.0686	0.88174	0.4298	-0.18
Mof_H 	H 	0.0641	0.8998	0.4324	0.133
Mof_C 	C 	0.0555	0.8616	0.4445	0.123
Mof_H 	H 	0.0421	0.8663	0.4569	0.024
Mof_C 	C 	0.1016	0.8957	0.3948	-0.053
Mof_C 	C 	0.1118	0.9124	0.381	0.169
Mof_C 	C 	0.1228	0.9334	0.363	-0.022
Mof_C 	C 	0.1486	0.9432	0.3683	0.137
Mof_C 	C 	0.1596	0.9636	0.3522	0.656
Mof_C 	C 	0.1446	0.97405	0.3307	-0.844
Mof_C 	C 	0.1188	0.9642	0.3254	0.685
Mof_C 	C 	0.1079	0.9439	0.3416	0.134
Mof_C 	C 	0.1427	0.9787	0.2668	0.647
Mof_C 	C 	0.1351	0.9787	0.2404	0.049
Mof_C 	C 	0.0863	0.0236	0.1379	-0.177
Mof_H 	H 	0.0954	0.0389	0.1439	0.14
Mof_C 	C 	0.0726	0.0232	0.1134	0.118
Mof_H 	H 	0.0688	0.0398	0.1052	0.029
Mof_C 	C 	0.204	0.9772	0.3025	0.576
Mof_F 	F 	0.1826	0.9723	0.3566	-0.45
Mof_F 	F 	0.1633	0.9342	0.3883	-0.334
Mof_F 	F 	0.0841	0.9325	0.339	-0.339
Mof_F 	F 	0.104	0.9742	0.309	-0.474
Mof_F 	F 	0.1428	0.9541	0.2797	-0.405
Mof_F 	F 	0.131	0.9549	0.2263	-0.317
Mof_F 	F 	0.1915	0.9539	0.3077	-0.403
Mof_F 	F 	0.0453	0.7063	0.7546	-0.33
Mof_O 	O 	0.02423	0.74813	0.42023	-0.585
Mof_O 	O 	0.05269	0.78889	0.44804	-0.609
Mof_O 	O 	0.97113	0.82325	0.52756	-0.589
Mof_O 	O 	0.96	0.0198	0.9297	-0.521
Mof_C 	C 	0.9741	0.734	0.3652	0.077
Mof_H 	H 	0.9577	0.7344	0.3746	0.043
Mof_C 	C 	0.975	0.7293	0.3377	-0.149
Mof_H 	H 	0.9591	0.7278	0.3277	0.133
Mof_C 	C 	0.9781	0.7048	0.2308	0.112
Mof_C 	C 	0.9538	0.8131	0.546	0.446
Mof_C 	C 	0.9378	0.8346	0.5595	-0.157
Mof_C 	C 	0.9179	0.82765	0.5782	0.124
Mof_H 	H 	0.9133	0.8096	0.5808	0.027
Mof_C 	C 	0.9047	0.8477	0.5929	-0.181
Mof_H 	H 	0.8914	0.8431	0.6053	0.141
Mof_C 	C 	0.9115	0.8748	0.5889	0.179
Mof_C 	C 	0.9314	0.88174	0.5702	-0.18
Mof_H 	H 	0.9359	0.8998	0.5676	0.133
Mof_C 	C 	0.9445	0.8616	0.5555	0.123
Mof_H 	H 	0.9579	0.8663	0.5431	0.024
Mof_C 	C 	0.8984	0.8957	0.6052	-0.053
Mof_C 	C 	0.8882	0.9124	0.619	0.169
Mof_C 	C 	0.8772	0.9334	0.637	-0.022
Mof_C 	C 	0.8514	0.9432	0.6317	0.137
Mof_C 	C 	0.8404	0.9636	0.6478	0.656
Mof_C 	C 	0.8554	0.97405	0.6693	-0.844
Mof_C 	C 	0.8812	0.9642	0.6746	0.685
Mof_C 	C 	0.8921	0.9439	0.6584	0.134
Mof_C 	C 	0.8573	0.9787	0.7332	0.647
Mof_C 	C 	0.8649	0.9787	0.7596	0.049
Mof_C 	C 	0.9137	0.0236	0.8621	-0.177
Mof_H 	H 	0.9046	0.0389	0.8561	0.14
Mof_C 	C 	0.9274	0.0232	0.8866	0.117
Mof_H 	H 	0.9312	0.0398	0.8948	0.029
Mof_C 	C 	0.796	0.9772	0.6975	0.576
Mof_F 	F 	0.8174	0.9723	0.6434	-0.45
Mof_F 	F 	0.8367	0.9342	0.6117	-0.334
Mof_F 	F 	0.9159	0.9325	0.661	-0.339
Mof_F 	F 	0.896	0.9742	0.691	-0.474
Mof_F 	F 	0.8572	0.9541	0.7203	-0.405
Mof_F 	F 	0.869	0.9549	0.7737	-0.317
Mof_F 	F 	0.8085	0.9539	0.6923	-0.403
Mof_F 	F 	0.9547	0.7063	0.2454	-0.33
Mof_O 	O 	0.02423	0.25187	0.57977	-0.585
Mof_O 	O 	0.05269	0.21111	0.55196	-0.609
Mof_O 	O 	0.97113	0.17675	0.47244	-0.589
Mof_O 	O 	0.96	0.9802	0.0703	-0.521
Mof_C 	C 	0.9741	0.266	0.6348	0.077
Mof_H 	H 	0.9577	0.2656	0.6254	0.043
Mof_C 	C 	0.975	0.2707	0.6623	-0.149
Mof_H 	H 	0.9591	0.2722	0.6723	0.133
Mof_C 	C 	0.9781	0.2952	0.7692	0.112
Mof_C 	C 	0.9538	0.1869	0.454	0.446
Mof_C 	C 	0.9378	0.1654	0.4405	-0.157
Mof_C 	C 	0.9179	0.17235	0.4218	0.124
Mof_H 	H 	0.9133	0.1904	0.4192	0.027
Mof_C 	C 	0.9047	0.1523	0.4071	-0.181
Mof_H 	H 	0.8914	0.1569	0.3947	0.141
Mof_C 	C 	0.9115	0.1252	0.4111	0.179
Mof_C 	C 	0.9314	0.11826	0.4298	-0.18
Mof_H 	H 	0.9359	0.1002	0.4324	0.133
Mof_C 	C 	0.9445	0.1384	0.4445	0.123
Mof_H 	H 	0.9579	0.1337	0.4569	0.024
Mof_C 	C 	0.8984	0.1043	0.3948	-0.053
Mof_C 	C 	0.8882	0.0876	0.381	0.169
Mof_C 	C 	0.8772	0.0666	0.363	-0.022
Mof_C 	C 	0.8514	0.0568	0.3683	0.137
Mof_C 	C 	0.8404	0.0364	0.3522	0.656
Mof_C 	C 	0.8554	0.02595	0.3307	-0.845
Mof_C 	C 	0.8812	0.0358	0.3254	0.685
Mof_C 	C 	0.8921	0.0561	0.3416	0.134
Mof_C 	C 	0.8573	0.0213	0.2668	0.646
Mof_C 	C 	0.8649	0.0213	0.2404	0.049
Mof_C 	C 	0.9137	0.9764	0.1379	-0.176
Mof_H 	H 	0.9046	0.9611	0.1439	0.14
Mof_C 	C 	0.9274	0.9768	0.1134	0.118
Mof_H 	H 	0.9312	0.9602	0.1052	0.029
Mof_C 	C 	0.796	0.0228	0.3025	0.575
Mof_F 	F 	0.8174	0.0277	0.3566	-0.45
Mof_F 	F 	0.8367	0.0658	0.3883	-0.334
Mof_F 	F 	0.9159	0.0675	0.339	-0.339
Mof_F 	F 	0.896	0.0258	0.309	-0.474
Mof_F 	F 	0.8572	0.0459	0.2797	-0.405
Mof_F 	F 	0.869	0.0451	0.2263	-0.317
Mof_F 	F 	0.8085	0.0461	0.3077	-0.403
Mof_F 	F 	0.9547	0.2937	0.7546	-0.33
Mof_O 	O 	0.42023	0.97577	0.25187	-0.585
Mof_O 	O 	0.44804	0.94731	0.21111	-0.609
Mof_O 	O 	0.52756	0.02887	0.17675	-0.59
Mof_O 	O 	0.9297	0.04	0.9802	-0.521
Mof_C 	C 	0.3652	0.0259	0.266	0.076
Mof_H 	H 	0.3746	0.0423	0.2656	0.043
Mof_C 	C 	0.3377	0.025	0.2707	-0.15
Mof_H 	H 	0.3277	0.0409	0.2722	0.133
Mof_C 	C 	0.2308	0.0219	0.2952	0.112
Mof_C 	C 	0.546	0.0462	0.1869	0.446
Mof_C 	C 	0.5595	0.0622	0.1654	-0.157
Mof_C 	C 	0.5782	0.0821	0.17235	0.124
Mof_H 	H 	0.5808	0.0867	0.1904	0.027
Mof_C 	C 	0.5929	0.0953	0.1523	-0.181
Mof_H 	H 	0.6053	0.1086	0.1569	0.141
Mof_C 	C 	0.5889	0.0885	0.1252	0.179
Mof_C 	C 	0.5702	0.0686	0.11826	-0.18
Mof_H 	H 	0.5676	0.0641	0.1002	0.133
Mof_C 	C 	0.5555	0.0555	0.1384	0.123
Mof_H 	H 	0.5431	0.0421	0.1337	0.024
Mof_C 	C 	0.6052	0.1016	0.1043	-0.053
Mof_C 	C 	0.619	0.1118	0.0876	0.169
Mof_C 	C 	0.637	0.1228	0.0666	-0.022
Mof_C 	C 	0.6317	0.1486	0.0568	0.137
Mof_C 	C 	0.6478	0.1596	0.0364	0.656
Mof_C 	C 	0.6693	0.1446	0.02595	-0.845
Mof_C 	C 	0.6746	0.1188	0.0358	0.685
Mof_C 	C 	0.6584	0.1079	0.0561	0.134
Mof_C 	C 	0.7332	0.1427	0.0213	0.646
Mof_C 	C 	0.7596	0.1351	0.0213	0.049
Mof_C 	C 	0.8621	0.0863	0.9764	-0.176
Mof_H 	H 	0.8561	0.0954	0.9611	0.14
Mof_C 	C 	0.8866	0.0726	0.9768	0.118
Mof_H 	H 	0.8948	0.0688	0.9602	0.029
Mof_C 	C 	0.6975	0.204	0.0228	0.576
Mof_F 	F 	0.6434	0.1826	0.0277	-0.45
Mof_F 	F 	0.6117	0.1633	0.0658	-0.334
Mof_F 	F 	0.661	0.0841	0.0675	-0.339
Mof_F 	F 	0.691	0.104	0.0258	-0.474
Mof_F 	F 	0.7203	0.1428	0.0459	-0.405
Mof_F 	F 	0.7737	0.131	0.0451	-0.317
Mof_F 	F 	0.6923	0.1915	0.0461	-0.403
Mof_F 	F 	0.2454	0.0453	0.2937	-0.33
Mof_O 	O 	0.57977	0.97577	0.74813	-0.585
Mof_O 	O 	0.55196	0.94731	0.78889	-0.609
Mof_O 	O 	0.47244	0.02887	0.82325	-0.59
Mof_O 	O 	0.0703	0.04	0.0198	-0.521
Mof_C 	C 	0.6348	0.0259	0.734	0.076
Mof_H 	H 	0.6254	0.0423	0.7344	0.043
Mof_C 	C 	0.6623	0.025	0.7293	-0.15
Mof_H 	H 	0.6723	0.0409	0.7278	0.133
Mof_C 	C 	0.7692	0.0219	0.7048	0.112
Mof_C 	C 	0.454	0.0462	0.8131	0.446
Mof_C 	C 	0.4405	0.0622	0.8346	-0.157
Mof_C 	C 	0.4218	0.0821	0.82765	0.124
Mof_H 	H 	0.4192	0.0867	0.8096	0.027
Mof_C 	C 	0.4071	0.0953	0.8477	-0.181
Mof_H 	H 	0.3947	0.1086	0.8431	0.141
Mof_C 	C 	0.4111	0.0885	0.8748	0.179
Mof_C 	C 	0.4298	0.0686	0.88174	-0.18
Mof_H 	H 	0.4324	0.0641	0.8998	0.133
Mof_C 	C 	0.4445	0.0555	0.8616	0.123
Mof_H 	H 	0.4569	0.0421	0.8663	0.024
Mof_C 	C 	0.3948	0.1016	0.8957	-0.053
Mof_C 	C 	0.381	0.1118	0.9124	0.169
Mof_C 	C 	0.363	0.1228	0.9334	-0.022
Mof_C 	C 	0.3683	0.1486	0.9432	0.137
Mof_C 	C 	0.3522	0.1596	0.9636	0.656
Mof_C 	C 	0.3307	0.1446	0.97405	-0.844
Mof_C 	C 	0.3254	0.1188	0.9642	0.685
Mof_C 	C 	0.3416	0.1079	0.9439	0.134
Mof_C 	C 	0.2668	0.1427	0.9787	0.647
Mof_C 	C 	0.2404	0.1351	0.9787	0.049
Mof_C 	C 	0.1379	0.0863	0.0236	-0.177
Mof_H 	H 	0.1439	0.0954	0.0389	0.14
Mof_C 	C 	0.1134	0.0726	0.0232	0.118
Mof_H 	H 	0.1052	0.0688	0.0398	0.029
Mof_C 	C 	0.3025	0.204	0.9772	0.576
Mof_F 	F 	0.3566	0.1826	0.9723	-0.45
Mof_F 	F 	0.3883	0.1633	0.9342	-0.334
Mof_F 	F 	0.339	0.0841	0.9325	-0.339
Mof_F 	F 	0.309	0.104	0.9742	-0.474
Mof_F 	F 	0.2797	0.1428	0.9541	-0.405
Mof_F 	F 	0.2263	0.131	0.9549	-0.317
Mof_F 	F 	0.3077	0.1915	0.9539	-0.403
Mof_F 	F 	0.7546	0.0453	0.7063	-0.33
Mof_O 	O 	0.42023	0.02423	0.74813	-0.585
Mof_O 	O 	0.44804	0.05269	0.78889	-0.609
Mof_O 	O 	0.52756	0.97113	0.82325	-0.589
Mof_O 	O 	0.9297	0.96	0.0198	-0.521
Mof_C 	C 	0.3652	0.9741	0.734	0.077
Mof_H 	H 	0.3746	0.9577	0.7344	0.043
Mof_C 	C 	0.3377	0.975	0.7293	-0.149
Mof_H 	H 	0.3277	0.9591	0.7278	0.133
Mof_C 	C 	0.2308	0.9781	0.7048	0.112
Mof_C 	C 	0.546	0.9538	0.8131	0.446
Mof_C 	C 	0.5595	0.9378	0.8346	-0.157
Mof_C 	C 	0.5782	0.9179	0.82765	0.124
Mof_H 	H 	0.5808	0.9133	0.8096	0.027
Mof_C 	C 	0.5929	0.9047	0.8477	-0.181
Mof_H 	H 	0.6053	0.8914	0.8431	0.141
Mof_C 	C 	0.5889	0.9115	0.8748	0.179
Mof_C 	C 	0.5702	0.9314	0.88174	-0.18
Mof_H 	H 	0.5676	0.9359	0.8998	0.133
Mof_C 	C 	0.5555	0.9445	0.8616	0.123
Mof_H 	H 	0.5431	0.9579	0.8663	0.024
Mof_C 	C 	0.6052	0.8984	0.8957	-0.053
Mof_C 	C 	0.619	0.8882	0.9124	0.169
Mof_C 	C 	0.637	0.8772	0.9334	-0.022
Mof_C 	C 	0.6317	0.8514	0.9432	0.137
Mof_C 	C 	0.6478	0.8404	0.9636	0.656
Mof_C 	C 	0.6693	0.8554	0.97405	-0.844
Mof_C 	C 	0.6746	0.8812	0.9642	0.685
Mof_C 	C 	0.6584	0.8921	0.9439	0.134
Mof_C 	C 	0.7332	0.8573	0.9787	0.647
Mof_C 	C 	0.7596	0.8649	0.9787	0.049
Mof_C 	C 	0.8621	0.9137	0.0236	-0.177
Mof_H 	H 	0.8561	0.9046	0.0389	0.14
Mof_C 	C 	0.8866	0.9274	0.0232	0.117
Mof_H 	H 	0.8948	0.9312	0.0398	0.029
Mof_C 	C 	0.6975	0.796	0.9772	0.576
Mof_F 	F 	0.6434	0.8174	0.9723	-0.45
Mof_F 	F 	0.6117	0.8367	0.9342	-0.334
Mof_F 	F 	0.661	0.9159	0.9325	-0.339
Mof_F 	F 	0.691	0.896	0.9742	-0.474
Mof_F 	F 	0.7203	0.8572	0.9541	-0.405
Mof_F 	F 	0.7737	0.869	0.9549	-0.317
Mof_F 	F 	0.6923	0.8085	0.9539	-0.403
Mof_F 	F 	0.2454	0.9547	0.7063	-0.33
Mof_O 	O 	0.57977	0.02423	0.25187	-0.585
Mof_O 	O 	0.55196	0.05269	0.21111	-0.609
Mof_O 	O 	0.47244	0.97113	0.17675	-0.589
Mof_O 	O 	0.0703	0.96	0.9802	-0.521
Mof_C 	C 	0.6348	0.9741	0.266	0.077
Mof_H 	H 	0.6254	0.9577	0.2656	0.043
Mof_C 	C 	0.6623	0.975	0.2707	-0.149
Mof_H 	H 	0.6723	0.9591	0.2722	0.133
Mof_C 	C 	0.7692	0.9781	0.2952	0.112
Mof_C 	C 	0.454	0.9538	0.1869	0.446
Mof_C 	C 	0.4405	0.9378	0.1654	-0.157
Mof_C 	C 	0.4218	0.9179	0.17235	0.124
Mof_H 	H 	0.4192	0.9133	0.1904	0.027
Mof_C 	C 	0.4071	0.9047	0.1523	-0.181
Mof_H 	H 	0.3947	0.8914	0.1569	0.141
Mof_C 	C 	0.4111	0.9115	0.1252	0.179
Mof_C 	C 	0.4298	0.9314	0.11826	-0.18
Mof_H 	H 	0.4324	0.9359	0.1002	0.133
Mof_C 	C 	0.4445	0.9445	0.1384	0.123
Mof_H 	H 	0.4569	0.9579	0.1337	0.024
Mof_C 	C 	0.3948	0.8984	0.1043	-0.053
Mof_C 	C 	0.381	0.8882	0.0876	0.169
Mof_C 	C 	0.363	0.8772	0.0666	-0.022
Mof_C 	C 	0.3683	0.8514	0.0568	0.137
Mof_C 	C 	0.3522	0.8404	0.0364	0.656
Mof_C 	C 	0.3307	0.8554	0.02595	-0.845
Mof_C 	C 	0.3254	0.8812	0.0358	0.685
Mof_C 	C 	0.3416	0.8921	0.0561	0.134
Mof_C 	C 	0.2668	0.8573	0.0213	0.646
Mof_C 	C 	0.2404	0.8649	0.0213	0.049
Mof_C 	C 	0.1379	0.9137	0.9764	-0.176
Mof_H 	H 	0.1439	0.9046	0.9611	0.14
Mof_C 	C 	0.1134	0.9274	0.9768	0.118
Mof_H 	H 	0.1052	0.9312	0.9602	0.029
Mof_C 	C 	0.3025	0.796	0.0228	0.575
Mof_F 	F 	0.3566	0.8174	0.0277	-0.45
Mof_F 	F 	0.3883	0.8367	0.0658	-0.334
Mof_F 	F 	0.339	0.9159	0.0675	-0.339
Mof_F 	F 	0.309	0.896	0.0258	-0.474
Mof_F 	F 	0.2797	0.8572	0.0459	-0.405
Mof_F 	F 	0.2263	0.869	0.0451	-0.317
Mof_F 	F 	0.3077	0.8085	0.0461	-0.403
Mof_F 	F 	0.7546	0.9547	0.2937	-0.33
Mof_O 	O 	0.92023	0.75187	0.52423	-0.585
Mof_O 	O 	0.94804	0.71111	0.55269	-0.609
Mof_O 	O 	0.02756	0.67675	0.47113	-0.59
Mof_O 	O 	0.4297	0.4802	0.46	-0.521
Mof_C 	C 	0.8652	0.766	0.4741	0.076
Mof_H 	H 	0.8746	0.7656	0.4577	0.043
Mof_C 	C 	0.8377	0.7707	0.475	-0.15
Mof_H 	H 	0.8277	0.7722	0.4591	0.133
Mof_C 	C 	0.7308	0.7952	0.4781	0.112
Mof_C 	C 	0.046	0.6869	0.4538	0.446
Mof_C 	C 	0.0595	0.6654	0.4378	-0.157
Mof_C 	C 	0.0782	0.67235	0.4179	0.124
Mof_H 	H 	0.0808	0.6904	0.4133	0.027
Mof_C 	C 	0.0929	0.6523	0.4047	-0.181
Mof_H 	H 	0.1053	0.6569	0.3914	0.141
Mof_C 	C 	0.0889	0.6252	0.4115	0.179
Mof_C 	C 	0.0702	0.61826	0.4314	-0.18
Mof_H 	H 	0.0676	0.6002	0.4359	0.133
Mof_C 	C 	0.0555	0.6384	0.4445	0.123
Mof_H 	H 	0.0431	0.6337	0.4579	0.024
Mof_C 	C 	0.1052	0.6043	0.3984	-0.053
Mof_C 	C 	0.119	0.5876	0.3882	0.169
Mof_C 	C 	0.137	0.5666	0.3772	-0.022
Mof_C 	C 	0.1317	0.5568	0.3514	0.137
Mof_C 	C 	0.1478	0.5364	0.3404	0.656
Mof_C 	C 	0.1693	0.52595	0.3554	-0.845
Mof_C 	C 	0.1746	0.5358	0.3812	0.685
Mof_C 	C 	0.1584	0.5561	0.3921	0.134
Mof_C 	C 	0.2332	0.5213	0.3573	0.646
Mof_C 	C 	0.2596	0.5213	0.3649	0.049
Mof_C 	C 	0.3621	0.4764	0.4137	-0.177
Mof_H 	H 	0.3561	0.4611	0.4046	0.14
Mof_C 	C 	0.3866	0.4768	0.4274	0.118
Mof_H 	H 	0.3948	0.4602	0.4312	0.029
Mof_C 	C 	0.1975	0.5228	0.296	0.576
Mof_F 	F 	0.1434	0.5277	0.3174	-0.45
Mof_F 	F 	0.1117	0.5658	0.3367	-0.334
Mof_F 	F 	0.161	0.5675	0.4159	-0.339
Mof_F 	F 	0.191	0.5258	0.396	-0.474
Mof_F 	F 	0.2203	0.5459	0.3572	-0.405
Mof_F 	F 	0.2737	0.5451	0.369	-0.317
Mof_F 	F 	0.1923	0.5461	0.3085	-0.403
Mof_F 	F 	0.7454	0.7937	0.4547	-0.33
Mof_O 	O 	0.07977	0.24813	0.52423	-0.585
Mof_O 	O 	0.05196	0.28889	0.55269	-0.609
Mof_O 	O 	0.97244	0.32325	0.47113	-0.589
Mof_O 	O 	0.5703	0.5198	0.46	-0.521
Mof_C 	C 	0.1348	0.234	0.4741	0.076
Mof_H 	H 	0.1254	0.2344	0.4577	0.043
Mof_C 	C 	0.1623	0.2293	0.475	-0.15
Mof_H 	H 	0.1723	0.2278	0.4591	0.133
Mof_C 	C 	0.2692	0.2048	0.4781	0.112
Mof_C 	C 	0.954	0.3131	0.4538	0.446
Mof_C 	C 	0.9405	0.3346	0.4378	-0.157
Mof_C 	C 	0.9218	0.32765	0.4179	0.124
Mof_H 	H 	0.9192	0.3096	0.4133	0.027
Mof_C 	C 	0.9071	0.3477	0.4047	-0.181
Mof_H 	H 	0.8947	0.3431	0.3914	0.141
Mof_C 	C 	0.9111	0.3748	0.4115	0.179
Mof_C 	C 	0.9298	0.38174	0.4314	-0.18
Mof_H 	H 	0.9324	0.3998	0.4359	0.133
Mof_C 	C 	0.9445	0.3616	0.4445	0.123
Mof_H 	H 	0.9569	0.3663	0.4579	0.024
Mof_C 	C 	0.8948	0.3957	0.3984	-0.053
Mof_C 	C 	0.881	0.4124	0.3882	0.169
Mof_C 	C 	0.863	0.4334	0.3772	-0.022
Mof_C 	C 	0.8683	0.4432	0.3514	0.137
Mof_C 	C 	0.8522	0.4636	0.3404	0.656
Mof_C 	C 	0.8307	0.47405	0.3554	-0.845
Mof_C 	C 	0.8254	0.4642	0.3812	0.685
Mof_C 	C 	0.8416	0.4439	0.3921	0.134
Mof_C 	C 	0.7668	0.4787	0.3573	0.646
Mof_C 	C 	0.7404	0.4787	0.3649	0.049
Mof_C 	C 	0.6379	0.5236	0.4137	-0.177
Mof_H 	H 	0.6439	0.5389	0.4046	0.14
Mof_C 	C 	0.6134	0.5232	0.4274	0.118
Mof_H 	H 	0.6052	0.5398	0.4312	0.029
Mof_C 	C 	0.8025	0.4772	0.296	0.576
Mof_F 	F 	0.8566	0.4723	0.3174	-0.45
Mof_F 	F 	0.8883	0.4342	0.3367	-0.334
Mof_F 	F 	0.839	0.4325	0.4159	-0.339
Mof_F 	F 	0.809	0.4742	0.396	-0.474
Mof_F 	F 	0.7797	0.4541	0.3572	-0.405
Mof_F 	F 	0.7263	0.4549	0.369	-0.317
Mof_F 	F 	0.8077	0.4539	0.3085	-0.403
Mof_F 	F 	0.2546	0.2063	0.4547	-0.33
Mof_O 	O 	0.92023	0.24813	0.47577	-0.585
Mof_O 	O 	0.94804	0.28889	0.44731	-0.609
Mof_O 	O 	0.02756	0.32325	0.52887	-0.59
Mof_O 	O 	0.4297	0.5198	0.54	-0.521
Mof_C 	C 	0.8652	0.234	0.5259	0.076
Mof_H 	H 	0.8746	0.2344	0.5423	0.043
Mof_C 	C 	0.8377	0.2293	0.525	-0.15
Mof_H 	H 	0.8277	0.2278	0.5409	0.133
Mof_C 	C 	0.7308	0.2048	0.5219	0.112
Mof_C 	C 	0.046	0.3131	0.5462	0.446
Mof_C 	C 	0.0595	0.3346	0.5622	-0.157
Mof_C 	C 	0.0782	0.32765	0.5821	0.124
Mof_H 	H 	0.0808	0.3096	0.5867	0.027
Mof_C 	C 	0.0929	0.3477	0.5953	-0.181
Mof_H 	H 	0.1053	0.3431	0.6086	0.141
Mof_C 	C 	0.0889	0.3748	0.5885	0.179
Mof_C 	C 	0.0702	0.38174	0.5686	-0.18
Mof_H 	H 	0.0676	0.3998	0.5641	0.133
Mof_C 	C 	0.0555	0.3616	0.5555	0.123
Mof_H 	H 	0.0431	0.3663	0.5421	0.024
Mof_C 	C 	0.1052	0.3957	0.6016	-0.053
Mof_C 	C 	0.119	0.4124	0.6118	0.169
Mof_C 	C 	0.137	0.4334	0.6228	-0.022
Mof_C 	C 	0.1317	0.4432	0.6486	0.137
Mof_C 	C 	0.1478	0.4636	0.6596	0.656
Mof_C 	C 	0.1693	0.47405	0.6446	-0.845
Mof_C 	C 	0.1746	0.4642	0.6188	0.685
Mof_C 	C 	0.1584	0.4439	0.6079	0.134
Mof_C 	C 	0.2332	0.4787	0.6427	0.646
Mof_C 	C 	0.2596	0.4787	0.6351	0.049
Mof_C 	C 	0.3621	0.5236	0.5863	-0.177
Mof_H 	H 	0.3561	0.5389	0.5954	0.14
Mof_C 	C 	0.3866	0.5232	0.5726	0.118
Mof_H 	H 	0.3948	0.5398	0.5688	0.029
Mof_C 	C 	0.1975	0.4772	0.704	0.576
Mof_F 	F 	0.1434	0.4723	0.6826	-0.45
Mof_F 	F 	0.1117	0.4342	0.6633	-0.334
Mof_F 	F 	0.161	0.4325	0.5841	-0.339
Mof_F 	F 	0.191	0.4742	0.604	-0.474
Mof_F 	F 	0.2203	0.4541	0.6428	-0.405
Mof_F 	F 	0.2737	0.4549	0.631	-0.317
Mof_F 	F 	0.1923	0.4539	0.6915	-0.403
Mof_F 	F 	0.7454	0.2063	0.5453	-0.33
Mof_O 	O 	0.07977	0.75187	0.47577	-0.585
Mof_O 	O 	0.05196	0.71111	0.44731	-0.609
Mof_O 	O 	0.97244	0.67675	0.52887	-0.589
Mof_O 	O 	0.5703	0.4802	0.54	-0.521
Mof_C 	C 	0.1348	0.766	0.5259	0.076
Mof_H 	H 	0.1254	0.7656	0.5423	0.043
Mof_C 	C 	0.1623	0.7707	0.525	-0.15
Mof_H 	H 	0.1723	0.7722	0.5409	0.133
Mof_C 	C 	0.2692	0.7952	0.5219	0.112
Mof_C 	C 	0.954	0.6869	0.5462	0.446
Mof_C 	C 	0.9405	0.6654	0.5622	-0.157
Mof_C 	C 	0.9218	0.67235	0.5821	0.124
Mof_H 	H 	0.9192	0.6904	0.5867	0.027
Mof_C 	C 	0.9071	0.6523	0.5953	-0.181
Mof_H 	H 	0.8947	0.6569	0.6086	0.141
Mof_C 	C 	0.9111	0.6252	0.5885	0.179
Mof_C 	C 	0.9298	0.61826	0.5686	-0.18
Mof_H 	H 	0.9324	0.6002	0.5641	0.133
Mof_C 	C 	0.9445	0.6384	0.5555	0.123
Mof_H 	H 	0.9569	0.6337	0.5421	0.024
Mof_C 	C 	0.8948	0.6043	0.6016	-0.053
Mof_C 	C 	0.881	0.5876	0.6118	0.169
Mof_C 	C 	0.863	0.5666	0.6228	-0.022
Mof_C 	C 	0.8683	0.5568	0.6486	0.137
Mof_C 	C 	0.8522	0.5364	0.6596	0.656
Mof_C 	C 	0.8307	0.52595	0.6446	-0.845
Mof_C 	C 	0.8254	0.5358	0.6188	0.685
Mof_C 	C 	0.8416	0.5561	0.6079	0.134
Mof_C 	C 	0.7668	0.5213	0.6427	0.646
Mof_C 	C 	0.7404	0.5213	0.6351	0.049
Mof_C 	C 	0.6379	0.4764	0.5863	-0.177
Mof_H 	H 	0.6439	0.4611	0.5954	0.14
Mof_C 	C 	0.6134	0.4768	0.5726	0.118
Mof_H 	H 	0.6052	0.4602	0.5688	0.029
Mof_C 	C 	0.8025	0.5228	0.704	0.576
Mof_F 	F 	0.8566	0.5277	0.6826	-0.45
Mof_F 	F 	0.8883	0.5658	0.6633	-0.334
Mof_F 	F 	0.839	0.5675	0.5841	-0.339
Mof_F 	F 	0.809	0.5258	0.604	-0.474
Mof_F 	F 	0.7797	0.5459	0.6428	-0.405
Mof_F 	F 	0.7263	0.5451	0.631	-0.317
Mof_F 	F 	0.8077	0.5461	0.6915	-0.403
Mof_F 	F 	0.2546	0.7937	0.5453	-0.33
Mof_O 	O 	0.75187	0.47577	0.07977	-0.585
Mof_O 	O 	0.71111	0.44731	0.05196	-0.609
Mof_O 	O 	0.67675	0.52887	0.97244	-0.589
Mof_O 	O 	0.4802	0.54	0.5703	-0.521
Mof_C 	C 	0.766	0.5259	0.1348	0.076
Mof_H 	H 	0.7656	0.5423	0.1254	0.043
Mof_C 	C 	0.7707	0.525	0.1623	-0.15
Mof_H 	H 	0.7722	0.5409	0.1723	0.133
Mof_C 	C 	0.7952	0.5219	0.2692	0.112
Mof_C 	C 	0.6869	0.5462	0.954	0.446
Mof_C 	C 	0.6654	0.5622	0.9405	-0.157
Mof_C 	C 	0.67235	0.5821	0.9218	0.124
Mof_H 	H 	0.6904	0.5867	0.9192	0.027
Mof_C 	C 	0.6523	0.5953	0.9071	-0.181
Mof_H 	H 	0.6569	0.6086	0.8947	0.141
Mof_C 	C 	0.6252	0.5885	0.9111	0.179
Mof_C 	C 	0.61826	0.5686	0.9298	-0.18
Mof_H 	H 	0.6002	0.5641	0.9324	0.133
Mof_C 	C 	0.6384	0.5555	0.9445	0.123
Mof_H 	H 	0.6337	0.5421	0.9569	0.024
Mof_C 	C 	0.6043	0.6016	0.8948	-0.053
Mof_C 	C 	0.5876	0.6118	0.881	0.169
Mof_C 	C 	0.5666	0.6228	0.863	-0.022
Mof_C 	C 	0.5568	0.6486	0.8683	0.137
Mof_C 	C 	0.5364	0.6596	0.8522	0.656
Mof_C 	C 	0.52595	0.6446	0.8307	-0.845
Mof_C 	C 	0.5358	0.6188	0.8254	0.685
Mof_C 	C 	0.5561	0.6079	0.8416	0.134
Mof_C 	C 	0.5213	0.6427	0.7668	0.646
Mof_C 	C 	0.5213	0.6351	0.7404	0.049
Mof_C 	C 	0.4764	0.5863	0.6379	-0.177
Mof_H 	H 	0.4611	0.5954	0.6439	0.14
Mof_C 	C 	0.4768	0.5726	0.6134	0.118
Mof_H 	H 	0.4602	0.5688	0.6052	0.029
Mof_C 	C 	0.5228	0.704	0.8025	0.576
Mof_F 	F 	0.5277	0.6826	0.8566	-0.45
Mof_F 	F 	0.5658	0.6633	0.8883	-0.334
Mof_F 	F 	0.5675	0.5841	0.839	-0.339
Mof_F 	F 	0.5258	0.604	0.809	-0.474
Mof_F 	F 	0.5459	0.6428	0.7797	-0.405
Mof_F 	F 	0.5451	0.631	0.7263	-0.317
Mof_F 	F 	0.5461	0.6915	0.8077	-0.403
Mof_F 	F 	0.7937	0.5453	0.2546	-0.33
Mof_O 	O 	0.24813	0.47577	0.92023	-0.585
Mof_O 	O 	0.28889	0.44731	0.94804	-0.609
Mof_O 	O 	0.32325	0.52887	0.02756	-0.59
Mof_O 	O 	0.5198	0.54	0.4297	-0.521
Mof_C 	C 	0.234	0.5259	0.8652	0.076
Mof_H 	H 	0.2344	0.5423	0.8746	0.043
Mof_C 	C 	0.2293	0.525	0.8377	-0.15
Mof_H 	H 	0.2278	0.5409	0.8277	0.133
Mof_C 	C 	0.2048	0.5219	0.7308	0.112
Mof_C 	C 	0.3131	0.5462	0.046	0.446
Mof_C 	C 	0.3346	0.5622	0.0595	-0.157
Mof_C 	C 	0.32765	0.5821	0.0782	0.124
Mof_H 	H 	0.3096	0.5867	0.0808	0.027
Mof_C 	C 	0.3477	0.5953	0.0929	-0.181
Mof_H 	H 	0.3431	0.6086	0.1053	0.141
Mof_C 	C 	0.3748	0.5885	0.0889	0.179
Mof_C 	C 	0.38174	0.5686	0.0702	-0.18
Mof_H 	H 	0.3998	0.5641	0.0676	0.133
Mof_C 	C 	0.3616	0.5555	0.0555	0.123
Mof_H 	H 	0.3663	0.5421	0.0431	0.024
Mof_C 	C 	0.3957	0.6016	0.1052	-0.053
Mof_C 	C 	0.4124	0.6118	0.119	0.169
Mof_C 	C 	0.4334	0.6228	0.137	-0.022
Mof_C 	C 	0.4432	0.6486	0.1317	0.137
Mof_C 	C 	0.4636	0.6596	0.1478	0.656
Mof_C 	C 	0.47405	0.6446	0.1693	-0.845
Mof_C 	C 	0.4642	0.6188	0.1746	0.685
Mof_C 	C 	0.4439	0.6079	0.1584	0.134
Mof_C 	C 	0.4787	0.6427	0.2332	0.646
Mof_C 	C 	0.4787	0.6351	0.2596	0.049
Mof_C 	C 	0.5236	0.5863	0.3621	-0.177
Mof_H 	H 	0.5389	0.5954	0.3561	0.14
Mof_C 	C 	0.5232	0.5726	0.3866	0.118
Mof_H 	H 	0.5398	0.5688	0.3948	0.029
Mof_C 	C 	0.4772	0.704	0.1975	0.576
Mof_F 	F 	0.4723	0.6826	0.1434	-0.45
Mof_F 	F 	0.4342	0.6633	0.1117	-0.334
Mof_F 	F 	0.4325	0.5841	0.161	-0.339
Mof_F 	F 	0.4742	0.604	0.191	-0.474
Mof_F 	F 	0.4541	0.6428	0.2203	-0.405
Mof_F 	F 	0.4549	0.631	0.2737	-0.317
Mof_F 	F 	0.4539	0.6915	0.1923	-0.403
Mof_F 	F 	0.2063	0.5453	0.7454	-0.33
Mof_O 	O 	0.24813	0.52423	0.07977	-0.585
Mof_O 	O 	0.28889	0.55269	0.05196	-0.609
Mof_O 	O 	0.32325	0.47113	0.97244	-0.589
Mof_O 	O 	0.5198	0.46	0.5703	-0.521
Mof_C 	C 	0.234	0.4741	0.1348	0.076
Mof_H 	H 	0.2344	0.4577	0.1254	0.043
Mof_C 	C 	0.2293	0.475	0.1623	-0.15
Mof_H 	H 	0.2278	0.4591	0.1723	0.133
Mof_C 	C 	0.2048	0.4781	0.2692	0.112
Mof_C 	C 	0.3131	0.4538	0.954	0.446
Mof_C 	C 	0.3346	0.4378	0.9405	-0.157
Mof_C 	C 	0.32765	0.4179	0.9218	0.124
Mof_H 	H 	0.3096	0.4133	0.9192	0.027
Mof_C 	C 	0.3477	0.4047	0.9071	-0.181
Mof_H 	H 	0.3431	0.3914	0.8947	0.141
Mof_C 	C 	0.3748	0.4115	0.9111	0.179
Mof_C 	C 	0.38174	0.4314	0.9298	-0.18
Mof_H 	H 	0.3998	0.4359	0.9324	0.133
Mof_C 	C 	0.3616	0.4445	0.9445	0.123
Mof_H 	H 	0.3663	0.4579	0.9569	0.024
Mof_C 	C 	0.3957	0.3984	0.8948	-0.053
Mof_C 	C 	0.4124	0.3882	0.881	0.169
Mof_C 	C 	0.4334	0.3772	0.863	-0.022
Mof_C 	C 	0.4432	0.3514	0.8683	0.137
Mof_C 	C 	0.4636	0.3404	0.8522	0.656
Mof_C 	C 	0.47405	0.3554	0.8307	-0.845
Mof_C 	C 	0.4642	0.3812	0.8254	0.685
Mof_C 	C 	0.4439	0.3921	0.8416	0.134
Mof_C 	C 	0.4787	0.3573	0.7668	0.646
Mof_C 	C 	0.4787	0.3649	0.7404	0.049
Mof_C 	C 	0.5236	0.4137	0.6379	-0.177
Mof_H 	H 	0.5389	0.4046	0.6439	0.14
Mof_C 	C 	0.5232	0.4274	0.6134	0.118
Mof_H 	H 	0.5398	0.4312	0.6052	0.029
Mof_C 	C 	0.4772	0.296	0.8025	0.576
Mof_F 	F 	0.4723	0.3174	0.8566	-0.45
Mof_F 	F 	0.4342	0.3367	0.8883	-0.334
Mof_F 	F 	0.4325	0.4159	0.839	-0.339
Mof_F 	F 	0.4742	0.396	0.809	-0.474
Mof_F 	F 	0.4541	0.3572	0.7797	-0.405
Mof_F 	F 	0.4549	0.369	0.7263	-0.317
Mof_F 	F 	0.4539	0.3085	0.8077	-0.403
Mof_F 	F 	0.2063	0.4547	0.2546	-0.33
Mof_O 	O 	0.75187	0.52423	0.92023	-0.585
Mof_O 	O 	0.71111	0.55269	0.94804	-0.609
Mof_O 	O 	0.67675	0.47113	0.02756	-0.59
Mof_O 	O 	0.4802	0.46	0.4297	-0.521
Mof_C 	C 	0.766	0.4741	0.8652	0.076
Mof_H 	H 	0.7656	0.4577	0.8746	0.043
Mof_C 	C 	0.7707	0.475	0.8377	-0.15
Mof_H 	H 	0.7722	0.4591	0.8277	0.133
Mof_C 	C 	0.7952	0.4781	0.7308	0.112
Mof_C 	C 	0.6869	0.4538	0.046	0.446
Mof_C 	C 	0.6654	0.4378	0.0595	-0.157
Mof_C 	C 	0.67235	0.4179	0.0782	0.124
Mof_H 	H 	0.6904	0.4133	0.0808	0.027
Mof_C 	C 	0.6523	0.4047	0.0929	-0.181
Mof_H 	H 	0.6569	0.3914	0.1053	0.141
Mof_C 	C 	0.6252	0.4115	0.0889	0.179
Mof_C 	C 	0.61826	0.4314	0.0702	-0.18
Mof_H 	H 	0.6002	0.4359	0.0676	0.133
Mof_C 	C 	0.6384	0.4445	0.0555	0.123
Mof_H 	H 	0.6337	0.4579	0.0431	0.024
Mof_C 	C 	0.6043	0.3984	0.1052	-0.053
Mof_C 	C 	0.5876	0.3882	0.119	0.169
Mof_C 	C 	0.5666	0.3772	0.137	-0.022
Mof_C 	C 	0.5568	0.3514	0.1317	0.137
Mof_C 	C 	0.5364	0.3404	0.1478	0.656
Mof_C 	C 	0.52595	0.3554	0.1693	-0.845
Mof_C 	C 	0.5358	0.3812	0.1746	0.685
Mof_C 	C 	0.5561	0.3921	0.1584	0.134
Mof_C 	C 	0.5213	0.3573	0.2332	0.646
Mof_C 	C 	0.5213	0.3649	0.2596	0.049
Mof_C 	C 	0.4764	0.4137	0.3621	-0.177
Mof_H 	H 	0.4611	0.4046	0.3561	0.14
Mof_C 	C 	0.4768	0.4274	0.3866	0.118
Mof_H 	H 	0.4602	0.4312	0.3948	0.029
Mof_C 	C 	0.5228	0.296	0.1975	0.576
Mof_F 	F 	0.5277	0.3174	0.1434	-0.45
Mof_F 	F 	0.5658	0.3367	0.1117	-0.334
Mof_F 	F 	0.5675	0.4159	0.161	-0.339
Mof_F 	F 	0.5258	0.396	0.191	-0.474
Mof_F 	F 	0.5459	0.3572	0.2203	-0.405
Mof_F 	F 	0.5451	0.369	0.2737	-0.317
Mof_F 	F 	0.5461	0.3085	0.1923	-0.403
Mof_F 	F 	0.7937	0.4547	0.7454	-0.33
Mof_O 	O 	0.47577	0.92023	0.24813	-0.585
Mof_O 	O 	0.44731	0.94804	0.28889	-0.609
Mof_O 	O 	0.52887	0.02756	0.32325	-0.59
Mof_O 	O 	0.54	0.4297	0.5198	-0.521
Mof_C 	C 	0.5259	0.8652	0.234	0.076
Mof_H 	H 	0.5423	0.8746	0.2344	0.043
Mof_C 	C 	0.525	0.8377	0.2293	-0.15
Mof_H 	H 	0.5409	0.8277	0.2278	0.133
Mof_C 	C 	0.5219	0.7308	0.2048	0.112
Mof_C 	C 	0.5462	0.046	0.3131	0.446
Mof_C 	C 	0.5622	0.0595	0.3346	-0.157
Mof_C 	C 	0.5821	0.0782	0.32765	0.124
Mof_H 	H 	0.5867	0.0808	0.3096	0.027
Mof_C 	C 	0.5953	0.0929	0.3477	-0.181
Mof_H 	H 	0.6086	0.1053	0.3431	0.141
Mof_C 	C 	0.5885	0.0889	0.3748	0.179
Mof_C 	C 	0.5686	0.0702	0.38174	-0.18
Mof_H 	H 	0.5641	0.0676	0.3998	0.133
Mof_C 	C 	0.5555	0.0555	0.3616	0.123
Mof_H 	H 	0.5421	0.0431	0.3663	0.024
Mof_C 	C 	0.6016	0.1052	0.3957	-0.053
Mof_C 	C 	0.6118	0.119	0.4124	0.169
Mof_C 	C 	0.6228	0.137	0.4334	-0.022
Mof_C 	C 	0.6486	0.1317	0.4432	0.137
Mof_C 	C 	0.6596	0.1478	0.4636	0.656
Mof_C 	C 	0.6446	0.1693	0.47405	-0.845
Mof_C 	C 	0.6188	0.1746	0.4642	0.685
Mof_C 	C 	0.6079	0.1584	0.4439	0.134
Mof_C 	C 	0.6427	0.2332	0.4787	0.646
Mof_C 	C 	0.6351	0.2596	0.4787	0.049
Mof_C 	C 	0.5863	0.3621	0.5236	-0.177
Mof_H 	H 	0.5954	0.3561	0.5389	0.14
Mof_C 	C 	0.5726	0.3866	0.5232	0.118
Mof_H 	H 	0.5688	0.3948	0.5398	0.029
Mof_C 	C 	0.704	0.1975	0.4772	0.576
Mof_F 	F 	0.6826	0.1434	0.4723	-0.45
Mof_F 	F 	0.6633	0.1117	0.4342	-0.334
Mof_F 	F 	0.5841	0.161	0.4325	-0.339
Mof_F 	F 	0.604	0.191	0.4742	-0.474
Mof_F 	F 	0.6428	0.2203	0.4541	-0.405
Mof_F 	F 	0.631	0.2737	0.4549	-0.317
Mof_F 	F 	0.6915	0.1923	0.4539	-0.403
Mof_F 	F 	0.5453	0.7454	0.2063	-0.33
Mof_O 	O 	0.47577	0.07977	0.75187	-0.585
Mof_O 	O 	0.44731	0.05196	0.71111	-0.609
Mof_O 	O 	0.52887	0.97244	0.67675	-0.589
Mof_O 	O 	0.54	0.5703	0.4802	-0.521
Mof_C 	C 	0.5259	0.1348	0.766	0.076
Mof_H 	H 	0.5423	0.1254	0.7656	0.043
Mof_C 	C 	0.525	0.1623	0.7707	-0.15
Mof_H 	H 	0.5409	0.1723	0.7722	0.133
Mof_C 	C 	0.5219	0.2692	0.7952	0.112
Mof_C 	C 	0.5462	0.954	0.6869	0.446
Mof_C 	C 	0.5622	0.9405	0.6654	-0.157
Mof_C 	C 	0.5821	0.9218	0.67235	0.124
Mof_H 	H 	0.5867	0.9192	0.6904	0.027
Mof_C 	C 	0.5953	0.9071	0.6523	-0.181
Mof_H 	H 	0.6086	0.8947	0.6569	0.141
Mof_C 	C 	0.5885	0.9111	0.6252	0.179
Mof_C 	C 	0.5686	0.9298	0.61826	-0.18
Mof_H 	H 	0.5641	0.9324	0.6002	0.133
Mof_C 	C 	0.5555	0.9445	0.6384	0.123
Mof_H 	H 	0.5421	0.9569	0.6337	0.024
Mof_C 	C 	0.6016	0.8948	0.6043	-0.053
Mof_C 	C 	0.6118	0.881	0.5876	0.169
Mof_C 	C 	0.6228	0.863	0.5666	-0.022
Mof_C 	C 	0.6486	0.8683	0.5568	0.137
Mof_C 	C 	0.6596	0.8522	0.5364	0.656
Mof_C 	C 	0.6446	0.8307	0.52595	-0.845
Mof_C 	C 	0.6188	0.8254	0.5358	0.685
Mof_C 	C 	0.6079	0.8416	0.5561	0.134
Mof_C 	C 	0.6427	0.7668	0.5213	0.646
Mof_C 	C 	0.6351	0.7404	0.5213	0.049
Mof_C 	C 	0.5863	0.6379	0.4764	-0.177
Mof_H 	H 	0.5954	0.6439	0.4611	0.14
Mof_C 	C 	0.5726	0.6134	0.4768	0.118
Mof_H 	H 	0.5688	0.6052	0.4602	0.029
Mof_C 	C 	0.704	0.8025	0.5228	0.576
Mof_F 	F 	0.6826	0.8566	0.5277	-0.45
Mof_F 	F 	0.6633	0.8883	0.5658	-0.334
Mof_F 	F 	0.5841	0.839	0.5675	-0.339
Mof_F 	F 	0.604	0.809	0.5258	-0.474
Mof_F 	F 	0.6428	0.7797	0.5459	-0.405
Mof_F 	F 	0.631	0.7263	0.5451	-0.317
Mof_F 	F 	0.6915	0.8077	0.5461	-0.403
Mof_F 	F 	0.5453	0.2546	0.7937	-0.33
Mof_O 	O 	0.52423	0.92023	0.75187	-0.585
Mof_O 	O 	0.55269	0.94804	0.71111	-0.609
Mof_O 	O 	0.47113	0.02756	0.67675	-0.59
Mof_O 	O 	0.46	0.4297	0.4802	-0.521
Mof_C 	C 	0.4741	0.8652	0.766	0.076
Mof_H 	H 	0.4577	0.8746	0.7656	0.043
Mof_C 	C 	0.475	0.8377	0.7707	-0.15
Mof_H 	H 	0.4591	0.8277	0.7722	0.133
Mof_C 	C 	0.4781	0.7308	0.7952	0.112
Mof_C 	C 	0.4538	0.046	0.6869	0.446
Mof_C 	C 	0.4378	0.0595	0.6654	-0.157
Mof_C 	C 	0.4179	0.0782	0.67235	0.124
Mof_H 	H 	0.4133	0.0808	0.6904	0.027
Mof_C 	C 	0.4047	0.0929	0.6523	-0.181
Mof_H 	H 	0.3914	0.1053	0.6569	0.141
Mof_C 	C 	0.4115	0.0889	0.6252	0.179
Mof_C 	C 	0.4314	0.0702	0.61826	-0.18
Mof_H 	H 	0.4359	0.0676	0.6002	0.133
Mof_C 	C 	0.4445	0.0555	0.6384	0.123
Mof_H 	H 	0.4579	0.0431	0.6337	0.024
Mof_C 	C 	0.3984	0.1052	0.6043	-0.053
Mof_C 	C 	0.3882	0.119	0.5876	0.169
Mof_C 	C 	0.3772	0.137	0.5666	-0.022
Mof_C 	C 	0.3514	0.1317	0.5568	0.137
Mof_C 	C 	0.3404	0.1478	0.5364	0.656
Mof_C 	C 	0.3554	0.1693	0.52595	-0.845
Mof_C 	C 	0.3812	0.1746	0.5358	0.685
Mof_C 	C 	0.3921	0.1584	0.5561	0.134
Mof_C 	C 	0.3573	0.2332	0.5213	0.646
Mof_C 	C 	0.3649	0.2596	0.5213	0.049
Mof_C 	C 	0.4137	0.3621	0.4764	-0.177
Mof_H 	H 	0.4046	0.3561	0.4611	0.14
Mof_C 	C 	0.4274	0.3866	0.4768	0.118
Mof_H 	H 	0.4312	0.3948	0.4602	0.029
Mof_C 	C 	0.296	0.1975	0.5228	0.576
Mof_F 	F 	0.3174	0.1434	0.5277	-0.45
Mof_F 	F 	0.3367	0.1117	0.5658	-0.334
Mof_F 	F 	0.4159	0.161	0.5675	-0.339
Mof_F 	F 	0.396	0.191	0.5258	-0.474
Mof_F 	F 	0.3572	0.2203	0.5459	-0.405
Mof_F 	F 	0.369	0.2737	0.5451	-0.317
Mof_F 	F 	0.3085	0.1923	0.5461	-0.403
Mof_F 	F 	0.4547	0.7454	0.7937	-0.33
Mof_O 	O 	0.52423	0.07977	0.24813	-0.585
Mof_O 	O 	0.55269	0.05196	0.28889	-0.609
Mof_O 	O 	0.47113	0.97244	0.32325	-0.589
Mof_O 	O 	0.46	0.5703	0.5198	-0.521
Mof_C 	C 	0.4741	0.1348	0.234	0.076
Mof_H 	H 	0.4577	0.1254	0.2344	0.043
Mof_C 	C 	0.475	0.1623	0.2293	-0.15
Mof_H 	H 	0.4591	0.1723	0.2278	0.133
Mof_C 	C 	0.4781	0.2692	0.2048	0.112
Mof_C 	C 	0.4538	0.954	0.3131	0.446
Mof_C 	C 	0.4378	0.9405	0.3346	-0.157
Mof_C 	C 	0.4179	0.9218	0.32765	0.124
Mof_H 	H 	0.4133	0.9192	0.3096	0.027
Mof_C 	C 	0.4047	0.9071	0.3477	-0.181
Mof_H 	H 	0.3914	0.8947	0.3431	0.141
Mof_C 	C 	0.4115	0.9111	0.3748	0.179
Mof_C 	C 	0.4314	0.9298	0.38174	-0.18
Mof_H 	H 	0.4359	0.9324	0.3998	0.133
Mof_C 	C 	0.4445	0.9445	0.3616	0.123
Mof_H 	H 	0.4579	0.9569	0.3663	0.024
Mof_C 	C 	0.3984	0.8948	0.3957	-0.053
Mof_C 	C 	0.3882	0.881	0.4124	0.169
Mof_C 	C 	0.3772	0.863	0.4334	-0.022
Mof_C 	C 	0.3514	0.8683	0.4432	0.137
Mof_C 	C 	0.3404	0.8522	0.4636	0.656
Mof_C 	C 	0.3554	0.8307	0.47405	-0.845
Mof_C 	C 	0.3812	0.8254	0.4642	0.685
Mof_C 	C 	0.3921	0.8416	0.4439	0.134
Mof_C 	C 	0.3573	0.7668	0.4787	0.646
Mof_C 	C 	0.3649	0.7404	0.4787	0.049
Mof_C 	C 	0.4137	0.6379	0.5236	-0.177
Mof_H 	H 	0.4046	0.6439	0.5389	0.14
Mof_C 	C 	0.4274	0.6134	0.5232	0.118
Mof_H 	H 	0.4312	0.6052	0.5398	0.029
Mof_C 	C 	0.296	0.8025	0.4772	0.576
Mof_F 	F 	0.3174	0.8566	0.4723	-0.45
Mof_F 	F 	0.3367	0.8883	0.4342	-0.334
Mof_F 	F 	0.4159	0.839	0.4325	-0.339
Mof_F 	F 	0.396	0.809	0.4742	-0.474
Mof_F 	F 	0.3572	0.7797	0.4541	-0.405
Mof_F 	F 	0.369	0.7263	0.4549	-0.317
Mof_F 	F 	0.3085	0.8077	0.4539	-0.403
Mof_F 	F 	0.4547	0.2546	0.2063	-0.33
Mof_O 	O 	0.74813	0.57977	0.02423	-0.585
Mof_O 	O 	0.78889	0.55196	0.05269	-0.609
Mof_O 	O 	0.82325	0.47244	0.97113	-0.589
Mof_O 	O 	0.0198	0.0703	0.96	-0.521
Mof_C 	C 	0.734	0.6348	0.9741	0.077
Mof_H 	H 	0.7344	0.6254	0.9577	0.043
Mof_C 	C 	0.7293	0.6623	0.975	-0.149
Mof_H 	H 	0.7278	0.6723	0.9591	0.133
Mof_C 	C 	0.7048	0.7692	0.9781	0.112
Mof_C 	C 	0.8131	0.454	0.9538	0.446
Mof_C 	C 	0.8346	0.4405	0.9378	-0.157
Mof_C 	C 	0.82765	0.4218	0.9179	0.124
Mof_H 	H 	0.8096	0.4192	0.9133	0.027
Mof_C 	C 	0.8477	0.4071	0.9047	-0.181
Mof_H 	H 	0.8431	0.3947	0.8914	0.141
Mof_C 	C 	0.8748	0.4111	0.9115	0.179
Mof_C 	C 	0.88174	0.4298	0.9314	-0.18
Mof_H 	H 	0.8998	0.4324	0.9359	0.133
Mof_C 	C 	0.8616	0.4445	0.9445	0.123
Mof_H 	H 	0.8663	0.4569	0.9579	0.024
Mof_C 	C 	0.8957	0.3948	0.8984	-0.053
Mof_C 	C 	0.9124	0.381	0.8882	0.169
Mof_C 	C 	0.9334	0.363	0.8772	-0.022
Mof_C 	C 	0.9432	0.3683	0.8514	0.137
Mof_C 	C 	0.9636	0.3522	0.8404	0.656
Mof_C 	C 	0.97405	0.3307	0.8554	-0.844
Mof_C 	C 	0.9642	0.3254	0.8812	0.685
Mof_C 	C 	0.9439	0.3416	0.8921	0.134
Mof_C 	C 	0.9787	0.2668	0.8573	0.647
Mof_C 	C 	0.9787	0.2404	0.8649	0.049
Mof_C 	C 	0.0236	0.1379	0.9137	-0.177
Mof_H 	H 	0.0389	0.1439	0.9046	0.14
Mof_C 	C 	0.0232	0.1134	0.9274	0.117
Mof_H 	H 	0.0398	0.1052	0.9312	0.029
Mof_C 	C 	0.9772	0.3025	0.796	0.576
Mof_F 	F 	0.9723	0.3566	0.8174	-0.45
Mof_F 	F 	0.9342	0.3883	0.8367	-0.334
Mof_F 	F 	0.9325	0.339	0.9159	-0.339
Mof_F 	F 	0.9742	0.309	0.896	-0.474
Mof_F 	F 	0.9541	0.2797	0.8572	-0.405
Mof_F 	F 	0.9549	0.2263	0.869	-0.317
Mof_F 	F 	0.9539	0.3077	0.8085	-0.403
Mof_F 	F 	0.7063	0.7546	0.9547	-0.33
Mof_O 	O 	0.25187	0.42023	0.02423	-0.585
Mof_O 	O 	0.21111	0.44804	0.05269	-0.609
Mof_O 	O 	0.17675	0.52756	0.97113	-0.589
Mof_O 	O 	0.9802	0.9297	0.96	-0.521
Mof_C 	C 	0.266	0.3652	0.9741	0.077
Mof_H 	H 	0.2656	0.3746	0.9577	0.043
Mof_C 	C 	0.2707	0.3377	0.975	-0.149
Mof_H 	H 	0.2722	0.3277	0.9591	0.133
Mof_C 	C 	0.2952	0.2308	0.9781	0.112
Mof_C 	C 	0.1869	0.546	0.9538	0.446
Mof_C 	C 	0.1654	0.5595	0.9378	-0.157
Mof_C 	C 	0.17235	0.5782	0.9179	0.124
Mof_H 	H 	0.1904	0.5808	0.9133	0.027
Mof_C 	C 	0.1523	0.5929	0.9047	-0.181
Mof_H 	H 	0.1569	0.6053	0.8914	0.141
Mof_C 	C 	0.1252	0.5889	0.9115	0.179
Mof_C 	C 	0.11826	0.5702	0.9314	-0.18
Mof_H 	H 	0.1002	0.5676	0.9359	0.133
Mof_C 	C 	0.1384	0.5555	0.9445	0.123
Mof_H 	H 	0.1337	0.5431	0.9579	0.024
Mof_C 	C 	0.1043	0.6052	0.8984	-0.053
Mof_C 	C 	0.0876	0.619	0.8882	0.169
Mof_C 	C 	0.0666	0.637	0.8772	-0.022
Mof_C 	C 	0.0568	0.6317	0.8514	0.137
Mof_C 	C 	0.0364	0.6478	0.8404	0.656
Mof_C 	C 	0.02595	0.6693	0.8554	-0.845
Mof_C 	C 	0.0358	0.6746	0.8812	0.685
Mof_C 	C 	0.0561	0.6584	0.8921	0.134
Mof_C 	C 	0.0213	0.7332	0.8573	0.646
Mof_C 	C 	0.0213	0.7596	0.8649	0.049
Mof_C 	C 	0.9764	0.8621	0.9137	-0.176
Mof_H 	H 	0.9611	0.8561	0.9046	0.14
Mof_C 	C 	0.9768	0.8866	0.9274	0.118
Mof_H 	H 	0.9602	0.8948	0.9312	0.029
Mof_C 	C 	0.0228	0.6975	0.796	0.575
Mof_F 	F 	0.0277	0.6434	0.8174	-0.45
Mof_F 	F 	0.0658	0.6117	0.8367	-0.334
Mof_F 	F 	0.0675	0.661	0.9159	-0.339
Mof_F 	F 	0.0258	0.691	0.896	-0.474
Mof_F 	F 	0.0459	0.7203	0.8572	-0.405
Mof_F 	F 	0.0451	0.7737	0.869	-0.317
Mof_F 	F 	0.0461	0.6923	0.8085	-0.403
Mof_F 	F 	0.2937	0.2454	0.9547	-0.33
Mof_O 	O 	0.25187	0.57977	0.97577	-0.585
Mof_O 	O 	0.21111	0.55196	0.94731	-0.609
Mof_O 	O 	0.17675	0.47244	0.02887	-0.59
Mof_O 	O 	0.9802	0.0703	0.04	-0.521
Mof_C 	C 	0.266	0.6348	0.0259	0.076
Mof_H 	H 	0.2656	0.6254	0.0423	0.043
Mof_C 	C 	0.2707	0.6623	0.025	-0.15
Mof_H 	H 	0.2722	0.6723	0.0409	0.133
Mof_C 	C 	0.2952	0.7692	0.0219	0.112
Mof_C 	C 	0.1869	0.454	0.0462	0.446
Mof_C 	C 	0.1654	0.4405	0.0622	-0.157
Mof_C 	C 	0.17235	0.4218	0.0821	0.124
Mof_H 	H 	0.1904	0.4192	0.0867	0.027
Mof_C 	C 	0.1523	0.4071	0.0953	-0.181
Mof_H 	H 	0.1569	0.3947	0.1086	0.141
Mof_C 	C 	0.1252	0.4111	0.0885	0.179
Mof_C 	C 	0.11826	0.4298	0.0686	-0.18
Mof_H 	H 	0.1002	0.4324	0.0641	0.133
Mof_C 	C 	0.1384	0.4445	0.0555	0.123
Mof_H 	H 	0.1337	0.4569	0.0421	0.024
Mof_C 	C 	0.1043	0.3948	0.1016	-0.053
Mof_C 	C 	0.0876	0.381	0.1118	0.169
Mof_C 	C 	0.0666	0.363	0.1228	-0.022
Mof_C 	C 	0.0568	0.3683	0.1486	0.137
Mof_C 	C 	0.0364	0.3522	0.1596	0.656
Mof_C 	C 	0.02595	0.3307	0.1446	-0.845
Mof_C 	C 	0.0358	0.3254	0.1188	0.685
Mof_C 	C 	0.0561	0.3416	0.1079	0.134
Mof_C 	C 	0.0213	0.2668	0.1427	0.646
Mof_C 	C 	0.0213	0.2404	0.1351	0.049
Mof_C 	C 	0.9764	0.1379	0.0863	-0.176
Mof_H 	H 	0.9611	0.1439	0.0954	0.14
Mof_C 	C 	0.9768	0.1134	0.0726	0.118
Mof_H 	H 	0.9602	0.1052	0.0688	0.029
Mof_C 	C 	0.0228	0.3025	0.204	0.576
Mof_F 	F 	0.0277	0.3566	0.1826	-0.45
Mof_F 	F 	0.0658	0.3883	0.1633	-0.334
Mof_F 	F 	0.0675	0.339	0.0841	-0.339
Mof_F 	F 	0.0258	0.309	0.104	-0.474
Mof_F 	F 	0.0459	0.2797	0.1428	-0.405
Mof_F 	F 	0.0451	0.2263	0.131	-0.317
Mof_F 	F 	0.0461	0.3077	0.1915	-0.403
Mof_F 	F 	0.2937	0.7546	0.0453	-0.33
Mof_O 	O 	0.74813	0.42023	0.97577	-0.585
Mof_O 	O 	0.78889	0.44804	0.94731	-0.609
Mof_O 	O 	0.82325	0.52756	0.02887	-0.59
Mof_O 	O 	0.0198	0.9297	0.04	-0.521
Mof_C 	C 	0.734	0.3652	0.0259	0.076
Mof_H 	H 	0.7344	0.3746	0.0423	0.043
Mof_C 	C 	0.7293	0.3377	0.025	-0.15
Mof_H 	H 	0.7278	0.3277	0.0409	0.133
Mof_C 	C 	0.7048	0.2308	0.0219	0.112
Mof_C 	C 	0.8131	0.546	0.0462	0.446
Mof_C 	C 	0.8346	0.5595	0.0622	-0.157
Mof_C 	C 	0.82765	0.5782	0.0821	0.124
Mof_H 	H 	0.8096	0.5808	0.0867	0.027
Mof_C 	C 	0.8477	0.5929	0.0953	-0.181
Mof_H 	H 	0.8431	0.6053	0.1086	0.141
Mof_C 	C 	0.8748	0.5889	0.0885	0.179
Mof_C 	C 	0.88174	0.5702	0.0686	-0.18
Mof_H 	H 	0.8998	0.5676	0.0641	0.133
Mof_C 	C 	0.8616	0.5555	0.0555	0.123
Mof_H 	H 	0.8663	0.5431	0.0421	0.024
Mof_C 	C 	0.8957	0.6052	0.1016	-0.053
Mof_C 	C 	0.9124	0.619	0.1118	0.169
Mof_C 	C 	0.9334	0.637	0.1228	-0.022
Mof_C 	C 	0.9432	0.6317	0.1486	0.137
Mof_C 	C 	0.9636	0.6478	0.1596	0.656
Mof_C 	C 	0.97405	0.6693	0.1446	-0.844
Mof_C 	C 	0.9642	0.6746	0.1188	0.685
Mof_C 	C 	0.9439	0.6584	0.1079	0.134
Mof_C 	C 	0.9787	0.7332	0.1427	0.647
Mof_C 	C 	0.9787	0.7596	0.1351	0.049
Mof_C 	C 	0.0236	0.8621	0.0863	-0.177
Mof_H 	H 	0.0389	0.8561	0.0954	0.14
Mof_C 	C 	0.0232	0.8866	0.0726	0.118
Mof_H 	H 	0.0398	0.8948	0.0688	0.029
Mof_C 	C 	0.9772	0.6975	0.204	0.576
Mof_F 	F 	0.9723	0.6434	0.1826	-0.45
Mof_F 	F 	0.9342	0.6117	0.1633	-0.334
Mof_F 	F 	0.9325	0.661	0.0841	-0.339
Mof_F 	F 	0.9742	0.691	0.104	-0.474
Mof_F 	F 	0.9541	0.7203	0.1428	-0.405
Mof_F 	F 	0.9549	0.7737	0.131	-0.317
Mof_F 	F 	0.9539	0.6923	0.1915	-0.403
Mof_F 	F 	0.7063	0.2454	0.0453	-0.33
Mof_O 	O 	0.02423	0.74813	0.57977	-0.585
Mof_O 	O 	0.05269	0.78889	0.55196	-0.609
Mof_O 	O 	0.97113	0.82325	0.47244	-0.589
Mof_O 	O 	0.96	0.0198	0.0703	-0.521
Mof_C 	C 	0.9741	0.734	0.6348	0.077
Mof_H 	H 	0.9577	0.7344	0.6254	0.043
Mof_C 	C 	0.975	0.7293	0.6623	-0.149
Mof_H 	H 	0.9591	0.7278	0.6723	0.133
Mof_C 	C 	0.9781	0.7048	0.7692	0.112
Mof_C 	C 	0.9538	0.8131	0.454	0.446
Mof_C 	C 	0.9378	0.8346	0.4405	-0.157
Mof_C 	C 	0.9179	0.82765	0.4218	0.124
Mof_H 	H 	0.9133	0.8096	0.4192	0.027
Mof_C 	C 	0.9047	0.8477	0.4071	-0.181
Mof_H 	H 	0.8914	0.8431	0.3947	0.141
Mof_C 	C 	0.9115	0.8748	0.4111	0.179
Mof_C 	C 	0.9314	0.88174	0.4298	-0.18
Mof_H 	H 	0.9359	0.8998	0.4324	0.133
Mof_C 	C 	0.9445	0.8616	0.4445	0.123
Mof_H 	H 	0.9579	0.8663	0.4569	0.024
Mof_C 	C 	0.8984	0.8957	0.3948	-0.053
Mof_C 	C 	0.8882	0.9124	0.381	0.169
Mof_C 	C 	0.8772	0.9334	0.363	-0.022
Mof_C 	C 	0.8514	0.9432	0.3683	0.137
Mof_C 	C 	0.8404	0.9636	0.3522	0.656
Mof_C 	C 	0.8554	0.97405	0.3307	-0.844
Mof_C 	C 	0.8812	0.9642	0.3254	0.685
Mof_C 	C 	0.8921	0.9439	0.3416	0.134
Mof_C 	C 	0.8573	0.9787	0.2668	0.647
Mof_C 	C 	0.8649	0.9787	0.2404	0.049
Mof_C 	C 	0.9137	0.0236	0.1379	-0.177
Mof_H 	H 	0.9046	0.0389	0.1439	0.14
Mof_C 	C 	0.9274	0.0232	0.1134	0.117
Mof_H 	H 	0.9312	0.0398	0.1052	0.029
Mof_C 	C 	0.796	0.9772	0.3025	0.576
Mof_F 	F 	0.8174	0.9723	0.3566	-0.45
Mof_F 	F 	0.8367	0.9342	0.3883	-0.334
Mof_F 	F 	0.9159	0.9325	0.339	-0.339
Mof_F 	F 	0.896	0.9742	0.309	-0.474
Mof_F 	F 	0.8572	0.9541	0.2797	-0.405
Mof_F 	F 	0.869	0.9549	0.2263	-0.317
Mof_F 	F 	0.8085	0.9539	0.3077	-0.403
Mof_F 	F 	0.9547	0.7063	0.7546	-0.33
Mof_O 	O 	0.02423	0.25187	0.42023	-0.585
Mof_O 	O 	0.05269	0.21111	0.44804	-0.609
Mof_O 	O 	0.97113	0.17675	0.52756	-0.589
Mof_O 	O 	0.96	0.9802	0.9297	-0.521
Mof_C 	C 	0.9741	0.266	0.3652	0.077
Mof_H 	H 	0.9577	0.2656	0.3746	0.043
Mof_C 	C 	0.975	0.2707	0.3377	-0.149
Mof_H 	H 	0.9591	0.2722	0.3277	0.133
Mof_C 	C 	0.9781	0.2952	0.2308	0.112
Mof_C 	C 	0.9538	0.1869	0.546	0.446
Mof_C 	C 	0.9378	0.1654	0.5595	-0.157
Mof_C 	C 	0.9179	0.17235	0.5782	0.124
Mof_H 	H 	0.9133	0.1904	0.5808	0.027
Mof_C 	C 	0.9047	0.1523	0.5929	-0.181
Mof_H 	H 	0.8914	0.1569	0.6053	0.141
Mof_C 	C 	0.9115	0.1252	0.5889	0.179
Mof_C 	C 	0.9314	0.11826	0.5702	-0.18
Mof_H 	H 	0.9359	0.1002	0.5676	0.133
Mof_C 	C 	0.9445	0.1384	0.5555	0.123
Mof_H 	H 	0.9579	0.1337	0.5431	0.024
Mof_C 	C 	0.8984	0.1043	0.6052	-0.053
Mof_C 	C 	0.8882	0.0876	0.619	0.169
Mof_C 	C 	0.8772	0.0666	0.637	-0.022
Mof_C 	C 	0.8514	0.0568	0.6317	0.137
Mof_C 	C 	0.8404	0.0364	0.6478	0.656
Mof_C 	C 	0.8554	0.02595	0.6693	-0.845
Mof_C 	C 	0.8812	0.0358	0.6746	0.685
Mof_C 	C 	0.8921	0.0561	0.6584	0.134
Mof_C 	C 	0.8573	0.0213	0.7332	0.646
Mof_C 	C 	0.8649	0.0213	0.7596	0.049
Mof_C 	C 	0.9137	0.9764	0.8621	-0.176
Mof_H 	H 	0.9046	0.9611	0.8561	0.14
Mof_C 	C 	0.9274	0.9768	0.8866	0.118
Mof_H 	H 	0.9312	0.9602	0.8948	0.029
Mof_C 	C 	0.796	0.0228	0.6975	0.575
Mof_F 	F 	0.8174	0.0277	0.6434	-0.45
Mof_F 	F 	0.8367	0.0658	0.6117	-0.334
Mof_F 	F 	0.9159	0.0675	0.661	-0.339
Mof_F 	F 	0.896	0.0258	0.691	-0.474
Mof_F 	F 	0.8572	0.0459	0.7203	-0.405
Mof_F 	F 	0.869	0.0451	0.7737	-0.317
Mof_F 	F 	0.8085	0.0461	0.6923	-0.403
Mof_F 	F 	0.9547	0.2937	0.2454	-0.33
Mof_O 	O 	0.97577	0.25187	0.57977	-0.585
Mof_O 	O 	0.94731	0.21111	0.55196	-0.609
Mof_O 	O 	0.02887	0.17675	0.47244	-0.59
Mof_O 	O 	0.04	0.9802	0.0703	-0.521
Mof_C 	C 	0.0259	0.266	0.6348	0.076
Mof_H 	H 	0.0423	0.2656	0.6254	0.043
Mof_C 	C 	0.025	0.2707	0.6623	-0.15
Mof_H 	H 	0.0409	0.2722	0.6723	0.133
Mof_C 	C 	0.0219	0.2952	0.7692	0.112
Mof_C 	C 	0.0462	0.1869	0.454	0.446
Mof_C 	C 	0.0622	0.1654	0.4405	-0.157
Mof_C 	C 	0.0821	0.17235	0.4218	0.124
Mof_H 	H 	0.0867	0.1904	0.4192	0.027
Mof_C 	C 	0.0953	0.1523	0.4071	-0.181
Mof_H 	H 	0.1086	0.1569	0.3947	0.141
Mof_C 	C 	0.0885	0.1252	0.4111	0.179
Mof_C 	C 	0.0686	0.11826	0.4298	-0.18
Mof_H 	H 	0.0641	0.1002	0.4324	0.133
Mof_C 	C 	0.0555	0.1384	0.4445	0.123
Mof_H 	H 	0.0421	0.1337	0.4569	0.024
Mof_C 	C 	0.1016	0.1043	0.3948	-0.053
Mof_C 	C 	0.1118	0.0876	0.381	0.169
Mof_C 	C 	0.1228	0.0666	0.363	-0.022
Mof_C 	C 	0.1486	0.0568	0.3683	0.137
Mof_C 	C 	0.1596	0.0364	0.3522	0.656
Mof_C 	C 	0.1446	0.02595	0.3307	-0.845
Mof_C 	C 	0.1188	0.0358	0.3254	0.685
Mof_C 	C 	0.1079	0.0561	0.3416	0.134
Mof_C 	C 	0.1427	0.0213	0.2668	0.646
Mof_C 	C 	0.1351	0.0213	0.2404	0.049
Mof_C 	C 	0.0863	0.9764	0.1379	-0.176
Mof_H 	H 	0.0954	0.9611	0.1439	0.14
Mof_C 	C 	0.0726	0.9768	0.1134	0.118
Mof_H 	H 	0.0688	0.9602	0.1052	0.029
Mof_C 	C 	0.204	0.0228	0.3025	0.576
Mof_F 	F 	0.1826	0.0277	0.3566	-0.45
Mof_F 	F 	0.1633	0.0658	0.3883	-0.334
Mof_F 	F 	0.0841	0.0675	0.339	-0.339
Mof_F 	F 	0.104	0.0258	0.309	-0.474
Mof_F 	F 	0.1428	0.0459	0.2797	-0.405
Mof_F 	F 	0.131	0.0451	0.2263	-0.317
Mof_F 	F 	0.1915	0.0461	0.3077	-0.403
Mof_F 	F 	0.0453	0.2937	0.7546	-0.33
Mof_O 	O 	0.97577	0.74813	0.42023	-0.585
Mof_O 	O 	0.94731	0.78889	0.44804	-0.609
Mof_O 	O 	0.02887	0.82325	0.52756	-0.59
Mof_O 	O 	0.04	0.0198	0.9297	-0.521
Mof_C 	C 	0.0259	0.734	0.3652	0.076
Mof_H 	H 	0.0423	0.7344	0.3746	0.043
Mof_C 	C 	0.025	0.7293	0.3377	-0.15
Mof_H 	H 	0.0409	0.7278	0.3277	0.133
Mof_C 	C 	0.0219	0.7048	0.2308	0.112
Mof_C 	C 	0.0462	0.8131	0.546	0.446
Mof_C 	C 	0.0622	0.8346	0.5595	-0.157
Mof_C 	C 	0.0821	0.82765	0.5782	0.124
Mof_H 	H 	0.0867	0.8096	0.5808	0.027
Mof_C 	C 	0.0953	0.8477	0.5929	-0.181
Mof_H 	H 	0.1086	0.8431	0.6053	0.141
Mof_C 	C 	0.0885	0.8748	0.5889	0.179
Mof_C 	C 	0.0686	0.88174	0.5702	-0.18
Mof_H 	H 	0.0641	0.8998	0.5676	0.133
Mof_C 	C 	0.0555	0.8616	0.5555	0.123
Mof_H 	H 	0.0421	0.8663	0.5431	0.024
Mof_C 	C 	0.1016	0.8957	0.6052	-0.053
Mof_C 	C 	0.1118	0.9124	0.619	0.169
Mof_C 	C 	0.1228	0.9334	0.637	-0.022
Mof_C 	C 	0.1486	0.9432	0.6317	0.137
Mof_C 	C 	0.1596	0.9636	0.6478	0.656
Mof_C 	C 	0.1446	0.97405	0.6693	-0.844
Mof_C 	C 	0.1188	0.9642	0.6746	0.685
Mof_C 	C 	0.1079	0.9439	0.6584	0.134
Mof_C 	C 	0.1427	0.9787	0.7332	0.647
Mof_C 	C 	0.1351	0.9787	0.7596	0.049
Mof_C 	C 	0.0863	0.0236	0.8621	-0.177
Mof_H 	H 	0.0954	0.0389	0.8561	0.14
Mof_C 	C 	0.0726	0.0232	0.8866	0.118
Mof_H 	H 	0.0688	0.0398	0.8948	0.029
Mof_C 	C 	0.204	0.9772	0.6975	0.576
Mof_F 	F 	0.1826	0.9723	0.6434	-0.45
Mof_F 	F 	0.1633	0.9342	0.6117	-0.334
Mof_F 	F 	0.0841	0.9325	0.661	-0.339
Mof_F 	F 	0.104	0.9742	0.691	-0.474
Mof_F 	F 	0.1428	0.9541	0.7203	-0.405
Mof_F 	F 	0.131	0.9549	0.7737	-0.317
Mof_F 	F 	0.1915	0.9539	0.6923	-0.403
Mof_F 	F 	0.0453	0.7063	0.2454	-0.33
Mof_O 	O 	0.57977	0.02423	0.74813	-0.585
Mof_O 	O 	0.55196	0.05269	0.78889	-0.609
Mof_O 	O 	0.47244	0.97113	0.82325	-0.589
Mof_O 	O 	0.0703	0.96	0.0198	-0.521
Mof_C 	C 	0.6348	0.9741	0.734	0.077
Mof_H 	H 	0.6254	0.9577	0.7344	0.043
Mof_C 	C 	0.6623	0.975	0.7293	-0.149
Mof_H 	H 	0.6723	0.9591	0.7278	0.133
Mof_C 	C 	0.7692	0.9781	0.7048	0.112
Mof_C 	C 	0.454	0.9538	0.8131	0.446
Mof_C 	C 	0.4405	0.9378	0.8346	-0.157
Mof_C 	C 	0.4218	0.9179	0.82765	0.124
Mof_H 	H 	0.4192	0.9133	0.8096	0.027
Mof_C 	C 	0.4071	0.9047	0.8477	-0.181
Mof_H 	H 	0.3947	0.8914	0.8431	0.141
Mof_C 	C 	0.4111	0.9115	0.8748	0.179
Mof_C 	C 	0.4298	0.9314	0.88174	-0.18
Mof_H 	H 	0.4324	0.9359	0.8998	0.133
Mof_C 	C 	0.4445	0.9445	0.8616	0.123
Mof_H 	H 	0.4569	0.9579	0.8663	0.024
Mof_C 	C 	0.3948	0.8984	0.8957	-0.053
Mof_C 	C 	0.381	0.8882	0.9124	0.169
Mof_C 	C 	0.363	0.8772	0.9334	-0.022
Mof_C 	C 	0.3683	0.8514	0.9432	0.137
Mof_C 	C 	0.3522	0.8404	0.9636	0.656
Mof_C 	C 	0.3307	0.8554	0.97405	-0.844
Mof_C 	C 	0.3254	0.8812	0.9642	0.685
Mof_C 	C 	0.3416	0.8921	0.9439	0.134
Mof_C 	C 	0.2668	0.8573	0.9787	0.647
Mof_C 	C 	0.2404	0.8649	0.9787	0.049
Mof_C 	C 	0.1379	0.9137	0.0236	-0.177
Mof_H 	H 	0.1439	0.9046	0.0389	0.14
Mof_C 	C 	0.1134	0.9274	0.0232	0.117
Mof_H 	H 	0.1052	0.9312	0.0398	0.029
Mof_C 	C 	0.3025	0.796	0.9772	0.576
Mof_F 	F 	0.3566	0.8174	0.9723	-0.45
Mof_F 	F 	0.3883	0.8367	0.9342	-0.334
Mof_F 	F 	0.339	0.9159	0.9325	-0.339
Mof_F 	F 	0.309	0.896	0.9742	-0.474
Mof_F 	F 	0.2797	0.8572	0.9541	-0.405
Mof_F 	F 	0.2263	0.869	0.9549	-0.317
Mof_F 	F 	0.3077	0.8085	0.9539	-0.403
Mof_F 	F 	0.7546	0.9547	0.7063	-0.33
Mof_O 	O 	0.42023	0.02423	0.25187	-0.585
Mof_O 	O 	0.44804	0.05269	0.21111	-0.609
Mof_O 	O 	0.52756	0.97113	0.17675	-0.589
Mof_O 	O 	0.9297	0.96	0.9802	-0.521
Mof_C 	C 	0.3652	0.9741	0.266	0.077
Mof_H 	H 	0.3746	0.9577	0.2656	0.043
Mof_C 	C 	0.3377	0.975	0.2707	-0.149
Mof_H 	H 	0.3277	0.9591	0.2722	0.133
Mof_C 	C 	0.2308	0.9781	0.2952	0.112
Mof_C 	C 	0.546	0.9538	0.1869	0.446
Mof_C 	C 	0.5595	0.9378	0.1654	-0.157
Mof_C 	C 	0.5782	0.9179	0.17235	0.124
Mof_H 	H 	0.5808	0.9133	0.1904	0.027
Mof_C 	C 	0.5929	0.9047	0.1523	-0.181
Mof_H 	H 	0.6053	0.8914	0.1569	0.141
Mof_C 	C 	0.5889	0.9115	0.1252	0.179
Mof_C 	C 	0.5702	0.9314	0.11826	-0.18
Mof_H 	H 	0.5676	0.9359	0.1002	0.133
Mof_C 	C 	0.5555	0.9445	0.1384	0.123
Mof_H 	H 	0.5431	0.9579	0.1337	0.024
Mof_C 	C 	0.6052	0.8984	0.1043	-0.053
Mof_C 	C 	0.619	0.8882	0.0876	0.169
Mof_C 	C 	0.637	0.8772	0.0666	-0.022
Mof_C 	C 	0.6317	0.8514	0.0568	0.137
Mof_C 	C 	0.6478	0.8404	0.0364	0.656
Mof_C 	C 	0.6693	0.8554	0.02595	-0.845
Mof_C 	C 	0.6746	0.8812	0.0358	0.685
Mof_C 	C 	0.6584	0.8921	0.0561	0.134
Mof_C 	C 	0.7332	0.8573	0.0213	0.646
Mof_C 	C 	0.7596	0.8649	0.0213	0.049
Mof_C 	C 	0.8621	0.9137	0.9764	-0.176
Mof_H 	H 	0.8561	0.9046	0.9611	0.14
Mof_C 	C 	0.8866	0.9274	0.9768	0.118
Mof_H 	H 	0.8948	0.9312	0.9602	0.029
Mof_C 	C 	0.6975	0.796	0.0228	0.575
Mof_F 	F 	0.6434	0.8174	0.0277	-0.45
Mof_F 	F 	0.6117	0.8367	0.0658	-0.334
Mof_F 	F 	0.661	0.9159	0.0675	-0.339
Mof_F 	F 	0.691	0.896	0.0258	-0.474
Mof_F 	F 	0.7203	0.8572	0.0459	-0.405
Mof_F 	F 	0.7737	0.869	0.0451	-0.317
Mof_F 	F 	0.6923	0.8085	0.0461	-0.403
Mof_F 	F 	0.2454	0.9547	0.2937	-0.33
Mof_O 	O 	0.57977	0.97577	0.25187	-0.585
Mof_O 	O 	0.55196	0.94731	0.21111	-0.609
Mof_O 	O 	0.47244	0.02887	0.17675	-0.59
Mof_O 	O 	0.0703	0.04	0.9802	-0.521
Mof_C 	C 	0.6348	0.0259	0.266	0.076
Mof_H 	H 	0.6254	0.0423	0.2656	0.043
Mof_C 	C 	0.6623	0.025	0.2707	-0.15
Mof_H 	H 	0.6723	0.0409	0.2722	0.133
Mof_C 	C 	0.7692	0.0219	0.2952	0.112
Mof_C 	C 	0.454	0.0462	0.1869	0.446
Mof_C 	C 	0.4405	0.0622	0.1654	-0.157
Mof_C 	C 	0.4218	0.0821	0.17235	0.124
Mof_H 	H 	0.4192	0.0867	0.1904	0.027
Mof_C 	C 	0.4071	0.0953	0.1523	-0.181
Mof_H 	H 	0.3947	0.1086	0.1569	0.141
Mof_C 	C 	0.4111	0.0885	0.1252	0.179
Mof_C 	C 	0.4298	0.0686	0.11826	-0.18
Mof_H 	H 	0.4324	0.0641	0.1002	0.133
Mof_C 	C 	0.4445	0.0555	0.1384	0.123
Mof_H 	H 	0.4569	0.0421	0.1337	0.024
Mof_C 	C 	0.3948	0.1016	0.1043	-0.053
Mof_C 	C 	0.381	0.1118	0.0876	0.169
Mof_C 	C 	0.363	0.1228	0.0666	-0.022
Mof_C 	C 	0.3683	0.1486	0.0568	0.137
Mof_C 	C 	0.3522	0.1596	0.0364	0.656
Mof_C 	C 	0.3307	0.1446	0.02595	-0.845
Mof_C 	C 	0.3254	0.1188	0.0358	0.685
Mof_C 	C 	0.3416	0.1079	0.0561	0.134
Mof_C 	C 	0.2668	0.1427	0.0213	0.646
Mof_C 	C 	0.2404	0.1351	0.0213	0.049
Mof_C 	C 	0.1379	0.0863	0.9764	-0.176
Mof_H 	H 	0.1439	0.0954	0.9611	0.14
Mof_C 	C 	0.1134	0.0726	0.9768	0.118
Mof_H 	H 	0.1052	0.0688	0.9602	0.029
Mof_C 	C 	0.3025	0.204	0.0228	0.576
Mof_F 	F 	0.3566	0.1826	0.0277	-0.45
Mof_F 	F 	0.3883	0.1633	0.0658	-0.334
Mof_F 	F 	0.339	0.0841	0.0675	-0.339
Mof_F 	F 	0.309	0.104	0.0258	-0.474
Mof_F 	F 	0.2797	0.1428	0.0459	-0.405
Mof_F 	F 	0.2263	0.131	0.0451	-0.317
Mof_F 	F 	0.3077	0.1915	0.0461	-0.403
Mof_F 	F 	0.7546	0.0453	0.2937	-0.33
Mof_O 	O 	0.42023	0.97577	0.74813	-0.585
Mof_O 	O 	0.44804	0.94731	0.78889	-0.609
Mof_O 	O 	0.52756	0.02887	0.82325	-0.59
Mof_O 	O 	0.9297	0.04	0.0198	-0.521
Mof_C 	C 	0.3652	0.0259	0.734	0.076
Mof_H 	H 	0.3746	0.0423	0.7344	0.043
Mof_C 	C 	0.3377	0.025	0.7293	-0.15
Mof_H 	H 	0.3277	0.0409	0.7278	0.133
Mof_C 	C 	0.2308	0.0219	0.7048	0.112
Mof_C 	C 	0.546	0.0462	0.8131	0.446
Mof_C 	C 	0.5595	0.0622	0.8346	-0.157
Mof_C 	C 	0.5782	0.0821	0.82765	0.124
Mof_H 	H 	0.5808	0.0867	0.8096	0.027
Mof_C 	C 	0.5929	0.0953	0.8477	-0.181
Mof_H 	H 	0.6053	0.1086	0.8431	0.141
Mof_C 	C 	0.5889	0.0885	0.8748	0.179
Mof_C 	C 	0.5702	0.0686	0.88174	-0.18
Mof_H 	H 	0.5676	0.0641	0.8998	0.133
Mof_C 	C 	0.5555	0.0555	0.8616	0.123
Mof_H 	H 	0.5431	0.0421	0.8663	0.024
Mof_C 	C 	0.6052	0.1016	0.8957	-0.053
Mof_C 	C 	0.619	0.1118	0.9124	0.169
Mof_C 	C 	0.637	0.1228	0.9334	-0.022
Mof_C 	C 	0.6317	0.1486	0.9432	0.137
Mof_C 	C 	0.6478	0.1596	0.9636	0.656
Mof_C 	C 	0.6693	0.1446	0.97405	-0.844
Mof_C 	C 	0.6746	0.1188	0.9642	0.685
Mof_C 	C 	0.6584	0.1079	0.9439	0.134
Mof_C 	C 	0.7332	0.1427	0.9787	0.647
Mof_C 	C 	0.7596	0.1351	0.9787	0.049
Mof_C 	C 	0.8621	0.0863	0.0236	-0.177
Mof_H 	H 	0.8561	0.0954	0.0389	0.14
Mof_C 	C 	0.8866	0.0726	0.0232	0.118
Mof_H 	H 	0.8948	0.0688	0.0398	0.029
Mof_C 	C 	0.6975	0.204	0.9772	0.576
Mof_F 	F 	0.6434	0.1826	0.9723	-0.45
Mof_F 	F 	0.6117	0.1633	0.9342	-0.334
Mof_F 	F 	0.661	0.0841	0.9325	-0.339
Mof_F 	F 	0.691	0.104	0.9742	-0.474
Mof_F 	F 	0.7203	0.1428	0.9541	-0.405
Mof_F 	F 	0.7737	0.131	0.9549	-0.317
Mof_F 	F 	0.6923	0.1915	0.9539	-0.403
Mof_F 	F 	0.2454	0.0453	0.7063	-0.33
Mof_O 	O 	0.07977	0.24813	0.47577	-0.585
Mof_O 	O 	0.05196	0.28889	0.44731	-0.609
Mof_O 	O 	0.97244	0.32325	0.52887	-0.589
Mof_O 	O 	0.5703	0.5198	0.54	-0.521
Mof_C 	C 	0.1348	0.234	0.5259	0.076
Mof_H 	H 	0.1254	0.2344	0.5423	0.043
Mof_C 	C 	0.1623	0.2293	0.525	-0.15
Mof_H 	H 	0.1723	0.2278	0.5409	0.133
Mof_C 	C 	0.2692	0.2048	0.5219	0.112
Mof_C 	C 	0.954	0.3131	0.5462	0.446
Mof_C 	C 	0.9405	0.3346	0.5622	-0.157
Mof_C 	C 	0.9218	0.32765	0.5821	0.124
Mof_H 	H 	0.9192	0.3096	0.5867	0.027
Mof_C 	C 	0.9071	0.3477	0.5953	-0.181
Mof_H 	H 	0.8947	0.3431	0.6086	0.141
Mof_C 	C 	0.9111	0.3748	0.5885	0.179
Mof_C 	C 	0.9298	0.38174	0.5686	-0.18
Mof_H 	H 	0.9324	0.3998	0.5641	0.133
Mof_C 	C 	0.9445	0.3616	0.5555	0.123
Mof_H 	H 	0.9569	0.3663	0.5421	0.024
Mof_C 	C 	0.8948	0.3957	0.6016	-0.053
Mof_C 	C 	0.881	0.4124	0.6118	0.169
Mof_C 	C 	0.863	0.4334	0.6228	-0.022
Mof_C 	C 	0.8683	0.4432	0.6486	0.137
Mof_C 	C 	0.8522	0.4636	0.6596	0.656
Mof_C 	C 	0.8307	0.47405	0.6446	-0.845
Mof_C 	C 	0.8254	0.4642	0.6188	0.685
Mof_C 	C 	0.8416	0.4439	0.6079	0.134
Mof_C 	C 	0.7668	0.4787	0.6427	0.646
Mof_C 	C 	0.7404	0.4787	0.6351	0.049
Mof_C 	C 	0.6379	0.5236	0.5863	-0.177
Mof_H 	H 	0.6439	0.5389	0.5954	0.14
Mof_C 	C 	0.6134	0.5232	0.5726	0.118
Mof_H 	H 	0.6052	0.5398	0.5688	0.029
Mof_C 	C 	0.8025	0.4772	0.704	0.576
Mof_F 	F 	0.8566	0.4723	0.6826	-0.45
Mof_F 	F 	0.8883	0.4342	0.6633	-0.334
Mof_F 	F 	0.839	0.4325	0.5841	-0.339
Mof_F 	F 	0.809	0.4742	0.604	-0.474
Mof_F 	F 	0.7797	0.4541	0.6428	-0.405
Mof_F 	F 	0.7263	0.4549	0.631	-0.317
Mof_F 	F 	0.8077	0.4539	0.6915	-0.403
Mof_F 	F 	0.2546	0.2063	0.5453	-0.33
Mof_O 	O 	0.92023	0.75187	0.47577	-0.585
Mof_O 	O 	0.94804	0.71111	0.44731	-0.609
Mof_O 	O 	0.02756	0.67675	0.52887	-0.59
Mof_O 	O 	0.4297	0.4802	0.54	-0.521
Mof_C 	C 	0.8652	0.766	0.5259	0.076
Mof_H 	H 	0.8746	0.7656	0.5423	0.043
Mof_C 	C 	0.8377	0.7707	0.525	-0.15
Mof_H 	H 	0.8277	0.7722	0.5409	0.133
Mof_C 	C 	0.7308	0.7952	0.5219	0.112
Mof_C 	C 	0.046	0.6869	0.5462	0.446
Mof_C 	C 	0.0595	0.6654	0.5622	-0.157
Mof_C 	C 	0.0782	0.67235	0.5821	0.124
Mof_H 	H 	0.0808	0.6904	0.5867	0.027
Mof_C 	C 	0.0929	0.6523	0.5953	-0.181
Mof_H 	H 	0.1053	0.6569	0.6086	0.141
Mof_C 	C 	0.0889	0.6252	0.5885	0.179
Mof_C 	C 	0.0702	0.61826	0.5686	-0.18
Mof_H 	H 	0.0676	0.6002	0.5641	0.133
Mof_C 	C 	0.0555	0.6384	0.5555	0.123
Mof_H 	H 	0.0431	0.6337	0.5421	0.024
Mof_C 	C 	0.1052	0.6043	0.6016	-0.053
Mof_C 	C 	0.119	0.5876	0.6118	0.169
Mof_C 	C 	0.137	0.5666	0.6228	-0.022
Mof_C 	C 	0.1317	0.5568	0.6486	0.137
Mof_C 	C 	0.1478	0.5364	0.6596	0.656
Mof_C 	C 	0.1693	0.52595	0.6446	-0.845
Mof_C 	C 	0.1746	0.5358	0.6188	0.685
Mof_C 	C 	0.1584	0.5561	0.6079	0.134
Mof_C 	C 	0.2332	0.5213	0.6427	0.646
Mof_C 	C 	0.2596	0.5213	0.6351	0.049
Mof_C 	C 	0.3621	0.4764	0.5863	-0.177
Mof_H 	H 	0.3561	0.4611	0.5954	0.14
Mof_C 	C 	0.3866	0.4768	0.5726	0.118
Mof_H 	H 	0.3948	0.4602	0.5688	0.029
Mof_C 	C 	0.1975	0.5228	0.704	0.576
Mof_F 	F 	0.1434	0.5277	0.6826	-0.45
Mof_F 	F 	0.1117	0.5658	0.6633	-0.334
Mof_F 	F 	0.161	0.5675	0.5841	-0.339
Mof_F 	F 	0.191	0.5258	0.604	-0.474
Mof_F 	F 	0.2203	0.5459	0.6428	-0.405
Mof_F 	F 	0.2737	0.5451	0.631	-0.317
Mof_F 	F 	0.1923	0.5461	0.6915	-0.403
Mof_F 	F 	0.7454	0.7937	0.5453	-0.33
Mof_O 	O 	0.07977	0.75187	0.52423	-0.585
Mof_O 	O 	0.05196	0.71111	0.55269	-0.609
Mof_O 	O 	0.97244	0.67675	0.47113	-0.589
Mof_O 	O 	0.5703	0.4802	0.46	-0.521
Mof_C 	C 	0.1348	0.766	0.4741	0.076
Mof_H 	H 	0.1254	0.7656	0.4577	0.043
Mof_C 	C 	0.1623	0.7707	0.475	-0.15
Mof_H 	H 	0.1723	0.7722	0.4591	0.133
Mof_C 	C 	0.2692	0.7952	0.4781	0.112
Mof_C 	C 	0.954	0.6869	0.4538	0.446
Mof_C 	C 	0.9405	0.6654	0.4378	-0.157
Mof_C 	C 	0.9218	0.67235	0.4179	0.124
Mof_H 	H 	0.9192	0.6904	0.4133	0.027
Mof_C 	C 	0.9071	0.6523	0.4047	-0.181
Mof_H 	H 	0.8947	0.6569	0.3914	0.141
Mof_C 	C 	0.9111	0.6252	0.4115	0.179
Mof_C 	C 	0.9298	0.61826	0.4314	-0.18
Mof_H 	H 	0.9324	0.6002	0.4359	0.133
Mof_C 	C 	0.9445	0.6384	0.4445	0.123
Mof_H 	H 	0.9569	0.6337	0.4579	0.024
Mof_C 	C 	0.8948	0.6043	0.3984	-0.053
Mof_C 	C 	0.881	0.5876	0.3882	0.169
Mof_C 	C 	0.863	0.5666	0.3772	-0.022
Mof_C 	C 	0.8683	0.5568	0.3514	0.137
Mof_C 	C 	0.8522	0.5364	0.3404	0.656
Mof_C 	C 	0.8307	0.52595	0.3554	-0.845
Mof_C 	C 	0.8254	0.5358	0.3812	0.685
Mof_C 	C 	0.8416	0.5561	0.3921	0.134
Mof_C 	C 	0.7668	0.5213	0.3573	0.646
Mof_C 	C 	0.7404	0.5213	0.3649	0.049
Mof_C 	C 	0.6379	0.4764	0.4137	-0.177
Mof_H 	H 	0.6439	0.4611	0.4046	0.14
Mof_C 	C 	0.6134	0.4768	0.4274	0.118
Mof_H 	H 	0.6052	0.4602	0.4312	0.029
Mof_C 	C 	0.8025	0.5228	0.296	0.576
Mof_F 	F 	0.8566	0.5277	0.3174	-0.45
Mof_F 	F 	0.8883	0.5658	0.3367	-0.334
Mof_F 	F 	0.839	0.5675	0.4159	-0.339
Mof_F 	F 	0.809	0.5258	0.396	-0.474
Mof_F 	F 	0.7797	0.5459	0.3572	-0.405
Mof_F 	F 	0.7263	0.5451	0.369	-0.317
Mof_F 	F 	0.8077	0.5461	0.3085	-0.403
Mof_F 	F 	0.2546	0.7937	0.4547	-0.33
Mof_O 	O 	0.92023	0.24813	0.52423	-0.585
Mof_O 	O 	0.94804	0.28889	0.55269	-0.609
Mof_O 	O 	0.02756	0.32325	0.47113	-0.59
Mof_O 	O 	0.4297	0.5198	0.46	-0.521
Mof_C 	C 	0.8652	0.234	0.4741	0.076
Mof_H 	H 	0.8746	0.2344	0.4577	0.043
Mof_C 	C 	0.8377	0.2293	0.475	-0.15
Mof_H 	H 	0.8277	0.2278	0.4591	0.133
Mof_C 	C 	0.7308	0.2048	0.4781	0.112
Mof_C 	C 	0.046	0.3131	0.4538	0.446
Mof_C 	C 	0.0595	0.3346	0.4378	-0.157
Mof_C 	C 	0.0782	0.32765	0.4179	0.124
Mof_H 	H 	0.0808	0.3096	0.4133	0.027
Mof_C 	C 	0.0929	0.3477	0.4047	-0.181
Mof_H 	H 	0.1053	0.3431	0.3914	0.141
Mof_C 	C 	0.0889	0.3748	0.4115	0.179
Mof_C 	C 	0.0702	0.38174	0.4314	-0.18
Mof_H 	H 	0.0676	0.3998	0.4359	0.133
Mof_C 	C 	0.0555	0.3616	0.4445	0.123
Mof_H 	H 	0.0431	0.3663	0.4579	0.024
Mof_C 	C 	0.1052	0.3957	0.3984	-0.053
Mof_C 	C 	0.119	0.4124	0.3882	0.169
Mof_C 	C 	0.137	0.4334	0.3772	-0.022
Mof_C 	C 	0.1317	0.4432	0.3514	0.137
Mof_C 	C 	0.1478	0.4636	0.3404	0.656
Mof_C 	C 	0.1693	0.47405	0.3554	-0.845
Mof_C 	C 	0.1746	0.4642	0.3812	0.685
Mof_C 	C 	0.1584	0.4439	0.3921	0.134
Mof_C 	C 	0.2332	0.4787	0.3573	0.646
Mof_C 	C 	0.2596	0.4787	0.3649	0.049
Mof_C 	C 	0.3621	0.5236	0.4137	-0.177
Mof_H 	H 	0.3561	0.5389	0.4046	0.14
Mof_C 	C 	0.3866	0.5232	0.4274	0.118
Mof_H 	H 	0.3948	0.5398	0.4312	0.029
Mof_C 	C 	0.1975	0.4772	0.296	0.576
Mof_F 	F 	0.1434	0.4723	0.3174	-0.45
Mof_F 	F 	0.1117	0.4342	0.3367	-0.334
Mof_F 	F 	0.161	0.4325	0.4159	-0.339
Mof_F 	F 	0.191	0.4742	0.396	-0.474
Mof_F 	F 	0.2203	0.4541	0.3572	-0.405
Mof_F 	F 	0.2737	0.4549	0.369	-0.317
Mof_F 	F 	0.1923	0.4539	0.3085	-0.403
Mof_F 	F 	0.7454	0.2063	0.4547	-0.33
Mof_O 	O 	0.24813	0.52423	0.92023	-0.585
Mof_O 	O 	0.28889	0.55269	0.94804	-0.609
Mof_O 	O 	0.32325	0.47113	0.02756	-0.59
Mof_O 	O 	0.5198	0.46	0.4297	-0.521
Mof_C 	C 	0.234	0.4741	0.8652	0.076
Mof_H 	H 	0.2344	0.4577	0.8746	0.043
Mof_C 	C 	0.2293	0.475	0.8377	-0.15
Mof_H 	H 	0.2278	0.4591	0.8277	0.133
Mof_C 	C 	0.2048	0.4781	0.7308	0.112
Mof_C 	C 	0.3131	0.4538	0.046	0.446
Mof_C 	C 	0.3346	0.4378	0.0595	-0.157
Mof_C 	C 	0.32765	0.4179	0.0782	0.124
Mof_H 	H 	0.3096	0.4133	0.0808	0.027
Mof_C 	C 	0.3477	0.4047	0.0929	-0.181
Mof_H 	H 	0.3431	0.3914	0.1053	0.141
Mof_C 	C 	0.3748	0.4115	0.0889	0.179
Mof_C 	C 	0.38174	0.4314	0.0702	-0.18
Mof_H 	H 	0.3998	0.4359	0.0676	0.133
Mof_C 	C 	0.3616	0.4445	0.0555	0.123
Mof_H 	H 	0.3663	0.4579	0.0431	0.024
Mof_C 	C 	0.3957	0.3984	0.1052	-0.053
Mof_C 	C 	0.4124	0.3882	0.119	0.169
Mof_C 	C 	0.4334	0.3772	0.137	-0.022
Mof_C 	C 	0.4432	0.3514	0.1317	0.137
Mof_C 	C 	0.4636	0.3404	0.1478	0.656
Mof_C 	C 	0.47405	0.3554	0.1693	-0.845
Mof_C 	C 	0.4642	0.3812	0.1746	0.685
Mof_C 	C 	0.4439	0.3921	0.1584	0.134
Mof_C 	C 	0.4787	0.3573	0.2332	0.646
Mof_C 	C 	0.4787	0.3649	0.2596	0.049
Mof_C 	C 	0.5236	0.4137	0.3621	-0.177
Mof_H 	H 	0.5389	0.4046	0.3561	0.14
Mof_C 	C 	0.5232	0.4274	0.3866	0.118
Mof_H 	H 	0.5398	0.4312	0.3948	0.029
Mof_C 	C 	0.4772	0.296	0.1975	0.576
Mof_F 	F 	0.4723	0.3174	0.1434	-0.45
Mof_F 	F 	0.4342	0.3367	0.1117	-0.334
Mof_F 	F 	0.4325	0.4159	0.161	-0.339
Mof_F 	F 	0.4742	0.396	0.191	-0.474
Mof_F 	F 	0.4541	0.3572	0.2203	-0.405
Mof_F 	F 	0.4549	0.369	0.2737	-0.317
Mof_F 	F 	0.4539	0.3085	0.1923	-0.403
Mof_F 	F 	0.2063	0.4547	0.7454	-0.33
Mof_O 	O 	0.75187	0.52423	0.07977	-0.585
Mof_O 	O 	0.71111	0.55269	0.05196	-0.609
Mof_O 	O 	0.67675	0.47113	0.97244	-0.589
Mof_O 	O 	0.4802	0.46	0.5703	-0.521
Mof_C 	C 	0.766	0.4741	0.1348	0.076
Mof_H 	H 	0.7656	0.4577	0.1254	0.043
Mof_C 	C 	0.7707	0.475	0.1623	-0.15
Mof_H 	H 	0.7722	0.4591	0.1723	0.133
Mof_C 	C 	0.7952	0.4781	0.2692	0.112
Mof_C 	C 	0.6869	0.4538	0.954	0.446
Mof_C 	C 	0.6654	0.4378	0.9405	-0.157
Mof_C 	C 	0.67235	0.4179	0.9218	0.124
Mof_H 	H 	0.6904	0.4133	0.9192	0.027
Mof_C 	C 	0.6523	0.4047	0.9071	-0.181
Mof_H 	H 	0.6569	0.3914	0.8947	0.141
Mof_C 	C 	0.6252	0.4115	0.9111	0.179
Mof_C 	C 	0.61826	0.4314	0.9298	-0.18
Mof_H 	H 	0.6002	0.4359	0.9324	0.133
Mof_C 	C 	0.6384	0.4445	0.9445	0.123
Mof_H 	H 	0.6337	0.4579	0.9569	0.024
Mof_C 	C 	0.6043	0.3984	0.8948	-0.053
Mof_C 	C 	0.5876	0.3882	0.881	0.169
Mof_C 	C 	0.5666	0.3772	0.863	-0.022
Mof_C 	C 	0.5568	0.3514	0.8683	0.137
Mof_C 	C 	0.5364	0.3404	0.8522	0.656
Mof_C 	C 	0.52595	0.3554	0.8307	-0.845
Mof_C 	C 	0.5358	0.3812	0.8254	0.685
Mof_C 	C 	0.5561	0.3921	0.8416	0.134
Mof_C 	C 	0.5213	0.3573	0.7668	0.646
Mof_C 	C 	0.5213	0.3649	0.7404	0.049
Mof_C 	C 	0.4764	0.4137	0.6379	-0.177
Mof_H 	H 	0.4611	0.4046	0.6439	0.14
Mof_C 	C 	0.4768	0.4274	0.6134	0.118
Mof_H 	H 	0.4602	0.4312	0.6052	0.029
Mof_C 	C 	0.5228	0.296	0.8025	0.576
Mof_F 	F 	0.5277	0.3174	0.8566	-0.45
Mof_F 	F 	0.5658	0.3367	0.8883	-0.334
Mof_F 	F 	0.5675	0.4159	0.839	-0.339
Mof_F 	F 	0.5258	0.396	0.809	-0.474
Mof_F 	F 	0.5459	0.3572	0.7797	-0.405
Mof_F 	F 	0.5451	0.369	0.7263	-0.317
Mof_F 	F 	0.5461	0.3085	0.8077	-0.403
Mof_F 	F 	0.7937	0.4547	0.2546	-0.33
Mof_O 	O 	0.75187	0.47577	0.92023	-0.585
Mof_O 	O 	0.71111	0.44731	0.94804	-0.609
Mof_O 	O 	0.67675	0.52887	0.02756	-0.59
Mof_O 	O 	0.4802	0.54	0.4297	-0.521
Mof_C 	C 	0.766	0.5259	0.8652	0.076
Mof_H 	H 	0.7656	0.5423	0.8746	0.043
Mof_C 	C 	0.7707	0.525	0.8377	-0.15
Mof_H 	H 	0.7722	0.5409	0.8277	0.133
Mof_C 	C 	0.7952	0.5219	0.7308	0.112
Mof_C 	C 	0.6869	0.5462	0.046	0.446
Mof_C 	C 	0.6654	0.5622	0.0595	-0.157
Mof_C 	C 	0.67235	0.5821	0.0782	0.124
Mof_H 	H 	0.6904	0.5867	0.0808	0.027
Mof_C 	C 	0.6523	0.5953	0.0929	-0.181
Mof_H 	H 	0.6569	0.6086	0.1053	0.141
Mof_C 	C 	0.6252	0.5885	0.0889	0.179
Mof_C 	C 	0.61826	0.5686	0.0702	-0.18
Mof_H 	H 	0.6002	0.5641	0.0676	0.133
Mof_C 	C 	0.6384	0.5555	0.0555	0.123
Mof_H 	H 	0.6337	0.5421	0.0431	0.024
Mof_C 	C 	0.6043	0.6016	0.1052	-0.053
Mof_C 	C 	0.5876	0.6118	0.119	0.169
Mof_C 	C 	0.5666	0.6228	0.137	-0.022
Mof_C 	C 	0.5568	0.6486	0.1317	0.137
Mof_C 	C 	0.5364	0.6596	0.1478	0.656
Mof_C 	C 	0.52595	0.6446	0.1693	-0.845
Mof_C 	C 	0.5358	0.6188	0.1746	0.685
Mof_C 	C 	0.5561	0.6079	0.1584	0.134
Mof_C 	C 	0.5213	0.6427	0.2332	0.646
Mof_C 	C 	0.5213	0.6351	0.2596	0.049
Mof_C 	C 	0.4764	0.5863	0.3621	-0.177
Mof_H 	H 	0.4611	0.5954	0.3561	0.14
Mof_C 	C 	0.4768	0.5726	0.3866	0.118
Mof_H 	H 	0.4602	0.5688	0.3948	0.029
Mof_C 	C 	0.5228	0.704	0.1975	0.576
Mof_F 	F 	0.5277	0.6826	0.1434	-0.45
Mof_F 	F 	0.5658	0.6633	0.1117	-0.334
Mof_F 	F 	0.5675	0.5841	0.161	-0.339
Mof_F 	F 	0.5258	0.604	0.191	-0.474
Mof_F 	F 	0.5459	0.6428	0.2203	-0.405
Mof_F 	F 	0.5451	0.631	0.2737	-0.317
Mof_F 	F 	0.5461	0.6915	0.1923	-0.403
Mof_F 	F 	0.7937	0.5453	0.7454	-0.33
Mof_O 	O 	0.24813	0.47577	0.07977	-0.585
Mof_O 	O 	0.28889	0.44731	0.05196	-0.609
Mof_O 	O 	0.32325	0.52887	0.97244	-0.589
Mof_O 	O 	0.5198	0.54	0.5703	-0.521
Mof_C 	C 	0.234	0.5259	0.1348	0.076
Mof_H 	H 	0.2344	0.5423	0.1254	0.043
Mof_C 	C 	0.2293	0.525	0.1623	-0.15
Mof_H 	H 	0.2278	0.5409	0.1723	0.133
Mof_C 	C 	0.2048	0.5219	0.2692	0.112
Mof_C 	C 	0.3131	0.5462	0.954	0.446
Mof_C 	C 	0.3346	0.5622	0.9405	-0.157
Mof_C 	C 	0.32765	0.5821	0.9218	0.124
Mof_H 	H 	0.3096	0.5867	0.9192	0.027
Mof_C 	C 	0.3477	0.5953	0.9071	-0.181
Mof_H 	H 	0.3431	0.6086	0.8947	0.141
Mof_C 	C 	0.3748	0.5885	0.9111	0.179
Mof_C 	C 	0.38174	0.5686	0.9298	-0.18
Mof_H 	H 	0.3998	0.5641	0.9324	0.133
Mof_C 	C 	0.3616	0.5555	0.9445	0.123
Mof_H 	H 	0.3663	0.5421	0.9569	0.024
Mof_C 	C 	0.3957	0.6016	0.8948	-0.053
Mof_C 	C 	0.4124	0.6118	0.881	0.169
Mof_C 	C 	0.4334	0.6228	0.863	-0.022
Mof_C 	C 	0.4432	0.6486	0.8683	0.137
Mof_C 	C 	0.4636	0.6596	0.8522	0.656
Mof_C 	C 	0.47405	0.6446	0.8307	-0.845
Mof_C 	C 	0.4642	0.6188	0.8254	0.685
Mof_C 	C 	0.4439	0.6079	0.8416	0.134
Mof_C 	C 	0.4787	0.6427	0.7668	0.646
Mof_C 	C 	0.4787	0.6351	0.7404	0.049
Mof_C 	C 	0.5236	0.5863	0.6379	-0.177
Mof_H 	H 	0.5389	0.5954	0.6439	0.14
Mof_C 	C 	0.5232	0.5726	0.6134	0.118
Mof_H 	H 	0.5398	0.5688	0.6052	0.029
Mof_C 	C 	0.4772	0.704	0.8025	0.576
Mof_F 	F 	0.4723	0.6826	0.8566	-0.45
Mof_F 	F 	0.4342	0.6633	0.8883	-0.334
Mof_F 	F 	0.4325	0.5841	0.839	-0.339
Mof_F 	F 	0.4742	0.604	0.809	-0.474
Mof_F 	F 	0.4541	0.6428	0.7797	-0.405
Mof_F 	F 	0.4549	0.631	0.7263	-0.317
Mof_F 	F 	0.4539	0.6915	0.8077	-0.403
Mof_F 	F 	0.2063	0.5453	0.2546	-0.33
Mof_O 	O 	0.52423	0.07977	0.75187	-0.585
Mof_O 	O 	0.55269	0.05196	0.71111	-0.609
Mof_O 	O 	0.47113	0.97244	0.67675	-0.589
Mof_O 	O 	0.46	0.5703	0.4802	-0.521
Mof_C 	C 	0.4741	0.1348	0.766	0.076
Mof_H 	H 	0.4577	0.1254	0.7656	0.043
Mof_C 	C 	0.475	0.1623	0.7707	-0.15
Mof_H 	H 	0.4591	0.1723	0.7722	0.133
Mof_C 	C 	0.4781	0.2692	0.7952	0.112
Mof_C 	C 	0.4538	0.954	0.6869	0.446
Mof_C 	C 	0.4378	0.9405	0.6654	-0.157
Mof_C 	C 	0.4179	0.9218	0.67235	0.124
Mof_H 	H 	0.4133	0.9192	0.6904	0.027
Mof_C 	C 	0.4047	0.9071	0.6523	-0.181
Mof_H 	H 	0.3914	0.8947	0.6569	0.141
Mof_C 	C 	0.4115	0.9111	0.6252	0.179
Mof_C 	C 	0.4314	0.9298	0.61826	-0.18
Mof_H 	H 	0.4359	0.9324	0.6002	0.133
Mof_C 	C 	0.4445	0.9445	0.6384	0.123
Mof_H 	H 	0.4579	0.9569	0.6337	0.024
Mof_C 	C 	0.3984	0.8948	0.6043	-0.053
Mof_C 	C 	0.3882	0.881	0.5876	0.169
Mof_C 	C 	0.3772	0.863	0.5666	-0.022
Mof_C 	C 	0.3514	0.8683	0.5568	0.137
Mof_C 	C 	0.3404	0.8522	0.5364	0.656
Mof_C 	C 	0.3554	0.8307	0.52595	-0.845
Mof_C 	C 	0.3812	0.8254	0.5358	0.685
Mof_C 	C 	0.3921	0.8416	0.5561	0.134
Mof_C 	C 	0.3573	0.7668	0.5213	0.646
Mof_C 	C 	0.3649	0.7404	0.5213	0.049
Mof_C 	C 	0.4137	0.6379	0.4764	-0.177
Mof_H 	H 	0.4046	0.6439	0.4611	0.14
Mof_C 	C 	0.4274	0.6134	0.4768	0.118
Mof_H 	H 	0.4312	0.6052	0.4602	0.029
Mof_C 	C 	0.296	0.8025	0.5228	0.576
Mof_F 	F 	0.3174	0.8566	0.5277	-0.45
Mof_F 	F 	0.3367	0.8883	0.5658	-0.334
Mof_F 	F 	0.4159	0.839	0.5675	-0.339
Mof_F 	F 	0.396	0.809	0.5258	-0.474
Mof_F 	F 	0.3572	0.7797	0.5459	-0.405
Mof_F 	F 	0.369	0.7263	0.5451	-0.317
Mof_F 	F 	0.3085	0.8077	0.5461	-0.403
Mof_F 	F 	0.4547	0.2546	0.7937	-0.33
Mof_O 	O 	0.52423	0.92023	0.24813	-0.585
Mof_O 	O 	0.55269	0.94804	0.28889	-0.609
Mof_O 	O 	0.47113	0.02756	0.32325	-0.59
Mof_O 	O 	0.46	0.4297	0.5198	-0.521
Mof_C 	C 	0.4741	0.8652	0.234	0.076
Mof_H 	H 	0.4577	0.8746	0.2344	0.043
Mof_C 	C 	0.475	0.8377	0.2293	-0.15
Mof_H 	H 	0.4591	0.8277	0.2278	0.133
Mof_C 	C 	0.4781	0.7308	0.2048	0.112
Mof_C 	C 	0.4538	0.046	0.3131	0.446
Mof_C 	C 	0.4378	0.0595	0.3346	-0.157
Mof_C 	C 	0.4179	0.0782	0.32765	0.124
Mof_H 	H 	0.4133	0.0808	0.3096	0.027
Mof_C 	C 	0.4047	0.0929	0.3477	-0.181
Mof_H 	H 	0.3914	0.1053	0.3431	0.141
Mof_C 	C 	0.4115	0.0889	0.3748	0.179
Mof_C 	C 	0.4314	0.0702	0.38174	-0.18
Mof_H 	H 	0.4359	0.0676	0.3998	0.133
Mof_C 	C 	0.4445	0.0555	0.3616	0.123
Mof_H 	H 	0.4579	0.0431	0.3663	0.024
Mof_C 	C 	0.3984	0.1052	0.3957	-0.053
Mof_C 	C 	0.3882	0.119	0.4124	0.169
Mof_C 	C 	0.3772	0.137	0.4334	-0.022
Mof_C 	C 	0.3514	0.1317	0.4432	0.137
Mof_C 	C 	0.3404	0.1478	0.4636	0.656
Mof_C 	C 	0.3554	0.1693	0.47405	-0.845
Mof_C 	C 	0.3812	0.1746	0.4642	0.685
Mof_C 	C 	0.3921	0.1584	0.4439	0.134
Mof_C 	C 	0.3573	0.2332	0.4787	0.646
Mof_C 	C 	0.3649	0.2596	0.4787	0.049
Mof_C 	C 	0.4137	0.3621	0.5236	-0.177
Mof_H 	H 	0.4046	0.3561	0.5389	0.14
Mof_C 	C 	0.4274	0.3866	0.5232	0.118
Mof_H 	H 	0.4312	0.3948	0.5398	0.029
Mof_C 	C 	0.296	0.1975	0.4772	0.576
Mof_F 	F 	0.3174	0.1434	0.4723	-0.45
Mof_F 	F 	0.3367	0.1117	0.4342	-0.334
Mof_F 	F 	0.4159	0.161	0.4325	-0.339
Mof_F 	F 	0.396	0.191	0.4742	-0.474
Mof_F 	F 	0.3572	0.2203	0.4541	-0.405
Mof_F 	F 	0.369	0.2737	0.4549	-0.317
Mof_F 	F 	0.3085	0.1923	0.4539	-0.403
Mof_F 	F 	0.4547	0.7454	0.2063	-0.33
Mof_O 	O 	0.47577	0.07977	0.24813	-0.585
Mof_O 	O 	0.44731	0.05196	0.28889	-0.609
Mof_O 	O 	0.52887	0.97244	0.32325	-0.589
Mof_O 	O 	0.54	0.5703	0.5198	-0.521
Mof_C 	C 	0.5259	0.1348	0.234	0.076
Mof_H 	H 	0.5423	0.1254	0.2344	0.043
Mof_C 	C 	0.525	0.1623	0.2293	-0.15
Mof_H 	H 	0.5409	0.1723	0.2278	0.133
Mof_C 	C 	0.5219	0.2692	0.2048	0.112
Mof_C 	C 	0.5462	0.954	0.3131	0.446
Mof_C 	C 	0.5622	0.9405	0.3346	-0.157
Mof_C 	C 	0.5821	0.9218	0.32765	0.124
Mof_H 	H 	0.5867	0.9192	0.3096	0.027
Mof_C 	C 	0.5953	0.9071	0.3477	-0.181
Mof_H 	H 	0.6086	0.8947	0.3431	0.141
Mof_C 	C 	0.5885	0.9111	0.3748	0.179
Mof_C 	C 	0.5686	0.9298	0.38174	-0.18
Mof_H 	H 	0.5641	0.9324	0.3998	0.133
Mof_C 	C 	0.5555	0.9445	0.3616	0.123
Mof_H 	H 	0.5421	0.9569	0.3663	0.024
Mof_C 	C 	0.6016	0.8948	0.3957	-0.053
Mof_C 	C 	0.6118	0.881	0.4124	0.169
Mof_C 	C 	0.6228	0.863	0.4334	-0.022
Mof_C 	C 	0.6486	0.8683	0.4432	0.137
Mof_C 	C 	0.6596	0.8522	0.4636	0.656
Mof_C 	C 	0.6446	0.8307	0.47405	-0.845
Mof_C 	C 	0.6188	0.8254	0.4642	0.685
Mof_C 	C 	0.6079	0.8416	0.4439	0.134
Mof_C 	C 	0.6427	0.7668	0.4787	0.646
Mof_C 	C 	0.6351	0.7404	0.4787	0.049
Mof_C 	C 	0.5863	0.6379	0.5236	-0.177
Mof_H 	H 	0.5954	0.6439	0.5389	0.14
Mof_C 	C 	0.5726	0.6134	0.5232	0.118
Mof_H 	H 	0.5688	0.6052	0.5398	0.029
Mof_C 	C 	0.704	0.8025	0.4772	0.576
Mof_F 	F 	0.6826	0.8566	0.4723	-0.45
Mof_F 	F 	0.6633	0.8883	0.4342	-0.334
Mof_F 	F 	0.5841	0.839	0.4325	-0.339
Mof_F 	F 	0.604	0.809	0.4742	-0.474
Mof_F 	F 	0.6428	0.7797	0.4541	-0.405
Mof_F 	F 	0.631	0.7263	0.4549	-0.317
Mof_F 	F 	0.6915	0.8077	0.4539	-0.403
Mof_F 	F 	0.5453	0.2546	0.2063	-0.33
Mof_O 	O 	0.47577	0.92023	0.75187	-0.585
Mof_O 	O 	0.44731	0.94804	0.71111	-0.609
Mof_O 	O 	0.52887	0.02756	0.67675	-0.59
Mof_O 	O 	0.54	0.4297	0.4802	-0.521
Mof_C 	C 	0.5259	0.8652	0.766	0.076
Mof_H 	H 	0.5423	0.8746	0.7656	0.043
Mof_C 	C 	0.525	0.8377	0.7707	-0.15
Mof_H 	H 	0.5409	0.8277	0.7722	0.133
Mof_C 	C 	0.5219	0.7308	0.7952	0.112
Mof_C 	C 	0.5462	0.046	0.6869	0.446
Mof_C 	C 	0.5622	0.0595	0.6654	-0.157
Mof_C 	C 	0.5821	0.0782	0.67235	0.124
Mof_H 	H 	0.5867	0.0808	0.6904	0.027
Mof_C 	C 	0.5953	0.0929	0.6523	-0.181
Mof_H 	H 	0.6086	0.1053	0.6569	0.141
Mof_C 	C 	0.5885	0.0889	0.6252	0.179
Mof_C 	C 	0.5686	0.0702	0.61826	-0.18
Mof_H 	H 	0.5641	0.0676	0.6002	0.133
Mof_C 	C 	0.5555	0.0555	0.6384	0.123
Mof_H 	H 	0.5421	0.0431	0.6337	0.024
Mof_C 	C 	0.6016	0.1052	0.6043	-0.053
Mof_C 	C 	0.6118	0.119	0.5876	0.169
Mof_C 	C 	0.6228	0.137	0.5666	-0.022
Mof_C 	C 	0.6486	0.1317	0.5568	0.137
Mof_C 	C 	0.6596	0.1478	0.5364	0.656
Mof_C 	C 	0.6446	0.1693	0.52595	-0.845
Mof_C 	C 	0.6188	0.1746	0.5358	0.685
Mof_C 	C 	0.6079	0.1584	0.5561	0.134
Mof_C 	C 	0.6427	0.2332	0.5213	0.646
Mof_C 	C 	0.6351	0.2596	0.5213	0.049
Mof_C 	C 	0.5863	0.3621	0.4764	-0.177
Mof_H 	H 	0.5954	0.3561	0.4611	0.14
Mof_C 	C 	0.5726	0.3866	0.4768	0.118
Mof_H 	H 	0.5688	0.3948	0.4602	0.029
Mof_C 	C 	0.704	0.1975	0.5228	0.576
Mof_F 	F 	0.6826	0.1434	0.5277	-0.45
Mof_F 	F 	0.6633	0.1117	0.5658	-0.334
Mof_F 	F 	0.5841	0.161	0.5675	-0.339
Mof_F 	F 	0.604	0.191	0.5258	-0.474
Mof_F 	F 	0.6428	0.2203	0.5459	-0.405
Mof_F 	F 	0.631	0.2737	0.5451	-0.317
Mof_F 	F 	0.6915	0.1923	0.5461	-0.403
Mof_F 	F 	0.5453	0.7454	0.7937	-0.33
Mof_Zr	Zr	0.25	0.4644	0.9644	3.206
Mof_Zr	Zr	0.75	0.5356	0.9644	3.206
Mof_Zr	Zr	0.75	0.4644	0.0356	3.206
Mof_Zr	Zr	0.25	0.5356	0.0356	3.206
Mof_Zr	Zr	0.9644	0.25	0.4644	3.206
Mof_Zr	Zr	0.9644	0.75	0.5356	3.206
Mof_Zr	Zr	0.0356	0.75	0.4644	3.206
Mof_Zr	Zr	0.0356	0.25	0.5356	3.206
Mof_Zr	Zr	0.4644	0.9644	0.25	3.206
Mof_Zr	Zr	0.5356	0.9644	0.75	3.206
Mof_Zr	Zr	0.4644	0.0356	0.75	3.206
Mof_Zr	Zr	0.5356	0.0356	0.25	3.206
Mof_Zr	Zr	0.75	0.5356	0.0356	3.206
Mof_Zr	Zr	0.25	0.4644	0.0356	3.206
Mof_Zr	Zr	0.25	0.5356	0.9644	3.206
Mof_Zr	Zr	0.75	0.4644	0.9644	3.206
Mof_Zr	Zr	0.0356	0.75	0.5356	3.206
Mof_Zr	Zr	0.0356	0.25	0.4644	3.206
Mof_Zr	Zr	0.9644	0.25	0.5356	3.206
Mof_Zr	Zr	0.9644	0.75	0.4644	3.206
Mof_Zr	Zr	0.5356	0.0356	0.75	3.206
Mof_Zr	Zr	0.4644	0.0356	0.25	3.206
Mof_Zr	Zr	0.5356	0.9644	0.25	3.206
Mof_Zr	Zr	0.4644	0.9644	0.75	3.206
Mof_Zr	Zr	0.19962	0.5	-0	3.202
Mof_Zr	Zr	0.80038	0.5	-0	3.202
Mof_Zr	Zr	-4.84025e-33	0.19962	0.5	3.202
Mof_Zr	Zr	-4.84025e-33	0.80038	0.5	3.202
Mof_Zr	Zr	0.5	-1.67874e-33	0.19962	3.202
Mof_Zr	Zr	0.5	-1.34299e-32	0.80038	3.202
Mof_Zr	Zr	-2.49851e-32	0.69962	0.5	3.202
Mof_Zr	Zr	-1.15552e-32	0.30038	0.5	3.202
Mof_Zr	Zr	0.69962	0.5	-0	3.202
Mof_Zr	Zr	0.30038	0.5	-0	3.202
Mof_Zr	Zr	0.5	-3.35748e-33	0.30038	3.202
Mof_Zr	Zr	0.5	-6.71495e-33	0.69962	3.202
Mof_Zr	Zr	0.97299	0.97299	0.02701	3.278
Mof_Zr	Zr	0.02701	0.02701	0.02701	3.278
Mof_Zr	Zr	0.02701	0.97299	0.97299	3.278
Mof_Zr	Zr	0.97299	0.02701	0.97299	3.278
Mof_Zr	Zr	0.47299	0.47299	0.47299	3.278
Mof_Zr	Zr	0.52701	0.52701	0.47299	3.278
Mof_Zr	Zr	0.47299	0.52701	0.52701	3.278
Mof_Zr	Zr	0.52701	0.47299	0.52701	3.278
Mof_Zr	Zr	0.02701	0.02701	0.97299	3.278
Mof_Zr	Zr	0.97299	0.97299	0.97299	3.278
Mof_Zr	Zr	0.97299	0.02701	0.02701	3.278
Mof_Zr	Zr	0.02701	0.97299	0.02701	3.278
Mof_Zr	Zr	0.52701	0.52701	0.52701	3.278
Mof_Zr	Zr	0.47299	0.47299	0.52701	3.278
Mof_Zr	Zr	0.52701	0.47299	0.47299	3.278
Mof_Zr	Zr	0.47299	0.52701	0.47299	3.278
Mof_O 	O 	0.22216	0.46032	-0	-1.091
Mof_O 	O 	0.27268	0.46781	-0	-1.409
Mof_O 	O 	0.0178	0.9566	-0	-1.633
Mof_C 	C 	0.2529	0.4093	-0	0.412
Mof_C 	C 	0.2617	0.3789	-0	-0.094
Mof_C 	C 	0.2732	0.3249	-0	0.156
Mof_C 	C 	0.2783	0.2963	-0	-0.04
Mof_C 	C 	0.2856	0.2732	-0	0.16
Mof_C 	C 	0.2937	0.2481	-0	0.004
Mof_O 	O 	0.77784	0.53968	-0	-1.091
Mof_O 	O 	0.72732	0.53219	-0	-1.409
Mof_O 	O 	0.9822	0.0434	-0	-1.633
Mof_C 	C 	0.7471	0.5907	-0	0.412
Mof_C 	C 	0.7383	0.6211	-0	-0.094
Mof_C 	C 	0.7268	0.6751	-0	0.156
Mof_C 	C 	0.7217	0.7037	-0	-0.04
Mof_C 	C 	0.7144	0.7268	-0	0.16
Mof_C 	C 	0.7063	0.7519	-0	0.004
Mof_O 	O 	0.77784	0.46032	-0	-1.091
Mof_O 	O 	0.72732	0.46781	-0	-1.409
Mof_O 	O 	0.9822	0.9566	-0	-1.632
Mof_C 	C 	0.7471	0.4093	-0	0.412
Mof_C 	C 	0.7383	0.3789	-0	-0.094
Mof_C 	C 	0.7268	0.3249	-0	0.156
Mof_C 	C 	0.7217	0.2963	-0	-0.04
Mof_C 	C 	0.7144	0.2732	-0	0.16
Mof_C 	C 	0.7063	0.2481	-0	0.004
Mof_O 	O 	0.22216	0.53968	-0	-1.091
Mof_O 	O 	0.27268	0.53219	-0	-1.409
Mof_O 	O 	0.0178	0.0434	-0	-1.633
Mof_C 	C 	0.2529	0.5907	-0	0.412
Mof_C 	C 	0.2617	0.6211	-0	-0.094
Mof_C 	C 	0.2732	0.6751	-0	0.156
Mof_C 	C 	0.2783	0.7037	-0	-0.04
Mof_C 	C 	0.2856	0.7268	-0	0.16
Mof_C 	C 	0.2937	0.7519	-0	0.004
Mof_O 	O 	-4.98903e-33	0.22216	0.46032	-1.091
Mof_O 	O 	-1.60347e-33	0.27268	0.46781	-1.409
Mof_O 	O 	-9.84323e-33	0.0178	0.9566	-1.633
Mof_C 	C 	-1.18953e-32	0.2529	0.4093	0.412
Mof_C 	C 	-5.29431e-33	0.2617	0.3789	-0.094
Mof_C 	C 	-5.49677e-33	0.2732	0.3249	0.156
Mof_C 	C 	-8.96148e-33	0.2783	0.2963	-0.04
Mof_C 	C 	-5.69062e-33	0.2856	0.2732	0.16
Mof_C 	C 	-2.42725e-33	0.2937	0.2481	0.004
Mof_O 	O 	2.02348e-33	0.77784	0.53968	-1.091
Mof_O 	O 	-1.14345e-32	0.72732	0.53219	-1.409
Mof_O 	O 	-1.07491e-32	0.9822	0.0434	-1.633
Mof_C 	C 	-4.50018e-33	0.7471	0.5907	0.412
Mof_C 	C 	-4.3862e-33	0.7383	0.6211	-0.094
Mof_C 	C 	-4.18373e-33	0.7268	0.6751	0.156
Mof_C 	C 	-1.07915e-32	0.7217	0.7037	-0.04
Mof_C 	C 	9.44002e-33	0.7144	0.7268	0.16
Mof_C 	C 	-1.06107e-32	0.7063	0.7519	0.004
Mof_O 	O 	1.72592e-33	0.77784	0.46032	-1.091
Mof_O 	O 	-1.16759e-32	0.72732	0.46781	-1.409
Mof_O 	O 	3.58668e-33	0.9822	0.9566	-1.632
Mof_C 	C 	-1.18953e-32	0.7471	0.4093	0.412
Mof_C 	C 	-1.93683e-33	0.7383	0.3789	-0.094
Mof_C 	C 	-2.1393e-33	0.7268	0.3249	0.156
Mof_C 	C 	-8.96148e-33	0.7217	0.2963	-0.04
Mof_C 	C 	-5.69062e-33	0.7144	0.2732	0.16
Mof_C 	C 	-5.78473e-33	0.7063	0.2481	0.004
Mof_O 	O 	-1.14064e-32	0.22216	0.53968	-1.091
Mof_O 	O 	-1.14345e-32	0.27268	0.53219	-1.409
Mof_O 	O 	-6.76645e-34	0.0178	0.0434	-1.633
Mof_C 	C 	-4.50018e-33	0.2529	0.5907	0.412
Mof_C 	C 	-4.3862e-33	0.2617	0.6211	-0.094
Mof_C 	C 	-1.08987e-32	0.2732	0.6751	0.156
Mof_C 	C 	-1.75064e-32	0.2783	0.7037	-0.04
Mof_C 	C 	9.44002e-33	0.2856	0.7268	0.16
Mof_C 	C 	-1.06107e-32	0.2937	0.7519	0.004
Mof_O 	O 	0.46032	0	0.22216	-1.091
Mof_O 	O 	0.46781	0	0.27268	-1.409
Mof_O 	O 	0.9566	-2.09842e-34	0.0178	-1.633
Mof_C 	C 	0.4093	-3.35748e-33	0.2529	0.412
Mof_C 	C 	0.3789	0	0.2617	-0.094
Mof_C 	C 	0.3249	0	0.2732	0.156
Mof_C 	C 	0.2963	-3.35748e-33	0.2783	-0.04
Mof_C 	C 	0.2732	-3.35748e-33	0.2856	0.16
Mof_C 	C 	0.2481	-3.35748e-33	0.2937	0.004
Mof_O 	O 	0.53968	-6.71495e-33	0.77784	-1.091
Mof_O 	O 	0.53219	-6.71495e-33	0.72732	-1.409
Mof_O 	O 	0.0434	0	0.9822	-1.633
Mof_C 	C 	0.5907	-6.71495e-33	0.7471	0.412
Mof_C 	C 	0.6211	-6.71495e-33	0.7383	-0.094
Mof_C 	C 	0.6751	0	0.7268	0.156
Mof_C 	C 	0.7037	-1.34299e-32	0.7217	-0.04
Mof_C 	C 	0.7268	-6.71495e-33	0.7144	0.16
Mof_C 	C 	0.7519	0	0.7063	0.004
Mof_O 	O 	0.46032	-6.71495e-33	0.77784	-1.091
Mof_O 	O 	0.46781	-6.71495e-33	0.72732	-1.409
Mof_O 	O 	0.9566	0	0.9822	-1.632
Mof_C 	C 	0.4093	-6.71495e-33	0.7471	0.412
Mof_C 	C 	0.3789	-6.71495e-33	0.7383	-0.094
Mof_C 	C 	0.3249	0	0.7268	0.156
Mof_C 	C 	0.2963	-1.34299e-32	0.7217	-0.04
Mof_C 	C 	0.2732	-6.71495e-33	0.7144	0.16
Mof_C 	C 	0.2481	0	0.7063	0.004
Mof_O 	O 	0.53968	0	0.22216	-1.091
Mof_O 	O 	0.53219	0	0.27268	-1.409
Mof_O 	O 	0.0434	-2.09842e-34	0.0178	-1.633
Mof_C 	C 	0.5907	-3.35748e-33	0.2529	0.412
Mof_C 	C 	0.6211	0	0.2617	-0.094
Mof_C 	C 	0.6751	0	0.2732	0.156
Mof_C 	C 	0.7037	-3.35748e-33	0.2783	-0.04
Mof_C 	C 	0.7268	-3.35748e-33	0.2856	0.16
Mof_C 	C 	0.7519	-3.35748e-33	0.2937	0.004
Mof_O 	O 	0.96032	0.72216	0.5	-1.091
Mof_O 	O 	0.96781	0.77268	0.5	-1.409
Mof_O 	O 	0.4566	0.5178	0.5	-1.633
Mof_C 	C 	0.9093	0.7529	0.5	0.412
Mof_C 	C 	0.8789	0.7617	0.5	-0.094
Mof_C 	C 	0.8249	0.7732	0.5	0.156
Mof_C 	C 	0.7963	0.7783	0.5	-0.04
Mof_C 	C 	0.7732	0.7856	0.5	0.16
Mof_C 	C 	0.7481	0.7937	0.5	0.004
Mof_O 	O 	0.03968	0.27784	0.5	-1.091
Mof_O 	O 	0.03219	0.22732	0.5	-1.409
Mof_O 	O 	0.5434	0.4822	0.5	-1.633
Mof_C 	C 	0.0907	0.2471	0.5	0.412
Mof_C 	C 	0.1211	0.2383	0.5	-0.094
Mof_C 	C 	0.1751	0.2268	0.5	0.156
Mof_C 	C 	0.2037	0.2217	0.5	-0.04
Mof_C 	C 	0.2268	0.2144	0.5	0.16
Mof_C 	C 	0.2519	0.2063	0.5	0.004
Mof_O 	O 	0.96032	0.27784	0.5	-1.091
Mof_O 	O 	0.96781	0.22732	0.5	-1.409
Mof_O 	O 	0.4566	0.4822	0.5	-1.633
Mof_C 	C 	0.9093	0.2471	0.5	0.412
Mof_C 	C 	0.8789	0.2383	0.5	-0.094
Mof_C 	C 	0.8249	0.2268	0.5	0.156
Mof_C 	C 	0.7963	0.2217	0.5	-0.04
Mof_C 	C 	0.7732	0.2144	0.5	0.16
Mof_C 	C 	0.7481	0.2063	0.5	0.004
Mof_O 	O 	0.03968	0.72216	0.5	-1.091
Mof_O 	O 	0.03219	0.77268	0.5	-1.409
Mof_O 	O 	0.5434	0.5178	0.5	-1.633
Mof_C 	C 	0.0907	0.7529	0.5	0.412
Mof_C 	C 	0.1211	0.7617	0.5	-0.094
Mof_C 	C 	0.1751	0.7732	0.5	0.156
Mof_C 	C 	0.2037	0.7783	0.5	-0.04
Mof_C 	C 	0.2268	0.7856	0.5	0.16
Mof_C 	C 	0.2519	0.7937	0.5	0.004
Mof_O 	O 	0.72216	0.5	0.03968	-1.091
Mof_O 	O 	0.77268	0.5	0.03219	-1.409
Mof_O 	O 	0.5178	0.5	0.5434	-1.633
Mof_C 	C 	0.7529	0.5	0.0907	0.412
Mof_C 	C 	0.7617	0.5	0.1211	-0.094
Mof_C 	C 	0.7732	0.5	0.1751	0.156
Mof_C 	C 	0.7783	0.5	0.2037	-0.04
Mof_C 	C 	0.7856	0.5	0.2268	0.16
Mof_C 	C 	0.7937	0.5	0.2519	0.004
Mof_O 	O 	0.27784	0.5	0.96032	-1.091
Mof_O 	O 	0.22732	0.5	0.96781	-1.409
Mof_O 	O 	0.4822	0.5	0.4566	-1.633
Mof_C 	C 	0.2471	0.5	0.9093	0.412
Mof_C 	C 	0.2383	0.5	0.8789	-0.094
Mof_C 	C 	0.2268	0.5	0.8249	0.156
Mof_C 	C 	0.2217	0.5	0.7963	-0.04
Mof_C 	C 	0.2144	0.5	0.7732	0.16
Mof_C 	C 	0.2063	0.5	0.7481	0.004
Mof_O 	O 	0.27784	0.5	0.03968	-1.091
Mof_O 	O 	0.22732	0.5	0.03219	-1.409
Mof_O 	O 	0.4822	0.5	0.5434	-1.633
Mof_C 	C 	0.2471	0.5	0.0907	0.412
Mof_C 	C 	0.2383	0.5	0.1211	-0.094
Mof_C 	C 	0.2268	0.5	0.1751	0.156
Mof_C 	C 	0.2217	0.5	0.2037	-0.04
Mof_C 	C 	0.2144	0.5	0.2268	0.16
Mof_C 	C 	0.2063	0.5	0.2519	0.004
Mof_O 	O 	0.72216	0.5	0.96032	-1.091
Mof_O 	O 	0.77268	0.5	0.96781	-1.409
Mof_O 	O 	0.5178	0.5	0.4566	-1.633
Mof_C 	C 	0.7529	0.5	0.9093	0.412
Mof_C 	C 	0.7617	0.5	0.8789	-0.094
Mof_C 	C 	0.7732	0.5	0.8249	0.156
Mof_C 	C 	0.7783	0.5	0.7963	-0.04
Mof_C 	C 	0.7856	0.5	0.7732	0.16
Mof_C 	C 	0.7937	0.5	0.7481	0.004
Mof_O 	O 	0.5	0.96032	0.27784	-1.091
Mof_O 	O 	0.5	0.96781	0.22732	-1.409
Mof_O 	O 	0.5	0.4566	0.4822	-1.633
Mof_C 	C 	0.5	0.9093	0.2471	0.412
Mof_C 	C 	0.5	0.8789	0.2383	-0.094
Mof_C 	C 	0.5	0.8249	0.2268	0.156
Mof_C 	C 	0.5	0.7963	0.2217	-0.04
Mof_C 	C 	0.5	0.7732	0.2144	0.16
Mof_C 	C 	0.5	0.7481	0.2063	0.004
Mof_O 	O 	0.5	0.03968	0.72216	-1.091
Mof_O 	O 	0.5	0.03219	0.77268	-1.409
Mof_O 	O 	0.5	0.5434	0.5178	-1.633
Mof_C 	C 	0.5	0.0907	0.7529	0.412
Mof_C 	C 	0.5	0.1211	0.7617	-0.094
Mof_C 	C 	0.5	0.1751	0.7732	0.156
Mof_C 	C 	0.5	0.2037	0.7783	-0.04
Mof_C 	C 	0.5	0.2268	0.7856	0.16
Mof_C 	C 	0.5	0.2519	0.7937	0.004
Mof_O 	O 	0.5	0.96032	0.72216	-1.091
Mof_O 	O 	0.5	0.96781	0.77268	-1.409
Mof_O 	O 	0.5	0.4566	0.5178	-1.633
Mof_C 	C 	0.5	0.9093	0.7529	0.412
Mof_C 	C 	0.5	0.8789	0.7617	-0.094
Mof_C 	C 	0.5	0.8249	0.7732	0.156
Mof_C 	C 	0.5	0.7963	0.7783	-0.04
Mof_C 	C 	0.5	0.7732	0.7856	0.16
Mof_C 	C 	0.5	0.7481	0.7937	0.004
Mof_O 	O 	0.5	0.03968	0.27784	-1.091
Mof_O 	O 	0.5	0.03219	0.22732	-1.409
Mof_O 	O 	0.5	0.5434	0.4822	-1.633
Mof_C 	C 	0.5	0.0907	0.2471	0.412
Mof_C 	C 	0.5	0.1211	0.2383	-0.094
Mof_C 	C 	0.5	0.1751	0.2268	0.156
Mof_C 	C 	0.5	0.2037	0.2217	-0.04
Mof_C 	C 	0.5	0.2268	0.2144	0.16
Mof_C 	C 	0.5	0.2519	0.2063	0.004
Mof_C 	C 	-1.11978e-32	0.7162	0.1476	-1.006
Mof_C 	C 	-1.12671e-32	0.7757	0.1291	0.071
Mof_C 	C 	-8.8015e-33	0.8019	0.1151	0.134
Mof_C 	C 	6.25052e-33	0.8209	0.1	-0.027
Mof_C 	C 	-8.07237e-33	0.8471	0.0857	0.172
Mof_C 	C 	-1.23495e-32	0.8995	0.0643	-0.128
Mof_C 	C 	-6.51548e-33	0.9274	0.0532	0.473
Mof_C 	C 	-1.1044e-32	0.6932	0.1886	-0.765
Mof_B 	B 	-9.48865e-33	0.6873	0.1557	2.055
Mof_C 	C 	-1.12533e-33	0.2838	0.1476	-1.006
Mof_C 	C 	-1.19469e-33	0.2243	0.1291	0.071
Mof_C 	C 	-5.44403e-33	0.1981	0.1151	0.134
Mof_C 	C 	-4.64429e-34	0.1791	0.1	-0.027
Mof_C 	C 	3.21324e-34	0.1529	0.0857	0.172
Mof_C 	C 	-5.98283e-34	0.1005	0.0643	-0.128
Mof_C 	C 	-6.39901e-34	0.0726	0.0532	0.473
Mof_C 	C 	-9.71601e-34	0.3068	0.1886	-0.765
Mof_B 	B 	-6.13117e-33	0.3127	0.1557	2.055
Mof_C 	C 	-1.02339e-32	0.7162	0.8524	-1.006
Mof_C 	C 	-3.4496e-33	0.7757	0.8709	0.071
Mof_C 	C 	-1.6827e-32	0.8019	0.8849	0.134
Mof_C 	C 	1.00894e-32	0.8209	0.9	-0.027
Mof_C 	C 	-1.67168e-32	0.8471	0.9143	0.172
Mof_C 	C 	-9.92159e-33	0.8995	0.9357	-0.128
Mof_C 	C 	-1.65949e-32	0.9274	0.9468	0.473
Mof_C 	C 	-3.67269e-33	0.6932	0.8114	-0.765
Mof_B 	B 	3.16562e-33	0.6873	0.8443	2.055
Mof_C 	C 	-2.36638e-32	0.2838	0.8524	-1.006
Mof_C 	C 	3.26535e-33	0.2243	0.8709	0.071
Mof_C 	C 	-1.01121e-32	0.1981	0.8849	0.134
Mof_C 	C 	-1.00554e-32	0.1791	0.9	-0.027
Mof_C 	C 	-1.00018e-32	0.1529	0.9143	0.172
Mof_C 	C 	-9.92159e-33	0.1005	0.9357	-0.128
Mof_C 	C 	-1.65949e-32	0.0726	0.9468	0.473
Mof_C 	C 	-3.67269e-33	0.3068	0.8114	-0.765
Mof_B 	B 	-3.54933e-33	0.3127	0.8443	2.055
Mof_C 	C 	0.1476	-6.71495e-33	0.7162	-1.006
Mof_C 	C 	0.1291	-6.71495e-33	0.7757	0.071
Mof_C 	C 	0.1151	-6.71495e-33	0.8019	0.134
Mof_C 	C 	0.1	0	0.8209	-0.027
Mof_C 	C 	0.0857	-6.71495e-33	0.8471	0.172
Mof_C 	C 	0.0643	-1.34299e-32	0.8995	-0.128
Mof_C 	C 	0.0532	-6.71495e-33	0.9274	0.473
Mof_C 	C 	0.1886	-6.71495e-33	0.6932	-0.765
Mof_B 	B 	0.1557	-6.71495e-33	0.6873	2.055
Mof_C 	C 	0.1476	-3.35748e-33	0.2838	-1.006
Mof_C 	C 	0.1291	0	0.2243	0.071
Mof_C 	C 	0.1151	-1.67874e-33	0.1981	0.134
Mof_C 	C 	0.1	-1.67874e-33	0.1791	-0.027
Mof_C 	C 	0.0857	0	0.1529	0.172
Mof_C 	C 	0.0643	-8.39369e-34	0.1005	-0.128
Mof_C 	C 	0.0532	-8.39369e-34	0.0726	0.473
Mof_C 	C 	0.1886	0	0.3068	-0.765
Mof_B 	B 	0.1557	-3.35748e-33	0.3127	2.055
Mof_C 	C 	0.8524	-6.71495e-33	0.7162	-1.006
Mof_C 	C 	0.8709	-6.71495e-33	0.7757	0.071
Mof_C 	C 	0.8849	-6.71495e-33	0.8019	0.134
Mof_C 	C 	0.9	0	0.8209	-0.027
Mof_C 	C 	0.9143	-6.71495e-33	0.8471	0.172
Mof_C 	C 	0.9357	-1.34299e-32	0.8995	-0.128
Mof_C 	C 	0.9468	-6.71495e-33	0.9274	0.473
Mof_C 	C 	0.8114	-6.71495e-33	0.6932	-0.765
Mof_B 	B 	0.8443	-6.71495e-33	0.6873	2.055
Mof_C 	C 	0.8524	-3.35748e-33	0.2838	-1.006
Mof_C 	C 	0.8709	0	0.2243	0.071
Mof_C 	C 	0.8849	-1.67874e-33	0.1981	0.134
Mof_C 	C 	0.9	-1.67874e-33	0.1791	-0.027
Mof_C 	C 	0.9143	0	0.1529	0.172
Mof_C 	C 	0.9357	-8.39369e-34	0.1005	-0.128
Mof_C 	C 	0.9468	-8.39369e-34	0.0726	0.473
Mof_C 	C 	0.8114	0	0.3068	-0.765
Mof_B 	B 	0.8443	-3.35748e-33	0.3127	2.055
Mof_C 	C 	0.7162	0.1476	-0	-1.006
Mof_C 	C 	0.7757	0.1291	-0	0.071
Mof_C 	C 	0.8019	0.1151	-0	0.134
Mof_C 	C 	0.8209	0.1	-0	-0.027
Mof_C 	C 	0.8471	0.0857	-0	0.172
Mof_C 	C 	0.8995	0.0643	-0	-0.128
Mof_C 	C 	0.9274	0.0532	-0	0.473
Mof_C 	C 	0.6932	0.1886	-0	-0.765
Mof_B 	B 	0.6873	0.1557	-0	2.055
Mof_C 	C 	0.2838	0.1476	-0	-1.006
Mof_C 	C 	0.2243	0.1291	-0	0.071
Mof_C 	C 	0.1981	0.1151	-0	0.134
Mof_C 	C 	0.1791	0.1	-0	-0.027
Mof_C 	C 	0.1529	0.0857	-0	0.172
Mof_C 	C 	0.1005	0.0643	-0	-0.128
Mof_C 	C 	0.0726	0.0532	-0	0.473
Mof_C 	C 	0.3068	0.1886	-0	-0.765
Mof_B 	B 	0.3127	0.1557	-0	2.055
Mof_C 	C 	0.7162	0.8524	-0	-1.006
Mof_C 	C 	0.7757	0.8709	-0	0.071
Mof_C 	C 	0.8019	0.8849	-0	0.134
Mof_C 	C 	0.8209	0.9	-0	-0.027
Mof_C 	C 	0.8471	0.9143	-0	0.172
Mof_C 	C 	0.8995	0.9357	-0	-0.128
Mof_C 	C 	0.9274	0.9468	-0	0.473
Mof_C 	C 	0.6932	0.8114	-0	-0.765
Mof_B 	B 	0.6873	0.8443	-0	2.055
Mof_C 	C 	0.2838	0.8524	-0	-1.006
Mof_C 	C 	0.2243	0.8709	-0	0.071
Mof_C 	C 	0.1981	0.8849	-0	0.134
Mof_C 	C 	0.1791	0.9	-0	-0.027
Mof_C 	C 	0.1529	0.9143	-0	0.172
Mof_C 	C 	0.1005	0.9357	-0	-0.128
Mof_C 	C 	0.0726	0.9468	-0	0.473
Mof_C 	C 	0.3068	0.8114	-0	-0.765
Mof_B 	B 	0.3127	0.8443	-0	2.055
Mof_C 	C 	0.2162	0.5	0.3524	-1.006
Mof_C 	C 	0.2757	0.5	0.3709	0.071
Mof_C 	C 	0.3019	0.5	0.3849	0.134
Mof_C 	C 	0.3209	0.5	0.4	-0.027
Mof_C 	C 	0.3471	0.5	0.4143	0.172
Mof_C 	C 	0.3995	0.5	0.4357	-0.128
Mof_C 	C 	0.4274	0.5	0.4468	0.473
Mof_C 	C 	0.1932	0.5	0.3114	-0.765
Mof_B 	B 	0.1873	0.5	0.3443	2.055
Mof_C 	C 	0.7838	0.5	0.3524	-1.006
Mof_C 	C 	0.7243	0.5	0.3709	0.071
Mof_C 	C 	0.6981	0.5	0.3849	0.134
Mof_C 	C 	0.6791	0.5	0.4	-0.027
Mof_C 	C 	0.6529	0.5	0.4143	0.172
Mof_C 	C 	0.6005	0.5	0.4357	-0.128
Mof_C 	C 	0.5726	0.5	0.4468	0.473
Mof_C 	C 	0.8068	0.5	0.3114	-0.765
Mof_B 	B 	0.8127	0.5	0.3443	2.055
Mof_C 	C 	0.2162	0.5	0.6476	-1.006
Mof_C 	C 	0.2757	0.5	0.6291	0.071
Mof_C 	C 	0.3019	0.5	0.6151	0.134
Mof_C 	C 	0.3209	0.5	0.6	-0.027
Mof_C 	C 	0.3471	0.5	0.5857	0.172
Mof_C 	C 	0.3995	0.5	0.5643	-0.128
Mof_C 	C 	0.4274	0.5	0.5532	0.473
Mof_C 	C 	0.1932	0.5	0.6886	-0.765
Mof_B 	B 	0.1873	0.5	0.6557	2.055
Mof_C 	C 	0.7838	0.5	0.6476	-1.006
Mof_C 	C 	0.7243	0.5	0.6291	0.071
Mof_C 	C 	0.6981	0.5	0.6151	0.134
Mof_C 	C 	0.6791	0.5	0.6	-0.027
Mof_C 	C 	0.6529	0.5	0.5857	0.172
Mof_C 	C 	0.6005	0.5	0.5643	-0.128
Mof_C 	C 	0.5726	0.5	0.5532	0.473
Mof_C 	C 	0.8068	0.5	0.6886	-0.765
Mof_B 	B 	0.8127	0.5	0.6557	2.055
Mof_C 	C 	0.5	0.6476	0.7838	-1.006
Mof_C 	C 	0.5	0.6291	0.7243	0.071
Mof_C 	C 	0.5	0.6151	0.6981	0.134
Mof_C 	C 	0.5	0.6	0.6791	-0.027
Mof_C 	C 	0.5	0.5857	0.6529	0.172
Mof_C 	C 	0.5	0.5643	0.6005	-0.128
Mof_C 	C 	0.5	0.5532	0.5726	0.473
Mof_C 	C 	0.5	0.6886	0.8068	-0.765
Mof_B 	B 	0.5	0.6557	0.8127	2.055
Mof_C 	C 	0.5	0.6476	0.2162	-1.006
Mof_C 	C 	0.5	0.6291	0.2757	0.071
Mof_C 	C 	0.5	0.6151	0.3019	0.134
Mof_C 	C 	0.5	0.6	0.3209	-0.027
Mof_C 	C 	0.5	0.5857	0.3471	0.172
Mof_C 	C 	0.5	0.5643	0.3995	-0.128
Mof_C 	C 	0.5	0.5532	0.4274	0.473
Mof_C 	C 	0.5	0.6886	0.1932	-0.765
Mof_B 	B 	0.5	0.6557	0.1873	2.055
Mof_C 	C 	0.5	0.3524	0.7838	-1.006
Mof_C 	C 	0.5	0.3709	0.7243	0.071
Mof_C 	C 	0.5	0.3849	0.6981	0.134
Mof_C 	C 	0.5	0.4	0.6791	-0.027
Mof_C 	C 	0.5	0.4143	0.6529	0.172
Mof_C 	C 	0.5	0.4357	0.6005	-0.128
Mof_C 	C 	0.5	0.4468	0.5726	0.473
Mof_C 	C 	0.5	0.3114	0.8068	-0.765
Mof_B 	B 	0.5	0.3443	0.8127	2.055
Mof_C 	C 	0.5	0.3524	0.2162	-1.006
Mof_C 	C 	0.5	0.3709	0.2757	0.071
Mof_C 	C 	0.5	0.3849	0.3019	0.134
Mof_C 	C 	0.5	0.4	0.3209	-0.027
Mof_C 	C 	0.5	0.4143	0.3471	0.172
Mof_C 	C 	0.5	0.4357	0.3995	-0.128
Mof_C 	C 	0.5	0.4468	0.4274	0.473
Mof_C 	C 	0.5	0.3114	0.1932	-0.765
Mof_B 	B 	0.5	0.3443	0.1873	2.055
Mof_C 	C 	0.6476	0.2162	0.5	-1.006
Mof_C 	C 	0.6291	0.2757	0.5	0.071
Mof_C 	C 	0.6151	0.3019	0.5	0.134
Mof_C 	C 	0.6	0.3209	0.5	-0.027
Mof_C 	C 	0.5857	0.3471	0.5	0.172
Mof_C 	C 	0.5643	0.3995	0.5	-0.128
Mof_C 	C 	0.5532	0.4274	0.5	0.473
Mof_C 	C 	0.6886	0.1932	0.5	-0.765
Mof_B 	B 	0.6557	0.1873	0.5	2.055
Mof_C 	C 	0.6476	0.7838	0.5	-1.006
Mof_C 	C 	0.6291	0.7243	0.5	0.071
Mof_C 	C 	0.6151	0.6981	0.5	0.134
Mof_C 	C 	0.6	0.6791	0.5	-0.027
Mof_C 	C 	0.5857	0.6529	0.5	0.172
Mof_C 	C 	0.5643	0.6005	0.5	-0.128
Mof_C 	C 	0.5532	0.5726	0.5	0.473
Mof_C 	C 	0.6886	0.8068	0.5	-0.765
Mof_B 	B 	0.6557	0.8127	0.5	2.055
Mof_C 	C 	0.3524	0.2162	0.5	-1.006
Mof_C 	C 	0.3709	0.2757	0.5	0.071
Mof_C 	C 	0.3849	0.3019	0.5	0.134
Mof_C 	C 	0.4	0.3209	0.5	-0.027
Mof_C 	C 	0.4143	0.3471	0.5	0.172
Mof_C 	C 	0.4357	0.3995	0.5	-0.128
Mof_C 	C 	0.4468	0.4274	0.5	0.473
Mof_C 	C 	0.3114	0.1932	0.5	-0.765
Mof_B 	B 	0.3443	0.1873	0.5	2.055
Mof_C 	C 	0.3524	0.7838	0.5	-1.006
Mof_C 	C 	0.3709	0.7243	0.5	0.071
Mof_C 	C 	0.3849	0.6981	0.5	0.134
Mof_C 	C 	0.4	0.6791	0.5	-0.027
Mof_C 	C 	0.4143	0.6529	0.5	0.172
Mof_C 	C 	0.4357	0.6005	0.5	-0.128
Mof_C 	C 	0.4468	0.5726	0.5	0.473
Mof_C 	C 	0.3114	0.8068	0.5	-0.765
Mof_B 	B 	0.3443	0.8127	0.5	2.055
_end
