# CIF file generated by openbabel 3.1.0, see https://openbabel.org
data_I
_chemical_name_common 'PIZPIX_clean_h'
_cell_length_a 8.478
_cell_length_b 9.695
_cell_length_c 17.243
_cell_angle_alpha 90
_cell_angle_beta 90
_cell_angle_gamma 112.28
_space_group_name_H-M_alt 'P 1'
_space_group_name_Hall 'P 1'
loop_
    _symmetry_equiv_pos_as_xyz
    x,y,z
loop_
    _atom_site_label
    _atom_site_type_symbol
    _atom_site_fract_x
    _atom_site_fract_y
    _atom_site_fract_z
    _atom_site_occupancy
    Er1      Er       0.84330    0.02350    0.25740    1.000
    Er2      Er       0.15670    0.47650    0.75740    1.000
    Er3      Er       0.15670    0.97650    0.74260    1.000
    Er4      Er       0.84330    0.52350    0.24260    1.000
    C1       C        0.90440    0.02430    0.09790    1.000
    C2       C        0.94570    0.03010    0.01450    1.000
    C3       C        0.56250    0.19940    0.28860    1.000
    C4       C        0.37670    0.10310    0.30110    1.000
    C5       C        0.31230    0.96060    0.28310    1.000
    C6       C        0.12880    0.36700    0.21330    1.000
    C7       C        0.09560    0.47570    0.59790    1.000
    C8       C        0.05430    0.46990    0.51450    1.000
    C9       C        0.43750    0.30060    0.78860    1.000
    C10      C        0.62330    0.39690    0.80110    1.000
    C11      C        0.68770    0.53940    0.78310    1.000
    C12      C        0.87120    0.13300    0.71330    1.000
    C13      C        0.09560    0.97570    0.90210    1.000
    C14      C        0.05430    0.96990    0.98550    1.000
    C15      C        0.43750    0.80060    0.71140    1.000
    C16      C        0.62330    0.89690    0.69890    1.000
    C17      C        0.68770    0.03940    0.71690    1.000
    C18      C        0.87120    0.63300    0.78670    1.000
    C19      C        0.90440    0.52430    0.40210    1.000
    C20      C        0.94570    0.53010    0.48550    1.000
    C21      C        0.56250    0.69940    0.21140    1.000
    C22      C        0.37670    0.60310    0.19890    1.000
    C23      C        0.31230    0.46060    0.21690    1.000
    C24      C        0.12880    0.86700    0.28670    1.000
    O1       O        0.96310    0.95450    0.14510    1.000
    O2       O        0.81400    0.09070    0.12170    1.000
    O3       O        0.66440    0.13740    0.26990    1.000
    O4       O        0.60200    0.33690    0.29650    1.000
    O5       O        0.02460    0.42440    0.19240    1.000
    O6       O        0.08260    0.23140    0.23160    1.000
    O7       O        0.03690    0.54550    0.64510    1.000
    O8       O        0.18600    0.40930    0.62170    1.000
    O9       O        0.33560    0.36260    0.76990    1.000
    O10      O        0.39800    0.16310    0.79650    1.000
    O11      O        0.97540    0.07560    0.69240    1.000
    O12      O        0.91740    0.26860    0.73160    1.000
    O13      O        0.03690    0.04550    0.85490    1.000
    O14      O        0.18600    0.90930    0.87830    1.000
    O15      O        0.33560    0.86260    0.73010    1.000
    O16      O        0.39800    0.66310    0.70350    1.000
    O17      O        0.97540    0.57560    0.80760    1.000
    O18      O        0.91740    0.76860    0.76840    1.000
    O19      O        0.96310    0.45450    0.35490    1.000
    O20      O        0.81400    0.59070    0.37830    1.000
    O21      O        0.66440    0.63740    0.23010    1.000
    O22      O        0.60200    0.83690    0.20350    1.000
    O23      O        0.02460    0.92440    0.30760    1.000
    O24      O        0.08260    0.73140    0.26840    1.000
    H1       H        0.88581    0.08643    0.97215    1.000
    H2       H        0.28691    0.15351    0.32698    1.000
    H3       H        0.39983    0.90258    0.26335    1.000
    H4       H        0.11419    0.41357    0.47215    1.000
    H5       H        0.71309    0.34649    0.82698    1.000
    H6       H        0.60017    0.59742    0.76335    1.000
    H7       H        0.11419    0.91357    0.02785    1.000
    H8       H        0.71309    0.84649    0.67302    1.000
    H9       H        0.59267    0.08999    0.73617    1.000
    H10      H        0.88320    0.58741    0.52597    1.000
    H11      H        0.28691    0.65351    0.17302    1.000
    H12      H        0.39983    0.40258    0.23665    1.000
