data_functionalizedCrystal
_audit_creation_method	'EQeq! by Chris Wilmer'
_symmetry_space_group_name_H-M	'P1'
_symmetry_Int_Tables_number	1
_symmetry_cell_setting	triclinic
loop_
_symmetry_equiv_pos_as_xyz
  x,y,z
_cell_length_a	8.0722
_cell_length_b	21.2247
_cell_length_c	22.7899
_cell_angle_alpha	82.622
_cell_angle_beta	82.404
_cell_angle_gamma	80.079
loop_
_atom_site_label
_atom_site_type_symbol
_atom_site_fract_x
_atom_site_fract_y
_atom_site_fract_z
_atom_site_charge
Mof_Er	Er	0.19764	0.57546	0.71577	1.619
Mof_Er	Er	0.61348	0.5289	0.5669	1.988
Mof_Er	Er	0.53561	0.75095	0.90428	1.61
Mof_Er	Er	0.7604	0.90639	0.96361	1.825
Mof_O 	O 	0.2041	0.46564	0.70424	-0.448
Mof_O 	O 	0.4308	0.49892	0.65658	-0.524
Mof_O 	O 	0.4358	0.4623	0.54172	-0.562
Mof_O 	O 	0.3072	0.39153	0.5107	-0.442
Mof_O 	O 	0.3502	0.19276	0.02302	-0.528
Mof_O 	O 	0.5228	0.262	0.98832	-0.416
Mof_O 	O 	0.0557	0.16899	0.98635	-0.466
Mof_O 	O 	0.953	0.27321	0.97838	-0.288
Mof_O 	O 	0.388	0.6443	0.6861	-0.481
Mof_O 	O 	0.6214	0.60291	0.63073	-0.528
Mof_O 	O 	0.501	0.73011	0.81297	-0.487
Mof_O 	O 	0.6273	0.63928	0.77604	-0.332
Mof_O 	O 	0.1424	0.6069	0.62102	-0.488
Mof_O 	O 	0.3712	0.60337	0.55293	-0.473
Mof_O 	O 	0.2512	0.5788	0.39781	-0.392
Mof_O 	O 	0.1745	0.53923	0.48985	-0.423
Mof_O 	O 	0.441	0.85763	0.87908	-0.471
Mof_O 	O 	0.4904	0.93187	0.93352	-0.475
Mof_O 	O 	0.389	0.07858	0.93963	-0.386
Mof_O 	O 	0.1651	0.03021	0.96514	-0.416
Mof_O 	O 	0.7635	0.78449	0.84353	-0.468
Mof_O 	O 	0.8398	0.86907	0.87606	-0.529
Mof_O 	O 	0.0677	0.66702	0.75321	-0.493
Mof_O 	O 	0.0802	0.69832	0.84209	-0.323
Mof_F 	F 	0.8433	0.24906	0.7134	-0.466
Mof_F 	F 	0.8266	0.19868	0.80164	-0.472
Mof_F 	F 	0.7323	0.30013	0.78794	-0.537
Mof_F 	F 	0.7143	0.14247	0.70456	-0.393
Mof_F 	F 	0.4447	0.1469	0.72759	-0.46
Mof_F 	F 	0.6112	0.12007	0.79566	-0.459
Mof_F 	F 	0.5666	0.80407	0.48986	-0.48
Mof_F 	F 	0.5374	0.89067	0.53174	-0.362
Mof_F 	F 	0.6953	0.88135	0.44852	-0.366
Mof_F 	F 	0.9906	0.88823	0.48298	-0.352
Mof_F 	F 	0.819	0.92843	0.55392	-0.347
Mof_F 	F 	0.0285	0.85472	0.57399	-0.457
Mof_F 	F 	0.3763	0.03543	0.64858	-0.361
Mof_F 	F 	0.4634	0.93498	0.66857	-0.465
Mof_F 	F 	0.3028	0.96761	0.59861	-0.343
Mof_F 	F 	0.0431	0.07288	0.65079	-0.371
Mof_F 	F 	0.8864	0.02047	0.71647	-0.431
Mof_F 	F 	0.9698	0.98618	0.63096	-0.357
Mof_C 	C 	0.566	0.23151	0.75622	-0.483
Mof_C 	C 	0.5088	0.27654	0.70212	0.341
Mof_C 	C 	0.4496	0.34139	0.70915	-0.204
Mof_H 	H 	0.4385	0.3551	0.7468	0.13
Mof_C 	C 	0.4073	0.38567	0.66114	0.05
Mof_C 	C 	0.4151	0.36441	0.6047	-0.156
Mof_C 	C 	0.4678	0.29986	0.5986	0.168
Mof_H 	H 	0.4701	0.2855	0.5616	0.054
Mof_C 	C 	0.5172	0.25617	0.64552	-0.256
Mof_H 	H 	0.5559	0.2133	0.6397	0.266
Mof_C 	C 	0.3455	0.45443	0.67317	0.341
Mof_C 	C 	0.3798	0.40847	0.54995	0.42
Mof_C 	C 	0.4378	0.23933	0.81179	0.318
Mof_C 	C 	0.4848	0.23308	0.86961	-0.192
Mof_H 	H 	0.5983	0.2298	0.875	0.178
Mof_C 	C 	0.3635	0.23167	0.9189	0.038
Mof_C 	C 	0.1937	0.23568	0.91196	-0.145
Mof_C 	C 	0.1447	0.24634	0.85454	0.126
Mof_H 	H 	0.0304	0.2525	0.8493	0.06
Mof_C 	C 	0.2655	0.24775	0.80513	-0.239
Mof_H 	H 	0.2313	0.2544	0.7671	0.181
Mof_C 	C 	0.4173	0.22762	0.97917	0.314
Mof_C 	C 	0.0586	0.2266	0.96336	0.397
Mof_C 	C 	0.7421	0.2455	0.76497	0.966
Mof_C 	C 	0.585	0.15923	0.74581	0.961
Mof_C 	C 	0.8022	0.82088	0.53631	-0.46
Mof_C 	C 	0.7273	0.79477	0.59886	0.326
Mof_C 	C 	0.6639	0.73733	0.60349	-0.189
Mof_H 	H 	0.6616	0.7185	0.569	0.142
Mof_C 	C 	0.6037	0.70698	0.65819	0.01
Mof_C 	C 	0.6089	0.73563	0.71042	-0.142
Mof_C 	C 	0.6648	0.79352	0.70529	0.162
Mof_H 	H 	0.6622	0.8133	0.7396	0.017
Mof_C 	C 	0.7258	0.82432	0.65073	-0.244
Mof_H 	H 	0.7645	0.8634	0.6488	0.252
Mof_C 	C 	0.5322	0.64601	0.65878	0.452
Mof_C 	C 	0.5753	0.69898	0.771	0.404
Mof_C 	C 	0.9169	0.76442	0.50818	0.309
Mof_C 	C 	0.0178	0.72129	0.54571	-0.16
Mof_H 	H 	0.0214	0.7302	0.5844	0.128
Mof_C 	C 	0.1128	0.66539	0.52601	-0
Mof_C 	C 	0.1068	0.65149	0.46817	-0.079
Mof_C 	C 	0.0167	0.69635	0.42941	0.118
Mof_H 	H 	0.0192	0.6885	0.3901	0.063
Mof_C 	C 	0.923	0.7528	0.44844	-0.207
Mof_H 	H 	0.8647	0.7827	0.4219	0.231
Mof_C 	C 	0.2182	0.62124	0.56961	0.445
Mof_C 	C 	0.1812	0.58682	0.45026	0.308
Mof_C 	C 	0.649	0.85012	0.5008	0.965
Mof_C 	C 	0.9097	0.87396	0.53711	0.965
Mof_C 	C 	0.174	0.9722	0.6992	-0.468
Mof_C 	C 	0.2153	0.99573	0.75665	0.317
Mof_C 	C 	0.3104	0.95129	0.79444	-0.164
Mof_H 	H 	0.3515	0.9104	0.7831	0.132
Mof_C 	C 	0.3456	0.96615	0.84859	-0.002
Mof_C 	C 	0.2839	0.02854	0.86485	-0.07
Mof_C 	C 	0.1934	0.07386	0.82636	0.143
Mof_H 	H 	0.1549	0.1152	0.8368	0.046
Mof_C 	C 	0.1602	0.05761	0.77232	-0.205
Mof_H 	H 	0.1009	0.0883	0.7466	0.248
Mof_C 	C 	0.4336	0.91464	0.88964	0.414
Mof_C 	C 	0.2841	0.0459	0.92683	0.324
Mof_C 	C 	0.1355	0.90297	0.71528	0.328
Mof_C 	C 	0.021	0.89257	0.76539	-0.184
Mof_H 	H 	0.9653	0.9277	0.7846	0.146
Mof_C 	C 	0.9869	0.83159	0.78768	0
Mof_C 	C 	0.0712	0.77801	0.75888	-0.132
Mof_C 	C 	0.1768	0.78863	0.70647	0.149
Mof_H 	H 	0.2264	0.754	0.6856	0.016
Mof_C 	C 	0.2102	0.85021	0.6844	-0.239
Mof_H 	H 	0.2816	0.8562	0.6493	0.241
Mof_C 	C 	0.8557	0.82641	0.83989	0.444
Mof_C 	C 	0.0703	0.70918	0.78657	0.407
Mof_C 	C 	0.3299	0.97761	0.65293	0.971
Mof_C 	C 	0.0184	0.0136	0.67392	0.958
Mof_Er	Er	0.80236	0.42454	0.28423	1.62
Mof_Er	Er	0.38652	0.4711	0.4331	1.989
Mof_Er	Er	0.46439	0.24905	0.09572	1.611
Mof_Er	Er	0.2396	0.09361	0.03639	1.826
Mof_O 	O 	0.7959	0.53436	0.29576	-0.447
Mof_O 	O 	0.5692	0.50108	0.34342	-0.523
Mof_O 	O 	0.5642	0.5377	0.45828	-0.561
Mof_O 	O 	0.6928	0.60847	0.4893	-0.441
Mof_O 	O 	0.6498	0.80724	0.97698	-0.527
Mof_O 	O 	0.4772	0.738	0.01168	-0.415
Mof_O 	O 	0.9443	0.83101	0.01365	-0.465
Mof_O 	O 	0.047	0.72679	0.02162	-0.287
Mof_O 	O 	0.612	0.3557	0.3139	-0.481
Mof_O 	O 	0.3786	0.39709	0.36927	-0.528
Mof_O 	O 	0.499	0.26989	0.18703	-0.487
Mof_O 	O 	0.3727	0.36072	0.22396	-0.332
Mof_O 	O 	0.8576	0.3931	0.37898	-0.488
Mof_O 	O 	0.6288	0.39663	0.44707	-0.473
Mof_O 	O 	0.7488	0.4212	0.60219	-0.392
Mof_O 	O 	0.8255	0.46077	0.51015	-0.423
Mof_O 	O 	0.559	0.14237	0.12092	-0.471
Mof_O 	O 	0.5096	0.06813	0.06648	-0.475
Mof_O 	O 	0.611	0.92142	0.06037	-0.386
Mof_O 	O 	0.8349	0.96979	0.03486	-0.416
Mof_O 	O 	0.2365	0.21551	0.15647	-0.468
Mof_O 	O 	0.1602	0.13093	0.12394	-0.529
Mof_O 	O 	0.9323	0.33298	0.24679	-0.493
Mof_O 	O 	0.9198	0.30168	0.15791	-0.323
Mof_F 	F 	0.1567	0.75094	0.2866	-0.466
Mof_F 	F 	0.1734	0.80132	0.19836	-0.472
Mof_F 	F 	0.2677	0.69987	0.21206	-0.537
Mof_F 	F 	0.2857	0.85753	0.29544	-0.393
Mof_F 	F 	0.5553	0.8531	0.27241	-0.46
Mof_F 	F 	0.3888	0.87993	0.20434	-0.459
Mof_F 	F 	0.4334	0.19593	0.51014	-0.48
Mof_F 	F 	0.4626	0.10933	0.46826	-0.362
Mof_F 	F 	0.3047	0.11865	0.55148	-0.366
Mof_F 	F 	0.0094	0.11177	0.51702	-0.352
Mof_F 	F 	0.181	0.07157	0.44608	-0.347
Mof_F 	F 	0.9715	0.14528	0.42601	-0.457
Mof_F 	F 	0.6237	0.96457	0.35142	-0.361
Mof_F 	F 	0.5366	0.06502	0.33143	-0.465
Mof_F 	F 	0.6972	0.03239	0.40139	-0.343
Mof_F 	F 	0.9569	0.92712	0.34921	-0.371
Mof_F 	F 	0.1136	0.97953	0.28353	-0.431
Mof_F 	F 	0.0302	0.01382	0.36904	-0.357
Mof_C 	C 	0.434	0.76849	0.24378	-0.483
Mof_C 	C 	0.4912	0.72346	0.29788	0.341
Mof_C 	C 	0.5504	0.65861	0.29085	-0.204
Mof_H 	H 	0.5615	0.6449	0.2532	0.13
Mof_C 	C 	0.5927	0.61433	0.33886	0.05
Mof_C 	C 	0.5849	0.63559	0.3953	-0.156
Mof_C 	C 	0.5322	0.70014	0.4014	0.168
Mof_H 	H 	0.5299	0.7145	0.4384	0.054
Mof_C 	C 	0.4828	0.74383	0.35448	-0.256
Mof_H 	H 	0.4441	0.7867	0.3603	0.266
Mof_C 	C 	0.6545	0.54557	0.32683	0.341
Mof_C 	C 	0.6202	0.59153	0.45005	0.42
Mof_C 	C 	0.5622	0.76067	0.18821	0.318
Mof_C 	C 	0.5152	0.76692	0.13039	-0.192
Mof_H 	H 	0.4017	0.7702	0.125	0.178
Mof_C 	C 	0.6365	0.76833	0.0811	0.038
Mof_C 	C 	0.8063	0.76432	0.08804	-0.145
Mof_C 	C 	0.8553	0.75366	0.14546	0.126
Mof_H 	H 	0.9696	0.7475	0.1507	0.06
Mof_C 	C 	0.7345	0.75225	0.19487	-0.239
Mof_H 	H 	0.7687	0.7456	0.2329	0.181
Mof_C 	C 	0.5827	0.77238	0.02083	0.314
Mof_C 	C 	0.9414	0.7734	0.03664	0.397
Mof_C 	C 	0.2579	0.7545	0.23503	0.966
Mof_C 	C 	0.415	0.84077	0.25419	0.961
Mof_C 	C 	0.1978	0.17912	0.46369	-0.46
Mof_C 	C 	0.2727	0.20523	0.40114	0.326
Mof_C 	C 	0.3361	0.26267	0.39651	-0.189
Mof_H 	H 	0.3384	0.2815	0.431	0.142
Mof_C 	C 	0.3963	0.29302	0.34181	0.01
Mof_C 	C 	0.3911	0.26437	0.28958	-0.142
Mof_C 	C 	0.3352	0.20648	0.29471	0.162
Mof_H 	H 	0.3378	0.1867	0.2604	0.017
Mof_C 	C 	0.2742	0.17568	0.34927	-0.244
Mof_H 	H 	0.2355	0.1366	0.3512	0.252
Mof_C 	C 	0.4678	0.35399	0.34122	0.452
Mof_C 	C 	0.4247	0.30102	0.229	0.404
Mof_C 	C 	0.0831	0.23558	0.49182	0.309
Mof_C 	C 	0.9822	0.27871	0.45429	-0.16
Mof_H 	H 	0.9786	0.2698	0.4156	0.128
Mof_C 	C 	0.8872	0.33461	0.47399	-0
Mof_C 	C 	0.8932	0.34851	0.53183	-0.079
Mof_C 	C 	0.9833	0.30365	0.57059	0.118
Mof_H 	H 	0.9808	0.3115	0.6099	0.063
Mof_C 	C 	0.077	0.2472	0.55156	-0.207
Mof_H 	H 	0.1353	0.2173	0.5781	0.231
Mof_C 	C 	0.7818	0.37876	0.43039	0.445
Mof_C 	C 	0.8188	0.41318	0.54974	0.308
Mof_C 	C 	0.351	0.14988	0.4992	0.965
Mof_C 	C 	0.0903	0.12604	0.46289	0.965
Mof_C 	C 	0.826	0.0278	0.3008	-0.468
Mof_C 	C 	0.7847	0.00427	0.24335	0.317
Mof_C 	C 	0.6896	0.04871	0.20556	-0.164
Mof_H 	H 	0.6485	0.0896	0.2169	0.132
Mof_C 	C 	0.6544	0.03385	0.15141	-0.002
Mof_C 	C 	0.7161	0.97146	0.13515	-0.07
Mof_C 	C 	0.8066	0.92614	0.17364	0.143
Mof_H 	H 	0.8451	0.8848	0.1632	0.046
Mof_C 	C 	0.8398	0.94239	0.22768	-0.205
Mof_H 	H 	0.8991	0.9117	0.2534	0.248
Mof_C 	C 	0.5664	0.08536	0.11036	0.414
Mof_C 	C 	0.7159	0.9541	0.07317	0.324
Mof_C 	C 	0.8645	0.09703	0.28472	0.328
Mof_C 	C 	0.979	0.10743	0.23461	-0.184
Mof_H 	H 	0.0347	0.0723	0.2154	0.146
Mof_C 	C 	0.0131	0.16841	0.21232	0
Mof_C 	C 	0.9288	0.22199	0.24112	-0.132
Mof_C 	C 	0.8232	0.21137	0.29353	0.149
Mof_H 	H 	0.7736	0.246	0.3144	0.016
Mof_C 	C 	0.7898	0.14979	0.3156	-0.239
Mof_H 	H 	0.7184	0.1438	0.3507	0.241
Mof_C 	C 	0.1443	0.17359	0.16011	0.444
Mof_C 	C 	0.9297	0.29082	0.21343	0.407
Mof_C 	C 	0.6701	0.02239	0.34707	0.971
Mof_C 	C 	0.9816	0.9864	0.32608	0.958
_end
