data_functionalizedCrystal
_audit_creation_method	'EQeq! by Chris Wilmer'
_symmetry_space_group_name_H-M	'P1'
_symmetry_Int_Tables_number	1
_symmetry_cell_setting	triclinic
loop_
_symmetry_equiv_pos_as_xyz
  x,y,z
_cell_length_a	16.2326
_cell_length_b	33.0024
_cell_length_c	35.7503
_cell_angle_alpha	90
_cell_angle_beta	90
_cell_angle_gamma	90
loop_
_atom_site_label
_atom_site_type_symbol
_atom_site_fract_x
_atom_site_fract_y
_atom_site_fract_z
_atom_site_charge
Mof_O 	O 	0.4179	0.46001	0.40106	-0.688
Mof_C 	C 	0.3704	0.43131	0.41018	0.52
Mof_O 	O 	0.3477	0.42257	0.44291	-0.7
Mof_C 	C 	0.3412	0.40596	0.378	-0.199
Mof_C 	C 	0.2909	0.373	0.38276	0.09
Mof_C 	C 	0.3703	0.41577	0.34228	0.09
Mof_H 	H 	0.2722	0.366	0.4071	-0.007
Mof_C 	C 	0.2671	0.34964	0.35212	-0.148
Mof_C 	C 	0.3459	0.39266	0.31219	-0.147
Mof_H 	H 	0.4064	0.4381	0.3388	0.015
Mof_H 	H 	0.2315	0.3271	0.3555	0.068
Mof_C 	C 	0.2955	0.35957	0.31647	0.07
Mof_H 	H 	0.3644	0.3998	0.2879	0.077
Mof_C 	C 	0.2698	0.3359	0.28273	0.016
Mof_C 	C 	0.2691	0.29397	0.28258	-0.092
Mof_H 	H 	0.2818	0.2796	0.3049	0.054
Mof_O 	O 	0.4179	0.96001	0.90106	-0.677
Mof_C 	C 	0.3704	0.93131	0.91018	0.515
Mof_O 	O 	0.3477	0.92257	0.94291	-0.667
Mof_C 	C 	0.3412	0.90596	0.878	-0.185
Mof_C 	C 	0.2909	0.873	0.88276	0.086
Mof_C 	C 	0.3703	0.91577	0.84228	0.086
Mof_H 	H 	0.2722	0.866	0.9071	0.009
Mof_C 	C 	0.2671	0.84964	0.85212	-0.138
Mof_C 	C 	0.3459	0.89266	0.81219	-0.139
Mof_H 	H 	0.4064	0.9381	0.8388	0.021
Mof_H 	H 	0.2315	0.8271	0.8555	0.072
Mof_C 	C 	0.2955	0.85957	0.81647	0.067
Mof_H 	H 	0.3644	0.8998	0.7879	0.078
Mof_C 	C 	0.2698	0.8359	0.78273	0.021
Mof_C 	C 	0.2691	0.79397	0.78258	-0.093
Mof_H 	H 	0.2818	0.7796	0.8049	0.058
Mof_O 	O 	0.9179	0.46001	0.90106	-0.669
Mof_C 	C 	0.8704	0.43131	0.91018	0.516
Mof_O 	O 	0.8477	0.42257	0.94291	-0.661
Mof_C 	C 	0.8412	0.40596	0.878	-0.18
Mof_C 	C 	0.7909	0.373	0.88276	0.087
Mof_C 	C 	0.8703	0.41577	0.84228	0.087
Mof_H 	H 	0.7722	0.366	0.9071	0.013
Mof_C 	C 	0.7671	0.34964	0.85212	-0.135
Mof_C 	C 	0.8459	0.39266	0.81219	-0.136
Mof_H 	H 	0.9064	0.4381	0.8388	0.026
Mof_H 	H 	0.7315	0.3271	0.8555	0.076
Mof_C 	C 	0.7955	0.35957	0.81647	0.069
Mof_H 	H 	0.8644	0.3998	0.7879	0.081
Mof_C 	C 	0.7698	0.3359	0.78273	0.025
Mof_C 	C 	0.7691	0.29397	0.78258	-0.091
Mof_H 	H 	0.7818	0.2796	0.8049	0.061
Mof_O 	O 	0.9179	0.96001	0.40106	-0.666
Mof_C 	C 	0.8704	0.93131	0.41018	0.52
Mof_O 	O 	0.8477	0.92257	0.44291	-0.686
Mof_C 	C 	0.8412	0.90596	0.378	-0.189
Mof_C 	C 	0.7909	0.873	0.38276	0.09
Mof_C 	C 	0.8703	0.91577	0.34228	0.091
Mof_H 	H 	0.7722	0.866	0.4071	0
Mof_C 	C 	0.7671	0.84964	0.35212	-0.142
Mof_C 	C 	0.8459	0.89266	0.31219	-0.139
Mof_H 	H 	0.9064	0.9381	0.3388	0.026
Mof_H 	H 	0.7315	0.8271	0.3555	0.072
Mof_C 	C 	0.7955	0.85957	0.31647	0.072
Mof_H 	H 	0.8644	0.8998	0.2879	0.083
Mof_C 	C 	0.7698	0.8359	0.28273	0.022
Mof_C 	C 	0.7691	0.79397	0.28258	-0.09
Mof_H 	H 	0.7818	0.7796	0.3049	0.059
Mof_O 	O 	0.5821	0.53999	0.40106	-0.686
Mof_C 	C 	0.6296	0.56869	0.41018	0.522
Mof_O 	O 	0.6523	0.57743	0.44291	-0.696
Mof_C 	C 	0.6588	0.59404	0.378	-0.195
Mof_C 	C 	0.7091	0.627	0.38276	0.092
Mof_C 	C 	0.6297	0.58423	0.34228	0.092
Mof_H 	H 	0.7278	0.634	0.4071	-0
Mof_C 	C 	0.7329	0.65036	0.35212	-0.145
Mof_C 	C 	0.6541	0.60734	0.31219	-0.144
Mof_H 	H 	0.5936	0.5619	0.3388	0.017
Mof_H 	H 	0.7685	0.6729	0.3555	0.075
Mof_C 	C 	0.7045	0.64043	0.31647	0.072
Mof_H 	H 	0.6356	0.6002	0.2879	0.078
Mof_C 	C 	0.7302	0.6641	0.28273	0.021
Mof_C 	C 	0.7309	0.70603	0.28258	-0.09
Mof_H 	H 	0.7182	0.7204	0.3049	0.057
Mof_O 	O 	0.5821	0.03999	0.90106	-0.687
Mof_C 	C 	0.6296	0.06869	0.91018	0.517
Mof_O 	O 	0.6523	0.07743	0.94291	-0.669
Mof_C 	C 	0.6588	0.09404	0.878	-0.187
Mof_C 	C 	0.7091	0.127	0.88276	0.089
Mof_C 	C 	0.6297	0.08423	0.84228	0.088
Mof_H 	H 	0.7278	0.134	0.9071	0.012
Mof_C 	C 	0.7329	0.15036	0.85212	-0.138
Mof_C 	C 	0.6541	0.10734	0.81219	-0.141
Mof_H 	H 	0.5936	0.0619	0.8388	0.016
Mof_H 	H 	0.7685	0.1729	0.8555	0.079
Mof_C 	C 	0.7045	0.14043	0.81647	0.07
Mof_H 	H 	0.6356	0.1002	0.7879	0.076
Mof_C 	C 	0.7302	0.1641	0.78273	0.023
Mof_C 	C 	0.7309	0.20603	0.78258	-0.091
Mof_H 	H 	0.7182	0.2204	0.8049	0.059
Mof_O 	O 	0.0821	0.53999	0.90106	-0.692
Mof_C 	C 	0.1296	0.56869	0.91018	0.517
Mof_O 	O 	0.1523	0.57743	0.94291	-0.672
Mof_C 	C 	0.1588	0.59404	0.878	-0.191
Mof_C 	C 	0.2091	0.627	0.88276	0.088
Mof_C 	C 	0.1297	0.58423	0.84228	0.087
Mof_H 	H 	0.2278	0.634	0.9071	0.008
Mof_C 	C 	0.2329	0.65036	0.85212	-0.141
Mof_C 	C 	0.1541	0.60734	0.81219	-0.144
Mof_H 	H 	0.0936	0.5619	0.8388	0.012
Mof_H 	H 	0.2685	0.6729	0.8555	0.075
Mof_C 	C 	0.2045	0.64043	0.81647	0.068
Mof_H 	H 	0.1356	0.6002	0.7879	0.073
Mof_C 	C 	0.2302	0.6641	0.78273	0.02
Mof_C 	C 	0.2309	0.70603	0.78258	-0.092
Mof_H 	H 	0.2182	0.7204	0.8049	0.056
Mof_O 	O 	0.0821	0.03999	0.40106	-0.699
Mof_C 	C 	0.1296	0.06869	0.41018	0.523
Mof_O 	O 	0.1523	0.07743	0.44291	-0.701
Mof_C 	C 	0.1588	0.09404	0.378	-0.204
Mof_C 	C 	0.2091	0.127	0.38276	0.093
Mof_C 	C 	0.1297	0.08423	0.34228	0.092
Mof_H 	H 	0.2278	0.134	0.4071	-0.006
Mof_C 	C 	0.2329	0.15036	0.35212	-0.15
Mof_C 	C 	0.1541	0.10734	0.31219	-0.15
Mof_H 	H 	0.0936	0.0619	0.3388	0.007
Mof_H 	H 	0.2685	0.1729	0.3555	0.072
Mof_C 	C 	0.2045	0.14043	0.31647	0.071
Mof_H 	H 	0.1356	0.1002	0.2879	0.073
Mof_C 	C 	0.2302	0.1641	0.28273	0.015
Mof_C 	C 	0.2309	0.20603	0.28258	-0.09
Mof_H 	H 	0.2182	0.2204	0.3049	0.053
Mof_O 	O 	0.5821	0.46001	0.59894	-0.686
Mof_C 	C 	0.6296	0.43131	0.58982	0.521
Mof_O 	O 	0.6523	0.42257	0.55709	-0.696
Mof_C 	C 	0.6588	0.40596	0.622	-0.195
Mof_C 	C 	0.7091	0.373	0.61724	0.092
Mof_C 	C 	0.6297	0.41577	0.65772	0.092
Mof_H 	H 	0.7278	0.366	0.5929	-0
Mof_C 	C 	0.7329	0.34964	0.64788	-0.145
Mof_C 	C 	0.6541	0.39266	0.68781	-0.144
Mof_H 	H 	0.5936	0.4381	0.6612	0.017
Mof_H 	H 	0.7685	0.3271	0.6445	0.075
Mof_C 	C 	0.7045	0.35957	0.68353	0.072
Mof_H 	H 	0.6356	0.3998	0.7121	0.079
Mof_C 	C 	0.7302	0.3359	0.71727	0.022
Mof_C 	C 	0.7309	0.29397	0.71742	-0.091
Mof_H 	H 	0.7182	0.2796	0.6951	0.057
Mof_O 	O 	0.5821	0.96001	0.09894	-0.679
Mof_C 	C 	0.6296	0.93131	0.08982	0.523
Mof_O 	O 	0.6523	0.92257	0.05709	-0.704
Mof_C 	C 	0.6588	0.90596	0.122	-0.198
Mof_C 	C 	0.7091	0.873	0.11724	0.094
Mof_C 	C 	0.6297	0.91577	0.15772	0.093
Mof_H 	H 	0.7278	0.866	0.0929	-0.008
Mof_C 	C 	0.7329	0.84964	0.14788	-0.147
Mof_C 	C 	0.6541	0.89266	0.18781	-0.145
Mof_H 	H 	0.5936	0.9381	0.1612	0.019
Mof_H 	H 	0.7685	0.8271	0.1445	0.073
Mof_C 	C 	0.7045	0.85957	0.18353	0.073
Mof_H 	H 	0.6356	0.8998	0.2121	0.08
Mof_C 	C 	0.7302	0.8359	0.21727	0.021
Mof_C 	C 	0.7309	0.79397	0.21742	-0.09
Mof_H 	H 	0.7182	0.7796	0.1951	0.055
Mof_O 	O 	0.0821	0.46001	0.09894	-0.695
Mof_C 	C 	0.1296	0.43131	0.08982	0.524
Mof_O 	O 	0.1523	0.42257	0.05709	-0.711
Mof_C 	C 	0.1588	0.40596	0.122	-0.207
Mof_C 	C 	0.2091	0.373	0.11724	0.094
Mof_C 	C 	0.1297	0.41577	0.15772	0.093
Mof_H 	H 	0.2278	0.366	0.0929	-0.013
Mof_C 	C 	0.2329	0.34964	0.14788	-0.153
Mof_C 	C 	0.1541	0.39266	0.18781	-0.151
Mof_H 	H 	0.0936	0.4381	0.1612	0.009
Mof_H 	H 	0.2685	0.3271	0.1445	0.069
Mof_C 	C 	0.2045	0.35957	0.18353	0.072
Mof_H 	H 	0.1356	0.3998	0.2121	0.075
Mof_C 	C 	0.2302	0.3359	0.21727	0.015
Mof_C 	C 	0.2309	0.29397	0.21742	-0.091
Mof_H 	H 	0.2182	0.2796	0.1951	0.051
Mof_O 	O 	0.0821	0.96001	0.59894	-0.687
Mof_C 	C 	0.1296	0.93131	0.58982	0.521
Mof_O 	O 	0.1523	0.92257	0.55709	-0.696
Mof_C 	C 	0.1588	0.90596	0.622	-0.199
Mof_C 	C 	0.2091	0.873	0.61724	0.091
Mof_C 	C 	0.1297	0.91577	0.65772	0.091
Mof_H 	H 	0.2278	0.866	0.5929	-0.004
Mof_C 	C 	0.2329	0.84964	0.64788	-0.147
Mof_C 	C 	0.1541	0.89266	0.68781	-0.147
Mof_H 	H 	0.0936	0.9381	0.6612	0.013
Mof_H 	H 	0.2685	0.8271	0.6445	0.072
Mof_C 	C 	0.2045	0.85957	0.68353	0.07
Mof_H 	H 	0.1356	0.8998	0.7121	0.076
Mof_C 	C 	0.2302	0.8359	0.71727	0.019
Mof_C 	C 	0.2309	0.79397	0.71742	-0.092
Mof_H 	H 	0.2182	0.7796	0.6951	0.054
Mof_O 	O 	0.4179	0.53999	0.59894	-0.687
Mof_C 	C 	0.3704	0.56869	0.58982	0.521
Mof_O 	O 	0.3477	0.57743	0.55709	-0.699
Mof_C 	C 	0.3412	0.59404	0.622	-0.198
Mof_C 	C 	0.2909	0.627	0.61724	0.091
Mof_C 	C 	0.3703	0.58423	0.65772	0.091
Mof_H 	H 	0.2722	0.634	0.5929	-0.006
Mof_C 	C 	0.2671	0.65036	0.64788	-0.147
Mof_C 	C 	0.3459	0.60734	0.68781	-0.146
Mof_H 	H 	0.4064	0.5619	0.6612	0.016
Mof_H 	H 	0.2315	0.6729	0.6445	0.069
Mof_C 	C 	0.2955	0.64043	0.68353	0.07
Mof_H 	H 	0.3644	0.6002	0.7121	0.079
Mof_C 	C 	0.2698	0.6641	0.71727	0.018
Mof_C 	C 	0.2691	0.70603	0.71742	-0.091
Mof_H 	H 	0.2818	0.7204	0.6951	0.055
Mof_O 	O 	0.4179	0.03999	0.09894	-0.692
Mof_C 	C 	0.3704	0.06869	0.08982	0.524
Mof_O 	O 	0.3477	0.07743	0.05709	-0.712
Mof_C 	C 	0.3412	0.09404	0.122	-0.205
Mof_C 	C 	0.2909	0.127	0.11724	0.093
Mof_C 	C 	0.3703	0.08423	0.15772	0.094
Mof_H 	H 	0.2722	0.134	0.0929	-0.015
Mof_C 	C 	0.2671	0.15036	0.14788	-0.153
Mof_C 	C 	0.3459	0.10734	0.18781	-0.15
Mof_H 	H 	0.4064	0.0619	0.1612	0.012
Mof_H 	H 	0.2315	0.1729	0.1445	0.067
Mof_C 	C 	0.2955	0.14043	0.18353	0.072
Mof_H 	H 	0.3644	0.1002	0.2121	0.078
Mof_C 	C 	0.2698	0.1641	0.21727	0.014
Mof_C 	C 	0.2691	0.20603	0.21742	-0.09
Mof_H 	H 	0.2818	0.2204	0.1951	0.053
Mof_O 	O 	0.9179	0.53999	0.09894	-0.673
Mof_C 	C 	0.8704	0.56869	0.08982	0.523
Mof_O 	O 	0.8477	0.57743	0.05709	-0.701
Mof_C 	C 	0.8412	0.59404	0.122	-0.196
Mof_C 	C 	0.7909	0.627	0.11724	0.093
Mof_C 	C 	0.8703	0.58423	0.15772	0.094
Mof_H 	H 	0.7722	0.634	0.0929	-0.009
Mof_C 	C 	0.7671	0.65036	0.14788	-0.147
Mof_C 	C 	0.8459	0.60734	0.18781	-0.144
Mof_H 	H 	0.9064	0.5619	0.1612	0.023
Mof_H 	H 	0.7315	0.6729	0.1445	0.07
Mof_C 	C 	0.7955	0.64043	0.18353	0.073
Mof_H 	H 	0.8644	0.6002	0.2121	0.083
Mof_C 	C 	0.7698	0.6641	0.21727	0.02
Mof_C 	C 	0.7691	0.70603	0.21742	-0.089
Mof_H 	H 	0.7818	0.7204	0.1951	0.057
Mof_O 	O 	0.9179	0.03999	0.59894	-0.676
Mof_C 	C 	0.8704	0.06869	0.58982	0.522
Mof_O 	O 	0.8477	0.07743	0.55709	-0.69
Mof_C 	C 	0.8412	0.09404	0.622	-0.193
Mof_C 	C 	0.7909	0.127	0.61724	0.092
Mof_C 	C 	0.8703	0.08423	0.65772	0.092
Mof_H 	H 	0.7722	0.134	0.5929	-0.001
Mof_C 	C 	0.7671	0.15036	0.64788	-0.144
Mof_C 	C 	0.8459	0.10734	0.68781	-0.143
Mof_H 	H 	0.9064	0.0619	0.6612	0.021
Mof_H 	H 	0.7315	0.1729	0.6445	0.072
Mof_C 	C 	0.7955	0.14043	0.68353	0.072
Mof_H 	H 	0.8644	0.1002	0.7121	0.082
Mof_C 	C 	0.7698	0.1641	0.71727	0.022
Mof_C 	C 	0.7691	0.20603	0.71742	-0.09
Mof_H 	H 	0.7818	0.2204	0.6951	0.059
Mof_O 	O 	0.5821	0.53999	0.59894	-0.686
Mof_C 	C 	0.6296	0.56869	0.58982	0.521
Mof_O 	O 	0.6523	0.57743	0.55709	-0.696
Mof_C 	C 	0.6588	0.59404	0.622	-0.195
Mof_C 	C 	0.7091	0.627	0.61724	0.092
Mof_C 	C 	0.6297	0.58423	0.65772	0.092
Mof_H 	H 	0.7278	0.634	0.5929	-0
Mof_C 	C 	0.7329	0.65036	0.64788	-0.145
Mof_C 	C 	0.6541	0.60734	0.68781	-0.144
Mof_H 	H 	0.5936	0.5619	0.6612	0.017
Mof_H 	H 	0.7685	0.6729	0.6445	0.075
Mof_C 	C 	0.7045	0.64043	0.68353	0.072
Mof_H 	H 	0.6356	0.6002	0.7121	0.079
Mof_C 	C 	0.7302	0.6641	0.71727	0.022
Mof_C 	C 	0.7309	0.70603	0.71742	-0.091
Mof_H 	H 	0.7182	0.7204	0.6951	0.057
Mof_O 	O 	0.5821	0.03999	0.09894	-0.691
Mof_C 	C 	0.6296	0.06869	0.08982	0.524
Mof_O 	O 	0.6523	0.07743	0.05709	-0.708
Mof_C 	C 	0.6588	0.09404	0.122	-0.203
Mof_C 	C 	0.7091	0.127	0.11724	0.095
Mof_C 	C 	0.6297	0.08423	0.15772	0.095
Mof_H 	H 	0.7278	0.134	0.0929	-0.009
Mof_C 	C 	0.7329	0.15036	0.14788	-0.15
Mof_C 	C 	0.6541	0.10734	0.18781	-0.148
Mof_H 	H 	0.5936	0.0619	0.1612	0.013
Mof_H 	H 	0.7685	0.1729	0.1445	0.073
Mof_C 	C 	0.7045	0.14043	0.18353	0.074
Mof_H 	H 	0.6356	0.1002	0.2121	0.078
Mof_C 	C 	0.7302	0.1641	0.21727	0.018
Mof_C 	C 	0.7309	0.20603	0.21742	-0.089
Mof_H 	H 	0.7182	0.2204	0.1951	0.055
Mof_O 	O 	0.0821	0.53999	0.09894	-0.695
Mof_C 	C 	0.1296	0.56869	0.08982	0.524
Mof_O 	O 	0.1523	0.57743	0.05709	-0.711
Mof_C 	C 	0.1588	0.59404	0.122	-0.206
Mof_C 	C 	0.2091	0.627	0.11724	0.094
Mof_C 	C 	0.1297	0.58423	0.15772	0.093
Mof_H 	H 	0.2278	0.634	0.0929	-0.013
Mof_C 	C 	0.2329	0.65036	0.14788	-0.153
Mof_C 	C 	0.1541	0.60734	0.18781	-0.151
Mof_H 	H 	0.0936	0.5619	0.1612	0.009
Mof_H 	H 	0.2685	0.6729	0.1445	0.069
Mof_C 	C 	0.2045	0.64043	0.18353	0.072
Mof_H 	H 	0.1356	0.6002	0.2121	0.075
Mof_C 	C 	0.2302	0.6641	0.21727	0.015
Mof_C 	C 	0.2309	0.70603	0.21742	-0.09
Mof_H 	H 	0.2182	0.7204	0.1951	0.051
Mof_O 	O 	0.0821	0.03999	0.59894	-0.699
Mof_C 	C 	0.1296	0.06869	0.58982	0.523
Mof_O 	O 	0.1523	0.07743	0.55709	-0.701
Mof_C 	C 	0.1588	0.09404	0.622	-0.204
Mof_C 	C 	0.2091	0.127	0.61724	0.093
Mof_C 	C 	0.1297	0.08423	0.65772	0.092
Mof_H 	H 	0.2278	0.134	0.5929	-0.006
Mof_C 	C 	0.2329	0.15036	0.64788	-0.15
Mof_C 	C 	0.1541	0.10734	0.68781	-0.151
Mof_H 	H 	0.0936	0.0619	0.6612	0.007
Mof_H 	H 	0.2685	0.1729	0.6445	0.072
Mof_C 	C 	0.2045	0.14043	0.68353	0.071
Mof_H 	H 	0.1356	0.1002	0.7121	0.074
Mof_C 	C 	0.2302	0.1641	0.71727	0.016
Mof_C 	C 	0.2309	0.20603	0.71742	-0.091
Mof_H 	H 	0.2182	0.2204	0.6951	0.053
Mof_O 	O 	0.4179	0.46001	0.59894	-0.687
Mof_C 	C 	0.3704	0.43131	0.58982	0.521
Mof_O 	O 	0.3477	0.42257	0.55709	-0.699
Mof_C 	C 	0.3412	0.40596	0.622	-0.198
Mof_C 	C 	0.2909	0.373	0.61724	0.09
Mof_C 	C 	0.3703	0.41577	0.65772	0.091
Mof_H 	H 	0.2722	0.366	0.5929	-0.006
Mof_C 	C 	0.2671	0.34964	0.64788	-0.147
Mof_C 	C 	0.3459	0.39266	0.68781	-0.146
Mof_H 	H 	0.4064	0.4381	0.6612	0.016
Mof_H 	H 	0.2315	0.3271	0.6445	0.069
Mof_C 	C 	0.2955	0.35957	0.68353	0.07
Mof_H 	H 	0.3644	0.3998	0.7121	0.079
Mof_C 	C 	0.2698	0.3359	0.71727	0.018
Mof_C 	C 	0.2691	0.29397	0.71742	-0.092
Mof_H 	H 	0.2818	0.2796	0.6951	0.055
Mof_O 	O 	0.4179	0.96001	0.09894	-0.68
Mof_C 	C 	0.3704	0.93131	0.08982	0.522
Mof_O 	O 	0.3477	0.92257	0.05709	-0.707
Mof_C 	C 	0.3412	0.90596	0.122	-0.201
Mof_C 	C 	0.2909	0.873	0.11724	0.092
Mof_C 	C 	0.3703	0.91577	0.15772	0.093
Mof_H 	H 	0.2722	0.866	0.0929	-0.013
Mof_C 	C 	0.2671	0.84964	0.14788	-0.15
Mof_C 	C 	0.3459	0.89266	0.18781	-0.147
Mof_H 	H 	0.4064	0.9381	0.1612	0.018
Mof_H 	H 	0.2315	0.8271	0.1445	0.067
Mof_C 	C 	0.2955	0.85957	0.18353	0.071
Mof_H 	H 	0.3644	0.8998	0.2121	0.08
Mof_C 	C 	0.2698	0.8359	0.21727	0.017
Mof_C 	C 	0.2691	0.79397	0.21742	-0.091
Mof_H 	H 	0.2818	0.7796	0.1951	0.053
Mof_O 	O 	0.9179	0.46001	0.09894	-0.673
Mof_C 	C 	0.8704	0.43131	0.08982	0.523
Mof_O 	O 	0.8477	0.42257	0.05709	-0.701
Mof_C 	C 	0.8412	0.40596	0.122	-0.196
Mof_C 	C 	0.7909	0.373	0.11724	0.093
Mof_C 	C 	0.8703	0.41577	0.15772	0.094
Mof_H 	H 	0.7722	0.366	0.0929	-0.009
Mof_C 	C 	0.7671	0.34964	0.14788	-0.147
Mof_C 	C 	0.8459	0.39266	0.18781	-0.144
Mof_H 	H 	0.9064	0.4381	0.1612	0.023
Mof_H 	H 	0.7315	0.3271	0.1445	0.07
Mof_C 	C 	0.7955	0.35957	0.18353	0.073
Mof_H 	H 	0.8644	0.3998	0.2121	0.083
Mof_C 	C 	0.7698	0.3359	0.21727	0.02
Mof_C 	C 	0.7691	0.29397	0.21742	-0.089
Mof_H 	H 	0.7818	0.2796	0.1951	0.057
Mof_O 	O 	0.9179	0.96001	0.59894	-0.666
Mof_C 	C 	0.8704	0.93131	0.58982	0.52
Mof_O 	O 	0.8477	0.92257	0.55709	-0.686
Mof_C 	C 	0.8412	0.90596	0.622	-0.189
Mof_C 	C 	0.7909	0.873	0.61724	0.09
Mof_C 	C 	0.8703	0.91577	0.65772	0.091
Mof_H 	H 	0.7722	0.866	0.5929	0
Mof_C 	C 	0.7671	0.84964	0.64788	-0.142
Mof_C 	C 	0.8459	0.89266	0.68781	-0.14
Mof_H 	H 	0.9064	0.9381	0.6612	0.026
Mof_H 	H 	0.7315	0.8271	0.6445	0.072
Mof_C 	C 	0.7955	0.85957	0.68353	0.071
Mof_H 	H 	0.8644	0.8998	0.7121	0.084
Mof_C 	C 	0.7698	0.8359	0.71727	0.024
Mof_C 	C 	0.7691	0.79397	0.71742	-0.091
Mof_H 	H 	0.7818	0.7796	0.6951	0.059
Mof_O 	O 	0.4179	0.53999	0.40106	-0.687
Mof_C 	C 	0.3704	0.56869	0.41018	0.521
Mof_O 	O 	0.3477	0.57743	0.44291	-0.699
Mof_C 	C 	0.3412	0.59404	0.378	-0.198
Mof_C 	C 	0.2909	0.627	0.38276	0.091
Mof_C 	C 	0.3703	0.58423	0.34228	0.091
Mof_H 	H 	0.2722	0.634	0.4071	-0.005
Mof_C 	C 	0.2671	0.65036	0.35212	-0.147
Mof_C 	C 	0.3459	0.60734	0.31219	-0.146
Mof_H 	H 	0.4064	0.5619	0.3388	0.016
Mof_H 	H 	0.2315	0.6729	0.3555	0.069
Mof_C 	C 	0.2955	0.64043	0.31647	0.071
Mof_H 	H 	0.3644	0.6002	0.2879	0.078
Mof_C 	C 	0.2698	0.6641	0.28273	0.016
Mof_C 	C 	0.2691	0.70603	0.28258	-0.091
Mof_H 	H 	0.2818	0.7204	0.3049	0.055
Mof_O 	O 	0.4179	0.03999	0.90106	-0.688
Mof_C 	C 	0.3704	0.06869	0.91018	0.516
Mof_O 	O 	0.3477	0.07743	0.94291	-0.672
Mof_C 	C 	0.3412	0.09404	0.878	-0.19
Mof_C 	C 	0.2909	0.127	0.88276	0.087
Mof_C 	C 	0.3703	0.08423	0.84228	0.087
Mof_H 	H 	0.2722	0.134	0.9071	0.007
Mof_C 	C 	0.2671	0.15036	0.85212	-0.141
Mof_C 	C 	0.3459	0.10734	0.81219	-0.142
Mof_H 	H 	0.4064	0.0619	0.8388	0.016
Mof_H 	H 	0.2315	0.1729	0.8555	0.072
Mof_C 	C 	0.2955	0.14043	0.81647	0.068
Mof_H 	H 	0.3644	0.1002	0.7879	0.076
Mof_C 	C 	0.2698	0.1641	0.78273	0.019
Mof_C 	C 	0.2691	0.20603	0.78258	-0.092
Mof_H 	H 	0.2818	0.2204	0.8049	0.058
Mof_O 	O 	0.9179	0.53999	0.90106	-0.67
Mof_C 	C 	0.8704	0.56869	0.91018	0.516
Mof_O 	O 	0.8477	0.57743	0.94291	-0.661
Mof_C 	C 	0.8412	0.59404	0.878	-0.181
Mof_C 	C 	0.7909	0.627	0.88276	0.087
Mof_C 	C 	0.8703	0.58423	0.84228	0.087
Mof_H 	H 	0.7722	0.634	0.9071	0.013
Mof_C 	C 	0.7671	0.65036	0.85212	-0.135
Mof_C 	C 	0.8459	0.60734	0.81219	-0.136
Mof_H 	H 	0.9064	0.5619	0.8388	0.026
Mof_H 	H 	0.7315	0.6729	0.8555	0.076
Mof_C 	C 	0.7955	0.64043	0.81647	0.069
Mof_H 	H 	0.8644	0.6002	0.7879	0.081
Mof_C 	C 	0.7698	0.6641	0.78273	0.025
Mof_C 	C 	0.7691	0.70603	0.78258	-0.091
Mof_H 	H 	0.7818	0.7204	0.8049	0.061
Mof_O 	O 	0.9179	0.03999	0.40106	-0.676
Mof_C 	C 	0.8704	0.06869	0.41018	0.522
Mof_O 	O 	0.8477	0.07743	0.44291	-0.69
Mof_C 	C 	0.8412	0.09404	0.378	-0.193
Mof_C 	C 	0.7909	0.127	0.38276	0.092
Mof_C 	C 	0.8703	0.08423	0.34228	0.092
Mof_H 	H 	0.7722	0.134	0.4071	-0.001
Mof_C 	C 	0.7671	0.15036	0.35212	-0.144
Mof_C 	C 	0.8459	0.10734	0.31219	-0.142
Mof_H 	H 	0.9064	0.0619	0.3388	0.021
Mof_H 	H 	0.7315	0.1729	0.3555	0.073
Mof_C 	C 	0.7955	0.14043	0.31647	0.072
Mof_H 	H 	0.8644	0.1002	0.2879	0.081
Mof_C 	C 	0.7698	0.1641	0.28273	0.02
Mof_C 	C 	0.7691	0.20603	0.28258	-0.089
Mof_H 	H 	0.7818	0.2204	0.3049	0.058
Mof_O 	O 	0.5821	0.46001	0.40106	-0.686
Mof_C 	C 	0.6296	0.43131	0.41018	0.522
Mof_O 	O 	0.6523	0.42257	0.44291	-0.696
Mof_C 	C 	0.6588	0.40596	0.378	-0.195
Mof_C 	C 	0.7091	0.373	0.38276	0.092
Mof_C 	C 	0.6297	0.41577	0.34228	0.092
Mof_H 	H 	0.7278	0.366	0.4071	-0
Mof_C 	C 	0.7329	0.34964	0.35212	-0.145
Mof_C 	C 	0.6541	0.39266	0.31219	-0.144
Mof_H 	H 	0.5936	0.4381	0.3388	0.017
Mof_H 	H 	0.7685	0.3271	0.3555	0.075
Mof_C 	C 	0.7045	0.35957	0.31647	0.072
Mof_H 	H 	0.6356	0.3998	0.2879	0.078
Mof_C 	C 	0.7302	0.3359	0.28273	0.021
Mof_C 	C 	0.7309	0.29397	0.28258	-0.09
Mof_H 	H 	0.7182	0.2796	0.3049	0.057
Mof_O 	O 	0.5821	0.96001	0.90106	-0.676
Mof_C 	C 	0.6296	0.93131	0.91018	0.515
Mof_O 	O 	0.6523	0.92257	0.94291	-0.664
Mof_C 	C 	0.6588	0.90596	0.878	-0.182
Mof_C 	C 	0.7091	0.873	0.88276	0.088
Mof_C 	C 	0.6297	0.91577	0.84228	0.087
Mof_H 	H 	0.7278	0.866	0.9071	0.014
Mof_C 	C 	0.7329	0.84964	0.85212	-0.136
Mof_C 	C 	0.6541	0.89266	0.81219	-0.137
Mof_H 	H 	0.5936	0.9381	0.8388	0.022
Mof_H 	H 	0.7685	0.8271	0.8555	0.078
Mof_C 	C 	0.7045	0.85957	0.81647	0.069
Mof_H 	H 	0.6356	0.8998	0.7879	0.078
Mof_C 	C 	0.7302	0.8359	0.78273	0.025
Mof_C 	C 	0.7309	0.79397	0.78258	-0.092
Mof_H 	H 	0.7182	0.7796	0.8049	0.06
Mof_O 	O 	0.0821	0.46001	0.90106	-0.692
Mof_C 	C 	0.1296	0.43131	0.91018	0.517
Mof_O 	O 	0.1523	0.42257	0.94291	-0.672
Mof_C 	C 	0.1588	0.40596	0.878	-0.191
Mof_C 	C 	0.2091	0.373	0.88276	0.088
Mof_C 	C 	0.1297	0.41577	0.84228	0.087
Mof_H 	H 	0.2278	0.366	0.9071	0.008
Mof_C 	C 	0.2329	0.34964	0.85212	-0.141
Mof_C 	C 	0.1541	0.39266	0.81219	-0.144
Mof_H 	H 	0.0936	0.4381	0.8388	0.012
Mof_H 	H 	0.2685	0.3271	0.8555	0.075
Mof_C 	C 	0.2045	0.35957	0.81647	0.068
Mof_H 	H 	0.1356	0.3998	0.7879	0.073
Mof_C 	C 	0.2302	0.3359	0.78273	0.02
Mof_C 	C 	0.2309	0.29397	0.78258	-0.093
Mof_H 	H 	0.2182	0.2796	0.8049	0.056
Mof_O 	O 	0.0821	0.96001	0.40106	-0.687
Mof_C 	C 	0.1296	0.93131	0.41018	0.522
Mof_O 	O 	0.1523	0.92257	0.44291	-0.696
Mof_C 	C 	0.1588	0.90596	0.378	-0.199
Mof_C 	C 	0.2091	0.873	0.38276	0.091
Mof_C 	C 	0.1297	0.91577	0.34228	0.091
Mof_H 	H 	0.2278	0.866	0.4071	-0.004
Mof_C 	C 	0.2329	0.84964	0.35212	-0.147
Mof_C 	C 	0.1541	0.89266	0.31219	-0.147
Mof_H 	H 	0.0936	0.9381	0.3388	0.013
Mof_H 	H 	0.2685	0.8271	0.3555	0.072
Mof_C 	C 	0.2045	0.85957	0.31647	0.07
Mof_H 	H 	0.1356	0.8998	0.2879	0.075
Mof_C 	C 	0.2302	0.8359	0.28273	0.017
Mof_C 	C 	0.2309	0.79397	0.28258	-0.091
Mof_H 	H 	0.2182	0.7796	0.3049	0.053
Mof_Zr	Zr	0.5	0.5	0.43188	3.218
Mof_Zr	Zr	0.5	0	0.93188	3.216
Mof_Zr	Zr	2.87841e-32	0.5	0.93188	3.215
Mof_Zr	Zr	-6.97824e-33	-5.27226e-33	0.43188	3.213
Mof_Zr	Zr	0.5	0.5	0.56812	3.218
Mof_Zr	Zr	0.5	-6.59033e-34	0.06812	3.217
Mof_Zr	Zr	8.4709e-33	0.5	0.06812	3.215
Mof_Zr	Zr	4.6913e-33	-5.27226e-33	0.56812	3.213
Mof_O 	O 	0.6081	0.5	0.46727	-1.405
Mof_H 	H 	0.658	0.5	0.4509	0.242
Mof_O 	O 	0.6081	0	0.96727	-1.378
Mof_H 	H 	0.658	0	0.9509	0.248
Mof_O 	O 	0.1081	0.5	0.96727	-1.374
Mof_H 	H 	0.158	0.5	0.9509	0.252
Mof_O 	O 	0.1081	0	0.46727	-1.414
Mof_H 	H 	0.158	0	0.4509	0.238
Mof_O 	O 	0.3919	0.5	0.46727	-1.405
Mof_H 	H 	0.342	0.5	0.4509	0.24
Mof_O 	O 	0.3919	0	0.96727	-1.378
Mof_H 	H 	0.342	0	0.9509	0.245
Mof_O 	O 	0.8919	0.5	0.96727	-1.358
Mof_H 	H 	0.842	0.5	0.9509	0.248
Mof_O 	O 	0.8919	0	0.46727	-1.396
Mof_H 	H 	0.842	0	0.4509	0.235
Mof_O 	O 	0.3919	0.5	0.53273	-1.405
Mof_H 	H 	0.342	0.5	0.5491	0.24
Mof_O 	O 	0.3919	-3.29516e-34	0.03273	-1.43
Mof_H 	H 	0.342	-6.59033e-34	0.0491	0.238
Mof_O 	O 	0.8919	0.5	0.03273	-1.41
Mof_H 	H 	0.842	0.5	0.0491	0.241
Mof_O 	O 	0.8919	-5.27226e-33	0.53273	-1.396
Mof_H 	H 	0.842	-5.27226e-33	0.5491	0.235
Mof_O 	O 	0.6081	0.5	0.53273	-1.405
Mof_H 	H 	0.658	0.5	0.5491	0.242
Mof_O 	O 	0.6081	-3.29516e-34	0.03273	-1.431
Mof_H 	H 	0.658	-6.59033e-34	0.0491	0.241
Mof_O 	O 	0.1081	0.5	0.03273	-1.426
Mof_H 	H 	0.158	0.5	0.0491	0.244
Mof_O 	O 	0.1081	-5.27226e-33	0.53273	-1.414
Mof_H 	H 	0.158	-5.27226e-33	0.5491	0.238
Mof_O 	O 	0.5	0.55353	0.46687	-1.424
Mof_H 	H 	0.5	0.5781	0.4504	0.189
Mof_O 	O 	0.5	0.05353	0.96687	-1.395
Mof_H 	H 	0.5	0.0781	0.9504	0.193
Mof_O 	O 	-3.41941e-32	0.55353	0.96687	-1.407
Mof_H 	H 	-1.3241e-32	0.5781	0.9504	0.184
Mof_O 	O 	3.85522e-33	0.05353	0.46687	-1.438
Mof_H 	H 	-6.82531e-33	0.0781	0.4504	0.181
Mof_O 	O 	0.5	0.44647	0.46687	-1.424
Mof_H 	H 	0.5	0.4219	0.4504	0.188
Mof_O 	O 	0.5	0.94647	0.96687	-1.387
Mof_H 	H 	0.5	0.9219	0.9504	0.191
Mof_O 	O 	-1.3105e-32	0.44647	0.96687	-1.407
Mof_H 	H 	7.84801e-33	0.4219	0.9504	0.184
Mof_O 	O 	4.60333e-32	0.94647	0.46687	-1.429
Mof_H 	H 	1.42637e-32	0.9219	0.4504	0.18
Mof_O 	O 	0.5	0.55353	0.53313	-1.424
Mof_H 	H 	0.5	0.5781	0.5496	0.189
Mof_O 	O 	0.5	0.05353	0.03313	-1.447
Mof_H 	H 	0.5	0.0781	0.0496	0.186
Mof_O 	O 	-3.85459e-34	0.55353	0.03313	-1.458
Mof_H 	H 	1.22722e-32	0.5781	0.0496	0.178
Mof_O 	O 	-6.14216e-33	0.05353	0.53313	-1.438
Mof_H 	H 	-6.00616e-33	0.0781	0.5496	0.181
Mof_O 	O 	0.5	0.44647	0.53313	-1.424
Mof_H 	H 	0.5	0.4219	0.5496	0.188
Mof_O 	O 	0.5	0.94647	0.03313	-1.439
Mof_H 	H 	0.5	0.9219	0.0496	0.184
Mof_O 	O 	1.01591e-32	0.44647	0.03313	-1.458
Mof_H 	H 	-8.81688e-33	0.4219	0.0496	0.178
Mof_O 	O 	-6.14216e-33	0.94647	0.53313	-1.429
Mof_H 	H 	3.6172e-32	0.9219	0.5496	0.18
Mof_Zr	Zr	0.60953	0.55389	0.5	3.199
Mof_O 	O 	0.7417	0.54785	0.5	-0.762
Mof_H 	H 	0.7543	0.5232	0.5	0.252
Mof_Zr	Zr	0.60953	0.05389	-0	3.191
Mof_O 	O 	0.7417	0.04785	-0	-0.795
Mof_H 	H 	0.7543	0.0232	-0	0.241
Mof_Zr	Zr	0.10953	0.55389	-0	3.19
Mof_O 	O 	0.2417	0.54785	-0	-0.799
Mof_H 	H 	0.2543	0.5232	-0	0.245
Mof_Zr	Zr	0.10953	0.05389	0.5	3.199
Mof_O 	O 	0.2417	0.04785	0.5	-0.767
Mof_H 	H 	0.2543	0.0232	0.5	0.245
Mof_Zr	Zr	0.39047	0.44611	0.5	3.199
Mof_O 	O 	0.2583	0.45215	0.5	-0.77
Mof_H 	H 	0.2457	0.4768	0.5	0.249
Mof_Zr	Zr	0.39047	0.94611	-0	3.192
Mof_O 	O 	0.2583	0.95215	-0	-0.8
Mof_H 	H 	0.2457	0.9768	-0	0.252
Mof_Zr	Zr	0.89047	0.44611	-0	3.193
Mof_O 	O 	0.7583	0.45215	-0	-0.797
Mof_H 	H 	0.7457	0.4768	-0	0.245
Mof_Zr	Zr	0.89047	0.94611	0.5	3.203
Mof_O 	O 	0.7583	0.95215	0.5	-0.762
Mof_H 	H 	0.7457	0.9768	0.5	0.258
Mof_Zr	Zr	0.39047	0.55389	0.5	3.199
Mof_O 	O 	0.2583	0.54785	0.5	-0.77
Mof_H 	H 	0.2457	0.5232	0.5	0.249
Mof_Zr	Zr	0.39047	0.05389	-0	3.19
Mof_O 	O 	0.2583	0.04785	-0	-0.802
Mof_H 	H 	0.2457	0.0232	-0	0.238
Mof_Zr	Zr	0.89047	0.55389	-0	3.193
Mof_O 	O 	0.7583	0.54785	-0	-0.797
Mof_H 	H 	0.7457	0.5232	-0	0.245
Mof_Zr	Zr	0.89047	0.05389	0.5	3.202
Mof_O 	O 	0.7583	0.04785	0.5	-0.765
Mof_H 	H 	0.7457	0.0232	0.5	0.245
Mof_Zr	Zr	0.60953	0.44611	0.5	3.199
Mof_O 	O 	0.7417	0.45215	0.5	-0.762
Mof_H 	H 	0.7543	0.4768	0.5	0.252
Mof_Zr	Zr	0.60953	0.94611	-0	3.192
Mof_O 	O 	0.7417	0.95215	-0	-0.792
Mof_H 	H 	0.7543	0.9768	-0	0.254
Mof_Zr	Zr	0.10953	0.44611	-0	3.19
Mof_O 	O 	0.2417	0.45215	-0	-0.799
Mof_H 	H 	0.2543	0.4768	-0	0.245
Mof_Zr	Zr	0.10953	0.94611	0.5	3.2
Mof_O 	O 	0.2417	0.95215	0.5	-0.764
Mof_H 	H 	0.2543	0.9768	0.5	0.259
Mof_C 	C 	0.25	0.35676	0.25	-0.087
Mof_C 	C 	0.25	0.27231	0.25	0.028
Mof_H 	H 	0.25	0.3855	0.25	0.057
Mof_C 	C 	0.25	0.85676	0.75	-0.09
Mof_C 	C 	0.25	0.77231	0.75	0.03
Mof_H 	H 	0.25	0.8855	0.75	0.061
Mof_C 	C 	0.75	0.64324	0.25	-0.087
Mof_C 	C 	0.75	0.72769	0.25	0.032
Mof_H 	H 	0.75	0.6145	0.25	0.06
Mof_C 	C 	0.75	0.14324	0.75	-0.088
Mof_C 	C 	0.75	0.22769	0.75	0.033
Mof_H 	H 	0.75	0.1145	0.75	0.06
Mof_C 	C 	0.25	0.14324	0.25	-0.086
Mof_C 	C 	0.25	0.22769	0.25	0.027
Mof_H 	H 	0.25	0.1145	0.25	0.056
Mof_C 	C 	0.75	0.35676	0.75	-0.089
Mof_C 	C 	0.75	0.27231	0.75	0.034
Mof_H 	H 	0.75	0.3855	0.75	0.062
Mof_C 	C 	0.75	0.85676	0.25	-0.088
Mof_C 	C 	0.75	0.77231	0.25	0.032
Mof_H 	H 	0.75	0.8855	0.25	0.062
Mof_C 	C 	0.25	0.64324	0.75	-0.089
Mof_C 	C 	0.25	0.72769	0.75	0.029
Mof_H 	H 	0.25	0.6145	0.75	0.059
Mof_C 	C 	0.75	0.64324	0.75	-0.089
Mof_C 	C 	0.75	0.72769	0.75	0.033
Mof_H 	H 	0.75	0.6145	0.75	0.062
Mof_C 	C 	0.75	0.14324	0.25	-0.086
Mof_C 	C 	0.75	0.22769	0.25	0.031
Mof_H 	H 	0.75	0.1145	0.25	0.059
Mof_C 	C 	0.25	0.64324	0.25	-0.087
Mof_C 	C 	0.25	0.72769	0.25	0.028
Mof_H 	H 	0.25	0.6145	0.25	0.057
Mof_C 	C 	0.25	0.35676	0.75	-0.089
Mof_C 	C 	0.25	0.27231	0.75	0.03
Mof_H 	H 	0.25	0.3855	0.75	0.059
Mof_C 	C 	0.25	0.85676	0.25	-0.088
Mof_C 	C 	0.25	0.77231	0.25	0.028
Mof_H 	H 	0.25	0.8855	0.25	0.059
Mof_C 	C 	0.25	0.14324	0.75	-0.088
Mof_C 	C 	0.25	0.22769	0.75	0.029
Mof_H 	H 	0.25	0.1145	0.75	0.057
Mof_C 	C 	0.75	0.35676	0.25	-0.087
Mof_C 	C 	0.75	0.27231	0.25	0.032
Mof_H 	H 	0.75	0.3855	0.25	0.061
Mof_C 	C 	0.75	0.85676	0.75	-0.089
Mof_C 	C 	0.75	0.77231	0.75	0.034
Mof_H 	H 	0.75	0.8855	0.75	0.064
_end
