data_functionalizedCrystal
_audit_creation_method	'EQeq! by Chris Wilmer'
_symmetry_space_group_name_H-M	'P1'
_symmetry_Int_Tables_number	1
_symmetry_cell_setting	triclinic
loop_
_symmetry_equiv_pos_as_xyz
  x,y,z
_cell_length_a	21.1146
_cell_length_b	21.5804
_cell_length_c	28.2514
_cell_angle_alpha	80.9278
_cell_angle_beta	71.197
_cell_angle_gamma	60.7115
loop_
_atom_site_label
_atom_site_type_symbol
_atom_site_fract_x
_atom_site_fract_y
_atom_site_fract_z
_atom_site_charge
Mof_Cd	Cd	0.09622	0.50468	0.71599	0.417
Mof_Cd	Cd	0.90378	0.49532	0.28401	0.417
Mof_Cd	Cd	0.59731	0.48765	0.71997	0.314
Mof_Cd	Cd	0.08496	0.51235	0.21997	0.314
Mof_Cd	Cd	0.3991	0.50468	0.78401	0.418
Mof_Cd	Cd	0.40269	0.51235	0.28003	0.314
Mof_Cd	Cd	0.91504	0.48765	0.78003	0.314
Mof_Cd	Cd	0.6009	0.49532	0.21599	0.418
Mof_H 	H 	0.7133	0.0344	0.9012	0.032
Mof_H 	H 	0.1341	0.3412	0.7239	-0.008
Mof_H 	H 	0.3778	0.7688	0.9253	0.005
Mof_H 	H 	0.8486	0.4914	0.1309	-0.01
Mof_H 	H 	0.2757	0.3364	0.3169	0.096
Mof_H 	H 	0.1789	0.0404	0.551	0.081
Mof_H 	H 	0.47	0.6524	0.7312	0.002
Mof_H 	H 	0.1092	0.041	0.4206	0.102
Mof_H 	H 	0.6763	0.3606	0.3656	-0.008
Mof_H 	H 	0.6717	0.956	0.6651	0.092
Mof_H 	H 	0.6373	0.5588	0.7882	-0.019
Mof_H 	H 	0.6086	0.883	0.1103	0.09
Mof_H 	H 	0.2078	0.2322	0.7513	0.093
Mof_H 	H 	0.34	0.5086	0.6309	-0.011
Mof_H 	H 	0.7771	0.9772	0.1354	0.092
Mof_H 	H 	0.3643	0.9534	0.4369	0.084
Mof_H 	H 	0.3617	0.432	0.7143	0.019
Mof_H 	H 	0.6357	0.0466	0.5631	0.084
Mof_H 	H 	0.5641	0.051	0.5157	0.032
Mof_H 	H 	0.7189	0.6742	0.1828	0.099
Mof_H 	H 	0.1466	0.2312	0.4253	0.004
Mof_H 	H 	0.8776	0.6524	0.7688	0.001
Mof_H 	H 	0.2427	0.1528	0.3129	0.012
Mof_H 	H 	0.2457	0.9772	0.3646	0.092
Mof_H 	H 	0.8039	0.5588	0.7118	-0.019
Mof_H 	H 	0.4388	0.971	0.2686	0.094
Mof_H 	H 	0.7512	0.6868	0.0327	0.151
Mof_H 	H 	0.1224	0.3476	0.2312	0.001
Mof_H 	H 	0.7477	0.9656	0.4012	0.031
Mof_H 	H 	0.2867	0.9656	0.0988	0.031
Mof_H 	H 	0.9294	0.7718	0.0427	0.015
Mof_H 	H 	0.0145	0.2296	0.332	0.097
Mof_H 	H 	0.53	0.3476	0.2688	0.001
Mof_H 	H 	0.7473	0.122	0.5047	0.096
Mof_H 	H 	0.6196	0.7676	0.6949	0.011
Mof_H 	H 	0.4405	0.576	0.3581	-0.002
Mof_H 	H 	0.469	0.123	0.3222	0.094
Mof_H 	H 	0.2193	0.9596	0.051	0.079
Mof_H 	H 	0.326	0.3572	0.9148	-0.023
Mof_H 	H 	0.5451	0.5468	0.6187	-0.032
Mof_H 	H 	0.2063	0.432	0.7857	0.019
Mof_H 	H 	0.6069	0.6742	0.3172	0.099
Mof_H 	H 	0.674	0.6428	0.0852	-0.023
Mof_H 	H 	0.6121	0.6636	0.8169	0.095
Mof_H 	H 	0.4359	0.949	0.4843	0.032
Mof_H 	H 	0.7822	0.8756	0.5431	0.102
Mof_H 	H 	0.5683	0.5716	0.535	0.143
Mof_H 	H 	0.4317	0.4284	0.465	0.143
Mof_H 	H 	0.5618	0.4338	0.1372	-0.012
Mof_H 	H 	0.7116	0.3324	0.2082	0.011
Mof_H 	H 	0.6832	0.6428	0.4148	-0.023
Mof_H 	H 	0.2523	0.0344	0.5988	0.031
Mof_H 	H 	0.531	0.877	0.6778	0.094
Mof_H 	H 	0.5084	0.883	0.3897	0.09
Mof_H 	H 	0.7807	0.0404	0.949	0.079
Mof_H 	H 	0.562	0.6868	0.4673	0.151
Mof_H 	H 	0.9693	0.7804	0.1784	0.095
Mof_H 	H 	0.8498	0.041	0.0794	0.101
Mof_H 	H 	0.4382	0.5662	0.8628	-0.012
Mof_H 	H 	0.3849	0.051	0.9843	0.033
Mof_H 	H 	0.6277	0.044	0.1651	0.092
Mof_H 	H 	0.8006	0.7602	0.7419	0.097
Mof_H 	H 	0.3627	0.4412	0.2118	-0.019
Mof_H 	H 	0.6383	0.568	0.2857	0.019
Mof_H 	H 	0.8421	0.8706	0.1729	0.009
Mof_H 	H 	0.4259	0.0734	0.4239	0.083
Mof_H 	H 	0.3971	0.665	0.9071	0.098
Mof_H 	H 	0.5354	0.7742	0.3657	0.016
Mof_H 	H 	0.592	0.877	0.8222	0.094
Mof_H 	H 	0.4392	0.7602	0.7581	0.097
Mof_H 	H 	0.3766	0.94	0.1297	0.028
Mof_H 	H 	0.2178	0.1244	0.4569	0.102
Mof_H 	H 	0.655	0.3336	0.4499	0.144
Mof_H 	H 	0.8659	0.6588	0.2761	-0.009
Mof_H 	H 	0.0165	0.424	0.8581	-0.002
Mof_H 	H 	0.0706	0.2282	0.9573	0.015
Mof_H 	H 	0.5007	0.0734	0.0761	0.084
Mof_H 	H 	0.8693	0.878	0.0047	0.096
Mof_H 	H 	0.2884	0.6676	0.7918	0.011
Mof_H 	H 	0.3168	0.3572	0.5852	-0.023
Mof_H 	H 	0.1514	0.5086	0.8691	-0.011
Mof_H 	H 	0.3096	0.2258	0.8657	0.016
Mof_H 	H 	0.4549	0.4532	0.3813	-0.032
Mof_H 	H 	0.6578	0.1244	0.0431	0.102
Mof_H 	H 	0.7573	0.8472	0.6871	0.012
Mof_H 	H 	0.3422	0.8756	0.9569	0.102
Mof_H 	H 	0.5393	0.1372	0.7528	0.009
Mof_H 	H 	0.4996	0.923	0.5343	0.03
Mof_H 	H 	0.0919	0.4532	0.1187	-0.032
Mof_H 	H 	0.7497	0.2196	0.6784	0.095
Mof_H 	H 	0.7937	0.568	0.2143	0.019
Mof_H 	H 	0.4519	0.9384	0.1732	0.08
Mof_H 	H 	0.1866	0.8526	0.8874	0.003
Mof_H 	H 	0.3903	0.0616	0.6732	0.08
Mof_H 	H 	0.3166	0.06	0.6297	0.028
Mof_H 	H 	0.9608	0.8526	0.6126	0.003
Mof_H 	H 	0.3283	0.044	0.3349	0.092
Mof_H 	H 	0.6823	0.9534	0.0631	0.083
Mof_H 	H 	0.7243	0.6636	0.6831	0.095
Mof_H 	H 	0.5998	0.3224	0.6008	0.112
Mof_H 	H 	0.1579	0.1294	0.8271	0.009
Mof_H 	H 	0.5247	0.3412	0.7761	-0.009
Mof_H 	H 	0.6765	0.8628	0.2528	0.009
Mof_H 	H 	0.7922	0.7678	0.2487	0.093
Mof_H 	H 	0.3804	0.2324	0.3051	0.011
Mof_H 	H 	0.0723	0.469	0.9265	0.156
Mof_H 	H 	0.9886	0.6664	0.9499	0.144
Mof_H 	H 	0.6045	0.1528	0.1871	0.012
Mof_H 	H 	0.6151	0.949	0.0157	0.033
Mof_H 	H 	0.5413	0.531	0.4265	0.156
Mof_H 	H 	0.4753	0.6588	0.2239	-0.009
Mof_H 	H 	0.0336	0.6746	0.2151	-0.02
Mof_H 	H 	0.9664	0.3254	0.7849	-0.02
Mof_H 	H 	0.2918	0.6746	0.2849	-0.02
Mof_H 	H 	0.5612	0.029	0.7314	0.094
Mof_H 	H 	0.2527	0.878	0.4953	0.096
Mof_H 	H 	0.2873	0.8706	0.3271	0.009
Mof_H 	H 	0.3931	0.3258	0.6828	0.099
Mof_H 	H 	0.9379	0.665	0.5929	0.098
Mof_H 	H 	0.4993	0.9266	0.9239	0.084
Mof_H 	H 	0.9855	0.7704	0.668	0.097
Mof_H 	H 	0.2229	0.0228	0.8646	0.092
Mof_H 	H 	0.6097	0.9384	0.3268	0.08
Mof_H 	H 	0.6128	0.7676	0.8051	0.011
Mof_H 	H 	0.7012	0.2282	0.5427	0.015
Mof_H 	H 	0.4002	0.6776	0.3992	0.112
Mof_H 	H 	0.66	0.4914	0.3691	-0.011
Mof_H 	H 	0.3914	0.117	0.8897	0.09
Mof_H 	H 	0.7082	0.3254	0.7151	-0.02
Mof_H 	H 	0.2811	0.3258	0.8172	0.099
Mof_H 	H 	0.7543	0.0228	0.6354	0.092
Mof_H 	H 	0.0307	0.2196	0.8216	0.095
Mof_H 	H 	0.7559	0.2296	0.168	0.097
Mof_H 	H 	0.4916	0.117	0.6103	0.09
Mof_H 	H 	0.6234	0.06	0.8703	0.028
Mof_H 	H 	0.408	0.123	0.1778	0.094
Mof_H 	H 	0.6904	0.7742	0.1343	0.016
Mof_H 	H 	0.9277	0.531	0.0735	0.156
Mof_H 	H 	0.4587	0.469	0.5735	0.156
Mof_H 	H 	0.4646	0.2258	0.6343	0.016
Mof_H 	H 	0.5595	0.424	0.6419	-0.002
Mof_H 	H 	0.1994	0.2398	0.2581	0.097
Mof_H 	H 	0.1399	0.4284	0.035	0.143
Mof_H 	H 	0.438	0.3132	0.5327	0.151
Mof_H 	H 	0.3872	0.2324	0.1949	0.011
Mof_H 	H 	0.4607	0.8628	0.2472	0.009
Mof_H 	H 	0.8601	0.5716	0.965	0.143
Mof_H 	H 	0.9956	0.5662	0.6372	-0.012
Mof_H 	H 	0.9081	0.5468	0.8813	-0.032
Mof_H 	H 	0.044	0.6676	0.7082	0.011
Mof_H 	H 	0.2503	0.7804	0.3216	0.095
Mof_H 	H 	0.56	0.2322	0.7487	0.093
Mof_H 	H 	0.2441	0.7704	0.832	0.097
Mof_H 	H 	0.5004	0.077	0.4657	0.03
Mof_H 	H 	0.3955	0.8472	0.8129	0.012
Mof_H 	H 	0.7127	0.1294	0.6729	0.009
Mof_H 	H 	0.8211	0.9596	0.449	0.08
Mof_H 	H 	0.0044	0.4338	0.3628	-0.012
Mof_H 	H 	0.3237	0.6394	0.6344	-0.008
Mof_H 	H 	0.1961	0.4412	0.2882	-0.019
Mof_H 	H 	0.3879	0.3364	0.1831	0.095
Mof_H 	H 	0.3723	0.956	0.8349	0.092
Mof_H 	H 	0.5902	0.971	0.2314	0.094
Mof_H 	H 	0.1502	0.959	0.9206	0.101
Mof_H 	H 	0.0369	0.6394	0.8656	-0.007
Mof_H 	H 	0.5481	0.0616	0.8268	0.08
Mof_H 	H 	0.44	0.7678	0.2513	0.093
Mof_H 	H 	0.0621	0.335	0.4071	0.098
Mof_H 	H 	0.5741	0.9266	0.5761	0.083
Mof_H 	H 	0.2988	0.7718	0.4573	0.015
Mof_H 	H 	0.1307	0.122	0.9953	0.096
Mof_H 	H 	0.2488	0.3132	0.9673	0.151
Mof_H 	H 	0.8134	0.1474	0.1126	0.003
Mof_H 	H 	0.5774	0.923	0.9657	0.03
Mof_H 	H 	0.8908	0.959	0.5794	0.101
Mof_H 	H 	0.6834	0.94	0.3703	0.028
Mof_H 	H 	0.956	0.3324	0.2918	0.011
Mof_H 	H 	0.4098	0.029	0.7686	0.094
Mof_H 	H 	0.0778	0.3224	0.8992	0.112
Mof_H 	H 	0.9222	0.6776	0.1008	0.112
Mof_H 	H 	0.6222	0.2312	0.0747	0.004
Mof_H 	H 	0.6029	0.335	0.0929	0.098
Mof_H 	H 	0.3177	0.0466	0.9369	0.083
Mof_H 	H 	0.345	0.6664	0.5501	0.144
Mof_H 	H 	0.0114	0.3336	0.0501	0.144
Mof_H 	H 	0.9631	0.3606	0.1344	-0.007
Mof_H 	H 	0.3235	0.1372	0.7472	0.009
Mof_H 	H 	0.0392	0.1474	0.3874	0.003
Mof_H 	H 	0.8534	0.7688	0.5747	0.004
Mof_H 	H 	0.9835	0.576	0.1419	-0.002
Mof_H 	H 	0.4226	0.077	0.0343	0.03
Mof_H 	H 	0.5608	0.2398	0.2419	0.097
Mof_C 	C 	0.20014	0.28026	0.26491	-0.191
Mof_C 	C 	0.65894	0.02932	0.53056	-0.135
Mof_C 	C 	0.60343	0.39234	0.14232	0.12
Mof_C 	C 	0.92016	0.62104	0.96672	0.31
Mof_C 	C 	0.04441	0.26918	0.37619	0.139
Mof_C 	C 	0.26268	0.00084	0.98904	0.125
Mof_C 	C 	0.29745	0.4659	0.85213	0.352
Mof_C 	C 	0.34552	0.37954	0.58362	0.186
Mof_C 	C 	0.18204	0.12872	0.44242	-0.192
Mof_C 	C 	0.64819	0.96802	0.00175	-0.009
Mof_C 	C 	0.3897	0.06838	0.78854	-0.173
Mof_C 	C 	0.9718	0.7392	0.1698	-0.194
Mof_C 	C 	0.42137	0.91846	0.82809	-0.173
Mof_C 	C 	0.07471	0.43006	0.10497	0.181
Mof_C 	C 	0.0151	0.56454	0.81162	0.346
Mof_C 	C 	0.29412	0.98136	0.06587	-0.01
Mof_C 	C 	0.51521	0.81382	0.3461	0.047
Mof_C 	C 	0.91407	0.79886	0.59887	-0.105
Mof_C 	C 	0.25548	0.26472	0.787	0.126
Mof_C 	C 	0.06319	0.25762	0.86464	0.141
Mof_C 	C 	0.72506	0.62046	0.08362	0.186
Mof_C 	C 	0.34106	0.97068	0.46944	-0.135
Mof_C 	C 	0.42054	0.3272	0.70228	-0.174
Mof_C 	C 	0.75706	0.06048	0.56609	0.158
Mof_C 	C 	0.20876	0.272	0.75904	-0.181
Mof_C 	C 	0.76901	0.97778	0.46281	-0.136
Mof_C 	C 	0.71698	0.27104	0.15994	-0.189
Mof_C 	C 	0.15362	0.34568	0.24889	0.109
Mof_C 	C 	0.57712	0.87116	0.67884	-0.17
Mof_C 	C 	0.70496	0.19028	0.61077	-0.094
Mof_C 	C 	0.4993	0.65432	0.74889	0.109
Mof_C 	C 	0.59854	0.03252	0.88154	-0.002
Mof_C 	C 	0.61434	0.3584	0.43642	-0.289
Mof_C 	C 	0.37751	0.67898	0.37553	-0.198
Mof_C 	C 	0.28649	0.81322	0.4383	0.055
Mof_C 	C 	0.74037	0.12286	0.53886	-0.172
Mof_C 	C 	0.23665	0.4659	0.64787	0.352
Mof_C 	C 	0.55298	0.03364	0.85536	-0.142
Mof_C 	C 	0.9791	0.58796	0.86453	-0.21
Mof_C 	C 	0.98188	0.61764	0.14869	0.118
Mof_C 	C 	0.52717	0.06106	0.66945	0.149
Mof_C 	C 	0.01812	0.38236	0.85131	0.118
Mof_C 	C 	0.49973	0.12114	0.63982	-0.166
Mof_C 	C 	0.28016	0.87188	0.36124	0.051
Mof_C 	C 	0.15358	0.38716	0.95131	0.329
Mof_C 	C 	0.59952	0.38236	0.64869	0.118
Mof_C 	C 	0.57964	0.43546	0.31162	0.347
Mof_C 	C 	0.57946	0.6728	0.29772	-0.174
Mof_C 	C 	0.86055	0.8075	0.57667	0.07
Mof_C 	C 	0.45808	0.93162	0.28854	-0.173
Mof_C 	C 	0.59179	0.92902	0.66903	0.153
Mof_C 	C 	0.0282	0.2608	0.8302	-0.194
Mof_C 	C 	0.43568	0.19404	0.19	0.053
Mof_C 	C 	0.97274	0.6416	0.93642	-0.288
Mof_C 	C 	0.83576	0.66214	0.25703	0.113
Mof_C 	C 	0.56432	0.80596	0.81	0.053
Mof_C 	C 	0.4979	0.33786	0.75703	0.113
Mof_C 	C 	0.10476	0.19028	0.88923	-0.094
Mof_C 	C 	0.5219	0.72566	0.79083	0.135
Mof_C 	C 	0.67919	0.25762	0.63536	0.141
Mof_C 	C 	0.4936	0.2042	0.19409	-0.093
Mof_C 	C 	0.80906	0.93628	0.11611	-0.178
Mof_C 	C 	0.05649	0.32102	0.87553	-0.198
Mof_C 	C 	0.57863	0.08154	0.17191	-0.173
Mof_C 	C 	0.25963	0.87714	0.46114	-0.172
Mof_C 	C 	0.82747	0.92906	0.55966	0.17
Mof_C 	C 	0.50027	0.87886	0.36018	-0.166
Mof_C 	C 	0.08593	0.20114	0.40113	-0.105
Mof_C 	C 	0.39657	0.60766	0.85768	0.12
Mof_C 	C 	0.75244	0.72566	0.70917	0.135
Mof_C 	C 	0.52839	0.13354	0.72431	0.05
Mof_C 	C 	0.39198	0.00804	0.07624	-0.017
Mof_C 	C 	0.37293	0.66754	0.88406	-0.194
Mof_C 	C 	0.37913	0.12114	0.86018	-0.166
Mof_C 	C 	0.66193	0.86646	0.22431	0.05
Mof_C 	C 	0.47681	0.95218	0.56213	-0.001
Mof_C 	C 	0.33195	0.8075	0.92333	0.07
Mof_C 	C 	0.07984	0.37896	0.03328	0.31
Mof_C 	C 	0.61621	0.03198	0.50175	-0.007
Mof_C 	C 	0.58662	0.96636	0.35536	-0.141
Mof_C 	C 	0.63106	0.96748	0.38154	-0.002
Mof_C 	C 	0.68924	0.12872	0.05758	-0.192
Mof_C 	C 	0.34525	0.0077	0.04676	-0.009
Mof_C 	C 	0.25226	0.3272	0.79772	-0.174
Mof_C 	C 	0.4781	0.27434	0.20917	0.135
Mof_C 	C 	0.27494	0.37954	0.91638	0.186
Mof_C 	C 	0.35181	0.03198	0.99825	-0.009
Mof_C 	C 	0.50961	0.00538	0.37048	0.13
Mof_C 	C 	0.41338	0.03364	0.64464	-0.141
Mof_C 	C 	0.17253	0.07094	0.44034	0.17
Mof_C 	C 	0.87604	0.55438	0.07675	-0.32
Mof_C 	C 	0.6858	0.3248	0.69178	0.107
Mof_C 	C 	0.09971	0.18678	0.9383	0.055
Mof_C 	C 	0.47542	0.04636	0.08757	-0.142
Mof_C 	C 	0.41767	0.35336	0.55185	-0.33
Mof_C 	C 	0.77103	0.64664	0.05185	-0.33
Mof_C 	C 	0.25466	0.93628	0.38389	-0.178
Mof_C 	C 	0.44828	0.12884	0.17884	-0.17
Mof_C 	C 	0.11805	0.0791	0.42076	-0.196
Mof_C 	C 	0.38566	0.6416	0.56358	-0.289
Mof_C 	C 	0.24497	0.33686	0.29945	-0.192
Mof_C 	C 	0.81796	0.87128	0.55758	-0.192
Mof_C 	C 	0.3142	0.6752	0.30822	0.107
Mof_C 	C 	0.9894	0.3248	0.80822	0.107
Mof_C 	C 	0.40355	0.3999	0.218	0.104
Mof_C 	C 	0.896	0.58508	0.94521	-0.31
Mof_C 	C 	0.84796	0.87188	0.13876	0.051
Mof_C 	C 	0.62249	0.32102	0.62447	-0.198
Mof_C 	C 	0.64144	0.52978	0.38971	0.183
Mof_C 	C 	0.57101	0.95218	0.93787	-0.001
Mof_C 	C 	0.3022	0.2042	0.30591	-0.093
Mof_C 	C 	0.68826	0.97068	0.03056	-0.134
Mof_C 	C 	0.40002	0.99196	0.57624	-0.016
Mof_C 	C 	0.69315	0.80572	0.19599	-0.083
Mof_C 	C 	0.49039	0.99462	0.62952	0.13
Mof_C 	C 	0.95559	0.73082	0.62381	0.139
Mof_C 	C 	0.60802	0.99196	0.92376	-0.017
Mof_C 	C 	0.4588	0.62104	0.53328	0.311
Mof_C 	C 	0.18246	0.06048	0.93391	0.158
Mof_C 	C 	0.47283	0.93894	0.33055	0.149
Mof_C 	C 	0.42288	0.12884	0.32116	-0.17
Mof_C 	C 	0.5064	0.7958	0.80591	-0.093
Mof_C 	C 	0.19715	0.9209	0.92076	-0.196
Mof_C 	C 	0.6978	0.7958	0.69409	-0.093
Mof_C 	C 	0.56706	0.41204	0.36453	-0.211
Mof_C 	C 	0.74774	0.6728	0.20228	-0.174
Mof_C 	C 	0.28707	0.79886	0.90113	-0.105
Mof_C 	C 	0.52458	0.95364	0.91243	-0.142
Mof_C 	C 	0.48076	0.728	0.25904	-0.181
Mof_C 	C 	0.45926	0.38716	0.54869	0.329
Mof_C 	C 	0.19655	0.3999	0.282	0.104
Mof_C 	C 	0.92529	0.56994	0.89503	0.181
Mof_C 	C 	0.73648	0.00084	0.51096	0.126
Mof_C 	C 	0.72452	0.98136	0.43413	-0.008
Mof_C 	C 	0.55172	0.87116	0.82116	-0.17
Mof_C 	C 	0.71188	0.85284	0.68477	0.052
Mof_C 	C 	0.52081	0.07098	0.16903	0.153
Mof_C 	C 	0.24347	0.92906	0.94034	0.17
Mof_C 	C 	0.31076	0.87128	0.94242	-0.192
Mof_C 	C 	0.5196	0.28026	0.23509	-0.191
Mof_C 	C 	0.44702	0.96636	0.14464	-0.142
Mof_C 	C 	0.51924	0.272	0.74096	-0.181
Mof_C 	C 	0.68561	0.56136	0.38653	-0.215
Mof_C 	C 	0.50477	0.56994	0.60497	0.182
Mof_C 	C 	0.76335	0.5341	0.35213	0.352
Mof_C 	C 	0.26352	0.99916	0.48904	0.126
Mof_C 	C 	0.51499	0.99462	0.87048	0.131
Mof_C 	C 	0.62699	0.37474	0.38575	0.161
Mof_C 	C 	0.82878	0.52978	0.11029	0.183
Mof_C 	C 	0.58233	0.64664	0.44815	-0.33
Mof_C 	C 	0.19094	0.06372	0.88389	-0.178
Mof_C 	C 	0.66017	0.91846	0.67191	-0.173
Mof_C 	C 	0.78097	0.14326	0.09891	0.069
Mof_C 	C 	0.75503	0.66314	0.70055	-0.192
Mof_C 	C 	0.79395	0.60884	0.22072	0.104
Mof_C 	C 	0.99827	0.37474	0.11425	0.159
Mof_C 	C 	0.47919	0.92902	0.83097	0.153
Mof_C 	C 	0.65475	0.9923	0.95324	-0.009
Mof_C 	C 	0.64705	0.0077	0.45324	-0.011
Mof_C 	C 	0.22897	0.35336	0.94815	-0.33
Mof_C 	C 	0.59998	0.00804	0.42376	-0.016
Mof_C 	C 	0.5202	0.73528	0.287	0.126
Mof_C 	C 	0.99577	0.60766	0.64232	0.12
Mof_C 	C 	0.88195	0.9209	0.57924	-0.196
Mof_C 	C 	0.4804	0.71974	0.76491	-0.191
Mof_C 	C 	0.36894	0.03252	0.61846	-0.002
Mof_C 	C 	0.5021	0.66214	0.24297	0.113
Mof_C 	C 	0.71293	0.20114	0.09887	-0.105
Mof_C 	C 	0.74679	0.02222	0.96281	-0.135
Mof_C 	C 	0.5412	0.37896	0.46672	0.311
Mof_C 	C 	0.52178	0.95364	0.58757	-0.142
Mof_C 	C 	0.6103	0.93162	0.21146	-0.173
Mof_C 	C 	0.43528	0.85284	0.81523	0.052
Mof_C 	C 	0.74534	0.06372	0.61611	-0.178
Mof_C 	C 	0.80345	0.6001	0.718	0.104
Mof_C 	C 	0.35295	0.9923	0.54676	-0.011
Mof_C 	C 	0.37028	0.19404	0.31	0.053
Mof_C 	C 	0.59721	0.60884	0.27928	0.104
Mof_C 	C 	0.20605	0.39116	0.77928	0.104
Mof_C 	C 	0.68641	0.26918	0.12381	0.14
Mof_C 	C 	0.71351	0.18678	0.5617	0.055
Mof_C 	C 	0.93681	0.74238	0.13536	0.141
Mof_C 	C 	0.69021	0.33338	0.18383	0.111
Mof_C 	C 	0.28302	0.72896	0.84006	-0.189
Mof_C 	C 	0.30685	0.19428	0.80401	-0.083
Mof_C 	C 	0.49887	0.19428	0.69599	-0.083
Mof_C 	C 	0.42036	0.56454	0.68838	0.347
Mof_C 	C 	0.25321	0.97778	0.03719	-0.135
Mof_C 	C 	0.98802	0.72896	0.65994	-0.188
Mof_C 	C 	0.711	0.2608	0.6698	-0.194
Mof_C 	C 	0.62707	0.33246	0.11594	-0.194
Mof_C 	C 	0.95953	0.66754	0.61594	-0.194
Mof_C 	C 	0.50113	0.80572	0.30401	-0.083
Mof_C 	C 	0.67097	0.81382	0.1539	0.047
Mof_C 	C 	0.31439	0.43864	0.61347	-0.215
Mof_C 	C 	0.40821	0.07098	0.33097	0.153
Mof_C 	C 	0.92423	0.85674	0.59891	0.069
Mof_C 	C 	0.48479	0.18618	0.6539	0.047
Mof_C 	C 	0.59645	0.6001	0.782	0.104
Mof_C 	C 	0.00173	0.62526	0.88575	0.159
Mof_C 	C 	0.54192	0.06838	0.71146	-0.173
Mof_C 	C 	0.43042	0.44562	0.57675	-0.32
Mof_C 	C 	0.70255	0.5341	0.14787	0.352
Mof_C 	C 	0.74452	0.73528	0.213	0.126
Mof_C 	C 	0.54074	0.61284	0.45131	0.329
Mof_C 	C 	0.0209	0.41204	0.13547	-0.21
Mof_C 	C 	0.29504	0.80972	0.38923	-0.094
Mof_C 	C 	0.30979	0.66662	0.81617	0.111
Mof_C 	C 	0.5007	0.34568	0.25111	0.109
Mof_C 	C 	0.51892	0.58508	0.55479	-0.311
Mof_C 	C 	0.31359	0.73082	0.87619	0.14
Mof_C 	C 	0.21903	0.85674	0.90109	0.069
Mof_C 	C 	0.32081	0.74238	0.36464	0.141
Mof_C 	C 	0.66805	0.1925	0.07667	0.07
Mof_C 	C 	0.75653	0.07094	0.05966	0.17
Mof_C 	C 	0.04047	0.33246	0.38406	-0.194
Mof_C 	C 	0.40048	0.61764	0.35131	0.118
Mof_C 	C 	0.58823	0.93894	0.16945	0.149
Mof_C 	C 	0.71984	0.12812	0.63876	0.051
Mof_C 	C 	0.42899	0.04782	0.06213	-0.001
Mof_C 	C 	0.41177	0.06106	0.83055	0.149
Mof_C 	C 	0.65448	0.62046	0.41638	0.186
Mof_C 	C 	0.48108	0.41492	0.44521	-0.311
Mof_C 	C 	0.49523	0.43006	0.39503	0.182
Mof_C 	C 	0.15204	0.12812	0.86124	0.051
Mof_C 	C 	0.07577	0.14326	0.40109	0.069
Mof_C 	C 	0.84642	0.61284	0.04869	0.329
Mof_C 	C 	0.0106	0.6752	0.19178	0.107
Mof_C 	C 	0.31174	0.02932	0.96944	-0.134
Mof_C 	C 	0.40146	0.96748	0.11846	-0.002
Mof_C 	C 	0.73732	0.99916	0.01096	0.125
Mof_C 	C 	0.27548	0.01864	0.56587	-0.008
Mof_C 	C 	0.12396	0.44562	0.92325	-0.32
Mof_C 	C 	0.90029	0.81322	0.0617	0.055
Mof_C 	C 	0.17122	0.47022	0.88971	0.183
Mof_C 	C 	0.79124	0.728	0.24096	-0.181
Mof_C 	C 	0.13677	0.12286	0.96114	-0.172
Mof_C 	C 	0.56958	0.55438	0.42325	-0.32
Mof_C 	C 	0.02359	0.66662	0.68383	0.111
Mof_C 	C 	0.16424	0.33786	0.74297	0.113
Mof_C 	C 	0.01198	0.27104	0.34006	-0.188
Mof_C 	C 	0.24756	0.27434	0.29083	0.135
Mof_C 	C 	0.02726	0.3584	0.06358	-0.288
Mof_C 	C 	0.47822	0.04636	0.41243	-0.142
Mof_C 	C 	0.79986	0.71974	0.73509	-0.191
Mof_C 	C 	0.40279	0.39116	0.72072	0.104
Mof_C 	C 	0.23099	0.02222	0.53719	-0.136
Mof_C 	C 	0.62087	0.87886	0.13982	-0.166
Mof_C 	C 	0.47161	0.86646	0.27569	0.05
Mof_C 	C 	0.94351	0.67898	0.12447	-0.198
Mof_C 	C 	0.00423	0.39234	0.35768	0.12
Mof_C 	C 	0.33983	0.08154	0.32809	-0.173
Mof_C 	C 	0.58183	0.66314	0.79945	-0.192
Mof_C 	C 	0.41817	0.33686	0.20055	-0.192
Mof_C 	C 	0.24294	0.93952	0.43391	0.158
Mof_C 	C 	0.86323	0.87714	0.03886	-0.172
Mof_C 	C 	0.32903	0.18618	0.8461	0.047
Mof_C 	C 	0.81754	0.93952	0.06609	0.158
Mof_C 	C 	0.70588	0.01864	0.93413	-0.01
Mof_C 	C 	0.56472	0.14716	0.18477	0.052
Mof_C 	C 	0.89524	0.80972	0.11077	-0.094
Mof_C 	C 	0.37301	0.62526	0.61425	0.161
Mof_C 	C 	0.24697	0.43864	0.88653	-0.215
Mof_C 	C 	0.9849	0.43546	0.18838	0.346
Mof_C 	C 	0.75303	0.56136	0.11347	-0.215
Mof_C 	C 	0.38379	0.96802	0.49825	-0.007
Mof_C 	C 	0.48501	0.00538	0.12952	0.131
Mof_C 	C 	0.84638	0.65432	0.75111	0.109
Mof_C 	C 	0.52319	0.04782	0.43787	-0.001
Mof_C 	C 	0.97641	0.33338	0.31617	0.111
Mof_C 	C 	0.33807	0.13354	0.77569	0.05
Mof_C 	C 	0.35856	0.47022	0.61029	0.183
Mof_C 	C 	0.62972	0.80596	0.69	0.053
Mof_C 	C 	0.28812	0.14716	0.31523	0.052
Mof_C 	C 	0.13945	0.1925	0.42333	0.07
Mof_C 	C 	0.104	0.41492	0.05479	-0.31
Mof_C 	C 	0.289	0.7392	0.3302	-0.194
Mof_C 	C 	0.43294	0.58796	0.63547	-0.211
Mof_C 	C 	0.80285	0.0791	0.07924	-0.196
Mof_C 	C 	0.4798	0.26472	0.713	0.126
Mof_N 	N 	0.46301	0.0049	0.34366	-0.18
Mof_N 	N 	0.78079	0.99712	0.54192	-0.182
Mof_N 	N 	0.36861	0.61496	0.31903	-0.178
Mof_N 	N 	0.63139	0.38504	0.68097	-0.178
Mof_N 	N 	0.21921	0.00288	0.45808	-0.182
Mof_N 	N 	0.01643	0.61496	0.18097	-0.177
Mof_N 	N 	0.1503	0.40588	0.25685	-0.177
Mof_N 	N 	0.55896	0.60262	0.25309	-0.162
Mof_N 	N 	0.36427	0.60518	0.82596	-0.169
Mof_N 	N 	0.83842	0.60262	0.24691	-0.162
Mof_N 	N 	0.03055	0.60518	0.67404	-0.169
Mof_N 	N 	0.8497	0.59412	0.74315	-0.177
Mof_N 	N 	0.53209	0.0049	0.15634	-0.18
Mof_N 	N 	0.77791	0.00288	0.04192	-0.182
Mof_N 	N 	0.22209	0.99712	0.95808	-0.182
Mof_N 	N 	0.44104	0.39738	0.74691	-0.162
Mof_N 	N 	0.63573	0.39482	0.17404	-0.169
Mof_N 	N 	0.98357	0.38504	0.81903	-0.177
Mof_N 	N 	0.16158	0.39738	0.75309	-0.162
Mof_N 	N 	0.44382	0.40588	0.24315	-0.177
Mof_N 	N 	0.53699	0.9951	0.65634	-0.18
Mof_N 	N 	0.55618	0.59412	0.75685	-0.177
Mof_N 	N 	0.46791	0.9951	0.84366	-0.18
Mof_N 	N 	0.96945	0.39482	0.32596	-0.169
Mof_O 	O 	0.72386	0.49136	0.18154	-0.27
Mof_O 	O 	0.21522	0.50864	0.68154	-0.27
Mof_O 	O 	0.36164	0.44444	0.85758	-0.29
Mof_O 	O 	0.01002	0.46582	0.20688	-0.318
Mof_O 	O 	0.27614	0.50864	0.81846	-0.27
Mof_O 	O 	0.98998	0.53418	0.79312	-0.318
Mof_O 	O 	0.92908	0.42706	0.21438	-0.272
Mof_O 	O 	0.46643	0.63874	0.48363	-0.326
Mof_O 	O 	0.89483	0.63874	0.01637	-0.326
Mof_O 	O 	0.53357	0.36126	0.51637	-0.326
Mof_O 	O 	0.63836	0.55556	0.14242	-0.29
Mof_O 	O 	0.10517	0.36126	0.98363	-0.326
Mof_O 	O 	0.80608	0.55556	0.35758	-0.29
Mof_O 	O 	0.19392	0.44444	0.64242	-0.29
Mof_O 	O 	0.52416	0.46582	0.29312	-0.318
Mof_O 	O 	0.35614	0.57294	0.71438	-0.273
Mof_O 	O 	0.47584	0.53418	0.70688	-0.318
Mof_O 	O 	0.78478	0.49136	0.31846	-0.27
Mof_O 	O 	0.64386	0.42706	0.28562	-0.273
Mof_O 	O 	0.07092	0.57294	0.78562	-0.272
_end
