# CIF file generated by openbabel 3.1.0, see https://openbabel.org
data_I
_chemical_name_common 'image0'
_cell_length_a 12.429
_cell_length_b 12.712
_cell_length_c 15.821
_cell_angle_alpha 98.159
_cell_angle_beta 92.873
_cell_angle_gamma 93.267
_space_group_name_H-M_alt 'P 1'
_space_group_name_Hall 'P 1'
loop_
    _symmetry_equiv_pos_as_xyz
    x,y,z
loop_
    _atom_site_label
    _atom_site_type_symbol
    _atom_site_fract_x
    _atom_site_fract_y
    _atom_site_fract_z
    _atom_site_occupancy
    Cu1      Cu       0.92623    0.07248    0.50629    1.000
    Cu2      Cu       0.84902    0.35586    0.07176    1.000
    Cu3      Cu       0.06662    0.50910    0.07950    1.000
    Cu4      Cu       0.46409    0.41177    0.06711    1.000
    O1       O        0.01650    0.12380    0.42080    1.000
    O2       O        0.14770    0.00740    0.41180    1.000
    O3       O        0.96020    0.31440    0.15820    1.000
    O4       O        0.11460    0.40150    0.14400    1.000
    O5       O        0.74260    0.28730    0.13600    1.000
    O6       O        0.61170    0.39100    0.10710    1.000
    O7       O        0.43710    0.35790    0.30890    1.000
    O8       O        0.42250    0.41820    0.18320    1.000
    O9       O        0.80560    0.52370    0.09460    1.000
    O10      O        0.95680    0.58070    0.17360    1.000
    O11      O        0.96670    0.86700    0.40180    1.000
    O12      O        0.83720    0.98600    0.41280    1.000
    O13      O        0.19510    0.59960    0.13250    1.000
    O14      O        0.25170    0.69560    0.03210    1.000
    O15      O        0.48790    0.59510    0.05080    1.000
    O16      O        0.52750    0.76580    0.04230    1.000
    O17      O        0.96470    0.40080    0.00680    1.000
    H1       H        0.00330    0.33950    0.98260    1.000
    C1       C        0.09880    0.08550    0.38780    1.000
    C2       C        0.14310    0.13270    0.31700    1.000
    C3       C        0.24540    0.11220    0.28910    1.000
    H2       H        0.28480    0.06220    0.31260    1.000
    C4       C        0.29070    0.16640    0.22530    1.000
    C5       C        0.22770    0.23380    0.18760    1.000
    H3       H        0.25570    0.26890    0.14500    1.000
    C6       C        0.12130    0.25170    0.21160    1.000
    C7       C        0.08080    0.20560    0.27910    1.000
    H4       H        0.01390    0.22240    0.29910    1.000
    C8       C        0.05760    0.32850    0.16660    1.000
    C9       C        0.39730    0.14500    0.19180    1.000
    C10      C        0.46920    0.23240    0.18440    1.000
    C11      C        0.56720    0.21710    0.14580    1.000
    C12      C        0.59030    0.11250    0.11330    1.000
    H5       H        0.65250    0.09920    0.08420    1.000
    C13      C        0.51770    0.02910    0.12590    1.000
    H6       H        0.53460    0.95940    0.10770    1.000
    C14      C        0.42160    0.04610    0.16430    1.000
    H7       H        0.37440    0.98880    0.17080    1.000
    C15      C        0.44270    0.34220    0.22880    1.000
    C16      C        0.64170    0.30280    0.12600    1.000
    C17      C        0.85750    0.58430    0.15360    1.000
    C18      C        0.80170    0.67480    0.20250    1.000
    C19      C        0.68880    0.67950    0.19480    1.000
    H8       H        0.64730    0.62640    0.15900    1.000
    C20      C        0.63870    0.76290    0.24030    1.000
    C21      C        0.70000    0.83760    0.29610    1.000
    H9       H        0.66670    0.89460    0.32510    1.000
    C22      C        0.81220    0.83100    0.31090    1.000
    C23      C        0.86010    0.74910    0.26240    1.000
    H10      H        0.93410    0.74380    0.27030    1.000
    C24      C        0.87690    0.90330    0.38060    1.000
    C25      C        0.51770    0.76810    0.23860    1.000
    C26      C        0.44720    0.72710    0.16680    1.000
    C27      C        0.33350    0.72500    0.17770    1.000
    C28      C        0.29220    0.77120    0.24960    1.000
    H11      H        0.21790    0.77410    0.25280    1.000
    C29      C        0.36000    0.81370    0.31770    1.000
    H12      H        0.33160    0.84260    0.36850    1.000
    C30      C        0.47100    0.81410    0.31210    1.000
    H13      H        0.51570    0.84600    0.35880    1.000
    C31      C        0.25240    0.66710    0.10770    1.000
    C32      C        0.49080    0.69520    0.08100    1.000
    Cu5      Cu       0.07377    0.92752    0.49371    1.000
    Cu6      Cu       0.15098    0.64414    0.92824    1.000
    Cu7      Cu       0.93338    0.49090    0.92050    1.000
    Cu8      Cu       0.53591    0.58823    0.93289    1.000
    O18      O        0.98350    0.87620    0.57920    1.000
    O19      O        0.85230    0.99260    0.58820    1.000
    O20      O        0.03980    0.68560    0.84180    1.000
    O21      O        0.88540    0.59850    0.85600    1.000
    O22      O        0.25740    0.71270    0.86400    1.000
    O23      O        0.38830    0.60900    0.89290    1.000
    O24      O        0.56290    0.64210    0.69110    1.000
    O25      O        0.57750    0.58180    0.81680    1.000
    O26      O        0.19440    0.47630    0.90540    1.000
    O27      O        0.04320    0.41930    0.82640    1.000
    O28      O        0.03330    0.13300    0.59820    1.000
    O29      O        0.16280    0.01400    0.58720    1.000
    O30      O        0.80490    0.40040    0.86750    1.000
    O31      O        0.74830    0.30440    0.96790    1.000
    O32      O        0.51210    0.40490    0.94920    1.000
    O33      O        0.47250    0.23420    0.95770    1.000
    O34      O        0.03530    0.59920    0.99320    1.000
    H14      H        0.99670    0.66050    0.01740    1.000
    C33      C        0.90120    0.91450    0.61220    1.000
    C34      C        0.85690    0.86730    0.68300    1.000
    C35      C        0.75460    0.88780    0.71090    1.000
    H15      H        0.71520    0.93780    0.68740    1.000
    C36      C        0.70930    0.83360    0.77470    1.000
    C37      C        0.77230    0.76620    0.81240    1.000
    H16      H        0.74430    0.73110    0.85500    1.000
    C38      C        0.87870    0.74830    0.78840    1.000
    C39      C        0.91920    0.79440    0.72090    1.000
    H17      H        0.98610    0.77760    0.70090    1.000
    C40      C        0.94240    0.67150    0.83340    1.000
    C41      C        0.60270    0.85500    0.80820    1.000
    C42      C        0.53080    0.76760    0.81560    1.000
    C43      C        0.43280    0.78290    0.85420    1.000
    C44      C        0.40970    0.88750    0.88670    1.000
    H18      H        0.34750    0.90080    0.91580    1.000
    C45      C        0.48230    0.97090    0.87410    1.000
    H19      H        0.46540    0.04060    0.89230    1.000
    C46      C        0.57840    0.95390    0.83570    1.000
    H20      H        0.62560    0.01120    0.82920    1.000
    C47      C        0.55730    0.65780    0.77120    1.000
    C48      C        0.35830    0.69720    0.87400    1.000
    C49      C        0.14250    0.41570    0.84640    1.000
    C50      C        0.19830    0.32520    0.79750    1.000
    C51      C        0.31120    0.32050    0.80520    1.000
    H21      H        0.35270    0.37360    0.84100    1.000
    C52      C        0.36130    0.23710    0.75970    1.000
    C53      C        0.30000    0.16240    0.70390    1.000
    H22      H        0.33330    0.10540    0.67490    1.000
    C54      C        0.18780    0.16900    0.68910    1.000
    C55      C        0.13990    0.25090    0.73760    1.000
    H23      H        0.06590    0.25620    0.72970    1.000
    C56      C        0.12310    0.09670    0.61940    1.000
    C57      C        0.48230    0.23190    0.76140    1.000
    C58      C        0.55280    0.27290    0.83320    1.000
    C59      C        0.66650    0.27500    0.82230    1.000
    C60      C        0.70780    0.22880    0.75040    1.000
    H24      H        0.78210    0.22590    0.74720    1.000
    C61      C        0.64000    0.18630    0.68230    1.000
    H25      H        0.66840    0.15740    0.63150    1.000
    C62      C        0.52900    0.18590    0.68790    1.000
    H26      H        0.48430    0.15400    0.64120    1.000
    C63      C        0.74760    0.33290    0.89230    1.000
    C64      C        0.50920    0.30480    0.91900    1.000
