data_functionalizedCrystal
_audit_creation_method	'EQeq! by Chris Wilmer'
_symmetry_space_group_name_H-M	'P1'
_symmetry_Int_Tables_number	1
_symmetry_cell_setting	triclinic
loop_
_symmetry_equiv_pos_as_xyz
  x,y,z
_cell_length_a	15.6825
_cell_length_b	39.503
_cell_length_c	17.2763
_cell_angle_alpha	90
_cell_angle_beta	93.791
_cell_angle_gamma	90
loop_
_atom_site_label
_atom_site_type_symbol
_atom_site_fract_x
_atom_site_fract_y
_atom_site_fract_z
_atom_site_charge
Mof_Mo	Mo	0.7925	0.58429	0.97951	1.182
Mof_Mo	Mo	0.83229	0.62991	0.08517	1.17
Mof_O 	O 	0.7444	0.6288	0.0014	-0.696
Mof_O 	O 	0.6961	0.5796	0.8917	-0.405
Mof_O 	O 	0.8541	0.5815	0.0805	-0.715
Mof_O 	O 	0.8031	0.532	0.9669	-0.397
Mof_O 	O 	0.6862	0.5679	0.0472	-0.332
Mof_O 	O 	0.7136	0.6091	0.1571	-0.413
Mof_O 	O 	0.8848	0.6293	0.1946	-0.462
Mof_O 	O 	0.782	0.676	0.115	-0.422
Mof_Co	Co	0.64095	0.6573	0.9713	1.149
Mof_P 	P 	0.644	0.60042	0.8322	0.607
Mof_Co	Co	0.88027	0.54585	0.16409	1.141
Mof_P 	P 	0.8509	0.50114	0.9993	0.592
Mof_P 	P 	0.6861	0.57171	0.135	0.497
Mof_Mo	Mo	0.65877	0.63032	0.27394	1.195
Mof_P 	P 	0.8693	0.61428	0.2743	0.605
Mof_P 	P 	0.6938	0.68736	0.1394	0.587
Mof_O 	O 	0.6043	0.6316	0.8697	-0.532
Mof_O 	O 	0.6233	0.6744	0.0847	-0.589
Mof_O 	O 	0.5431	0.6881	0.9294	-0.568
Mof_N 	N 	0.227	0.8067	0.4238	-0.236
Mof_O 	O 	0.5794	0.5781	0.7902	-0.414
Mof_O 	O 	0.7055	0.6143	0.7713	-0.493
Mof_O 	O 	0.8743	0.5047	0.0878	-0.566
Mof_O 	O 	0.744	0.5432	0.178	-0.491
Mof_O 	O 	0.9291	0.5052	0.2333	-0.585
Mof_O 	O 	0.8612	0.5751	0.2677	-0.528
Mof_O 	O 	0.7933	0.4712	0.9822	-0.396
Mof_O 	O 	0.9341	0.4961	0.9584	-0.482
Mof_O 	O 	0.5918	0.5672	0.1514	-0.333
Mof_O 	O 	0.7866	0.6285	0.3053	-0.447
Mof_Mo	Mo	0.536	0.58621	0.25648	1.205
Mof_O 	O 	0.6545	0.5828	0.2988	-0.714
Mof_O 	O 	0.5542	0.6306	0.2093	-0.702
Mof_O 	O 	0.6858	0.6765	0.2244	-0.413
Mof_O 	O 	0.9429	0.6224	0.3317	-0.493
Mof_O 	O 	0.6889	0.7272	0.1368	-0.426
Mof_Co	Co	0.48335	0.65662	0.8465	1.16
Mof_Co	Co	0.5046	0.65829	0.1182	1.147
Mof_P 	P 	0.4963	0.71258	0.9834	0.564
Mof_Mo	Mo	0.46323	0.5783	0.72573	1.236
Mof_H 	H 	0.7279	0.5984	0.75	0.261
Mof_Co	Co	0.87795	0.46583	0.17013	1.121
Mof_Co	Co	0.7497	0.54654	0.3092	1.128
Mof_P 	P 	0.9276	0.50537	0.3232	0.554
Mof_Mo	Mo	0.79235	0.41869	0.99732	1.203
Mof_O 	O 	0.5234	0.5349	0.2704	-0.406
Mof_O 	O 	0.4279	0.5814	0.1829	-0.387
Mof_H 	H 	0.948	0.643	0.3358	0.286
Mof_H 	H 	0.6498	0.7331	0.1059	0.235
Mof_O 	O 	0.444	0.625	0.7593	-0.695
Mof_O 	O 	0.419	0.6215	0.925	-0.485
Mof_O 	O 	0.3596	0.6809	0.8734	-0.522
Mof_N 	N 	0.5314	0.6903	0.7639	-0.243
Mof_O 	O 	0.3879	0.6337	0.1015	-0.542
Mof_O 	O 	0.4458	0.6897	0.0334	-0.57
Mof_N 	N 	0.4599	0.6934	0.201	-0.237
Mof_O 	O 	0.4346	0.7354	0.9314	-0.449
Mof_O 	O 	0.5546	0.7371	0.0296	-0.434
Mof_O 	O 	0.4737	0.5264	0.7244	-0.403
Mof_Mo	Mo	0.33502	0.61974	0.70052	1.174
Mof_O 	O 	0.4201	0.568	0.8383	-0.354
Mof_O 	O 	0.3428	0.5705	0.6932	-0.69
Mof_O 	O 	0.85	0.4259	0.0981	-0.73
Mof_O 	O 	0.8444	0.4394	0.2689	-0.594
Mof_O 	O 	0.8326	0.5067	0.3416	-0.578
Mof_O 	O 	0.659	0.5054	0.3202	-0.565
Mof_O 	O 	0.9791	0.4768	0.3607	-0.445
Mof_O 	O 	0.9739	0.5376	0.356	-0.45
Mof_Mo	Mo	0.83685	0.37753	0.11124	1.165
Mof_O 	O 	0.754	0.3726	0.0242	-0.691
Mof_O 	O 	0.7049	0.4194	0.9059	-0.411
Mof_O 	O 	0.6774	0.4317	0.0569	-0.33
Mof_P 	P 	0.5619	0.50466	0.3151	0.613
Mof_P 	P 	0.3546	0.60323	0.1456	0.6
Mof_Co	Co	0.34786	0.65816	0.992	1.16
Mof_P 	P 	0.3645	0.59143	0.8824	0.498
Mof_P 	P 	0.2838	0.68386	0.8146	0.608
Mof_C 	C 	0.5739	0.6804	0.7056	0.118
Mof_C 	C 	0.536	0.7245	0.776	0.076
Mof_C 	C 	0.4168	0.6841	0.2626	0.112
Mof_C 	C 	0.459	0.7273	0.188	0.073
Mof_H 	H 	0.4014	0.7234	0.905	0.264
Mof_H 	H 	0.5895	0.7265	0.0574	0.21
Mof_O 	O 	0.3028	0.6664	0.738	-0.439
Mof_O 	O 	0.2906	0.6062	0.8265	-0.42
Mof_O 	O 	0.2048	0.6149	0.669	-0.407
Mof_Co	Co	0.2527	0.53346	0.68283	1.143
Mof_P 	P 	0.869	0.40319	0.2935	0.591
Mof_H 	H 	0.9577	0.4586	0.3469	0.215
Mof_H 	H 	0.9504	0.5545	0.3369	0.268
Mof_O 	O 	0.7943	0.3319	0.1495	-0.426
Mof_O 	O 	0.8935	0.3833	0.2216	-0.43
Mof_O 	O 	0.5292	0.5037	0.3985	-0.486
Mof_O 	O 	0.3045	0.6175	0.2116	-0.49
Mof_N 	N 	0.7633	0.8059	0.539	-0.23
Mof_O 	O 	0.2657	0.7213	0.7994	-0.459
Mof_C 	C 	0.623	0.701	0.6635	-0.168
Mof_H 	H 	0.5701	0.6576	0.6916	-0.04
Mof_H 	H 	0.5078	0.7337	0.8165	0.013
Mof_C 	C 	0.579	0.7455	0.7316	-0.146
Mof_H 	H 	0.4161	0.6612	0.2749	-0.036
Mof_C 	C 	0.3763	0.7044	0.306	-0.175
Mof_C 	C 	0.4159	0.7514	0.2302	-0.131
Mof_H 	H 	0.4901	0.7352	0.147	0.02
Mof_N 	N 	0.245	0.5434	0.5625	-0.239
Mof_O 	O 	0.9446	0.4028	0.3537	-0.452
Mof_H 	H 	0.5517	0.519	0.4245	0.242
Mof_H 	H 	0.2649	0.6292	0.1933	0.254
Mof_H 	H 	0.3069	0.73	0.7804	0.274
Mof_C 	C 	0.6271	0.7351	0.6745	0.079
Mof_H 	H 	0.6557	0.6913	0.626	0.079
Mof_H 	H 	0.5746	0.7686	0.7407	0.08
Mof_C 	C 	0.3714	0.7386	0.2907	0.068
Mof_H 	H 	0.35	0.6958	0.3484	0.081
Mof_H 	H 	0.417	0.7744	0.2187	0.083
Mof_C 	C 	0.3193	0.5463	0.5271	0.079
Mof_C 	C 	0.1746	0.5345	0.5185	0.083
Mof_H 	H 	0.9615	0.4222	0.3617	0.243
Mof_C 	C 	0.673	0.7596	0.6281	0.038
Mof_C 	C 	0.3252	0.7621	0.3388	0.055
Mof_H 	H 	0.369	0.5526	0.5559	-0.037
Mof_C 	C 	0.322	0.54	0.4471	-0.158
Mof_C 	C 	0.1757	0.5273	0.4395	-0.154
Mof_H 	H 	0.1229	0.533	0.5418	0.017
Mof_C 	C 	0.664	0.7944	0.6399	-0.137
Mof_C 	C 	0.726	0.7479	0.574	-0.111
Mof_C 	C 	0.3356	0.7968	0.334	-0.148
Mof_C 	C 	0.2637	0.751	0.386	-0.134
Mof_C 	C 	0.2537	0.5289	0.4026	0.087
Mof_H 	H 	0.373	0.5436	0.4239	0.077
Mof_H 	H 	0.1254	0.5214	0.4111	0.123
Mof_C 	C 	0.709	0.816	0.5896	0.076
Mof_H 	H 	0.6311	0.8031	0.6781	0.064
Mof_C 	C 	0.7671	0.7725	0.526	0.059
Mof_H 	H 	0.7347	0.7248	0.568	0.068
Mof_C 	C 	0.2874	0.818	0.3799	0.089
Mof_H 	H 	0.3739	0.806	0.3011	0.075
Mof_C 	C 	0.2169	0.7741	0.428	0.086
Mof_H 	H 	0.2531	0.7279	0.3901	0.077
Mof_H 	H 	0.6994	0.8392	0.5929	-0.048
Mof_H 	H 	0.7974	0.7647	0.4856	0.023
Mof_H 	H 	0.2984	0.8411	0.3794	-0.04
Mof_H 	H 	0.1768	0.7657	0.4602	0.008
Mof_H 	H 	0.9752	0.4991	0.9896	0.181
Mof_Mo	Mo	0.7075	0.08429	0.52049	1.185
Mof_Mo	Mo	0.66771	0.12991	0.41483	1.171
Mof_O 	O 	0.7556	0.1288	0.4986	-0.696
Mof_O 	O 	0.8039	0.0796	0.6083	-0.404
Mof_O 	O 	0.6459	0.0815	0.4195	-0.715
Mof_O 	O 	0.6969	0.032	0.5331	-0.396
Mof_O 	O 	0.8138	0.0679	0.4528	-0.332
Mof_O 	O 	0.7864	0.1091	0.3429	-0.413
Mof_O 	O 	0.6152	0.1293	0.3054	-0.462
Mof_O 	O 	0.718	0.176	0.385	-0.422
Mof_Co	Co	0.85905	0.1573	0.5287	1.149
Mof_P 	P 	0.856	0.10042	0.6678	0.607
Mof_Co	Co	0.61973	0.04585	0.33591	1.141
Mof_P 	P 	0.6491	0.00114	0.5007	0.591
Mof_P 	P 	0.8139	0.07171	0.365	0.497
Mof_Mo	Mo	0.84123	0.13032	0.22606	1.195
Mof_P 	P 	0.6307	0.11428	0.2257	0.605
Mof_P 	P 	0.8062	0.18736	0.3606	0.587
Mof_O 	O 	0.8957	0.1316	0.6303	-0.532
Mof_O 	O 	0.8767	0.1744	0.4153	-0.589
Mof_O 	O 	0.9569	0.1881	0.5706	-0.568
Mof_N 	N 	0.273	0.3067	0.0762	-0.237
Mof_O 	O 	0.9206	0.0781	0.7098	-0.414
Mof_O 	O 	0.7945	0.1143	0.7287	-0.493
Mof_O 	O 	0.6257	0.0047	0.4122	-0.566
Mof_O 	O 	0.756	0.0432	0.322	-0.491
Mof_O 	O 	0.5709	0.0052	0.2667	-0.585
Mof_O 	O 	0.6388	0.0751	0.2323	-0.528
Mof_O 	O 	0.7067	0.9712	0.5178	-0.396
Mof_O 	O 	0.5659	0.9961	0.5416	-0.482
Mof_O 	O 	0.9082	0.0672	0.3486	-0.333
Mof_O 	O 	0.7134	0.1285	0.1947	-0.447
Mof_Mo	Mo	0.964	0.08621	0.24352	1.206
Mof_O 	O 	0.8455	0.0828	0.2012	-0.714
Mof_O 	O 	0.9458	0.1306	0.2907	-0.702
Mof_O 	O 	0.8142	0.1765	0.2756	-0.413
Mof_O 	O 	0.5571	0.1224	0.1683	-0.493
Mof_O 	O 	0.8111	0.2272	0.3632	-0.426
Mof_Co	Co	0.01665	0.15662	0.6535	1.16
Mof_Co	Co	0.9954	0.15829	0.3818	1.147
Mof_P 	P 	0.0037	0.21258	0.5166	0.566
Mof_Mo	Mo	0.03677	0.0783	0.77427	1.236
Mof_H 	H 	0.7721	0.0984	0.75	0.261
Mof_Co	Co	0.62205	0.96583	0.32987	1.121
Mof_Co	Co	0.7503	0.04654	0.1908	1.128
Mof_P 	P 	0.5724	0.00537	0.1768	0.554
Mof_Mo	Mo	0.70765	0.91869	0.50268	1.2
Mof_O 	O 	0.9766	0.0349	0.2296	-0.406
Mof_O 	O 	0.0721	0.0814	0.3171	-0.387
Mof_H 	H 	0.552	0.143	0.1642	0.286
Mof_H 	H 	0.8502	0.2331	0.3941	0.235
Mof_O 	O 	0.056	0.125	0.7407	-0.695
Mof_O 	O 	0.081	0.1215	0.575	-0.485
Mof_O 	O 	0.1404	0.1809	0.6266	-0.522
Mof_N 	N 	0.9686	0.1903	0.7361	-0.243
Mof_O 	O 	0.1121	0.1337	0.3985	-0.542
Mof_O 	O 	0.0542	0.1897	0.4666	-0.572
Mof_N 	N 	0.0401	0.1934	0.299	-0.237
Mof_O 	O 	0.0654	0.2354	0.5686	-0.449
Mof_O 	O 	0.9454	0.2371	0.4704	-0.435
Mof_O 	O 	0.0263	0.0264	0.7756	-0.403
Mof_Mo	Mo	0.16498	0.11974	0.79948	1.175
Mof_O 	O 	0.0799	0.068	0.6617	-0.354
Mof_O 	O 	0.1572	0.0705	0.8068	-0.69
Mof_O 	O 	0.65	0.9259	0.4019	-0.729
Mof_O 	O 	0.6556	0.9394	0.2311	-0.594
Mof_O 	O 	0.6674	0.0067	0.1584	-0.578
Mof_O 	O 	0.841	0.0054	0.1798	-0.565
Mof_O 	O 	0.5209	0.9768	0.1393	-0.445
Mof_O 	O 	0.5261	0.0376	0.144	-0.45
Mof_Mo	Mo	0.66315	0.87753	0.38876	1.166
Mof_O 	O 	0.746	0.8726	0.4758	-0.69
Mof_O 	O 	0.7951	0.9194	0.5941	-0.41
Mof_O 	O 	0.8226	0.9317	0.4431	-0.329
Mof_P 	P 	0.9381	0.00466	0.1849	0.613
Mof_P 	P 	0.1454	0.10323	0.3544	0.6
Mof_Co	Co	0.15214	0.15816	0.508	1.161
Mof_P 	P 	0.1355	0.09143	0.6176	0.498
Mof_P 	P 	0.2162	0.18386	0.6854	0.608
Mof_C 	C 	0.9261	0.1804	0.7944	0.117
Mof_C 	C 	0.964	0.2245	0.724	0.076
Mof_C 	C 	0.0832	0.1841	0.2374	0.112
Mof_C 	C 	0.041	0.2273	0.312	0.073
Mof_H 	H 	0.0986	0.2234	0.595	0.264
Mof_H 	H 	0.9105	0.2265	0.4426	0.21
Mof_O 	O 	0.1972	0.1664	0.762	-0.439
Mof_O 	O 	0.2094	0.1062	0.6735	-0.42
Mof_O 	O 	0.2952	0.1149	0.831	-0.407
Mof_Co	Co	0.2473	0.03346	0.81717	1.143
Mof_P 	P 	0.631	0.90319	0.2065	0.591
Mof_H 	H 	0.5423	0.9586	0.1531	0.215
Mof_H 	H 	0.5496	0.0545	0.1631	0.268
Mof_O 	O 	0.7057	0.8319	0.3505	-0.426
Mof_O 	O 	0.6065	0.8833	0.2784	-0.43
Mof_O 	O 	0.9708	0.0037	0.1015	-0.486
Mof_O 	O 	0.1955	0.1175	0.2884	-0.49
Mof_N 	N 	0.7367	0.3059	0.961	-0.23
Mof_O 	O 	0.2343	0.2213	0.7006	-0.459
Mof_C 	C 	0.877	0.201	0.8365	-0.168
Mof_H 	H 	0.9299	0.1576	0.8084	-0.04
Mof_H 	H 	0.9922	0.2337	0.6835	0.013
Mof_C 	C 	0.921	0.2455	0.7684	-0.145
Mof_H 	H 	0.0839	0.1612	0.2251	-0.036
Mof_C 	C 	0.1237	0.2044	0.194	-0.175
Mof_C 	C 	0.0841	0.2514	0.2698	-0.131
Mof_H 	H 	0.0099	0.2352	0.353	0.019
Mof_N 	N 	0.255	0.0434	0.9375	-0.239
Mof_O 	O 	0.5554	0.9028	0.1463	-0.452
Mof_H 	H 	0.9483	0.019	0.0755	0.242
Mof_H 	H 	0.2351	0.1292	0.3067	0.254
Mof_H 	H 	0.1931	0.23	0.7196	0.274
Mof_C 	C 	0.8729	0.2351	0.8255	0.079
Mof_H 	H 	0.8443	0.1913	0.874	0.079
Mof_H 	H 	0.9254	0.2686	0.7593	0.08
Mof_C 	C 	0.1286	0.2386	0.2093	0.068
Mof_H 	H 	0.15	0.1958	0.1516	0.081
Mof_H 	H 	0.083	0.2744	0.2813	0.083
Mof_C 	C 	0.1807	0.0463	0.9729	0.08
Mof_C 	C 	0.3254	0.0345	0.9815	0.084
Mof_H 	H 	0.5385	0.9222	0.1383	0.243
Mof_C 	C 	0.827	0.2596	0.8719	0.04
Mof_C 	C 	0.1748	0.2621	0.1612	0.055
Mof_H 	H 	0.131	0.0526	0.9441	-0.037
Mof_C 	C 	0.178	0.04	0.0529	-0.159
Mof_C 	C 	0.3243	0.0273	0.0605	-0.154
Mof_H 	H 	0.3771	0.033	0.9582	0.016
Mof_C 	C 	0.836	0.2944	0.8601	-0.138
Mof_C 	C 	0.774	0.2479	0.926	-0.113
Mof_C 	C 	0.1644	0.2968	0.166	-0.148
Mof_C 	C 	0.2363	0.251	0.114	-0.134
Mof_C 	C 	0.2463	0.0289	0.0974	0.087
Mof_H 	H 	0.127	0.0436	0.0761	0.078
Mof_H 	H 	0.3746	0.0214	0.0889	0.123
Mof_C 	C 	0.791	0.316	0.9104	0.077
Mof_H 	H 	0.8689	0.3031	0.8219	0.065
Mof_C 	C 	0.7329	0.2725	0.974	0.064
Mof_H 	H 	0.7653	0.2248	0.932	0.069
Mof_C 	C 	0.2126	0.318	0.1201	0.089
Mof_H 	H 	0.1261	0.306	0.1989	0.075
Mof_C 	C 	0.2831	0.2741	0.072	0.086
Mof_H 	H 	0.2469	0.2279	0.1099	0.077
Mof_H 	H 	0.8006	0.3392	0.9071	-0.048
Mof_H 	H 	0.7026	0.2647	0.0144	0.021
Mof_H 	H 	0.2016	0.3411	0.1206	-0.04
Mof_H 	H 	0.3232	0.2657	0.0398	0.008
Mof_H 	H 	0.5248	0.9991	0.5104	0.181
Mof_Mo	Mo	0.2075	0.41571	0.02049	1.183
Mof_Mo	Mo	0.16771	0.37009	0.91483	1.171
Mof_O 	O 	0.2556	0.3712	0.9986	-0.695
Mof_O 	O 	0.3039	0.4204	0.1083	-0.404
Mof_O 	O 	0.1459	0.4185	0.9195	-0.714
Mof_O 	O 	0.1969	0.468	0.0331	-0.396
Mof_O 	O 	0.3138	0.4321	0.9528	-0.332
Mof_O 	O 	0.2864	0.3909	0.8429	-0.413
Mof_O 	O 	0.1152	0.3707	0.8054	-0.462
Mof_O 	O 	0.218	0.324	0.885	-0.422
Mof_Co	Co	0.35905	0.3427	0.0287	1.149
Mof_P 	P 	0.356	0.39958	0.1678	0.607
Mof_Co	Co	0.11973	0.45415	0.83591	1.141
Mof_P 	P 	0.1491	0.49886	0.0007	0.592
Mof_P 	P 	0.3139	0.42829	0.865	0.497
Mof_Mo	Mo	0.34123	0.36968	0.72606	1.195
Mof_P 	P 	0.1307	0.38572	0.7257	0.605
Mof_P 	P 	0.3062	0.31264	0.8606	0.587
Mof_O 	O 	0.3957	0.3684	0.1303	-0.532
Mof_O 	O 	0.3767	0.3256	0.9153	-0.589
Mof_O 	O 	0.4569	0.3119	0.0706	-0.568
Mof_N 	N 	0.773	0.1933	0.5762	-0.236
Mof_O 	O 	0.4206	0.4219	0.2098	-0.414
Mof_O 	O 	0.2945	0.3857	0.2287	-0.493
Mof_O 	O 	0.1257	0.4953	0.9122	-0.566
Mof_O 	O 	0.256	0.4568	0.822	-0.491
Mof_O 	O 	0.0709	0.4948	0.7667	-0.585
Mof_O 	O 	0.1388	0.4249	0.7323	-0.528
Mof_O 	O 	0.2067	0.5288	0.0178	-0.396
Mof_O 	O 	0.0659	0.5039	0.0416	-0.482
Mof_O 	O 	0.4082	0.4328	0.8486	-0.333
Mof_O 	O 	0.2134	0.3715	0.6947	-0.447
Mof_Mo	Mo	0.464	0.41379	0.74352	1.205
Mof_O 	O 	0.3455	0.4172	0.7012	-0.714
Mof_O 	O 	0.4458	0.3694	0.7907	-0.702
Mof_O 	O 	0.3142	0.3235	0.7756	-0.413
Mof_O 	O 	0.0571	0.3776	0.6683	-0.493
Mof_O 	O 	0.3111	0.2728	0.8632	-0.426
Mof_Co	Co	0.51665	0.34338	0.1535	1.16
Mof_Co	Co	0.4954	0.34171	0.8818	1.147
Mof_P 	P 	0.5037	0.28742	0.0166	0.564
Mof_Mo	Mo	0.53677	0.4217	0.27427	1.236
Mof_H 	H 	0.2721	0.4016	0.25	0.261
Mof_Co	Co	0.12205	0.53417	0.82987	1.121
Mof_Co	Co	0.2503	0.45346	0.6908	1.128
Mof_P 	P 	0.0724	0.49463	0.6768	0.554
Mof_Mo	Mo	0.20765	0.58131	0.00268	1.203
Mof_O 	O 	0.4766	0.4651	0.7296	-0.406
Mof_O 	O 	0.5721	0.4186	0.8171	-0.387
Mof_H 	H 	0.052	0.357	0.6642	0.286
Mof_H 	H 	0.3502	0.2669	0.8941	0.235
Mof_O 	O 	0.556	0.375	0.2407	-0.695
Mof_O 	O 	0.581	0.3785	0.075	-0.485
Mof_O 	O 	0.6404	0.3191	0.1266	-0.522
Mof_N 	N 	0.4686	0.3097	0.2361	-0.243
Mof_O 	O 	0.6121	0.3663	0.8985	-0.542
Mof_O 	O 	0.5542	0.3103	0.9666	-0.57
Mof_N 	N 	0.5401	0.3066	0.799	-0.237
Mof_O 	O 	0.5654	0.2646	0.0686	-0.449
Mof_O 	O 	0.4454	0.2629	0.9704	-0.434
Mof_O 	O 	0.5263	0.4736	0.2756	-0.403
Mof_Mo	Mo	0.66498	0.38026	0.29948	1.174
Mof_O 	O 	0.5799	0.432	0.1617	-0.354
Mof_O 	O 	0.6572	0.4295	0.3068	-0.69
Mof_O 	O 	0.15	0.5741	0.9019	-0.73
Mof_O 	O 	0.1556	0.5606	0.7311	-0.594
Mof_O 	O 	0.1674	0.4933	0.6584	-0.578
Mof_O 	O 	0.341	0.4946	0.6798	-0.565
Mof_O 	O 	0.0209	0.5232	0.6393	-0.445
Mof_O 	O 	0.0261	0.4624	0.644	-0.45
Mof_Mo	Mo	0.16315	0.62247	0.88876	1.165
Mof_O 	O 	0.246	0.6274	0.9758	-0.691
Mof_O 	O 	0.2951	0.5806	0.0941	-0.411
Mof_O 	O 	0.3226	0.5683	0.9431	-0.33
Mof_P 	P 	0.4381	0.49534	0.6849	0.613
Mof_P 	P 	0.6454	0.39677	0.8544	0.6
Mof_Co	Co	0.65214	0.34184	0.008	1.16
Mof_P 	P 	0.6355	0.40857	0.1176	0.498
Mof_P 	P 	0.7162	0.31614	0.1854	0.608
Mof_C 	C 	0.4261	0.3196	0.2944	0.118
Mof_C 	C 	0.464	0.2755	0.224	0.076
Mof_C 	C 	0.5832	0.3159	0.7374	0.112
Mof_C 	C 	0.541	0.2727	0.812	0.073
Mof_H 	H 	0.5986	0.2766	0.095	0.264
Mof_H 	H 	0.4105	0.2735	0.9426	0.21
Mof_O 	O 	0.6972	0.3336	0.262	-0.439
Mof_O 	O 	0.7094	0.3938	0.1735	-0.42
Mof_O 	O 	0.7952	0.3851	0.331	-0.407
Mof_Co	Co	0.7473	0.46654	0.31717	1.143
Mof_P 	P 	0.131	0.59681	0.7065	0.591
Mof_H 	H 	0.0423	0.5414	0.6531	0.215
Mof_H 	H 	0.0496	0.4455	0.6631	0.268
Mof_O 	O 	0.2057	0.6681	0.8505	-0.426
Mof_O 	O 	0.1065	0.6167	0.7784	-0.43
Mof_O 	O 	0.4708	0.4963	0.6015	-0.486
Mof_O 	O 	0.6955	0.3825	0.7884	-0.49
Mof_N 	N 	0.2367	0.1941	0.461	-0.23
Mof_O 	O 	0.7343	0.2787	0.2006	-0.459
Mof_C 	C 	0.377	0.299	0.3365	-0.168
Mof_H 	H 	0.4299	0.3424	0.3084	-0.04
Mof_H 	H 	0.4922	0.2663	0.1835	0.013
Mof_C 	C 	0.421	0.2545	0.2684	-0.146
Mof_H 	H 	0.5839	0.3388	0.7251	-0.036
Mof_C 	C 	0.6237	0.2956	0.694	-0.175
Mof_C 	C 	0.5841	0.2486	0.7698	-0.131
Mof_H 	H 	0.5099	0.2648	0.853	0.02
Mof_N 	N 	0.755	0.4566	0.4375	-0.239
Mof_O 	O 	0.0554	0.5972	0.6463	-0.452
Mof_H 	H 	0.4483	0.481	0.5755	0.242
Mof_H 	H 	0.7351	0.3708	0.8067	0.254
Mof_H 	H 	0.6931	0.27	0.2196	0.274
Mof_C 	C 	0.3729	0.2649	0.3255	0.079
Mof_H 	H 	0.3443	0.3087	0.374	0.079
Mof_H 	H 	0.4254	0.2314	0.2593	0.08
Mof_C 	C 	0.6286	0.2614	0.7093	0.068
Mof_H 	H 	0.65	0.3042	0.6516	0.081
Mof_H 	H 	0.583	0.2256	0.7813	0.083
Mof_C 	C 	0.6807	0.4537	0.4729	0.079
Mof_C 	C 	0.8254	0.4655	0.4815	0.083
Mof_H 	H 	0.0385	0.5778	0.6383	0.243
Mof_C 	C 	0.327	0.2404	0.3719	0.038
Mof_C 	C 	0.6748	0.2379	0.6612	0.055
Mof_H 	H 	0.631	0.4474	0.4441	-0.037
Mof_C 	C 	0.678	0.46	0.5529	-0.158
Mof_C 	C 	0.8243	0.4727	0.5605	-0.154
Mof_H 	H 	0.8771	0.467	0.4582	0.017
Mof_C 	C 	0.336	0.2056	0.3601	-0.137
Mof_C 	C 	0.274	0.2521	0.426	-0.111
Mof_C 	C 	0.6644	0.2032	0.666	-0.148
Mof_C 	C 	0.7363	0.249	0.614	-0.134
Mof_C 	C 	0.7463	0.4711	0.5974	0.087
Mof_H 	H 	0.627	0.4564	0.5761	0.077
Mof_H 	H 	0.8746	0.4786	0.5889	0.123
Mof_C 	C 	0.291	0.184	0.4104	0.076
Mof_H 	H 	0.3689	0.1969	0.3219	0.064
Mof_C 	C 	0.2329	0.2275	0.474	0.059
Mof_H 	H 	0.2653	0.2752	0.432	0.068
Mof_C 	C 	0.7126	0.182	0.6201	0.089
Mof_H 	H 	0.6261	0.194	0.6989	0.075
Mof_C 	C 	0.7831	0.2259	0.572	0.086
Mof_H 	H 	0.7469	0.2721	0.6099	0.077
Mof_H 	H 	0.3006	0.1608	0.4071	-0.048
Mof_H 	H 	0.2026	0.2353	0.5144	0.023
Mof_H 	H 	0.7016	0.1589	0.6206	-0.04
Mof_H 	H 	0.8232	0.2343	0.5398	0.008
Mof_H 	H 	0.0248	0.5009	0.0104	0.181
Mof_Mo	Mo	0.2925	0.91571	0.47951	1.185
Mof_Mo	Mo	0.33229	0.87009	0.58517	1.171
Mof_O 	O 	0.2444	0.8712	0.5014	-0.696
Mof_O 	O 	0.1961	0.9204	0.3917	-0.404
Mof_O 	O 	0.3541	0.9185	0.5805	-0.715
Mof_O 	O 	0.3031	0.968	0.4669	-0.396
Mof_O 	O 	0.1862	0.9321	0.5472	-0.332
Mof_O 	O 	0.2136	0.8909	0.6571	-0.413
Mof_O 	O 	0.3848	0.8707	0.6946	-0.462
Mof_O 	O 	0.282	0.824	0.615	-0.422
Mof_Co	Co	0.14095	0.8427	0.4713	1.149
Mof_P 	P 	0.144	0.89958	0.3322	0.607
Mof_Co	Co	0.38027	0.95415	0.66409	1.141
Mof_P 	P 	0.3509	0.99886	0.4993	0.591
Mof_P 	P 	0.1861	0.92829	0.635	0.497
Mof_Mo	Mo	0.15877	0.86968	0.77394	1.195
Mof_P 	P 	0.3693	0.88572	0.7743	0.605
Mof_P 	P 	0.1938	0.81264	0.6394	0.587
Mof_O 	O 	0.1043	0.8684	0.3697	-0.532
Mof_O 	O 	0.1233	0.8256	0.5847	-0.589
Mof_O 	O 	0.0431	0.8119	0.4294	-0.568
Mof_N 	N 	0.727	0.6933	0.9238	-0.237
Mof_O 	O 	0.0794	0.9219	0.2902	-0.414
Mof_O 	O 	0.2055	0.8857	0.2713	-0.493
Mof_O 	O 	0.3743	0.9953	0.5878	-0.566
Mof_O 	O 	0.244	0.9568	0.678	-0.491
Mof_O 	O 	0.4291	0.9948	0.7333	-0.585
Mof_O 	O 	0.3612	0.9249	0.7677	-0.528
Mof_O 	O 	0.2933	0.0288	0.4822	-0.396
Mof_O 	O 	0.4341	0.0039	0.4584	-0.482
Mof_O 	O 	0.0918	0.9328	0.6514	-0.333
Mof_O 	O 	0.2866	0.8715	0.8053	-0.447
Mof_Mo	Mo	0.036	0.91379	0.75648	1.206
Mof_O 	O 	0.1545	0.9172	0.7988	-0.714
Mof_O 	O 	0.0542	0.8694	0.7093	-0.702
Mof_O 	O 	0.1858	0.8235	0.7244	-0.413
Mof_O 	O 	0.4429	0.8776	0.8317	-0.493
Mof_O 	O 	0.1889	0.7728	0.6368	-0.426
Mof_Co	Co	0.98335	0.84338	0.3465	1.16
Mof_Co	Co	0.0046	0.84171	0.6182	1.147
Mof_P 	P 	0.9963	0.78742	0.4834	0.566
Mof_Mo	Mo	0.96323	0.9217	0.22573	1.236
Mof_H 	H 	0.2279	0.9016	0.25	0.261
Mof_Co	Co	0.37795	0.03417	0.67013	1.121
Mof_Co	Co	0.2497	0.95346	0.8092	1.128
Mof_P 	P 	0.4276	0.99463	0.8232	0.554
Mof_Mo	Mo	0.29235	0.08131	0.49732	1.2
Mof_O 	O 	0.0234	0.9651	0.7704	-0.406
Mof_O 	O 	0.9279	0.9186	0.6829	-0.387
Mof_H 	H 	0.448	0.857	0.8358	0.286
Mof_H 	H 	0.1498	0.7669	0.6059	0.235
Mof_O 	O 	0.944	0.875	0.2593	-0.695
Mof_O 	O 	0.919	0.8785	0.425	-0.485
Mof_O 	O 	0.8596	0.8191	0.3734	-0.522
Mof_N 	N 	0.0314	0.8097	0.2639	-0.243
Mof_O 	O 	0.8879	0.8663	0.6015	-0.542
Mof_O 	O 	0.9458	0.8103	0.5334	-0.572
Mof_N 	N 	0.9599	0.8066	0.701	-0.237
Mof_O 	O 	0.9346	0.7646	0.4314	-0.449
Mof_O 	O 	0.0546	0.7629	0.5296	-0.435
Mof_O 	O 	0.9737	0.9736	0.2244	-0.403
Mof_Mo	Mo	0.83502	0.88026	0.20052	1.175
Mof_O 	O 	0.9201	0.932	0.3383	-0.354
Mof_O 	O 	0.8428	0.9295	0.1932	-0.69
Mof_O 	O 	0.35	0.0741	0.5981	-0.729
Mof_O 	O 	0.3444	0.0606	0.7689	-0.594
Mof_O 	O 	0.3326	0.9933	0.8416	-0.578
Mof_O 	O 	0.159	0.9946	0.8202	-0.565
Mof_O 	O 	0.4791	0.0232	0.8607	-0.445
Mof_O 	O 	0.4739	0.9624	0.856	-0.45
Mof_Mo	Mo	0.33685	0.12247	0.61124	1.166
Mof_O 	O 	0.254	0.1274	0.5242	-0.69
Mof_O 	O 	0.2049	0.0806	0.4059	-0.41
Mof_O 	O 	0.1774	0.0683	0.5569	-0.329
Mof_P 	P 	0.0619	0.99534	0.8151	0.613
Mof_P 	P 	0.8546	0.89677	0.6456	0.6
Mof_Co	Co	0.84786	0.84184	0.492	1.161
Mof_P 	P 	0.8645	0.90857	0.3824	0.498
Mof_P 	P 	0.7838	0.81614	0.3146	0.608
Mof_C 	C 	0.0739	0.8196	0.2056	0.117
Mof_C 	C 	0.036	0.7755	0.276	0.076
Mof_C 	C 	0.9168	0.8159	0.7626	0.112
Mof_C 	C 	0.959	0.7727	0.688	0.073
Mof_H 	H 	0.9014	0.7766	0.405	0.264
Mof_H 	H 	0.0895	0.7735	0.5574	0.21
Mof_O 	O 	0.8028	0.8336	0.238	-0.439
Mof_O 	O 	0.7906	0.8938	0.3265	-0.42
Mof_O 	O 	0.7048	0.8851	0.169	-0.407
Mof_Co	Co	0.7527	0.96654	0.18283	1.143
Mof_P 	P 	0.369	0.09681	0.7935	0.591
Mof_H 	H 	0.4577	0.0414	0.8469	0.215
Mof_H 	H 	0.4504	0.9455	0.8369	0.268
Mof_O 	O 	0.2943	0.1681	0.6495	-0.426
Mof_O 	O 	0.3935	0.1167	0.7216	-0.43
Mof_O 	O 	0.0292	0.9963	0.8985	-0.486
Mof_O 	O 	0.8045	0.8825	0.7116	-0.49
Mof_N 	N 	0.2633	0.6941	0.039	-0.23
Mof_O 	O 	0.7657	0.7787	0.2994	-0.459
Mof_C 	C 	0.123	0.799	0.1635	-0.168
Mof_H 	H 	0.0701	0.8424	0.1916	-0.04
Mof_H 	H 	0.0078	0.7663	0.3165	0.013
Mof_C 	C 	0.079	0.7545	0.2316	-0.145
Mof_H 	H 	0.9161	0.8388	0.7749	-0.036
Mof_C 	C 	0.8763	0.7956	0.806	-0.175
Mof_C 	C 	0.9159	0.7486	0.7302	-0.131
Mof_H 	H 	0.9901	0.7648	0.647	0.019
Mof_N 	N 	0.745	0.9566	0.0625	-0.239
Mof_O 	O 	0.4446	0.0972	0.8537	-0.452
Mof_H 	H 	0.0517	0.981	0.9245	0.242
Mof_H 	H 	0.7649	0.8708	0.6933	0.254
Mof_H 	H 	0.8069	0.77	0.2804	0.274
Mof_C 	C 	0.1271	0.7649	0.1745	0.079
Mof_H 	H 	0.1557	0.8087	0.126	0.079
Mof_H 	H 	0.0746	0.7314	0.2407	0.08
Mof_C 	C 	0.8714	0.7614	0.7907	0.068
Mof_H 	H 	0.85	0.8042	0.8484	0.081
Mof_H 	H 	0.917	0.7256	0.7187	0.083
Mof_C 	C 	0.8193	0.9537	0.0271	0.08
Mof_C 	C 	0.6746	0.9655	0.0185	0.084
Mof_H 	H 	0.4615	0.0778	0.8617	0.243
Mof_C 	C 	0.173	0.7404	0.1281	0.04
Mof_C 	C 	0.8252	0.7379	0.8388	0.055
Mof_H 	H 	0.869	0.9474	0.0559	-0.037
Mof_C 	C 	0.822	0.96	0.9471	-0.159
Mof_C 	C 	0.6757	0.9727	0.9395	-0.154
Mof_H 	H 	0.6229	0.967	0.0418	0.016
Mof_C 	C 	0.164	0.7056	0.1399	-0.138
Mof_C 	C 	0.226	0.7521	0.074	-0.113
Mof_C 	C 	0.8356	0.7032	0.834	-0.148
Mof_C 	C 	0.7637	0.749	0.886	-0.134
Mof_C 	C 	0.7537	0.9711	0.9026	0.087
Mof_H 	H 	0.873	0.9564	0.9239	0.078
Mof_H 	H 	0.6254	0.9786	0.9111	0.123
Mof_C 	C 	0.209	0.684	0.0896	0.077
Mof_H 	H 	0.1311	0.6969	0.1781	0.065
Mof_C 	C 	0.2671	0.7275	0.026	0.064
Mof_H 	H 	0.2347	0.7752	0.068	0.069
Mof_C 	C 	0.7874	0.682	0.8799	0.089
Mof_H 	H 	0.8739	0.694	0.8011	0.075
Mof_C 	C 	0.7169	0.7259	0.928	0.086
Mof_H 	H 	0.7531	0.7721	0.8901	0.077
Mof_H 	H 	0.1994	0.6608	0.0929	-0.048
Mof_H 	H 	0.2974	0.7353	0.9856	0.021
Mof_H 	H 	0.7984	0.6589	0.8794	-0.04
Mof_H 	H 	0.6768	0.7343	0.9602	0.008
Mof_H 	H 	0.4752	0.0009	0.4896	0.181
_end
