# CIF file generated by openbabel 3.1.0, see https://openbabel.org
data_I
_chemical_name_common 'image0'
_cell_length_a 13.0024
_cell_length_b 13.4765
_cell_length_c 19.0107
_cell_angle_alpha 76.294
_cell_angle_beta 85.284
_cell_angle_gamma 74.768
_space_group_name_H-M_alt 'P 1'
_space_group_name_Hall 'P 1'
loop_
    _symmetry_equiv_pos_as_xyz
    x,y,z
loop_
    _atom_site_label
    _atom_site_type_symbol
    _atom_site_fract_x
    _atom_site_fract_y
    _atom_site_fract_z
    _atom_site_occupancy
    Ni1      Ni       0.65211    0.76605    0.85385    1.000
    Mo1      Mo       0.79623    0.18128    0.88729    1.000
    Mo2      Mo       0.76880    0.14109    0.07872    1.000
    Mo3      Mo       0.01807    0.02419    0.80972    1.000
    Mo4      Mo       0.82182    0.86267    0.10589    1.000
    Mo5      Mo       0.82894    0.90455    0.91497    1.000
    Mo6      Mo       0.04440    0.72251    0.01585    1.000
    O1       O        0.92100    0.99730    0.06260    1.000
    O2       O        0.95000    0.91000    0.00920    1.000
    O3       O        0.91880    0.10480    0.99520    1.000
    O4       O        0.93460    0.01860    0.92970    1.000
    O5       O        0.89590    0.14350    0.81940    1.000
    O6       O        0.75990    0.04650    0.89410    1.000
    O7       O        0.86550    0.08300    0.15990    1.000
    O8       O        0.74280    0.00950    0.09540    1.000
    O9       O        0.92560    0.93770    0.83620    1.000
    O10      O        0.93940    0.77990    0.94460    1.000
    O11      O        0.84900    0.24500    0.05060    1.000
    O12      O        0.10270    0.12010    0.82210    1.000
    O13      O        0.77350    0.88540    0.00650    1.000
    O14      O        0.75520    0.85280    0.87400    1.000
    O15      O        0.86420    0.27360    0.90990    1.000
    O16      O        0.92940    0.75010    0.08560    1.000
    O17      O        0.72620    0.17280    0.98450    1.000
    N1       N        0.60590    0.94890    0.64310    1.000
    N2       N        0.70560    0.95070    0.64810    1.000
    N3       N        0.65220    0.85270    0.74880    1.000
    N4       N        0.86010    0.52090    0.78010    1.000
    N5       N        0.93560    0.53410    0.82220    1.000
    N6       N        0.77840    0.65050    0.82830    1.000
    N7       N        0.65160    0.69220    0.96310    1.000
    N8       N        0.58780    0.63450    0.07380    1.000
    N9       N        0.68940    0.61390    0.07550    1.000
    N10      N        0.92890    0.22770    0.30430    1.000
    N11      N        0.01190    0.26190    0.32290    1.000
    N12      N        0.97860    0.12450    0.40740    1.000
    N13      N        0.06450    0.09040    0.55150    1.000
    N14      N        0.18190    0.14780    0.60080    1.000
    N15      N        0.08300    0.20890    0.60390    1.000
    C1       C        0.05800    0.28060    0.65920    1.000
    H1       H        0.12450    0.29280    0.67140    1.000
    H2       H        0.02830    0.24480    0.70320    1.000
    C2       C        0.91030    0.14730    0.35380    1.000
    H3       H        0.85810    0.11230    0.35180    1.000
    C3       C        0.98900    0.37570    0.63270    1.000
    H4       H        0.01680    0.40940    0.58700    1.000
    H5       H        0.92130    0.36370    0.62340    1.000
    C4       C        0.55000    0.96960    0.53030    1.000
    H6       H        0.61770    0.98010    0.50920    1.000
    H7       H        0.55500    0.89440    0.54460    1.000
    C5       C        0.52380    0.01390    0.58780    1.000
    H8       H        0.52730    0.08700    0.57530    1.000
    H9       H        0.45250    0.01060    0.60590    1.000
    C6       C        0.96980    0.44980    0.68530    1.000
    H10      H        0.95030    0.52220    0.65770    1.000
    H11      H        0.03600    0.43980    0.70920    1.000
    C7       C        0.82200    0.39380    0.23040    1.000
    H12      H        0.76960    0.40140    0.26940    1.000
    H13      H        0.87560    0.42950    0.23600    1.000
    C8       C        0.87980    0.61070    0.85110    1.000
    H14      H        0.90770    0.63590    0.88490    1.000
    C9       C        0.88780    0.43410    0.73990    1.000
    H15      H        0.82470    0.43190    0.71710    1.000
    H16      H        0.91260    0.36700    0.77370    1.000
    C10      C        0.16630    0.07800    0.56810    1.000
    H17      H        0.22150    0.02380    0.55710    1.000
    C11      C        0.72460    0.65080    0.01120    1.000
    H18      H        0.79630    0.64780    0.00070    1.000
    C12      C        0.87310    0.27990    0.23560    1.000
    H19      H        0.92380    0.27260    0.19560    1.000
    H20      H        0.81890    0.24440    0.23100    1.000
    C13      C        0.77210    0.59000    0.78480    1.000
    H21      H        0.71090    0.59640    0.76020    1.000
    C14      C        0.73250    0.89100    0.71170    1.000
    H22      H        0.80040    0.87590    0.73010    1.000
    C15      C        0.76770    0.44550    0.15790    1.000
    H23      H        0.70160    0.42490    0.15810    1.000
    H24      H        0.81350    0.42070    0.11940    1.000
    C16      C        0.56840    0.89420    0.70540    1.000
    H25      H        0.49910    0.88720    0.71560    1.000
    C17      C        0.74500    0.56160    0.14360    1.000
    H26      H        0.81150    0.58190    0.14200    1.000
    H27      H        0.70160    0.58580    0.18320    1.000
    C18      C        0.01360    0.17270    0.57660    1.000
    H28      H        0.94020    0.20120    0.57550    1.000
    C19      C        0.56500    0.68900    0.00480    1.000
    H29      H        0.49600    0.72040    0.98840    1.000
    C20      C        0.03560    0.19620    0.38500    1.000
    H30      H        0.09010    0.19890    0.41270    1.000
    Ni2      Ni       0.34789    0.23395    0.14615    1.000
    Mo7      Mo       0.20377    0.81872    0.11271    1.000
    Mo8      Mo       0.23120    0.85891    0.92128    1.000
    Mo9      Mo       0.98193    0.97581    0.19028    1.000
    Mo10     Mo       0.17818    0.13733    0.89411    1.000
    Mo11     Mo       0.17106    0.09545    0.08503    1.000
    Mo12     Mo       0.95560    0.27749    0.98415    1.000
    O18      O        0.07900    0.00270    0.93740    1.000
    O19      O        0.05000    0.09000    0.99080    1.000
    O20      O        0.08120    0.89520    0.00480    1.000
    O21      O        0.06540    0.98140    0.07030    1.000
    O22      O        0.10410    0.85650    0.18060    1.000
    O23      O        0.24010    0.95350    0.10590    1.000
    O24      O        0.13450    0.91700    0.84010    1.000
    O25      O        0.25720    0.99050    0.90460    1.000
    O26      O        0.07440    0.06230    0.16380    1.000
    O27      O        0.06060    0.22010    0.05540    1.000
    O28      O        0.15100    0.75500    0.94940    1.000
    O29      O        0.89730    0.87990    0.17790    1.000
    O30      O        0.22650    0.11460    0.99350    1.000
    O31      O        0.24480    0.14720    0.12600    1.000
    O32      O        0.13580    0.72640    0.09010    1.000
    O33      O        0.07060    0.24990    0.91440    1.000
    O34      O        0.27380    0.82720    0.01550    1.000
    N16      N        0.39410    0.05110    0.35690    1.000
    N17      N        0.29440    0.04930    0.35190    1.000
    N18      N        0.34780    0.14730    0.25120    1.000
    N19      N        0.13990    0.47910    0.21990    1.000
    N20      N        0.06440    0.46590    0.17780    1.000
    N21      N        0.22160    0.34950    0.17170    1.000
    N22      N        0.34840    0.30780    0.03690    1.000
    N23      N        0.41220    0.36550    0.92620    1.000
    N24      N        0.31060    0.38610    0.92450    1.000
    N25      N        0.07110    0.77230    0.69570    1.000
    N26      N        0.98810    0.73810    0.67710    1.000
    N27      N        0.02140    0.87550    0.59260    1.000
    N28      N        0.93550    0.90960    0.44850    1.000
    N29      N        0.81810    0.85220    0.39920    1.000
    N30      N        0.91700    0.79110    0.39610    1.000
    C21      C        0.94200    0.71940    0.34080    1.000
    H31      H        0.87550    0.70720    0.32860    1.000
    H32      H        0.97170    0.75520    0.29680    1.000
    C22      C        0.08970    0.85270    0.64620    1.000
    H33      H        0.14190    0.88770    0.64820    1.000
    C23      C        0.01100    0.62430    0.36730    1.000
    H34      H        0.98320    0.59060    0.41300    1.000
    H35      H        0.07870    0.63630    0.37660    1.000
    C24      C        0.45000    0.03040    0.46970    1.000
    H36      H        0.38230    0.01990    0.49080    1.000
    H37      H        0.44500    0.10560    0.45540    1.000
    C25      C        0.47620    0.98610    0.41220    1.000
    H38      H        0.47270    0.91300    0.42470    1.000
    H39      H        0.54750    0.98940    0.39410    1.000
    C26      C        0.03020    0.55020    0.31470    1.000
    H40      H        0.04970    0.47780    0.34230    1.000
    H41      H        0.96400    0.56020    0.29080    1.000
    C27      C        0.17800    0.60620    0.76960    1.000
    H42      H        0.23040    0.59860    0.73060    1.000
    H43      H        0.12440    0.57050    0.76400    1.000
    C28      C        0.12020    0.38930    0.14890    1.000
    H44      H        0.09230    0.36410    0.11510    1.000
    C29      C        0.11220    0.56590    0.26010    1.000
    H45      H        0.17530    0.56810    0.28290    1.000
    H46      H        0.08740    0.63300    0.22630    1.000
    C30      C        0.83370    0.92200    0.43190    1.000
    H47      H        0.77850    0.97620    0.44290    1.000
    C31      C        0.27540    0.34920    0.98880    1.000
    H48      H        0.20370    0.35220    0.99930    1.000
    C32      C        0.12690    0.72010    0.76440    1.000
    H49      H        0.07620    0.72740    0.80440    1.000
    H50      H        0.18110    0.75560    0.76900    1.000
    C33      C        0.22790    0.41000    0.21520    1.000
    H51      H        0.28910    0.40360    0.23980    1.000
    C34      C        0.26750    0.10900    0.28830    1.000
    H52      H        0.19960    0.12410    0.26990    1.000
    C35      C        0.23230    0.55450    0.84210    1.000
    H53      H        0.29840    0.57510    0.84190    1.000
    H54      H        0.18650    0.57930    0.88060    1.000
    C36      C        0.43160    0.10580    0.29460    1.000
    H55      H        0.50090    0.11280    0.28440    1.000
    C37      C        0.25500    0.43840    0.85640    1.000
    H56      H        0.18850    0.41810    0.85800    1.000
    H57      H        0.29840    0.41420    0.81680    1.000
    C38      C        0.98640    0.82730    0.42340    1.000
    H58      H        0.05980    0.79880    0.42450    1.000
    C39      C        0.43500    0.31100    0.99520    1.000
    H59      H        0.50400    0.27960    0.01160    1.000
    C40      C        0.96440    0.80380    0.61500    1.000
    H60      H        0.90990    0.80110    0.58730    1.000
    Ni3      Ni       0.00000    0.00000    0.50000    1.000
    P1       P        0.00000    0.00000    0.00000    1.000
