data_functionalizedCrystal
_audit_creation_method	'EQeq! by Chris Wilmer'
_symmetry_space_group_name_H-M	'P1'
_symmetry_Int_Tables_number	1
_symmetry_cell_setting	triclinic
loop_
_symmetry_equiv_pos_as_xyz
  x,y,z
_cell_length_a	45.94
_cell_length_b	11.228
_cell_length_c	24.489
_cell_angle_alpha	90
_cell_angle_beta	98.809
_cell_angle_gamma	90
loop_
_atom_site_label
_atom_site_type_symbol
_atom_site_fract_x
_atom_site_fract_y
_atom_site_fract_z
_atom_site_charge
Mof_Cd	Cd	0.01422	0.33746	0.05893	0.431
Mof_Cd	Cd	0.21681	0.63792	0.07957	0.397
Mof_N 	N 	0.04454	0.6817	0.4924	-0.188
Mof_O 	O 	0.0169	0.8298	0.96548	-0.279
Mof_N 	N 	0.0422	0.2162	0.1231	-0.186
Mof_O 	O 	0.027	0.6662	0.01313	-0.282
Mof_N 	N 	0.19669	0.7213	0.1544	-0.18
Mof_N 	N 	0.18441	0.2573	0.5165	-0.192
Mof_O 	O 	0.48032	0.8887	0.1091	-0.283
Mof_O 	O 	0.08556	0.9905	0.24161	-0.252
Mof_O 	O 	0.10109	0.793	0.38679	-0.251
Mof_C 	C 	0.1118	0.9287	0.0838	0.385
Mof_C 	C 	0.1414	0.9729	0.3694	0.109
Mof_C 	C 	0.0953	0.9893	0.0407	-0.352
Mof_H 	H 	0.1013	0.0636	0.0299	0.162
Mof_O 	O 	0.15371	0.8928	0.26689	-0.251
Mof_C 	C 	0.06969	0.938	0.0138	0.207
Mof_H 	H 	0.0583	0.9783	0.9849	-0.022
Mof_C 	C 	0.06083	0.8251	0.0298	-0.235
Mof_C 	C 	0.07792	0.7707	0.0734	0.222
Mof_H 	H 	0.0724	0.6963	0.0849	-0.032
Mof_C 	C 	0.10315	0.8233	0.1006	-0.371
Mof_H 	H 	0.1141	0.7853	0.1307	0.18
Mof_O 	O 	0.25254	0.8022	0.08456	-0.278
Mof_C 	C 	0.03322	0.7716	0.0019	0.36
Mof_O 	O 	0.26287	0.6461	0.1388	-0.264
Mof_C 	C 	0.03447	0.7416	0.4461	0.17
Mof_H 	H 	0.0144	0.7578	0.4387	-0.009
Mof_O 	O 	0.3716	0.9775	0.2332	-0.322
Mof_C 	C 	0.07326	0.6553	0.5001	0.165
Mof_H 	H 	0.0807	0.6099	0.5309	-0.022
Mof_O 	O 	0.49905	0.0372	0.1629	-0.258
Mof_C 	C 	0.06028	0.2614	0.1652	0.166
Mof_H 	H 	0.0628	0.3436	0.167	-0.018
Mof_C 	C 	0.07567	0.192	0.2066	-0.295
Mof_H 	H 	0.0882	0.2271	0.2356	0.141
Mof_C 	C 	0.07215	0.0715	0.2043	0.299
Mof_C 	C 	0.05365	0.023	0.1595	-0.28
Mof_H 	H 	0.0517	0.9409	0.1555	0.148
Mof_C 	C 	0.0385	0.0979	0.1217	0.162
Mof_H 	H 	0.025	0.0655	0.0935	-0.003
Mof_C 	C 	0.10596	0.0364	0.2862	0.033
Mof_H 	H 	0.0964	0.0942	0.3069	0.038
Mof_H 	H 	0.1222	0.0751	0.2723	0.041
Mof_C 	C 	0.11713	0.9305	0.323	-0.017
Mof_C 	C 	0.09107	0.8791	0.3453	0.031
Mof_H 	H 	0.0805	0.9421	0.3609	0.042
Mof_H 	H 	0.0778	0.8418	0.3156	0.04
Mof_C 	C 	0.08134	0.756	0.4195	0.302
Mof_C 	C 	0.0924	0.6903	0.466	-0.29
Mof_H 	H 	0.1123	0.6707	0.4737	0.146
Mof_C 	C 	0.05172	0.7806	0.409	-0.292
Mof_H 	H 	0.0436	0.8225	0.3775	0.145
Mof_O 	O 	0.1293	0.0688	0.39864	-0.274
Mof_C 	C 	0.14823	0.1267	0.4372	0.329
Mof_C 	C 	0.13718	0.2162	0.4652	-0.31
Mof_H 	H 	0.1172	0.2351	0.4579	0.155
Mof_C 	C 	0.17778	0.0998	0.449	-0.305
Mof_H 	H 	0.1859	0.0388	0.4306	0.158
Mof_C 	C 	0.13098	0.8366	0.2903	0.041
Mof_H 	H 	0.139	0.7722	0.3144	0.037
Mof_H 	H 	0.1163	0.804	0.2615	0.038
Mof_C 	C 	0.16786	0.8305	0.2309	0.315
Mof_C 	C 	0.18782	0.8925	0.2063	-0.285
Mof_H 	H 	0.1919	0.972	0.215	0.161
Mof_C 	C 	0.20167	0.8341	0.1682	0.178
Mof_H 	H 	0.2153	0.8761	0.1512	-0.009
Mof_C 	C 	0.17733	0.6624	0.1797	0.174
Mof_H 	H 	0.1739	0.5827	0.1707	0.009
Mof_C 	C 	0.16244	0.711	0.2175	-0.3
Mof_H 	H 	0.1491	0.6665	0.234	0.155
Mof_C 	C 	0.15577	0.2789	0.5044	0.175
Mof_H 	H 	0.1478	0.3396	0.5234	-0.022
Mof_C 	C 	0.19482	0.1663	0.4891	0.164
Mof_H 	H 	0.2147	0.1472	0.4979	-0.003
Mof_C 	C 	0.26866	0.7479	0.1225	0.346
Mof_C 	C 	0.29633	0.8078	0.1517	-0.218
Mof_C 	C 	0.30368	0.9207	0.1365	0.205
Mof_H 	H 	0.2919	0.9591	0.1076	-0.011
Mof_C 	C 	0.32823	0.9772	0.1636	-0.34
Mof_H 	H 	0.3326	0.0547	0.1543	0.167
Mof_C 	C 	0.34587	0.9191	0.2037	0.343
Mof_C 	C 	0.33887	0.809	0.2204	-0.343
Mof_H 	H 	0.3504	0.7719	0.2501	0.166
Mof_C 	C 	0.31479	0.7544	0.1927	0.223
Mof_H 	H 	0.3108	0.6767	0.2023	-0.021
Mof_C 	C 	0.39712	0.9753	0.2078	0.325
Mof_C 	C 	0.39937	0.9134	0.1607	-0.317
Mof_H 	H 	0.3834	0.8701	0.1431	0.15
Mof_C 	C 	0.42563	0.9153	0.1393	0.181
Mof_H 	H 	0.427	0.8755	0.1064	-0.012
Mof_C 	C 	0.4499	0.9761	0.1664	-0.198
Mof_C 	C 	0.4467	0.0365	0.2149	0.189
Mof_H 	H 	0.4626	0.0787	0.2338	-0.007
Mof_C 	C 	0.42091	0.0344	0.2349	-0.317
Mof_H 	H 	0.4194	0.0739	0.2677	0.158
Mof_C 	C 	0.47852	0.9696	0.1445	0.355
Mof_C 	C 	0.1854	0.4178	0.0898	-1.17
Mof_O 	O 	0.1672	0.503	0.0809	-0.022
Mof_O 	O 	0.2124	0.4342	0.093	-0.437
Mof_C 	C 	0.17482	0.29	0.0846	-0.008
Mof_C 	C 	0.1512	0.2834	0.11	0.132
Mof_H 	H 	0.1433	0.3511	0.1238	0.029
Mof_C 	C 	0.1872	0.1908	0.0724	0.033
Mof_H 	H 	0.205	0.1955	0.0592	0.05
Mof_C 	C 	0.1505	0.076	0.0966	0.356
Mof_C 	C 	0.1386	0.1679	0.1152	-0.321
Mof_H 	H 	0.1218	0.1597	0.1319	0.156
Mof_C 	C 	0.1754	0.0805	0.078	-0.274
Mof_H 	H 	0.1848	0.0118	0.0688	0.146
Mof_O 	O 	0.1378	0.9692	0.1115	-0.34
Mof_O 	O 	0.1951	0.4756	0.0896	0.474
Mof_O 	O 	0.2044	0.3759	0.0178	-0.461
Mof_C 	C 	0.1923	0.3902	0.0619	1.205
Mof_Cd	Cd	0.51422	0.83746	0.05893	0.433
Mof_Cd	Cd	0.71681	0.13792	0.07957	0.398
Mof_N 	N 	0.54454	0.1817	0.4924	-0.187
Mof_O 	O 	0.5169	0.3298	0.96548	-0.277
Mof_N 	N 	0.5422	0.7162	0.1231	-0.185
Mof_O 	O 	0.527	0.1662	0.01313	-0.281
Mof_N 	N 	0.69669	0.2213	0.1544	-0.179
Mof_N 	N 	0.68441	0.7573	0.5165	-0.191
Mof_O 	O 	0.98032	0.3887	0.1091	-0.282
Mof_O 	O 	0.58556	0.4905	0.24161	-0.252
Mof_O 	O 	0.60109	0.293	0.38679	-0.25
Mof_C 	C 	0.6118	0.4287	0.0838	0.386
Mof_C 	C 	0.6414	0.4729	0.3694	0.11
Mof_C 	C 	0.5953	0.4893	0.0407	-0.352
Mof_H 	H 	0.6013	0.5636	0.0299	0.164
Mof_O 	O 	0.65371	0.3928	0.26689	-0.25
Mof_C 	C 	0.56969	0.438	0.0138	0.208
Mof_H 	H 	0.5583	0.4783	0.9849	-0.021
Mof_C 	C 	0.56083	0.3251	0.0298	-0.234
Mof_C 	C 	0.57792	0.2707	0.0734	0.223
Mof_H 	H 	0.5724	0.1963	0.0849	-0.031
Mof_C 	C 	0.60315	0.3233	0.1006	-0.37
Mof_H 	H 	0.6141	0.2853	0.1307	0.181
Mof_O 	O 	0.75254	0.3022	0.08456	-0.277
Mof_C 	C 	0.53322	0.2716	0.0019	0.361
Mof_O 	O 	0.76287	0.1461	0.1388	-0.263
Mof_C 	C 	0.53447	0.2416	0.4461	0.171
Mof_H 	H 	0.5144	0.2578	0.4387	-0.008
Mof_O 	O 	0.8716	0.4775	0.2332	-0.321
Mof_C 	C 	0.57326	0.1553	0.5001	0.166
Mof_H 	H 	0.5807	0.1099	0.5309	-0.021
Mof_O 	O 	0.99905	0.5372	0.1629	-0.257
Mof_C 	C 	0.56028	0.7614	0.1652	0.166
Mof_H 	H 	0.5628	0.8436	0.167	-0.018
Mof_C 	C 	0.57567	0.692	0.2066	-0.295
Mof_H 	H 	0.5882	0.7271	0.2356	0.141
Mof_C 	C 	0.57215	0.5715	0.2043	0.299
Mof_C 	C 	0.55365	0.523	0.1595	-0.278
Mof_H 	H 	0.5517	0.4409	0.1555	0.147
Mof_C 	C 	0.5385	0.5979	0.1217	0.161
Mof_H 	H 	0.525	0.5655	0.0935	-0.002
Mof_C 	C 	0.60596	0.5364	0.2862	0.034
Mof_H 	H 	0.5964	0.5942	0.3069	0.037
Mof_H 	H 	0.6222	0.5751	0.2723	0.041
Mof_C 	C 	0.61713	0.4305	0.323	-0.017
Mof_C 	C 	0.59107	0.3791	0.3453	0.032
Mof_H 	H 	0.5805	0.4421	0.3609	0.041
Mof_H 	H 	0.5778	0.3418	0.3156	0.04
Mof_C 	C 	0.58134	0.256	0.4195	0.302
Mof_C 	C 	0.5924	0.1903	0.466	-0.29
Mof_H 	H 	0.6123	0.1707	0.4737	0.146
Mof_C 	C 	0.55172	0.2806	0.409	-0.292
Mof_H 	H 	0.5436	0.3225	0.3775	0.145
Mof_O 	O 	0.6293	0.5688	0.39864	-0.274
Mof_C 	C 	0.64823	0.6267	0.4372	0.329
Mof_C 	C 	0.63718	0.7162	0.4652	-0.31
Mof_H 	H 	0.6172	0.7351	0.4579	0.155
Mof_C 	C 	0.67778	0.5998	0.449	-0.305
Mof_H 	H 	0.6859	0.5388	0.4306	0.158
Mof_C 	C 	0.63098	0.3366	0.2903	0.041
Mof_H 	H 	0.639	0.2722	0.3144	0.036
Mof_H 	H 	0.6163	0.304	0.2615	0.038
Mof_C 	C 	0.66786	0.3305	0.2309	0.315
Mof_C 	C 	0.68782	0.3925	0.2063	-0.285
Mof_H 	H 	0.6919	0.472	0.215	0.161
Mof_C 	C 	0.70167	0.3341	0.1682	0.178
Mof_H 	H 	0.7153	0.3761	0.1512	-0.009
Mof_C 	C 	0.67733	0.1624	0.1797	0.174
Mof_H 	H 	0.6739	0.0827	0.1707	0.009
Mof_C 	C 	0.66244	0.211	0.2175	-0.3
Mof_H 	H 	0.6491	0.1665	0.234	0.155
Mof_C 	C 	0.65577	0.7789	0.5044	0.175
Mof_H 	H 	0.6478	0.8396	0.5234	-0.022
Mof_C 	C 	0.69482	0.6663	0.4891	0.164
Mof_H 	H 	0.7147	0.6472	0.4979	-0.003
Mof_C 	C 	0.76866	0.2479	0.1225	0.346
Mof_C 	C 	0.79633	0.3078	0.1517	-0.219
Mof_C 	C 	0.80368	0.4207	0.1365	0.206
Mof_H 	H 	0.7919	0.4591	0.1076	-0.011
Mof_C 	C 	0.82823	0.4772	0.1636	-0.341
Mof_H 	H 	0.8326	0.5547	0.1543	0.167
Mof_C 	C 	0.84587	0.4191	0.2037	0.343
Mof_C 	C 	0.83887	0.309	0.2204	-0.344
Mof_H 	H 	0.8504	0.2719	0.2501	0.167
Mof_C 	C 	0.81479	0.2544	0.1927	0.224
Mof_H 	H 	0.8108	0.1767	0.2023	-0.021
Mof_C 	C 	0.89712	0.4753	0.2078	0.325
Mof_C 	C 	0.89937	0.4134	0.1607	-0.317
Mof_H 	H 	0.8834	0.3701	0.1431	0.15
Mof_C 	C 	0.92563	0.4153	0.1393	0.181
Mof_H 	H 	0.927	0.3755	0.1064	-0.012
Mof_C 	C 	0.9499	0.4761	0.1664	-0.198
Mof_C 	C 	0.9467	0.5365	0.2149	0.189
Mof_H 	H 	0.9626	0.5787	0.2338	-0.007
Mof_C 	C 	0.92091	0.5344	0.2349	-0.316
Mof_H 	H 	0.9194	0.5739	0.2677	0.158
Mof_C 	C 	0.97852	0.4696	0.1445	0.355
Mof_C 	C 	0.6854	0.9178	0.0898	-1.171
Mof_O 	O 	0.6672	0.003	0.0809	-0.022
Mof_O 	O 	0.7124	0.9342	0.093	-0.438
Mof_C 	C 	0.67482	0.79	0.0846	-0.008
Mof_C 	C 	0.6512	0.7834	0.11	0.133
Mof_H 	H 	0.6433	0.8511	0.1238	0.029
Mof_C 	C 	0.6872	0.6908	0.0724	0.034
Mof_H 	H 	0.705	0.6955	0.0592	0.049
Mof_C 	C 	0.6505	0.576	0.0966	0.357
Mof_C 	C 	0.6386	0.6679	0.1152	-0.322
Mof_H 	H 	0.6218	0.6597	0.1319	0.157
Mof_C 	C 	0.6754	0.5805	0.078	-0.274
Mof_H 	H 	0.6848	0.5118	0.0688	0.147
Mof_O 	O 	0.6378	0.4692	0.1115	-0.34
Mof_O 	O 	0.6951	0.9756	0.0896	0.475
Mof_O 	O 	0.7044	0.8759	0.0178	-0.462
Mof_C 	C 	0.6923	0.8902	0.0619	1.206
Mof_Cd	Cd	0.98578	0.33746	0.44107	0.433
Mof_Cd	Cd	0.78319	0.63792	0.42043	0.398
Mof_N 	N 	0.95546	0.6817	0.0076	-0.187
Mof_O 	O 	0.9831	0.8298	0.53452	-0.277
Mof_N 	N 	0.9578	0.2162	0.3769	-0.185
Mof_O 	O 	0.973	0.6662	0.48687	-0.281
Mof_N 	N 	0.80331	0.7213	0.3456	-0.179
Mof_N 	N 	0.81559	0.2573	0.9835	-0.19
Mof_O 	O 	0.51968	0.8887	0.3909	-0.282
Mof_O 	O 	0.91444	0.9905	0.25839	-0.251
Mof_O 	O 	0.89891	0.793	0.11321	-0.25
Mof_C 	C 	0.8882	0.9287	0.4162	0.386
Mof_C 	C 	0.8586	0.9729	0.1306	0.11
Mof_C 	C 	0.9047	0.9893	0.4593	-0.352
Mof_H 	H 	0.8987	0.0636	0.4701	0.164
Mof_O 	O 	0.84629	0.8928	0.23311	-0.25
Mof_C 	C 	0.93031	0.938	0.4862	0.208
Mof_H 	H 	0.9417	0.9783	0.5151	-0.021
Mof_C 	C 	0.93917	0.8251	0.4702	-0.234
Mof_C 	C 	0.92208	0.7707	0.4266	0.223
Mof_H 	H 	0.9276	0.6963	0.4151	-0.031
Mof_C 	C 	0.89685	0.8233	0.3994	-0.37
Mof_H 	H 	0.8859	0.7853	0.3693	0.181
Mof_O 	O 	0.74746	0.8022	0.41544	-0.277
Mof_C 	C 	0.96678	0.7716	0.4981	0.361
Mof_O 	O 	0.73713	0.6461	0.3612	-0.263
Mof_C 	C 	0.96553	0.7416	0.0539	0.171
Mof_H 	H 	0.9856	0.7578	0.0613	-0.008
Mof_O 	O 	0.6284	0.9775	0.2668	-0.321
Mof_C 	C 	0.92674	0.6553	0.9999	0.165
Mof_H 	H 	0.9193	0.6099	0.9691	-0.021
Mof_O 	O 	0.50095	0.0372	0.3371	-0.257
Mof_C 	C 	0.93972	0.2614	0.3348	0.166
Mof_H 	H 	0.9372	0.3436	0.333	-0.018
Mof_C 	C 	0.92433	0.192	0.2934	-0.295
Mof_H 	H 	0.9118	0.2271	0.2644	0.14
Mof_C 	C 	0.92785	0.0715	0.2957	0.299
Mof_C 	C 	0.94635	0.023	0.3405	-0.279
Mof_H 	H 	0.9483	0.9409	0.3445	0.147
Mof_C 	C 	0.9615	0.0979	0.3783	0.162
Mof_H 	H 	0.975	0.0655	0.4065	-0.003
Mof_C 	C 	0.89404	0.0364	0.2138	0.033
Mof_H 	H 	0.9036	0.0942	0.1931	0.038
Mof_H 	H 	0.8778	0.0751	0.2277	0.041
Mof_C 	C 	0.88287	0.9305	0.177	-0.017
Mof_C 	C 	0.90893	0.8791	0.1547	0.031
Mof_H 	H 	0.9195	0.9421	0.1391	0.042
Mof_H 	H 	0.9222	0.8418	0.1844	0.04
Mof_C 	C 	0.91866	0.756	0.0805	0.301
Mof_C 	C 	0.9076	0.6903	0.034	-0.289
Mof_H 	H 	0.8877	0.6707	0.0263	0.145
Mof_C 	C 	0.94828	0.7806	0.091	-0.292
Mof_H 	H 	0.9564	0.8225	0.1225	0.145
Mof_O 	O 	0.8707	0.0688	0.10136	-0.274
Mof_C 	C 	0.85177	0.1267	0.0628	0.329
Mof_C 	C 	0.86282	0.2162	0.0348	-0.311
Mof_H 	H 	0.8828	0.2351	0.0421	0.155
Mof_C 	C 	0.82222	0.0998	0.051	-0.305
Mof_H 	H 	0.8141	0.0388	0.0694	0.158
Mof_C 	C 	0.86902	0.8366	0.2097	0.041
Mof_H 	H 	0.861	0.7722	0.1856	0.037
Mof_H 	H 	0.8837	0.804	0.2385	0.038
Mof_C 	C 	0.83214	0.8305	0.2691	0.315
Mof_C 	C 	0.81218	0.8925	0.2937	-0.285
Mof_H 	H 	0.8081	0.972	0.285	0.161
Mof_C 	C 	0.79833	0.8341	0.3318	0.178
Mof_H 	H 	0.7847	0.8761	0.3488	-0.009
Mof_C 	C 	0.82267	0.6624	0.3203	0.174
Mof_H 	H 	0.8261	0.5827	0.3293	0.009
Mof_C 	C 	0.83756	0.711	0.2825	-0.3
Mof_H 	H 	0.8509	0.6665	0.266	0.155
Mof_C 	C 	0.84423	0.2789	0.9956	0.175
Mof_H 	H 	0.8522	0.3396	0.9766	-0.023
Mof_C 	C 	0.80518	0.1663	0.0109	0.164
Mof_H 	H 	0.7853	0.1472	0.0021	-0.003
Mof_C 	C 	0.73134	0.7479	0.3775	0.346
Mof_C 	C 	0.70367	0.8078	0.3483	-0.219
Mof_C 	C 	0.69632	0.9207	0.3635	0.206
Mof_H 	H 	0.7081	0.9591	0.3924	-0.011
Mof_C 	C 	0.67177	0.9772	0.3364	-0.34
Mof_H 	H 	0.6674	0.0547	0.3457	0.167
Mof_C 	C 	0.65413	0.9191	0.2963	0.343
Mof_C 	C 	0.66113	0.809	0.2796	-0.344
Mof_H 	H 	0.6496	0.7719	0.2499	0.166
Mof_C 	C 	0.68521	0.7544	0.3073	0.223
Mof_H 	H 	0.6892	0.6767	0.2977	-0.021
Mof_C 	C 	0.60288	0.9753	0.2922	0.325
Mof_C 	C 	0.60063	0.9134	0.3393	-0.317
Mof_H 	H 	0.6166	0.8701	0.3569	0.15
Mof_C 	C 	0.57437	0.9153	0.3607	0.181
Mof_H 	H 	0.573	0.8755	0.3936	-0.012
Mof_C 	C 	0.5501	0.9761	0.3336	-0.198
Mof_C 	C 	0.5533	0.0365	0.2851	0.189
Mof_H 	H 	0.5374	0.0787	0.2662	-0.007
Mof_C 	C 	0.57909	0.0344	0.2651	-0.317
Mof_H 	H 	0.5806	0.0739	0.2323	0.158
Mof_C 	C 	0.52148	0.9696	0.3555	0.355
Mof_C 	C 	0.8146	0.4178	0.4102	-1.17
Mof_O 	O 	0.8328	0.503	0.4191	-0.022
Mof_O 	O 	0.7876	0.4342	0.407	-0.438
Mof_C 	C 	0.82518	0.29	0.4154	-0.008
Mof_C 	C 	0.8488	0.2834	0.39	0.132
Mof_H 	H 	0.8567	0.3511	0.3762	0.029
Mof_C 	C 	0.8128	0.1908	0.4276	0.034
Mof_H 	H 	0.795	0.1955	0.4408	0.049
Mof_C 	C 	0.8495	0.076	0.4034	0.356
Mof_C 	C 	0.8614	0.1679	0.3848	-0.322
Mof_H 	H 	0.8782	0.1597	0.3681	0.157
Mof_C 	C 	0.8246	0.0805	0.422	-0.274
Mof_H 	H 	0.8152	0.0118	0.4312	0.147
Mof_O 	O 	0.8622	0.9692	0.3885	-0.34
Mof_O 	O 	0.8049	0.4756	0.4104	0.474
Mof_O 	O 	0.7956	0.3759	0.4822	-0.462
Mof_C 	C 	0.8077	0.3902	0.4381	1.205
Mof_Cd	Cd	0.48578	0.83746	0.44107	0.433
Mof_Cd	Cd	0.28319	0.13792	0.42043	0.398
Mof_N 	N 	0.45546	0.1817	0.0076	-0.187
Mof_O 	O 	0.4831	0.3298	0.53452	-0.277
Mof_N 	N 	0.4578	0.7162	0.3769	-0.185
Mof_O 	O 	0.473	0.1662	0.48687	-0.281
Mof_N 	N 	0.30331	0.2213	0.3456	-0.179
Mof_N 	N 	0.31559	0.7573	0.9835	-0.191
Mof_O 	O 	0.01968	0.3887	0.3909	-0.282
Mof_O 	O 	0.41444	0.4905	0.25839	-0.252
Mof_O 	O 	0.39891	0.293	0.11321	-0.25
Mof_C 	C 	0.3882	0.4287	0.4162	0.386
Mof_C 	C 	0.3586	0.4729	0.1306	0.11
Mof_C 	C 	0.4047	0.4893	0.4593	-0.352
Mof_H 	H 	0.3987	0.5636	0.4701	0.164
Mof_O 	O 	0.34629	0.3928	0.23311	-0.25
Mof_C 	C 	0.43031	0.438	0.4862	0.208
Mof_H 	H 	0.4417	0.4783	0.5151	-0.021
Mof_C 	C 	0.43917	0.3251	0.4702	-0.234
Mof_C 	C 	0.42208	0.2707	0.4266	0.223
Mof_H 	H 	0.4276	0.1963	0.4151	-0.031
Mof_C 	C 	0.39685	0.3233	0.3994	-0.37
Mof_H 	H 	0.3859	0.2853	0.3693	0.181
Mof_O 	O 	0.24746	0.3022	0.41544	-0.277
Mof_C 	C 	0.46678	0.2716	0.4981	0.361
Mof_O 	O 	0.23713	0.1461	0.3612	-0.263
Mof_C 	C 	0.46553	0.2416	0.0539	0.171
Mof_H 	H 	0.4856	0.2578	0.0613	-0.008
Mof_O 	O 	0.1284	0.4775	0.2668	-0.321
Mof_C 	C 	0.42674	0.1553	0.9999	0.167
Mof_H 	H 	0.4193	0.1099	0.9691	-0.021
Mof_O 	O 	0.00095	0.5372	0.3371	-0.257
Mof_C 	C 	0.43972	0.7614	0.3348	0.166
Mof_H 	H 	0.4372	0.8436	0.333	-0.018
Mof_C 	C 	0.42433	0.692	0.2934	-0.295
Mof_H 	H 	0.4118	0.7271	0.2644	0.141
Mof_C 	C 	0.42785	0.5715	0.2957	0.299
Mof_C 	C 	0.44635	0.523	0.3405	-0.278
Mof_H 	H 	0.4483	0.4409	0.3445	0.147
Mof_C 	C 	0.4615	0.5979	0.3783	0.161
Mof_H 	H 	0.475	0.5655	0.4065	-0.002
Mof_C 	C 	0.39404	0.5364	0.2138	0.034
Mof_H 	H 	0.4036	0.5942	0.1931	0.037
Mof_H 	H 	0.3778	0.5751	0.2277	0.041
Mof_C 	C 	0.38287	0.4305	0.177	-0.017
Mof_C 	C 	0.40893	0.3791	0.1547	0.032
Mof_H 	H 	0.4195	0.4421	0.1391	0.041
Mof_H 	H 	0.4222	0.3418	0.1844	0.04
Mof_C 	C 	0.41866	0.256	0.0805	0.302
Mof_C 	C 	0.4076	0.1903	0.034	-0.29
Mof_H 	H 	0.3877	0.1707	0.0263	0.146
Mof_C 	C 	0.44828	0.2806	0.091	-0.292
Mof_H 	H 	0.4564	0.3225	0.1225	0.145
Mof_O 	O 	0.3707	0.5688	0.10136	-0.274
Mof_C 	C 	0.35177	0.6267	0.0628	0.329
Mof_C 	C 	0.36282	0.7162	0.0348	-0.31
Mof_H 	H 	0.3828	0.7351	0.0421	0.155
Mof_C 	C 	0.32222	0.5998	0.051	-0.305
Mof_H 	H 	0.3141	0.5388	0.0694	0.158
Mof_C 	C 	0.36902	0.3366	0.2097	0.041
Mof_H 	H 	0.361	0.2722	0.1856	0.036
Mof_H 	H 	0.3837	0.304	0.2385	0.038
Mof_C 	C 	0.33214	0.3305	0.2691	0.315
Mof_C 	C 	0.31218	0.3925	0.2937	-0.285
Mof_H 	H 	0.3081	0.472	0.285	0.161
Mof_C 	C 	0.29833	0.3341	0.3318	0.178
Mof_H 	H 	0.2847	0.3761	0.3488	-0.009
Mof_C 	C 	0.32267	0.1624	0.3203	0.174
Mof_H 	H 	0.3261	0.0827	0.3293	0.009
Mof_C 	C 	0.33756	0.211	0.2825	-0.3
Mof_H 	H 	0.3509	0.1665	0.266	0.155
Mof_C 	C 	0.34423	0.7789	0.9956	0.175
Mof_H 	H 	0.3522	0.8396	0.9766	-0.022
Mof_C 	C 	0.30518	0.6663	0.0109	0.164
Mof_H 	H 	0.2853	0.6472	0.0021	-0.003
Mof_C 	C 	0.23134	0.2479	0.3775	0.346
Mof_C 	C 	0.20367	0.3078	0.3483	-0.219
Mof_C 	C 	0.19632	0.4207	0.3635	0.206
Mof_H 	H 	0.2081	0.4591	0.3924	-0.011
Mof_C 	C 	0.17177	0.4772	0.3364	-0.341
Mof_H 	H 	0.1674	0.5547	0.3457	0.167
Mof_C 	C 	0.15413	0.4191	0.2963	0.343
Mof_C 	C 	0.16113	0.309	0.2796	-0.344
Mof_H 	H 	0.1496	0.2719	0.2499	0.167
Mof_C 	C 	0.18521	0.2544	0.3073	0.224
Mof_H 	H 	0.1892	0.1767	0.2977	-0.021
Mof_C 	C 	0.10288	0.4753	0.2922	0.325
Mof_C 	C 	0.10063	0.4134	0.3393	-0.317
Mof_H 	H 	0.1166	0.3701	0.3569	0.15
Mof_C 	C 	0.07437	0.4153	0.3607	0.181
Mof_H 	H 	0.073	0.3755	0.3936	-0.012
Mof_C 	C 	0.0501	0.4761	0.3336	-0.198
Mof_C 	C 	0.0533	0.5365	0.2851	0.189
Mof_H 	H 	0.0374	0.5787	0.2662	-0.007
Mof_C 	C 	0.07909	0.5344	0.2651	-0.316
Mof_H 	H 	0.0806	0.5739	0.2323	0.158
Mof_C 	C 	0.02148	0.4696	0.3555	0.355
Mof_C 	C 	0.3146	0.9178	0.4102	-1.171
Mof_O 	O 	0.3328	0.003	0.4191	-0.022
Mof_O 	O 	0.2876	0.9342	0.407	-0.438
Mof_C 	C 	0.32518	0.79	0.4154	-0.009
Mof_C 	C 	0.3488	0.7834	0.39	0.133
Mof_H 	H 	0.3567	0.8511	0.3762	0.029
Mof_C 	C 	0.3128	0.6908	0.4276	0.034
Mof_H 	H 	0.295	0.6955	0.4408	0.049
Mof_C 	C 	0.3495	0.576	0.4034	0.357
Mof_C 	C 	0.3614	0.6679	0.3848	-0.322
Mof_H 	H 	0.3782	0.6597	0.3681	0.157
Mof_C 	C 	0.3246	0.5805	0.422	-0.274
Mof_H 	H 	0.3152	0.5118	0.4312	0.147
Mof_O 	O 	0.3622	0.4692	0.3885	-0.34
Mof_O 	O 	0.3049	0.9756	0.4104	0.475
Mof_O 	O 	0.2956	0.8759	0.4822	-0.462
Mof_C 	C 	0.3077	0.8902	0.4381	1.206
Mof_Cd	Cd	0.98578	0.66254	0.94107	0.432
Mof_Cd	Cd	0.78319	0.36208	0.92043	0.398
Mof_N 	N 	0.95546	0.3183	0.5076	-0.187
Mof_O 	O 	0.9831	0.1702	0.03452	-0.278
Mof_N 	N 	0.9578	0.7838	0.8769	-0.185
Mof_O 	O 	0.973	0.3338	0.98687	-0.281
Mof_N 	N 	0.80331	0.2787	0.8456	-0.179
Mof_N 	N 	0.81559	0.7427	0.4835	-0.191
Mof_O 	O 	0.51968	0.1113	0.8909	-0.282
Mof_O 	O 	0.91444	0.0095	0.75839	-0.251
Mof_O 	O 	0.89891	0.207	0.61321	-0.25
Mof_C 	C 	0.8882	0.0713	0.9162	0.386
Mof_C 	C 	0.8586	0.0271	0.6306	0.11
Mof_C 	C 	0.9047	0.0107	0.9593	-0.351
Mof_H 	H 	0.8987	0.9364	0.9701	0.163
Mof_O 	O 	0.84629	0.1072	0.73311	-0.25
Mof_C 	C 	0.93031	0.062	0.9862	0.208
Mof_H 	H 	0.9417	0.0217	0.0151	-0.021
Mof_C 	C 	0.93917	0.1749	0.9702	-0.234
Mof_C 	C 	0.92208	0.2293	0.9266	0.223
Mof_H 	H 	0.9276	0.3037	0.9151	-0.031
Mof_C 	C 	0.89685	0.1767	0.8994	-0.37
Mof_H 	H 	0.8859	0.2147	0.8693	0.181
Mof_O 	O 	0.74746	0.1978	0.91544	-0.277
Mof_C 	C 	0.96678	0.2284	0.9981	0.361
Mof_O 	O 	0.73713	0.3539	0.8612	-0.263
Mof_C 	C 	0.96553	0.2584	0.5539	0.171
Mof_H 	H 	0.9856	0.2422	0.5613	-0.008
Mof_O 	O 	0.6284	0.0225	0.7668	-0.321
Mof_C 	C 	0.92674	0.3447	0.4999	0.166
Mof_H 	H 	0.9193	0.3901	0.4691	-0.021
Mof_O 	O 	0.50095	0.9628	0.8371	-0.257
Mof_C 	C 	0.93972	0.7386	0.8348	0.166
Mof_H 	H 	0.9372	0.6564	0.833	-0.018
Mof_C 	C 	0.92433	0.808	0.7934	-0.295
Mof_H 	H 	0.9118	0.7729	0.7644	0.141
Mof_C 	C 	0.92785	0.9285	0.7957	0.299
Mof_C 	C 	0.94635	0.977	0.8405	-0.28
Mof_H 	H 	0.9483	0.0591	0.8445	0.148
Mof_C 	C 	0.9615	0.9021	0.8783	0.162
Mof_H 	H 	0.975	0.9345	0.9065	-0.003
Mof_C 	C 	0.89404	0.9636	0.7138	0.033
Mof_H 	H 	0.9036	0.9058	0.6931	0.038
Mof_H 	H 	0.8778	0.9249	0.7277	0.041
Mof_C 	C 	0.88287	0.0695	0.677	-0.017
Mof_C 	C 	0.90893	0.1209	0.6547	0.031
Mof_H 	H 	0.9195	0.0579	0.6391	0.042
Mof_H 	H 	0.9222	0.1582	0.6844	0.04
Mof_C 	C 	0.91866	0.244	0.5805	0.302
Mof_C 	C 	0.9076	0.3097	0.534	-0.29
Mof_H 	H 	0.8877	0.3293	0.5263	0.146
Mof_C 	C 	0.94828	0.2194	0.591	-0.292
Mof_H 	H 	0.9564	0.1775	0.6225	0.145
Mof_O 	O 	0.8707	0.9312	0.60136	-0.274
Mof_C 	C 	0.85177	0.8733	0.5628	0.329
Mof_C 	C 	0.86282	0.7838	0.5348	-0.31
Mof_H 	H 	0.8828	0.7649	0.5421	0.155
Mof_C 	C 	0.82222	0.9002	0.551	-0.305
Mof_H 	H 	0.8141	0.9612	0.5694	0.158
Mof_C 	C 	0.86902	0.1634	0.7097	0.041
Mof_H 	H 	0.861	0.2278	0.6856	0.037
Mof_H 	H 	0.8837	0.196	0.7385	0.038
Mof_C 	C 	0.83214	0.1695	0.7691	0.315
Mof_C 	C 	0.81218	0.1075	0.7937	-0.285
Mof_H 	H 	0.8081	0.028	0.785	0.161
Mof_C 	C 	0.79833	0.1659	0.8318	0.178
Mof_H 	H 	0.7847	0.1239	0.8488	-0.009
Mof_C 	C 	0.82267	0.3376	0.8203	0.174
Mof_H 	H 	0.8261	0.4173	0.8293	0.009
Mof_C 	C 	0.83756	0.289	0.7825	-0.3
Mof_H 	H 	0.8509	0.3335	0.766	0.155
Mof_C 	C 	0.84423	0.7211	0.4956	0.175
Mof_H 	H 	0.8522	0.6604	0.4766	-0.022
Mof_C 	C 	0.80518	0.8337	0.5109	0.164
Mof_H 	H 	0.7853	0.8528	0.5021	-0.003
Mof_C 	C 	0.73134	0.2521	0.8775	0.346
Mof_C 	C 	0.70367	0.1922	0.8483	-0.218
Mof_C 	C 	0.69632	0.0793	0.8635	0.205
Mof_H 	H 	0.7081	0.0409	0.8924	-0.011
Mof_C 	C 	0.67177	0.0228	0.8364	-0.34
Mof_H 	H 	0.6674	0.9453	0.8457	0.167
Mof_C 	C 	0.65413	0.0809	0.7963	0.343
Mof_C 	C 	0.66113	0.191	0.7796	-0.343
Mof_H 	H 	0.6496	0.2281	0.7499	0.166
Mof_C 	C 	0.68521	0.2456	0.8073	0.223
Mof_H 	H 	0.6892	0.3233	0.7977	-0.021
Mof_C 	C 	0.60288	0.0247	0.7922	0.325
Mof_C 	C 	0.60063	0.0866	0.8393	-0.317
Mof_H 	H 	0.6166	0.1299	0.8569	0.15
Mof_C 	C 	0.57437	0.0847	0.8607	0.181
Mof_H 	H 	0.573	0.1245	0.8936	-0.012
Mof_C 	C 	0.5501	0.0239	0.8336	-0.198
Mof_C 	C 	0.5533	0.9635	0.7851	0.189
Mof_H 	H 	0.5374	0.9213	0.7662	-0.007
Mof_C 	C 	0.57909	0.9656	0.7651	-0.317
Mof_H 	H 	0.5806	0.9261	0.7323	0.158
Mof_C 	C 	0.52148	0.0304	0.8555	0.355
Mof_C 	C 	0.8146	0.5822	0.9102	-1.17
Mof_O 	O 	0.8328	0.497	0.9191	-0.022
Mof_O 	O 	0.7876	0.5658	0.907	-0.437
Mof_C 	C 	0.82518	0.71	0.9154	-0.008
Mof_C 	C 	0.8488	0.7166	0.89	0.132
Mof_H 	H 	0.8567	0.6489	0.8762	0.029
Mof_C 	C 	0.8128	0.8092	0.9276	0.033
Mof_H 	H 	0.795	0.8045	0.9408	0.05
Mof_C 	C 	0.8495	0.924	0.9034	0.356
Mof_C 	C 	0.8614	0.8321	0.8848	-0.321
Mof_H 	H 	0.8782	0.8403	0.8681	0.156
Mof_C 	C 	0.8246	0.9195	0.922	-0.274
Mof_H 	H 	0.8152	0.9882	0.9312	0.146
Mof_O 	O 	0.8622	0.0308	0.8885	-0.34
Mof_O 	O 	0.8049	0.5244	0.9104	0.474
Mof_O 	O 	0.7956	0.6241	0.9822	-0.461
Mof_C 	C 	0.8077	0.6098	0.9381	1.205
Mof_Cd	Cd	0.48578	0.16254	0.94107	0.433
Mof_Cd	Cd	0.28319	0.86208	0.92043	0.398
Mof_N 	N 	0.45546	0.8183	0.5076	-0.187
Mof_O 	O 	0.4831	0.6702	0.03452	-0.277
Mof_N 	N 	0.4578	0.2838	0.8769	-0.185
Mof_O 	O 	0.473	0.8338	0.98687	-0.281
Mof_N 	N 	0.30331	0.7787	0.8456	-0.179
Mof_N 	N 	0.31559	0.2427	0.4835	-0.191
Mof_O 	O 	0.01968	0.6113	0.8909	-0.282
Mof_O 	O 	0.41444	0.5095	0.75839	-0.252
Mof_O 	O 	0.39891	0.707	0.61321	-0.25
Mof_C 	C 	0.3882	0.5713	0.9162	0.386
Mof_C 	C 	0.3586	0.5271	0.6306	0.11
Mof_C 	C 	0.4047	0.5107	0.9593	-0.352
Mof_H 	H 	0.3987	0.4364	0.9701	0.164
Mof_O 	O 	0.34629	0.6072	0.73311	-0.25
Mof_C 	C 	0.43031	0.562	0.9862	0.208
Mof_H 	H 	0.4417	0.5217	0.0151	-0.021
Mof_C 	C 	0.43917	0.6749	0.9702	-0.234
Mof_C 	C 	0.42208	0.7293	0.9266	0.223
Mof_H 	H 	0.4276	0.8037	0.9151	-0.031
Mof_C 	C 	0.39685	0.6767	0.8994	-0.37
Mof_H 	H 	0.3859	0.7147	0.8693	0.181
Mof_O 	O 	0.24746	0.6978	0.91544	-0.277
Mof_C 	C 	0.46678	0.7284	0.9981	0.361
Mof_O 	O 	0.23713	0.8539	0.8612	-0.263
Mof_C 	C 	0.46553	0.7584	0.5539	0.171
Mof_H 	H 	0.4856	0.7422	0.5613	-0.008
Mof_O 	O 	0.1284	0.5225	0.7668	-0.321
Mof_C 	C 	0.42674	0.8447	0.4999	0.166
Mof_H 	H 	0.4193	0.8901	0.4691	-0.021
Mof_O 	O 	0.00095	0.4628	0.8371	-0.257
Mof_C 	C 	0.43972	0.2386	0.8348	0.166
Mof_H 	H 	0.4372	0.1564	0.833	-0.018
Mof_C 	C 	0.42433	0.308	0.7934	-0.295
Mof_H 	H 	0.4118	0.2729	0.7644	0.141
Mof_C 	C 	0.42785	0.4285	0.7957	0.299
Mof_C 	C 	0.44635	0.477	0.8405	-0.278
Mof_H 	H 	0.4483	0.5591	0.8445	0.147
Mof_C 	C 	0.4615	0.4021	0.8783	0.161
Mof_H 	H 	0.475	0.4345	0.9065	-0.002
Mof_C 	C 	0.39404	0.4636	0.7138	0.034
Mof_H 	H 	0.4036	0.4058	0.6931	0.037
Mof_H 	H 	0.3778	0.4249	0.7277	0.041
Mof_C 	C 	0.38287	0.5695	0.677	-0.017
Mof_C 	C 	0.40893	0.6209	0.6547	0.032
Mof_H 	H 	0.4195	0.5579	0.6391	0.041
Mof_H 	H 	0.4222	0.6582	0.6844	0.04
Mof_C 	C 	0.41866	0.744	0.5805	0.302
Mof_C 	C 	0.4076	0.8097	0.534	-0.29
Mof_H 	H 	0.3877	0.8293	0.5263	0.146
Mof_C 	C 	0.44828	0.7194	0.591	-0.292
Mof_H 	H 	0.4564	0.6775	0.6225	0.145
Mof_O 	O 	0.3707	0.4312	0.60136	-0.274
Mof_C 	C 	0.35177	0.3733	0.5628	0.329
Mof_C 	C 	0.36282	0.2838	0.5348	-0.31
Mof_H 	H 	0.3828	0.2649	0.5421	0.155
Mof_C 	C 	0.32222	0.4002	0.551	-0.305
Mof_H 	H 	0.3141	0.4612	0.5694	0.158
Mof_C 	C 	0.36902	0.6634	0.7097	0.041
Mof_H 	H 	0.361	0.7278	0.6856	0.036
Mof_H 	H 	0.3837	0.696	0.7385	0.038
Mof_C 	C 	0.33214	0.6695	0.7691	0.315
Mof_C 	C 	0.31218	0.6075	0.7937	-0.285
Mof_H 	H 	0.3081	0.528	0.785	0.161
Mof_C 	C 	0.29833	0.6659	0.8318	0.178
Mof_H 	H 	0.2847	0.6239	0.8488	-0.009
Mof_C 	C 	0.32267	0.8376	0.8203	0.174
Mof_H 	H 	0.3261	0.9173	0.8293	0.009
Mof_C 	C 	0.33756	0.789	0.7825	-0.3
Mof_H 	H 	0.3509	0.8335	0.766	0.155
Mof_C 	C 	0.34423	0.2211	0.4956	0.175
Mof_H 	H 	0.3522	0.1604	0.4766	-0.022
Mof_C 	C 	0.30518	0.3337	0.5109	0.164
Mof_H 	H 	0.2853	0.3528	0.5021	-0.003
Mof_C 	C 	0.23134	0.7521	0.8775	0.346
Mof_C 	C 	0.20367	0.6922	0.8483	-0.219
Mof_C 	C 	0.19632	0.5793	0.8635	0.206
Mof_H 	H 	0.2081	0.5409	0.8924	-0.011
Mof_C 	C 	0.17177	0.5228	0.8364	-0.341
Mof_H 	H 	0.1674	0.4453	0.8457	0.167
Mof_C 	C 	0.15413	0.5809	0.7963	0.343
Mof_C 	C 	0.16113	0.691	0.7796	-0.344
Mof_H 	H 	0.1496	0.7281	0.7499	0.167
Mof_C 	C 	0.18521	0.7456	0.8073	0.224
Mof_H 	H 	0.1892	0.8233	0.7977	-0.021
Mof_C 	C 	0.10288	0.5247	0.7922	0.325
Mof_C 	C 	0.10063	0.5866	0.8393	-0.317
Mof_H 	H 	0.1166	0.6299	0.8569	0.15
Mof_C 	C 	0.07437	0.5847	0.8607	0.181
Mof_H 	H 	0.073	0.6245	0.8936	-0.012
Mof_C 	C 	0.0501	0.5239	0.8336	-0.198
Mof_C 	C 	0.0533	0.4635	0.7851	0.189
Mof_H 	H 	0.0374	0.4213	0.7662	-0.007
Mof_C 	C 	0.07909	0.4656	0.7651	-0.316
Mof_H 	H 	0.0806	0.4261	0.7323	0.158
Mof_C 	C 	0.02148	0.5304	0.8555	0.355
Mof_C 	C 	0.3146	0.0822	0.9102	-1.171
Mof_O 	O 	0.3328	0.997	0.9191	-0.022
Mof_O 	O 	0.2876	0.0658	0.907	-0.438
Mof_C 	C 	0.32518	0.21	0.9154	-0.008
Mof_C 	C 	0.3488	0.2166	0.89	0.133
Mof_H 	H 	0.3567	0.1489	0.8762	0.029
Mof_C 	C 	0.3128	0.3092	0.9276	0.034
Mof_H 	H 	0.295	0.3045	0.9408	0.049
Mof_C 	C 	0.3495	0.424	0.9034	0.357
Mof_C 	C 	0.3614	0.3321	0.8848	-0.322
Mof_H 	H 	0.3782	0.3403	0.8681	0.157
Mof_C 	C 	0.3246	0.4195	0.922	-0.274
Mof_H 	H 	0.3152	0.4882	0.9312	0.147
Mof_O 	O 	0.3622	0.5308	0.8885	-0.34
Mof_O 	O 	0.3049	0.0244	0.9104	0.475
Mof_O 	O 	0.2956	0.1241	0.9822	-0.462
Mof_C 	C 	0.3077	0.1098	0.9381	1.206
Mof_Cd	Cd	0.01422	0.66254	0.55893	0.433
Mof_Cd	Cd	0.21681	0.36208	0.57957	0.398
Mof_N 	N 	0.04454	0.3183	0.9924	-0.187
Mof_O 	O 	0.0169	0.1702	0.46548	-0.277
Mof_N 	N 	0.0422	0.7838	0.6231	-0.185
Mof_O 	O 	0.027	0.3338	0.51313	-0.281
Mof_N 	N 	0.19669	0.2787	0.6544	-0.179
Mof_N 	N 	0.18441	0.7427	0.0165	-0.19
Mof_O 	O 	0.48032	0.1113	0.6091	-0.282
Mof_O 	O 	0.08556	0.0095	0.74161	-0.251
Mof_O 	O 	0.10109	0.207	0.88679	-0.25
Mof_C 	C 	0.1118	0.0713	0.5838	0.386
Mof_C 	C 	0.1414	0.0271	0.8694	0.11
Mof_C 	C 	0.0953	0.0107	0.5407	-0.352
Mof_H 	H 	0.1013	0.9364	0.5299	0.164
Mof_O 	O 	0.15371	0.1072	0.76689	-0.25
Mof_C 	C 	0.06969	0.062	0.5138	0.208
Mof_H 	H 	0.0583	0.0217	0.4849	-0.021
Mof_C 	C 	0.06083	0.1749	0.5298	-0.234
Mof_C 	C 	0.07792	0.2293	0.5734	0.223
Mof_H 	H 	0.0724	0.3037	0.5849	-0.031
Mof_C 	C 	0.10315	0.1767	0.6006	-0.37
Mof_H 	H 	0.1141	0.2147	0.6307	0.181
Mof_O 	O 	0.25254	0.1978	0.58456	-0.277
Mof_C 	C 	0.03322	0.2284	0.5019	0.361
Mof_O 	O 	0.26287	0.3539	0.6388	-0.263
Mof_C 	C 	0.03447	0.2584	0.9461	0.171
Mof_H 	H 	0.0144	0.2422	0.9387	-0.008
Mof_O 	O 	0.3716	0.0225	0.7332	-0.321
Mof_C 	C 	0.07326	0.3447	0.0001	0.165
Mof_H 	H 	0.0807	0.3901	0.0309	-0.021
Mof_O 	O 	0.49905	0.9628	0.6629	-0.257
Mof_C 	C 	0.06028	0.7386	0.6652	0.166
Mof_H 	H 	0.0628	0.6564	0.667	-0.018
Mof_C 	C 	0.07567	0.808	0.7066	-0.295
Mof_H 	H 	0.0882	0.7729	0.7356	0.14
Mof_C 	C 	0.07215	0.9285	0.7043	0.299
Mof_C 	C 	0.05365	0.977	0.6595	-0.279
Mof_H 	H 	0.0517	0.0591	0.6555	0.147
Mof_C 	C 	0.0385	0.9021	0.6217	0.162
Mof_H 	H 	0.025	0.9345	0.5935	-0.003
Mof_C 	C 	0.10596	0.9636	0.7862	0.033
Mof_H 	H 	0.0964	0.9058	0.8069	0.038
Mof_H 	H 	0.1222	0.9249	0.7723	0.041
Mof_C 	C 	0.11713	0.0695	0.823	-0.017
Mof_C 	C 	0.09107	0.1209	0.8453	0.031
Mof_H 	H 	0.0805	0.0579	0.8609	0.042
Mof_H 	H 	0.0778	0.1582	0.8156	0.04
Mof_C 	C 	0.08134	0.244	0.9195	0.301
Mof_C 	C 	0.0924	0.3097	0.966	-0.289
Mof_H 	H 	0.1123	0.3293	0.9737	0.145
Mof_C 	C 	0.05172	0.2194	0.909	-0.292
Mof_H 	H 	0.0436	0.1775	0.8775	0.145
Mof_O 	O 	0.1293	0.9312	0.89864	-0.274
Mof_C 	C 	0.14823	0.8733	0.9372	0.329
Mof_C 	C 	0.13718	0.7838	0.9652	-0.311
Mof_H 	H 	0.1172	0.7649	0.9579	0.155
Mof_C 	C 	0.17778	0.9002	0.949	-0.305
Mof_H 	H 	0.1859	0.9612	0.9306	0.158
Mof_C 	C 	0.13098	0.1634	0.7903	0.041
Mof_H 	H 	0.139	0.2278	0.8144	0.037
Mof_H 	H 	0.1163	0.196	0.7615	0.038
Mof_C 	C 	0.16786	0.1695	0.7309	0.315
Mof_C 	C 	0.18782	0.1075	0.7063	-0.285
Mof_H 	H 	0.1919	0.028	0.715	0.161
Mof_C 	C 	0.20167	0.1659	0.6682	0.178
Mof_H 	H 	0.2153	0.1239	0.6512	-0.009
Mof_C 	C 	0.17733	0.3376	0.6797	0.174
Mof_H 	H 	0.1739	0.4173	0.6707	0.009
Mof_C 	C 	0.16244	0.289	0.7175	-0.3
Mof_H 	H 	0.1491	0.3335	0.734	0.155
Mof_C 	C 	0.15577	0.7211	0.0044	0.175
Mof_H 	H 	0.1478	0.6604	0.0234	-0.023
Mof_C 	C 	0.19482	0.8337	0.9891	0.164
Mof_H 	H 	0.2147	0.8528	0.9979	-0.003
Mof_C 	C 	0.26866	0.2521	0.6225	0.346
Mof_C 	C 	0.29633	0.1922	0.6517	-0.219
Mof_C 	C 	0.30368	0.0793	0.6365	0.206
Mof_H 	H 	0.2919	0.0409	0.6076	-0.011
Mof_C 	C 	0.32823	0.0228	0.6636	-0.34
Mof_H 	H 	0.3326	0.9453	0.6543	0.167
Mof_C 	C 	0.34587	0.0809	0.7037	0.343
Mof_C 	C 	0.33887	0.191	0.7204	-0.344
Mof_H 	H 	0.3504	0.2281	0.7501	0.166
Mof_C 	C 	0.31479	0.2456	0.6927	0.223
Mof_H 	H 	0.3108	0.3233	0.7023	-0.021
Mof_C 	C 	0.39712	0.0247	0.7078	0.325
Mof_C 	C 	0.39937	0.0866	0.6607	-0.317
Mof_H 	H 	0.3834	0.1299	0.6431	0.15
Mof_C 	C 	0.42563	0.0847	0.6393	0.181
Mof_H 	H 	0.427	0.1245	0.6064	-0.012
Mof_C 	C 	0.4499	0.0239	0.6664	-0.198
Mof_C 	C 	0.4467	0.9635	0.7149	0.189
Mof_H 	H 	0.4626	0.9213	0.7338	-0.007
Mof_C 	C 	0.42091	0.9656	0.7349	-0.317
Mof_H 	H 	0.4194	0.9261	0.7677	0.158
Mof_C 	C 	0.47852	0.0304	0.6445	0.355
Mof_C 	C 	0.1854	0.5822	0.5898	-1.17
Mof_O 	O 	0.1672	0.497	0.5809	-0.022
Mof_O 	O 	0.2124	0.5658	0.593	-0.438
Mof_C 	C 	0.17482	0.71	0.5846	-0.008
Mof_C 	C 	0.1512	0.7166	0.61	0.132
Mof_H 	H 	0.1433	0.6489	0.6238	0.029
Mof_C 	C 	0.1872	0.8092	0.5724	0.034
Mof_H 	H 	0.205	0.8045	0.5592	0.049
Mof_C 	C 	0.1505	0.924	0.5966	0.356
Mof_C 	C 	0.1386	0.8321	0.6152	-0.322
Mof_H 	H 	0.1218	0.8403	0.6319	0.157
Mof_C 	C 	0.1754	0.9195	0.578	-0.274
Mof_H 	H 	0.1848	0.9882	0.5688	0.147
Mof_O 	O 	0.1378	0.0308	0.6115	-0.34
Mof_O 	O 	0.1951	0.5244	0.5896	0.474
Mof_O 	O 	0.2044	0.6241	0.5178	-0.462
Mof_C 	C 	0.1923	0.6098	0.5619	1.205
Mof_Cd	Cd	0.51422	0.16254	0.55893	0.433
Mof_Cd	Cd	0.71681	0.86208	0.57957	0.398
Mof_N 	N 	0.54454	0.8183	0.9924	-0.187
Mof_O 	O 	0.5169	0.6702	0.46548	-0.277
Mof_N 	N 	0.5422	0.2838	0.6231	-0.185
Mof_O 	O 	0.527	0.8338	0.51313	-0.281
Mof_N 	N 	0.69669	0.7787	0.6544	-0.179
Mof_N 	N 	0.68441	0.2427	0.0165	-0.191
Mof_O 	O 	0.98032	0.6113	0.6091	-0.282
Mof_O 	O 	0.58556	0.5095	0.74161	-0.252
Mof_O 	O 	0.60109	0.707	0.88679	-0.25
Mof_C 	C 	0.6118	0.5713	0.5838	0.386
Mof_C 	C 	0.6414	0.5271	0.8694	0.11
Mof_C 	C 	0.5953	0.5107	0.5407	-0.352
Mof_H 	H 	0.6013	0.4364	0.5299	0.164
Mof_O 	O 	0.65371	0.6072	0.76689	-0.25
Mof_C 	C 	0.56969	0.562	0.5138	0.208
Mof_H 	H 	0.5583	0.5217	0.4849	-0.021
Mof_C 	C 	0.56083	0.6749	0.5298	-0.234
Mof_C 	C 	0.57792	0.7293	0.5734	0.223
Mof_H 	H 	0.5724	0.8037	0.5849	-0.031
Mof_C 	C 	0.60315	0.6767	0.6006	-0.37
Mof_H 	H 	0.6141	0.7147	0.6307	0.181
Mof_O 	O 	0.75254	0.6978	0.58456	-0.277
Mof_C 	C 	0.53322	0.7284	0.5019	0.361
Mof_O 	O 	0.76287	0.8539	0.6388	-0.263
Mof_C 	C 	0.53447	0.7584	0.9461	0.171
Mof_H 	H 	0.5144	0.7422	0.9387	-0.008
Mof_O 	O 	0.8716	0.5225	0.7332	-0.321
Mof_C 	C 	0.57326	0.8447	0.0001	0.167
Mof_H 	H 	0.5807	0.8901	0.0309	-0.021
Mof_O 	O 	0.99905	0.4628	0.6629	-0.257
Mof_C 	C 	0.56028	0.2386	0.6652	0.166
Mof_H 	H 	0.5628	0.1564	0.667	-0.018
Mof_C 	C 	0.57567	0.308	0.7066	-0.295
Mof_H 	H 	0.5882	0.2729	0.7356	0.141
Mof_C 	C 	0.57215	0.4285	0.7043	0.299
Mof_C 	C 	0.55365	0.477	0.6595	-0.278
Mof_H 	H 	0.5517	0.5591	0.6555	0.147
Mof_C 	C 	0.5385	0.4021	0.6217	0.161
Mof_H 	H 	0.525	0.4345	0.5935	-0.002
Mof_C 	C 	0.60596	0.4636	0.7862	0.034
Mof_H 	H 	0.5964	0.4058	0.8069	0.037
Mof_H 	H 	0.6222	0.4249	0.7723	0.041
Mof_C 	C 	0.61713	0.5695	0.823	-0.017
Mof_C 	C 	0.59107	0.6209	0.8453	0.032
Mof_H 	H 	0.5805	0.5579	0.8609	0.041
Mof_H 	H 	0.5778	0.6582	0.8156	0.04
Mof_C 	C 	0.58134	0.744	0.9195	0.302
Mof_C 	C 	0.5924	0.8097	0.966	-0.29
Mof_H 	H 	0.6123	0.8293	0.9737	0.146
Mof_C 	C 	0.55172	0.7194	0.909	-0.292
Mof_H 	H 	0.5436	0.6775	0.8775	0.145
Mof_O 	O 	0.6293	0.4312	0.89864	-0.274
Mof_C 	C 	0.64823	0.3733	0.9372	0.329
Mof_C 	C 	0.63718	0.2838	0.9652	-0.31
Mof_H 	H 	0.6172	0.2649	0.9579	0.155
Mof_C 	C 	0.67778	0.4002	0.949	-0.305
Mof_H 	H 	0.6859	0.4612	0.9306	0.158
Mof_C 	C 	0.63098	0.6634	0.7903	0.041
Mof_H 	H 	0.639	0.7278	0.8144	0.036
Mof_H 	H 	0.6163	0.696	0.7615	0.038
Mof_C 	C 	0.66786	0.6695	0.7309	0.315
Mof_C 	C 	0.68782	0.6075	0.7063	-0.285
Mof_H 	H 	0.6919	0.528	0.715	0.161
Mof_C 	C 	0.70167	0.6659	0.6682	0.178
Mof_H 	H 	0.7153	0.6239	0.6512	-0.009
Mof_C 	C 	0.67733	0.8376	0.6797	0.174
Mof_H 	H 	0.6739	0.9173	0.6707	0.009
Mof_C 	C 	0.66244	0.789	0.7175	-0.3
Mof_H 	H 	0.6491	0.8335	0.734	0.155
Mof_C 	C 	0.65577	0.2211	0.0044	0.175
Mof_H 	H 	0.6478	0.1604	0.0234	-0.022
Mof_C 	C 	0.69482	0.3337	0.9891	0.164
Mof_H 	H 	0.7147	0.3528	0.9979	-0.003
Mof_C 	C 	0.76866	0.7521	0.6225	0.346
Mof_C 	C 	0.79633	0.6922	0.6517	-0.219
Mof_C 	C 	0.80368	0.5793	0.6365	0.206
Mof_H 	H 	0.7919	0.5409	0.6076	-0.011
Mof_C 	C 	0.82823	0.5228	0.6636	-0.341
Mof_H 	H 	0.8326	0.4453	0.6543	0.167
Mof_C 	C 	0.84587	0.5809	0.7037	0.343
Mof_C 	C 	0.83887	0.691	0.7204	-0.344
Mof_H 	H 	0.8504	0.7281	0.7501	0.167
Mof_C 	C 	0.81479	0.7456	0.6927	0.224
Mof_H 	H 	0.8108	0.8233	0.7023	-0.021
Mof_C 	C 	0.89712	0.5247	0.7078	0.325
Mof_C 	C 	0.89937	0.5866	0.6607	-0.317
Mof_H 	H 	0.8834	0.6299	0.6431	0.15
Mof_C 	C 	0.92563	0.5847	0.6393	0.181
Mof_H 	H 	0.927	0.6245	0.6064	-0.012
Mof_C 	C 	0.9499	0.5239	0.6664	-0.198
Mof_C 	C 	0.9467	0.4635	0.7149	0.189
Mof_H 	H 	0.9626	0.4213	0.7338	-0.007
Mof_C 	C 	0.92091	0.4656	0.7349	-0.316
Mof_H 	H 	0.9194	0.4261	0.7677	0.158
Mof_C 	C 	0.97852	0.5304	0.6445	0.355
Mof_C 	C 	0.6854	0.0822	0.5898	-1.171
Mof_O 	O 	0.6672	0.997	0.5809	-0.022
Mof_O 	O 	0.7124	0.0658	0.593	-0.438
Mof_C 	C 	0.67482	0.21	0.5846	-0.009
Mof_C 	C 	0.6512	0.2166	0.61	0.133
Mof_H 	H 	0.6433	0.1489	0.6238	0.029
Mof_C 	C 	0.6872	0.3092	0.5724	0.034
Mof_H 	H 	0.705	0.3045	0.5592	0.049
Mof_C 	C 	0.6505	0.424	0.5966	0.357
Mof_C 	C 	0.6386	0.3321	0.6152	-0.322
Mof_H 	H 	0.6218	0.3403	0.6319	0.157
Mof_C 	C 	0.6754	0.4195	0.578	-0.274
Mof_H 	H 	0.6848	0.4882	0.5688	0.147
Mof_O 	O 	0.6378	0.5308	0.6115	-0.34
Mof_O 	O 	0.6951	0.0244	0.5896	0.475
Mof_O 	O 	0.7044	0.1241	0.5178	-0.462
Mof_C 	C 	0.6923	0.1098	0.5619	1.206
_end
