data_functionalizedCrystal
_audit_creation_method	'EQeq! by Chris Wilmer'
_symmetry_space_group_name_H-M	'P1'
_symmetry_Int_Tables_number	1
_symmetry_cell_setting	triclinic
loop_
_symmetry_equiv_pos_as_xyz
  x,y,z
_cell_length_a	11.3816
_cell_length_b	15.2214
_cell_length_c	17.8069
_cell_angle_alpha	115.303
_cell_angle_beta	90
_cell_angle_gamma	90
loop_
_atom_site_label
_atom_site_type_symbol
_atom_site_fract_x
_atom_site_fract_y
_atom_site_fract_z
_atom_site_charge
Mof_Co	Co	0.7932	0.63899	-0	0.988
Mof_Co	Co	0.2068	0.36101	-0	0.976
Mof_Co	Co	0.5	0.38095	0.7619	1.128
Mof_Co	Co	0.5	0.61905	0.2381	1.11
Mof_H 	H 	0.7477	0.5897	0.7462	0.319
Mof_H 	H 	0.6318	0.1899	0.703	0.013
Mof_H 	H 	0.639	0.0362	0.5968	0.111
Mof_H 	H 	0.3493	0.0974	0.5038	0.087
Mof_H 	H 	0.3483	0.2485	0.6132	0.006
Mof_H 	H 	0.2523	0.1565	0.7462	0.326
Mof_H 	H 	0.3682	0.5131	0.703	0.017
Mof_H 	H 	0.361	0.5606	0.5968	0.097
Mof_H 	H 	0.6507	0.4064	0.5038	0.078
Mof_H 	H 	0.6517	0.3647	0.6132	0.014
Mof_H 	H 	0.2523	0.4103	0.2538	0.324
Mof_H 	H 	0.3682	0.8101	0.297	0.016
Mof_H 	H 	0.361	0.9638	0.4032	0.086
Mof_H 	H 	0.6507	0.9026	0.4962	0.068
Mof_H 	H 	0.6517	0.7515	0.3868	0.017
Mof_H 	H 	0.7477	0.8435	0.2538	0.317
Mof_H 	H 	0.6318	0.4869	0.297	0.013
Mof_H 	H 	0.639	0.4394	0.4032	0.101
Mof_H 	H 	0.3493	0.5936	0.4962	0.078
Mof_H 	H 	0.3483	0.6353	0.3868	0.009
Mof_C 	C 	0.8234	0.5403	0.80492	0.41
Mof_C 	C 	0.7527	0.36453	0.81238	0.326
Mof_C 	C 	0.0776	0.57963	0.79436	0.321
Mof_C 	C 	0.9165	0.46668	0.79904	-0
Mof_C 	C 	0.8809	0.37978	0.80016	-0.068
Mof_C 	C 	0.0363	0.48658	0.79724	-0.095
Mof_C 	C 	0.5732	0.17176	0.66112	0.109
Mof_C 	C 	0.5784	0.07928	0.59716	-0.143
Mof_C 	C 	0.4982	0.04925	0.5349	0.101
Mof_C 	C 	0.4108	0.11477	0.54374	-0.142
Mof_C 	C 	0.4107	0.20542	0.60944	0.103
Mof_C 	C 	0.1766	0.26462	0.80492	0.446
Mof_C 	C 	0.2473	0.44785	0.81238	0.296
Mof_C 	C 	0.9224	0.21473	0.79436	0.281
Mof_C 	C 	0.0835	0.33236	0.79904	-0.16
Mof_C 	C 	0.1191	0.42038	0.80016	0.017
Mof_C 	C 	0.9637	0.31066	0.79724	0.069
Mof_C 	C 	0.4268	0.48936	0.66112	0.096
Mof_C 	C 	0.4216	0.51788	0.59716	-0.124
Mof_C 	C 	0.5018	0.48565	0.5349	0.066
Mof_C 	C 	0.5892	0.42897	0.54374	-0.121
Mof_C 	C 	0.5893	0.40402	0.60944	0.091
Mof_C 	C 	0.1766	0.4597	0.19508	0.463
Mof_C 	C 	0.2473	0.63547	0.18762	0.304
Mof_C 	C 	0.9224	0.42037	0.20564	0.285
Mof_C 	C 	0.0835	0.53332	0.20096	-0.188
Mof_C 	C 	0.1191	0.62022	0.19984	-0.005
Mof_C 	C 	0.9637	0.51342	0.20276	0.052
Mof_C 	C 	0.4268	0.82824	0.33888	0.085
Mof_C 	C 	0.4216	0.92072	0.40284	-0.106
Mof_C 	C 	0.5018	0.95075	0.4651	0.034
Mof_C 	C 	0.5892	0.88523	0.45626	-0.104
Mof_C 	C 	0.5893	0.79458	0.39056	0.08
Mof_C 	C 	0.8234	0.73538	0.19508	0.426
Mof_C 	C 	0.7527	0.55215	0.18762	0.335
Mof_C 	C 	0.0776	0.78527	0.20564	0.325
Mof_C 	C 	0.9165	0.66764	0.20096	-0.024
Mof_C 	C 	0.8809	0.57962	0.19984	-0.092
Mof_C 	C 	0.0363	0.68934	0.20276	-0.115
Mof_C 	C 	0.5732	0.51064	0.33888	0.099
Mof_C 	C 	0.5784	0.48212	0.40284	-0.125
Mof_C 	C 	0.4982	0.51435	0.4651	0.069
Mof_C 	C 	0.4108	0.57103	0.45626	-0.125
Mof_C 	C 	0.4107	0.59598	0.39056	0.093
Mof_N 	N 	0.4925	0.23555	0.66734	-0.241
Mof_N 	N 	0.5075	0.43179	0.66734	-0.237
Mof_N 	N 	0.5075	0.76445	0.33266	-0.235
Mof_N 	N 	0.4925	0.56821	0.33266	-0.24
Mof_O 	O 	0.77399	0.58829	0.87172	-0.412
Mof_O 	O 	0.79867	0.54637	0.73704	-0.481
Mof_O 	O 	0.68155	0.37468	0.7628	-0.412
Mof_O 	O 	0.72744	0.34693	0.87338	-0.256
Mof_O 	O 	0.15541	0.56976	0.74076	-0.275
Mof_O 	O 	0.03169	0.65713	0.84402	-0.272
Mof_O 	O 	0.22601	0.28343	0.87172	-0.435
Mof_O 	O 	0.20133	0.19067	0.73704	-0.508
Mof_O 	O 	0.31845	0.38812	0.7628	-0.405
Mof_O 	O 	0.27256	0.52645	0.87338	-0.252
Mof_O 	O 	0.84459	0.171	0.74076	-0.248
Mof_O 	O 	0.96831	0.18689	0.84402	-0.216
Mof_O 	O 	0.22601	0.41171	0.12828	-0.542
Mof_O 	O 	0.20133	0.45363	0.26296	-0.517
Mof_O 	O 	0.31845	0.62532	0.2372	-0.423
Mof_O 	O 	0.27256	0.65307	0.12662	-0.359
Mof_O 	O 	0.84459	0.43024	0.25924	-0.256
Mof_O 	O 	0.96831	0.34287	0.15598	-0.291
Mof_O 	O 	0.77399	0.71657	0.12828	-0.518
Mof_O 	O 	0.79867	0.80933	0.26296	-0.489
Mof_O 	O 	0.68155	0.61188	0.2372	-0.43
Mof_O 	O 	0.72744	0.47355	0.12662	-0.364
Mof_O 	O 	0.15541	0.829	0.25924	-0.283
Mof_O 	O 	0.03169	0.81311	0.15598	-0.347
Mof_Co	Co	0.2932	0.86101	-0	0.98
Mof_Co	Co	0.7068	0.13899	-0	0.988
Mof_Co	Co	-1.1314e-33	0.11905	0.2381	1.094
Mof_Co	Co	1.35768e-32	0.88095	0.7619	1.104
Mof_H 	H 	0.2477	0.9103	0.2538	0.319
Mof_H 	H 	0.1318	0.3101	0.297	0
Mof_H 	H 	0.139	0.4638	0.4032	0.148
Mof_H 	H 	0.8493	0.4026	0.4962	0.121
Mof_H 	H 	0.8483	0.2515	0.3868	-0.005
Mof_H 	H 	0.7523	0.3435	0.2538	0.32
Mof_H 	H 	0.8682	0.9869	0.297	-0.01
Mof_H 	H 	0.861	0.9394	0.4032	0.088
Mof_H 	H 	0.1507	0.0936	0.4962	0.061
Mof_H 	H 	0.1517	0.1353	0.3868	0.018
Mof_H 	H 	0.7523	0.0897	0.7462	0.324
Mof_H 	H 	0.8682	0.6899	0.703	0.031
Mof_H 	H 	0.861	0.5362	0.5968	0.05
Mof_H 	H 	0.1507	0.5974	0.5038	0.035
Mof_H 	H 	0.1517	0.7485	0.6132	0.029
Mof_H 	H 	0.2477	0.6565	0.7462	0.323
Mof_H 	H 	0.1318	0.0131	0.703	0.051
Mof_H 	H 	0.139	0.0606	0.5968	0.104
Mof_H 	H 	0.8493	0.9064	0.5038	0.094
Mof_H 	H 	0.8483	0.8647	0.6132	0.007
Mof_C 	C 	0.3234	0.9597	0.19508	0.432
Mof_C 	C 	0.2527	0.13547	0.18762	0.323
Mof_C 	C 	0.5776	0.92037	0.20564	0.294
Mof_C 	C 	0.4165	0.03332	0.20096	-0.096
Mof_C 	C 	0.3809	0.12022	0.19984	-0.05
Mof_C 	C 	0.5363	0.01342	0.20276	-0.019
Mof_C 	C 	0.0732	0.32824	0.33888	0.117
Mof_C 	C 	0.0784	0.42072	0.40284	-0.28
Mof_C 	C 	0.9982	0.45075	0.4651	0.276
Mof_C 	C 	0.9108	0.38523	0.45626	-0.231
Mof_C 	C 	0.9107	0.29458	0.39056	0.16
Mof_C 	C 	0.6766	0.23538	0.19508	0.443
Mof_C 	C 	0.7473	0.05215	0.18762	0.335
Mof_C 	C 	0.4224	0.28527	0.20564	0.305
Mof_C 	C 	0.5835	0.16764	0.20096	-0.103
Mof_C 	C 	0.6191	0.07962	0.19984	-0.052
Mof_C 	C 	0.4637	0.18934	0.20276	-0.032
Mof_C 	C 	0.9268	0.01064	0.33888	0.166
Mof_C 	C 	0.9216	0.98212	0.40284	-0.086
Mof_C 	C 	0.0018	0.01435	0.4651	-0.024
Mof_C 	C 	0.0892	0.07103	0.45626	-0.083
Mof_C 	C 	0.0893	0.09598	0.39056	0.065
Mof_C 	C 	0.6766	0.0403	0.80492	0.442
Mof_C 	C 	0.7473	0.86453	0.81238	0.306
Mof_C 	C 	0.4224	0.07963	0.79436	0.316
Mof_C 	C 	0.5835	0.96668	0.79904	-0.092
Mof_C 	C 	0.6191	0.87978	0.80016	-0.024
Mof_C 	C 	0.4637	0.98658	0.79724	-0.031
Mof_C 	C 	0.9268	0.67176	0.66112	0.079
Mof_C 	C 	0.9216	0.57928	0.59716	0.031
Mof_C 	C 	0.0018	0.54925	0.5349	-0.14
Mof_C 	C 	0.0892	0.61477	0.54374	-0.014
Mof_C 	C 	0.0893	0.70542	0.60944	0.023
Mof_C 	C 	0.3234	0.76462	0.80492	0.431
Mof_C 	C 	0.2527	0.94785	0.81238	0.286
Mof_C 	C 	0.5776	0.71473	0.79436	0.301
Mof_C 	C 	0.4165	0.83236	0.79904	-0.085
Mof_C 	C 	0.3809	0.92038	0.80016	-0.019
Mof_C 	C 	0.5363	0.81066	0.79724	-0.012
Mof_C 	C 	0.0732	0.98936	0.66112	0.007
Mof_C 	C 	0.0784	0.01788	0.59716	-0.147
Mof_C 	C 	0.9982	0.98565	0.5349	0.155
Mof_C 	C 	0.9108	0.92897	0.54374	-0.158
Mof_C 	C 	0.9107	0.90402	0.60944	0.115
Mof_N 	N 	0.9925	0.26445	0.33266	-0.228
Mof_N 	N 	0.0075	0.06821	0.33266	-0.267
Mof_N 	N 	0.0075	0.73555	0.66734	-0.244
Mof_N 	N 	0.9925	0.93179	0.66734	-0.199
Mof_O 	O 	0.27399	0.91171	0.12828	-0.533
Mof_O 	O 	0.29867	0.95363	0.26296	-0.505
Mof_O 	O 	0.18155	0.12532	0.2372	-0.429
Mof_O 	O 	0.22744	0.15307	0.12662	-0.367
Mof_O 	O 	0.65541	0.93024	0.25924	-0.267
Mof_O 	O 	0.53169	0.84287	0.15598	-0.317
Mof_O 	O 	0.72601	0.21657	0.12828	-0.525
Mof_O 	O 	0.70133	0.30933	0.26296	-0.501
Mof_O 	O 	0.81845	0.11188	0.2372	-0.414
Mof_O 	O 	0.77256	0.97355	0.12662	-0.363
Mof_O 	O 	0.34459	0.329	0.25924	-0.27
Mof_O 	O 	0.46831	0.31311	0.15598	-0.319
Mof_O 	O 	0.72601	0.08829	0.87172	-0.419
Mof_O 	O 	0.70133	0.04637	0.73704	-0.494
Mof_O 	O 	0.81845	0.87468	0.7628	-0.398
Mof_O 	O 	0.77256	0.84693	0.87338	-0.246
Mof_O 	O 	0.34459	0.06976	0.74076	-0.264
Mof_O 	O 	0.46831	0.15713	0.84402	-0.246
Mof_O 	O 	0.27399	0.78343	0.87172	-0.43
Mof_O 	O 	0.29867	0.69067	0.73704	-0.497
Mof_O 	O 	0.18155	0.88812	0.7628	-0.413
Mof_O 	O 	0.22744	0.02645	0.87338	-0.244
Mof_O 	O 	0.65541	0.671	0.74076	-0.261
Mof_O 	O 	0.53169	0.68689	0.84402	-0.244
_end
