data_functionalizedCrystal
_audit_creation_method	'EQeq! by Chris Wilmer'
_symmetry_space_group_name_H-M	'P1'
_symmetry_Int_Tables_number	1
_symmetry_cell_setting	triclinic
loop_
_symmetry_equiv_pos_as_xyz
  x,y,z
_cell_length_a	55.106
_cell_length_b	16.058
_cell_length_c	12.418
_cell_angle_alpha	90
_cell_angle_beta	96.664
_cell_angle_gamma	90
loop_
_atom_site_label
_atom_site_type_symbol
_atom_site_fract_x
_atom_site_fract_y
_atom_site_fract_z
_atom_site_charge
Mof_Pr	Pr	0.22854	0.02357	0.11707	1.983
Mof_Pr	Pr	0.09596	0.94825	0.82029	2.378
Mof_Pr	Pr	0.17172	0.33821	0.28588	2.065
Mof_Pr	Pr	0.06916	0.5282	0.15994	2.744
Mof_N 	N 	0.18369	0.0545	0.012	-0.217
Mof_C 	C 	0.18096	0.0327	0.9072	-0.12
Mof_C 	C 	0.1581	0.0182	0.8512	0.083
Mof_H 	H 	0.1567	0.0081	0.777	-0.005
Mof_N 	N 	0.13805	0.0185	0.9015	-0.204
Mof_C 	C 	0.14073	0.0398	0.0062	-0.114
Mof_C 	C 	0.16339	0.0617	0.0599	0.078
Mof_H 	H 	0.1644	0.0818	0.1305	-0.02
Mof_C 	C 	0.20414	0.0161	0.8553	0.405
Mof_O 	O 	0.22387	0.0142	0.9179	-0.56
Mof_O 	O 	0.20137	0.0021	0.7555	-0.554
Mof_C 	C 	0.11798	0.0347	0.0637	0.444
Mof_O 	O 	0.09914	0.0065	0.0081	-0.524
Mof_O 	O 	0.11965	0.0569	0.1615	-0.542
Mof_N 	N 	0.24236	0.1719	0.032	-0.205
Mof_C 	C 	0.23414	0.2424	0.0729	-0.122
Mof_C 	C 	0.258	0.18	0.9582	0.073
Mof_H 	H 	0.2638	0.1325	0.9268	-0.01
Mof_C 	C 	0.21555	0.2317	0.1525	0.41
Mof_O 	O 	0.21114	0.1578	0.1781	-0.54
Mof_O 	O 	0.20582	0.296	0.1848	-0.551
Mof_N 	N 	0.1716	0.4433	0.1164	-0.213
Mof_C 	C 	0.14979	0.4702	0.0687	-0.112
Mof_C 	C 	0.14757	0.5111	0.969	0.093
Mof_H 	H 	0.1322	0.5277	0.9378	-0.002
Mof_N 	N 	0.16675	0.5267	0.918	-0.207
Mof_C 	C 	0.1886	0.5004	0.9654	-0.132
Mof_C 	C 	0.19096	0.4593	0.0643	0.077
Mof_H 	H 	0.2064	0.4424	0.095	-0.014
Mof_C 	C 	0.12846	0.4565	0.1328	0.46
Mof_O 	O 	0.13265	0.4132	0.2178	-0.522
Mof_O 	O 	0.10882	0.4912	0.0986	-0.555
Mof_C 	C 	0.2105	0.5208	0.9067	0.405
Mof_O 	O 	0.2067	0.5696	0.8269	-0.576
Mof_O 	O 	0.2305	0.4897	0.9434	-0.55
Mof_N 	N 	0.09122	0.8259	0.973	-0.216
Mof_C 	C 	0.10595	0.7601	0.9668	-0.133
Mof_C 	C 	0.10266	0.6868	0.0213	0.113
Mof_H 	H 	0.114	0.6441	0.0187	-0.018
Mof_N 	N 	0.08372	0.6751	0.0776	-0.213
Mof_C 	C 	0.06909	0.7411	0.0843	-0.106
Mof_C 	C 	0.07309	0.8166	0.0346	0.107
Mof_H 	H 	0.0629	0.8615	0.0444	-0.005
Mof_C 	C 	0.12617	0.7705	0.8957	0.427
Mof_O 	O 	0.129	0.8416	0.8561	-0.572
Mof_O 	O 	0.13857	0.7069	0.882	-0.574
Mof_C 	C 	0.04717	0.7278	0.145	0.493
Mof_O 	O 	0.04391	0.6554	0.1794	-0.522
Mof_O 	O 	0.03365	0.7898	0.1543	-0.569
Mof_N 	N 	0.02287	0.5087	0.059	-0.217
Mof_C 	C 	0.02037	0.5054	0.952	-0.107
Mof_C 	C 	0.00259	0.5033	0.1066	0.111
Mof_H 	H 	0.0038	0.5053	0.1819	0.005
Mof_C 	C 	0.04348	0.5122	0.8988	0.482
Mof_O 	O 	0.06261	0.5321	0.9598	-0.578
Mof_O 	O 	0.04183	0.4985	0.7993	-0.568
Mof_N 	N 	0.00076	0.9354	0.425	-0.236
Mof_C 	C 	0.01665	0.9994	0.4303	-0.129
Mof_C 	C 	0.98445	0.9364	0.496	0.104
Mof_H 	H 	0.9734	0.8926	0.4962	-0.02
Mof_C 	C 	0.03575	0.9958	0.3525	0.475
Mof_O 	O 	0.03147	0.948	0.2731	-0.583
Mof_O 	O 	0.05437	0.0403	0.3749	-0.566
Mof_O 	O 	0.09235	0.0953	0.7736	-0.399
Mof_O 	O 	0.05744	0.3783	0.117	-0.263
Mof_O 	O 	0.0957	0.5993	0.3018	-0.818
Mof_O 	O 	0.9757	0.7598	0.11	-0.285
Mof_O 	O 	0.0881	0.1137	0.8421	-0.096
Mof_N 	N 	0.1011	0.1381	0.7759	0.234
Mof_O 	O 	0.1126	0.0919	0.7253	-0.21
Mof_O 	O 	0.1036	0.2183	0.7644	-0.153
Mof_O 	O 	0.0821	0.6113	0.3468	-0.023
Mof_N 	N 	0.1035	0.6188	0.3402	0.544
Mof_O 	O 	0.11148	0.596	0.2603	-0.082
Mof_O 	O 	0.1179	0.648	0.4215	-0.25
Mof_O 	O 	0.06505	0.3869	0.0709	-0.173
Mof_O 	O 	0.9624	0.8149	0.1027	-0.196
Mof_O 	O 	0.99415	0.6845	0.1941	-0.22
Mof_Pr	Pr	0.72854	0.52357	0.11707	1.994
Mof_Pr	Pr	0.59596	0.44825	0.82029	2.385
Mof_Pr	Pr	0.67172	0.83821	0.28588	2.068
Mof_Pr	Pr	0.56916	0.0282	0.15994	2.731
Mof_N 	N 	0.68369	0.5545	0.012	-0.212
Mof_C 	C 	0.68096	0.5327	0.9072	-0.127
Mof_C 	C 	0.6581	0.5182	0.8512	0.085
Mof_H 	H 	0.6567	0.5081	0.777	-0.007
Mof_N 	N 	0.63805	0.5185	0.9015	-0.21
Mof_C 	C 	0.64073	0.5398	0.0062	-0.107
Mof_C 	C 	0.66339	0.5617	0.0599	0.076
Mof_H 	H 	0.6644	0.5818	0.1305	-0.019
Mof_C 	C 	0.70414	0.5161	0.8553	0.407
Mof_O 	O 	0.72387	0.5142	0.9179	-0.566
Mof_O 	O 	0.70137	0.5021	0.7555	-0.556
Mof_C 	C 	0.61798	0.5347	0.0637	0.443
Mof_O 	O 	0.59914	0.5065	0.0081	-0.522
Mof_O 	O 	0.61965	0.5569	0.1615	-0.541
Mof_N 	N 	0.74236	0.6719	0.032	-0.201
Mof_C 	C 	0.73414	0.7424	0.0729	-0.124
Mof_C 	C 	0.758	0.68	0.9582	0.064
Mof_H 	H 	0.7638	0.6325	0.9268	-0.009
Mof_C 	C 	0.71555	0.7317	0.1525	0.411
Mof_O 	O 	0.71114	0.6578	0.1781	-0.541
Mof_O 	O 	0.70582	0.796	0.1848	-0.552
Mof_N 	N 	0.6716	0.9433	0.1164	-0.213
Mof_C 	C 	0.64979	0.9702	0.0687	-0.111
Mof_C 	C 	0.64757	0.0111	0.969	0.095
Mof_H 	H 	0.6322	0.0277	0.9378	-0.001
Mof_N 	N 	0.66675	0.0267	0.918	-0.207
Mof_C 	C 	0.6886	0.0004	0.9654	-0.131
Mof_C 	C 	0.69096	0.9593	0.0643	0.078
Mof_H 	H 	0.7064	0.9424	0.095	-0.014
Mof_C 	C 	0.62846	0.9565	0.1328	0.46
Mof_O 	O 	0.63265	0.9132	0.2178	-0.521
Mof_O 	O 	0.60882	0.9912	0.0986	-0.55
Mof_C 	C 	0.7105	0.0208	0.9067	0.413
Mof_O 	O 	0.7067	0.0696	0.8269	-0.577
Mof_O 	O 	0.7305	0.9897	0.9434	-0.557
Mof_N 	N 	0.59122	0.3259	0.973	-0.214
Mof_C 	C 	0.60595	0.2601	0.9668	-0.123
Mof_C 	C 	0.60266	0.1868	0.0213	0.102
Mof_H 	H 	0.614	0.1441	0.0187	-0.017
Mof_N 	N 	0.58372	0.1751	0.0776	-0.212
Mof_C 	C 	0.56909	0.2411	0.0843	-0.105
Mof_C 	C 	0.57309	0.3166	0.0346	0.1
Mof_H 	H 	0.5629	0.3615	0.0444	-0.005
Mof_C 	C 	0.62617	0.2705	0.8957	0.425
Mof_O 	O 	0.629	0.3416	0.8561	-0.571
Mof_O 	O 	0.63857	0.2069	0.882	-0.573
Mof_C 	C 	0.54717	0.2278	0.145	0.492
Mof_O 	O 	0.54391	0.1554	0.1794	-0.521
Mof_O 	O 	0.53365	0.2898	0.1543	-0.569
Mof_N 	N 	0.52287	0.0087	0.059	-0.22
Mof_C 	C 	0.52037	0.0054	0.952	-0.093
Mof_C 	C 	0.50259	0.0033	0.1066	0.103
Mof_H 	H 	0.5038	0.0053	0.1819	0.008
Mof_C 	C 	0.54348	0.0122	0.8988	0.483
Mof_O 	O 	0.56261	0.0321	0.9598	-0.573
Mof_O 	O 	0.54183	0.9985	0.7993	-0.57
Mof_N 	N 	0.50076	0.4354	0.425	-0.235
Mof_C 	C 	0.51665	0.4994	0.4303	-0.129
Mof_C 	C 	0.48445	0.4364	0.496	0.103
Mof_H 	H 	0.4734	0.3926	0.4962	-0.019
Mof_C 	C 	0.53575	0.4958	0.3525	0.473
Mof_O 	O 	0.53147	0.448	0.2731	-0.584
Mof_O 	O 	0.55437	0.5403	0.3749	-0.564
Mof_O 	O 	0.59235	0.5953	0.7736	-0.4
Mof_O 	O 	0.55744	0.8783	0.117	-0.26
Mof_O 	O 	0.5957	0.0993	0.3018	-0.815
Mof_O 	O 	0.4757	0.2598	0.11	-0.286
Mof_O 	O 	0.5881	0.6137	0.8421	-0.098
Mof_N 	N 	0.6011	0.6381	0.7759	0.234
Mof_O 	O 	0.6126	0.5919	0.7253	-0.212
Mof_O 	O 	0.6036	0.7183	0.7644	-0.154
Mof_O 	O 	0.5821	0.1113	0.3468	-0.023
Mof_N 	N 	0.6035	0.1188	0.3402	0.542
Mof_O 	O 	0.61148	0.096	0.2603	-0.084
Mof_O 	O 	0.6179	0.148	0.4215	-0.25
Mof_O 	O 	0.56505	0.8869	0.0709	-0.171
Mof_O 	O 	0.4624	0.3149	0.1027	-0.197
Mof_O 	O 	0.49415	0.1845	0.1941	-0.222
Mof_Pr	Pr	0.77146	0.02357	0.38293	1.99
Mof_Pr	Pr	0.90404	0.94825	0.67971	2.38
Mof_Pr	Pr	0.82828	0.33821	0.21412	2.066
Mof_Pr	Pr	0.93084	0.5282	0.34006	2.745
Mof_N 	N 	0.81631	0.0545	0.488	-0.212
Mof_C 	C 	0.81904	0.0327	0.5928	-0.125
Mof_C 	C 	0.8419	0.0182	0.6488	0.085
Mof_H 	H 	0.8433	0.0081	0.723	-0.005
Mof_N 	N 	0.86195	0.0185	0.5985	-0.209
Mof_C 	C 	0.85927	0.0398	0.4938	-0.106
Mof_C 	C 	0.83661	0.0617	0.4401	0.076
Mof_H 	H 	0.8356	0.0818	0.3695	-0.02
Mof_C 	C 	0.79586	0.0161	0.6447	0.406
Mof_O 	O 	0.77613	0.0142	0.5821	-0.564
Mof_O 	O 	0.79863	0.0021	0.7445	-0.552
Mof_C 	C 	0.88202	0.0347	0.4363	0.442
Mof_O 	O 	0.90086	0.0065	0.4919	-0.52
Mof_O 	O 	0.88035	0.0569	0.3385	-0.541
Mof_N 	N 	0.75764	0.1719	0.468	-0.202
Mof_C 	C 	0.76586	0.2424	0.4271	-0.123
Mof_C 	C 	0.742	0.18	0.5418	0.068
Mof_H 	H 	0.7362	0.1325	0.5732	-0.009
Mof_C 	C 	0.78445	0.2317	0.3475	0.411
Mof_O 	O 	0.78886	0.1578	0.3219	-0.542
Mof_O 	O 	0.79418	0.296	0.3152	-0.552
Mof_N 	N 	0.8284	0.4433	0.3836	-0.213
Mof_C 	C 	0.85021	0.4702	0.4313	-0.111
Mof_C 	C 	0.85243	0.5111	0.531	0.092
Mof_H 	H 	0.8678	0.5277	0.5622	-0.002
Mof_N 	N 	0.83325	0.5267	0.582	-0.207
Mof_C 	C 	0.8114	0.5004	0.5346	-0.132
Mof_C 	C 	0.80904	0.4593	0.4357	0.078
Mof_H 	H 	0.7936	0.4424	0.405	-0.015
Mof_C 	C 	0.87154	0.4565	0.3672	0.46
Mof_O 	O 	0.86735	0.4132	0.2822	-0.522
Mof_O 	O 	0.89118	0.4912	0.4014	-0.555
Mof_C 	C 	0.7895	0.5208	0.5933	0.405
Mof_O 	O 	0.7933	0.5696	0.6731	-0.576
Mof_O 	O 	0.7695	0.4897	0.5566	-0.55
Mof_N 	N 	0.90878	0.8259	0.527	-0.214
Mof_C 	C 	0.89405	0.7601	0.5332	-0.129
Mof_C 	C 	0.89734	0.6868	0.4787	0.108
Mof_H 	H 	0.886	0.6441	0.4813	-0.017
Mof_N 	N 	0.91628	0.6751	0.4224	-0.213
Mof_C 	C 	0.93091	0.7411	0.4157	-0.105
Mof_C 	C 	0.92691	0.8166	0.4654	0.103
Mof_H 	H 	0.9371	0.8615	0.4556	-0.005
Mof_C 	C 	0.87383	0.7705	0.6043	0.426
Mof_O 	O 	0.871	0.8416	0.6439	-0.571
Mof_O 	O 	0.86143	0.7069	0.618	-0.574
Mof_C 	C 	0.95283	0.7278	0.355	0.493
Mof_O 	O 	0.95609	0.6554	0.3206	-0.522
Mof_O 	O 	0.96635	0.7898	0.3457	-0.568
Mof_N 	N 	0.97713	0.5087	0.441	-0.218
Mof_C 	C 	0.97963	0.5054	0.548	-0.103
Mof_C 	C 	0.99741	0.5033	0.3934	0.115
Mof_H 	H 	0.9962	0.5053	0.3181	0.005
Mof_C 	C 	0.95652	0.5122	0.6012	0.48
Mof_O 	O 	0.93739	0.5321	0.5402	-0.578
Mof_O 	O 	0.95817	0.4985	0.7007	-0.567
Mof_N 	N 	0.99924	0.9354	0.075	-0.234
Mof_C 	C 	0.98335	0.9994	0.0697	-0.129
Mof_C 	C 	0.01555	0.9364	0.004	0.103
Mof_H 	H 	0.0266	0.8926	0.0038	-0.019
Mof_C 	C 	0.96425	0.9958	0.1475	0.479
Mof_O 	O 	0.96853	0.948	0.2269	-0.584
Mof_O 	O 	0.94563	0.0403	0.1251	-0.569
Mof_O 	O 	0.90765	0.0953	0.7264	-0.399
Mof_O 	O 	0.94256	0.3783	0.383	-0.263
Mof_O 	O 	0.9043	0.5993	0.1982	-0.818
Mof_O 	O 	0.0243	0.7598	0.39	-0.286
Mof_O 	O 	0.9119	0.1137	0.6579	-0.098
Mof_N 	N 	0.8989	0.1381	0.7241	0.233
Mof_O 	O 	0.8874	0.0919	0.7747	-0.209
Mof_O 	O 	0.8964	0.2183	0.7356	-0.153
Mof_O 	O 	0.9179	0.6113	0.1532	-0.022
Mof_N 	N 	0.8965	0.6188	0.1598	0.544
Mof_O 	O 	0.88852	0.596	0.2397	-0.082
Mof_O 	O 	0.8821	0.648	0.0785	-0.249
Mof_O 	O 	0.93495	0.3869	0.4291	-0.172
Mof_O 	O 	0.0376	0.8149	0.3973	-0.197
Mof_O 	O 	0.00585	0.6845	0.3059	-0.222
Mof_Pr	Pr	0.27146	0.52357	0.38293	1.995
Mof_Pr	Pr	0.40404	0.44825	0.67971	2.385
Mof_Pr	Pr	0.32828	0.83821	0.21412	2.069
Mof_Pr	Pr	0.43084	0.0282	0.34006	2.742
Mof_N 	N 	0.31631	0.5545	0.488	-0.212
Mof_C 	C 	0.31904	0.5327	0.5928	-0.126
Mof_C 	C 	0.3419	0.5182	0.6488	0.085
Mof_H 	H 	0.3433	0.5081	0.723	-0.007
Mof_N 	N 	0.36195	0.5185	0.5985	-0.21
Mof_C 	C 	0.35927	0.5398	0.4938	-0.106
Mof_C 	C 	0.33661	0.5617	0.4401	0.076
Mof_H 	H 	0.3356	0.5818	0.3695	-0.019
Mof_C 	C 	0.29586	0.5161	0.6447	0.407
Mof_O 	O 	0.27613	0.5142	0.5821	-0.566
Mof_O 	O 	0.29863	0.5021	0.7445	-0.556
Mof_C 	C 	0.38202	0.5347	0.4363	0.443
Mof_O 	O 	0.40086	0.5065	0.4919	-0.521
Mof_O 	O 	0.38035	0.5569	0.3385	-0.541
Mof_N 	N 	0.25764	0.6719	0.468	-0.202
Mof_C 	C 	0.26586	0.7424	0.4271	-0.123
Mof_C 	C 	0.242	0.68	0.5418	0.068
Mof_H 	H 	0.2362	0.6325	0.5732	-0.01
Mof_C 	C 	0.28445	0.7317	0.3475	0.411
Mof_O 	O 	0.28886	0.6578	0.3219	-0.541
Mof_O 	O 	0.29418	0.796	0.3152	-0.551
Mof_N 	N 	0.3284	0.9433	0.3836	-0.213
Mof_C 	C 	0.35021	0.9702	0.4313	-0.111
Mof_C 	C 	0.35243	0.0111	0.531	0.092
Mof_H 	H 	0.3678	0.0277	0.5622	-0.001
Mof_N 	N 	0.33325	0.0267	0.582	-0.207
Mof_C 	C 	0.3114	0.0004	0.5346	-0.132
Mof_C 	C 	0.30904	0.9593	0.4357	0.078
Mof_H 	H 	0.2936	0.9424	0.405	-0.014
Mof_C 	C 	0.37154	0.9565	0.3672	0.46
Mof_O 	O 	0.36735	0.9132	0.2822	-0.522
Mof_O 	O 	0.39118	0.9912	0.4014	-0.553
Mof_C 	C 	0.2895	0.0208	0.5933	0.406
Mof_O 	O 	0.2933	0.0696	0.6731	-0.576
Mof_O 	O 	0.2695	0.9897	0.5566	-0.551
Mof_N 	N 	0.40878	0.3259	0.527	-0.214
Mof_C 	C 	0.39405	0.2601	0.5332	-0.129
Mof_C 	C 	0.39734	0.1868	0.4787	0.109
Mof_H 	H 	0.386	0.1441	0.4813	-0.017
Mof_N 	N 	0.41628	0.1751	0.4224	-0.212
Mof_C 	C 	0.43091	0.2411	0.4157	-0.105
Mof_C 	C 	0.42691	0.3166	0.4654	0.103
Mof_H 	H 	0.4371	0.3615	0.4556	-0.005
Mof_C 	C 	0.37383	0.2705	0.6043	0.427
Mof_O 	O 	0.371	0.3416	0.6439	-0.571
Mof_O 	O 	0.36143	0.2069	0.618	-0.574
Mof_C 	C 	0.45283	0.2278	0.355	0.493
Mof_O 	O 	0.45609	0.1554	0.3206	-0.522
Mof_O 	O 	0.46635	0.2898	0.3457	-0.569
Mof_N 	N 	0.47713	0.0087	0.441	-0.217
Mof_C 	C 	0.47963	0.0054	0.548	-0.104
Mof_C 	C 	0.49741	0.0033	0.3934	0.113
Mof_H 	H 	0.4962	0.0053	0.3181	0.005
Mof_C 	C 	0.45652	0.0122	0.6012	0.484
Mof_O 	O 	0.43739	0.0321	0.5402	-0.577
Mof_O 	O 	0.45817	0.9985	0.7007	-0.567
Mof_N 	N 	0.49924	0.4354	0.075	-0.236
Mof_C 	C 	0.48335	0.4994	0.0697	-0.129
Mof_C 	C 	0.51555	0.4364	0.004	0.102
Mof_H 	H 	0.5266	0.3926	0.0038	-0.02
Mof_C 	C 	0.46425	0.4958	0.1475	0.473
Mof_O 	O 	0.46853	0.448	0.2269	-0.584
Mof_O 	O 	0.44563	0.5403	0.1251	-0.564
Mof_O 	O 	0.40765	0.5953	0.7264	-0.401
Mof_O 	O 	0.44256	0.8783	0.383	-0.261
Mof_O 	O 	0.4043	0.0993	0.1982	-0.817
Mof_O 	O 	0.5243	0.2598	0.39	-0.286
Mof_O 	O 	0.4119	0.6137	0.6579	-0.098
Mof_N 	N 	0.3989	0.6381	0.7241	0.234
Mof_O 	O 	0.3874	0.5919	0.7747	-0.212
Mof_O 	O 	0.3964	0.7183	0.7356	-0.153
Mof_O 	O 	0.4179	0.1113	0.1532	-0.025
Mof_N 	N 	0.3965	0.1188	0.1598	0.543
Mof_O 	O 	0.38852	0.096	0.2397	-0.084
Mof_O 	O 	0.3821	0.148	0.0785	-0.253
Mof_O 	O 	0.43495	0.8869	0.4291	-0.173
Mof_O 	O 	0.5376	0.3149	0.3973	-0.197
Mof_O 	O 	0.50585	0.1845	0.3059	-0.221
Mof_Pr	Pr	0.77146	0.97643	0.88293	1.984
Mof_Pr	Pr	0.90404	0.05175	0.17971	2.379
Mof_Pr	Pr	0.82828	0.66179	0.71412	2.066
Mof_Pr	Pr	0.93084	0.4718	0.84006	2.745
Mof_N 	N 	0.81631	0.9455	0.988	-0.216
Mof_C 	C 	0.81904	0.9673	0.0928	-0.119
Mof_C 	C 	0.8419	0.9818	0.1488	0.083
Mof_H 	H 	0.8433	0.9919	0.223	-0.005
Mof_N 	N 	0.86195	0.9815	0.0985	-0.204
Mof_C 	C 	0.85927	0.9602	0.9938	-0.114
Mof_C 	C 	0.83661	0.9383	0.9401	0.078
Mof_H 	H 	0.8356	0.9182	0.8695	-0.02
Mof_C 	C 	0.79586	0.9839	0.1447	0.405
Mof_O 	O 	0.77613	0.9858	0.0821	-0.56
Mof_O 	O 	0.79863	0.9979	0.2445	-0.554
Mof_C 	C 	0.88202	0.9653	0.9363	0.444
Mof_O 	O 	0.90086	0.9935	0.9919	-0.524
Mof_O 	O 	0.88035	0.9431	0.8385	-0.542
Mof_N 	N 	0.75764	0.8281	0.968	-0.205
Mof_C 	C 	0.76586	0.7576	0.9271	-0.122
Mof_C 	C 	0.742	0.82	0.0418	0.073
Mof_H 	H 	0.7362	0.8675	0.0732	-0.01
Mof_C 	C 	0.78445	0.7683	0.8475	0.41
Mof_O 	O 	0.78886	0.8422	0.8219	-0.54
Mof_O 	O 	0.79418	0.704	0.8152	-0.551
Mof_N 	N 	0.8284	0.5567	0.8836	-0.213
Mof_C 	C 	0.85021	0.5298	0.9313	-0.112
Mof_C 	C 	0.85243	0.4889	0.031	0.093
Mof_H 	H 	0.8678	0.4723	0.0622	-0.002
Mof_N 	N 	0.83325	0.4733	0.082	-0.207
Mof_C 	C 	0.8114	0.4996	0.0346	-0.132
Mof_C 	C 	0.80904	0.5407	0.9357	0.077
Mof_H 	H 	0.7936	0.5576	0.905	-0.014
Mof_C 	C 	0.87154	0.5435	0.8672	0.46
Mof_O 	O 	0.86735	0.5868	0.7822	-0.522
Mof_O 	O 	0.89118	0.5088	0.9014	-0.555
Mof_C 	C 	0.7895	0.4792	0.0933	0.405
Mof_O 	O 	0.7933	0.4304	0.1731	-0.576
Mof_O 	O 	0.7695	0.5103	0.0566	-0.55
Mof_N 	N 	0.90878	0.1741	0.027	-0.216
Mof_C 	C 	0.89405	0.2399	0.0332	-0.133
Mof_C 	C 	0.89734	0.3132	0.9787	0.112
Mof_H 	H 	0.886	0.3559	0.9813	-0.018
Mof_N 	N 	0.91628	0.3249	0.9224	-0.213
Mof_C 	C 	0.93091	0.2589	0.9157	-0.106
Mof_C 	C 	0.92691	0.1834	0.9654	0.107
Mof_H 	H 	0.9371	0.1385	0.9556	-0.005
Mof_C 	C 	0.87383	0.2295	0.1043	0.427
Mof_O 	O 	0.871	0.1584	0.1439	-0.572
Mof_O 	O 	0.86143	0.2931	0.118	-0.574
Mof_C 	C 	0.95283	0.2722	0.855	0.493
Mof_O 	O 	0.95609	0.3446	0.8206	-0.522
Mof_O 	O 	0.96635	0.2102	0.8457	-0.568
Mof_N 	N 	0.97713	0.4913	0.941	-0.218
Mof_C 	C 	0.97963	0.4946	0.048	-0.103
Mof_C 	C 	0.99741	0.4967	0.8934	0.115
Mof_H 	H 	0.9962	0.4947	0.8181	0.005
Mof_C 	C 	0.95652	0.4878	0.1012	0.481
Mof_O 	O 	0.93739	0.4679	0.0402	-0.578
Mof_O 	O 	0.95817	0.5015	0.2007	-0.567
Mof_N 	N 	0.99924	0.0646	0.575	-0.234
Mof_C 	C 	0.98335	0.0006	0.5697	-0.129
Mof_C 	C 	0.01555	0.0636	0.504	0.101
Mof_H 	H 	0.0266	0.1074	0.5038	-0.019
Mof_C 	C 	0.96425	0.0042	0.6475	0.475
Mof_O 	O 	0.96853	0.052	0.7269	-0.583
Mof_O 	O 	0.94563	0.9597	0.6251	-0.566
Mof_O 	O 	0.90765	0.9047	0.2264	-0.399
Mof_O 	O 	0.94256	0.6217	0.883	-0.263
Mof_O 	O 	0.9043	0.4007	0.6982	-0.818
Mof_O 	O 	0.0243	0.2402	0.89	-0.285
Mof_O 	O 	0.9119	0.8863	0.1579	-0.096
Mof_N 	N 	0.8989	0.8619	0.2241	0.234
Mof_O 	O 	0.8874	0.9081	0.2747	-0.21
Mof_O 	O 	0.8964	0.7817	0.2356	-0.153
Mof_O 	O 	0.9179	0.3887	0.6532	-0.023
Mof_N 	N 	0.8965	0.3812	0.6598	0.544
Mof_O 	O 	0.88852	0.404	0.7397	-0.082
Mof_O 	O 	0.8821	0.352	0.5785	-0.25
Mof_O 	O 	0.93495	0.6131	0.9291	-0.174
Mof_O 	O 	0.0376	0.1851	0.8973	-0.196
Mof_O 	O 	0.00585	0.3155	0.8059	-0.222
Mof_Pr	Pr	0.27146	0.47643	0.88293	1.994
Mof_Pr	Pr	0.40404	0.55175	0.17971	2.385
Mof_Pr	Pr	0.32828	0.16179	0.71412	2.068
Mof_Pr	Pr	0.43084	0.9718	0.84006	2.731
Mof_N 	N 	0.31631	0.4455	0.988	-0.212
Mof_C 	C 	0.31904	0.4673	0.0928	-0.127
Mof_C 	C 	0.3419	0.4818	0.1488	0.085
Mof_H 	H 	0.3433	0.4919	0.223	-0.007
Mof_N 	N 	0.36195	0.4815	0.0985	-0.21
Mof_C 	C 	0.35927	0.4602	0.9938	-0.107
Mof_C 	C 	0.33661	0.4383	0.9401	0.076
Mof_H 	H 	0.3356	0.4182	0.8695	-0.019
Mof_C 	C 	0.29586	0.4839	0.1447	0.407
Mof_O 	O 	0.27613	0.4858	0.0821	-0.566
Mof_O 	O 	0.29863	0.4979	0.2445	-0.556
Mof_C 	C 	0.38202	0.4653	0.9363	0.443
Mof_O 	O 	0.40086	0.4935	0.9919	-0.522
Mof_O 	O 	0.38035	0.4431	0.8385	-0.541
Mof_N 	N 	0.25764	0.3281	0.968	-0.201
Mof_C 	C 	0.26586	0.2576	0.9271	-0.124
Mof_C 	C 	0.242	0.32	0.0418	0.064
Mof_H 	H 	0.2362	0.3675	0.0732	-0.009
Mof_C 	C 	0.28445	0.2683	0.8475	0.411
Mof_O 	O 	0.28886	0.3422	0.8219	-0.541
Mof_O 	O 	0.29418	0.204	0.8152	-0.551
Mof_N 	N 	0.3284	0.0567	0.8836	-0.213
Mof_C 	C 	0.35021	0.0298	0.9313	-0.111
Mof_C 	C 	0.35243	0.9889	0.031	0.095
Mof_H 	H 	0.3678	0.9723	0.0622	-0.001
Mof_N 	N 	0.33325	0.9733	0.082	-0.207
Mof_C 	C 	0.3114	0.9996	0.0346	-0.131
Mof_C 	C 	0.30904	0.0407	0.9357	0.078
Mof_H 	H 	0.2936	0.0576	0.905	-0.014
Mof_C 	C 	0.37154	0.0435	0.8672	0.46
Mof_O 	O 	0.36735	0.0868	0.7822	-0.521
Mof_O 	O 	0.39118	0.0088	0.9014	-0.55
Mof_C 	C 	0.2895	0.9792	0.0933	0.413
Mof_O 	O 	0.2933	0.9304	0.1731	-0.577
Mof_O 	O 	0.2695	0.0103	0.0566	-0.557
Mof_N 	N 	0.40878	0.6741	0.027	-0.214
Mof_C 	C 	0.39405	0.7399	0.0332	-0.123
Mof_C 	C 	0.39734	0.8132	0.9787	0.102
Mof_H 	H 	0.386	0.8559	0.9813	-0.017
Mof_N 	N 	0.41628	0.8249	0.9224	-0.212
Mof_C 	C 	0.43091	0.7589	0.9157	-0.105
Mof_C 	C 	0.42691	0.6834	0.9654	0.1
Mof_H 	H 	0.4371	0.6385	0.9556	-0.005
Mof_C 	C 	0.37383	0.7295	0.1043	0.425
Mof_O 	O 	0.371	0.6584	0.1439	-0.571
Mof_O 	O 	0.36143	0.7931	0.118	-0.573
Mof_C 	C 	0.45283	0.7722	0.855	0.492
Mof_O 	O 	0.45609	0.8446	0.8206	-0.521
Mof_O 	O 	0.46635	0.7102	0.8457	-0.569
Mof_N 	N 	0.47713	0.9913	0.941	-0.22
Mof_C 	C 	0.47963	0.9946	0.048	-0.093
Mof_C 	C 	0.49741	0.9967	0.8934	0.103
Mof_H 	H 	0.4962	0.9947	0.8181	0.008
Mof_C 	C 	0.45652	0.9878	0.1012	0.483
Mof_O 	O 	0.43739	0.9679	0.0402	-0.573
Mof_O 	O 	0.45817	0.0015	0.2007	-0.57
Mof_N 	N 	0.49924	0.5646	0.575	-0.235
Mof_C 	C 	0.48335	0.5006	0.5697	-0.129
Mof_C 	C 	0.51555	0.5636	0.504	0.103
Mof_H 	H 	0.5266	0.6074	0.5038	-0.019
Mof_C 	C 	0.46425	0.5042	0.6475	0.473
Mof_O 	O 	0.46853	0.552	0.7269	-0.584
Mof_O 	O 	0.44563	0.4597	0.6251	-0.564
Mof_O 	O 	0.40765	0.4047	0.2264	-0.4
Mof_O 	O 	0.44256	0.1217	0.883	-0.26
Mof_O 	O 	0.4043	0.9007	0.6982	-0.815
Mof_O 	O 	0.5243	0.7402	0.89	-0.286
Mof_O 	O 	0.4119	0.3863	0.1579	-0.098
Mof_N 	N 	0.3989	0.3619	0.2241	0.234
Mof_O 	O 	0.3874	0.4081	0.2747	-0.212
Mof_O 	O 	0.3964	0.2817	0.2356	-0.154
Mof_O 	O 	0.4179	0.8887	0.6532	-0.023
Mof_N 	N 	0.3965	0.8812	0.6598	0.542
Mof_O 	O 	0.38852	0.904	0.7397	-0.084
Mof_O 	O 	0.3821	0.852	0.5785	-0.25
Mof_O 	O 	0.43495	0.1131	0.9291	-0.171
Mof_O 	O 	0.5376	0.6851	0.8973	-0.197
Mof_O 	O 	0.50585	0.8155	0.8059	-0.222
Mof_Pr	Pr	0.22854	0.97643	0.61707	1.99
Mof_Pr	Pr	0.09596	0.05175	0.32029	2.38
Mof_Pr	Pr	0.17172	0.66179	0.78588	2.066
Mof_Pr	Pr	0.06916	0.4718	0.65994	2.745
Mof_N 	N 	0.18369	0.9455	0.512	-0.212
Mof_C 	C 	0.18096	0.9673	0.4072	-0.125
Mof_C 	C 	0.1581	0.9818	0.3512	0.085
Mof_H 	H 	0.1567	0.9919	0.277	-0.005
Mof_N 	N 	0.13805	0.9815	0.4015	-0.209
Mof_C 	C 	0.14073	0.9602	0.5062	-0.106
Mof_C 	C 	0.16339	0.9383	0.5599	0.076
Mof_H 	H 	0.1644	0.9182	0.6305	-0.02
Mof_C 	C 	0.20414	0.9839	0.3553	0.406
Mof_O 	O 	0.22387	0.9858	0.4179	-0.564
Mof_O 	O 	0.20137	0.9979	0.2555	-0.552
Mof_C 	C 	0.11798	0.9653	0.5637	0.442
Mof_O 	O 	0.09914	0.9935	0.5081	-0.52
Mof_O 	O 	0.11965	0.9431	0.6615	-0.541
Mof_N 	N 	0.24236	0.8281	0.532	-0.202
Mof_C 	C 	0.23414	0.7576	0.5729	-0.123
Mof_C 	C 	0.258	0.82	0.4582	0.068
Mof_H 	H 	0.2638	0.8675	0.4268	-0.009
Mof_C 	C 	0.21555	0.7683	0.6525	0.411
Mof_O 	O 	0.21114	0.8422	0.6781	-0.541
Mof_O 	O 	0.20582	0.704	0.6848	-0.552
Mof_N 	N 	0.1716	0.5567	0.6164	-0.213
Mof_C 	C 	0.14979	0.5298	0.5687	-0.111
Mof_C 	C 	0.14757	0.4889	0.469	0.092
Mof_H 	H 	0.1322	0.4723	0.4378	-0.002
Mof_N 	N 	0.16675	0.4733	0.418	-0.207
Mof_C 	C 	0.1886	0.4996	0.4654	-0.132
Mof_C 	C 	0.19096	0.5407	0.5643	0.078
Mof_H 	H 	0.2064	0.5576	0.595	-0.015
Mof_C 	C 	0.12846	0.5435	0.6328	0.46
Mof_O 	O 	0.13265	0.5868	0.7178	-0.522
Mof_O 	O 	0.10882	0.5088	0.5986	-0.555
Mof_C 	C 	0.2105	0.4792	0.4067	0.405
Mof_O 	O 	0.2067	0.4304	0.3269	-0.576
Mof_O 	O 	0.2305	0.5103	0.4434	-0.55
Mof_N 	N 	0.09122	0.1741	0.473	-0.214
Mof_C 	C 	0.10595	0.2399	0.4668	-0.129
Mof_C 	C 	0.10266	0.3132	0.5213	0.108
Mof_H 	H 	0.114	0.3559	0.5187	-0.017
Mof_N 	N 	0.08372	0.3249	0.5776	-0.212
Mof_C 	C 	0.06909	0.2589	0.5843	-0.105
Mof_C 	C 	0.07309	0.1834	0.5346	0.103
Mof_H 	H 	0.0629	0.1385	0.5444	-0.005
Mof_C 	C 	0.12617	0.2295	0.3957	0.426
Mof_O 	O 	0.129	0.1584	0.3561	-0.571
Mof_O 	O 	0.13857	0.2931	0.382	-0.574
Mof_C 	C 	0.04717	0.2722	0.645	0.493
Mof_O 	O 	0.04391	0.3446	0.6794	-0.522
Mof_O 	O 	0.03365	0.2102	0.6543	-0.569
Mof_N 	N 	0.02287	0.4913	0.559	-0.216
Mof_C 	C 	0.02037	0.4946	0.452	-0.107
Mof_C 	C 	0.00259	0.4967	0.6066	0.111
Mof_H 	H 	0.0038	0.4947	0.6819	0.005
Mof_C 	C 	0.04348	0.4878	0.3988	0.481
Mof_O 	O 	0.06261	0.4679	0.4598	-0.578
Mof_O 	O 	0.04183	0.5015	0.2993	-0.568
Mof_N 	N 	0.00076	0.0646	0.925	-0.236
Mof_C 	C 	0.01665	0.0006	0.9303	-0.129
Mof_C 	C 	0.98445	0.0636	0.996	0.106
Mof_H 	H 	0.9734	0.1074	0.9962	-0.019
Mof_C 	C 	0.03575	0.0042	0.8525	0.479
Mof_O 	O 	0.03147	0.052	0.7731	-0.584
Mof_O 	O 	0.05437	0.9597	0.8749	-0.569
Mof_O 	O 	0.09235	0.9047	0.2736	-0.399
Mof_O 	O 	0.05744	0.6217	0.617	-0.263
Mof_O 	O 	0.0957	0.4007	0.8018	-0.818
Mof_O 	O 	0.9757	0.2402	0.61	-0.285
Mof_O 	O 	0.0881	0.8863	0.3421	-0.098
Mof_N 	N 	0.1011	0.8619	0.2759	0.233
Mof_O 	O 	0.1126	0.9081	0.2253	-0.209
Mof_O 	O 	0.1036	0.7817	0.2644	-0.153
Mof_O 	O 	0.0821	0.3887	0.8468	-0.022
Mof_N 	N 	0.1035	0.3812	0.8402	0.544
Mof_O 	O 	0.11148	0.404	0.7603	-0.082
Mof_O 	O 	0.1179	0.352	0.9215	-0.249
Mof_O 	O 	0.06505	0.6131	0.5709	-0.172
Mof_O 	O 	0.9624	0.1851	0.6027	-0.197
Mof_O 	O 	0.99415	0.3155	0.6941	-0.22
Mof_Pr	Pr	0.72854	0.47643	0.61707	1.995
Mof_Pr	Pr	0.59596	0.55175	0.32029	2.385
Mof_Pr	Pr	0.67172	0.16179	0.78588	2.069
Mof_Pr	Pr	0.56916	0.9718	0.65994	2.742
Mof_N 	N 	0.68369	0.4455	0.512	-0.212
Mof_C 	C 	0.68096	0.4673	0.4072	-0.126
Mof_C 	C 	0.6581	0.4818	0.3512	0.085
Mof_H 	H 	0.6567	0.4919	0.277	-0.007
Mof_N 	N 	0.63805	0.4815	0.4015	-0.21
Mof_C 	C 	0.64073	0.4602	0.5062	-0.106
Mof_C 	C 	0.66339	0.4383	0.5599	0.076
Mof_H 	H 	0.6644	0.4182	0.6305	-0.019
Mof_C 	C 	0.70414	0.4839	0.3553	0.407
Mof_O 	O 	0.72387	0.4858	0.4179	-0.566
Mof_O 	O 	0.70137	0.4979	0.2555	-0.556
Mof_C 	C 	0.61798	0.4653	0.5637	0.443
Mof_O 	O 	0.59914	0.4935	0.5081	-0.521
Mof_O 	O 	0.61965	0.4431	0.6615	-0.541
Mof_N 	N 	0.74236	0.3281	0.532	-0.202
Mof_C 	C 	0.73414	0.2576	0.5729	-0.123
Mof_C 	C 	0.758	0.32	0.4582	0.068
Mof_H 	H 	0.7638	0.3675	0.4268	-0.01
Mof_C 	C 	0.71555	0.2683	0.6525	0.411
Mof_O 	O 	0.71114	0.3422	0.6781	-0.541
Mof_O 	O 	0.70582	0.204	0.6848	-0.551
Mof_N 	N 	0.6716	0.0567	0.6164	-0.213
Mof_C 	C 	0.64979	0.0298	0.5687	-0.111
Mof_C 	C 	0.64757	0.9889	0.469	0.092
Mof_H 	H 	0.6322	0.9723	0.4378	-0.001
Mof_N 	N 	0.66675	0.9733	0.418	-0.207
Mof_C 	C 	0.6886	0.9996	0.4654	-0.132
Mof_C 	C 	0.69096	0.0407	0.5643	0.078
Mof_H 	H 	0.7064	0.0576	0.595	-0.014
Mof_C 	C 	0.62846	0.0435	0.6328	0.46
Mof_O 	O 	0.63265	0.0868	0.7178	-0.522
Mof_O 	O 	0.60882	0.0088	0.5986	-0.553
Mof_C 	C 	0.7105	0.9792	0.4067	0.406
Mof_O 	O 	0.7067	0.9304	0.3269	-0.576
Mof_O 	O 	0.7305	0.0103	0.4434	-0.551
Mof_N 	N 	0.59122	0.6741	0.473	-0.214
Mof_C 	C 	0.60595	0.7399	0.4668	-0.129
Mof_C 	C 	0.60266	0.8132	0.5213	0.109
Mof_H 	H 	0.614	0.8559	0.5187	-0.017
Mof_N 	N 	0.58372	0.8249	0.5776	-0.212
Mof_C 	C 	0.56909	0.7589	0.5843	-0.105
Mof_C 	C 	0.57309	0.6834	0.5346	0.103
Mof_H 	H 	0.5629	0.6385	0.5444	-0.005
Mof_C 	C 	0.62617	0.7295	0.3957	0.427
Mof_O 	O 	0.629	0.6584	0.3561	-0.571
Mof_O 	O 	0.63857	0.7931	0.382	-0.574
Mof_C 	C 	0.54717	0.7722	0.645	0.493
Mof_O 	O 	0.54391	0.8446	0.6794	-0.522
Mof_O 	O 	0.53365	0.7102	0.6543	-0.569
Mof_N 	N 	0.52287	0.9913	0.559	-0.217
Mof_C 	C 	0.52037	0.9946	0.452	-0.104
Mof_C 	C 	0.50259	0.9967	0.6066	0.113
Mof_H 	H 	0.5038	0.9947	0.6819	0.005
Mof_C 	C 	0.54348	0.9878	0.3988	0.484
Mof_O 	O 	0.56261	0.9679	0.4598	-0.577
Mof_O 	O 	0.54183	0.0015	0.2993	-0.567
Mof_N 	N 	0.50076	0.5646	0.925	-0.236
Mof_C 	C 	0.51665	0.5006	0.9303	-0.129
Mof_C 	C 	0.48445	0.5636	0.996	0.102
Mof_H 	H 	0.4734	0.6074	0.9962	-0.02
Mof_C 	C 	0.53575	0.5042	0.8525	0.473
Mof_O 	O 	0.53147	0.552	0.7731	-0.584
Mof_O 	O 	0.55437	0.4597	0.8749	-0.564
Mof_O 	O 	0.59235	0.4047	0.2736	-0.401
Mof_O 	O 	0.55744	0.1217	0.617	-0.261
Mof_O 	O 	0.5957	0.9007	0.8018	-0.817
Mof_O 	O 	0.4757	0.7402	0.61	-0.286
Mof_O 	O 	0.5881	0.3863	0.3421	-0.098
Mof_N 	N 	0.6011	0.3619	0.2759	0.234
Mof_O 	O 	0.6126	0.4081	0.2253	-0.212
Mof_O 	O 	0.6036	0.2817	0.2644	-0.153
Mof_O 	O 	0.5821	0.8887	0.8468	-0.025
Mof_N 	N 	0.6035	0.8812	0.8402	0.543
Mof_O 	O 	0.61148	0.904	0.7603	-0.084
Mof_O 	O 	0.6179	0.852	0.9215	-0.253
Mof_O 	O 	0.56505	0.1131	0.5709	-0.173
Mof_O 	O 	0.4624	0.6851	0.6027	-0.197
Mof_O 	O 	0.49415	0.8155	0.6941	-0.221
Mof_Pr	Pr	1.30203e-18	0.83694	0.25	2.933
Mof_Pr	Pr	0.5	0.33694	0.25	2.936
Mof_Pr	Pr	7.8122e-18	0.16306	0.75	2.933
Mof_Pr	Pr	0.5	0.66306	0.75	2.936
_end
