# CIF file generated by openbabel 3.1.0, see https://openbabel.org
data_I
_chemical_name_common 'image0'
_cell_length_a 20.9049
_cell_length_b 14.6808
_cell_length_c 14.2515
_cell_angle_alpha 90
_cell_angle_beta 108.043
_cell_angle_gamma 90
_space_group_name_H-M_alt 'P 1'
_space_group_name_Hall 'P 1'
loop_
    _symmetry_equiv_pos_as_xyz
    x,y,z
loop_
    _atom_site_label
    _atom_site_type_symbol
    _atom_site_fract_x
    _atom_site_fract_y
    _atom_site_fract_z
    _atom_site_occupancy
    Ag1      Ag       0.67945    0.16716    0.70914    1.000
    N1       N        0.77997    0.09660    0.78110    1.000
    N2       N        0.05015    0.39350    0.17270    1.000
    N3       N        0.37768    0.96840    0.32380    1.000
    N4       N        0.65322    0.75820    0.34070    1.000
    S1       S        0.09909    0.80167    0.85682    1.000
    S2       S        0.65248    0.29312    0.58638    1.000
    C1       C        0.82832    0.05580    0.80180    1.000
    C2       C        0.88997    0.00390    0.83420    1.000
    C3       C        0.95073    0.04460    0.83800    1.000
    H1       H        0.95190    0.10520    0.81510    1.000
    C4       C        0.00927    0.99560    0.87550    1.000
    H2       H        0.05110    0.02290    0.87900    1.000
    C5       C        0.00785    0.90740    0.90820    1.000
    C6       C        0.94671    0.86720    0.90220    1.000
    H3       H        0.94550    0.80610    0.92340    1.000
    C7       C        0.88800    0.91520    0.86590    1.000
    H4       H        0.84620    0.88770    0.86240    1.000
    C8       C        0.07201    0.85530    0.95240    1.000
    H5       H        0.06490    0.80820    0.99790    1.000
    H6       H        0.10750    0.89730    0.99100    1.000
    C9       C        0.16567    0.72810    0.93270    1.000
    H7       H        0.18910    0.69890    0.89000    1.000
    H8       H        0.19890    0.76620    0.98160    1.000
    C10      C        0.14068    0.65550    0.98640    1.000
    C11      C        0.14102    0.66780    0.08310    1.000
    H9       H        0.15830    0.72290    0.11630    1.000
    C12      C        0.11678    0.60150    0.13200    1.000
    H10      H        0.11610    0.61130    0.19760    1.000
    C13      C        0.09337    0.52030    0.08350    1.000
    C14      C        0.09377    0.50550    0.98760    1.000
    H11      H        0.07810    0.44950    0.95520    1.000
    C15      C        0.11723    0.57330    0.94000    1.000
    H12      H        0.11740    0.56370    0.87420    1.000
    C16      C        0.06900    0.44940    0.13330    1.000
    C17      C        0.40573    0.02970    0.36390    1.000
    C18      C        0.44360    0.10640    0.41520    1.000
    C19      C        0.46712    0.17110    0.36330    1.000
    H13      H        0.45650    0.16650    0.29360    1.000
    C20      C        0.50596    0.24220    0.41310    1.000
    H14      H        0.52220    0.28660    0.37760    1.000
    C21      C        0.52157    0.24970    0.51500    1.000
    C22      C        0.49690    0.18560    0.56590    1.000
    H15      H        0.50690    0.19090    0.63540    1.000
    C23      C        0.45779    0.11370    0.51670    1.000
    H16      H        0.44090    0.06990    0.55210    1.000
    C24      C        0.56548    0.32570    0.56900    1.000
    H17      H        0.55830    0.33590    0.63370    1.000
    H18      H        0.55460    0.38280    0.53030    1.000
    C25      C        0.69451    0.39340    0.65150    1.000
    H19      H        0.67660    0.40750    0.70650    1.000
    H20      H        0.74320    0.38090    0.67980    1.000
    C26      C        0.68439    0.47400    0.58400    1.000
    C27      C        0.71663    0.47730    0.51230    1.000
    H21      H        0.74510    0.42850    0.50690    1.000
    C28      C        0.70780    0.55040    0.44900    1.000
    H22      H        0.72980    0.55210    0.39990    1.000
    C29      C        0.66650    0.62130    0.45770    1.000
    C30      C        0.63364    0.61880    0.52840    1.000
    H23      H        0.60520    0.66770    0.53380    1.000
    C31      C        0.64252    0.54510    0.59080    1.000
    H24      H        0.61970    0.54290    0.63890    1.000
    C32      C        0.65792    0.69820    0.39220    1.000
    Ag2      Ag       0.32055    0.16716    0.79086    1.000
    N5       N        0.22003    0.09660    0.71890    1.000
    N6       N        0.94985    0.39350    0.32730    1.000
    N7       N        0.62232    0.96840    0.17620    1.000
    N8       N        0.34678    0.75820    0.15930    1.000
    S3       S        0.90091    0.80167    0.64318    1.000
    S4       S        0.34752    0.29312    0.91362    1.000
    C33      C        0.17168    0.05580    0.69820    1.000
    C34      C        0.11003    0.00390    0.66580    1.000
    C35      C        0.04927    0.04460    0.66200    1.000
    H25      H        0.04810    0.10520    0.68490    1.000
    C36      C        0.99073    0.99560    0.62450    1.000
    H26      H        0.94890    0.02290    0.62100    1.000
    C37      C        0.99215    0.90740    0.59180    1.000
    C38      C        0.05329    0.86720    0.59780    1.000
    H27      H        0.05450    0.80610    0.57660    1.000
    C39      C        0.11200    0.91520    0.63410    1.000
    H28      H        0.15380    0.88770    0.63760    1.000
    C40      C        0.92799    0.85530    0.54760    1.000
    H29      H        0.93510    0.80820    0.50210    1.000
    H30      H        0.89250    0.89730    0.50900    1.000
    C41      C        0.83433    0.72810    0.56730    1.000
    H31      H        0.81090    0.69890    0.61000    1.000
    H32      H        0.80110    0.76620    0.51840    1.000
    C42      C        0.85932    0.65550    0.51360    1.000
    C43      C        0.85898    0.66780    0.41690    1.000
    H33      H        0.84170    0.72290    0.38370    1.000
    C44      C        0.88322    0.60150    0.36800    1.000
    H34      H        0.88390    0.61130    0.30240    1.000
    C45      C        0.90663    0.52030    0.41650    1.000
    C46      C        0.90623    0.50550    0.51240    1.000
    H35      H        0.92190    0.44950    0.54480    1.000
    C47      C        0.88277    0.57330    0.56000    1.000
    H36      H        0.88260    0.56370    0.62580    1.000
    C48      C        0.93100    0.44940    0.36670    1.000
    C49      C        0.59427    0.02970    0.13610    1.000
    C50      C        0.55640    0.10640    0.08480    1.000
    C51      C        0.53288    0.17110    0.13670    1.000
    H37      H        0.54350    0.16650    0.20640    1.000
    C52      C        0.49404    0.24220    0.08690    1.000
    H38      H        0.47780    0.28660    0.12240    1.000
    C53      C        0.47843    0.24970    0.98500    1.000
    C54      C        0.50310    0.18560    0.93410    1.000
    H39      H        0.49310    0.19090    0.86460    1.000
    C55      C        0.54221    0.11370    0.98330    1.000
    H40      H        0.55910    0.06990    0.94790    1.000
    C56      C        0.43452    0.32570    0.93100    1.000
    H41      H        0.44170    0.33590    0.86630    1.000
    H42      H        0.44540    0.38280    0.96970    1.000
    C57      C        0.30549    0.39340    0.84850    1.000
    H43      H        0.32340    0.40750    0.79350    1.000
    H44      H        0.25680    0.38090    0.82020    1.000
    C58      C        0.31561    0.47400    0.91600    1.000
    C59      C        0.28337    0.47730    0.98770    1.000
    H45      H        0.25490    0.42850    0.99310    1.000
    C60      C        0.29220    0.55040    0.05100    1.000
    H46      H        0.27020    0.55210    0.10010    1.000
    C61      C        0.33350    0.62130    0.04230    1.000
    C62      C        0.36636    0.61880    0.97160    1.000
    H47      H        0.39480    0.66770    0.96620    1.000
    C63      C        0.35748    0.54510    0.90920    1.000
    H48      H        0.38030    0.54290    0.86110    1.000
    C64      C        0.34208    0.69820    0.10780    1.000
    Ag3      Ag       0.32055    0.83284    0.29086    1.000
    N9       N        0.22003    0.90340    0.21890    1.000
    N10      N        0.94985    0.60650    0.82730    1.000
    N11      N        0.62232    0.03160    0.67620    1.000
    N12      N        0.34678    0.24180    0.65930    1.000
    S5       S        0.90091    0.19833    0.14318    1.000
    S6       S        0.34752    0.70688    0.41362    1.000
    C65      C        0.17168    0.94420    0.19820    1.000
    C66      C        0.11003    0.99610    0.16580    1.000
    C67      C        0.04927    0.95540    0.16200    1.000
    H49      H        0.04810    0.89480    0.18490    1.000
    C68      C        0.99073    0.00440    0.12450    1.000
    H50      H        0.94890    0.97710    0.12100    1.000
    C69      C        0.99215    0.09260    0.09180    1.000
    C70      C        0.05329    0.13280    0.09780    1.000
    H51      H        0.05450    0.19390    0.07660    1.000
    C71      C        0.11200    0.08480    0.13410    1.000
    H52      H        0.15380    0.11230    0.13760    1.000
    C72      C        0.92799    0.14470    0.04760    1.000
    H53      H        0.93510    0.19180    0.00210    1.000
    H54      H        0.89250    0.10270    0.00900    1.000
    C73      C        0.83433    0.27190    0.06730    1.000
    H55      H        0.81090    0.30110    0.11000    1.000
    H56      H        0.80110    0.23380    0.01840    1.000
    C74      C        0.85932    0.34450    0.01360    1.000
    C75      C        0.85898    0.33220    0.91690    1.000
    H57      H        0.84170    0.27710    0.88370    1.000
    C76      C        0.88322    0.39850    0.86800    1.000
    H58      H        0.88390    0.38870    0.80240    1.000
    C77      C        0.90663    0.47970    0.91650    1.000
    C78      C        0.90623    0.49450    0.01240    1.000
    H59      H        0.92190    0.55050    0.04480    1.000
    C79      C        0.88277    0.42670    0.06000    1.000
    H60      H        0.88260    0.43630    0.12580    1.000
    C80      C        0.93100    0.55060    0.86670    1.000
    C81      C        0.59427    0.97030    0.63610    1.000
    C82      C        0.55640    0.89360    0.58480    1.000
    C83      C        0.53288    0.82890    0.63670    1.000
    H61      H        0.54350    0.83350    0.70640    1.000
    C84      C        0.49404    0.75780    0.58690    1.000
    H62      H        0.47780    0.71340    0.62240    1.000
    C85      C        0.47843    0.75030    0.48500    1.000
    C86      C        0.50310    0.81440    0.43410    1.000
    H63      H        0.49310    0.80910    0.36460    1.000
    C87      C        0.54221    0.88630    0.48330    1.000
    H64      H        0.55910    0.93010    0.44790    1.000
    C88      C        0.43452    0.67430    0.43100    1.000
    H65      H        0.44170    0.66410    0.36630    1.000
    H66      H        0.44540    0.61720    0.46970    1.000
    C89      C        0.30549    0.60660    0.34850    1.000
    H67      H        0.32340    0.59250    0.29350    1.000
    H68      H        0.25680    0.61910    0.32020    1.000
    C90      C        0.31561    0.52600    0.41600    1.000
    C91      C        0.28337    0.52270    0.48770    1.000
    H69      H        0.25490    0.57150    0.49310    1.000
    C92      C        0.29220    0.44960    0.55100    1.000
    H70      H        0.27020    0.44790    0.60010    1.000
    C93      C        0.33350    0.37870    0.54230    1.000
    C94      C        0.36636    0.38120    0.47160    1.000
    H71      H        0.39480    0.33230    0.46620    1.000
    C95      C        0.35748    0.45490    0.40920    1.000
    H72      H        0.38030    0.45710    0.36110    1.000
    C96      C        0.34208    0.30180    0.60780    1.000
    Ag4      Ag       0.67945    0.83284    0.20914    1.000
    N13      N        0.77997    0.90340    0.28110    1.000
    N14      N        0.05015    0.60650    0.67270    1.000
    N15      N        0.37768    0.03160    0.82380    1.000
    N16      N        0.65322    0.24180    0.84070    1.000
    S7       S        0.09909    0.19833    0.35682    1.000
    S8       S        0.65248    0.70688    0.08638    1.000
    C97      C        0.82832    0.94420    0.30180    1.000
    C98      C        0.88997    0.99610    0.33420    1.000
    C99      C        0.95073    0.95540    0.33800    1.000
    H73      H        0.95190    0.89480    0.31510    1.000
    C100     C        0.00927    0.00440    0.37550    1.000
    H74      H        0.05110    0.97710    0.37900    1.000
    C101     C        0.00785    0.09260    0.40820    1.000
    C102     C        0.94671    0.13280    0.40220    1.000
    H75      H        0.94550    0.19390    0.42340    1.000
    C103     C        0.88800    0.08480    0.36590    1.000
    H76      H        0.84620    0.11230    0.36240    1.000
    C104     C        0.07201    0.14470    0.45240    1.000
    H77      H        0.06490    0.19180    0.49790    1.000
    H78      H        0.10750    0.10270    0.49100    1.000
    C105     C        0.16567    0.27190    0.43270    1.000
    H79      H        0.18910    0.30110    0.39000    1.000
    H80      H        0.19890    0.23380    0.48160    1.000
    C106     C        0.14068    0.34450    0.48640    1.000
    C107     C        0.14102    0.33220    0.58310    1.000
    H81      H        0.15830    0.27710    0.61630    1.000
    C108     C        0.11678    0.39850    0.63200    1.000
    H82      H        0.11610    0.38870    0.69760    1.000
    C109     C        0.09337    0.47970    0.58350    1.000
    C110     C        0.09377    0.49450    0.48760    1.000
    H83      H        0.07810    0.55050    0.45520    1.000
    C111     C        0.11723    0.42670    0.44000    1.000
    H84      H        0.11740    0.43630    0.37420    1.000
    C112     C        0.06900    0.55060    0.63330    1.000
    C113     C        0.40573    0.97030    0.86390    1.000
    C114     C        0.44360    0.89360    0.91520    1.000
    C115     C        0.46712    0.82890    0.86330    1.000
    H85      H        0.45650    0.83350    0.79360    1.000
    C116     C        0.50596    0.75780    0.91310    1.000
    H86      H        0.52220    0.71340    0.87760    1.000
    C117     C        0.52157    0.75030    0.01500    1.000
    C118     C        0.49690    0.81440    0.06590    1.000
    H87      H        0.50690    0.80910    0.13540    1.000
    C119     C        0.45779    0.88630    0.01670    1.000
    H88      H        0.44090    0.93010    0.05210    1.000
    C120     C        0.56548    0.67430    0.06900    1.000
    H89      H        0.55830    0.66410    0.13370    1.000
    H90      H        0.55460    0.61720    0.03030    1.000
    C121     C        0.69451    0.60660    0.15150    1.000
    H91      H        0.67660    0.59250    0.20650    1.000
    H92      H        0.74320    0.61910    0.17980    1.000
    C122     C        0.68439    0.52600    0.08400    1.000
    C123     C        0.71663    0.52270    0.01230    1.000
    H93      H        0.74510    0.57150    0.00690    1.000
    C124     C        0.70780    0.44960    0.94900    1.000
    H94      H        0.72980    0.44790    0.89990    1.000
    C125     C        0.66650    0.37870    0.95770    1.000
    C126     C        0.63364    0.38120    0.02840    1.000
    H95      H        0.60520    0.33230    0.03380    1.000
    C127     C        0.64252    0.45490    0.09080    1.000
    H96      H        0.61970    0.45710    0.13890    1.000
    C128     C        0.65792    0.30180    0.89220    1.000
    Ag5      Ag       0.00000    0.71152    0.75000    1.000
    Ag6      Ag       0.00000    0.28848    0.25000    1.000
