# CIF file generated by openbabel 3.1.0, see https://openbabel.org
data_I
_chemical_name_common 'image0'
_cell_length_a 16.8845
_cell_length_b 16.8845
_cell_length_c 16.8845
_cell_angle_alpha 90
_cell_angle_beta 90
_cell_angle_gamma 90
_space_group_name_H-M_alt 'P 1'
_space_group_name_Hall 'P 1'
loop_
    _symmetry_equiv_pos_as_xyz
    x,y,z
loop_
    _atom_site_label
    _atom_site_type_symbol
    _atom_site_fract_x
    _atom_site_fract_y
    _atom_site_fract_z
    _atom_site_occupancy
    In1      In       0.99224    0.61415    0.54975    1.000
    O1       O        0.08880    0.54260    0.50560    1.000
    O2       O        0.03840    0.71860    0.49960    1.000
    O3       O        0.88690    0.66320    0.59680    1.000
    O4       O        0.88510    0.58000    0.70010    1.000
    C1       C        0.12290    0.62710    0.77380    1.000
    O5       O        0.94670    0.74320    0.40900    1.000
    O6       O        0.05360    0.64660    0.65410    1.000
    C2       C        0.05830    0.83150    0.42090    1.000
    C3       C        0.12480    0.85350    0.46320    1.000
    H1       H        0.14080    0.82330    0.50650    1.000
    C4       C        0.08790    0.59510    0.69670    1.000
    C5       C        0.00990    0.75950    0.44360    1.000
    C6       C        0.09030    0.69470    0.80940    1.000
    H2       H        0.04520    0.71830    0.78850    1.000
    C7       C        0.85930    0.63780    0.66270    1.000
    C8       C        0.75030    0.65550    0.76180    1.000
    H3       H        0.76900    0.61130    0.78880    1.000
    C9       C        0.78930    0.68210    0.69510    1.000
    O7       O        0.09600    0.52420    0.68200    1.000
    In2      In       0.50776    0.38585    0.04975    1.000
    O8       O        0.41120    0.45740    0.00560    1.000
    O9       O        0.46160    0.28140    0.99960    1.000
    O10      O        0.61310    0.33680    0.09680    1.000
    O11      O        0.61490    0.42000    0.20010    1.000
    C10      C        0.37710    0.37290    0.27380    1.000
    O12      O        0.55330    0.25680    0.90900    1.000
    O13      O        0.44640    0.35340    0.15410    1.000
    C11      C        0.44170    0.16850    0.92090    1.000
    C12      C        0.37520    0.14650    0.96320    1.000
    H4       H        0.35920    0.17670    0.00650    1.000
    C13      C        0.41210    0.40490    0.19670    1.000
    C14      C        0.49010    0.24050    0.94360    1.000
    C15      C        0.40970    0.30530    0.30940    1.000
    H5       H        0.45480    0.28170    0.28850    1.000
    C16      C        0.64070    0.36220    0.16270    1.000
    C17      C        0.74970    0.34450    0.26180    1.000
    H6       H        0.73100    0.38870    0.28880    1.000
    C18      C        0.71070    0.31790    0.19510    1.000
    O14      O        0.40400    0.47580    0.18200    1.000
    In3      In       0.00776    0.11415    0.95025    1.000
    O15      O        0.91120    0.04260    0.99440    1.000
    O16      O        0.96160    0.21860    0.00040    1.000
    O17      O        0.11310    0.16320    0.90320    1.000
    O18      O        0.11490    0.08000    0.79990    1.000
    C19      C        0.87710    0.12710    0.72620    1.000
    O19      O        0.05330    0.24320    0.09100    1.000
    O20      O        0.94640    0.14660    0.84590    1.000
    C20      C        0.94170    0.33150    0.07910    1.000
    C21      C        0.87520    0.35350    0.03680    1.000
    H7       H        0.85920    0.32330    0.99350    1.000
    C22      C        0.91210    0.09510    0.80330    1.000
    C23      C        0.99010    0.25950    0.05640    1.000
    C24      C        0.90970    0.19470    0.69060    1.000
    H8       H        0.95480    0.21830    0.71150    1.000
    C25      C        0.14070    0.13780    0.83730    1.000
    C26      C        0.24970    0.15550    0.73820    1.000
    H9       H        0.23100    0.11130    0.71120    1.000
    C27      C        0.21070    0.18210    0.80490    1.000
    O21      O        0.90400    0.02420    0.81800    1.000
    In4      In       0.49224    0.88585    0.45025    1.000
    O22      O        0.58880    0.95740    0.49440    1.000
    O23      O        0.53840    0.78140    0.50040    1.000
    O24      O        0.38690    0.83680    0.40320    1.000
    O25      O        0.38510    0.92000    0.29990    1.000
    C28      C        0.62290    0.87290    0.22620    1.000
    O26      O        0.44670    0.75680    0.59100    1.000
    O27      O        0.55360    0.85340    0.34590    1.000
    C29      C        0.55830    0.66850    0.57910    1.000
    C30      C        0.62480    0.64650    0.53680    1.000
    H10      H        0.64080    0.67670    0.49350    1.000
    C31      C        0.58790    0.90490    0.30330    1.000
    C32      C        0.50990    0.74050    0.55640    1.000
    C33      C        0.59030    0.80530    0.19060    1.000
    H11      H        0.54520    0.78170    0.21150    1.000
    C34      C        0.35930    0.86220    0.33730    1.000
    C35      C        0.25030    0.84450    0.23820    1.000
    H12      H        0.26900    0.88870    0.21120    1.000
    C36      C        0.28930    0.81790    0.30490    1.000
    O28      O        0.59600    0.97580    0.31800    1.000
    In5      In       0.54975    0.99224    0.61415    1.000
    O29      O        0.50560    0.08880    0.54260    1.000
    O30      O        0.49960    0.03840    0.71860    1.000
    O31      O        0.59680    0.88690    0.66320    1.000
    O32      O        0.70010    0.88510    0.58000    1.000
    C37      C        0.77380    0.12290    0.62710    1.000
    O33      O        0.40900    0.94670    0.74320    1.000
    O34      O        0.65410    0.05360    0.64660    1.000
    C38      C        0.42090    0.05830    0.83150    1.000
    C39      C        0.46320    0.12480    0.85350    1.000
    H13      H        0.50650    0.14080    0.82330    1.000
    C40      C        0.69670    0.08790    0.59510    1.000
    C41      C        0.44360    0.00990    0.75950    1.000
    C42      C        0.80940    0.09030    0.69470    1.000
    H14      H        0.78850    0.04520    0.71830    1.000
    C43      C        0.66270    0.85930    0.63780    1.000
    C44      C        0.76180    0.75030    0.65550    1.000
    H15      H        0.78880    0.76900    0.61130    1.000
    C45      C        0.69510    0.78930    0.68210    1.000
    O35      O        0.68200    0.09600    0.52420    1.000
    In6      In       0.04975    0.50776    0.38585    1.000
    O36      O        0.00560    0.41120    0.45740    1.000
    O37      O        0.99960    0.46160    0.28140    1.000
    O38      O        0.09680    0.61310    0.33680    1.000
    O39      O        0.20010    0.61490    0.42000    1.000
    C46      C        0.27380    0.37710    0.37290    1.000
    O40      O        0.90900    0.55330    0.25680    1.000
    O41      O        0.15410    0.44640    0.35340    1.000
    C47      C        0.92090    0.44170    0.16850    1.000
    C48      C        0.96320    0.37520    0.14650    1.000
    H16      H        0.00650    0.35920    0.17670    1.000
    C49      C        0.19670    0.41210    0.40490    1.000
    C50      C        0.94360    0.49010    0.24050    1.000
    C51      C        0.30940    0.40970    0.30530    1.000
    H17      H        0.28850    0.45480    0.28170    1.000
    C52      C        0.16270    0.64070    0.36220    1.000
    C53      C        0.26180    0.74970    0.34450    1.000
    H18      H        0.28880    0.73100    0.38870    1.000
    C54      C        0.19510    0.71070    0.31790    1.000
    O42      O        0.18200    0.40400    0.47580    1.000
    In7      In       0.95025    0.00776    0.11415    1.000
    O43      O        0.99440    0.91120    0.04260    1.000
    O44      O        0.00040    0.96160    0.21860    1.000
    O45      O        0.90320    0.11310    0.16320    1.000
    O46      O        0.79990    0.11490    0.08000    1.000
    C55      C        0.72620    0.87710    0.12710    1.000
    O47      O        0.09100    0.05330    0.24320    1.000
    O48      O        0.84590    0.94640    0.14660    1.000
    C56      C        0.07910    0.94170    0.33150    1.000
    C57      C        0.03680    0.87520    0.35350    1.000
    H19      H        0.99350    0.85920    0.32330    1.000
    C58      C        0.80330    0.91210    0.09510    1.000
    C59      C        0.05640    0.99010    0.25950    1.000
    C60      C        0.69060    0.90970    0.19470    1.000
    H20      H        0.71150    0.95480    0.21830    1.000
    C61      C        0.83730    0.14070    0.13780    1.000
    C62      C        0.73820    0.24970    0.15550    1.000
    H21      H        0.71120    0.23100    0.11130    1.000
    C63      C        0.80490    0.21070    0.18210    1.000
    O49      O        0.81800    0.90400    0.02420    1.000
    In8      In       0.45025    0.49224    0.88585    1.000
    O50      O        0.49440    0.58880    0.95740    1.000
    O51      O        0.50040    0.53840    0.78140    1.000
    O52      O        0.40320    0.38690    0.83680    1.000
    O53      O        0.29990    0.38510    0.92000    1.000
    C64      C        0.22620    0.62290    0.87290    1.000
    O54      O        0.59100    0.44670    0.75680    1.000
    O55      O        0.34590    0.55360    0.85340    1.000
    C65      C        0.57910    0.55830    0.66850    1.000
    C66      C        0.53680    0.62480    0.64650    1.000
    H22      H        0.49350    0.64080    0.67670    1.000
    C67      C        0.30330    0.58790    0.90490    1.000
    C68      C        0.55640    0.50990    0.74050    1.000
    C69      C        0.19060    0.59030    0.80530    1.000
    H23      H        0.21150    0.54520    0.78170    1.000
    C70      C        0.33730    0.35930    0.86220    1.000
    C71      C        0.23820    0.25030    0.84450    1.000
    H24      H        0.21120    0.26900    0.88870    1.000
    C72      C        0.30490    0.28930    0.81790    1.000
    O56      O        0.31800    0.59600    0.97580    1.000
    In9      In       0.61415    0.54975    0.99224    1.000
    O57      O        0.54260    0.50560    0.08880    1.000
    O58      O        0.71860    0.49960    0.03840    1.000
    O59      O        0.66320    0.59680    0.88690    1.000
    O60      O        0.58000    0.70010    0.88510    1.000
    C73      C        0.62710    0.77380    0.12290    1.000
    O61      O        0.74320    0.40900    0.94670    1.000
    O62      O        0.64660    0.65410    0.05360    1.000
    C74      C        0.83150    0.42090    0.05830    1.000
    C75      C        0.85350    0.46320    0.12480    1.000
    H25      H        0.82330    0.50650    0.14080    1.000
    C76      C        0.59510    0.69670    0.08790    1.000
    C77      C        0.75950    0.44360    0.00990    1.000
    C78      C        0.69470    0.80940    0.09030    1.000
    H26      H        0.71830    0.78850    0.04520    1.000
    C79      C        0.63780    0.66270    0.85930    1.000
    C80      C        0.65550    0.76180    0.75030    1.000
    H27      H        0.61130    0.78880    0.76900    1.000
    C81      C        0.68210    0.69510    0.78930    1.000
    O63      O        0.52420    0.68200    0.09600    1.000
    In10     In       0.38585    0.04975    0.50776    1.000
    O64      O        0.45740    0.00560    0.41120    1.000
    O65      O        0.28140    0.99960    0.46160    1.000
    O66      O        0.33680    0.09680    0.61310    1.000
    O67      O        0.42000    0.20010    0.61490    1.000
    C82      C        0.37290    0.27380    0.37710    1.000
    O68      O        0.25680    0.90900    0.55330    1.000
    O69      O        0.35340    0.15410    0.44640    1.000
    C83      C        0.16850    0.92090    0.44170    1.000
    C84      C        0.14650    0.96320    0.37520    1.000
    H28      H        0.17670    0.00650    0.35920    1.000
    C85      C        0.40490    0.19670    0.41210    1.000
    C86      C        0.24050    0.94360    0.49010    1.000
    C87      C        0.30530    0.30940    0.40970    1.000
    H29      H        0.28170    0.28850    0.45480    1.000
    C88      C        0.36220    0.16270    0.64070    1.000
    C89      C        0.34450    0.26180    0.74970    1.000
    H30      H        0.38870    0.28880    0.73100    1.000
    C90      C        0.31790    0.19510    0.71070    1.000
    O70      O        0.47580    0.18200    0.40400    1.000
    In11     In       0.11415    0.95025    0.00776    1.000
    O71      O        0.04260    0.99440    0.91120    1.000
    O72      O        0.21860    0.00040    0.96160    1.000
    O73      O        0.16320    0.90320    0.11310    1.000
    O74      O        0.08000    0.79990    0.11490    1.000
    C91      C        0.12710    0.72620    0.87710    1.000
    O75      O        0.24320    0.09100    0.05330    1.000
    O76      O        0.14660    0.84590    0.94640    1.000
    C92      C        0.33150    0.07910    0.94170    1.000
    C93      C        0.35350    0.03680    0.87520    1.000
    H31      H        0.32330    0.99350    0.85920    1.000
    C94      C        0.09510    0.80330    0.91210    1.000
    C95      C        0.25950    0.05640    0.99010    1.000
    C96      C        0.19470    0.69060    0.90970    1.000
    H32      H        0.21830    0.71150    0.95480    1.000
    C97      C        0.13780    0.83730    0.14070    1.000
    C98      C        0.15550    0.73820    0.24970    1.000
    H33      H        0.11130    0.71120    0.23100    1.000
    C99      C        0.18210    0.80490    0.21070    1.000
    O77      O        0.02420    0.81800    0.90400    1.000
    In12     In       0.88585    0.45025    0.49224    1.000
    O78      O        0.95740    0.49440    0.58880    1.000
    O79      O        0.78140    0.50040    0.53840    1.000
    O80      O        0.83680    0.40320    0.38690    1.000
    O81      O        0.92000    0.29990    0.38510    1.000
    C100     C        0.87290    0.22620    0.62290    1.000
    O82      O        0.75680    0.59100    0.44670    1.000
    O83      O        0.85340    0.34590    0.55360    1.000
    C101     C        0.66850    0.57910    0.55830    1.000
    C102     C        0.64650    0.53680    0.62480    1.000
    H34      H        0.67670    0.49350    0.64080    1.000
    C103     C        0.90490    0.30330    0.58790    1.000
    C104     C        0.74050    0.55640    0.50990    1.000
    C105     C        0.80530    0.19060    0.59030    1.000
    H35      H        0.78170    0.21150    0.54520    1.000
    C106     C        0.86220    0.33730    0.35930    1.000
    C107     C        0.84450    0.23820    0.25030    1.000
    H36      H        0.88870    0.21120    0.26900    1.000
    C108     C        0.81790    0.30490    0.28930    1.000
    O84      O        0.97580    0.31800    0.59600    1.000
    Sm1      Sm       0.08394    0.41606    0.58394    1.000
    O85      O        0.93980    0.56020    0.43980    1.000
    Sm2      Sm       0.41606    0.58394    0.08394    1.000
    O86      O        0.56020    0.43980    0.93980    1.000
    Sm3      Sm       0.91606    0.91606    0.91606    1.000
    O87      O        0.06020    0.06020    0.06020    1.000
    Sm4      Sm       0.58394    0.08394    0.41606    1.000
    O88      O        0.43980    0.93980    0.56020    1.000
