data_functionalizedCrystal
_audit_creation_method	'EQeq! by Chris Wilmer'
_symmetry_space_group_name_H-M	'P1'
_symmetry_Int_Tables_number	1
_symmetry_cell_setting	triclinic
loop_
_symmetry_equiv_pos_as_xyz
  x,y,z
_cell_length_a	9.804
_cell_length_b	16.8386
_cell_length_c	16.8386
_cell_angle_alpha	85.1384
_cell_angle_beta	73.0752
_cell_angle_gamma	73.0753
loop_
_atom_site_label
_atom_site_type_symbol
_atom_site_fract_x
_atom_site_fract_y
_atom_site_fract_z
_atom_site_charge
Mof_Cu	Cu	1.90406e-17	0.5	0.5	0.774
Mof_Cu	Cu	0.5	0	-0	0.737
Mof_Cu	Cu	0.5	0.5	-0	0.761
Mof_Cu	Cu	0.5	8.52284e-23	0.5	0.761
Mof_H 	H 	0.2757	0.5208	0.3852	-0.088
Mof_H 	H 	0.5142	0.4464	0.3234	0.132
Mof_H 	H 	0.4067	0.2413	0.4219	0.132
Mof_H 	H 	0.1696	0.322	0.4762	-0.082
Mof_H 	H 	0.6981	0.3489	0.2367	0.005
Mof_H 	H 	0.7546	0.3611	0.3121	-0
Mof_H 	H 	0.6817	0.9792	0.1148	0.014
Mof_H 	H 	0.784	0.0536	0.1766	0.084
Mof_H 	H 	0.5699	0.2587	0.0781	0.116
Mof_H 	H 	0.4678	0.178	0.0238	-0.083
Mof_H 	H 	0.7837	0.1511	0.2633	0.004
Mof_H 	H 	0.9278	0.1389	0.1879	-0.004
Mof_H 	H 	0.6609	0.6148	0.0208	-0.181
Mof_H 	H 	0.8376	0.6766	0.9464	0.182
Mof_H 	H 	0.8286	0.5781	0.7413	0.146
Mof_H 	H 	0.6458	0.5238	0.822	-0.077
Mof_H 	H 	0.9348	0.7633	0.8489	0.077
Mof_H 	H 	0.0667	0.6879	0.8611	0.04
Mof_H 	H 	0.7965	0.8852	0.4792	-0.069
Mof_H 	H 	0.9606	0.8234	0.5536	0.141
Mof_H 	H 	0.648	0.9219	0.7587	0.141
Mof_H 	H 	0.4916	0.9762	0.678	-0.061
Mof_H 	H 	0.047	0.7367	0.6511	0.021
Mof_H 	H 	0.1157	0.8121	0.6389	0.021
Mof_H 	H 	0.7243	0.4792	0.6148	-0.078
Mof_H 	H 	0.4858	0.5536	0.6766	0.131
Mof_H 	H 	0.5933	0.7587	0.5781	0.135
Mof_H 	H 	0.8304	0.678	0.5238	-0.069
Mof_H 	H 	0.3019	0.6511	0.7633	0.023
Mof_H 	H 	0.2454	0.6389	0.6879	0.01
Mof_H 	H 	0.3183	0.0208	0.8852	-0.173
Mof_H 	H 	0.216	0.9464	0.8234	0.177
Mof_H 	H 	0.4301	0.7413	0.9219	0.15
Mof_H 	H 	0.5322	0.822	0.9762	-0.063
Mof_H 	H 	0.2163	0.8489	0.7367	0.024
Mof_H 	H 	0.0722	0.8611	0.8121	0.014
Mof_H 	H 	0.3391	0.3852	0.9792	0.016
Mof_H 	H 	0.1624	0.3234	0.0536	0.081
Mof_H 	H 	0.1714	0.4219	0.2587	0.12
Mof_H 	H 	0.3542	0.4762	0.178	-0.073
Mof_H 	H 	0.0652	0.2367	0.1511	-0.045
Mof_H 	H 	0.9333	0.3121	0.1389	-0.028
Mof_H 	H 	0.2035	0.1148	0.5208	-0.096
Mof_H 	H 	0.0394	0.1766	0.4464	0.122
Mof_H 	H 	0.352	0.0781	0.2413	0.127
Mof_H 	H 	0.5084	0.0238	0.322	-0.089
Mof_H 	H 	0.953	0.2633	0.3489	0.006
Mof_H 	H 	0.8843	0.1879	0.3611	-0.011
Mof_C 	C 	0.30319	0.46365	0.39281	0.175
Mof_C 	C 	0.44628	0.41972	0.356	-0.336
Mof_C 	C 	0.48752	0.33608	0.36786	0.324
Mof_C 	C 	0.38246	0.29848	0.41364	-0.322
Mof_C 	C 	0.24146	0.34748	0.44664	0.175
Mof_C 	C 	0.73416	0.32091	0.28247	0.097
Mof_C 	C 	0.65965	0.03635	0.10719	0.008
Mof_C 	C 	0.722	0.08028	0.144	-0.238
Mof_C 	C 	0.69146	0.16392	0.13214	0.271
Mof_C 	C 	0.59458	0.20152	0.08636	-0.286
Mof_C 	C 	0.53558	0.15252	0.05336	0.144
Mof_C 	C 	0.83754	0.17909	0.21753	0.096
Mof_C 	C 	0.696	0.60719	0.96365	0.336
Mof_C 	C 	0.80228	0.644	0.91972	-0.417
Mof_C 	C 	0.85538	0.63214	0.83608	0.358
Mof_C 	C 	0.7961	0.58636	0.79848	-0.344
Mof_C 	C 	0.6881	0.55336	0.84748	0.199
Mof_C 	C 	0.01663	0.71753	0.82091	-0.057
Mof_C 	C 	0.76684	0.89281	0.53635	0.178
Mof_C 	C 	0.866	0.856	0.58028	-0.32
Mof_C 	C 	0.8236	0.86786	0.66392	0.319
Mof_C 	C 	0.68094	0.91364	0.70152	-0.307
Mof_C 	C 	0.58894	0.94664	0.65252	0.178
Mof_C 	C 	0.05507	0.78247	0.67909	0.006
Mof_C 	C 	0.69681	0.53635	0.60719	0.173
Mof_C 	C 	0.55372	0.58028	0.644	-0.329
Mof_C 	C 	0.51248	0.66392	0.63214	0.318
Mof_C 	C 	0.61754	0.70152	0.58636	-0.315
Mof_C 	C 	0.75854	0.65252	0.55336	0.173
Mof_C 	C 	0.26584	0.67909	0.71753	0.043
Mof_C 	C 	0.34035	0.96365	0.89281	0.335
Mof_C 	C 	0.278	0.91972	0.856	-0.422
Mof_C 	C 	0.30854	0.83608	0.86786	0.369
Mof_C 	C 	0.40542	0.79848	0.91364	-0.347
Mof_C 	C 	0.46442	0.84748	0.94664	0.202
Mof_C 	C 	0.16246	0.82091	0.78247	0.044
Mof_C 	C 	0.304	0.39281	0.03635	0.013
Mof_C 	C 	0.19772	0.356	0.08028	-0.246
Mof_C 	C 	0.14462	0.36786	0.16392	0.282
Mof_C 	C 	0.2039	0.41364	0.20152	-0.291
Mof_C 	C 	0.3119	0.44664	0.15252	0.149
Mof_C 	C 	0.98337	0.28247	0.17909	0.19
Mof_C 	C 	0.23316	0.10719	0.46365	0.17
Mof_C 	C 	0.134	0.144	0.41972	-0.343
Mof_C 	C 	0.1764	0.13214	0.33608	0.322
Mof_C 	C 	0.31906	0.08636	0.29848	-0.329
Mof_C 	C 	0.41106	0.05336	0.34748	0.171
Mof_C 	C 	0.94493	0.21753	0.32091	0.132
Mof_C 	C 	0.875	0.25	0.25	-0.091
Mof_C 	C 	0.125	0.75	0.75	0.007
Mof_N 	N 	0.20209	0.4286	0.43878	-0.315
Mof_N 	N 	0.56947	0.0714	0.06122	-0.292
Mof_N 	N 	0.64087	0.56122	0.9286	-0.326
Mof_N 	N 	0.63069	0.93878	0.5714	-0.294
Mof_N 	N 	0.79791	0.5714	0.56122	-0.303
Mof_N 	N 	0.43053	0.9286	0.93878	-0.312
Mof_N 	N 	0.35913	0.43878	0.0714	-0.287
Mof_N 	N 	0.36931	0.06122	0.4286	-0.319
Mof_O 	O 	0.6258	0.28509	0.33711	-0.285
Mof_O 	O 	0.748	0.21491	0.16289	-0.274
Mof_O 	O 	0.96291	0.66289	0.78509	-0.244
Mof_O 	O 	0.91089	0.83711	0.71491	-0.242
Mof_O 	O 	0.3742	0.71491	0.66289	-0.273
Mof_O 	O 	0.252	0.78509	0.83711	-0.283
Mof_O 	O 	0.03709	0.33711	0.21491	-0.311
Mof_O 	O 	0.08911	0.16289	0.28509	-0.312
_end
