data_functionalizedCrystal
_audit_creation_method	'EQeq! by Chris Wilmer'
_symmetry_space_group_name_H-M	'P1'
_symmetry_Int_Tables_number	1
_symmetry_cell_setting	triclinic
loop_
_symmetry_equiv_pos_as_xyz
  x,y,z
_cell_length_a	35.242
_cell_length_b	35.242
_cell_length_c	13.493
_cell_angle_alpha	90
_cell_angle_beta	90
_cell_angle_gamma	120
loop_
_atom_site_label
_atom_site_type_symbol
_atom_site_fract_x
_atom_site_fract_y
_atom_site_fract_z
_atom_site_charge
Mof_O 	O 	0.31302	0.05391	0.1	-0.517
Mof_O 	O 	0.04338	0.32977	0.16509	-0.493
Mof_O 	O 	0.06674	0.38444	0.27937	-0.489
Mof_C 	C 	0.35355	0.15054	0.24313	0.095
Mof_C 	C 	0.35355	0.18942	0.24313	-0.141
Mof_C 	C 	0.29433	0.31479	0.1689	-0.144
Mof_C 	C 	0.29433	0.35311	0.1689	0.091
Mof_C 	C 	0.25437	0.35526	0.17599	-0.048
Mof_C 	C 	0.2229	0.35695	0.18157	-0.03
Mof_C 	C 	0.18376	0.35905	0.18851	0.063
Mof_C 	C 	0.14679	0.32799	0.13891	-0.123
Mof_C 	C 	0.1093	0.33	0.14556	0.06
Mof_C 	C 	0.10987	0.36302	0.20161	-0.133
Mof_C 	C 	0.14684	0.39408	0.25121	0.048
Mof_C 	C 	0.18433	0.39207	0.24456	-0.11
Mof_C 	C 	0.06991	0.36517	0.2087	0.39
Mof_H 	H 	0.36831	0.14241	0.29894	-0.003
Mof_H 	H 	0.36831	0.20967	0.29894	0.069
Mof_H 	H 	0.26586	0.28702	0.17053	0.069
Mof_H 	H 	0.14677	0.30387	0.09792	0.039
Mof_H 	H 	0.08191	0.30735	0.10943	-0.007
Mof_H 	H 	0.14686	0.41821	0.2922	0.025
Mof_H 	H 	0.21172	0.41472	0.2807	0.06
Mof_O 	O 	0.97969	0.38724	0.43333	-0.512
Mof_O 	O 	0.71005	0.6631	0.49842	-0.5
Mof_O 	O 	0.73341	0.71777	0.6127	-0.484
Mof_C 	C 	0.02022	0.48387	0.57646	0.101
Mof_C 	C 	0.02022	0.52275	0.57646	-0.138
Mof_C 	C 	0.961	0.64812	0.50223	-0.133
Mof_C 	C 	0.961	0.68644	0.50223	0.113
Mof_C 	C 	0.92104	0.68859	0.50932	-0.042
Mof_C 	C 	0.88957	0.69028	0.5149	-0.018
Mof_C 	C 	0.85043	0.69238	0.52184	0.069
Mof_C 	C 	0.81346	0.66132	0.47224	-0.119
Mof_C 	C 	0.77597	0.66333	0.47889	0.069
Mof_C 	C 	0.77654	0.69635	0.53494	-0.133
Mof_C 	C 	0.81351	0.72741	0.58454	0.052
Mof_C 	C 	0.851	0.7254	0.57789	-0.108
Mof_C 	C 	0.73658	0.6985	0.54203	0.394
Mof_H 	H 	0.03498	0.47574	0.63227	0
Mof_H 	H 	0.03498	0.543	0.63227	0.072
Mof_H 	H 	0.93253	0.62035	0.50386	0.076
Mof_H 	H 	0.81344	0.6372	0.43125	0.059
Mof_H 	H 	0.74858	0.64068	0.44276	0.003
Mof_H 	H 	0.81353	0.75154	0.62553	0.029
Mof_H 	H 	0.87839	0.74805	0.61403	0.067
Mof_O 	O 	0.64635	0.72058	0.76667	-0.508
Mof_O 	O 	0.37671	0.99644	0.83176	-0.466
Mof_O 	O 	0.40007	0.05111	0.94604	-0.431
Mof_C 	C 	0.68688	0.81721	0.9098	0.102
Mof_C 	C 	0.68688	0.85609	0.9098	-0.127
Mof_C 	C 	0.62766	0.98146	0.83557	-0.128
Mof_C 	C 	0.62766	0.01978	0.83557	0.097
Mof_C 	C 	0.5877	0.02193	0.84266	-0.034
Mof_C 	C 	0.55623	0.02362	0.84824	-0.011
Mof_C 	C 	0.51709	0.02572	0.85518	0.06
Mof_C 	C 	0.48012	0.99466	0.80558	-0.098
Mof_C 	C 	0.44263	0.99667	0.81223	0.08
Mof_C 	C 	0.4432	0.02969	0.86828	-0.129
Mof_C 	C 	0.48017	0.06075	0.91788	0.054
Mof_C 	C 	0.51766	0.05874	0.91123	-0.096
Mof_C 	C 	0.40324	0.03184	0.87537	0.376
Mof_H 	H 	0.70164	0.80908	0.96561	0.024
Mof_H 	H 	0.70164	0.87634	0.96561	0.092
Mof_H 	H 	0.59919	0.95369	0.8372	0.087
Mof_H 	H 	0.4801	0.97054	0.76459	0.062
Mof_H 	H 	0.41524	0.97402	0.7761	0.007
Mof_H 	H 	0.48019	0.08488	0.95887	0.039
Mof_H 	H 	0.54505	0.08139	0.94737	0.073
Mof_O 	O 	0.94609	0.25911	0.1	-0.513
Mof_O 	O 	0.67023	0.71361	0.16509	-0.491
Mof_O 	O 	0.61556	0.6823	0.27937	-0.484
Mof_C 	C 	0.84946	0.20301	0.24313	0.096
Mof_C 	C 	0.81058	0.16413	0.24313	-0.141
Mof_C 	C 	0.68521	0.97954	0.1689	-0.128
Mof_C 	C 	0.64689	0.94122	0.1689	0.089
Mof_C 	C 	0.64474	0.89911	0.17599	-0.046
Mof_C 	C 	0.64305	0.86595	0.18157	-0.03
Mof_C 	C 	0.64095	0.82471	0.18851	0.064
Mof_C 	C 	0.67201	0.8188	0.13891	-0.123
Mof_C 	C 	0.67	0.7793	0.14556	0.061
Mof_C 	C 	0.63698	0.74685	0.20161	-0.133
Mof_C 	C 	0.60592	0.75276	0.25121	0.048
Mof_C 	C 	0.60793	0.79226	0.24456	-0.11
Mof_C 	C 	0.63483	0.70474	0.2087	0.39
Mof_H 	H 	0.85759	0.2259	0.29894	-0.003
Mof_H 	H 	0.79033	0.15864	0.29894	0.069
Mof_H 	H 	0.71298	0.97884	0.17053	0.069
Mof_H 	H 	0.69613	0.8429	0.09792	0.04
Mof_H 	H 	0.69265	0.77456	0.10943	-0.006
Mof_H 	H 	0.58179	0.72865	0.2922	0.025
Mof_H 	H 	0.58528	0.797	0.2807	0.061
Mof_O 	O 	0.61276	0.59244	0.43333	-0.521
Mof_O 	O 	0.3369	0.04694	0.49842	-0.502
Mof_O 	O 	0.28223	0.01563	0.6127	-0.493
Mof_C 	C 	0.51613	0.53634	0.57646	0.101
Mof_C 	C 	0.47725	0.49746	0.57646	-0.139
Mof_C 	C 	0.35188	0.31287	0.50223	-0.143
Mof_C 	C 	0.31356	0.27455	0.50223	0.1
Mof_C 	C 	0.31141	0.23244	0.50932	-0.041
Mof_C 	C 	0.30972	0.19928	0.5149	-0.022
Mof_C 	C 	0.30762	0.15804	0.52184	0.069
Mof_C 	C 	0.33868	0.15213	0.47224	-0.119
Mof_C 	C 	0.33667	0.11263	0.47889	0.069
Mof_C 	C 	0.30365	0.08018	0.53494	-0.134
Mof_C 	C 	0.27259	0.08609	0.58454	0.051
Mof_C 	C 	0.2746	0.12559	0.57789	-0.11
Mof_C 	C 	0.3015	0.03807	0.54203	0.392
Mof_H 	H 	0.52426	0.55923	0.63227	0
Mof_H 	H 	0.457	0.49197	0.63227	0.074
Mof_H 	H 	0.37965	0.31217	0.50386	0.077
Mof_H 	H 	0.3628	0.17623	0.43125	0.059
Mof_H 	H 	0.35932	0.10789	0.44276	0.003
Mof_H 	H 	0.24846	0.06198	0.62553	0.026
Mof_H 	H 	0.25195	0.13033	0.61403	0.064
Mof_O 	O 	0.27942	0.92578	0.76667	-0.508
Mof_O 	O 	0.00356	0.38028	0.83176	-0.483
Mof_O 	O 	0.94889	0.34897	0.94604	-0.433
Mof_C 	C 	0.18279	0.86968	0.9098	0.102
Mof_C 	C 	0.14391	0.8308	0.9098	-0.128
Mof_C 	C 	0.01854	0.64621	0.83557	-0.154
Mof_C 	C 	0.98022	0.60789	0.83557	0.124
Mof_C 	C 	0.97807	0.56578	0.84266	-0.031
Mof_C 	C 	0.97638	0.53262	0.84824	-0.008
Mof_C 	C 	0.97428	0.49138	0.85518	0.088
Mof_C 	C 	0.00534	0.48547	0.80558	-0.123
Mof_C 	C 	0.00333	0.44597	0.81223	0.061
Mof_C 	C 	0.97031	0.41352	0.86828	-0.108
Mof_C 	C 	0.93925	0.41943	0.91788	0.054
Mof_C 	C 	0.94126	0.45893	0.91123	-0.101
Mof_C 	C 	0.96816	0.37141	0.87537	0.396
Mof_H 	H 	0.19092	0.89257	0.96561	0.024
Mof_H 	H 	0.12366	0.82531	0.96561	0.091
Mof_H 	H 	0.04631	0.64551	0.8372	0.091
Mof_H 	H 	0.02946	0.50957	0.76459	0.066
Mof_H 	H 	0.02598	0.44123	0.7761	0.012
Mof_H 	H 	0.91512	0.39532	0.95887	0.04
Mof_H 	H 	0.91861	0.46367	0.94737	0.076
Mof_O 	O 	0.74089	0.68698	0.1	-0.519
Mof_O 	O 	0.28639	0.95662	0.16509	-0.482
Mof_O 	O 	0.3177	0.93326	0.27937	-0.477
Mof_C 	C 	0.79699	0.64645	0.24313	0.096
Mof_C 	C 	0.83587	0.64645	0.24313	-0.14
Mof_C 	C 	0.02046	0.70567	0.1689	-0.159
Mof_C 	C 	0.05878	0.70567	0.1689	0.094
Mof_C 	C 	0.10089	0.74563	0.17599	-0.05
Mof_C 	C 	0.13405	0.7771	0.18157	-0.028
Mof_C 	C 	0.17529	0.81624	0.18851	0.061
Mof_C 	C 	0.1812	0.85321	0.13891	-0.121
Mof_C 	C 	0.2207	0.8907	0.14556	0.059
Mof_C 	C 	0.25315	0.89013	0.20161	-0.131
Mof_C 	C 	0.24724	0.85316	0.25121	0.046
Mof_C 	C 	0.20774	0.81567	0.24456	-0.108
Mof_C 	C 	0.29526	0.93009	0.2087	0.387
Mof_H 	H 	0.7741	0.63169	0.29894	-0.003
Mof_H 	H 	0.84136	0.63169	0.29894	0.069
Mof_H 	H 	0.02116	0.73414	0.17053	0.072
Mof_H 	H 	0.1571	0.85323	0.09792	0.039
Mof_H 	H 	0.22544	0.91809	0.10943	-0.004
Mof_H 	H 	0.27135	0.85314	0.2922	0.025
Mof_H 	H 	0.203	0.78828	0.2807	0.06
Mof_O 	O 	0.40756	0.02031	0.43333	-0.518
Mof_O 	O 	0.95306	0.28995	0.49842	-0.498
Mof_O 	O 	0.98437	0.26659	0.6127	-0.477
Mof_C 	C 	0.46366	0.97978	0.57646	0.112
Mof_C 	C 	0.50254	0.97978	0.57646	-0.126
Mof_C 	C 	0.68713	0.039	0.50223	-0.143
Mof_C 	C 	0.72545	0.039	0.50223	0.105
Mof_C 	C 	0.76756	0.07896	0.50932	-0.043
Mof_C 	C 	0.80072	0.11043	0.5149	-0.02
Mof_C 	C 	0.84196	0.14957	0.52184	0.069
Mof_C 	C 	0.84787	0.18654	0.47224	-0.119
Mof_C 	C 	0.88737	0.22403	0.47889	0.07
Mof_C 	C 	0.91982	0.22346	0.53494	-0.133
Mof_C 	C 	0.91391	0.18649	0.58454	0.052
Mof_C 	C 	0.87441	0.149	0.57789	-0.108
Mof_C 	C 	0.96193	0.26342	0.54203	0.396
Mof_H 	H 	0.44077	0.96502	0.63227	-0.001
Mof_H 	H 	0.50803	0.96502	0.63227	0.073
Mof_H 	H 	0.68783	0.06747	0.50386	0.077
Mof_H 	H 	0.82377	0.18656	0.43125	0.059
Mof_H 	H 	0.89211	0.25142	0.44276	0.003
Mof_H 	H 	0.93802	0.18647	0.62553	0.03
Mof_H 	H 	0.86967	0.12161	0.61403	0.065
Mof_O 	O 	0.07422	0.35365	0.76667	-0.505
Mof_O 	O 	0.61972	0.62329	0.83176	-0.477
Mof_O 	O 	0.65103	0.59993	0.94604	-0.436
Mof_C 	C 	0.13032	0.31312	0.9098	0.102
Mof_C 	C 	0.1692	0.31312	0.9098	-0.128
Mof_C 	C 	0.35379	0.37234	0.83557	-0.141
Mof_C 	C 	0.39211	0.37234	0.83557	0.11
Mof_C 	C 	0.43422	0.4123	0.84266	-0.033
Mof_C 	C 	0.46738	0.44377	0.84824	-0.01
Mof_C 	C 	0.50862	0.48291	0.85518	0.074
Mof_C 	C 	0.51453	0.51988	0.80558	-0.111
Mof_C 	C 	0.55403	0.55737	0.81223	0.071
Mof_C 	C 	0.58648	0.5568	0.86828	-0.119
Mof_C 	C 	0.58057	0.51983	0.91788	0.054
Mof_C 	C 	0.54107	0.48234	0.91123	-0.099
Mof_C 	C 	0.62859	0.59676	0.87537	0.386
Mof_H 	H 	0.10743	0.29836	0.96561	0.023
Mof_H 	H 	0.17469	0.29836	0.96561	0.091
Mof_H 	H 	0.35449	0.40081	0.8372	0.089
Mof_H 	H 	0.49043	0.5199	0.76459	0.064
Mof_H 	H 	0.55877	0.58476	0.7761	0.01
Mof_H 	H 	0.60468	0.51981	0.95887	0.04
Mof_H 	H 	0.53633	0.45495	0.94737	0.075
Mof_O 	O 	0.05391	0.31302	0.9	-0.471
Mof_O 	O 	0.32977	0.04338	0.83491	-0.475
Mof_O 	O 	0.38444	0.06674	0.72063	-0.49
Mof_C 	C 	0.15054	0.35355	0.75687	0.097
Mof_C 	C 	0.18942	0.35355	0.75687	-0.132
Mof_C 	C 	0.31479	0.29433	0.8311	-0.142
Mof_C 	C 	0.35311	0.29433	0.8311	0.111
Mof_C 	C 	0.35526	0.25437	0.82401	-0.033
Mof_C 	C 	0.35695	0.2229	0.81843	-0.011
Mof_C 	C 	0.35905	0.18376	0.81149	0.074
Mof_C 	C 	0.32799	0.14679	0.86109	-0.11
Mof_C 	C 	0.33	0.1093	0.85444	0.073
Mof_C 	C 	0.36302	0.10987	0.79839	-0.125
Mof_C 	C 	0.39408	0.14684	0.74879	0.053
Mof_C 	C 	0.39207	0.18433	0.75544	-0.105
Mof_C 	C 	0.36517	0.06991	0.7913	0.39
Mof_H 	H 	0.14241	0.36831	0.70106	0.003
Mof_H 	H 	0.20967	0.36831	0.70106	0.072
Mof_H 	H 	0.28702	0.26586	0.82947	0.087
Mof_H 	H 	0.30387	0.14677	0.90208	0.08
Mof_H 	H 	0.30735	0.08191	0.89057	0.023
Mof_H 	H 	0.41821	0.14686	0.7078	0.026
Mof_H 	H 	0.41472	0.21172	0.7193	0.064
Mof_O 	O 	0.72058	0.64635	0.23333	-0.521
Mof_O 	O 	0.99644	0.37671	0.16824	-0.491
Mof_O 	O 	0.05111	0.40007	0.05396	-0.489
Mof_C 	C 	0.81721	0.68688	0.0902	0.092
Mof_C 	C 	0.85609	0.68688	0.0902	-0.144
Mof_C 	C 	0.98146	0.62766	0.16443	-0.131
Mof_C 	C 	0.01978	0.62766	0.16443	0.078
Mof_C 	C 	0.02193	0.5877	0.15734	-0.049
Mof_C 	C 	0.02362	0.55623	0.15176	-0.033
Mof_C 	C 	0.02572	0.51709	0.14482	0.052
Mof_C 	C 	0.99466	0.48012	0.19442	-0.114
Mof_C 	C 	0.99667	0.44263	0.18777	0.078
Mof_C 	C 	0.02969	0.4432	0.13172	-0.156
Mof_C 	C 	0.06075	0.48017	0.08212	0.049
Mof_C 	C 	0.05874	0.51766	0.08877	-0.116
Mof_C 	C 	0.03184	0.40324	0.12463	0.39
Mof_H 	H 	0.80908	0.70164	0.03439	-0.021
Mof_H 	H 	0.87634	0.70164	0.03439	0.051
Mof_H 	H 	0.95369	0.59919	0.1628	0.067
Mof_H 	H 	0.97054	0.4801	0.23541	0.055
Mof_H 	H 	0.97402	0.41524	0.2239	-0.003
Mof_H 	H 	0.08488	0.48019	0.04113	0.011
Mof_H 	H 	0.08139	0.54505	0.05263	0.049
Mof_O 	O 	0.38724	0.97969	0.56667	-0.51
Mof_O 	O 	0.6631	0.71005	0.50158	-0.5
Mof_O 	O 	0.71777	0.73341	0.3873	-0.486
Mof_C 	C 	0.48387	0.02022	0.42354	0.1
Mof_C 	C 	0.52275	0.02022	0.42354	-0.137
Mof_C 	C 	0.64812	0.961	0.49777	-0.132
Mof_C 	C 	0.68644	0.961	0.49777	0.114
Mof_C 	C 	0.68859	0.92104	0.49068	-0.042
Mof_C 	C 	0.69028	0.88957	0.4851	-0.017
Mof_C 	C 	0.69238	0.85043	0.47816	0.07
Mof_C 	C 	0.66132	0.81346	0.52776	-0.118
Mof_C 	C 	0.66333	0.77597	0.52111	0.07
Mof_C 	C 	0.69635	0.77654	0.46506	-0.133
Mof_C 	C 	0.72741	0.81351	0.41546	0.052
Mof_C 	C 	0.7254	0.851	0.42211	-0.108
Mof_C 	C 	0.6985	0.73658	0.45797	0.395
Mof_H 	H 	0.47574	0.03498	0.36773	-0.004
Mof_H 	H 	0.543	0.03498	0.36773	0.067
Mof_H 	H 	0.62035	0.93253	0.49614	0.078
Mof_H 	H 	0.6372	0.81344	0.56875	0.062
Mof_H 	H 	0.64068	0.74858	0.55724	0.005
Mof_H 	H 	0.75154	0.81353	0.37447	0.024
Mof_H 	H 	0.74805	0.87839	0.38597	0.062
Mof_O 	O 	0.25911	0.94609	0.9	-0.466
Mof_O 	O 	0.71361	0.67023	0.83491	-0.472
Mof_O 	O 	0.6823	0.61556	0.72063	-0.484
Mof_C 	C 	0.20301	0.84946	0.75687	0.098
Mof_C 	C 	0.16413	0.81058	0.75687	-0.133
Mof_C 	C 	0.97954	0.68521	0.8311	-0.127
Mof_C 	C 	0.94122	0.64689	0.8311	0.109
Mof_C 	C 	0.89911	0.64474	0.82401	-0.031
Mof_C 	C 	0.86595	0.64305	0.81843	-0.011
Mof_C 	C 	0.82471	0.64095	0.81149	0.075
Mof_C 	C 	0.8188	0.67201	0.86109	-0.111
Mof_C 	C 	0.7793	0.67	0.85444	0.073
Mof_C 	C 	0.74685	0.63698	0.79839	-0.125
Mof_C 	C 	0.75276	0.60592	0.74879	0.053
Mof_C 	C 	0.79226	0.60793	0.75544	-0.106
Mof_C 	C 	0.70474	0.63483	0.7913	0.39
Mof_H 	H 	0.2259	0.85759	0.70106	0.002
Mof_H 	H 	0.15864	0.79033	0.70106	0.072
Mof_H 	H 	0.97884	0.71298	0.82947	0.086
Mof_H 	H 	0.8429	0.69613	0.90208	0.082
Mof_H 	H 	0.77456	0.69265	0.89057	0.024
Mof_H 	H 	0.72865	0.58179	0.7078	0.027
Mof_H 	H 	0.797	0.58528	0.7193	0.064
Mof_O 	O 	0.92578	0.27942	0.23333	-0.522
Mof_O 	O 	0.38028	0.00356	0.16824	-0.51
Mof_O 	O 	0.34897	0.94889	0.05396	-0.49
Mof_C 	C 	0.86968	0.18279	0.0902	0.091
Mof_C 	C 	0.8308	0.14391	0.0902	-0.145
Mof_C 	C 	0.64621	0.01854	0.16443	-0.159
Mof_C 	C 	0.60789	0.98022	0.16443	0.107
Mof_C 	C 	0.56578	0.97807	0.15734	-0.046
Mof_C 	C 	0.53262	0.97638	0.15176	-0.03
Mof_C 	C 	0.49138	0.97428	0.14482	0.08
Mof_C 	C 	0.48547	0.00534	0.19442	-0.14
Mof_C 	C 	0.44597	0.00333	0.18777	0.058
Mof_C 	C 	0.41352	0.97031	0.13172	-0.134
Mof_C 	C 	0.41943	0.93925	0.08212	0.049
Mof_C 	C 	0.45893	0.94126	0.08877	-0.121
Mof_C 	C 	0.37141	0.96816	0.12463	0.41
Mof_H 	H 	0.89257	0.19092	0.03439	-0.02
Mof_H 	H 	0.82531	0.12366	0.03439	0.05
Mof_H 	H 	0.64551	0.04631	0.1628	0.07
Mof_H 	H 	0.50957	0.02946	0.23541	0.059
Mof_H 	H 	0.44123	0.02598	0.2239	0.002
Mof_H 	H 	0.39532	0.91512	0.04113	0.012
Mof_H 	H 	0.46367	0.91861	0.05263	0.052
Mof_O 	O 	0.59244	0.61276	0.56667	-0.52
Mof_O 	O 	0.04694	0.3369	0.50158	-0.502
Mof_O 	O 	0.01563	0.28223	0.3873	-0.495
Mof_C 	C 	0.53634	0.51613	0.42354	0.1
Mof_C 	C 	0.49746	0.47725	0.42354	-0.139
Mof_C 	C 	0.31287	0.35188	0.49777	-0.142
Mof_C 	C 	0.27455	0.31356	0.49777	0.1
Mof_C 	C 	0.23244	0.31141	0.49068	-0.04
Mof_C 	C 	0.19928	0.30972	0.4851	-0.021
Mof_C 	C 	0.15804	0.30762	0.47816	0.07
Mof_C 	C 	0.15213	0.33868	0.52776	-0.119
Mof_C 	C 	0.11263	0.33667	0.52111	0.07
Mof_C 	C 	0.08018	0.30365	0.46506	-0.134
Mof_C 	C 	0.08609	0.27259	0.41546	0.052
Mof_C 	C 	0.12559	0.2746	0.42211	-0.11
Mof_C 	C 	0.03807	0.3015	0.45797	0.394
Mof_H 	H 	0.55923	0.52426	0.36773	-0.003
Mof_H 	H 	0.49197	0.457	0.36773	0.069
Mof_H 	H 	0.31217	0.37965	0.49614	0.079
Mof_H 	H 	0.17623	0.3628	0.56875	0.062
Mof_H 	H 	0.10789	0.35932	0.55724	0.005
Mof_H 	H 	0.06198	0.24846	0.37447	0.02
Mof_H 	H 	0.13033	0.25195	0.38597	0.059
Mof_O 	O 	0.68698	0.74089	0.9	-0.472
Mof_O 	O 	0.95662	0.28639	0.83491	-0.464
Mof_O 	O 	0.93326	0.3177	0.72063	-0.478
Mof_C 	C 	0.64645	0.79699	0.75687	0.098
Mof_C 	C 	0.64645	0.83587	0.75687	-0.132
Mof_C 	C 	0.70567	0.02046	0.8311	-0.157
Mof_C 	C 	0.70567	0.05878	0.8311	0.114
Mof_C 	C 	0.74563	0.10089	0.82401	-0.035
Mof_C 	C 	0.7771	0.13405	0.81843	-0.009
Mof_C 	C 	0.81624	0.17529	0.81149	0.073
Mof_C 	C 	0.85321	0.1812	0.86109	-0.109
Mof_C 	C 	0.8907	0.2207	0.85444	0.071
Mof_C 	C 	0.89013	0.25315	0.79839	-0.123
Mof_C 	C 	0.85316	0.24724	0.74879	0.051
Mof_C 	C 	0.81567	0.20774	0.75544	-0.104
Mof_C 	C 	0.93009	0.29526	0.7913	0.388
Mof_H 	H 	0.63169	0.7741	0.70106	0.002
Mof_H 	H 	0.63169	0.84136	0.70106	0.073
Mof_H 	H 	0.73414	0.02116	0.82947	0.089
Mof_H 	H 	0.85323	0.1571	0.90208	0.08
Mof_H 	H 	0.91809	0.22544	0.89057	0.026
Mof_H 	H 	0.85314	0.27135	0.7078	0.027
Mof_H 	H 	0.78828	0.203	0.7193	0.063
Mof_O 	O 	0.35365	0.07422	0.23333	-0.519
Mof_O 	O 	0.62329	0.61972	0.16824	-0.502
Mof_O 	O 	0.59993	0.65103	0.05396	-0.493
Mof_C 	C 	0.31312	0.13032	0.0902	0.09
Mof_C 	C 	0.31312	0.1692	0.0902	-0.145
Mof_C 	C 	0.37234	0.35379	0.16443	-0.145
Mof_C 	C 	0.37234	0.39211	0.16443	0.092
Mof_C 	C 	0.4123	0.43422	0.15734	-0.048
Mof_C 	C 	0.44377	0.46738	0.15176	-0.032
Mof_C 	C 	0.48291	0.50862	0.14482	0.065
Mof_C 	C 	0.51988	0.51453	0.19442	-0.127
Mof_C 	C 	0.55737	0.55403	0.18777	0.068
Mof_C 	C 	0.5568	0.58648	0.13172	-0.146
Mof_C 	C 	0.51983	0.58057	0.08212	0.049
Mof_C 	C 	0.48234	0.54107	0.08877	-0.119
Mof_C 	C 	0.59676	0.62859	0.12463	0.4
Mof_H 	H 	0.29836	0.10743	0.03439	-0.022
Mof_H 	H 	0.29836	0.17469	0.03439	0.049
Mof_H 	H 	0.40081	0.35449	0.1628	0.068
Mof_H 	H 	0.5199	0.49043	0.23541	0.057
Mof_H 	H 	0.58476	0.55877	0.2239	-0.001
Mof_H 	H 	0.51981	0.60468	0.04113	0.011
Mof_H 	H 	0.45495	0.53633	0.05263	0.05
Mof_O 	O 	0.02031	0.40756	0.56667	-0.517
Mof_O 	O 	0.28995	0.95306	0.50158	-0.498
Mof_O 	O 	0.26659	0.98437	0.3873	-0.478
Mof_C 	C 	0.97978	0.46366	0.42354	0.11
Mof_C 	C 	0.97978	0.50254	0.42354	-0.127
Mof_C 	C 	0.039	0.68713	0.49777	-0.142
Mof_C 	C 	0.039	0.72545	0.49777	0.105
Mof_C 	C 	0.07896	0.76756	0.49068	-0.042
Mof_C 	C 	0.11043	0.80072	0.4851	-0.02
Mof_C 	C 	0.14957	0.84196	0.47816	0.07
Mof_C 	C 	0.18654	0.84787	0.52776	-0.119
Mof_C 	C 	0.22403	0.88737	0.52111	0.071
Mof_C 	C 	0.22346	0.91982	0.46506	-0.133
Mof_C 	C 	0.18649	0.91391	0.41546	0.052
Mof_C 	C 	0.149	0.87441	0.42211	-0.108
Mof_C 	C 	0.26342	0.96193	0.45797	0.397
Mof_H 	H 	0.96502	0.44077	0.36773	-0.005
Mof_H 	H 	0.96502	0.50803	0.36773	0.068
Mof_H 	H 	0.06747	0.68783	0.49614	0.079
Mof_H 	H 	0.18656	0.82377	0.56875	0.062
Mof_H 	H 	0.25142	0.89211	0.55724	0.004
Mof_H 	H 	0.18647	0.93802	0.37447	0.024
Mof_H 	H 	0.12161	0.86967	0.38597	0.06
Mof_Eu	Eu	0.32428	0	-0	1.724
Mof_Eu	Eu	0.99095	0.33333	0.33333	1.954
Mof_Eu	Eu	0.65761	0.66667	0.66667	1.939
Mof_Eu	Eu	-0	0.32428	-0	1.727
Mof_Eu	Eu	0.66667	0.65761	0.33333	1.928
Mof_Eu	Eu	0.33333	0.99095	0.66667	1.966
Mof_Eu	Eu	0.67572	0.67572	-0	1.757
Mof_Eu	Eu	0.34239	0.00905	0.33333	1.901
Mof_Eu	Eu	0.00905	0.34239	0.66667	1.914
Mof_C 	C 	0.33333	0.08134	0.16667	0.471
Mof_C 	C 	0.33333	0.12306	0.16667	-0.217
Mof_C 	C 	0.33333	0.20029	0.16667	0.078
Mof_C 	C 	0.33333	0.24067	0.16667	-0.039
Mof_C 	C 	0.33333	0.27359	0.16667	-0.042
Mof_C 	C 	0.33333	0.31396	0.16667	0.084
Mof_C 	C 	0.33333	0.39116	0.16667	-0.147
Mof_H 	H 	0.33333	0.41954	0.16667	0.071
Mof_C 	C 	7.88973e-18	0.41468	0.5	0.469
Mof_C 	C 	7.88973e-18	0.45639	0.5	-0.224
Mof_C 	C 	-5.47774e-17	0.53363	0.5	0.073
Mof_C 	C 	-2.34438e-17	0.574	0.5	-0.03
Mof_C 	C 	-2.34438e-17	0.60693	0.5	-0.034
Mof_C 	C 	-2.34438e-17	0.6473	0.5	0.082
Mof_C 	C 	-2.34438e-17	0.7245	0.5	-0.162
Mof_H 	H 	-2.34438e-17	0.75288	0.5	0.08
Mof_C 	C 	0.91866	0.25199	0.16667	0.473
Mof_C 	C 	0.87694	0.21027	0.16667	-0.217
Mof_C 	C 	0.79971	0.13304	0.16667	0.079
Mof_C 	C 	0.75933	0.09266	0.16667	-0.041
Mof_C 	C 	0.72641	0.05974	0.16667	-0.04
Mof_C 	C 	0.68604	0.01937	0.16667	0.074
Mof_C 	C 	0.60884	0.94217	0.16667	-0.149
Mof_H 	H 	0.58046	0.91379	0.16667	0.073
Mof_C 	C 	0.58532	0.58532	0.5	0.48
Mof_C 	C 	0.5436	0.5436	0.5	-0.214
Mof_C 	C 	0.46637	0.46637	0.5	0.085
Mof_C 	C 	0.42599	0.42599	0.5	-0.029
Mof_C 	C 	0.39307	0.39307	0.5	-0.033
Mof_C 	C 	0.3527	0.3527	0.5	0.093
Mof_C 	C 	0.2755	0.2755	0.5	-0.146
Mof_H 	H 	0.24712	0.24712	0.5	0.077
Mof_C 	C 	0.74801	0.66667	0.16667	0.473
Mof_C 	C 	0.78973	0.66667	0.16667	-0.217
Mof_C 	C 	0.86696	0.66667	0.16667	0.078
Mof_C 	C 	0.90734	0.66667	0.16667	-0.035
Mof_C 	C 	0.94026	0.66667	0.16667	-0.042
Mof_C 	C 	0.98063	0.66667	0.16667	0.095
Mof_C 	C 	0.05783	0.66667	0.16667	-0.145
Mof_H 	H 	0.08621	0.66667	0.16667	0.071
Mof_C 	C 	0.41468	0	0.5	0.468
Mof_C 	C 	0.4564	0	0.5	-0.225
Mof_C 	C 	0.53363	0	0.5	0.072
Mof_C 	C 	0.574	0	0.5	-0.03
Mof_C 	C 	0.60693	0	0.5	-0.034
Mof_C 	C 	0.6473	0	0.5	0.082
Mof_C 	C 	0.7245	0	0.5	-0.163
Mof_H 	H 	0.75288	0	0.5	0.08
Mof_C 	C 	0.08134	0.33333	0.83333	0.469
Mof_C 	C 	0.12306	0.33333	0.83333	-0.198
Mof_C 	C 	0.20029	0.33333	0.83333	0.089
Mof_C 	C 	0.24067	0.33333	0.83333	-0.018
Mof_C 	C 	0.27359	0.33333	0.83333	-0.025
Mof_C 	C 	0.31396	0.33333	0.83333	0.104
Mof_C 	C 	0.39116	0.33333	0.83333	-0.145
Mof_H 	H 	0.41954	0.33333	0.83333	0.085
Mof_C 	C 	0.25199	0.91866	0.83333	0.471
Mof_C 	C 	0.21027	0.87694	0.83333	-0.198
Mof_C 	C 	0.13304	0.79971	0.83333	0.089
Mof_C 	C 	0.09266	0.75933	0.83333	-0.02
Mof_C 	C 	0.05974	0.72641	0.83333	-0.024
Mof_C 	C 	0.01937	0.68604	0.83333	0.094
Mof_C 	C 	0.94217	0.60884	0.83333	-0.147
Mof_H 	H 	0.91379	0.58046	0.83333	0.086
Mof_C 	C 	0.66667	0.74801	0.83333	0.471
Mof_C 	C 	0.66667	0.78973	0.83333	-0.198
Mof_C 	C 	0.66667	0.86696	0.83333	0.089
Mof_C 	C 	0.66667	0.90734	0.83333	-0.015
Mof_C 	C 	0.66667	0.94026	0.83333	-0.026
Mof_C 	C 	0.66667	0.98063	0.83333	0.115
Mof_C 	C 	0.66667	0.05783	0.83333	-0.143
Mof_H 	H 	0.66667	0.08621	0.83333	0.085
_end
