data_functionalizedCrystal
_audit_creation_method	'EQeq! by Chris Wilmer'
_symmetry_space_group_name_H-M	'P1'
_symmetry_Int_Tables_number	1
_symmetry_cell_setting	triclinic
loop_
_symmetry_equiv_pos_as_xyz
  x,y,z
_cell_length_a	25.882
_cell_length_b	25.882
_cell_length_c	25.882
_cell_angle_alpha	90
_cell_angle_beta	90
_cell_angle_gamma	90
loop_
_atom_site_label
_atom_site_type_symbol
_atom_site_fract_x
_atom_site_fract_y
_atom_site_fract_z
_atom_site_charge
Mof_Zn	Zn	0.29342	0.29342	0.20658	1.212
Mof_Zn	Zn	0.70658	0.70658	0.20658	1.212
Mof_Zn	Zn	0.20658	0.20658	0.20658	1.212
Mof_Zn	Zn	0.70658	0.29342	0.79342	1.212
Mof_Zn	Zn	0.20658	0.29342	0.29342	1.212
Mof_Zn	Zn	0.29342	0.70658	0.79342	1.212
Mof_Zn	Zn	0.29342	0.20658	0.29342	1.212
Mof_Zn	Zn	0.20658	0.79342	0.79342	1.212
Mof_Zn	Zn	0.20658	0.70658	0.70658	1.212
Mof_Zn	Zn	0.79342	0.70658	0.29342	1.212
Mof_Zn	Zn	0.79342	0.20658	0.79342	1.212
Mof_Zn	Zn	0.79342	0.29342	0.70658	1.212
Mof_Zn	Zn	0.79342	0.79342	0.20658	1.212
Mof_Zn	Zn	0.70658	0.20658	0.70658	1.212
Mof_Zn	Zn	0.29342	0.79342	0.70658	1.212
Mof_Zn	Zn	0.70658	0.79342	0.29342	1.212
Mof_Zn	Zn	0.29342	0.29342	0.79342	1.212
Mof_Zn	Zn	0.70658	0.70658	0.79342	1.212
Mof_Zn	Zn	0.70658	0.20658	0.29342	1.212
Mof_Zn	Zn	0.20658	0.70658	0.29342	1.212
Mof_Zn	Zn	0.29342	0.70658	0.20658	1.212
Mof_Zn	Zn	0.70658	0.29342	0.20658	1.212
Mof_Zn	Zn	0.20658	0.79342	0.20658	1.212
Mof_Zn	Zn	0.29342	0.20658	0.70658	1.212
Mof_Zn	Zn	0.20658	0.20658	0.79342	1.212
Mof_Zn	Zn	0.70658	0.79342	0.70658	1.212
Mof_Zn	Zn	0.20658	0.29342	0.70658	1.212
Mof_Zn	Zn	0.29342	0.79342	0.29342	1.212
Mof_Zn	Zn	0.79342	0.29342	0.29342	1.212
Mof_Zn	Zn	0.79342	0.79342	0.79342	1.212
Mof_Zn	Zn	0.79342	0.70658	0.70658	1.212
Mof_Zn	Zn	0.79342	0.20658	0.20658	1.212
Mof_O 	O 	0.25	0.25	0.25	-0.96
Mof_O 	O 	0.75	0.75	0.25	-0.96
Mof_O 	O 	0.75	0.25	0.75	-0.96
Mof_O 	O 	0.25	0.75	0.75	-0.96
Mof_O 	O 	0.25	0.25	0.75	-0.96
Mof_O 	O 	0.75	0.75	0.75	-0.96
Mof_O 	O 	0.75	0.25	0.25	-0.96
Mof_O 	O 	0.25	0.75	0.25	-0.96
Mof_O 	O 	0.28055	0.3663	0.21945	-0.509
Mof_C 	C 	0.2827	0.47302	0.2173	-0.014
Mof_H 	H 	0.3052	0.4546	0.1948	0.048
Mof_O 	O 	0.28055	0.8663	0.71945	-0.509
Mof_C 	C 	0.2827	0.97302	0.7173	-0.014
Mof_H 	H 	0.3052	0.9546	0.6948	0.048
Mof_O 	O 	0.71945	0.6337	0.21945	-0.509
Mof_C 	C 	0.7173	0.52698	0.2173	-0.014
Mof_H 	H 	0.6948	0.5454	0.1948	0.048
Mof_O 	O 	0.71945	0.1337	0.71945	-0.509
Mof_C 	C 	0.7173	0.02698	0.7173	-0.014
Mof_H 	H 	0.6948	0.0454	0.6948	0.048
Mof_O 	O 	0.21945	0.1337	0.21945	-0.509
Mof_C 	C 	0.2173	0.02698	0.2173	-0.014
Mof_H 	H 	0.1948	0.0454	0.1948	0.048
Mof_O 	O 	0.71945	0.3663	0.78055	-0.509
Mof_C 	C 	0.7173	0.47302	0.7827	-0.014
Mof_H 	H 	0.6948	0.4546	0.8052	0.048
Mof_O 	O 	0.71945	0.8663	0.28055	-0.509
Mof_C 	C 	0.7173	0.97302	0.2827	-0.014
Mof_H 	H 	0.6948	0.9546	0.3052	0.048
Mof_O 	O 	0.21945	0.3663	0.28055	-0.509
Mof_C 	C 	0.2173	0.47302	0.2827	-0.014
Mof_H 	H 	0.1948	0.4546	0.3052	0.048
Mof_O 	O 	0.28055	0.6337	0.78055	-0.509
Mof_C 	C 	0.2827	0.52698	0.7827	-0.014
Mof_H 	H 	0.3052	0.5454	0.8052	0.048
Mof_O 	O 	0.28055	0.1337	0.28055	-0.509
Mof_C 	C 	0.2827	0.02698	0.2827	-0.014
Mof_H 	H 	0.3052	0.0454	0.3052	0.048
Mof_O 	O 	0.21945	0.28055	0.3663	-0.509
Mof_C 	C 	0.2173	0.2827	0.47302	-0.014
Mof_H 	H 	0.1948	0.3052	0.4546	0.048
Mof_O 	O 	0.21945	0.78055	0.8663	-0.509
Mof_C 	C 	0.2173	0.7827	0.97302	-0.014
Mof_H 	H 	0.1948	0.8052	0.9546	0.048
Mof_O 	O 	0.21945	0.71945	0.6337	-0.509
Mof_C 	C 	0.2173	0.7173	0.52698	-0.014
Mof_H 	H 	0.1948	0.6948	0.5454	0.048
Mof_O 	O 	0.21945	0.21945	0.1337	-0.509
Mof_C 	C 	0.2173	0.2173	0.02698	-0.014
Mof_H 	H 	0.1948	0.1948	0.0454	0.048
Mof_O 	O 	0.78055	0.71945	0.3663	-0.509
Mof_C 	C 	0.7827	0.7173	0.47302	-0.014
Mof_H 	H 	0.8052	0.6948	0.4546	0.048
Mof_O 	O 	0.78055	0.21945	0.8663	-0.509
Mof_C 	C 	0.7827	0.2173	0.97302	-0.014
Mof_H 	H 	0.8052	0.1948	0.9546	0.048
Mof_O 	O 	0.28055	0.21945	0.3663	-0.509
Mof_C 	C 	0.2827	0.2173	0.47302	-0.014
Mof_H 	H 	0.3052	0.1948	0.4546	0.048
Mof_O 	O 	0.78055	0.28055	0.6337	-0.509
Mof_C 	C 	0.7827	0.2827	0.52698	-0.014
Mof_H 	H 	0.8052	0.3052	0.5454	0.048
Mof_O 	O 	0.78055	0.78055	0.1337	-0.509
Mof_C 	C 	0.7827	0.7827	0.02698	-0.014
Mof_H 	H 	0.8052	0.8052	0.0454	0.048
Mof_O 	O 	0.28055	0.28055	0.1337	-0.509
Mof_C 	C 	0.2827	0.2827	0.02698	-0.014
Mof_H 	H 	0.3052	0.3052	0.0454	0.048
Mof_O 	O 	0.3663	0.21945	0.28055	-0.509
Mof_C 	C 	0.47302	0.2173	0.2827	-0.014
Mof_H 	H 	0.4546	0.1948	0.3052	0.048
Mof_O 	O 	0.8663	0.21945	0.78055	-0.509
Mof_C 	C 	0.97302	0.2173	0.7827	-0.014
Mof_H 	H 	0.9546	0.1948	0.8052	0.048
Mof_O 	O 	0.6337	0.21945	0.71945	-0.509
Mof_C 	C 	0.52698	0.2173	0.7173	-0.014
Mof_H 	H 	0.5454	0.1948	0.6948	0.048
Mof_O 	O 	0.1337	0.21945	0.21945	-0.509
Mof_C 	C 	0.02698	0.2173	0.2173	-0.014
Mof_H 	H 	0.0454	0.1948	0.1948	0.048
Mof_O 	O 	0.3663	0.78055	0.71945	-0.509
Mof_C 	C 	0.47302	0.7827	0.7173	-0.014
Mof_H 	H 	0.4546	0.8052	0.6948	0.048
Mof_O 	O 	0.3663	0.28055	0.21945	-0.509
Mof_C 	C 	0.47302	0.2827	0.2173	-0.014
Mof_H 	H 	0.4546	0.3052	0.1948	0.048
Mof_O 	O 	0.8663	0.78055	0.21945	-0.509
Mof_C 	C 	0.97302	0.7827	0.2173	-0.014
Mof_H 	H 	0.9546	0.8052	0.1948	0.048
Mof_O 	O 	0.6337	0.78055	0.28055	-0.509
Mof_C 	C 	0.52698	0.7827	0.2827	-0.014
Mof_H 	H 	0.5454	0.8052	0.3052	0.048
Mof_O 	O 	0.1337	0.78055	0.78055	-0.509
Mof_C 	C 	0.02698	0.7827	0.7827	-0.014
Mof_H 	H 	0.0454	0.8052	0.8052	0.048
Mof_O 	O 	0.1337	0.28055	0.28055	-0.509
Mof_C 	C 	0.02698	0.2827	0.2827	-0.014
Mof_H 	H 	0.0454	0.3052	0.3052	0.048
Mof_O 	O 	0.3663	0.28055	0.78055	-0.509
Mof_C 	C 	0.47302	0.2827	0.7827	-0.014
Mof_H 	H 	0.4546	0.3052	0.8052	0.048
Mof_O 	O 	0.8663	0.28055	0.28055	-0.509
Mof_C 	C 	0.97302	0.2827	0.2827	-0.014
Mof_H 	H 	0.9546	0.3052	0.3052	0.048
Mof_O 	O 	0.6337	0.71945	0.78055	-0.509
Mof_C 	C 	0.52698	0.7173	0.7827	-0.014
Mof_H 	H 	0.5454	0.6948	0.8052	0.048
Mof_O 	O 	0.6337	0.21945	0.28055	-0.509
Mof_C 	C 	0.52698	0.2173	0.2827	-0.014
Mof_H 	H 	0.5454	0.1948	0.3052	0.048
Mof_O 	O 	0.1337	0.71945	0.28055	-0.509
Mof_C 	C 	0.02698	0.7173	0.2827	-0.014
Mof_H 	H 	0.0454	0.6948	0.3052	0.048
Mof_O 	O 	0.3663	0.71945	0.21945	-0.509
Mof_C 	C 	0.47302	0.7173	0.2173	-0.014
Mof_H 	H 	0.4546	0.6948	0.1948	0.048
Mof_O 	O 	0.8663	0.71945	0.71945	-0.509
Mof_C 	C 	0.97302	0.7173	0.7173	-0.014
Mof_H 	H 	0.9546	0.6948	0.6948	0.048
Mof_O 	O 	0.8663	0.21945	0.21945	-0.509
Mof_C 	C 	0.97302	0.2173	0.2173	-0.014
Mof_H 	H 	0.9546	0.1948	0.1948	0.048
Mof_O 	O 	0.6337	0.28055	0.21945	-0.509
Mof_C 	C 	0.52698	0.2827	0.2173	-0.014
Mof_H 	H 	0.5454	0.3052	0.1948	0.048
Mof_O 	O 	0.1337	0.28055	0.71945	-0.509
Mof_C 	C 	0.02698	0.2827	0.7173	-0.014
Mof_H 	H 	0.0454	0.3052	0.6948	0.048
Mof_O 	O 	0.28055	0.21945	0.6337	-0.509
Mof_C 	C 	0.2827	0.2173	0.52698	-0.014
Mof_H 	H 	0.3052	0.1948	0.5454	0.048
Mof_O 	O 	0.28055	0.71945	0.1337	-0.509
Mof_C 	C 	0.2827	0.7173	0.02698	-0.014
Mof_H 	H 	0.3052	0.6948	0.0454	0.048
Mof_O 	O 	0.71945	0.21945	0.3663	-0.509
Mof_C 	C 	0.7173	0.2173	0.47302	-0.014
Mof_H 	H 	0.6948	0.1948	0.4546	0.048
Mof_O 	O 	0.71945	0.71945	0.8663	-0.509
Mof_C 	C 	0.7173	0.7173	0.97302	-0.014
Mof_H 	H 	0.6948	0.6948	0.9546	0.048
Mof_O 	O 	0.21945	0.21945	0.8663	-0.509
Mof_C 	C 	0.2173	0.2173	0.97302	-0.014
Mof_H 	H 	0.1948	0.1948	0.9546	0.048
Mof_O 	O 	0.71945	0.78055	0.6337	-0.509
Mof_C 	C 	0.7173	0.7827	0.52698	-0.014
Mof_H 	H 	0.6948	0.8052	0.5454	0.048
Mof_O 	O 	0.71945	0.28055	0.1337	-0.509
Mof_C 	C 	0.7173	0.2827	0.02698	-0.014
Mof_H 	H 	0.6948	0.3052	0.0454	0.048
Mof_O 	O 	0.21945	0.28055	0.6337	-0.509
Mof_C 	C 	0.2173	0.2827	0.52698	-0.014
Mof_H 	H 	0.1948	0.3052	0.5454	0.048
Mof_O 	O 	0.28055	0.78055	0.3663	-0.509
Mof_C 	C 	0.2827	0.7827	0.47302	-0.014
Mof_H 	H 	0.3052	0.8052	0.4546	0.048
Mof_O 	O 	0.28055	0.28055	0.8663	-0.509
Mof_C 	C 	0.2827	0.2827	0.97302	-0.014
Mof_H 	H 	0.3052	0.3052	0.9546	0.048
Mof_O 	O 	0.21945	0.3663	0.71945	-0.509
Mof_C 	C 	0.2173	0.47302	0.7173	-0.014
Mof_H 	H 	0.1948	0.4546	0.6948	0.048
Mof_O 	O 	0.21945	0.8663	0.21945	-0.509
Mof_C 	C 	0.2173	0.97302	0.2173	-0.014
Mof_H 	H 	0.1948	0.9546	0.1948	0.048
Mof_O 	O 	0.21945	0.6337	0.28055	-0.509
Mof_C 	C 	0.2173	0.52698	0.2827	-0.014
Mof_H 	H 	0.1948	0.5454	0.3052	0.048
Mof_O 	O 	0.21945	0.1337	0.78055	-0.509
Mof_C 	C 	0.2173	0.02698	0.7827	-0.014
Mof_H 	H 	0.1948	0.0454	0.8052	0.048
Mof_O 	O 	0.78055	0.3663	0.28055	-0.509
Mof_C 	C 	0.7827	0.47302	0.2827	-0.014
Mof_H 	H 	0.8052	0.4546	0.3052	0.048
Mof_O 	O 	0.78055	0.8663	0.78055	-0.509
Mof_C 	C 	0.7827	0.97302	0.7827	-0.014
Mof_H 	H 	0.8052	0.9546	0.8052	0.048
Mof_O 	O 	0.28055	0.8663	0.28055	-0.509
Mof_C 	C 	0.2827	0.97302	0.2827	-0.014
Mof_H 	H 	0.3052	0.9546	0.3052	0.048
Mof_O 	O 	0.78055	0.6337	0.71945	-0.509
Mof_C 	C 	0.7827	0.52698	0.7173	-0.014
Mof_H 	H 	0.8052	0.5454	0.6948	0.048
Mof_O 	O 	0.78055	0.1337	0.21945	-0.509
Mof_C 	C 	0.7827	0.02698	0.2173	-0.014
Mof_H 	H 	0.8052	0.0454	0.1948	0.048
Mof_O 	O 	0.28055	0.6337	0.21945	-0.509
Mof_C 	C 	0.2827	0.52698	0.2173	-0.014
Mof_H 	H 	0.3052	0.5454	0.1948	0.048
Mof_O 	O 	0.71945	0.6337	0.78055	-0.509
Mof_C 	C 	0.7173	0.52698	0.7827	-0.014
Mof_H 	H 	0.6948	0.5454	0.8052	0.048
Mof_O 	O 	0.71945	0.1337	0.28055	-0.509
Mof_C 	C 	0.7173	0.02698	0.2827	-0.014
Mof_H 	H 	0.6948	0.0454	0.3052	0.048
Mof_O 	O 	0.28055	0.3663	0.78055	-0.509
Mof_C 	C 	0.2827	0.47302	0.7827	-0.014
Mof_H 	H 	0.3052	0.4546	0.8052	0.048
Mof_O 	O 	0.28055	0.1337	0.71945	-0.509
Mof_C 	C 	0.2827	0.02698	0.7173	-0.014
Mof_H 	H 	0.3052	0.0454	0.6948	0.048
Mof_O 	O 	0.71945	0.3663	0.21945	-0.509
Mof_C 	C 	0.7173	0.47302	0.2173	-0.014
Mof_H 	H 	0.6948	0.4546	0.1948	0.048
Mof_O 	O 	0.71945	0.8663	0.71945	-0.509
Mof_C 	C 	0.7173	0.97302	0.7173	-0.014
Mof_H 	H 	0.6948	0.9546	0.6948	0.048
Mof_O 	O 	0.78055	0.71945	0.6337	-0.509
Mof_C 	C 	0.7827	0.7173	0.52698	-0.014
Mof_H 	H 	0.8052	0.6948	0.5454	0.048
Mof_O 	O 	0.78055	0.21945	0.1337	-0.509
Mof_C 	C 	0.7827	0.2173	0.02698	-0.014
Mof_H 	H 	0.8052	0.1948	0.0454	0.048
Mof_O 	O 	0.78055	0.28055	0.3663	-0.509
Mof_C 	C 	0.7827	0.2827	0.47302	-0.014
Mof_H 	H 	0.8052	0.3052	0.4546	0.048
Mof_O 	O 	0.78055	0.78055	0.8663	-0.509
Mof_C 	C 	0.7827	0.7827	0.97302	-0.014
Mof_H 	H 	0.8052	0.8052	0.9546	0.048
Mof_O 	O 	0.21945	0.78055	0.1337	-0.509
Mof_C 	C 	0.2173	0.7827	0.02698	-0.014
Mof_H 	H 	0.1948	0.8052	0.0454	0.048
Mof_O 	O 	0.21945	0.71945	0.3663	-0.509
Mof_C 	C 	0.2173	0.7173	0.47302	-0.014
Mof_H 	H 	0.1948	0.6948	0.4546	0.048
Mof_O 	O 	0.6337	0.78055	0.71945	-0.509
Mof_C 	C 	0.52698	0.7827	0.7173	-0.014
Mof_H 	H 	0.5454	0.8052	0.6948	0.048
Mof_O 	O 	0.1337	0.78055	0.21945	-0.509
Mof_C 	C 	0.02698	0.7827	0.2173	-0.014
Mof_H 	H 	0.0454	0.8052	0.1948	0.048
Mof_O 	O 	0.3663	0.78055	0.28055	-0.509
Mof_C 	C 	0.47302	0.7827	0.2827	-0.014
Mof_H 	H 	0.4546	0.8052	0.3052	0.048
Mof_O 	O 	0.8663	0.78055	0.78055	-0.509
Mof_C 	C 	0.97302	0.7827	0.7827	-0.014
Mof_H 	H 	0.9546	0.8052	0.8052	0.048
Mof_O 	O 	0.1337	0.21945	0.78055	-0.509
Mof_C 	C 	0.02698	0.2173	0.7827	-0.014
Mof_H 	H 	0.0454	0.1948	0.8052	0.048
Mof_O 	O 	0.3663	0.21945	0.71945	-0.509
Mof_C 	C 	0.47302	0.2173	0.7173	-0.014
Mof_H 	H 	0.4546	0.1948	0.6948	0.048
Mof_O 	O 	0.6337	0.71945	0.21945	-0.509
Mof_C 	C 	0.52698	0.7173	0.2173	-0.014
Mof_H 	H 	0.5454	0.6948	0.1948	0.048
Mof_O 	O 	0.1337	0.71945	0.71945	-0.509
Mof_C 	C 	0.02698	0.7173	0.7173	-0.014
Mof_H 	H 	0.0454	0.6948	0.6948	0.048
Mof_O 	O 	0.8663	0.28055	0.71945	-0.509
Mof_C 	C 	0.97302	0.2827	0.7173	-0.014
Mof_H 	H 	0.9546	0.3052	0.6948	0.048
Mof_O 	O 	0.6337	0.28055	0.78055	-0.509
Mof_C 	C 	0.52698	0.2827	0.7827	-0.014
Mof_H 	H 	0.5454	0.3052	0.8052	0.048
Mof_O 	O 	0.3663	0.71945	0.78055	-0.509
Mof_C 	C 	0.47302	0.7173	0.7827	-0.014
Mof_H 	H 	0.4546	0.6948	0.8052	0.048
Mof_O 	O 	0.8663	0.71945	0.28055	-0.509
Mof_C 	C 	0.97302	0.7173	0.2827	-0.014
Mof_H 	H 	0.9546	0.6948	0.3052	0.048
Mof_O 	O 	0.71945	0.78055	0.3663	-0.509
Mof_C 	C 	0.7173	0.7827	0.47302	-0.014
Mof_H 	H 	0.6948	0.8052	0.4546	0.048
Mof_O 	O 	0.71945	0.28055	0.8663	-0.509
Mof_C 	C 	0.7173	0.2827	0.97302	-0.014
Mof_H 	H 	0.6948	0.3052	0.9546	0.048
Mof_O 	O 	0.28055	0.78055	0.6337	-0.509
Mof_C 	C 	0.2827	0.7827	0.52698	-0.014
Mof_H 	H 	0.3052	0.8052	0.5454	0.048
Mof_O 	O 	0.28055	0.71945	0.8663	-0.509
Mof_C 	C 	0.2827	0.7173	0.97302	-0.014
Mof_H 	H 	0.3052	0.6948	0.9546	0.048
Mof_O 	O 	0.71945	0.21945	0.6337	-0.509
Mof_C 	C 	0.7173	0.2173	0.52698	-0.014
Mof_H 	H 	0.6948	0.1948	0.5454	0.048
Mof_O 	O 	0.71945	0.71945	0.1337	-0.509
Mof_C 	C 	0.7173	0.7173	0.02698	-0.014
Mof_H 	H 	0.6948	0.6948	0.0454	0.048
Mof_O 	O 	0.78055	0.6337	0.28055	-0.509
Mof_C 	C 	0.7827	0.52698	0.2827	-0.014
Mof_H 	H 	0.8052	0.5454	0.3052	0.048
Mof_O 	O 	0.78055	0.1337	0.78055	-0.509
Mof_C 	C 	0.7827	0.02698	0.7827	-0.014
Mof_H 	H 	0.8052	0.0454	0.8052	0.048
Mof_O 	O 	0.78055	0.3663	0.71945	-0.509
Mof_C 	C 	0.7827	0.47302	0.7173	-0.014
Mof_H 	H 	0.8052	0.4546	0.6948	0.048
Mof_O 	O 	0.78055	0.8663	0.21945	-0.509
Mof_C 	C 	0.7827	0.97302	0.2173	-0.014
Mof_H 	H 	0.8052	0.9546	0.1948	0.048
Mof_O 	O 	0.21945	0.6337	0.71945	-0.509
Mof_C 	C 	0.2173	0.52698	0.7173	-0.014
Mof_H 	H 	0.1948	0.5454	0.6948	0.048
Mof_O 	O 	0.21945	0.8663	0.78055	-0.509
Mof_C 	C 	0.2173	0.97302	0.7827	-0.014
Mof_H 	H 	0.1948	0.9546	0.8052	0.048
Mof_C 	C 	0.25	0.3884	0.25	0.39
Mof_C 	C 	0.25	0.4465	0.25	-0.088
Mof_C 	C 	0.25	0.8884	0.75	0.39
Mof_C 	C 	0.25	0.9465	0.75	-0.088
Mof_C 	C 	0.75	0.6116	0.25	0.39
Mof_C 	C 	0.75	0.5535	0.25	-0.088
Mof_C 	C 	0.75	0.1116	0.75	0.39
Mof_C 	C 	0.75	0.0535	0.75	-0.088
Mof_C 	C 	0.25	0.1116	0.25	0.39
Mof_C 	C 	0.25	0.0535	0.25	-0.088
Mof_C 	C 	0.75	0.3884	0.75	0.39
Mof_C 	C 	0.75	0.4465	0.75	-0.088
Mof_C 	C 	0.75	0.8884	0.25	0.39
Mof_C 	C 	0.75	0.9465	0.25	-0.088
Mof_C 	C 	0.25	0.6116	0.75	0.39
Mof_C 	C 	0.25	0.5535	0.75	-0.088
Mof_C 	C 	0.25	0.25	0.3884	0.39
Mof_C 	C 	0.25	0.25	0.4465	-0.088
Mof_C 	C 	0.25	0.75	0.8884	0.39
Mof_C 	C 	0.25	0.75	0.9465	-0.088
Mof_C 	C 	0.25	0.75	0.6116	0.39
Mof_C 	C 	0.25	0.75	0.5535	-0.088
Mof_C 	C 	0.25	0.25	0.1116	0.39
Mof_C 	C 	0.25	0.25	0.0535	-0.088
Mof_C 	C 	0.75	0.75	0.3884	0.39
Mof_C 	C 	0.75	0.75	0.4465	-0.088
Mof_C 	C 	0.75	0.25	0.8884	0.39
Mof_C 	C 	0.75	0.25	0.9465	-0.088
Mof_C 	C 	0.75	0.25	0.6116	0.39
Mof_C 	C 	0.75	0.25	0.5535	-0.088
Mof_C 	C 	0.75	0.75	0.1116	0.39
Mof_C 	C 	0.75	0.75	0.0535	-0.088
Mof_C 	C 	0.3884	0.25	0.25	0.39
Mof_C 	C 	0.4465	0.25	0.25	-0.088
Mof_C 	C 	0.8884	0.25	0.75	0.39
Mof_C 	C 	0.9465	0.25	0.75	-0.088
Mof_C 	C 	0.6116	0.25	0.75	0.39
Mof_C 	C 	0.5535	0.25	0.75	-0.088
Mof_C 	C 	0.1116	0.25	0.25	0.39
Mof_C 	C 	0.0535	0.25	0.25	-0.088
Mof_C 	C 	0.3884	0.75	0.75	0.39
Mof_C 	C 	0.4465	0.75	0.75	-0.088
Mof_C 	C 	0.8884	0.75	0.25	0.39
Mof_C 	C 	0.9465	0.75	0.25	-0.088
Mof_C 	C 	0.6116	0.75	0.25	0.39
Mof_C 	C 	0.5535	0.75	0.25	-0.088
Mof_C 	C 	0.1116	0.75	0.75	0.39
Mof_C 	C 	0.0535	0.75	0.75	-0.088
Mof_C 	C 	0.3884	0.25	0.75	0.39
Mof_C 	C 	0.4465	0.25	0.75	-0.088
Mof_C 	C 	0.8884	0.25	0.25	0.39
Mof_C 	C 	0.9465	0.25	0.25	-0.088
Mof_C 	C 	0.6116	0.75	0.75	0.39
Mof_C 	C 	0.5535	0.75	0.75	-0.088
Mof_C 	C 	0.6116	0.25	0.25	0.39
Mof_C 	C 	0.5535	0.25	0.25	-0.088
Mof_C 	C 	0.1116	0.75	0.25	0.39
Mof_C 	C 	0.0535	0.75	0.25	-0.088
Mof_C 	C 	0.3884	0.75	0.25	0.39
Mof_C 	C 	0.4465	0.75	0.25	-0.088
Mof_C 	C 	0.8884	0.75	0.75	0.39
Mof_C 	C 	0.9465	0.75	0.75	-0.088
Mof_C 	C 	0.1116	0.25	0.75	0.39
Mof_C 	C 	0.0535	0.25	0.75	-0.088
Mof_C 	C 	0.25	0.25	0.6116	0.39
Mof_C 	C 	0.25	0.25	0.5535	-0.088
Mof_C 	C 	0.25	0.75	0.1116	0.39
Mof_C 	C 	0.25	0.75	0.0535	-0.088
Mof_C 	C 	0.75	0.25	0.3884	0.39
Mof_C 	C 	0.75	0.25	0.4465	-0.088
Mof_C 	C 	0.75	0.75	0.8884	0.39
Mof_C 	C 	0.75	0.75	0.9465	-0.088
Mof_C 	C 	0.25	0.25	0.8884	0.39
Mof_C 	C 	0.25	0.25	0.9465	-0.088
Mof_C 	C 	0.75	0.75	0.6116	0.39
Mof_C 	C 	0.75	0.75	0.5535	-0.088
Mof_C 	C 	0.75	0.25	0.1116	0.39
Mof_C 	C 	0.75	0.25	0.0535	-0.088
Mof_C 	C 	0.25	0.75	0.3884	0.39
Mof_C 	C 	0.25	0.75	0.4465	-0.088
Mof_C 	C 	0.25	0.3884	0.75	0.39
Mof_C 	C 	0.25	0.4465	0.75	-0.088
Mof_C 	C 	0.25	0.8884	0.25	0.39
Mof_C 	C 	0.25	0.9465	0.25	-0.088
Mof_C 	C 	0.25	0.6116	0.25	0.39
Mof_C 	C 	0.25	0.5535	0.25	-0.088
Mof_C 	C 	0.25	0.1116	0.75	0.39
Mof_C 	C 	0.25	0.0535	0.75	-0.088
Mof_C 	C 	0.75	0.3884	0.25	0.39
Mof_C 	C 	0.75	0.4465	0.25	-0.088
Mof_C 	C 	0.75	0.8884	0.75	0.39
Mof_C 	C 	0.75	0.9465	0.75	-0.088
Mof_C 	C 	0.75	0.6116	0.75	0.39
Mof_C 	C 	0.75	0.5535	0.75	-0.088
Mof_C 	C 	0.75	0.1116	0.25	0.39
Mof_C 	C 	0.75	0.0535	0.25	-0.088
_end
