# CIF file generated by openbabel 3.1.0, see https://openbabel.org
data_I
_chemical_name_common 'OPOZEZ_clean'
_cell_length_a 15.9388
_cell_length_b 16.1837
_cell_length_c 28.52
_cell_angle_alpha 90
_cell_angle_beta 90
_cell_angle_gamma 105.714
_space_group_name_H-M_alt 'P 1'
_space_group_name_Hall 'P 1'
loop_
    _symmetry_equiv_pos_as_xyz
    x,y,z
loop_
    _atom_site_label
    _atom_site_type_symbol
    _atom_site_fract_x
    _atom_site_fract_y
    _atom_site_fract_z
    _atom_site_occupancy
    Cd1      Cd       0.61999    0.13608    0.96619    1.000
    Cd2      Cd       0.66201    0.35016    0.03398    1.000
    Cd3      Cd       0.61999    0.63608    0.53381    1.000
    Cd4      Cd       0.66201    0.85016    0.46602    1.000
    H1       H        0.68960    0.50620    0.88700    1.000
    H2       H        0.66720    0.25330    0.87020    1.000
    H3       H        0.65500    0.26430    0.78960    1.000
    H4       H        0.63500    0.30900    0.70130    1.000
    H5       H        0.61770    0.37660    0.63130    1.000
    H6       H        0.65790    0.60650    0.69850    1.000
    H7       H        0.54770    0.53900    0.80280    1.000
    H8       H        0.60300    0.63090    0.78430    1.000
    H9       H        0.61350    0.60330    0.83740    1.000
    H10      H        0.81020    0.58880    0.78490    1.000
    H11      H        0.77130    0.63350    0.82650    1.000
    H12      H        0.76190    0.66120    0.77330    1.000
    H13      H        0.61190    0.98640    0.11310    1.000
    H14      H        0.58860    0.22950    0.13190    1.000
    H15      H        0.59040    0.21310    0.21330    1.000
    H16      H        0.61000    0.16590    0.30150    1.000
    H17      H        0.63360    0.10060    0.37140    1.000
    H18      H        0.65190    0.88930    0.30010    1.000
    H19      H        0.49600    0.88510    0.21270    1.000
    H20      H        0.55810    0.82490    0.22440    1.000
    H21      H        0.54610    0.85150    0.17130    1.000
    H22      H        0.76090    0.97770    0.19890    1.000
    H23      H        0.70580    0.90780    0.16300    1.000
    H24      H        0.71830    0.88130    0.21610    1.000
    H25      H        0.86220    0.42760    0.99620    1.000
    H26      H        0.99950    0.41780    0.00670    1.000
    H27      H        0.91420    0.24200    0.10490    1.000
    H28      H        0.77410    0.26060    0.09520    1.000
    H29      H        0.06940    0.28310    0.08980    1.000
    H30      H        0.24570    0.40830    0.99900    1.000
    H31      H        0.33430    0.29150    0.08680    1.000
    H32      H        0.47570    0.27690    0.08630    1.000
    H33      H        0.52790    0.41250    0.97030    1.000
    H34      H        0.39030    0.43050    0.96850    1.000
    H35      H        0.43620    0.09220    0.01550    1.000
    H36      H        0.29450    0.10690    0.00990    1.000
    H37      H        0.36660    0.24180    0.89150    1.000
    H38      H        0.50520    0.22370    0.89990    1.000
    H39      H        0.21730    0.22130    0.91940    1.000
    H40      H        0.03710    0.08870    0.01440    1.000
    H41      H        0.88780    0.04640    0.03510    1.000
    H42      H        0.74350    0.05380    0.02480    1.000
    H43      H        0.81530    0.23930    0.93480    1.000
    H44      H        0.96020    0.23110    0.93650    1.000
    H45      H        0.68960    0.00620    0.61300    1.000
    H46      H        0.66720    0.75330    0.62980    1.000
    H47      H        0.65500    0.76430    0.71040    1.000
    H48      H        0.63500    0.80900    0.79870    1.000
    H49      H        0.61770    0.87660    0.86870    1.000
    H50      H        0.65790    0.10650    0.80150    1.000
    H51      H        0.54770    0.03900    0.69720    1.000
    H52      H        0.60300    0.13090    0.71570    1.000
    H53      H        0.61350    0.10330    0.66260    1.000
    H54      H        0.81020    0.08880    0.71510    1.000
    H55      H        0.77130    0.13350    0.67350    1.000
    H56      H        0.76190    0.16120    0.72670    1.000
    H57      H        0.61190    0.48640    0.38690    1.000
    H58      H        0.58860    0.72950    0.36810    1.000
    H59      H        0.59040    0.71310    0.28670    1.000
    H60      H        0.61000    0.66590    0.19850    1.000
    H61      H        0.63360    0.60060    0.12860    1.000
    H62      H        0.65190    0.38930    0.19990    1.000
    H63      H        0.49600    0.38510    0.28730    1.000
    H64      H        0.55810    0.32490    0.27560    1.000
    H65      H        0.54610    0.35150    0.32870    1.000
    H66      H        0.76090    0.47770    0.30110    1.000
    H67      H        0.70580    0.40780    0.33700    1.000
    H68      H        0.71830    0.38130    0.28390    1.000
    H69      H        0.86220    0.92760    0.50380    1.000
    H70      H        0.99950    0.91780    0.49330    1.000
    H71      H        0.91420    0.74200    0.39510    1.000
    H72      H        0.77410    0.76060    0.40480    1.000
    H73      H        0.06940    0.78310    0.41020    1.000
    H74      H        0.24570    0.90830    0.50100    1.000
    H75      H        0.33430    0.79150    0.41320    1.000
    H76      H        0.47570    0.77690    0.41370    1.000
    H77      H        0.52790    0.91250    0.52970    1.000
    H78      H        0.39030    0.93050    0.53150    1.000
    H79      H        0.43620    0.59220    0.48450    1.000
    H80      H        0.29450    0.60690    0.49010    1.000
    H81      H        0.36660    0.74180    0.60850    1.000
    H82      H        0.50520    0.72370    0.60010    1.000
    H83      H        0.21730    0.72130    0.58060    1.000
    H84      H        0.03710    0.58870    0.48560    1.000
    H85      H        0.88780    0.54640    0.46490    1.000
    H86      H        0.74350    0.55380    0.47520    1.000
    H87      H        0.81530    0.73930    0.56520    1.000
    H88      H        0.96020    0.73110    0.56350    1.000
    C1       C        0.68230    0.45770    0.86710    1.000
    C2       C        0.67780    0.37610    0.88610    1.000
    C3       C        0.66850    0.30750    0.85690    1.000
    C4       C        0.66090    0.31310    0.80910    1.000
    C5       C        0.63870    0.36860    0.70080    1.000
    C6       C        0.62980    0.40950    0.65930    1.000
    C7       C        0.63790    0.49820    0.65700    1.000
    C8       C        0.65320    0.54670    0.69910    1.000
    C9       C        0.66150    0.50600    0.74110    1.000
    C10      C        0.65340    0.41710    0.74180    1.000
    C11      C        0.66210    0.39190    0.79050    1.000
    C12      C        0.67600    0.46580    0.81910    1.000
    C13      C        0.67630    0.54450    0.79010    1.000
    C14      C        0.60370    0.58280    0.80490    1.000
    C15      C        0.76250    0.61310    0.79410    1.000
    C16      C        0.68070    0.36560    0.93870    1.000
    C17      C        0.62780    0.54080    0.61180    1.000
    C18      C        0.60970    0.03260    0.13320    1.000
    C19      C        0.60120    0.11100    0.11480    1.000
    C20      C        0.59450    0.17730    0.14490    1.000
    C21      C        0.59620    0.16840    0.19300    1.000
    C22      C        0.61870    0.11010    0.30130    1.000
    C23      C        0.63230    0.07120    0.34250    1.000
    C24      C        0.64400    0.98940    0.34200    1.000
    C25      C        0.64350    0.94520    0.30030    1.000
    C26      C        0.63050    0.98480    0.25860    1.000
    C27      C        0.61800    0.06590    0.25950    1.000
    C28      C        0.60680    0.09090    0.21080    1.000
    C29      C        0.61450    0.02550    0.18130    1.000
    C30      C        0.62830    0.95130    0.20960    1.000
    C31      C        0.54990    0.87080    0.20400    1.000
    C32      C        0.71060    0.92740    0.19570    1.000
    C33      C        0.60090    0.12460    0.06240    1.000
    C34      C        0.65900    0.94700    0.38810    1.000
    C35      C        0.87230    0.38980    0.01960    1.000
    C36      C        0.95370    0.38460    0.02570    1.000
    C37      C        0.97060    0.33250    0.05850    1.000
    C38      C        0.90450    0.28300    0.08320    1.000
    C39      C        0.82050    0.29290    0.07620    1.000
    C40      C        0.06030    0.32140    0.06640    1.000
    C41      C        0.25960    0.37530    0.02400    1.000
    C42      C        0.34580    0.36410    0.02680    1.000
    C43      C        0.37340    0.31730    0.06250    1.000
    C44      C        0.45800    0.30880    0.06210    1.000
    C45      C        0.48820    0.38790    0.99460    1.000
    C46      C        0.40580    0.39840    0.99330    1.000
    C47      C        0.42160    0.12290    0.98970    1.000
    C48      C        0.33670    0.13140    0.98670    1.000
    C49      C        0.31590    0.17560    0.94980    1.000
    C50      C        0.37940    0.21040    0.91740    1.000
    C51      C        0.46170    0.19950    0.92250    1.000
    C52      C        0.22890    0.18690    0.94430    1.000
    C53      C        0.02550    0.12590    0.99110    1.000
    C54      C        0.93890    0.13630    0.98580    1.000
    C55      C        0.87480    0.08510    0.01300    1.000
    C56      C        0.78840    0.09140    0.00700    1.000
    C57      C        0.82930    0.19750    0.95440    1.000
    C58      C        0.91720    0.19430    0.95580    1.000
    C59      C        0.68230    0.95770    0.63290    1.000
    C60      C        0.67780    0.87610    0.61390    1.000
    C61      C        0.66850    0.80750    0.64310    1.000
    C62      C        0.66090    0.81310    0.69090    1.000
    C63      C        0.63870    0.86860    0.79920    1.000
    C64      C        0.62980    0.90950    0.84070    1.000
    C65      C        0.63790    0.99820    0.84300    1.000
    C66      C        0.65320    0.04670    0.80090    1.000
    C67      C        0.66150    0.00600    0.75890    1.000
    C68      C        0.65340    0.91710    0.75820    1.000
    C69      C        0.66210    0.89190    0.70950    1.000
    C70      C        0.67600    0.96580    0.68090    1.000
    C71      C        0.67630    0.04450    0.70990    1.000
    C72      C        0.60370    0.08280    0.69510    1.000
    C73      C        0.76250    0.11310    0.70590    1.000
    C74      C        0.68070    0.86560    0.56130    1.000
    C75      C        0.62780    0.04080    0.88820    1.000
    C76      C        0.60970    0.53260    0.36680    1.000
    C77      C        0.60120    0.61100    0.38520    1.000
    C78      C        0.59450    0.67730    0.35510    1.000
    C79      C        0.59620    0.66840    0.30700    1.000
    C80      C        0.61870    0.61010    0.19870    1.000
    C81      C        0.63230    0.57120    0.15750    1.000
    C82      C        0.64400    0.48940    0.15800    1.000
    C83      C        0.64350    0.44520    0.19970    1.000
    C84      C        0.63050    0.48480    0.24140    1.000
    C85      C        0.61800    0.56590    0.24050    1.000
    C86      C        0.60680    0.59090    0.28920    1.000
    C87      C        0.61450    0.52550    0.31870    1.000
    C88      C        0.62830    0.45130    0.29040    1.000
    C89      C        0.54990    0.37080    0.29600    1.000
    C90      C        0.71060    0.42740    0.30430    1.000
    C91      C        0.60090    0.62460    0.43760    1.000
    C92      C        0.65900    0.44700    0.11190    1.000
    C93      C        0.87230    0.88980    0.48040    1.000
    C94      C        0.95370    0.88460    0.47430    1.000
    C95      C        0.97060    0.83250    0.44150    1.000
    C96      C        0.90450    0.78300    0.41680    1.000
    C97      C        0.82050    0.79290    0.42380    1.000
    C98      C        0.06030    0.82140    0.43360    1.000
    C99      C        0.25960    0.87530    0.47600    1.000
    C100     C        0.34580    0.86410    0.47320    1.000
    C101     C        0.37340    0.81730    0.43750    1.000
    C102     C        0.45800    0.80880    0.43790    1.000
    C103     C        0.48820    0.88790    0.50540    1.000
    C104     C        0.40580    0.89840    0.50670    1.000
    C105     C        0.42160    0.62290    0.51030    1.000
    C106     C        0.33670    0.63140    0.51330    1.000
    C107     C        0.31590    0.67560    0.55020    1.000
    C108     C        0.37940    0.71040    0.58260    1.000
    C109     C        0.46170    0.69950    0.57750    1.000
    C110     C        0.22890    0.68690    0.55570    1.000
    C111     C        0.02550    0.62590    0.50890    1.000
    C112     C        0.93890    0.63630    0.51420    1.000
    C113     C        0.87480    0.58510    0.48700    1.000
    C114     C        0.78840    0.59140    0.49300    1.000
    C115     C        0.82930    0.69750    0.54560    1.000
    C116     C        0.91720    0.69430    0.54420    1.000
    N1       N        0.80370    0.34480    0.04460    1.000
    N2       N        0.12280    0.36270    0.04200    1.000
    N3       N        0.20300    0.34290    0.05340    1.000
    N4       N        0.51480    0.34390    0.02880    1.000
    N5       N        0.48180    0.15550    0.95860    1.000
    N6       N        0.16800    0.15070    0.97280    1.000
    N7       N        0.08870    0.16860    0.96310    1.000
    N8       N        0.76620    0.14620    0.97840    1.000
    N9       N        0.80370    0.84480    0.45540    1.000
    N10      N        0.12280    0.86270    0.45800    1.000
    N11      N        0.20300    0.84290    0.44660    1.000
    N12      N        0.51480    0.84390    0.47120    1.000
    N13      N        0.48180    0.65550    0.54140    1.000
    N14      N        0.16800    0.65070    0.52720    1.000
    N15      N        0.08870    0.66860    0.53690    1.000
    N16      N        0.76620    0.64620    0.52160    1.000
    O1       O        0.69020    0.42940    0.96420    1.000
    O2       O        0.66930    0.29120    0.95490    1.000
    O3       O        0.62580    0.61640    0.61300    1.000
    O4       O        0.62520    0.49860    0.57490    1.000
    O5       O        0.59280    0.06130    0.03640    1.000
    O6       O        0.61260    0.20020    0.04690    1.000
    O7       O        0.67290    0.98930    0.42520    1.000
    O8       O        0.65460    0.86810    0.38610    1.000
    O9       O        0.69020    0.92940    0.53580    1.000
    O10      O        0.66930    0.79120    0.54510    1.000
    O11      O        0.62580    0.11640    0.88700    1.000
    O12      O        0.62520    0.99860    0.92510    1.000
    O13      O        0.59280    0.56130    0.46360    1.000
    O14      O        0.61260    0.70020    0.45310    1.000
    O15      O        0.67290    0.48930    0.07480    1.000
    O16      O        0.65460    0.36810    0.11390    1.000
    Cd5      Cd       0.38001    0.36392    0.46619    1.000
    Cd6      Cd       0.33799    0.14984    0.53398    1.000
    Cd7      Cd       0.38001    0.86392    0.03381    1.000
    Cd8      Cd       0.33799    0.64984    0.96602    1.000
    H89      H        0.31040    0.99380    0.38700    1.000
    H90      H        0.33280    0.24670    0.37020    1.000
    H91      H        0.34500    0.23570    0.28960    1.000
    H92      H        0.36500    0.19100    0.20130    1.000
    H93      H        0.38230    0.12340    0.13130    1.000
    H94      H        0.34210    0.89350    0.19850    1.000
    H95      H        0.45230    0.96100    0.30280    1.000
    H96      H        0.39700    0.86910    0.28430    1.000
    H97      H        0.38650    0.89670    0.33740    1.000
    H98      H        0.18980    0.91120    0.28490    1.000
    H99      H        0.22870    0.86650    0.32650    1.000
    H100     H        0.23810    0.83880    0.27330    1.000
    H101     H        0.38810    0.51360    0.61310    1.000
    H102     H        0.41140    0.27050    0.63190    1.000
    H103     H        0.40960    0.28690    0.71330    1.000
    H104     H        0.39000    0.33410    0.80150    1.000
    H105     H        0.36640    0.39940    0.87140    1.000
    H106     H        0.34810    0.61070    0.80010    1.000
    H107     H        0.50400    0.61490    0.71270    1.000
    H108     H        0.44190    0.67510    0.72440    1.000
    H109     H        0.45390    0.64850    0.67130    1.000
    H110     H        0.23910    0.52230    0.69890    1.000
    H111     H        0.29420    0.59220    0.66300    1.000
    H112     H        0.28170    0.61870    0.71610    1.000
    H113     H        0.13780    0.07240    0.49620    1.000
    H114     H        0.00050    0.08220    0.50670    1.000
    H115     H        0.08580    0.25800    0.60490    1.000
    H116     H        0.22590    0.23940    0.59520    1.000
    H117     H        0.93060    0.21690    0.58980    1.000
    H118     H        0.75430    0.09170    0.49900    1.000
    H119     H        0.66570    0.20850    0.58680    1.000
    H120     H        0.52430    0.22310    0.58630    1.000
    H121     H        0.47210    0.08750    0.47030    1.000
    H122     H        0.60970    0.06950    0.46850    1.000
    H123     H        0.56380    0.40780    0.51550    1.000
    H124     H        0.70550    0.39310    0.50990    1.000
    H125     H        0.63340    0.25820    0.39150    1.000
    H126     H        0.49480    0.27630    0.39990    1.000
    H127     H        0.78270    0.27870    0.41940    1.000
    H128     H        0.96290    0.41130    0.51440    1.000
    H129     H        0.11220    0.45360    0.53510    1.000
    H130     H        0.25650    0.44620    0.52480    1.000
    H131     H        0.18470    0.26070    0.43480    1.000
    H132     H        0.03980    0.26890    0.43650    1.000
    H133     H        0.31040    0.49380    0.11300    1.000
    H134     H        0.33280    0.74670    0.12980    1.000
    H135     H        0.34500    0.73570    0.21040    1.000
    H136     H        0.36500    0.69100    0.29870    1.000
    H137     H        0.38230    0.62340    0.36870    1.000
    H138     H        0.34210    0.39350    0.30150    1.000
    H139     H        0.45230    0.46100    0.19720    1.000
    H140     H        0.39700    0.36910    0.21570    1.000
    H141     H        0.38650    0.39670    0.16260    1.000
    H142     H        0.18980    0.41120    0.21510    1.000
    H143     H        0.22870    0.36650    0.17350    1.000
    H144     H        0.23810    0.33880    0.22670    1.000
    H145     H        0.38810    0.01360    0.88690    1.000
    H146     H        0.41140    0.77050    0.86810    1.000
    H147     H        0.40960    0.78690    0.78670    1.000
    H148     H        0.39000    0.83410    0.69850    1.000
    H149     H        0.36640    0.89940    0.62860    1.000
    H150     H        0.34810    0.11070    0.69990    1.000
    H151     H        0.50400    0.11490    0.78730    1.000
    H152     H        0.44190    0.17510    0.77560    1.000
    H153     H        0.45390    0.14850    0.82870    1.000
    H154     H        0.23910    0.02230    0.80110    1.000
    H155     H        0.29420    0.09220    0.83700    1.000
    H156     H        0.28170    0.11870    0.78390    1.000
    H157     H        0.13780    0.57240    0.00380    1.000
    H158     H        0.00050    0.58220    0.99330    1.000
    H159     H        0.08580    0.75800    0.89510    1.000
    H160     H        0.22590    0.73940    0.90480    1.000
    H161     H        0.93060    0.71690    0.91020    1.000
    H162     H        0.75430    0.59170    0.00100    1.000
    H163     H        0.66570    0.70850    0.91320    1.000
    H164     H        0.52430    0.72310    0.91370    1.000
    H165     H        0.47210    0.58750    0.02970    1.000
    H166     H        0.60970    0.56950    0.03150    1.000
    H167     H        0.56380    0.90780    0.98450    1.000
    H168     H        0.70550    0.89310    0.99010    1.000
    H169     H        0.63340    0.75820    0.10850    1.000
    H170     H        0.49480    0.77630    0.10010    1.000
    H171     H        0.78270    0.77870    0.08060    1.000
    H172     H        0.96290    0.91130    0.98560    1.000
    H173     H        0.11220    0.95360    0.96490    1.000
    H174     H        0.25650    0.94620    0.97520    1.000
    H175     H        0.18470    0.76070    0.06520    1.000
    H176     H        0.03980    0.76890    0.06350    1.000
    C117     C        0.31770    0.04230    0.36710    1.000
    C118     C        0.32220    0.12390    0.38610    1.000
    C119     C        0.33150    0.19250    0.35690    1.000
    C120     C        0.33910    0.18690    0.30910    1.000
    C121     C        0.36130    0.13140    0.20080    1.000
    C122     C        0.37020    0.09050    0.15930    1.000
    C123     C        0.36210    0.00180    0.15700    1.000
    C124     C        0.34680    0.95330    0.19910    1.000
    C125     C        0.33850    0.99400    0.24110    1.000
    C126     C        0.34660    0.08290    0.24180    1.000
    C127     C        0.33790    0.10810    0.29050    1.000
    C128     C        0.32400    0.03420    0.31910    1.000
    C129     C        0.32370    0.95550    0.29010    1.000
    C130     C        0.39630    0.91720    0.30490    1.000
    C131     C        0.23750    0.88690    0.29410    1.000
    C132     C        0.31930    0.13440    0.43870    1.000
    C133     C        0.37220    0.95920    0.11180    1.000
    C134     C        0.39030    0.46740    0.63320    1.000
    C135     C        0.39880    0.38900    0.61480    1.000
    C136     C        0.40550    0.32270    0.64490    1.000
    C137     C        0.40380    0.33160    0.69300    1.000
    C138     C        0.38130    0.38990    0.80130    1.000
    C139     C        0.36770    0.42880    0.84250    1.000
    C140     C        0.35600    0.51060    0.84200    1.000
    C141     C        0.35650    0.55480    0.80030    1.000
    C142     C        0.36950    0.51520    0.75860    1.000
    C143     C        0.38200    0.43410    0.75950    1.000
    C144     C        0.39320    0.40910    0.71080    1.000
    C145     C        0.38550    0.47450    0.68130    1.000
    C146     C        0.37170    0.54870    0.70960    1.000
    C147     C        0.45010    0.62920    0.70400    1.000
    C148     C        0.28940    0.57260    0.69570    1.000
    C149     C        0.39910    0.37540    0.56240    1.000
    C150     C        0.34100    0.55300    0.88810    1.000
    C151     C        0.12770    0.11020    0.51960    1.000
    C152     C        0.04630    0.11540    0.52570    1.000
    C153     C        0.02940    0.16750    0.55850    1.000
    C154     C        0.09550    0.21700    0.58320    1.000
    C155     C        0.17950    0.20710    0.57620    1.000
    C156     C        0.93970    0.17860    0.56640    1.000
    C157     C        0.74040    0.12470    0.52400    1.000
    C158     C        0.65420    0.13590    0.52680    1.000
    C159     C        0.62660    0.18270    0.56250    1.000
    C160     C        0.54200    0.19120    0.56210    1.000
    C161     C        0.51180    0.11210    0.49460    1.000
    C162     C        0.59420    0.10160    0.49330    1.000
    C163     C        0.57840    0.37710    0.48970    1.000
    C164     C        0.66330    0.36860    0.48670    1.000
    C165     C        0.68410    0.32440    0.44980    1.000
    C166     C        0.62060    0.28960    0.41740    1.000
    C167     C        0.53830    0.30050    0.42250    1.000
    C168     C        0.77110    0.31310    0.44430    1.000
    C169     C        0.97450    0.37410    0.49110    1.000
    C170     C        0.06110    0.36370    0.48580    1.000
    C171     C        0.12520    0.41490    0.51300    1.000
    C172     C        0.21160    0.40860    0.50700    1.000
    C173     C        0.17070    0.30250    0.45440    1.000
    C174     C        0.08280    0.30570    0.45580    1.000
    C175     C        0.31770    0.54230    0.13290    1.000
    C176     C        0.32220    0.62390    0.11390    1.000
    C177     C        0.33150    0.69250    0.14310    1.000
    C178     C        0.33910    0.68690    0.19090    1.000
    C179     C        0.36130    0.63140    0.29920    1.000
    C180     C        0.37020    0.59050    0.34070    1.000
    C181     C        0.36210    0.50180    0.34300    1.000
    C182     C        0.34680    0.45330    0.30090    1.000
    C183     C        0.33850    0.49400    0.25890    1.000
    C184     C        0.34660    0.58290    0.25820    1.000
    C185     C        0.33790    0.60810    0.20950    1.000
    C186     C        0.32400    0.53420    0.18090    1.000
    C187     C        0.32370    0.45550    0.20990    1.000
    C188     C        0.39630    0.41720    0.19510    1.000
    C189     C        0.23750    0.38690    0.20590    1.000
    C190     C        0.31930    0.63440    0.06130    1.000
    C191     C        0.37220    0.45920    0.38820    1.000
    C192     C        0.39030    0.96740    0.86680    1.000
    C193     C        0.39880    0.88900    0.88520    1.000
    C194     C        0.40550    0.82270    0.85510    1.000
    C195     C        0.40380    0.83160    0.80700    1.000
    C196     C        0.38130    0.88990    0.69870    1.000
    C197     C        0.36770    0.92880    0.65750    1.000
    C198     C        0.35600    0.01060    0.65800    1.000
    C199     C        0.35650    0.05480    0.69970    1.000
    C200     C        0.36950    0.01520    0.74140    1.000
    C201     C        0.38200    0.93410    0.74050    1.000
    C202     C        0.39320    0.90910    0.78920    1.000
    C203     C        0.38550    0.97450    0.81870    1.000
    C204     C        0.37170    0.04870    0.79040    1.000
    C205     C        0.45010    0.12920    0.79600    1.000
    C206     C        0.28940    0.07260    0.80430    1.000
    C207     C        0.39910    0.87540    0.93760    1.000
    C208     C        0.34100    0.05300    0.61190    1.000
    C209     C        0.12770    0.61020    0.98040    1.000
    C210     C        0.04630    0.61540    0.97430    1.000
    C211     C        0.02940    0.66750    0.94150    1.000
    C212     C        0.09550    0.71700    0.91680    1.000
    C213     C        0.17950    0.70710    0.92380    1.000
    C214     C        0.93970    0.67860    0.93360    1.000
    C215     C        0.74040    0.62470    0.97600    1.000
    C216     C        0.65420    0.63590    0.97320    1.000
    C217     C        0.62660    0.68270    0.93750    1.000
    C218     C        0.54200    0.69120    0.93790    1.000
    C219     C        0.51180    0.61210    0.00540    1.000
    C220     C        0.59420    0.60160    0.00670    1.000
    C221     C        0.57840    0.87710    0.01030    1.000
    C222     C        0.66330    0.86860    0.01330    1.000
    C223     C        0.68410    0.82440    0.05020    1.000
    C224     C        0.62060    0.78960    0.08260    1.000
    C225     C        0.53830    0.80050    0.07750    1.000
    C226     C        0.77110    0.81310    0.05570    1.000
    C227     C        0.97450    0.87410    0.00890    1.000
    C228     C        0.06110    0.86370    0.01420    1.000
    C229     C        0.12520    0.91490    0.98700    1.000
    C230     C        0.21160    0.90860    0.99300    1.000
    C231     C        0.17070    0.80250    0.04560    1.000
    C232     C        0.08280    0.80570    0.04420    1.000
    N17      N        0.19630    0.15520    0.54460    1.000
    N18      N        0.87720    0.13730    0.54200    1.000
    N19      N        0.79700    0.15710    0.55340    1.000
    N20      N        0.48520    0.15610    0.52880    1.000
    N21      N        0.51820    0.34450    0.45860    1.000
    N22      N        0.83200    0.34930    0.47280    1.000
    N23      N        0.91130    0.33140    0.46310    1.000
    N24      N        0.23380    0.35380    0.47840    1.000
    N25      N        0.19630    0.65520    0.95540    1.000
    N26      N        0.87720    0.63730    0.95800    1.000
    N27      N        0.79700    0.65710    0.94660    1.000
    N28      N        0.48520    0.65610    0.97120    1.000
    N29      N        0.51820    0.84450    0.04140    1.000
    N30      N        0.83200    0.84930    0.02720    1.000
    N31      N        0.91130    0.83140    0.03690    1.000
    N32      N        0.23380    0.85380    0.02160    1.000
    O17      O        0.30980    0.07060    0.46420    1.000
    O18      O        0.33070    0.20880    0.45490    1.000
    O19      O        0.37420    0.88360    0.11300    1.000
    O20      O        0.37480    0.00140    0.07490    1.000
    O21      O        0.40720    0.43870    0.53640    1.000
    O22      O        0.38740    0.29980    0.54690    1.000
    O23      O        0.32710    0.51070    0.92520    1.000
    O24      O        0.34540    0.63190    0.88610    1.000
    O25      O        0.30980    0.57060    0.03580    1.000
    O26      O        0.33070    0.70880    0.04510    1.000
    O27      O        0.37420    0.38360    0.38700    1.000
    O28      O        0.37480    0.50140    0.42510    1.000
    O29      O        0.40720    0.93870    0.96360    1.000
    O30      O        0.38740    0.79980    0.95310    1.000
    O31      O        0.32710    0.01070    0.57480    1.000
    O32      O        0.34540    0.13190    0.61390    1.000
