data_functionalizedCrystal
_audit_creation_method	'EQeq! by Chris Wilmer'
_symmetry_space_group_name_H-M	'P1'
_symmetry_Int_Tables_number	1
_symmetry_cell_setting	triclinic
loop_
_symmetry_equiv_pos_as_xyz
  x,y,z
_cell_length_a	8.9427
_cell_length_b	10.288
_cell_length_c	10.288
_cell_angle_alpha	120
_cell_angle_beta	90
_cell_angle_gamma	90
loop_
_atom_site_label
_atom_site_type_symbol
_atom_site_fract_x
_atom_site_fract_y
_atom_site_fract_z
_atom_site_charge
Mof_Ce	Ce	0.95012	0.33333	0.66666	3.086
Mof_Ce	Ce	0.04988	0.66667	0.33334	3.086
Mof_H 	H 	0.5624	0.4799	0.1151	0.052
Mof_H 	H 	0.7207	0.6298	0.0589	0.074
Mof_H 	H 	0.5624	0.6352	0.5201	0.051
Mof_H 	H 	0.7207	0.4291	0.3702	0.071
Mof_H 	H 	0.5624	0.8849	0.3648	0.051
Mof_H 	H 	0.7207	0.9411	0.5709	0.073
Mof_H 	H 	0.4376	0.5201	0.8849	0.051
Mof_H 	H 	0.2793	0.3702	0.9411	0.073
Mof_H 	H 	0.4376	0.3648	0.4799	0.051
Mof_H 	H 	0.2793	0.5709	0.6298	0.071
Mof_H 	H 	0.4376	0.1151	0.6352	0.051
Mof_H 	H 	0.2793	0.0589	0.4291	0.073
Mof_C 	C 	0.8438	0.4455	0.0253	0.469
Mof_C 	C 	0.5666	0.4619	0.0122	0.069
Mof_C 	C 	0.7156	0.521	0.9911	-0.073
Mof_C 	C 	0.8438	0.5798	0.5545	0.464
Mof_C 	C 	0.5666	0.5503	0.5381	0.067
Mof_C 	C 	0.7156	0.4701	0.479	-0.066
Mof_C 	C 	0.8438	0.9747	0.4202	0.468
Mof_C 	C 	0.5666	0.9878	0.4497	0.069
Mof_C 	C 	0.7156	0.0089	0.5299	-0.073
Mof_C 	C 	0.1562	0.5545	0.9747	0.469
Mof_C 	C 	0.4334	0.5381	0.9878	0.069
Mof_C 	C 	0.2844	0.479	0.0089	-0.073
Mof_C 	C 	0.1562	0.4202	0.4455	0.464
Mof_C 	C 	0.4334	0.4497	0.4619	0.067
Mof_C 	C 	0.2844	0.5299	0.521	-0.066
Mof_C 	C 	0.1562	0.0253	0.5798	0.468
Mof_C 	C 	0.4334	0.0122	0.5503	0.069
Mof_C 	C 	0.2844	0.9911	0.4701	-0.073
Mof_O 	O 	0.5591	0.3035	0.9111	-0.142
Mof_O 	O 	0.9218	0.3509	0.9172	-0.556
Mof_O 	O 	0.8629	0.4813	0.1595	-0.565
Mof_O 	O 	0.7346	0.488	0.839	-0.357
Mof_O 	O 	0.5591	0.6076	0.6965	-0.141
Mof_O 	O 	0.9218	0.5663	0.6491	-0.551
Mof_O 	O 	0.8629	0.6782	0.5187	-0.563
Mof_O 	O 	0.7346	0.351	0.512	-0.358
Mof_O 	O 	0.5591	0.0889	0.3924	-0.141
Mof_O 	O 	0.9218	0.0828	0.4337	-0.555
Mof_O 	O 	0.8629	0.8405	0.3218	-0.564
Mof_O 	O 	0.7346	0.161	0.649	-0.358
Mof_O 	O 	0.4409	0.6965	0.0889	-0.142
Mof_O 	O 	0.0782	0.6491	0.0828	-0.556
Mof_O 	O 	0.1371	0.5187	0.8405	-0.565
Mof_O 	O 	0.2654	0.512	0.161	-0.357
Mof_O 	O 	0.4409	0.3924	0.3035	-0.141
Mof_O 	O 	0.0782	0.4337	0.3509	-0.551
Mof_O 	O 	0.1371	0.3218	0.4813	-0.563
Mof_O 	O 	0.2654	0.649	0.488	-0.358
Mof_O 	O 	0.4409	0.9111	0.6076	-0.141
Mof_O 	O 	0.0782	0.9172	0.5663	-0.555
Mof_O 	O 	0.1371	0.1595	0.6782	-0.564
Mof_O 	O 	0.2654	0.839	0.351	-0.358
_end
