data_functionalizedCrystal
_audit_creation_method	'EQeq! by Chris Wilmer'
_symmetry_space_group_name_H-M	'P1'
_symmetry_Int_Tables_number	1
_symmetry_cell_setting	triclinic
loop_
_symmetry_equiv_pos_as_xyz
  x,y,z
_cell_length_a	34.7707
_cell_length_b	14.8406
_cell_length_c	31.2152
_cell_angle_alpha	90
_cell_angle_beta	102.601
_cell_angle_gamma	90
loop_
_atom_site_label
_atom_site_type_symbol
_atom_site_fract_x
_atom_site_fract_y
_atom_site_fract_z
_atom_site_charge
Mof_N 	N 	0.1239	0.6992	0.8839	-0.279
Mof_C 	C 	0.1502	0.6576	0.9145	0.078
Mof_H 	H 	0.1532	0.5943	0.9122	-0.022
Mof_C 	C 	0.1735	0.7018	0.9497	-0.143
Mof_H 	H 	0.1912	0.6688	0.9716	0.081
Mof_C 	C 	0.171	0.7918	0.9527	0.067
Mof_C 	C 	0.1451	0.838	0.9193	-0.133
Mof_H 	H 	0.1435	0.9019	0.919	0.092
Mof_C 	C 	0.1218	0.7858	0.8863	0.086
Mof_H 	H 	0.1032	0.8161	0.8642	-0.012
Mof_C 	C 	0.193	0.846	0.9906	0.093
Mof_N 	N 	0.2224	0.804	0.0189	-0.14
Mof_C 	C 	0.2394	0.8582	0.0518	0.087
Mof_N 	N 	0.232	0.9445	0.0584	-0.141
Mof_C 	C 	0.2036	0.9768	0.0264	0.081
Mof_N 	N 	0.1828	0.9322	0.9926	-0.136
Mof_N 	N 	0.3294	0.7299	0.1483	-0.273
Mof_C 	C 	0.3173	0.8108	0.1547	0.077
Mof_H 	H 	0.3281	0.8401	0.1817	-0.01
Mof_C 	C 	0.2891	0.8564	0.1236	-0.125
Mof_H 	H 	0.2825	0.917	0.1287	0.079
Mof_C 	C 	0.2714	0.8144	0.0864	0.048
Mof_C 	C 	0.2833	0.7253	0.0801	-0.123
Mof_H 	H 	0.271	0.6926	0.0546	0.088
Mof_C 	C 	0.3128	0.6861	0.1109	0.062
Mof_H 	H 	0.3216	0.6273	0.1059	-0.004
Mof_N 	N 	0.1791	0.2591	0.0241	-0.282
Mof_C 	C 	0.1525	0.1992	0.0023	0.069
Mof_H 	H 	0.128	0.2211	0.9858	-0.017
Mof_C 	C 	0.1595	0.1086	0.003	-0.132
Mof_H 	H 	0.1405	0.0685	0.9867	0.092
Mof_C 	C 	0.1952	0.0755	0.0282	0.089
Mof_C 	C 	0.2218	0.1367	0.0511	-0.146
Mof_H 	H 	0.2466	0.1175	0.0677	0.092
Mof_C 	C 	0.2116	0.2252	0.0492	0.094
Mof_H 	H 	0.2291	0.2659	0.0672	-0.02
Mof_I 	I 	0.02325	0.8988	0.38261	-0.318
Mof_I 	I 	0.1136	0.0043	0.3087	-0.2
Mof_I 	I 	0.233	0.0197	0.53724	-0.167
Mof_I 	I 	0.1241	0.1041	0.44268	-0.223
Mof_I 	I 	0.1214	0.4114	0.9426	-0.15
Mof_Zn	Zn	0.16569	0.39465	0.01727	1.158
Mof_I 	I 	0.22559	0.496	0.0381	-0.158
Mof_N 	N 	0.1343	0.4185	0.0644	-0.278
Mof_C 	C 	0.1486	0.4661	0.1019	0.071
Mof_H 	H 	0.1746	0.4897	0.1065	-0.011
Mof_C 	C 	0.1277	0.4811	0.1326	-0.122
Mof_H 	H 	0.1395	0.5113	0.159	0.088
Mof_C 	C 	0.0894	0.453	0.1261	0.068
Mof_C 	C 	0.0734	0.408	0.0885	-0.114
Mof_H 	H 	0.0468	0.3876	0.0831	0.083
Mof_C 	C 	0.0966	0.391	0.0576	0.063
Mof_H 	H 	0.0853	0.3598	0.0313	-0.015
Mof_C 	C 	0.0654	0.4705	0.1585	0.103
Mof_N 	N 	0.0736	0.5421	0.1851	-0.134
Mof_C 	C 	0.0515	0.5487	0.2148	0.094
Mof_N 	N 	0.0237	0.4923	0.2205	-0.151
Mof_C 	C 	0.0165	0.426	0.1907	0.093
Mof_N 	N 	0.0358	0.4117	0.1591	-0.132
Mof_N 	N 	0.9205	0.254	0.1958	-0.269
Mof_C 	C 	0.9314	0.2702	0.1582	0.078
Mof_H 	H 	0.9166	0.2431	0.1322	-0.014
Mof_C 	C 	0.9627	0.3237	0.1551	-0.12
Mof_H 	H 	0.9702	0.3312	0.1279	0.086
Mof_C 	C 	0.9833	0.3671	0.1929	0.043
Mof_C 	C 	0.9714	0.3501	0.2324	-0.113
Mof_H 	H 	0.9854	0.3763	0.259	0.075
Mof_C 	C 	0.9401	0.2967	0.2325	0.069
Mof_H 	H 	0.9315	0.2886	0.2591	-0.001
Mof_I 	I 	0.85673	0.19304	0.27067	-0.362
Mof_Zn	Zn	0.87297	0.1709	0.19601	1.165
Mof_I 	I 	0.89045	0.02307	0.16529	-0.369
Mof_N 	N 	0.0663	0.7822	0.2977	-0.27
Mof_C 	C 	0.0367	0.7235	0.2972	0.071
Mof_H 	H 	0.0191	0.7336	0.3161	-0.007
Mof_C 	C 	0.0314	0.65	0.2706	-0.118
Mof_H 	H 	0.0098	0.6109	0.2707	0.073
Mof_C 	C 	0.0564	0.6315	0.2437	0.051
Mof_C 	C 	0.0868	0.693	0.2434	-0.113
Mof_H 	H 	0.1045	0.684	0.2245	0.078
Mof_C 	C 	0.0908	0.7665	0.2707	0.062
Mof_H 	H 	0.1116	0.8077	0.2704	-0.015
Mof_Zn	Zn	0.08055	0.88458	0.34414	1.158
Mof_N 	N 	0.1207	0.8142	0.391	-0.279
Mof_C 	C 	0.1129	0.7317	0.3996	0.094
Mof_H 	H 	0.0907	0.7042	0.381	-0.014
Mof_C 	C 	0.1342	0.6807	0.4335	-0.137
Mof_H 	H 	0.1274	0.6197	0.4374	0.098
Mof_C 	C 	0.165	0.72	0.4611	0.065
Mof_C 	C 	0.1736	0.8105	0.4538	-0.135
Mof_H 	H 	0.1948	0.8404	0.4727	0.075
Mof_C 	C 	0.1511	0.8543	0.4194	0.068
Mof_H 	H 	0.1567	0.9158	0.4148	-0.023
Mof_C 	C 	0.1891	0.669	0.4979	0.094
Mof_N 	N 	0.1797	0.5819	0.502	-0.134
Mof_C 	C 	0.2031	0.5358	0.5333	0.103
Mof_N 	N 	0.233	0.5723	0.5639	-0.139
Mof_C 	C 	0.24	0.6589	0.5574	0.091
Mof_N 	N 	0.2193	0.7092	0.5254	-0.142
Mof_N 	N 	0.1827	0.2521	0.5285	-0.273
Mof_C 	C 	0.2162	0.286	0.5522	0.074
Mof_H 	H 	0.2359	0.245	0.5662	-0.011
Mof_C 	C 	0.2238	0.376	0.5574	-0.12
Mof_H 	H 	0.2472	0.3973	0.5764	0.078
Mof_C 	C 	0.1951	0.4375	0.5333	0.056
Mof_C 	C 	0.1611	0.4031	0.5094	-0.12
Mof_H 	H 	0.1408	0.442	0.4946	0.082
Mof_C 	C 	0.1563	0.3107	0.5069	0.066
Mof_H 	H 	0.1328	0.2875	0.4888	-0.017
Mof_N 	N 	0.3326	0.7919	0.6454	-0.273
Mof_C 	C 	0.3145	0.829	0.6077	0.072
Mof_H 	H 	0.3229	0.8869	0.6006	-0.012
Mof_C 	C 	0.2842	0.7881	0.5784	-0.128
Mof_H 	H 	0.2721	0.8173	0.5518	0.084
Mof_C 	C 	0.2719	0.7041	0.5884	0.043
Mof_C 	C 	0.2906	0.6628	0.6278	-0.11
Mof_H 	H 	0.2829	0.6047	0.6354	0.082
Mof_C 	C 	0.321	0.7094	0.6554	0.06
Mof_H 	H 	0.334	0.6821	0.6821	-0
Mof_I 	I 	0.11257	0.50836	0.80528	-0.392
Mof_Zn	Zn	0.0805	0.62964	0.84012	1.165
Mof_I 	I 	0.02539	0.61744	0.88108	-0.359
Mof_N 	N 	0.0648	0.7295	0.7921	-0.268
Mof_C 	C 	0.0381	0.7922	0.7965	0.059
Mof_H 	H 	0.0225	0.7837	0.8177	-0.006
Mof_C 	C 	0.0328	0.8699	0.7705	-0.114
Mof_H 	H 	0.0143	0.9143	0.7746	0.067
Mof_C 	C 	0.0545	0.8817	0.739	0.05
Mof_C 	C 	0.0805	0.8124	0.733	-0.12
Mof_H 	H 	0.0945	0.8154	0.7102	0.081
Mof_C 	C 	0.0849	0.7401	0.7614	0.073
Mof_H 	H 	0.1036	0.6951	0.7585	-0.013
Mof_C 	C 	0.0509	0.965	0.7125	0.077
Mof_N 	N 	0.0239	0.0244	0.7173	-0.137
Mof_C 	C 	0.0186	0.0916	0.6886	0.092
Mof_N 	N 	0.0395	0.1049	0.6585	-0.139
Mof_C 	C 	0.0673	0.0452	0.6584	0.129
Mof_N 	N 	0.074	0.9723	0.6835	-0.148
Mof_N 	N 	0.1389	0.0894	0.5653	-0.291
Mof_C 	C 	0.1465	0.0238	0.5947	0.113
Mof_H 	H 	0.1684	0.9857	0.5945	-0.043
Mof_C 	C 	0.1249	0.0079	0.6249	-0.108
Mof_H 	H 	0.1326	0.9617	0.646	0.065
Mof_C 	C 	0.0921	0.0577	0.6252	0.065
Mof_C 	C 	0.0833	0.126	0.5933	-0.135
Mof_H 	H 	0.06	0.1612	0.5901	0.089
Mof_C 	C 	0.1089	0.14	0.5676	0.103
Mof_H 	H 	0.1047	0.1913	0.5492	-0.031
Mof_Zn	Zn	0.17109	0.11504	0.51827	1.159
Mof_N 	N 	0.9236	0.2694	0.691	-0.28
Mof_C 	C 	0.9373	0.261	0.6556	0.09
Mof_H 	H 	0.9254	0.2947	0.6302	-0.022
Mof_C 	C 	0.9686	0.2043	0.6537	-0.14
Mof_H 	H 	0.9778	0.1985	0.6274	0.09
Mof_C 	C 	0.9858	0.1577	0.6898	0.065
Mof_C 	C 	0.9708	0.1627	0.7271	-0.141
Mof_H 	H 	0.9806	0.1266	0.7522	0.087
Mof_C 	C 	0.9404	0.2238	0.7257	0.093
Mof_H 	H 	0.9312	0.233	0.7518	-0.012
Mof_I 	I 	0.85919	0.3492	0.764	-0.373
Mof_Zn	Zn	0.87666	0.35653	0.68993	1.165
Mof_I 	I 	0.89173	0.50092	0.65426	-0.387
Mof_I 	I 	0.1164	0.4117	0.9426	-0.206
Mof_I 	I 	0.2285	0.488	0.0409	-0.178
Mof_I 	I 	0.0256	0.906	0.3717	-0.046
Mof_I 	I 	0.1243	0.996	0.3084	-0.137
Mof_I 	I 	0.2357	0.034	0.5437	-0.158
Mof_I 	I 	0.1305	0.1001	0.4438	-0.137
Mof_N 	N 	0.6239	0.1992	0.8839	-0.277
Mof_C 	C 	0.6502	0.1576	0.9145	0.081
Mof_H 	H 	0.6532	0.0943	0.9122	-0.016
Mof_C 	C 	0.6735	0.2018	0.9497	-0.141
Mof_H 	H 	0.6912	0.1688	0.9716	0.086
Mof_C 	C 	0.671	0.2918	0.9527	0.071
Mof_C 	C 	0.6451	0.338	0.9193	-0.133
Mof_H 	H 	0.6435	0.4019	0.919	0.098
Mof_C 	C 	0.6218	0.2858	0.8863	0.089
Mof_H 	H 	0.6032	0.3161	0.8642	-0.009
Mof_C 	C 	0.693	0.346	0.9906	0.094
Mof_N 	N 	0.7224	0.304	0.0189	-0.14
Mof_C 	C 	0.7394	0.3582	0.0518	0.088
Mof_N 	N 	0.732	0.4445	0.0584	-0.141
Mof_C 	C 	0.7036	0.4768	0.0264	0.106
Mof_N 	N 	0.6828	0.4322	0.9926	-0.136
Mof_N 	N 	0.8294	0.2299	0.1483	-0.273
Mof_C 	C 	0.8173	0.3108	0.1547	0.079
Mof_H 	H 	0.8281	0.3401	0.1817	-0.007
Mof_C 	C 	0.7891	0.3564	0.1236	-0.125
Mof_H 	H 	0.7825	0.417	0.1287	0.085
Mof_C 	C 	0.7714	0.3144	0.0864	0.051
Mof_C 	C 	0.7833	0.2253	0.0801	-0.123
Mof_H 	H 	0.771	0.1926	0.0546	0.091
Mof_C 	C 	0.8128	0.1861	0.1109	0.065
Mof_H 	H 	0.8216	0.1273	0.1059	-0.001
Mof_N 	N 	0.6791	0.7591	0.0241	-0.279
Mof_C 	C 	0.6525	0.6992	0.0023	0.061
Mof_H 	H 	0.628	0.7211	0.9858	-0.015
Mof_C 	C 	0.6595	0.6086	0.003	-0.118
Mof_H 	H 	0.6405	0.5685	0.9867	0.081
Mof_C 	C 	0.6952	0.5755	0.0282	0.059
Mof_C 	C 	0.7218	0.6367	0.0511	-0.131
Mof_H 	H 	0.7466	0.6175	0.0677	0.082
Mof_C 	C 	0.7116	0.7252	0.0492	0.085
Mof_H 	H 	0.7291	0.7659	0.0672	-0.018
Mof_I 	I 	0.52325	0.3988	0.38261	-0.311
Mof_I 	I 	0.6136	0.5043	0.3087	-0.1
Mof_I 	I 	0.733	0.5197	0.53724	-0.172
Mof_I 	I 	0.6241	0.6041	0.44268	-0.229
Mof_I 	I 	0.6214	0.9114	0.9426	-0.157
Mof_Zn	Zn	0.66569	0.89465	0.01727	1.157
Mof_I 	I 	0.72559	0.996	0.0381	-0.164
Mof_N 	N 	0.6343	0.9185	0.0644	-0.286
Mof_C 	C 	0.6486	0.9661	0.1019	0.102
Mof_H 	H 	0.6746	0.9897	0.1065	-0.026
Mof_C 	C 	0.6277	0.9811	0.1326	-0.188
Mof_H 	H 	0.6395	0.0113	0.159	0.126
Mof_C 	C 	0.5894	0.953	0.1261	0.099
Mof_C 	C 	0.5734	0.908	0.0885	-0.136
Mof_H 	H 	0.5468	0.8876	0.0831	0.088
Mof_C 	C 	0.5966	0.891	0.0576	0.072
Mof_H 	H 	0.5853	0.8598	0.0313	-0.019
Mof_C 	C 	0.5654	0.9705	0.1585	0.075
Mof_N 	N 	0.5736	0.0421	0.1851	-0.122
Mof_C 	C 	0.5515	0.0487	0.2148	0.113
Mof_N 	N 	0.5237	0.9923	0.2205	-0.166
Mof_C 	C 	0.5165	0.926	0.1907	0.089
Mof_N 	N 	0.5358	0.9117	0.1591	-0.13
Mof_N 	N 	0.4205	0.754	0.1958	-0.269
Mof_C 	C 	0.4314	0.7702	0.1582	0.076
Mof_H 	H 	0.4166	0.7431	0.1322	-0.014
Mof_C 	C 	0.4627	0.8237	0.1551	-0.12
Mof_H 	H 	0.4702	0.8312	0.1279	0.084
Mof_C 	C 	0.4833	0.8671	0.1929	0.04
Mof_C 	C 	0.4714	0.8501	0.2324	-0.114
Mof_H 	H 	0.4854	0.8763	0.259	0.071
Mof_C 	C 	0.4401	0.7967	0.2325	0.066
Mof_H 	H 	0.4315	0.7886	0.2591	-0.002
Mof_I 	I 	0.35673	0.69304	0.27067	-0.372
Mof_Zn	Zn	0.37297	0.6709	0.19601	1.165
Mof_I 	I 	0.39045	0.52307	0.16529	-0.389
Mof_N 	N 	0.5663	0.2822	0.2977	-0.268
Mof_C 	C 	0.5367	0.2235	0.2972	0.07
Mof_H 	H 	0.5191	0.2336	0.3161	-0.005
Mof_C 	C 	0.5314	0.15	0.2706	-0.114
Mof_H 	H 	0.5098	0.1109	0.2707	0.075
Mof_C 	C 	0.5564	0.1315	0.2437	0.047
Mof_C 	C 	0.5868	0.193	0.2434	-0.109
Mof_H 	H 	0.6045	0.184	0.2245	0.079
Mof_C 	C 	0.5908	0.2665	0.2707	0.061
Mof_H 	H 	0.6116	0.3077	0.2704	-0.01
Mof_Zn	Zn	0.58055	0.38458	0.34414	1.159
Mof_N 	N 	0.6207	0.3142	0.391	-0.277
Mof_C 	C 	0.6129	0.2317	0.3996	0.096
Mof_H 	H 	0.5907	0.2042	0.381	-0.013
Mof_C 	C 	0.6342	0.1807	0.4335	-0.137
Mof_H 	H 	0.6274	0.1197	0.4374	0.101
Mof_C 	C 	0.665	0.22	0.4611	0.068
Mof_C 	C 	0.6736	0.3105	0.4538	-0.135
Mof_H 	H 	0.6948	0.3404	0.4727	0.079
Mof_C 	C 	0.6511	0.3543	0.4194	0.07
Mof_H 	H 	0.6567	0.4158	0.4148	-0.016
Mof_C 	C 	0.6891	0.169	0.4979	0.096
Mof_N 	N 	0.6797	0.0819	0.502	-0.134
Mof_C 	C 	0.7031	0.0358	0.5333	0.128
Mof_N 	N 	0.733	0.0723	0.5639	-0.138
Mof_C 	C 	0.74	0.1589	0.5574	0.093
Mof_N 	N 	0.7193	0.2092	0.5254	-0.141
Mof_N 	N 	0.6827	0.7521	0.5285	-0.27
Mof_C 	C 	0.7162	0.786	0.5522	0.065
Mof_H 	H 	0.7359	0.745	0.5662	-0.01
Mof_C 	C 	0.7238	0.876	0.5574	-0.106
Mof_H 	H 	0.7472	0.8973	0.5764	0.068
Mof_C 	C 	0.6951	0.9375	0.5333	0.024
Mof_C 	C 	0.6611	0.9031	0.5094	-0.104
Mof_H 	H 	0.6408	0.942	0.4946	0.069
Mof_C 	C 	0.6563	0.8107	0.5069	0.055
Mof_H 	H 	0.6328	0.7875	0.4888	-0.015
Mof_N 	N 	0.8326	0.2919	0.6454	-0.271
Mof_C 	C 	0.8145	0.329	0.6077	0.073
Mof_H 	H 	0.8229	0.3869	0.6006	-0.006
Mof_C 	C 	0.7842	0.2881	0.5784	-0.127
Mof_H 	H 	0.7721	0.3173	0.5518	0.087
Mof_C 	C 	0.7719	0.2041	0.5884	0.045
Mof_C 	C 	0.7906	0.1628	0.6278	-0.109
Mof_H 	H 	0.7829	0.1047	0.6354	0.085
Mof_C 	C 	0.821	0.2094	0.6554	0.061
Mof_H 	H 	0.834	0.1821	0.6821	0.001
Mof_I 	I 	0.61257	0.00836	0.80528	-0.37
Mof_Zn	Zn	0.5805	0.12964	0.84012	1.166
Mof_I 	I 	0.52539	0.11744	0.88108	-0.341
Mof_N 	N 	0.5648	0.2295	0.7921	-0.267
Mof_C 	C 	0.5381	0.2922	0.7965	0.059
Mof_H 	H 	0.5225	0.2837	0.8177	-0.004
Mof_C 	C 	0.5328	0.3699	0.7705	-0.109
Mof_H 	H 	0.5143	0.4143	0.7746	0.072
Mof_C 	C 	0.5545	0.3817	0.739	0.047
Mof_C 	C 	0.5805	0.3124	0.733	-0.116
Mof_H 	H 	0.5945	0.3154	0.7102	0.082
Mof_C 	C 	0.5849	0.2401	0.7614	0.073
Mof_H 	H 	0.6036	0.1951	0.7585	-0.011
Mof_C 	C 	0.5509	0.465	0.7125	0.097
Mof_N 	N 	0.5239	0.5244	0.7173	-0.151
Mof_C 	C 	0.5186	0.5916	0.6886	0.089
Mof_N 	N 	0.5395	0.6049	0.6585	-0.137
Mof_C 	C 	0.5673	0.5452	0.6584	0.105
Mof_N 	N 	0.574	0.4723	0.6835	-0.136
Mof_N 	N 	0.6389	0.5894	0.5653	-0.291
Mof_C 	C 	0.6465	0.5238	0.5947	0.094
Mof_H 	H 	0.6684	0.4857	0.5945	-0.02
Mof_C 	C 	0.6249	0.5079	0.6249	-0.142
Mof_H 	H 	0.6326	0.4617	0.646	0.09
Mof_C 	C 	0.5921	0.5577	0.6252	0.08
Mof_C 	C 	0.5833	0.626	0.5933	-0.145
Mof_H 	H 	0.56	0.6612	0.5901	0.09
Mof_C 	C 	0.6089	0.64	0.5676	0.107
Mof_H 	H 	0.6047	0.6913	0.5492	-0.034
Mof_Zn	Zn	0.67109	0.61504	0.51827	1.158
Mof_N 	N 	0.4236	0.7694	0.691	-0.282
Mof_C 	C 	0.4373	0.761	0.6556	0.088
Mof_H 	H 	0.4254	0.7947	0.6302	-0.025
Mof_C 	C 	0.4686	0.7043	0.6537	-0.141
Mof_H 	H 	0.4778	0.6985	0.6274	0.088
Mof_C 	C 	0.4858	0.6577	0.6898	0.063
Mof_C 	C 	0.4708	0.6627	0.7271	-0.142
Mof_H 	H 	0.4806	0.6266	0.7522	0.083
Mof_C 	C 	0.4404	0.7238	0.7257	0.09
Mof_H 	H 	0.4312	0.733	0.7518	-0.013
Mof_I 	I 	0.35919	0.8492	0.764	-0.386
Mof_Zn	Zn	0.37666	0.85653	0.68993	1.162
Mof_I 	I 	0.39173	0.00092	0.65426	-0.364
Mof_I 	I 	0.6164	0.9117	0.9426	-0.212
Mof_I 	I 	0.7285	0.988	0.0409	-0.186
Mof_I 	I 	0.5256	0.406	0.3717	-0.037
Mof_I 	I 	0.6243	0.496	0.3084	-0.236
Mof_I 	I 	0.7357	0.534	0.5437	-0.168
Mof_I 	I 	0.6305	0.6001	0.4438	-0.143
Mof_N 	N 	0.8761	0.6992	0.1161	-0.278
Mof_C 	C 	0.8498	0.6576	0.0855	0.079
Mof_H 	H 	0.8468	0.5943	0.0878	-0.021
Mof_C 	C 	0.8265	0.7018	0.0503	-0.142
Mof_H 	H 	0.8088	0.6688	0.0284	0.082
Mof_C 	C 	0.829	0.7918	0.0473	0.068
Mof_C 	C 	0.8549	0.838	0.0807	-0.133
Mof_H 	H 	0.8565	0.9019	0.081	0.092
Mof_C 	C 	0.8782	0.7858	0.1137	0.086
Mof_H 	H 	0.8968	0.8161	0.1358	-0.012
Mof_C 	C 	0.807	0.846	0.0094	0.093
Mof_N 	N 	0.7776	0.804	0.9811	-0.14
Mof_C 	C 	0.7606	0.8582	0.9482	0.087
Mof_N 	N 	0.768	0.9445	0.9416	-0.141
Mof_C 	C 	0.7964	0.9768	0.9736	0.081
Mof_N 	N 	0.8172	0.9322	0.0074	-0.136
Mof_N 	N 	0.6706	0.7299	0.8517	-0.273
Mof_C 	C 	0.6827	0.8108	0.8453	0.077
Mof_H 	H 	0.6719	0.8401	0.8183	-0.01
Mof_C 	C 	0.7109	0.8564	0.8764	-0.125
Mof_H 	H 	0.7175	0.917	0.8713	0.079
Mof_C 	C 	0.7286	0.8144	0.9136	0.048
Mof_C 	C 	0.7167	0.7253	0.9199	-0.123
Mof_H 	H 	0.729	0.6926	0.9454	0.088
Mof_C 	C 	0.6872	0.6861	0.8891	0.062
Mof_H 	H 	0.6784	0.6273	0.8941	-0.004
Mof_N 	N 	0.8209	0.2591	0.9759	-0.282
Mof_C 	C 	0.8475	0.1992	0.9977	0.069
Mof_H 	H 	0.872	0.2211	0.0142	-0.017
Mof_C 	C 	0.8405	0.1086	0.997	-0.132
Mof_H 	H 	0.8595	0.0685	0.0133	0.092
Mof_C 	C 	0.8048	0.0755	0.9718	0.089
Mof_C 	C 	0.7782	0.1367	0.9489	-0.146
Mof_H 	H 	0.7534	0.1175	0.9323	0.092
Mof_C 	C 	0.7884	0.2252	0.9508	0.094
Mof_H 	H 	0.7709	0.2659	0.9328	-0.02
Mof_I 	I 	0.97675	0.8988	0.61739	-0.318
Mof_I 	I 	0.8864	0.0043	0.6913	-0.2
Mof_I 	I 	0.767	0.0197	0.46276	-0.167
Mof_I 	I 	0.8759	0.1041	0.55732	-0.223
Mof_I 	I 	0.8786	0.4114	0.0574	-0.15
Mof_Zn	Zn	0.83431	0.39465	0.98273	1.158
Mof_I 	I 	0.77441	0.496	0.9619	-0.158
Mof_N 	N 	0.8657	0.4185	0.9356	-0.278
Mof_C 	C 	0.8514	0.4661	0.8981	0.071
Mof_H 	H 	0.8254	0.4897	0.8935	-0.011
Mof_C 	C 	0.8723	0.4811	0.8674	-0.122
Mof_H 	H 	0.8605	0.5113	0.841	0.088
Mof_C 	C 	0.9106	0.453	0.8739	0.068
Mof_C 	C 	0.9266	0.408	0.9115	-0.114
Mof_H 	H 	0.9532	0.3876	0.9169	0.083
Mof_C 	C 	0.9034	0.391	0.9424	0.063
Mof_H 	H 	0.9147	0.3598	0.9687	-0.015
Mof_C 	C 	0.9346	0.4705	0.8415	0.103
Mof_N 	N 	0.9264	0.5421	0.8149	-0.134
Mof_C 	C 	0.9485	0.5487	0.7852	0.094
Mof_N 	N 	0.9763	0.4923	0.7795	-0.151
Mof_C 	C 	0.9835	0.426	0.8093	0.093
Mof_N 	N 	0.9642	0.4117	0.8409	-0.132
Mof_N 	N 	0.0795	0.254	0.8042	-0.269
Mof_C 	C 	0.0686	0.2702	0.8418	0.078
Mof_H 	H 	0.0834	0.2431	0.8678	-0.014
Mof_C 	C 	0.0373	0.3237	0.8449	-0.12
Mof_H 	H 	0.0298	0.3312	0.8721	0.086
Mof_C 	C 	0.0167	0.3671	0.8071	0.043
Mof_C 	C 	0.0286	0.3501	0.7676	-0.113
Mof_H 	H 	0.0146	0.3763	0.741	0.075
Mof_C 	C 	0.0599	0.2967	0.7675	0.069
Mof_H 	H 	0.0685	0.2886	0.7409	-0.001
Mof_I 	I 	0.14327	0.19304	0.72933	-0.362
Mof_Zn	Zn	0.12703	0.1709	0.80399	1.165
Mof_I 	I 	0.10955	0.02307	0.83471	-0.369
Mof_N 	N 	0.9337	0.7822	0.7023	-0.27
Mof_C 	C 	0.9633	0.7235	0.7028	0.071
Mof_H 	H 	0.9809	0.7336	0.6839	-0.007
Mof_C 	C 	0.9686	0.65	0.7294	-0.118
Mof_H 	H 	0.9902	0.6109	0.7293	0.073
Mof_C 	C 	0.9436	0.6315	0.7563	0.051
Mof_C 	C 	0.9132	0.693	0.7566	-0.113
Mof_H 	H 	0.8955	0.684	0.7755	0.078
Mof_C 	C 	0.9092	0.7665	0.7293	0.062
Mof_H 	H 	0.8884	0.8077	0.7296	-0.015
Mof_Zn	Zn	0.91945	0.88458	0.65586	1.158
Mof_N 	N 	0.8793	0.8142	0.609	-0.279
Mof_C 	C 	0.8871	0.7317	0.6004	0.094
Mof_H 	H 	0.9093	0.7042	0.619	-0.014
Mof_C 	C 	0.8658	0.6807	0.5665	-0.137
Mof_H 	H 	0.8726	0.6197	0.5626	0.098
Mof_C 	C 	0.835	0.72	0.5389	0.065
Mof_C 	C 	0.8264	0.8105	0.5462	-0.135
Mof_H 	H 	0.8052	0.8404	0.5273	0.075
Mof_C 	C 	0.8489	0.8543	0.5806	0.068
Mof_H 	H 	0.8433	0.9158	0.5852	-0.023
Mof_C 	C 	0.8109	0.669	0.5021	0.094
Mof_N 	N 	0.8203	0.5819	0.498	-0.134
Mof_C 	C 	0.7969	0.5358	0.4667	0.103
Mof_N 	N 	0.767	0.5723	0.4361	-0.139
Mof_C 	C 	0.76	0.6589	0.4426	0.091
Mof_N 	N 	0.7807	0.7092	0.4746	-0.142
Mof_N 	N 	0.8173	0.2521	0.4715	-0.273
Mof_C 	C 	0.7838	0.286	0.4478	0.074
Mof_H 	H 	0.7641	0.245	0.4338	-0.011
Mof_C 	C 	0.7762	0.376	0.4426	-0.12
Mof_H 	H 	0.7528	0.3973	0.4236	0.078
Mof_C 	C 	0.8049	0.4375	0.4667	0.056
Mof_C 	C 	0.8389	0.4031	0.4906	-0.12
Mof_H 	H 	0.8592	0.442	0.5054	0.082
Mof_C 	C 	0.8437	0.3107	0.4931	0.066
Mof_H 	H 	0.8672	0.2875	0.5112	-0.017
Mof_N 	N 	0.6674	0.7919	0.3546	-0.273
Mof_C 	C 	0.6855	0.829	0.3923	0.072
Mof_H 	H 	0.6771	0.8869	0.3994	-0.012
Mof_C 	C 	0.7158	0.7881	0.4216	-0.128
Mof_H 	H 	0.7279	0.8173	0.4482	0.084
Mof_C 	C 	0.7281	0.7041	0.4116	0.043
Mof_C 	C 	0.7094	0.6628	0.3722	-0.11
Mof_H 	H 	0.7171	0.6047	0.3646	0.082
Mof_C 	C 	0.679	0.7094	0.3446	0.06
Mof_H 	H 	0.666	0.6821	0.3179	-0
Mof_I 	I 	0.88743	0.50836	0.19472	-0.392
Mof_Zn	Zn	0.9195	0.62964	0.15988	1.165
Mof_I 	I 	0.97461	0.61744	0.11892	-0.359
Mof_N 	N 	0.9352	0.7295	0.2079	-0.268
Mof_C 	C 	0.9619	0.7922	0.2035	0.059
Mof_H 	H 	0.9775	0.7837	0.1823	-0.006
Mof_C 	C 	0.9672	0.8699	0.2295	-0.114
Mof_H 	H 	0.9857	0.9143	0.2254	0.067
Mof_C 	C 	0.9455	0.8817	0.261	0.05
Mof_C 	C 	0.9195	0.8124	0.267	-0.12
Mof_H 	H 	0.9055	0.8154	0.2898	0.081
Mof_C 	C 	0.9151	0.7401	0.2386	0.073
Mof_H 	H 	0.8964	0.6951	0.2415	-0.013
Mof_C 	C 	0.9491	0.965	0.2875	0.077
Mof_N 	N 	0.9761	0.0244	0.2827	-0.137
Mof_C 	C 	0.9814	0.0916	0.3114	0.092
Mof_N 	N 	0.9605	0.1049	0.3415	-0.139
Mof_C 	C 	0.9327	0.0452	0.3416	0.129
Mof_N 	N 	0.926	0.9723	0.3165	-0.148
Mof_N 	N 	0.8611	0.0894	0.4347	-0.291
Mof_C 	C 	0.8535	0.0238	0.4053	0.113
Mof_H 	H 	0.8316	0.9857	0.4055	-0.043
Mof_C 	C 	0.8751	0.0079	0.3751	-0.108
Mof_H 	H 	0.8674	0.9617	0.354	0.065
Mof_C 	C 	0.9079	0.0577	0.3748	0.065
Mof_C 	C 	0.9167	0.126	0.4067	-0.135
Mof_H 	H 	0.94	0.1612	0.4099	0.089
Mof_C 	C 	0.8911	0.14	0.4324	0.103
Mof_H 	H 	0.8953	0.1913	0.4508	-0.031
Mof_Zn	Zn	0.82891	0.11504	0.48173	1.159
Mof_N 	N 	0.0764	0.2694	0.309	-0.28
Mof_C 	C 	0.0627	0.261	0.3444	0.09
Mof_H 	H 	0.0746	0.2947	0.3698	-0.022
Mof_C 	C 	0.0314	0.2043	0.3463	-0.14
Mof_H 	H 	0.0222	0.1985	0.3726	0.09
Mof_C 	C 	0.0142	0.1577	0.3102	0.065
Mof_C 	C 	0.0292	0.1627	0.2729	-0.141
Mof_H 	H 	0.0194	0.1266	0.2478	0.087
Mof_C 	C 	0.0596	0.2238	0.2743	0.093
Mof_H 	H 	0.0688	0.233	0.2482	-0.012
Mof_I 	I 	0.14081	0.3492	0.236	-0.373
Mof_Zn	Zn	0.12334	0.35653	0.31007	1.165
Mof_I 	I 	0.10827	0.50092	0.34574	-0.387
Mof_I 	I 	0.8836	0.4117	0.0574	-0.206
Mof_I 	I 	0.7715	0.488	0.9591	-0.178
Mof_I 	I 	0.9744	0.906	0.6283	-0.046
Mof_I 	I 	0.8757	0.996	0.6916	-0.137
Mof_I 	I 	0.7643	0.034	0.4563	-0.158
Mof_I 	I 	0.8695	0.1001	0.5562	-0.137
Mof_N 	N 	0.3761	0.1992	0.1161	-0.277
Mof_C 	C 	0.3498	0.1576	0.0855	0.081
Mof_H 	H 	0.3468	0.0943	0.0878	-0.016
Mof_C 	C 	0.3265	0.2018	0.0503	-0.141
Mof_H 	H 	0.3088	0.1688	0.0284	0.086
Mof_C 	C 	0.329	0.2918	0.0473	0.071
Mof_C 	C 	0.3549	0.338	0.0807	-0.133
Mof_H 	H 	0.3565	0.4019	0.081	0.098
Mof_C 	C 	0.3782	0.2858	0.1137	0.089
Mof_H 	H 	0.3968	0.3161	0.1358	-0.009
Mof_C 	C 	0.307	0.346	0.0094	0.094
Mof_N 	N 	0.2776	0.304	0.9811	-0.14
Mof_C 	C 	0.2606	0.3582	0.9482	0.088
Mof_N 	N 	0.268	0.4445	0.9416	-0.141
Mof_C 	C 	0.2964	0.4768	0.9736	0.106
Mof_N 	N 	0.3172	0.4322	0.0074	-0.136
Mof_N 	N 	0.1706	0.2299	0.8517	-0.273
Mof_C 	C 	0.1827	0.3108	0.8453	0.079
Mof_H 	H 	0.1719	0.3401	0.8183	-0.007
Mof_C 	C 	0.2109	0.3564	0.8764	-0.125
Mof_H 	H 	0.2175	0.417	0.8713	0.085
Mof_C 	C 	0.2286	0.3144	0.9136	0.051
Mof_C 	C 	0.2167	0.2253	0.9199	-0.123
Mof_H 	H 	0.229	0.1926	0.9454	0.091
Mof_C 	C 	0.1872	0.1861	0.8891	0.065
Mof_H 	H 	0.1784	0.1273	0.8941	-0.001
Mof_N 	N 	0.3209	0.7591	0.9759	-0.279
Mof_C 	C 	0.3475	0.6992	0.9977	0.061
Mof_H 	H 	0.372	0.7211	0.0142	-0.015
Mof_C 	C 	0.3405	0.6086	0.997	-0.118
Mof_H 	H 	0.3595	0.5685	0.0133	0.081
Mof_C 	C 	0.3048	0.5755	0.9718	0.059
Mof_C 	C 	0.2782	0.6367	0.9489	-0.131
Mof_H 	H 	0.2534	0.6175	0.9323	0.082
Mof_C 	C 	0.2884	0.7252	0.9508	0.085
Mof_H 	H 	0.2709	0.7659	0.9328	-0.018
Mof_I 	I 	0.47675	0.3988	0.61739	-0.311
Mof_I 	I 	0.3864	0.5043	0.6913	-0.1
Mof_I 	I 	0.267	0.5197	0.46276	-0.172
Mof_I 	I 	0.3759	0.6041	0.55732	-0.229
Mof_I 	I 	0.3786	0.9114	0.0574	-0.157
Mof_Zn	Zn	0.33431	0.89465	0.98273	1.157
Mof_I 	I 	0.27441	0.996	0.9619	-0.164
Mof_N 	N 	0.3657	0.9185	0.9356	-0.286
Mof_C 	C 	0.3514	0.9661	0.8981	0.102
Mof_H 	H 	0.3254	0.9897	0.8935	-0.026
Mof_C 	C 	0.3723	0.9811	0.8674	-0.188
Mof_H 	H 	0.3605	0.0113	0.841	0.126
Mof_C 	C 	0.4106	0.953	0.8739	0.099
Mof_C 	C 	0.4266	0.908	0.9115	-0.136
Mof_H 	H 	0.4532	0.8876	0.9169	0.088
Mof_C 	C 	0.4034	0.891	0.9424	0.072
Mof_H 	H 	0.4147	0.8598	0.9687	-0.019
Mof_C 	C 	0.4346	0.9705	0.8415	0.075
Mof_N 	N 	0.4264	0.0421	0.8149	-0.122
Mof_C 	C 	0.4485	0.0487	0.7852	0.113
Mof_N 	N 	0.4763	0.9923	0.7795	-0.166
Mof_C 	C 	0.4835	0.926	0.8093	0.089
Mof_N 	N 	0.4642	0.9117	0.8409	-0.13
Mof_N 	N 	0.5795	0.754	0.8042	-0.269
Mof_C 	C 	0.5686	0.7702	0.8418	0.076
Mof_H 	H 	0.5834	0.7431	0.8678	-0.014
Mof_C 	C 	0.5373	0.8237	0.8449	-0.12
Mof_H 	H 	0.5298	0.8312	0.8721	0.084
Mof_C 	C 	0.5167	0.8671	0.8071	0.04
Mof_C 	C 	0.5286	0.8501	0.7676	-0.114
Mof_H 	H 	0.5146	0.8763	0.741	0.071
Mof_C 	C 	0.5599	0.7967	0.7675	0.066
Mof_H 	H 	0.5685	0.7886	0.7409	-0.002
Mof_I 	I 	0.64327	0.69304	0.72933	-0.372
Mof_Zn	Zn	0.62703	0.6709	0.80399	1.165
Mof_I 	I 	0.60955	0.52307	0.83471	-0.389
Mof_N 	N 	0.4337	0.2822	0.7023	-0.268
Mof_C 	C 	0.4633	0.2235	0.7028	0.07
Mof_H 	H 	0.4809	0.2336	0.6839	-0.005
Mof_C 	C 	0.4686	0.15	0.7294	-0.114
Mof_H 	H 	0.4902	0.1109	0.7293	0.075
Mof_C 	C 	0.4436	0.1315	0.7563	0.047
Mof_C 	C 	0.4132	0.193	0.7566	-0.109
Mof_H 	H 	0.3955	0.184	0.7755	0.079
Mof_C 	C 	0.4092	0.2665	0.7293	0.061
Mof_H 	H 	0.3884	0.3077	0.7296	-0.01
Mof_Zn	Zn	0.41945	0.38458	0.65586	1.159
Mof_N 	N 	0.3793	0.3142	0.609	-0.277
Mof_C 	C 	0.3871	0.2317	0.6004	0.096
Mof_H 	H 	0.4093	0.2042	0.619	-0.013
Mof_C 	C 	0.3658	0.1807	0.5665	-0.137
Mof_H 	H 	0.3726	0.1197	0.5626	0.101
Mof_C 	C 	0.335	0.22	0.5389	0.068
Mof_C 	C 	0.3264	0.3105	0.5462	-0.135
Mof_H 	H 	0.3052	0.3404	0.5273	0.079
Mof_C 	C 	0.3489	0.3543	0.5806	0.07
Mof_H 	H 	0.3433	0.4158	0.5852	-0.016
Mof_C 	C 	0.3109	0.169	0.5021	0.096
Mof_N 	N 	0.3203	0.0819	0.498	-0.134
Mof_C 	C 	0.2969	0.0358	0.4667	0.128
Mof_N 	N 	0.267	0.0723	0.4361	-0.138
Mof_C 	C 	0.26	0.1589	0.4426	0.093
Mof_N 	N 	0.2807	0.2092	0.4746	-0.141
Mof_N 	N 	0.3173	0.7521	0.4715	-0.27
Mof_C 	C 	0.2838	0.786	0.4478	0.065
Mof_H 	H 	0.2641	0.745	0.4338	-0.01
Mof_C 	C 	0.2762	0.876	0.4426	-0.106
Mof_H 	H 	0.2528	0.8973	0.4236	0.068
Mof_C 	C 	0.3049	0.9375	0.4667	0.024
Mof_C 	C 	0.3389	0.9031	0.4906	-0.104
Mof_H 	H 	0.3592	0.942	0.5054	0.069
Mof_C 	C 	0.3437	0.8107	0.4931	0.055
Mof_H 	H 	0.3672	0.7875	0.5112	-0.015
Mof_N 	N 	0.1674	0.2919	0.3546	-0.271
Mof_C 	C 	0.1855	0.329	0.3923	0.073
Mof_H 	H 	0.1771	0.3869	0.3994	-0.006
Mof_C 	C 	0.2158	0.2881	0.4216	-0.127
Mof_H 	H 	0.2279	0.3173	0.4482	0.087
Mof_C 	C 	0.2281	0.2041	0.4116	0.045
Mof_C 	C 	0.2094	0.1628	0.3722	-0.109
Mof_H 	H 	0.2171	0.1047	0.3646	0.085
Mof_C 	C 	0.179	0.2094	0.3446	0.061
Mof_H 	H 	0.166	0.1821	0.3179	0.001
Mof_I 	I 	0.38743	0.00836	0.19472	-0.37
Mof_Zn	Zn	0.4195	0.12964	0.15988	1.166
Mof_I 	I 	0.47461	0.11744	0.11892	-0.341
Mof_N 	N 	0.4352	0.2295	0.2079	-0.267
Mof_C 	C 	0.4619	0.2922	0.2035	0.059
Mof_H 	H 	0.4775	0.2837	0.1823	-0.004
Mof_C 	C 	0.4672	0.3699	0.2295	-0.109
Mof_H 	H 	0.4857	0.4143	0.2254	0.072
Mof_C 	C 	0.4455	0.3817	0.261	0.047
Mof_C 	C 	0.4195	0.3124	0.267	-0.116
Mof_H 	H 	0.4055	0.3154	0.2898	0.082
Mof_C 	C 	0.4151	0.2401	0.2386	0.073
Mof_H 	H 	0.3964	0.1951	0.2415	-0.011
Mof_C 	C 	0.4491	0.465	0.2875	0.097
Mof_N 	N 	0.4761	0.5244	0.2827	-0.151
Mof_C 	C 	0.4814	0.5916	0.3114	0.089
Mof_N 	N 	0.4605	0.6049	0.3415	-0.137
Mof_C 	C 	0.4327	0.5452	0.3416	0.105
Mof_N 	N 	0.426	0.4723	0.3165	-0.136
Mof_N 	N 	0.3611	0.5894	0.4347	-0.291
Mof_C 	C 	0.3535	0.5238	0.4053	0.094
Mof_H 	H 	0.3316	0.4857	0.4055	-0.02
Mof_C 	C 	0.3751	0.5079	0.3751	-0.142
Mof_H 	H 	0.3674	0.4617	0.354	0.09
Mof_C 	C 	0.4079	0.5577	0.3748	0.08
Mof_C 	C 	0.4167	0.626	0.4067	-0.145
Mof_H 	H 	0.44	0.6612	0.4099	0.09
Mof_C 	C 	0.3911	0.64	0.4324	0.107
Mof_H 	H 	0.3953	0.6913	0.4508	-0.034
Mof_Zn	Zn	0.32891	0.61504	0.48173	1.158
Mof_N 	N 	0.5764	0.7694	0.309	-0.282
Mof_C 	C 	0.5627	0.761	0.3444	0.088
Mof_H 	H 	0.5746	0.7947	0.3698	-0.025
Mof_C 	C 	0.5314	0.7043	0.3463	-0.141
Mof_H 	H 	0.5222	0.6985	0.3726	0.088
Mof_C 	C 	0.5142	0.6577	0.3102	0.063
Mof_C 	C 	0.5292	0.6627	0.2729	-0.142
Mof_H 	H 	0.5194	0.6266	0.2478	0.083
Mof_C 	C 	0.5596	0.7238	0.2743	0.09
Mof_H 	H 	0.5688	0.733	0.2482	-0.013
Mof_I 	I 	0.64081	0.8492	0.236	-0.386
Mof_Zn	Zn	0.62334	0.85653	0.31007	1.162
Mof_I 	I 	0.60827	0.00092	0.34574	-0.364
Mof_I 	I 	0.3836	0.9117	0.0574	-0.212
Mof_I 	I 	0.2715	0.988	0.9591	-0.186
Mof_I 	I 	0.4744	0.406	0.6283	-0.037
Mof_I 	I 	0.3757	0.496	0.6916	-0.236
Mof_I 	I 	0.2643	0.534	0.4563	-0.168
Mof_I 	I 	0.3695	0.6001	0.5562	-0.143
_end
