data_functionalizedCrystal
_audit_creation_method	'EQeq! by Chris Wilmer'
_symmetry_space_group_name_H-M	'P1'
_symmetry_Int_Tables_number	1
_symmetry_cell_setting	triclinic
loop_
_symmetry_equiv_pos_as_xyz
  x,y,z
_cell_length_a	8.821
_cell_length_b	9.288
_cell_length_c	18.955
_cell_angle_alpha	90
_cell_angle_beta	90
_cell_angle_gamma	109.557
loop_
_atom_site_label
_atom_site_type_symbol
_atom_site_fract_x
_atom_site_fract_y
_atom_site_fract_z
_atom_site_charge
Mof_Eu	Eu	0.28973	0.51552	0.94679	2.163
Mof_Eu	Eu	0.71027	0.98448	0.44679	2.152
Mof_Eu	Eu	0.28973	0.01552	0.55321	2.152
Mof_Eu	Eu	0.71027	0.48448	0.05321	2.163
Mof_H 	H 	0.2977	0.0586	0.059	0.031
Mof_H 	H 	0.9139	0.4215	0.7897	0.003
Mof_H 	H 	0.2448	0.6691	0.3077	0.069
Mof_H 	H 	0.7023	0.4414	0.559	0.032
Mof_H 	H 	0.5616	0.9826	0.1865	0.07
Mof_H 	H 	0.2977	0.5586	0.441	0.032
Mof_H 	H 	0.0861	0.0785	0.2897	0.002
Mof_H 	H 	0.9139	0.9215	0.7103	0.002
Mof_H 	H 	0.7023	0.9414	0.941	0.031
Mof_H 	H 	0.7552	0.3309	0.6923	0.069
Mof_H 	H 	0.4384	0.5174	0.6865	0.069
Mof_H 	H 	0.2448	0.1691	0.1923	0.067
Mof_H 	H 	0.4384	0.0174	0.8135	0.07
Mof_H 	H 	0.5616	0.4826	0.3135	0.069
Mof_H 	H 	0.7552	0.8309	0.8077	0.067
Mof_H 	H 	0.0861	0.5785	0.2103	0.003
Mof_C 	C 	0.7241	0.2855	0.7361	-0.098
Mof_C 	C 	0.3944	0.7449	0.5489	0.372
Mof_C 	C 	0.5343	0.0987	0.8089	-0.097
Mof_C 	C 	0.5824	0.1622	0.7427	-0.012
Mof_C 	C 	0.5663	0.0782	0.9381	0.002
Mof_C 	C 	0.1163	0.1605	0.4226	0.51
Mof_C 	C 	0.4176	0.8378	0.2573	-0.012
Mof_C 	C 	0.2284	0.225	0.3611	-0.19
Mof_C 	C 	0.2759	0.7145	0.2639	-0.098
Mof_C 	C 	0.8181	0.8402	0.7055	0.064
Mof_C 	C 	0.4449	0.1117	0.9742	-0.121
Mof_C 	C 	0.2759	0.2145	0.2361	-0.096
Mof_C 	C 	0.6212	0.4654	0.5356	-0.027
Mof_C 	C 	0.4657	0.4013	0.3089	-0.095
Mof_C 	C 	0.3944	0.2449	0.9511	0.373
Mof_C 	C 	0.5551	0.8883	0.0258	-0.121
Mof_C 	C 	0.5177	0.4005	0.1781	0.297
Mof_C 	C 	0.3735	0.8456	0.1324	0.08
Mof_C 	C 	0.4337	0.9218	0.0619	0.002
Mof_C 	C 	0.6212	0.9654	0.9644	-0.027
Mof_C 	C 	0.1819	0.6598	0.2055	0.068
Mof_C 	C 	0.7241	0.7855	0.7639	-0.096
Mof_C 	C 	0.8181	0.3402	0.7945	0.068
Mof_C 	C 	0.4449	0.6117	0.5258	-0.121
Mof_C 	C 	0.8837	0.3395	0.9226	0.523
Mof_C 	C 	0.6056	0.2551	0.4511	0.372
Mof_C 	C 	0.3788	0.0346	0.0356	-0.027
Mof_C 	C 	0.4823	0.5995	0.8219	0.297
Mof_C 	C 	0.7716	0.775	0.6389	-0.19
Mof_C 	C 	0.6056	0.7551	0.0489	0.373
Mof_C 	C 	0.3788	0.5346	0.4644	-0.027
Mof_C 	C 	0.6265	0.1544	0.8676	0.08
Mof_C 	C 	0.7716	0.275	0.8611	-0.193
Mof_C 	C 	0.1163	0.6605	0.0774	0.523
Mof_C 	C 	0.4823	0.0995	0.6781	0.292
Mof_C 	C 	0.2284	0.725	0.1389	-0.193
Mof_C 	C 	0.6265	0.6544	0.6324	0.078
Mof_C 	C 	0.4337	0.4218	0.4381	0.001
Mof_C 	C 	0.5177	0.9005	0.3219	0.292
Mof_C 	C 	0.5663	0.5782	0.5619	0.001
Mof_C 	C 	0.4657	0.9013	0.1911	-0.097
Mof_C 	C 	0.5343	0.5987	0.6911	-0.095
Mof_C 	C 	0.1819	0.1598	0.2945	0.064
Mof_C 	C 	0.4176	0.3378	0.2427	-0.015
Mof_C 	C 	0.5551	0.3883	0.4742	-0.121
Mof_C 	C 	0.8837	0.8395	0.5774	0.51
Mof_C 	C 	0.5824	0.6622	0.7573	-0.015
Mof_C 	C 	0.3735	0.3456	0.3676	0.078
Mof_O 	O 	0.4943	0.8788	0.5362	-0.614
Mof_O 	O 	0.2609	0.2277	0.9251	-0.421
Mof_O 	O 	0.7391	0.7723	0.0749	-0.421
Mof_O 	O 	0.5372	0.1552	0.61871	-0.466
Mof_O 	O 	0.4628	0.8448	0.38129	-0.466
Mof_O 	O 	0.175	0.6616	0.017	-0.602
Mof_O 	O 	0.175	0.1616	0.483	-0.6
Mof_O 	O 	0.9689	0.6129	0.0915	-0.595
Mof_O 	O 	0.3481	0.9974	0.6828	-0.418
Mof_O 	O 	0.4628	0.3448	0.11871	-0.468
Mof_O 	O 	0.5057	0.1212	0.4638	-0.614
Mof_O 	O 	0.825	0.3384	0.983	-0.602
Mof_O 	O 	0.4943	0.3788	0.9638	-0.617
Mof_O 	O 	0.825	0.8384	0.517	-0.6
Mof_O 	O 	0.0311	0.3871	0.9085	-0.595
Mof_O 	O 	0.2609	0.7277	0.5749	-0.419
Mof_O 	O 	0.9689	0.1129	0.4085	-0.582
Mof_O 	O 	0.6519	0.0026	0.3172	-0.418
Mof_O 	O 	0.3481	0.4974	0.8172	-0.424
Mof_O 	O 	0.6519	0.5026	0.1828	-0.424
Mof_O 	O 	0.5057	0.6212	0.0362	-0.617
Mof_O 	O 	0.7391	0.2723	0.4251	-0.419
Mof_O 	O 	0.5372	0.6552	0.88129	-0.468
Mof_O 	O 	0.0311	0.8871	0.5915	-0.582
_end
