data_functionalizedCrystal
_audit_creation_method	'EQeq! by Chris Wilmer'
_symmetry_space_group_name_H-M	'P1'
_symmetry_Int_Tables_number	1
_symmetry_cell_setting	triclinic
loop_
_symmetry_equiv_pos_as_xyz
  x,y,z
_cell_length_a	11.9109
_cell_length_b	14.3578
_cell_length_c	22.283
_cell_angle_alpha	90
_cell_angle_beta	113.733
_cell_angle_gamma	90
loop_
_atom_site_label
_atom_site_type_symbol
_atom_site_fract_x
_atom_site_fract_y
_atom_site_fract_z
_atom_site_charge
Mof_Co	Co	0.01772	0.78927	0.77255	1.204
Mof_Co	Co	0.81761	0.66455	0.8031	1.187
Mof_Co	Co	0.18628	0.92465	0.72939	1.209
Mof_O 	O 	0.8864	0.87519	0.77436	-0.479
Mof_O 	O 	0.7535	0.79477	0.80194	-0.433
Mof_O 	O 	0.7433	0.28836	0.77143	-0.735
Mof_O 	O 	0.8616	0.20007	0.73751	-0.503
Mof_O 	O 	0.3715	0.96968	0.77531	-0.423
Mof_O 	O 	0.3629	0.12307	0.75445	-0.436
Mof_O 	O 	0.1876	0.39501	0.11693	-0.49
Mof_O 	O 	0.1894	0.54947	0.13532	-0.741
Mof_O 	O 	0.9984	0.36112	0.817	-0.774
Mof_O 	O 	0.1597	0.2869	0.8938	0.483
Mof_O 	O 	0.0088	0.71008	0.85124	-0.538
Mof_O 	O 	0.1307	0.7632	0.9474	-0.212
Mof_O 	O 	0.1344	0.05123	0.84514	-1.494
Mof_O 	O 	0.1503	0.8922	0.81261	-1.173
Mof_O 	O 	0.1192	0.9331	0.9105	-1.097
Mof_H 	H 	0.1132	0.8765	0.913	0.505
Mof_O 	O 	0.1251	0.05714	0.73555	-1.187
Mof_O 	O 	0.1274	0.19344	0.79118	-0.948
Mof_B 	B 	0.1407	0.9547	0.8552	2.307
Mof_B 	B 	0.128	0.0964	0.7905	2.279
Mof_C 	C 	0.7935	0.8681	0.78698	0.431
Mof_C 	C 	0.779	0.2119	0.75871	0.55
Mof_C 	C 	0.4163	0.0463	0.7674	0.403
Mof_C 	C 	0.7256	0.9581	0.78261	-0.184
Mof_C 	C 	0.7784	0.0405	0.77418	0.167
Mof_H 	H 	0.8556	0.0392	0.773	-0.029
Mof_C 	C 	0.7179	0.1246	0.76749	-0.227
Mof_C 	C 	0.6023	0.1263	0.76711	0.15
Mof_H 	H 	0.5611	0.1827	0.7622	0.012
Mof_C 	C 	0.5464	0.0447	0.77395	-0.174
Mof_C 	C 	0.609	0.9597	0.78225	0.121
Mof_H 	H 	0.5725	0.9048	0.7875	0.027
Mof_C 	C 	0.1798	0.479	0.09978	0.551
Mof_C 	C 	0.0831	0.3548	0.87477	0.595
Mof_C 	C 	0.0878	0.6968	0.90913	0.417
Mof_C 	C 	0.156	0.4963	0.02898	-0.252
Mof_C 	C 	0.1399	0.5862	0.00332	0.176
Mof_H 	H 	0.1518	0.6371	0.0311	0.004
Mof_C 	C 	0.1061	0.6007	0.93664	-0.237
Mof_C 	C 	0.0883	0.5244	0.89545	0.191
Mof_H 	H 	0.0651	0.5337	0.8507	-0.062
Mof_C 	C 	0.1048	0.4345	0.92035	-0.316
Mof_C 	C 	0.1405	0.4209	0.98699	0.204
Mof_H 	H 	0.1544	0.3607	0.0039	-0.004
Mof_O 	O 	0.115	0.2779	0.8955	-0.784
Mof_O 	O 	0.1773	0.7511	0.9411	-0.119
Mof_O 	O 	0.173	0.9322	0.9168	-0.047
Mof_H 	H 	0.1917	0.8769	0.922	-0.035
Mof_In	In	0.81372	0.42465	0.77061	3.211
Mof_Co	Co	0.98228	0.28927	0.72745	1.194
Mof_Co	Co	0.18239	0.16455	0.6969	1.189
Mof_O 	O 	0.1136	0.37519	0.72564	-0.493
Mof_O 	O 	0.2465	0.29477	0.69806	-0.439
Mof_O 	O 	0.2567	0.78836	0.72857	-0.393
Mof_O 	O 	0.1384	0.70007	0.76249	-0.448
Mof_O 	O 	0.6285	0.46968	0.72469	-0.772
Mof_O 	O 	0.6371	0.62307	0.74555	-0.497
Mof_O 	O 	0.8124	0.89501	0.38307	-0.423
Mof_O 	O 	0.8106	0.04947	0.36468	-0.394
Mof_O 	O 	0.0016	0.86112	0.683	-0.468
Mof_O 	O 	0.8403	0.7869	0.6062	0.293
Mof_O 	O 	0.9912	0.21008	0.64876	-0.534
Mof_O 	O 	0.8693	0.2632	0.5526	-0.202
Mof_O 	O 	0.8656	0.55123	0.65486	-1.624
Mof_O 	O 	0.8497	0.3922	0.68739	-1.533
Mof_O 	O 	0.8808	0.4331	0.5895	-1.172
Mof_H 	H 	0.8868	0.3765	0.587	0.536
Mof_O 	O 	0.8749	0.55714	0.76445	-1.575
Mof_O 	O 	0.8726	0.69344	0.70882	-0.988
Mof_B 	B 	0.8593	0.4547	0.6448	2.484
Mof_B 	B 	0.872	0.5964	0.7095	2.449
Mof_C 	C 	0.2065	0.3681	0.71302	0.435
Mof_C 	C 	0.221	0.7119	0.74129	0.423
Mof_C 	C 	0.5837	0.5463	0.7326	0.52
Mof_C 	C 	0.2744	0.4581	0.71739	-0.202
Mof_C 	C 	0.2216	0.5405	0.72582	0.163
Mof_H 	H 	0.1444	0.5392	0.727	-0.033
Mof_C 	C 	0.2821	0.6246	0.73251	-0.193
Mof_C 	C 	0.3977	0.6263	0.73289	0.144
Mof_H 	H 	0.4389	0.6827	0.7378	0.015
Mof_C 	C 	0.4536	0.5447	0.72605	-0.217
Mof_C 	C 	0.391	0.4597	0.71775	0.151
Mof_H 	H 	0.4275	0.4048	0.7125	0.008
Mof_C 	C 	0.8202	0.979	0.40022	0.395
Mof_C 	C 	0.9169	0.8548	0.62523	0.425
Mof_C 	C 	0.9122	0.1968	0.59087	0.391
Mof_C 	C 	0.844	0.9963	0.47102	-0.133
Mof_C 	C 	0.8601	0.0862	0.49668	0.081
Mof_H 	H 	0.8482	0.1371	0.4689	0.042
Mof_C 	C 	0.8939	0.1007	0.56336	-0.156
Mof_C 	C 	0.9117	0.0244	0.60455	0.084
Mof_H 	H 	0.9349	0.0337	0.6493	0.003
Mof_C 	C 	0.8952	0.9345	0.57965	-0.165
Mof_C 	C 	0.8595	0.9209	0.51301	0.091
Mof_H 	H 	0.8456	0.8607	0.4961	0.04
Mof_O 	O 	0.885	0.7779	0.6045	-0.537
Mof_O 	O 	0.8227	0.2511	0.5589	-0.124
Mof_O 	O 	0.827	0.4322	0.5832	-0.036
Mof_H 	H 	0.8083	0.3769	0.578	-0.052
Mof_Co	Co	0.98228	0.21073	0.22745	1.203
Mof_Co	Co	0.18239	0.33545	0.1969	1.186
Mof_Co	Co	0.81372	0.07535	0.27061	1.208
Mof_O 	O 	0.1136	0.12481	0.22564	-0.48
Mof_O 	O 	0.2465	0.20523	0.19806	-0.434
Mof_O 	O 	0.2567	0.71164	0.22857	-0.736
Mof_O 	O 	0.1384	0.79993	0.26249	-0.504
Mof_O 	O 	0.6285	0.03032	0.22469	-0.424
Mof_O 	O 	0.6371	0.87693	0.24555	-0.436
Mof_O 	O 	0.8124	0.60499	0.88307	-0.49
Mof_O 	O 	0.8106	0.45053	0.86468	-0.741
Mof_O 	O 	0.0016	0.63888	0.183	-0.774
Mof_O 	O 	0.8403	0.7131	0.1062	0.483
Mof_O 	O 	0.9912	0.28992	0.14876	-0.538
Mof_O 	O 	0.8693	0.2368	0.0526	-0.212
Mof_O 	O 	0.8656	0.94877	0.15486	-1.494
Mof_O 	O 	0.8497	0.1078	0.18739	-1.173
Mof_O 	O 	0.8808	0.0669	0.0895	-1.097
Mof_H 	H 	0.8868	0.1235	0.087	0.505
Mof_O 	O 	0.8749	0.94286	0.26445	-1.187
Mof_O 	O 	0.8726	0.80656	0.20882	-0.948
Mof_B 	B 	0.8593	0.0453	0.1448	2.307
Mof_B 	B 	0.872	0.9036	0.2095	2.279
Mof_C 	C 	0.2065	0.1319	0.21302	0.431
Mof_C 	C 	0.221	0.7881	0.24129	0.55
Mof_C 	C 	0.5837	0.9537	0.2326	0.403
Mof_C 	C 	0.2744	0.0419	0.21739	-0.184
Mof_C 	C 	0.2216	0.9595	0.22582	0.167
Mof_H 	H 	0.1444	0.9608	0.227	-0.029
Mof_C 	C 	0.2821	0.8754	0.23251	-0.227
Mof_C 	C 	0.3977	0.8737	0.23289	0.15
Mof_H 	H 	0.4389	0.8173	0.2378	0.012
Mof_C 	C 	0.4536	0.9553	0.22605	-0.174
Mof_C 	C 	0.391	0.0403	0.21775	0.121
Mof_H 	H 	0.4275	0.0952	0.2125	0.027
Mof_C 	C 	0.8202	0.521	0.90022	0.551
Mof_C 	C 	0.9169	0.6452	0.12523	0.595
Mof_C 	C 	0.9122	0.3032	0.09087	0.417
Mof_C 	C 	0.844	0.5037	0.97102	-0.252
Mof_C 	C 	0.8601	0.4138	0.99668	0.176
Mof_H 	H 	0.8482	0.3629	0.9689	0.004
Mof_C 	C 	0.8939	0.3993	0.06336	-0.237
Mof_C 	C 	0.9117	0.4756	0.10455	0.191
Mof_H 	H 	0.9349	0.4663	0.1493	-0.062
Mof_C 	C 	0.8952	0.5655	0.07965	-0.316
Mof_C 	C 	0.8595	0.5791	0.01301	0.204
Mof_H 	H 	0.8456	0.6393	0.9961	-0.004
Mof_O 	O 	0.885	0.7221	0.1045	-0.784
Mof_O 	O 	0.8227	0.2489	0.0589	-0.119
Mof_O 	O 	0.827	0.0678	0.0832	-0.047
Mof_H 	H 	0.8083	0.1231	0.078	-0.035
Mof_In	In	0.18628	0.57535	0.22939	3.211
Mof_Co	Co	0.01772	0.71073	0.27255	1.194
Mof_Co	Co	0.81761	0.83545	0.3031	1.189
Mof_O 	O 	0.8864	0.62481	0.27436	-0.493
Mof_O 	O 	0.7535	0.70523	0.30194	-0.439
Mof_O 	O 	0.7433	0.21164	0.27143	-0.393
Mof_O 	O 	0.8616	0.29993	0.23751	-0.448
Mof_O 	O 	0.3715	0.53032	0.27531	-0.772
Mof_O 	O 	0.3629	0.37693	0.25445	-0.497
Mof_O 	O 	0.1876	0.10499	0.61693	-0.423
Mof_O 	O 	0.1894	0.95053	0.63532	-0.394
Mof_O 	O 	0.9984	0.13888	0.317	-0.468
Mof_O 	O 	0.1597	0.2131	0.3938	0.293
Mof_O 	O 	0.0088	0.78992	0.35124	-0.534
Mof_O 	O 	0.1307	0.7368	0.4474	-0.202
Mof_O 	O 	0.1344	0.44877	0.34514	-1.624
Mof_O 	O 	0.1503	0.6078	0.31261	-1.533
Mof_O 	O 	0.1192	0.5669	0.4105	-1.172
Mof_H 	H 	0.1132	0.6235	0.413	0.536
Mof_O 	O 	0.1251	0.44286	0.23555	-1.575
Mof_O 	O 	0.1274	0.30656	0.29118	-0.988
Mof_B 	B 	0.1407	0.5453	0.3552	2.484
Mof_B 	B 	0.128	0.4036	0.2905	2.449
Mof_C 	C 	0.7935	0.6319	0.28698	0.435
Mof_C 	C 	0.779	0.2881	0.25871	0.423
Mof_C 	C 	0.4163	0.4537	0.2674	0.52
Mof_C 	C 	0.7256	0.5419	0.28261	-0.202
Mof_C 	C 	0.7784	0.4595	0.27418	0.163
Mof_H 	H 	0.8556	0.4608	0.273	-0.033
Mof_C 	C 	0.7179	0.3754	0.26749	-0.193
Mof_C 	C 	0.6023	0.3737	0.26711	0.144
Mof_H 	H 	0.5611	0.3173	0.2622	0.015
Mof_C 	C 	0.5464	0.4553	0.27395	-0.217
Mof_C 	C 	0.609	0.5403	0.28225	0.151
Mof_H 	H 	0.5725	0.5952	0.2875	0.008
Mof_C 	C 	0.1798	0.021	0.59978	0.395
Mof_C 	C 	0.0831	0.1452	0.37477	0.425
Mof_C 	C 	0.0878	0.8032	0.40913	0.391
Mof_C 	C 	0.156	0.0037	0.52898	-0.133
Mof_C 	C 	0.1399	0.9138	0.50332	0.081
Mof_H 	H 	0.1518	0.8629	0.5311	0.042
Mof_C 	C 	0.1061	0.8993	0.43664	-0.156
Mof_C 	C 	0.0883	0.9756	0.39545	0.084
Mof_H 	H 	0.0651	0.9663	0.3507	0.003
Mof_C 	C 	0.1048	0.0655	0.42035	-0.165
Mof_C 	C 	0.1405	0.0791	0.48699	0.091
Mof_H 	H 	0.1544	0.1393	0.5039	0.04
Mof_O 	O 	0.115	0.2221	0.3955	-0.537
Mof_O 	O 	0.1773	0.7489	0.4411	-0.124
Mof_O 	O 	0.173	0.5678	0.4168	-0.036
Mof_H 	H 	0.1917	0.6231	0.422	-0.052
_end
