data_functionalizedCrystal
_audit_creation_method	'EQeq! by Chris Wilmer'
_symmetry_space_group_name_H-M	'P1'
_symmetry_Int_Tables_number	1
_symmetry_cell_setting	triclinic
loop_
_symmetry_equiv_pos_as_xyz
  x,y,z
_cell_length_a	9.003
_cell_length_b	17.382
_cell_length_c	17.057
_cell_angle_alpha	90
_cell_angle_beta	104.595
_cell_angle_gamma	90
loop_
_atom_site_label
_atom_site_type_symbol
_atom_site_fract_x
_atom_site_fract_y
_atom_site_fract_z
_atom_site_charge
Mof_Cd	Cd	0.38438	0.06015	0.21475	0.402
Mof_N 	N 	0.7621	0.905	0.1794	-0.304
Mof_C 	C 	0.6892	0.9558	0.2829	-0.016
Mof_H 	H 	0.6827	0.9678	0.3363	0.05
Mof_C 	C 	0.8072	0.6675	0.2302	-0.018
Mof_H 	H 	0.7538	0.6302	0.2534	0.039
Mof_N 	N 	0.9577	0.6614	0.2257	-0.145
Mof_N 	N 	0.0021	0.8878	0.1286	-0.306
Mof_N 	N 	0.745	0.8485	0.0408	-0.303
Mof_C 	C 	0.0714	0.9514	0.1689	0.127
Mof_H 	H 	0.0294	0.9813	0.2047	-0.009
Mof_C 	C 	0.642	0.9526	0.1528	0.133
Mof_H 	H 	0.5967	0.9622	0.0971	-0.024
Mof_N 	N 	0.8619	0.7723	0.1698	-0.296
Mof_O 	O 	0.2064	0.0875	0.2932	-0.273
Mof_C 	C 	0.7475	0.7347	0.1967	0.036
Mof_H 	H 	0.6462	0.7528	0.1923	0.01
Mof_N 	N 	0.2041	0.9661	0.1521	-0.145
Mof_C 	C 	0.9868	0.7251	0.1892	0.124
Mof_H 	H 	0.0826	0.7364	0.178	-0.011
Mof_N 	N 	0.6489	0.8808	0.9108	-0.151
Mof_N 	N 	0.5935	0.9845	0.2121	-0.149
Mof_C 	C 	0.1003	0.8623	0.0834	0.043
Mof_H 	H 	0.0845	0.8192	0.0481	0.006
Mof_O 	O 	0.3884	0.0052	0.3466	-0.27
Mof_C 	C 	0.7936	0.9079	0.2637	0.042
Mof_H 	H 	0.8735	0.8813	0.3008	0.009
Mof_C 	C 	0.7549	0.895	0.9784	0.126
Mof_H 	H 	0.8306	0.934	0.9828	-0.018
Mof_C 	C 	0.0453	0.0483	0.4111	-0.05
Mof_H 	H 	0.9993	0.0842	0.3702	0.058
Mof_C 	C 	0.9657	0.0271	0.4698	0.023
Mof_C 	C 	0.2231	0.91	0.0988	-0.014
Mof_H 	H 	0.3089	0.9055	0.0762	0.033
Mof_C 	C 	0.1867	0.0185	0.4116	-0.058
Mof_B 	B 	0.8446	0.8537	0.1294	0.914
Mof_C 	C 	0.257	0.9653	0.4737	-0.003
Mof_H 	H 	0.3561	0.9453	0.4758	0.049
Mof_C 	C 	0.5639	0.8215	0.9306	-0.019
Mof_H 	H 	0.4779	0.7981	0.8945	0.038
Mof_C 	C 	0.6212	0.8014	0.0094	0.046
Mof_H 	H 	0.5829	0.7621	0.0377	0.005
Mof_C 	C 	0.2667	0.0389	0.3473	0.287
Mof_C 	C 	0.1807	0.9431	0.5306	-0.079
Mof_H 	H 	0.2275	0.9069	0.571	0.062
Mof_Cd	Cd	0.11562	0.56015	0.28525	0.402
Mof_N 	N 	0.7379	0.405	0.3206	-0.306
Mof_C 	C 	0.8108	0.4558	0.2171	-0.016
Mof_H 	H 	0.8173	0.4678	0.1637	0.05
Mof_C 	C 	0.6928	0.1675	0.2698	-0.018
Mof_H 	H 	0.7462	0.1302	0.2466	0.039
Mof_N 	N 	0.5423	0.1614	0.2743	-0.145
Mof_N 	N 	0.4979	0.3878	0.3714	-0.307
Mof_N 	N 	0.755	0.3485	0.4592	-0.303
Mof_C 	C 	0.4286	0.4514	0.3311	0.127
Mof_H 	H 	0.4706	0.4813	0.2953	-0.01
Mof_C 	C 	0.858	0.4526	0.3472	0.134
Mof_H 	H 	0.9033	0.4622	0.4029	-0.024
Mof_N 	N 	0.6381	0.2723	0.3302	-0.297
Mof_O 	O 	0.2936	0.5875	0.2068	-0.273
Mof_C 	C 	0.7525	0.2347	0.3033	0.037
Mof_H 	H 	0.8538	0.2528	0.3077	0.01
Mof_N 	N 	0.2959	0.4661	0.3479	-0.145
Mof_C 	C 	0.5132	0.2251	0.3108	0.126
Mof_H 	H 	0.4174	0.2364	0.322	-0.012
Mof_N 	N 	0.8511	0.3808	0.5892	-0.151
Mof_N 	N 	0.9065	0.4845	0.2879	-0.149
Mof_C 	C 	0.3997	0.3623	0.4166	0.043
Mof_H 	H 	0.4155	0.3192	0.4519	0.006
Mof_O 	O 	0.1116	0.5052	0.1534	-0.27
Mof_C 	C 	0.7064	0.4079	0.2363	0.043
Mof_H 	H 	0.6265	0.3813	0.1992	0.01
Mof_C 	C 	0.7451	0.395	0.5216	0.126
Mof_H 	H 	0.6694	0.434	0.5172	-0.018
Mof_C 	C 	0.4547	0.5483	0.0889	-0.049
Mof_H 	H 	0.5007	0.5842	0.1298	0.057
Mof_C 	C 	0.5343	0.5271	0.0302	0.023
Mof_C 	C 	0.2769	0.41	0.4012	-0.015
Mof_H 	H 	0.1911	0.4055	0.4238	0.033
Mof_C 	C 	0.3133	0.5185	0.0884	-0.058
Mof_B 	B 	0.6554	0.3537	0.3706	0.915
Mof_C 	C 	0.243	0.4653	0.0263	-0.003
Mof_H 	H 	0.1439	0.4453	0.0242	0.049
Mof_C 	C 	0.9361	0.3215	0.5694	-0.018
Mof_H 	H 	0.0221	0.2981	0.6055	0.038
Mof_C 	C 	0.8788	0.3014	0.4906	0.045
Mof_H 	H 	0.9171	0.2621	0.4623	0.005
Mof_C 	C 	0.2333	0.5389	0.1527	0.288
Mof_C 	C 	0.3193	0.4431	0.9694	-0.08
Mof_H 	H 	0.2725	0.4069	0.929	0.061
Mof_Cd	Cd	0.61562	0.93985	0.78525	0.401
Mof_N 	N 	0.2379	0.095	0.8206	-0.305
Mof_C 	C 	0.3108	0.0442	0.7171	-0.016
Mof_H 	H 	0.3173	0.0322	0.6637	0.05
Mof_C 	C 	0.1928	0.3325	0.7698	-0.018
Mof_H 	H 	0.2462	0.3698	0.7466	0.039
Mof_N 	N 	0.0423	0.3386	0.7743	-0.145
Mof_N 	N 	0.9979	0.1122	0.8714	-0.306
Mof_N 	N 	0.255	0.1515	0.9592	-0.303
Mof_C 	C 	0.9286	0.0486	0.8311	0.127
Mof_H 	H 	0.9706	0.0187	0.7953	-0.009
Mof_C 	C 	0.358	0.0474	0.8472	0.133
Mof_H 	H 	0.4033	0.0378	0.9029	-0.024
Mof_N 	N 	0.1381	0.2277	0.8302	-0.296
Mof_O 	O 	0.7936	0.9125	0.7068	-0.273
Mof_C 	C 	0.2525	0.2653	0.8033	0.036
Mof_H 	H 	0.3538	0.2472	0.8077	0.01
Mof_N 	N 	0.7959	0.0339	0.8479	-0.145
Mof_C 	C 	0.0132	0.2749	0.8108	0.124
Mof_H 	H 	0.9174	0.2636	0.822	-0.011
Mof_N 	N 	0.3511	0.1192	0.0892	-0.151
Mof_N 	N 	0.4065	0.0155	0.7879	-0.149
Mof_C 	C 	0.8997	0.1377	0.9166	0.043
Mof_H 	H 	0.9155	0.1808	0.9519	0.006
Mof_O 	O 	0.6116	0.9948	0.6534	-0.27
Mof_C 	C 	0.2064	0.0921	0.7363	0.042
Mof_H 	H 	0.1265	0.1187	0.6992	0.009
Mof_C 	C 	0.2451	0.105	0.0216	0.126
Mof_H 	H 	0.1694	0.066	0.0172	-0.018
Mof_C 	C 	0.9547	0.9517	0.5889	-0.05
Mof_H 	H 	0.0007	0.9158	0.6298	0.058
Mof_C 	C 	0.0343	0.9729	0.5302	0.023
Mof_C 	C 	0.7769	0.09	0.9012	-0.014
Mof_H 	H 	0.6911	0.0945	0.9238	0.033
Mof_C 	C 	0.8133	0.9815	0.5884	-0.058
Mof_B 	B 	0.1554	0.1463	0.8706	0.914
Mof_C 	C 	0.743	0.0347	0.5263	-0.003
Mof_H 	H 	0.6439	0.0547	0.5242	0.049
Mof_C 	C 	0.4361	0.1785	0.0694	-0.019
Mof_H 	H 	0.5221	0.2019	0.1055	0.038
Mof_C 	C 	0.3788	0.1986	0.9906	0.046
Mof_H 	H 	0.4171	0.2379	0.9623	0.005
Mof_C 	C 	0.7333	0.9611	0.6527	0.287
Mof_C 	C 	0.8193	0.0569	0.4694	-0.079
Mof_H 	H 	0.7725	0.0931	0.429	0.062
Mof_Cd	Cd	0.88438	0.43985	0.71475	0.402
Mof_N 	N 	0.2621	0.595	0.6794	-0.306
Mof_C 	C 	0.1892	0.5442	0.7829	-0.016
Mof_H 	H 	0.1827	0.5322	0.8363	0.05
Mof_C 	C 	0.3072	0.8325	0.7302	-0.018
Mof_H 	H 	0.2538	0.8698	0.7534	0.039
Mof_N 	N 	0.4577	0.8386	0.7257	-0.145
Mof_N 	N 	0.5021	0.6122	0.6286	-0.307
Mof_N 	N 	0.245	0.6515	0.5408	-0.303
Mof_C 	C 	0.5714	0.5486	0.6689	0.127
Mof_H 	H 	0.5294	0.5187	0.7047	-0.01
Mof_C 	C 	0.142	0.5474	0.6528	0.134
Mof_H 	H 	0.0967	0.5378	0.5971	-0.024
Mof_N 	N 	0.3619	0.7277	0.6698	-0.297
Mof_O 	O 	0.7064	0.4125	0.7932	-0.273
Mof_C 	C 	0.2475	0.7653	0.6967	0.037
Mof_H 	H 	0.1462	0.7472	0.6923	0.01
Mof_N 	N 	0.7041	0.5339	0.6521	-0.145
Mof_C 	C 	0.4868	0.7749	0.6892	0.126
Mof_H 	H 	0.5826	0.7636	0.678	-0.012
Mof_N 	N 	0.1489	0.6192	0.4108	-0.151
Mof_N 	N 	0.0935	0.5155	0.7121	-0.149
Mof_C 	C 	0.6003	0.6377	0.5834	0.043
Mof_H 	H 	0.5845	0.6808	0.5481	0.006
Mof_O 	O 	0.8884	0.4948	0.8466	-0.27
Mof_C 	C 	0.2936	0.5921	0.7637	0.043
Mof_H 	H 	0.3735	0.6187	0.8008	0.01
Mof_C 	C 	0.2549	0.605	0.4784	0.126
Mof_H 	H 	0.3306	0.566	0.4828	-0.018
Mof_C 	C 	0.5453	0.4517	0.9111	-0.049
Mof_H 	H 	0.4993	0.4158	0.8702	0.057
Mof_C 	C 	0.4657	0.4729	0.9698	0.023
Mof_C 	C 	0.7231	0.59	0.5988	-0.015
Mof_H 	H 	0.8089	0.5945	0.5762	0.033
Mof_C 	C 	0.6867	0.4815	0.9116	-0.058
Mof_B 	B 	0.3446	0.6463	0.6294	0.915
Mof_C 	C 	0.757	0.5347	0.9737	-0.003
Mof_H 	H 	0.8561	0.5547	0.9758	0.049
Mof_C 	C 	0.0639	0.6785	0.4306	-0.018
Mof_H 	H 	0.9779	0.7019	0.3945	0.038
Mof_C 	C 	0.1212	0.6986	0.5094	0.045
Mof_H 	H 	0.0829	0.7379	0.5377	0.005
Mof_C 	C 	0.7667	0.4611	0.8473	0.288
Mof_C 	C 	0.6807	0.5569	0.0306	-0.08
Mof_H 	H 	0.7275	0.5931	0.071	0.061
_end
