data_functionalizedCrystal
_audit_creation_method	'EQeq! by Chris Wilmer'
_symmetry_space_group_name_H-M	'P1'
_symmetry_Int_Tables_number	1
_symmetry_cell_setting	triclinic
loop_
_symmetry_equiv_pos_as_xyz
  x,y,z
_cell_length_a	30.4787
_cell_length_b	30.4787
_cell_length_c	30.4787
_cell_angle_alpha	109.471
_cell_angle_beta	109.471
_cell_angle_gamma	109.471
loop_
_atom_site_label
_atom_site_type_symbol
_atom_site_fract_x
_atom_site_fract_y
_atom_site_fract_z
_atom_site_charge
Mof_Mg	Mg	0.7694	0.2154	0.2154	1.472
Mof_Mg	Mg	0.6735	0.243	0.243	1.458
Mof_Mg	Mg	-8.34563e-17	0.554	0.7846	1.468
Mof_Mg	Mg	-2.08641e-17	0.4305	0.757	1.455
Mof_Mg	Mg	-3.12961e-17	0.7846	0.554	1.468
Mof_Mg	Mg	3.12961e-17	0.757	0.4305	1.455
Mof_Mg	Mg	0.2306	0.446	0.446	1.472
Mof_Mg	Mg	0.3265	0.5695	0.5695	1.458
Mof_Mg	Mg	0.554	-8.34563e-17	0.7846	1.468
Mof_Mg	Mg	0.4305	8.34563e-17	0.757	1.455
Mof_Mg	Mg	0.446	0.2306	0.446	1.472
Mof_Mg	Mg	0.5695	0.3265	0.5695	1.458
Mof_Mg	Mg	0.2154	0.7694	0.2154	1.472
Mof_Mg	Mg	0.243	0.6735	0.243	1.458
Mof_Mg	Mg	0.7846	0	0.554	1.468
Mof_Mg	Mg	0.757	4.17282e-17	0.4305	1.454
Mof_Mg	Mg	0.554	0.7846	-0	1.467
Mof_Mg	Mg	0.4305	0.757	-0	1.454
Mof_Mg	Mg	0.2154	0.2154	0.7694	1.471
Mof_Mg	Mg	0.243	0.243	0.6735	1.457
Mof_Mg	Mg	0.446	0.446	0.2306	1.471
Mof_Mg	Mg	0.5695	0.5695	0.3265	1.457
Mof_Mg	Mg	0.7846	0.554	-0	1.467
Mof_Mg	Mg	0.757	0.4305	-0	1.454
Mof_Mg	Mg	0.7846	0.2306	0.7846	1.471
Mof_Mg	Mg	0.757	0.3265	0.757	1.457
Mof_Mg	Mg	0.446	0	0.2154	1.467
Mof_Mg	Mg	0.5695	0	0.243	1.454
Mof_Mg	Mg	0.2154	0	0.446	1.467
Mof_Mg	Mg	0.243	4.17282e-17	0.5695	1.454
Mof_Mg	Mg	0.554	0.7694	0.554	1.472
Mof_Mg	Mg	0.4305	0.6735	0.4305	1.457
Mof_Mg	Mg	-1.56481e-17	0.446	0.2154	1.467
Mof_Mg	Mg	-7.82403e-17	0.5695	0.243	1.454
Mof_Mg	Mg	0.7694	0.554	0.554	1.472
Mof_Mg	Mg	0.6735	0.4305	0.4305	1.457
Mof_Mg	Mg	0.2306	0.7846	0.7846	1.471
Mof_Mg	Mg	0.3265	0.757	0.757	1.457
Mof_Mg	Mg	-1.0432e-17	0.2154	0.446	1.467
Mof_Mg	Mg	-6.25922e-17	0.243	0.5695	1.454
Mof_Mg	Mg	0.2154	0.446	-0	1.467
Mof_Mg	Mg	0.243	0.5695	-0	1.454
Mof_Mg	Mg	0.7846	0.7846	0.2306	1.471
Mof_Mg	Mg	0.757	0.757	0.3265	1.457
Mof_Mg	Mg	0.554	0.554	0.7694	1.472
Mof_Mg	Mg	0.4305	0.4305	0.6735	1.457
Mof_Mg	Mg	0.446	0.2154	-0	1.467
Mof_Mg	Mg	0.5695	0.243	-0	1.454
Mof_H 	H 	0.6739	0.3491	0.2724	0.007
Mof_H 	H 	0.6113	0.3114	0.2475	0.004
Mof_H 	H 	0.7583	0.3202	0.3743	0.055
Mof_H 	H 	0.7965	0.2727	0.1326	0.066
Mof_H 	H 	0.0767	0.4015	0.7276	0.007
Mof_H 	H 	0.0639	0.3638	0.7525	0.001
Mof_H 	H 	0.9459	0.384	0.6257	0.066
Mof_H 	H 	0.1401	0.6639	0.8674	0.065
Mof_H 	H 	0.9233	0.6509	0.3248	0.002
Mof_H 	H 	0.9361	0.6886	0.2999	0.005
Mof_H 	H 	0.0541	0.6798	0.4381	0.047
Mof_H 	H 	0.8599	0.7273	0.5238	0.067
Mof_H 	H 	0.3261	0.5985	0.6752	0.007
Mof_H 	H 	0.3887	0.6362	0.7001	0.003
Mof_H 	H 	0.2417	0.616	0.5619	0.055
Mof_H 	H 	0.2035	0.3361	0.4762	0.063
Mof_H 	H 	0.3248	0.9233	0.6509	0.002
Mof_H 	H 	0.2999	0.9361	0.6886	0.005
Mof_H 	H 	0.4381	0.0541	0.6798	0.047
Mof_H 	H 	0.5238	0.8599	0.7273	0.067
Mof_H 	H 	0.6752	0.3261	0.5985	0.007
Mof_H 	H 	0.7001	0.3887	0.6362	0.003
Mof_H 	H 	0.5619	0.2417	0.616	0.055
Mof_H 	H 	0.4762	0.2035	0.3361	0.063
Mof_H 	H 	0.2724	0.6739	0.3491	0.007
Mof_H 	H 	0.2475	0.6113	0.3114	0.004
Mof_H 	H 	0.3743	0.7583	0.3202	0.055
Mof_H 	H 	0.1326	0.7965	0.2727	0.066
Mof_H 	H 	0.7276	0.0767	0.4015	0.007
Mof_H 	H 	0.7525	0.0639	0.3638	0.001
Mof_H 	H 	0.6257	0.9459	0.384	0.066
Mof_H 	H 	0.8674	0.1401	0.6639	0.065
Mof_H 	H 	0.4015	0.7276	0.0767	0.007
Mof_H 	H 	0.3638	0.7525	0.0639	0.001
Mof_H 	H 	0.384	0.6257	0.9459	0.066
Mof_H 	H 	0.6639	0.8674	0.1401	0.065
Mof_H 	H 	0.3491	0.2724	0.6739	0.007
Mof_H 	H 	0.3114	0.2475	0.6113	0.004
Mof_H 	H 	0.3202	0.3743	0.7583	0.055
Mof_H 	H 	0.2727	0.1326	0.7965	0.066
Mof_H 	H 	0.5985	0.6752	0.3261	0.007
Mof_H 	H 	0.6362	0.7001	0.3887	0.003
Mof_H 	H 	0.616	0.5619	0.2417	0.055
Mof_H 	H 	0.3361	0.4762	0.2035	0.063
Mof_H 	H 	0.6509	0.3248	0.9233	0.002
Mof_H 	H 	0.6886	0.2999	0.9361	0.005
Mof_H 	H 	0.6798	0.4381	0.0541	0.047
Mof_H 	H 	0.7273	0.5238	0.8599	0.067
Mof_H 	H 	0.6509	0.3261	0.7276	0.008
Mof_H 	H 	0.6886	0.3887	0.7525	0.005
Mof_H 	H 	0.6798	0.2417	0.6257	0.054
Mof_H 	H 	0.7273	0.2035	0.8674	0.063
Mof_H 	H 	0.5985	0.9233	0.2724	0.002
Mof_H 	H 	0.6362	0.9361	0.2475	0.004
Mof_H 	H 	0.616	0.0541	0.3743	0.047
Mof_H 	H 	0.3361	0.8599	0.1326	0.065
Mof_H 	H 	0.3491	0.0767	0.6752	0.006
Mof_H 	H 	0.3114	0.0639	0.7001	0
Mof_H 	H 	0.3202	0.9459	0.5619	0.066
Mof_H 	H 	0.2727	0.1401	0.4762	0.064
Mof_H 	H 	0.4015	0.6739	0.3248	0.007
Mof_H 	H 	0.3638	0.6113	0.2999	0.004
Mof_H 	H 	0.384	0.7583	0.4381	0.055
Mof_H 	H 	0.6639	0.7965	0.5238	0.067
Mof_H 	H 	0.0767	0.6752	0.3491	0.006
Mof_H 	H 	0.0639	0.7001	0.3114	0
Mof_H 	H 	0.9459	0.5619	0.3202	0.066
Mof_H 	H 	0.1401	0.4762	0.2727	0.064
Mof_H 	H 	0.6739	0.3248	0.4015	0.007
Mof_H 	H 	0.6113	0.2999	0.3638	0.004
Mof_H 	H 	0.7583	0.4381	0.384	0.055
Mof_H 	H 	0.7965	0.5238	0.6639	0.067
Mof_H 	H 	0.3261	0.7276	0.6509	0.008
Mof_H 	H 	0.3887	0.7525	0.6886	0.005
Mof_H 	H 	0.2417	0.6257	0.6798	0.054
Mof_H 	H 	0.2035	0.8674	0.7273	0.063
Mof_H 	H 	0.9233	0.2724	0.5985	0.002
Mof_H 	H 	0.9361	0.2475	0.6362	0.004
Mof_H 	H 	0.0541	0.3743	0.616	0.047
Mof_H 	H 	0.8599	0.1326	0.3361	0.065
Mof_H 	H 	0.2724	0.5985	0.9233	0.002
Mof_H 	H 	0.2475	0.6362	0.9361	0.004
Mof_H 	H 	0.3743	0.616	0.0541	0.047
Mof_H 	H 	0.1326	0.3361	0.8599	0.065
Mof_H 	H 	0.7276	0.6509	0.3261	0.008
Mof_H 	H 	0.7525	0.6886	0.3887	0.005
Mof_H 	H 	0.6257	0.6798	0.2417	0.054
Mof_H 	H 	0.8674	0.7273	0.2035	0.063
Mof_H 	H 	0.3248	0.4015	0.6739	0.007
Mof_H 	H 	0.2999	0.3638	0.6113	0.004
Mof_H 	H 	0.4381	0.384	0.7583	0.055
Mof_H 	H 	0.5238	0.6639	0.7965	0.067
Mof_H 	H 	0.6752	0.3491	0.0767	0.006
Mof_H 	H 	0.7001	0.3114	0.0639	0
Mof_H 	H 	0.5619	0.3202	0.9459	0.066
Mof_H 	H 	0.4762	0.2727	0.1401	0.064
Mof_H 	H 	0.3261	0.6509	0.7276	0.008
Mof_H 	H 	0.3887	0.6886	0.7525	0.005
Mof_H 	H 	0.2417	0.6798	0.6257	0.054
Mof_H 	H 	0.2035	0.7273	0.8674	0.063
Mof_H 	H 	0.9233	0.5985	0.2724	0.002
Mof_H 	H 	0.9361	0.6362	0.2475	0.004
Mof_H 	H 	0.0541	0.616	0.3743	0.047
Mof_H 	H 	0.8599	0.3361	0.1326	0.065
Mof_H 	H 	0.0767	0.3491	0.6752	0.006
Mof_H 	H 	0.0639	0.3114	0.7001	0
Mof_H 	H 	0.9459	0.3202	0.5619	0.066
Mof_H 	H 	0.1401	0.2727	0.4762	0.064
Mof_H 	H 	0.6739	0.4015	0.3248	0.007
Mof_H 	H 	0.6113	0.3638	0.2999	0.004
Mof_H 	H 	0.7583	0.384	0.4381	0.055
Mof_H 	H 	0.7965	0.6639	0.5238	0.067
Mof_H 	H 	0.6752	0.0767	0.3491	0.006
Mof_H 	H 	0.7001	0.0639	0.3114	0
Mof_H 	H 	0.5619	0.9459	0.3202	0.066
Mof_H 	H 	0.4762	0.1401	0.2727	0.064
Mof_H 	H 	0.3248	0.6739	0.4015	0.007
Mof_H 	H 	0.2999	0.6113	0.3638	0.004
Mof_H 	H 	0.4381	0.7583	0.384	0.055
Mof_H 	H 	0.5238	0.7965	0.6639	0.067
Mof_H 	H 	0.7276	0.3261	0.6509	0.008
Mof_H 	H 	0.7525	0.3887	0.6886	0.005
Mof_H 	H 	0.6257	0.2417	0.6798	0.054
Mof_H 	H 	0.8674	0.2035	0.7273	0.063
Mof_H 	H 	0.2724	0.9233	0.5985	0.002
Mof_H 	H 	0.2475	0.9361	0.6362	0.004
Mof_H 	H 	0.3743	0.0541	0.616	0.047
Mof_H 	H 	0.1326	0.8599	0.3361	0.065
Mof_H 	H 	0.5985	0.2724	0.9233	0.002
Mof_H 	H 	0.6362	0.2475	0.9361	0.004
Mof_H 	H 	0.616	0.3743	0.0541	0.047
Mof_H 	H 	0.3361	0.1326	0.8599	0.065
Mof_H 	H 	0.6509	0.7276	0.3261	0.008
Mof_H 	H 	0.6886	0.7525	0.3887	0.005
Mof_H 	H 	0.6798	0.6257	0.2417	0.054
Mof_H 	H 	0.7273	0.8674	0.2035	0.063
Mof_H 	H 	0.4015	0.3248	0.6739	0.007
Mof_H 	H 	0.3638	0.2999	0.6113	0.004
Mof_H 	H 	0.384	0.4381	0.7583	0.055
Mof_H 	H 	0.6639	0.5238	0.7965	0.067
Mof_H 	H 	0.3491	0.6752	0.0767	0.006
Mof_H 	H 	0.3114	0.7001	0.0639	0
Mof_H 	H 	0.3202	0.5619	0.9459	0.066
Mof_H 	H 	0.2727	0.4762	0.1401	0.064
Mof_H 	H 	0.3491	0.6739	0.2724	0.007
Mof_H 	H 	0.3114	0.6113	0.2475	0.004
Mof_H 	H 	0.3202	0.7583	0.3743	0.055
Mof_H 	H 	0.2727	0.7965	0.1326	0.066
Mof_H 	H 	0.4015	0.0767	0.7276	0.007
Mof_H 	H 	0.3638	0.0639	0.7525	0.001
Mof_H 	H 	0.384	0.9459	0.6257	0.066
Mof_H 	H 	0.6639	0.1401	0.8674	0.065
Mof_H 	H 	0.6509	0.9233	0.3248	0.002
Mof_H 	H 	0.6886	0.9361	0.2999	0.005
Mof_H 	H 	0.6798	0.0541	0.4381	0.047
Mof_H 	H 	0.7273	0.8599	0.5238	0.067
Mof_H 	H 	0.5985	0.3261	0.6752	0.007
Mof_H 	H 	0.6362	0.3887	0.7001	0.003
Mof_H 	H 	0.616	0.2417	0.5619	0.055
Mof_H 	H 	0.3361	0.2035	0.4762	0.063
Mof_H 	H 	0.9233	0.3248	0.6509	0.002
Mof_H 	H 	0.9361	0.2999	0.6886	0.005
Mof_H 	H 	0.0541	0.4381	0.6798	0.047
Mof_H 	H 	0.8599	0.5238	0.7273	0.067
Mof_H 	H 	0.3261	0.6752	0.5985	0.007
Mof_H 	H 	0.3887	0.7001	0.6362	0.003
Mof_H 	H 	0.2417	0.5619	0.616	0.055
Mof_H 	H 	0.2035	0.4762	0.3361	0.063
Mof_H 	H 	0.6739	0.2724	0.3491	0.007
Mof_H 	H 	0.6113	0.2475	0.3114	0.004
Mof_H 	H 	0.7583	0.3743	0.3202	0.055
Mof_H 	H 	0.7965	0.1326	0.2727	0.066
Mof_H 	H 	0.0767	0.7276	0.4015	0.007
Mof_H 	H 	0.0639	0.7525	0.3638	0.001
Mof_H 	H 	0.9459	0.6257	0.384	0.066
Mof_H 	H 	0.1401	0.8674	0.6639	0.065
Mof_H 	H 	0.7276	0.4015	0.0767	0.007
Mof_H 	H 	0.7525	0.3638	0.0639	0.001
Mof_H 	H 	0.6257	0.384	0.9459	0.066
Mof_H 	H 	0.8674	0.6639	0.1401	0.065
Mof_H 	H 	0.2724	0.3491	0.6739	0.007
Mof_H 	H 	0.2475	0.3114	0.6113	0.004
Mof_H 	H 	0.3743	0.3202	0.7583	0.055
Mof_H 	H 	0.1326	0.2727	0.7965	0.066
Mof_H 	H 	0.6752	0.5985	0.3261	0.007
Mof_H 	H 	0.7001	0.6362	0.3887	0.003
Mof_H 	H 	0.5619	0.616	0.2417	0.055
Mof_H 	H 	0.4762	0.3361	0.2035	0.063
Mof_H 	H 	0.3248	0.6509	0.9233	0.002
Mof_H 	H 	0.2999	0.6886	0.9361	0.005
Mof_H 	H 	0.4381	0.6798	0.0541	0.047
Mof_H 	H 	0.5238	0.7273	0.8599	0.067
Mof_H 	H 	0.8561	0.2293	0.3732	0.031
Mof_H 	H 	0.8561	0.4829	0.6268	0.033
Mof_H 	H 	0.1439	0.7707	0.6268	0.028
Mof_H 	H 	0.1439	0.5171	0.3732	0.027
Mof_H 	H 	0.6268	0.1439	0.7707	0.028
Mof_H 	H 	0.3732	0.1439	0.5171	0.027
Mof_H 	H 	0.3732	0.8561	0.2293	0.031
Mof_H 	H 	0.6268	0.8561	0.4829	0.033
Mof_H 	H 	0.4829	0.6268	0.8561	0.033
Mof_H 	H 	0.2293	0.3732	0.8561	0.031
Mof_H 	H 	0.5171	0.3732	0.1439	0.027
Mof_H 	H 	0.7707	0.6268	0.1439	0.028
Mof_H 	H 	0.7707	0.1439	0.6268	0.028
Mof_H 	H 	0.5171	0.1439	0.3732	0.027
Mof_H 	H 	0.2293	0.8561	0.3732	0.031
Mof_H 	H 	0.4829	0.8561	0.6268	0.033
Mof_H 	H 	0.8561	0.3732	0.2293	0.031
Mof_H 	H 	0.8561	0.6268	0.4829	0.033
Mof_H 	H 	0.1439	0.6268	0.7707	0.028
Mof_H 	H 	0.1439	0.3732	0.5171	0.027
Mof_H 	H 	0.3732	0.5171	0.1439	0.027
Mof_H 	H 	0.6268	0.7707	0.1439	0.028
Mof_H 	H 	0.6268	0.4829	0.8561	0.033
Mof_H 	H 	0.3732	0.2293	0.8561	0.031
Mof_H 	H 	0.6326	0.1142	-0	0.041
Mof_H 	H 	0.1142	0.6326	-0	0.041
Mof_H 	H 	0.8858	0.8858	0.5184	0.052
Mof_H 	H 	0.3674	0.3674	0.4816	0.037
Mof_H 	H 	0.5184	0.8858	0.8858	0.052
Mof_H 	H 	0.4816	0.3674	0.3674	0.037
Mof_H 	H 	-1.82561e-17	0.6326	0.1142	0.041
Mof_H 	H 	-2.08641e-17	0.1142	0.6326	0.041
Mof_H 	H 	0.6326	0	0.1142	0.041
Mof_H 	H 	0.1142	-4.17282e-17	0.6326	0.041
Mof_H 	H 	0.3674	0.4816	0.3674	0.037
Mof_H 	H 	0.8858	0.5184	0.8858	0.052
Mof_H 	H 	0.8858	0.3674	-0	0.053
Mof_H 	H 	0.3674	0.8858	-0	0.053
Mof_H 	H 	0.1142	0.1142	0.4816	0.026
Mof_H 	H 	0.6326	0.6326	0.5184	0.039
Mof_H 	H 	0.1142	0.4816	0.1142	0.026
Mof_H 	H 	0.6326	0.5184	0.6326	0.039
Mof_H 	H 	0.3674	8.34563e-17	0.8858	0.053
Mof_H 	H 	0.8858	-2.08641e-17	0.3674	0.053
Mof_H 	H 	-2.08641e-17	0.3674	0.8858	0.053
Mof_H 	H 	-2.08641e-17	0.8858	0.3674	0.053
Mof_H 	H 	0.5184	0.6326	0.6326	0.039
Mof_H 	H 	0.4816	0.1142	0.1142	0.026
Mof_C 	C 	0.6467	0.3305	0.2804	0.035
Mof_C 	C 	0.7817	0.2518	0.3245	0.402
Mof_C 	C 	0.8181	0.2724	0.3841	-0.132
Mof_C 	C 	0.81542	0.3106	0.42382	0.071
Mof_C 	C 	0.78155	0.3329	0.41105	-0.062
Mof_C 	C 	0.7081	0.18416	0.09786	0.334
Mof_C 	C 	0.70697	0.18133	0.04902	-0.13
Mof_C 	C 	0.7458	0.2218	0.05022	0.071
Mof_C 	C 	0.79268	0.26879	0.09909	-0.07
Mof_C 	C 	0.0501	0.3663	0.7196	0.035
Mof_C 	C 	0.9273	0.4572	0.6755	0.401
Mof_C 	C 	0.8883	0.434	0.6159	-0.129
Mof_C 	C 	0.88678	0.3916	0.57618	0.072
Mof_C 	C 	0.92185	0.3705	0.58895	-0.06
Mof_C 	C 	0.0863	0.61024	0.90214	0.33
Mof_C 	C 	0.13231	0.65795	0.95098	-0.087
Mof_C 	C 	0.17158	0.69558	0.94978	0.107
Mof_C 	C 	0.1697	0.69359	0.90091	-0.069
Mof_C 	C 	0.9499	0.6695	0.3162	0.071
Mof_C 	C 	0.0727	0.7482	0.5299	0.399
Mof_C 	C 	0.1117	0.7276	0.5457	-0.137
Mof_C 	C 	0.11322	0.6894	0.50482	0.067
Mof_C 	C 	0.07815	0.6671	0.44865	-0.066
Mof_C 	C 	0.9137	0.81584	0.52394	0.34
Mof_C 	C 	0.86769	0.81867	0.52564	-0.13
Mof_C 	C 	0.82842	0.7782	0.524	0.071
Mof_C 	C 	0.8303	0.73121	0.52389	-0.063
Mof_C 	C 	0.3533	0.6337	0.6838	0.036
Mof_C 	C 	0.2183	0.5428	0.4701	0.402
Mof_C 	C 	0.1819	0.566	0.4543	-0.137
Mof_C 	C 	0.18458	0.6084	0.49518	0.069
Mof_C 	C 	0.21845	0.6295	0.55135	-0.065
Mof_C 	C 	0.2919	0.38976	0.47606	0.343
Mof_C 	C 	0.29303	0.34205	0.47436	-0.145
Mof_C 	C 	0.2542	0.30442	0.476	0.072
Mof_C 	C 	0.20732	0.30641	0.47611	-0.069
Mof_C 	C 	0.3162	0.9499	0.6695	0.071
Mof_C 	C 	0.5299	0.0727	0.7482	0.399
Mof_C 	C 	0.5457	0.1117	0.7276	-0.137
Mof_C 	C 	0.50482	0.11322	0.6894	0.067
Mof_C 	C 	0.44865	0.07815	0.6671	-0.066
Mof_C 	C 	0.52394	0.9137	0.81584	0.34
Mof_C 	C 	0.52564	0.86769	0.81867	-0.13
Mof_C 	C 	0.524	0.82842	0.7782	0.071
Mof_C 	C 	0.52389	0.8303	0.73121	-0.063
Mof_C 	C 	0.6838	0.3533	0.6337	0.036
Mof_C 	C 	0.4701	0.2183	0.5428	0.402
Mof_C 	C 	0.4543	0.1819	0.566	-0.137
Mof_C 	C 	0.49518	0.18458	0.6084	0.069
Mof_C 	C 	0.55135	0.21845	0.6295	-0.065
Mof_C 	C 	0.47606	0.2919	0.38976	0.343
Mof_C 	C 	0.47436	0.29303	0.34205	-0.145
Mof_C 	C 	0.476	0.2542	0.30442	0.072
Mof_C 	C 	0.47611	0.20732	0.30641	-0.069
Mof_C 	C 	0.2804	0.6467	0.3305	0.035
Mof_C 	C 	0.3245	0.7817	0.2518	0.402
Mof_C 	C 	0.3841	0.8181	0.2724	-0.132
Mof_C 	C 	0.42382	0.81542	0.3106	0.071
Mof_C 	C 	0.41105	0.78155	0.3329	-0.062
Mof_C 	C 	0.09786	0.7081	0.18416	0.334
Mof_C 	C 	0.04902	0.70697	0.18133	-0.13
Mof_C 	C 	0.05022	0.7458	0.2218	0.071
Mof_C 	C 	0.09909	0.79268	0.26879	-0.07
Mof_C 	C 	0.7196	0.0501	0.3663	0.035
Mof_C 	C 	0.6755	0.9273	0.4572	0.401
Mof_C 	C 	0.6159	0.8883	0.434	-0.129
Mof_C 	C 	0.57618	0.88678	0.3916	0.072
Mof_C 	C 	0.58895	0.92185	0.3705	-0.06
Mof_C 	C 	0.90214	0.0863	0.61024	0.33
Mof_C 	C 	0.95098	0.13231	0.65795	-0.087
Mof_C 	C 	0.94978	0.17158	0.69558	0.107
Mof_C 	C 	0.90091	0.1697	0.69359	-0.069
Mof_C 	C 	0.3663	0.7196	0.0501	0.035
Mof_C 	C 	0.4572	0.6755	0.9273	0.401
Mof_C 	C 	0.434	0.6159	0.8883	-0.129
Mof_C 	C 	0.3916	0.57618	0.88678	0.072
Mof_C 	C 	0.3705	0.58895	0.92185	-0.06
Mof_C 	C 	0.61024	0.90214	0.0863	0.33
Mof_C 	C 	0.65795	0.95098	0.13231	-0.087
Mof_C 	C 	0.69558	0.94978	0.17158	0.107
Mof_C 	C 	0.69359	0.90091	0.1697	-0.069
Mof_C 	C 	0.3305	0.2804	0.6467	0.035
Mof_C 	C 	0.2518	0.3245	0.7817	0.402
Mof_C 	C 	0.2724	0.3841	0.8181	-0.132
Mof_C 	C 	0.3106	0.42382	0.81542	0.071
Mof_C 	C 	0.3329	0.41105	0.78155	-0.062
Mof_C 	C 	0.18416	0.09786	0.7081	0.334
Mof_C 	C 	0.18133	0.04902	0.70697	-0.13
Mof_C 	C 	0.2218	0.05022	0.7458	0.071
Mof_C 	C 	0.26879	0.09909	0.79268	-0.07
Mof_C 	C 	0.6337	0.6838	0.3533	0.036
Mof_C 	C 	0.5428	0.4701	0.2183	0.402
Mof_C 	C 	0.566	0.4543	0.1819	-0.137
Mof_C 	C 	0.6084	0.49518	0.18458	0.069
Mof_C 	C 	0.6295	0.55135	0.21845	-0.065
Mof_C 	C 	0.38976	0.47606	0.2919	0.343
Mof_C 	C 	0.34205	0.47436	0.29303	-0.145
Mof_C 	C 	0.30442	0.476	0.2542	0.072
Mof_C 	C 	0.30641	0.47611	0.20732	-0.069
Mof_C 	C 	0.6695	0.3162	0.9499	0.071
Mof_C 	C 	0.7482	0.5299	0.0727	0.399
Mof_C 	C 	0.7276	0.5457	0.1117	-0.137
Mof_C 	C 	0.6894	0.50482	0.11322	0.067
Mof_C 	C 	0.6671	0.44865	0.07815	-0.066
Mof_C 	C 	0.81584	0.52394	0.9137	0.34
Mof_C 	C 	0.81867	0.52564	0.86769	-0.13
Mof_C 	C 	0.7782	0.524	0.82842	0.071
Mof_C 	C 	0.73121	0.52389	0.8303	-0.063
Mof_C 	C 	0.6695	0.3533	0.7196	0.033
Mof_C 	C 	0.7482	0.2183	0.6755	0.401
Mof_C 	C 	0.7276	0.1819	0.6159	-0.136
Mof_C 	C 	0.6894	0.18458	0.57618	0.069
Mof_C 	C 	0.6671	0.21845	0.58895	-0.064
Mof_C 	C 	0.81584	0.2919	0.90214	0.329
Mof_C 	C 	0.81867	0.29303	0.95098	-0.078
Mof_C 	C 	0.7782	0.2542	0.94978	0.102
Mof_C 	C 	0.73121	0.20732	0.90091	-0.064
Mof_C 	C 	0.6337	0.9499	0.2804	0.072
Mof_C 	C 	0.5428	0.0727	0.3245	0.399
Mof_C 	C 	0.566	0.1117	0.3841	-0.139
Mof_C 	C 	0.6084	0.11322	0.42382	0.068
Mof_C 	C 	0.6295	0.07815	0.41105	-0.067
Mof_C 	C 	0.38976	0.9137	0.09786	0.332
Mof_C 	C 	0.34205	0.86769	0.04902	-0.12
Mof_C 	C 	0.30442	0.82842	0.05022	0.066
Mof_C 	C 	0.30641	0.8303	0.09909	-0.065
Mof_C 	C 	0.3305	0.0501	0.6838	0.036
Mof_C 	C 	0.2518	0.9273	0.4701	0.402
Mof_C 	C 	0.2724	0.8883	0.4543	-0.13
Mof_C 	C 	0.3106	0.88678	0.49518	0.073
Mof_C 	C 	0.3329	0.92185	0.55135	-0.06
Mof_C 	C 	0.18416	0.0863	0.47606	0.344
Mof_C 	C 	0.18133	0.13231	0.47436	-0.154
Mof_C 	C 	0.2218	0.17158	0.476	0.076
Mof_C 	C 	0.26879	0.1697	0.47611	-0.073
Mof_C 	C 	0.3663	0.6467	0.3162	0.035
Mof_C 	C 	0.4572	0.7817	0.5299	0.401
Mof_C 	C 	0.434	0.8181	0.5457	-0.131
Mof_C 	C 	0.3916	0.81542	0.50482	0.07
Mof_C 	C 	0.3705	0.78155	0.44865	-0.062
Mof_C 	C 	0.61024	0.7081	0.52394	0.342
Mof_C 	C 	0.65795	0.70697	0.52564	-0.141
Mof_C 	C 	0.69558	0.7458	0.524	0.076
Mof_C 	C 	0.69359	0.79268	0.52389	-0.068
Mof_C 	C 	0.0501	0.6838	0.3305	0.036
Mof_C 	C 	0.9273	0.4701	0.2518	0.402
Mof_C 	C 	0.8883	0.4543	0.2724	-0.13
Mof_C 	C 	0.88678	0.49518	0.3106	0.073
Mof_C 	C 	0.92185	0.55135	0.3329	-0.06
Mof_C 	C 	0.0863	0.47606	0.18416	0.344
Mof_C 	C 	0.13231	0.47436	0.18133	-0.154
Mof_C 	C 	0.17158	0.476	0.2218	0.076
Mof_C 	C 	0.1697	0.47611	0.26879	-0.073
Mof_C 	C 	0.6467	0.3162	0.3663	0.035
Mof_C 	C 	0.7817	0.5299	0.4572	0.401
Mof_C 	C 	0.8181	0.5457	0.434	-0.131
Mof_C 	C 	0.81542	0.50482	0.3916	0.07
Mof_C 	C 	0.78155	0.44865	0.3705	-0.062
Mof_C 	C 	0.7081	0.52394	0.61024	0.342
Mof_C 	C 	0.70697	0.52564	0.65795	-0.141
Mof_C 	C 	0.7458	0.524	0.69558	0.076
Mof_C 	C 	0.79268	0.52389	0.69359	-0.068
Mof_C 	C 	0.3533	0.7196	0.6695	0.033
Mof_C 	C 	0.2183	0.6755	0.7482	0.401
Mof_C 	C 	0.1819	0.6159	0.7276	-0.136
Mof_C 	C 	0.18458	0.57618	0.6894	0.069
Mof_C 	C 	0.21845	0.58895	0.6671	-0.064
Mof_C 	C 	0.2919	0.90214	0.81584	0.329
Mof_C 	C 	0.29303	0.95098	0.81867	-0.078
Mof_C 	C 	0.2542	0.94978	0.7782	0.102
Mof_C 	C 	0.20732	0.90091	0.73121	-0.064
Mof_C 	C 	0.9499	0.2804	0.6337	0.072
Mof_C 	C 	0.0727	0.3245	0.5428	0.399
Mof_C 	C 	0.1117	0.3841	0.566	-0.139
Mof_C 	C 	0.11322	0.42382	0.6084	0.068
Mof_C 	C 	0.07815	0.41105	0.6295	-0.067
Mof_C 	C 	0.9137	0.09786	0.38976	0.332
Mof_C 	C 	0.86769	0.04902	0.34205	-0.12
Mof_C 	C 	0.82842	0.05022	0.30442	0.066
Mof_C 	C 	0.8303	0.09909	0.30641	-0.065
Mof_C 	C 	0.2804	0.6337	0.9499	0.072
Mof_C 	C 	0.3245	0.5428	0.0727	0.399
Mof_C 	C 	0.3841	0.566	0.1117	-0.139
Mof_C 	C 	0.42382	0.6084	0.11322	0.068
Mof_C 	C 	0.41105	0.6295	0.07815	-0.067
Mof_C 	C 	0.09786	0.38976	0.9137	0.332
Mof_C 	C 	0.04902	0.34205	0.86769	-0.12
Mof_C 	C 	0.05022	0.30442	0.82842	0.066
Mof_C 	C 	0.09909	0.30641	0.8303	-0.065
Mof_C 	C 	0.7196	0.6695	0.3533	0.033
Mof_C 	C 	0.6755	0.7482	0.2183	0.401
Mof_C 	C 	0.6159	0.7276	0.1819	-0.136
Mof_C 	C 	0.57618	0.6894	0.18458	0.069
Mof_C 	C 	0.58895	0.6671	0.21845	-0.064
Mof_C 	C 	0.90214	0.81584	0.2919	0.329
Mof_C 	C 	0.95098	0.81867	0.29303	-0.078
Mof_C 	C 	0.94978	0.7782	0.2542	0.102
Mof_C 	C 	0.90091	0.73121	0.20732	-0.064
Mof_C 	C 	0.3162	0.3663	0.6467	0.035
Mof_C 	C 	0.5299	0.4572	0.7817	0.401
Mof_C 	C 	0.5457	0.434	0.8181	-0.131
Mof_C 	C 	0.50482	0.3916	0.81542	0.07
Mof_C 	C 	0.44865	0.3705	0.78155	-0.062
Mof_C 	C 	0.52394	0.61024	0.7081	0.342
Mof_C 	C 	0.52564	0.65795	0.70697	-0.141
Mof_C 	C 	0.524	0.69558	0.7458	0.076
Mof_C 	C 	0.52389	0.69359	0.79268	-0.068
Mof_C 	C 	0.6838	0.3305	0.0501	0.036
Mof_C 	C 	0.4701	0.2518	0.9273	0.402
Mof_C 	C 	0.4543	0.2724	0.8883	-0.13
Mof_C 	C 	0.49518	0.3106	0.88678	0.073
Mof_C 	C 	0.55135	0.3329	0.92185	-0.06
Mof_C 	C 	0.47606	0.18416	0.0863	0.344
Mof_C 	C 	0.47436	0.18133	0.13231	-0.154
Mof_C 	C 	0.476	0.2218	0.17158	0.076
Mof_C 	C 	0.47611	0.26879	0.1697	-0.073
Mof_C 	C 	0.3533	0.6695	0.7196	0.033
Mof_C 	C 	0.2183	0.7482	0.6755	0.401
Mof_C 	C 	0.1819	0.7276	0.6159	-0.136
Mof_C 	C 	0.18458	0.6894	0.57618	0.069
Mof_C 	C 	0.21845	0.6671	0.58895	-0.064
Mof_C 	C 	0.2919	0.81584	0.90214	0.329
Mof_C 	C 	0.29303	0.81867	0.95098	-0.078
Mof_C 	C 	0.2542	0.7782	0.94978	0.102
Mof_C 	C 	0.20732	0.73121	0.90091	-0.064
Mof_C 	C 	0.9499	0.6337	0.2804	0.072
Mof_C 	C 	0.0727	0.5428	0.3245	0.399
Mof_C 	C 	0.1117	0.566	0.3841	-0.139
Mof_C 	C 	0.11322	0.6084	0.42382	0.068
Mof_C 	C 	0.07815	0.6295	0.41105	-0.067
Mof_C 	C 	0.9137	0.38976	0.09786	0.332
Mof_C 	C 	0.86769	0.34205	0.04902	-0.12
Mof_C 	C 	0.82842	0.30442	0.05022	0.066
Mof_C 	C 	0.8303	0.30641	0.09909	-0.065
Mof_C 	C 	0.0501	0.3305	0.6838	0.036
Mof_C 	C 	0.9273	0.2518	0.4701	0.402
Mof_C 	C 	0.8883	0.2724	0.4543	-0.13
Mof_C 	C 	0.88678	0.3106	0.49518	0.073
Mof_C 	C 	0.92185	0.3329	0.55135	-0.06
Mof_C 	C 	0.0863	0.18416	0.47606	0.344
Mof_C 	C 	0.13231	0.18133	0.47436	-0.154
Mof_C 	C 	0.17158	0.2218	0.476	0.076
Mof_C 	C 	0.1697	0.26879	0.47611	-0.073
Mof_C 	C 	0.6467	0.3663	0.3162	0.035
Mof_C 	C 	0.7817	0.4572	0.5299	0.401
Mof_C 	C 	0.8181	0.434	0.5457	-0.131
Mof_C 	C 	0.81542	0.3916	0.50482	0.07
Mof_C 	C 	0.78155	0.3705	0.44865	-0.062
Mof_C 	C 	0.7081	0.61024	0.52394	0.342
Mof_C 	C 	0.70697	0.65795	0.52564	-0.141
Mof_C 	C 	0.7458	0.69558	0.524	0.076
Mof_C 	C 	0.79268	0.69359	0.52389	-0.068
Mof_C 	C 	0.6838	0.0501	0.3305	0.036
Mof_C 	C 	0.4701	0.9273	0.2518	0.402
Mof_C 	C 	0.4543	0.8883	0.2724	-0.13
Mof_C 	C 	0.49518	0.88678	0.3106	0.073
Mof_C 	C 	0.55135	0.92185	0.3329	-0.06
Mof_C 	C 	0.47606	0.0863	0.18416	0.344
Mof_C 	C 	0.47436	0.13231	0.18133	-0.154
Mof_C 	C 	0.476	0.17158	0.2218	0.076
Mof_C 	C 	0.47611	0.1697	0.26879	-0.073
Mof_C 	C 	0.3162	0.6467	0.3663	0.035
Mof_C 	C 	0.5299	0.7817	0.4572	0.401
Mof_C 	C 	0.5457	0.8181	0.434	-0.131
Mof_C 	C 	0.50482	0.81542	0.3916	0.07
Mof_C 	C 	0.44865	0.78155	0.3705	-0.062
Mof_C 	C 	0.52394	0.7081	0.61024	0.342
Mof_C 	C 	0.52564	0.70697	0.65795	-0.141
Mof_C 	C 	0.524	0.7458	0.69558	0.076
Mof_C 	C 	0.52389	0.79268	0.69359	-0.068
Mof_C 	C 	0.7196	0.3533	0.6695	0.033
Mof_C 	C 	0.6755	0.2183	0.7482	0.401
Mof_C 	C 	0.6159	0.1819	0.7276	-0.136
Mof_C 	C 	0.57618	0.18458	0.6894	0.069
Mof_C 	C 	0.58895	0.21845	0.6671	-0.064
Mof_C 	C 	0.90214	0.2919	0.81584	0.329
Mof_C 	C 	0.95098	0.29303	0.81867	-0.078
Mof_C 	C 	0.94978	0.2542	0.7782	0.102
Mof_C 	C 	0.90091	0.20732	0.73121	-0.064
Mof_C 	C 	0.2804	0.9499	0.6337	0.072
Mof_C 	C 	0.3245	0.0727	0.5428	0.399
Mof_C 	C 	0.3841	0.1117	0.566	-0.139
Mof_C 	C 	0.42382	0.11322	0.6084	0.068
Mof_C 	C 	0.41105	0.07815	0.6295	-0.067
Mof_C 	C 	0.09786	0.9137	0.38976	0.332
Mof_C 	C 	0.04902	0.86769	0.34205	-0.12
Mof_C 	C 	0.05022	0.82842	0.30442	0.066
Mof_C 	C 	0.09909	0.8303	0.30641	-0.065
Mof_C 	C 	0.6337	0.2804	0.9499	0.072
Mof_C 	C 	0.5428	0.3245	0.0727	0.399
Mof_C 	C 	0.566	0.3841	0.1117	-0.139
Mof_C 	C 	0.6084	0.42382	0.11322	0.068
Mof_C 	C 	0.6295	0.41105	0.07815	-0.067
Mof_C 	C 	0.38976	0.09786	0.9137	0.332
Mof_C 	C 	0.34205	0.04902	0.86769	-0.12
Mof_C 	C 	0.30442	0.05022	0.82842	0.066
Mof_C 	C 	0.30641	0.09909	0.8303	-0.065
Mof_C 	C 	0.6695	0.7196	0.3533	0.033
Mof_C 	C 	0.7482	0.6755	0.2183	0.401
Mof_C 	C 	0.7276	0.6159	0.1819	-0.136
Mof_C 	C 	0.6894	0.57618	0.18458	0.069
Mof_C 	C 	0.6671	0.58895	0.21845	-0.064
Mof_C 	C 	0.81584	0.90214	0.2919	0.329
Mof_C 	C 	0.81867	0.95098	0.29303	-0.078
Mof_C 	C 	0.7782	0.94978	0.2542	0.102
Mof_C 	C 	0.73121	0.90091	0.20732	-0.064
Mof_C 	C 	0.3663	0.3162	0.6467	0.035
Mof_C 	C 	0.4572	0.5299	0.7817	0.401
Mof_C 	C 	0.434	0.5457	0.8181	-0.131
Mof_C 	C 	0.3916	0.50482	0.81542	0.07
Mof_C 	C 	0.3705	0.44865	0.78155	-0.062
Mof_C 	C 	0.61024	0.52394	0.7081	0.342
Mof_C 	C 	0.65795	0.52564	0.70697	-0.141
Mof_C 	C 	0.69558	0.524	0.7458	0.076
Mof_C 	C 	0.69359	0.52389	0.79268	-0.068
Mof_C 	C 	0.3305	0.6838	0.0501	0.036
Mof_C 	C 	0.2518	0.4701	0.9273	0.402
Mof_C 	C 	0.2724	0.4543	0.8883	-0.13
Mof_C 	C 	0.3106	0.49518	0.88678	0.073
Mof_C 	C 	0.3329	0.55135	0.92185	-0.06
Mof_C 	C 	0.18416	0.47606	0.0863	0.344
Mof_C 	C 	0.18133	0.47436	0.13231	-0.154
Mof_C 	C 	0.2218	0.476	0.17158	0.076
Mof_C 	C 	0.26879	0.47611	0.1697	-0.073
Mof_C 	C 	0.3305	0.6467	0.2804	0.035
Mof_C 	C 	0.2518	0.7817	0.3245	0.402
Mof_C 	C 	0.2724	0.8181	0.3841	-0.132
Mof_C 	C 	0.3106	0.81542	0.42382	0.071
Mof_C 	C 	0.3329	0.78155	0.41105	-0.062
Mof_C 	C 	0.18416	0.7081	0.09786	0.334
Mof_C 	C 	0.18133	0.70697	0.04902	-0.13
Mof_C 	C 	0.2218	0.7458	0.05022	0.071
Mof_C 	C 	0.26879	0.79268	0.09909	-0.07
Mof_C 	C 	0.3663	0.0501	0.7196	0.035
Mof_C 	C 	0.4572	0.9273	0.6755	0.401
Mof_C 	C 	0.434	0.8883	0.6159	-0.129
Mof_C 	C 	0.3916	0.88678	0.57618	0.072
Mof_C 	C 	0.3705	0.92185	0.58895	-0.06
Mof_C 	C 	0.61024	0.0863	0.90214	0.33
Mof_C 	C 	0.65795	0.13231	0.95098	-0.087
Mof_C 	C 	0.69558	0.17158	0.94978	0.107
Mof_C 	C 	0.69359	0.1697	0.90091	-0.069
Mof_C 	C 	0.6695	0.9499	0.3162	0.071
Mof_C 	C 	0.7482	0.0727	0.5299	0.399
Mof_C 	C 	0.7276	0.1117	0.5457	-0.137
Mof_C 	C 	0.6894	0.11322	0.50482	0.067
Mof_C 	C 	0.6671	0.07815	0.44865	-0.066
Mof_C 	C 	0.81584	0.9137	0.52394	0.34
Mof_C 	C 	0.81867	0.86769	0.52564	-0.13
Mof_C 	C 	0.7782	0.82842	0.524	0.071
Mof_C 	C 	0.73121	0.8303	0.52389	-0.063
Mof_C 	C 	0.6337	0.3533	0.6838	0.036
Mof_C 	C 	0.5428	0.2183	0.4701	0.402
Mof_C 	C 	0.566	0.1819	0.4543	-0.137
Mof_C 	C 	0.6084	0.18458	0.49518	0.069
Mof_C 	C 	0.6295	0.21845	0.55135	-0.065
Mof_C 	C 	0.38976	0.2919	0.47606	0.343
Mof_C 	C 	0.34205	0.29303	0.47436	-0.145
Mof_C 	C 	0.30442	0.2542	0.476	0.072
Mof_C 	C 	0.30641	0.20732	0.47611	-0.069
Mof_C 	C 	0.9499	0.3162	0.6695	0.071
Mof_C 	C 	0.0727	0.5299	0.7482	0.399
Mof_C 	C 	0.1117	0.5457	0.7276	-0.137
Mof_C 	C 	0.11322	0.50482	0.6894	0.067
Mof_C 	C 	0.07815	0.44865	0.6671	-0.066
Mof_C 	C 	0.9137	0.52394	0.81584	0.34
Mof_C 	C 	0.86769	0.52564	0.81867	-0.13
Mof_C 	C 	0.82842	0.524	0.7782	0.071
Mof_C 	C 	0.8303	0.52389	0.73121	-0.063
Mof_C 	C 	0.3533	0.6838	0.6337	0.036
Mof_C 	C 	0.2183	0.4701	0.5428	0.402
Mof_C 	C 	0.1819	0.4543	0.566	-0.137
Mof_C 	C 	0.18458	0.49518	0.6084	0.069
Mof_C 	C 	0.21845	0.55135	0.6295	-0.065
Mof_C 	C 	0.2919	0.47606	0.38976	0.343
Mof_C 	C 	0.29303	0.47436	0.34205	-0.145
Mof_C 	C 	0.2542	0.476	0.30442	0.072
Mof_C 	C 	0.20732	0.47611	0.30641	-0.069
Mof_C 	C 	0.6467	0.2804	0.3305	0.035
Mof_C 	C 	0.7817	0.3245	0.2518	0.402
Mof_C 	C 	0.8181	0.3841	0.2724	-0.132
Mof_C 	C 	0.81542	0.42382	0.3106	0.071
Mof_C 	C 	0.78155	0.41105	0.3329	-0.062
Mof_C 	C 	0.7081	0.09786	0.18416	0.334
Mof_C 	C 	0.70697	0.04902	0.18133	-0.13
Mof_C 	C 	0.7458	0.05022	0.2218	0.071
Mof_C 	C 	0.79268	0.09909	0.26879	-0.07
Mof_C 	C 	0.0501	0.7196	0.3663	0.035
Mof_C 	C 	0.9273	0.6755	0.4572	0.401
Mof_C 	C 	0.8883	0.6159	0.434	-0.129
Mof_C 	C 	0.88678	0.57618	0.3916	0.072
Mof_C 	C 	0.92185	0.58895	0.3705	-0.06
Mof_C 	C 	0.0863	0.90214	0.61024	0.33
Mof_C 	C 	0.13231	0.95098	0.65795	-0.087
Mof_C 	C 	0.17158	0.94978	0.69558	0.107
Mof_C 	C 	0.1697	0.90091	0.69359	-0.069
Mof_C 	C 	0.7196	0.3663	0.0501	0.035
Mof_C 	C 	0.6755	0.4572	0.9273	0.401
Mof_C 	C 	0.6159	0.434	0.8883	-0.129
Mof_C 	C 	0.57618	0.3916	0.88678	0.072
Mof_C 	C 	0.58895	0.3705	0.92185	-0.06
Mof_C 	C 	0.90214	0.61024	0.0863	0.33
Mof_C 	C 	0.95098	0.65795	0.13231	-0.087
Mof_C 	C 	0.94978	0.69558	0.17158	0.107
Mof_C 	C 	0.90091	0.69359	0.1697	-0.069
Mof_C 	C 	0.2804	0.3305	0.6467	0.035
Mof_C 	C 	0.3245	0.2518	0.7817	0.402
Mof_C 	C 	0.3841	0.2724	0.8181	-0.132
Mof_C 	C 	0.42382	0.3106	0.81542	0.071
Mof_C 	C 	0.41105	0.3329	0.78155	-0.062
Mof_C 	C 	0.09786	0.18416	0.7081	0.334
Mof_C 	C 	0.04902	0.18133	0.70697	-0.13
Mof_C 	C 	0.05022	0.2218	0.7458	0.071
Mof_C 	C 	0.09909	0.26879	0.79268	-0.07
Mof_C 	C 	0.6838	0.6337	0.3533	0.036
Mof_C 	C 	0.4701	0.5428	0.2183	0.402
Mof_C 	C 	0.4543	0.566	0.1819	-0.137
Mof_C 	C 	0.49518	0.6084	0.18458	0.069
Mof_C 	C 	0.55135	0.6295	0.21845	-0.065
Mof_C 	C 	0.47606	0.38976	0.2919	0.343
Mof_C 	C 	0.47436	0.34205	0.29303	-0.145
Mof_C 	C 	0.476	0.30442	0.2542	0.072
Mof_C 	C 	0.47611	0.30641	0.20732	-0.069
Mof_C 	C 	0.3162	0.6695	0.9499	0.071
Mof_C 	C 	0.5299	0.7482	0.0727	0.399
Mof_C 	C 	0.5457	0.7276	0.1117	-0.137
Mof_C 	C 	0.50482	0.6894	0.11322	0.067
Mof_C 	C 	0.44865	0.6671	0.07815	-0.066
Mof_C 	C 	0.52394	0.81584	0.9137	0.34
Mof_C 	C 	0.52564	0.81867	0.86769	-0.13
Mof_C 	C 	0.524	0.7782	0.82842	0.071
Mof_C 	C 	0.52389	0.73121	0.8303	-0.063
Mof_C 	C 	0.8544	0.2545	0.4001	0.07
Mof_C 	C 	0.8514	0.3316	0.4802	-0.028
Mof_C 	C 	0.8544	0.4543	0.5999	0.069
Mof_C 	C 	0.8514	0.3712	0.5198	-0.027
Mof_C 	C 	0.1456	0.7455	0.5999	0.068
Mof_C 	C 	0.1486	0.6684	0.5198	-0.031
Mof_C 	C 	0.1456	0.5457	0.4001	0.069
Mof_C 	C 	0.1486	0.6288	0.4802	-0.032
Mof_C 	C 	0.5999	0.1456	0.7455	0.068
Mof_C 	C 	0.5198	0.1486	0.6684	-0.031
Mof_C 	C 	0.4001	0.1456	0.5457	0.069
Mof_C 	C 	0.4802	0.1486	0.6288	-0.032
Mof_C 	C 	0.4001	0.8544	0.2545	0.07
Mof_C 	C 	0.4802	0.8514	0.3316	-0.028
Mof_C 	C 	0.5999	0.8544	0.4543	0.069
Mof_C 	C 	0.5198	0.8514	0.3712	-0.027
Mof_C 	C 	0.4543	0.5999	0.8544	0.069
Mof_C 	C 	0.3712	0.5198	0.8514	-0.027
Mof_C 	C 	0.2545	0.4001	0.8544	0.07
Mof_C 	C 	0.3316	0.4802	0.8514	-0.028
Mof_C 	C 	0.5457	0.4001	0.1456	0.069
Mof_C 	C 	0.6288	0.4802	0.1486	-0.032
Mof_C 	C 	0.7455	0.5999	0.1456	0.068
Mof_C 	C 	0.6684	0.5198	0.1486	-0.031
Mof_C 	C 	0.7455	0.1456	0.5999	0.068
Mof_C 	C 	0.6684	0.1486	0.5198	-0.031
Mof_C 	C 	0.5457	0.1456	0.4001	0.069
Mof_C 	C 	0.6288	0.1486	0.4802	-0.032
Mof_C 	C 	0.2545	0.8544	0.4001	0.07
Mof_C 	C 	0.3316	0.8514	0.4802	-0.028
Mof_C 	C 	0.4543	0.8544	0.5999	0.069
Mof_C 	C 	0.3712	0.8514	0.5198	-0.027
Mof_C 	C 	0.8544	0.4001	0.2545	0.07
Mof_C 	C 	0.8514	0.4802	0.3316	-0.028
Mof_C 	C 	0.8544	0.5999	0.4543	0.069
Mof_C 	C 	0.8514	0.5198	0.3712	-0.027
Mof_C 	C 	0.1456	0.5999	0.7455	0.068
Mof_C 	C 	0.1486	0.5198	0.6684	-0.031
Mof_C 	C 	0.1456	0.4001	0.5457	0.069
Mof_C 	C 	0.1486	0.4802	0.6288	-0.032
Mof_C 	C 	0.4001	0.5457	0.1456	0.069
Mof_C 	C 	0.4802	0.6288	0.1486	-0.032
Mof_C 	C 	0.5999	0.7455	0.1456	0.068
Mof_C 	C 	0.5198	0.6684	0.1486	-0.031
Mof_C 	C 	0.5999	0.4543	0.8544	0.069
Mof_C 	C 	0.5198	0.3712	0.8514	-0.027
Mof_C 	C 	0.4001	0.2545	0.8544	0.07
Mof_C 	C 	0.4802	0.3316	0.8514	-0.028
Mof_C 	C 	0.74256	0.21566	-0	-0.074
Mof_C 	C 	0.6616	0.139	-0	-0.018
Mof_C 	C 	0.21566	0.74256	-0	-0.074
Mof_C 	C 	0.139	0.6616	-0	-0.018
Mof_C 	C 	0.78434	0.78434	0.5269	-0.028
Mof_C 	C 	0.861	0.861	0.5226	0.054
Mof_C 	C 	0.25744	0.25744	0.4731	-0.036
Mof_C 	C 	0.3384	0.3384	0.4774	0.058
Mof_C 	C 	0.5269	0.78434	0.78434	-0.028
Mof_C 	C 	0.5226	0.861	0.861	0.054
Mof_C 	C 	0.4731	0.25744	0.25744	-0.036
Mof_C 	C 	0.4774	0.3384	0.3384	0.058
Mof_C 	C 	-4.69442e-17	0.74256	0.21566	-0.074
Mof_C 	C 	2.86881e-17	0.6616	0.139	-0.018
Mof_C 	C 	-6.25922e-17	0.21566	0.74256	-0.074
Mof_C 	C 	-2.08641e-17	0.139	0.6616	-0.018
Mof_C 	C 	0.74256	0	0.21566	-0.074
Mof_C 	C 	0.6616	1.0432e-17	0.139	-0.018
Mof_C 	C 	0.21566	4.17282e-17	0.74256	-0.074
Mof_C 	C 	0.139	0	0.6616	-0.018
Mof_C 	C 	0.25744	0.4731	0.25744	-0.036
Mof_C 	C 	0.3384	0.4774	0.3384	0.058
Mof_C 	C 	0.78434	0.5269	0.78434	-0.028
Mof_C 	C 	0.861	0.5226	0.861	0.054
Mof_C 	C 	0.78434	0.25744	-0	-0.069
Mof_C 	C 	0.861	0.3384	-0	-0.022
Mof_C 	C 	0.25744	0.78434	-0	-0.069
Mof_C 	C 	0.3384	0.861	-0	-0.022
Mof_C 	C 	0.21566	0.21566	0.4731	-0.04
Mof_C 	C 	0.139	0.139	0.4774	0.061
Mof_C 	C 	0.74256	0.74256	0.5269	-0.033
Mof_C 	C 	0.6616	0.6616	0.5226	0.059
Mof_C 	C 	0.21566	0.4731	0.21566	-0.04
Mof_C 	C 	0.139	0.4774	0.139	0.061
Mof_C 	C 	0.74256	0.5269	0.74256	-0.033
Mof_C 	C 	0.6616	0.5226	0.6616	0.059
Mof_C 	C 	0.25744	0	0.78434	-0.069
Mof_C 	C 	0.3384	8.34563e-17	0.861	-0.022
Mof_C 	C 	0.78434	0	0.25744	-0.069
Mof_C 	C 	0.861	2.08641e-17	0.3384	-0.022
Mof_C 	C 	-0	0.25744	0.78434	-0.069
Mof_C 	C 	6.25922e-17	0.3384	0.861	-0.022
Mof_C 	C 	3.65121e-17	0.78434	0.25744	-0.069
Mof_C 	C 	1.0432e-17	0.861	0.3384	-0.022
Mof_C 	C 	0.5269	0.74256	0.74256	-0.033
Mof_C 	C 	0.5226	0.6616	0.6616	0.059
Mof_C 	C 	0.4731	0.21566	0.21566	-0.04
Mof_C 	C 	0.4774	0.139	0.139	0.061
Mof_O 	O 	0.80243	0.23851	0.29564	-0.49
Mof_O 	O 	0.73468	0.24302	0.3087	-0.494
Mof_O 	O 	0.7496	0.19631	0.13735	-0.454
Mof_O 	O 	0.66087	0.17204	0.09779	-0.253
Mof_O 	O 	0.94287	0.50679	0.70436	-0.471
Mof_O 	O 	0.93432	0.42598	0.6913	-0.475
Mof_O 	O 	0.05896	0.61225	0.86265	-0.459
Mof_O 	O 	0.07425	0.56308	0.90221	-0.238
Mof_O 	O 	0.05713	0.76149	0.56392	-0.505
Mof_O 	O 	0.06568	0.75698	0.49166	-0.499
Mof_O 	O 	0.94104	0.80369	0.55329	-0.427
Mof_O 	O 	0.92575	0.82796	0.48883	-0.223
Mof_O 	O 	0.19757	0.49321	0.43608	-0.496
Mof_O 	O 	0.26532	0.57402	0.50834	-0.494
Mof_O 	O 	0.2504	0.38775	0.44671	-0.458
Mof_O 	O 	0.33913	0.43692	0.51117	-0.247
Mof_O 	O 	0.56392	0.05713	0.76149	-0.505
Mof_O 	O 	0.49166	0.06568	0.75698	-0.499
Mof_O 	O 	0.55329	0.94104	0.80369	-0.427
Mof_O 	O 	0.48883	0.92575	0.82796	-0.223
Mof_O 	O 	0.43608	0.19757	0.49321	-0.496
Mof_O 	O 	0.50834	0.26532	0.57402	-0.494
Mof_O 	O 	0.44671	0.2504	0.38775	-0.458
Mof_O 	O 	0.51117	0.33913	0.43692	-0.247
Mof_O 	O 	0.29564	0.80243	0.23851	-0.49
Mof_O 	O 	0.3087	0.73468	0.24302	-0.494
Mof_O 	O 	0.13735	0.7496	0.19631	-0.454
Mof_O 	O 	0.09779	0.66087	0.17204	-0.253
Mof_O 	O 	0.70436	0.94287	0.50679	-0.471
Mof_O 	O 	0.6913	0.93432	0.42598	-0.475
Mof_O 	O 	0.86265	0.05896	0.61225	-0.459
Mof_O 	O 	0.90221	0.07425	0.56308	-0.238
Mof_O 	O 	0.50679	0.70436	0.94287	-0.471
Mof_O 	O 	0.42598	0.6913	0.93432	-0.475
Mof_O 	O 	0.61225	0.86265	0.05896	-0.459
Mof_O 	O 	0.56308	0.90221	0.07425	-0.238
Mof_O 	O 	0.23851	0.29564	0.80243	-0.49
Mof_O 	O 	0.24302	0.3087	0.73468	-0.494
Mof_O 	O 	0.19631	0.13735	0.7496	-0.454
Mof_O 	O 	0.17204	0.09779	0.66087	-0.253
Mof_O 	O 	0.49321	0.43608	0.19757	-0.496
Mof_O 	O 	0.57402	0.50834	0.26532	-0.494
Mof_O 	O 	0.38775	0.44671	0.2504	-0.458
Mof_O 	O 	0.43692	0.51117	0.33913	-0.247
Mof_O 	O 	0.76149	0.56392	0.05713	-0.505
Mof_O 	O 	0.75698	0.49166	0.06568	-0.499
Mof_O 	O 	0.80369	0.55329	0.94104	-0.427
Mof_O 	O 	0.82796	0.48883	0.92575	-0.223
Mof_O 	O 	0.76149	0.19757	0.70436	-0.494
Mof_O 	O 	0.75698	0.26532	0.6913	-0.493
Mof_O 	O 	0.80369	0.2504	0.86265	-0.444
Mof_O 	O 	0.82796	0.33913	0.90221	-0.225
Mof_O 	O 	0.49321	0.05713	0.29564	-0.507
Mof_O 	O 	0.57402	0.06568	0.3087	-0.5
Mof_O 	O 	0.38775	0.94104	0.13735	-0.433
Mof_O 	O 	0.43692	0.92575	0.09779	-0.23
Mof_O 	O 	0.23851	0.94287	0.43608	-0.473
Mof_O 	O 	0.24302	0.93432	0.50834	-0.475
Mof_O 	O 	0.19631	0.05896	0.44671	-0.472
Mof_O 	O 	0.17204	0.07425	0.51117	-0.258
Mof_O 	O 	0.50679	0.80243	0.56392	-0.487
Mof_O 	O 	0.42598	0.73468	0.49166	-0.494
Mof_O 	O 	0.61225	0.7496	0.55329	-0.448
Mof_O 	O 	0.56308	0.66087	0.48883	-0.246
Mof_O 	O 	0.94287	0.43608	0.23851	-0.473
Mof_O 	O 	0.93432	0.50834	0.24302	-0.475
Mof_O 	O 	0.05896	0.44671	0.19631	-0.472
Mof_O 	O 	0.07425	0.51117	0.17204	-0.258
Mof_O 	O 	0.80243	0.56392	0.50679	-0.487
Mof_O 	O 	0.73468	0.49166	0.42598	-0.494
Mof_O 	O 	0.7496	0.55329	0.61225	-0.448
Mof_O 	O 	0.66087	0.48883	0.56308	-0.246
Mof_O 	O 	0.19757	0.70436	0.76149	-0.494
Mof_O 	O 	0.26532	0.6913	0.75698	-0.493
Mof_O 	O 	0.2504	0.86265	0.80369	-0.444
Mof_O 	O 	0.33913	0.90221	0.82796	-0.225
Mof_O 	O 	0.05713	0.29564	0.49321	-0.507
Mof_O 	O 	0.06568	0.3087	0.57402	-0.5
Mof_O 	O 	0.94104	0.13735	0.38775	-0.433
Mof_O 	O 	0.92575	0.09779	0.43692	-0.23
Mof_O 	O 	0.29564	0.49321	0.05713	-0.507
Mof_O 	O 	0.3087	0.57402	0.06568	-0.5
Mof_O 	O 	0.13735	0.38775	0.94104	-0.433
Mof_O 	O 	0.09779	0.43692	0.92575	-0.23
Mof_O 	O 	0.70436	0.76149	0.19757	-0.494
Mof_O 	O 	0.6913	0.75698	0.26532	-0.493
Mof_O 	O 	0.86265	0.80369	0.2504	-0.444
Mof_O 	O 	0.90221	0.82796	0.33913	-0.225
Mof_O 	O 	0.56392	0.50679	0.80243	-0.487
Mof_O 	O 	0.49166	0.42598	0.73468	-0.494
Mof_O 	O 	0.55329	0.61225	0.7496	-0.448
Mof_O 	O 	0.48883	0.56308	0.66087	-0.246
Mof_O 	O 	0.43608	0.23851	0.94287	-0.473
Mof_O 	O 	0.50834	0.24302	0.93432	-0.475
Mof_O 	O 	0.44671	0.19631	0.05896	-0.472
Mof_O 	O 	0.51117	0.17204	0.07425	-0.258
Mof_O 	O 	0.19757	0.76149	0.70436	-0.494
Mof_O 	O 	0.26532	0.75698	0.6913	-0.493
Mof_O 	O 	0.2504	0.80369	0.86265	-0.444
Mof_O 	O 	0.33913	0.82796	0.90221	-0.225
Mof_O 	O 	0.05713	0.49321	0.29564	-0.507
Mof_O 	O 	0.06568	0.57402	0.3087	-0.5
Mof_O 	O 	0.94104	0.38775	0.13735	-0.433
Mof_O 	O 	0.92575	0.43692	0.09779	-0.23
Mof_O 	O 	0.94287	0.23851	0.43608	-0.473
Mof_O 	O 	0.93432	0.24302	0.50834	-0.475
Mof_O 	O 	0.05896	0.19631	0.44671	-0.472
Mof_O 	O 	0.07425	0.17204	0.51117	-0.258
Mof_O 	O 	0.80243	0.50679	0.56392	-0.487
Mof_O 	O 	0.73468	0.42598	0.49166	-0.494
Mof_O 	O 	0.7496	0.61225	0.55329	-0.448
Mof_O 	O 	0.66087	0.56308	0.48883	-0.246
Mof_O 	O 	0.43608	0.94287	0.23851	-0.473
Mof_O 	O 	0.50834	0.93432	0.24302	-0.475
Mof_O 	O 	0.44671	0.05896	0.19631	-0.472
Mof_O 	O 	0.51117	0.07425	0.17204	-0.258
Mof_O 	O 	0.56392	0.80243	0.50679	-0.487
Mof_O 	O 	0.49166	0.73468	0.42598	-0.494
Mof_O 	O 	0.55329	0.7496	0.61225	-0.448
Mof_O 	O 	0.48883	0.66087	0.56308	-0.246
Mof_O 	O 	0.70436	0.19757	0.76149	-0.494
Mof_O 	O 	0.6913	0.26532	0.75698	-0.493
Mof_O 	O 	0.86265	0.2504	0.80369	-0.444
Mof_O 	O 	0.90221	0.33913	0.82796	-0.225
Mof_O 	O 	0.29564	0.05713	0.49321	-0.507
Mof_O 	O 	0.3087	0.06568	0.57402	-0.5
Mof_O 	O 	0.13735	0.94104	0.38775	-0.433
Mof_O 	O 	0.09779	0.92575	0.43692	-0.23
Mof_O 	O 	0.49321	0.29564	0.05713	-0.507
Mof_O 	O 	0.57402	0.3087	0.06568	-0.5
Mof_O 	O 	0.38775	0.13735	0.94104	-0.433
Mof_O 	O 	0.43692	0.09779	0.92575	-0.23
Mof_O 	O 	0.76149	0.70436	0.19757	-0.494
Mof_O 	O 	0.75698	0.6913	0.26532	-0.493
Mof_O 	O 	0.80369	0.86265	0.2504	-0.444
Mof_O 	O 	0.82796	0.90221	0.33913	-0.225
Mof_O 	O 	0.50679	0.56392	0.80243	-0.487
Mof_O 	O 	0.42598	0.49166	0.73468	-0.494
Mof_O 	O 	0.61225	0.55329	0.7496	-0.448
Mof_O 	O 	0.56308	0.48883	0.66087	-0.246
Mof_O 	O 	0.23851	0.43608	0.94287	-0.473
Mof_O 	O 	0.24302	0.50834	0.93432	-0.475
Mof_O 	O 	0.19631	0.44671	0.05896	-0.472
Mof_O 	O 	0.17204	0.51117	0.07425	-0.258
Mof_O 	O 	0.23851	0.80243	0.29564	-0.49
Mof_O 	O 	0.24302	0.73468	0.3087	-0.494
Mof_O 	O 	0.19631	0.7496	0.13735	-0.454
Mof_O 	O 	0.17204	0.66087	0.09779	-0.253
Mof_O 	O 	0.50679	0.94287	0.70436	-0.471
Mof_O 	O 	0.42598	0.93432	0.6913	-0.475
Mof_O 	O 	0.61225	0.05896	0.86265	-0.459
Mof_O 	O 	0.56308	0.07425	0.90221	-0.238
Mof_O 	O 	0.76149	0.05713	0.56392	-0.505
Mof_O 	O 	0.75698	0.06568	0.49166	-0.499
Mof_O 	O 	0.80369	0.94104	0.55329	-0.427
Mof_O 	O 	0.82796	0.92575	0.48883	-0.223
Mof_O 	O 	0.49321	0.19757	0.43608	-0.496
Mof_O 	O 	0.57402	0.26532	0.50834	-0.494
Mof_O 	O 	0.38775	0.2504	0.44671	-0.458
Mof_O 	O 	0.43692	0.33913	0.51117	-0.247
Mof_O 	O 	0.05713	0.56392	0.76149	-0.505
Mof_O 	O 	0.06568	0.49166	0.75698	-0.499
Mof_O 	O 	0.94104	0.55329	0.80369	-0.427
Mof_O 	O 	0.92575	0.48883	0.82796	-0.223
Mof_O 	O 	0.19757	0.43608	0.49321	-0.496
Mof_O 	O 	0.26532	0.50834	0.57402	-0.494
Mof_O 	O 	0.2504	0.44671	0.38775	-0.458
Mof_O 	O 	0.33913	0.51117	0.43692	-0.247
Mof_O 	O 	0.80243	0.29564	0.23851	-0.49
Mof_O 	O 	0.73468	0.3087	0.24302	-0.494
Mof_O 	O 	0.7496	0.13735	0.19631	-0.454
Mof_O 	O 	0.66087	0.09779	0.17204	-0.253
Mof_O 	O 	0.94287	0.70436	0.50679	-0.471
Mof_O 	O 	0.93432	0.6913	0.42598	-0.475
Mof_O 	O 	0.05896	0.86265	0.61225	-0.459
Mof_O 	O 	0.07425	0.90221	0.56308	-0.238
Mof_O 	O 	0.70436	0.50679	0.94287	-0.471
Mof_O 	O 	0.6913	0.42598	0.93432	-0.475
Mof_O 	O 	0.86265	0.61225	0.05896	-0.459
Mof_O 	O 	0.90221	0.56308	0.07425	-0.238
Mof_O 	O 	0.29564	0.23851	0.80243	-0.49
Mof_O 	O 	0.3087	0.24302	0.73468	-0.494
Mof_O 	O 	0.13735	0.19631	0.7496	-0.454
Mof_O 	O 	0.09779	0.17204	0.66087	-0.253
Mof_O 	O 	0.43608	0.49321	0.19757	-0.496
Mof_O 	O 	0.50834	0.57402	0.26532	-0.494
Mof_O 	O 	0.44671	0.38775	0.2504	-0.458
Mof_O 	O 	0.51117	0.43692	0.33913	-0.247
Mof_O 	O 	0.56392	0.76149	0.05713	-0.505
Mof_O 	O 	0.49166	0.75698	0.06568	-0.499
Mof_O 	O 	0.55329	0.80369	0.94104	-0.427
Mof_O 	O 	0.48883	0.82796	0.92575	-0.223
Mof_O 	O 	0.689	0.1928	0.1928	-0.532
Mof_O 	O 	0.65702	0.28931	0.28931	-0.447
Mof_O 	O 	-0	0.4962	0.8072	-0.556
Mof_O 	O 	-0	0.36771	0.71069	-0.486
Mof_O 	O 	2.08641e-17	0.8072	0.4962	-0.556
Mof_O 	O 	1.0432e-17	0.71069	0.36771	-0.486
Mof_O 	O 	0.311	0.5038	0.5038	-0.53
Mof_O 	O 	0.34298	0.63229	0.63229	-0.448
Mof_O 	O 	0.4962	0	0.8072	-0.556
Mof_O 	O 	0.36771	0	0.71069	-0.486
Mof_O 	O 	0.5038	0.311	0.5038	-0.53
Mof_O 	O 	0.63229	0.34298	0.63229	-0.448
Mof_O 	O 	0.1928	0.689	0.1928	-0.532
Mof_O 	O 	0.28931	0.65702	0.28931	-0.447
Mof_O 	O 	0.8072	0	0.4962	-0.556
Mof_O 	O 	0.71069	2.08641e-17	0.36771	-0.486
Mof_O 	O 	0.4962	0.8072	-0	-0.556
Mof_O 	O 	0.36771	0.71069	-0	-0.486
Mof_O 	O 	0.1928	0.1928	0.689	-0.532
Mof_O 	O 	0.28931	0.28931	0.65702	-0.447
Mof_O 	O 	0.5038	0.5038	0.311	-0.53
Mof_O 	O 	0.63229	0.63229	0.34298	-0.448
Mof_O 	O 	0.8072	0.4962	-0	-0.556
Mof_O 	O 	0.71069	0.36771	-0	-0.486
Mof_O 	O 	0.8072	0.311	0.8072	-0.526
Mof_O 	O 	0.71069	0.34298	0.71069	-0.446
Mof_O 	O 	0.5038	0	0.1928	-0.559
Mof_O 	O 	0.63229	0	0.28931	-0.486
Mof_O 	O 	0.1928	0	0.5038	-0.559
Mof_O 	O 	0.28931	-4.17282e-17	0.63229	-0.486
Mof_O 	O 	0.4962	0.689	0.4962	-0.529
Mof_O 	O 	0.36771	0.65702	0.36771	-0.447
Mof_O 	O 	1.0432e-17	0.5038	0.1928	-0.559
Mof_O 	O 	-2.08641e-17	0.63229	0.28931	-0.486
Mof_O 	O 	0.689	0.4962	0.4962	-0.529
Mof_O 	O 	0.65702	0.36771	0.36771	-0.447
Mof_O 	O 	0.311	0.8072	0.8072	-0.526
Mof_O 	O 	0.34298	0.71069	0.71069	-0.446
Mof_O 	O 	3.12961e-17	0.1928	0.5038	-0.559
Mof_O 	O 	-4.17282e-17	0.28931	0.63229	-0.486
Mof_O 	O 	0.1928	0.5038	-0	-0.559
Mof_O 	O 	0.28931	0.63229	-0	-0.486
Mof_O 	O 	0.8072	0.8072	0.311	-0.526
Mof_O 	O 	0.71069	0.71069	0.34298	-0.446
Mof_O 	O 	0.4962	0.4962	0.689	-0.529
Mof_O 	O 	0.36771	0.36771	0.65702	-0.447
Mof_O 	O 	0.5038	0.1928	-0	-0.559
Mof_O 	O 	0.63229	0.28931	-0	-0.486
_end
