data_functionalizedCrystal
_audit_creation_method	'EQeq! by Chris Wilmer'
_symmetry_space_group_name_H-M	'P1'
_symmetry_Int_Tables_number	1
_symmetry_cell_setting	triclinic
loop_
_symmetry_equiv_pos_as_xyz
  x,y,z
_cell_length_a	8.9021
_cell_length_b	10.2151
_cell_length_c	10.2151
_cell_angle_alpha	120
_cell_angle_beta	90
_cell_angle_gamma	90
loop_
_atom_site_label
_atom_site_type_symbol
_atom_site_fract_x
_atom_site_fract_y
_atom_site_fract_z
_atom_site_charge
Mof_Nd	Nd	0.94886	0.33333	0.66666	2.81
Mof_Nd	Nd	0.05114	0.66667	0.33334	2.81
Mof_H 	H 	0.5629	0.4813	0.1168	0.054
Mof_H 	H 	0.722	0.6314	0.0602	0.079
Mof_H 	H 	0.5629	0.6355	0.5187	0.054
Mof_H 	H 	0.722	0.4288	0.3686	0.077
Mof_H 	H 	0.5629	0.8832	0.3645	0.054
Mof_H 	H 	0.722	0.9398	0.5712	0.079
Mof_H 	H 	0.4371	0.5187	0.8832	0.054
Mof_H 	H 	0.278	0.3686	0.9398	0.079
Mof_H 	H 	0.4371	0.3645	0.4813	0.054
Mof_H 	H 	0.278	0.5712	0.6314	0.077
Mof_H 	H 	0.4371	0.1168	0.6355	0.054
Mof_H 	H 	0.278	0.0602	0.4288	0.079
Mof_C 	C 	0.845	0.4457	0.0253	0.454
Mof_C 	C 	0.5674	0.4624	0.0129	0.067
Mof_C 	C 	0.7168	0.5218	0.9916	-0.073
Mof_C 	C 	0.845	0.5796	0.5543	0.449
Mof_C 	C 	0.5674	0.5505	0.5376	0.066
Mof_C 	C 	0.7168	0.4698	0.4782	-0.067
Mof_C 	C 	0.845	0.9747	0.4204	0.453
Mof_C 	C 	0.5674	0.9871	0.4495	0.067
Mof_C 	C 	0.7168	0.0084	0.5302	-0.073
Mof_C 	C 	0.155	0.5543	0.9747	0.454
Mof_C 	C 	0.4326	0.5376	0.9871	0.067
Mof_C 	C 	0.2832	0.4782	0.0084	-0.073
Mof_C 	C 	0.155	0.4204	0.4457	0.449
Mof_C 	C 	0.4326	0.4495	0.4624	0.066
Mof_C 	C 	0.2832	0.5302	0.5218	-0.067
Mof_C 	C 	0.155	0.0253	0.5796	0.453
Mof_C 	C 	0.4326	0.0129	0.5505	0.067
Mof_C 	C 	0.2832	0.9916	0.4698	-0.073
Mof_O 	O 	0.5592	0.3026	0.9122	-0.138
Mof_O 	O 	0.9236	0.35	0.916	-0.518
Mof_O 	O 	0.8646	0.4825	0.1609	-0.528
Mof_O 	O 	0.7367	0.4888	0.8384	-0.335
Mof_O 	O 	0.5592	0.6096	0.6974	-0.137
Mof_O 	O 	0.9236	0.566	0.65	-0.515
Mof_O 	O 	0.8646	0.6784	0.5175	-0.527
Mof_O 	O 	0.7367	0.3496	0.5112	-0.335
Mof_O 	O 	0.5592	0.0878	0.3904	-0.137
Mof_O 	O 	0.9236	0.084	0.434	-0.517
Mof_O 	O 	0.8646	0.8391	0.3216	-0.528
Mof_O 	O 	0.7367	0.1616	0.6504	-0.335
Mof_O 	O 	0.4408	0.6974	0.0878	-0.138
Mof_O 	O 	0.0764	0.65	0.084	-0.518
Mof_O 	O 	0.1354	0.5175	0.8391	-0.528
Mof_O 	O 	0.2633	0.5112	0.1616	-0.335
Mof_O 	O 	0.4408	0.3904	0.3026	-0.137
Mof_O 	O 	0.0764	0.434	0.35	-0.515
Mof_O 	O 	0.1354	0.3216	0.4825	-0.527
Mof_O 	O 	0.2633	0.6504	0.4888	-0.335
Mof_O 	O 	0.4408	0.9122	0.6096	-0.137
Mof_O 	O 	0.0764	0.916	0.566	-0.517
Mof_O 	O 	0.1354	0.1609	0.6784	-0.528
Mof_O 	O 	0.2633	0.8384	0.3496	-0.335
_end
