data_functionalizedCrystal
_audit_creation_method	'EQeq! by Chris Wilmer'
_symmetry_space_group_name_H-M	'P1'
_symmetry_Int_Tables_number	1
_symmetry_cell_setting	triclinic
loop_
_symmetry_equiv_pos_as_xyz
  x,y,z
_cell_length_a	11.0355
_cell_length_b	15.693
_cell_length_c	16.914
_cell_angle_alpha	90
_cell_angle_beta	90
_cell_angle_gamma	90
loop_
_atom_site_label
_atom_site_type_symbol
_atom_site_fract_x
_atom_site_fract_y
_atom_site_fract_z
_atom_site_charge
Mof_Zn	Zn	0.5	0.8354	0.2823	1.144
Mof_Zn	Zn	0.5	0.1646	0.7177	1.144
Mof_Zn	Zn	-1.27404e-32	0.6646	0.7823	1.133
Mof_Zn	Zn	5.56005e-33	0.3354	0.2177	1.133
Mof_W 	W 	0.62122	0.44993	0.06359	0.291
Mof_W 	W 	0.62122	0.55007	0.93641	0.291
Mof_W 	W 	0.87878	0.05007	0.56359	0.364
Mof_W 	W 	0.87878	0.94993	0.43641	0.364
Mof_W 	W 	0.37878	0.55007	0.93641	0.29
Mof_W 	W 	0.37878	0.44993	0.06359	0.29
Mof_W 	W 	0.12122	0.94993	0.43641	0.286
Mof_W 	W 	0.12122	0.05007	0.56359	0.286
Mof_W 	W 	0.5	0.59732	0.06608	0.31
Mof_W 	W 	0.5	0.40268	0.93392	0.31
Mof_W 	W 	-5.36492e-33	0.90268	0.56608	0.262
Mof_W 	W 	-1.47424e-32	0.09732	0.43392	0.262
Mof_C 	C 	0.769	0.3973	0.1316	-0.008
Mof_C 	C 	0.769	0.6027	0.8684	-0.008
Mof_C 	C 	0.731	0.1027	0.6316	-0.013
Mof_C 	C 	0.731	0.8973	0.3684	-0.013
Mof_C 	C 	0.231	0.6027	0.8684	-0.024
Mof_C 	C 	0.231	0.3973	0.1316	-0.024
Mof_C 	C 	0.269	0.8973	0.3684	-0.018
Mof_C 	C 	0.269	0.1027	0.6316	-0.018
Mof_C 	C 	0.5	0.7	0.14	-0.05
Mof_C 	C 	0.5	0.3	0.86	-0.05
Mof_C 	C 	-1.35581e-32	0.8	0.64	-0.058
Mof_C 	C 	-1.08582e-32	0.2	0.36	-0.058
Mof_S 	S 	0.7217	0.5905	0.0612	-0.234
Mof_S 	S 	0.7217	0.4095	0.9388	-0.234
Mof_S 	S 	0.7783	0.9095	0.5612	-0.231
Mof_S 	S 	0.7783	0.0905	0.4388	-0.231
Mof_S 	S 	0.2783	0.4095	0.9388	-0.263
Mof_S 	S 	0.2783	0.5905	0.0612	-0.263
Mof_S 	S 	0.2217	0.0905	0.4388	-0.244
Mof_S 	S 	0.2217	0.9095	0.5612	-0.244
Mof_S 	S 	0.5	0.681	0.9429	-0.247
Mof_S 	S 	0.5	0.4973	0.1769	-0.251
Mof_S 	S 	0.5	0.319	0.0571	-0.247
Mof_S 	S 	0.5	0.5027	0.8231	-0.251
Mof_S 	S 	-2.33088e-32	0.819	0.4429	-0.287
Mof_S 	S 	-4.72807e-33	0.0027	0.6769	-0.291
Mof_S 	S 	-1.40345e-32	0.181	0.5571	-0.287
Mof_S 	S 	-2.83062e-32	0.9973	0.3231	-0.291
Mof_N 	N 	0.8462	0.3721	0.1717	-0.297
Mof_N 	N 	0.8462	0.6279	0.8283	-0.297
Mof_N 	N 	0.6538	0.1279	0.6717	-0.31
Mof_N 	N 	0.6538	0.8721	0.3283	-0.31
Mof_N 	N 	0.1538	0.6279	0.8283	-0.32
Mof_N 	N 	0.1538	0.3721	0.1717	-0.32
Mof_N 	N 	0.3462	0.8721	0.3283	-0.315
Mof_N 	N 	0.3462	0.1279	0.6717	-0.315
Mof_N 	N 	0.5	0.758	0.192	-0.304
Mof_N 	N 	0.5	0.242	0.808	-0.304
Mof_N 	N 	-4.6413e-33	0.742	0.692	-0.315
Mof_N 	N 	-1.1157e-32	0.258	0.308	-0.315
_end
