data_functionalizedCrystal
_audit_creation_method	'EQeq! by Chris Wilmer'
_symmetry_space_group_name_H-M	'P1'
_symmetry_Int_Tables_number	1
_symmetry_cell_setting	triclinic
loop_
_symmetry_equiv_pos_as_xyz
  x,y,z
_cell_length_a	22.538
_cell_length_b	7.044
_cell_length_c	13.772
_cell_angle_alpha	90
_cell_angle_beta	90
_cell_angle_gamma	90
loop_
_atom_site_label
_atom_site_type_symbol
_atom_site_fract_x
_atom_site_fract_y
_atom_site_fract_z
_atom_site_charge
Mof_N 	N 	0.93758	0.3443	0.9361	-0.16
Mof_H 	H 	0.8783	0.5331	0.8782	0.03
Mof_C 	C 	0.88937	0.4046	0.8887	0
Mof_C 	C 	0.7764	0.4125	0.7773	-0.05
Mof_H 	H 	0.7934	0.5304	0.796	0.051
Mof_N 	N 	0.88937	0.0954	0.8887	-0.155
Mof_N 	N 	0.43758	0.8443	0.4361	-0.204
Mof_H 	H 	0.3783	0.0331	0.3782	-0.036
Mof_C 	C 	0.38937	0.9046	0.3887	0.055
Mof_C 	C 	0.2764	0.9125	0.2773	-0.014
Mof_H 	H 	0.2934	0.0304	0.296	0.001
Mof_N 	N 	0.38937	0.5954	0.3887	-0.136
Mof_N 	N 	0.06242	0.1557	0.9361	-0.177
Mof_H 	H 	0.1217	0.9669	0.8782	0.063
Mof_C 	C 	0.11063	0.0954	0.8887	-0.071
Mof_C 	C 	0.2236	0.0875	0.7773	-0.087
Mof_H 	H 	0.2066	0.9696	0.796	0.078
Mof_N 	N 	0.11063	0.4046	0.8887	-0.138
Mof_N 	N 	0.56242	0.6557	0.4361	-0.201
Mof_H 	H 	0.6217	0.4669	0.3782	0.01
Mof_C 	C 	0.61063	0.5954	0.3887	-0.019
Mof_C 	C 	0.7236	0.5875	0.2773	-0.051
Mof_H 	H 	0.7066	0.4696	0.296	0.036
Mof_N 	N 	0.61063	0.9046	0.3887	-0.115
Mof_N 	N 	0.06242	0.8443	0.0639	-0.223
Mof_H 	H 	0.1217	0.0331	0.1218	-0.048
Mof_C 	C 	0.11063	0.9046	0.1113	0.047
Mof_C 	C 	0.2236	0.9125	0.2227	-0.009
Mof_H 	H 	0.2066	0.0304	0.204	-0.005
Mof_N 	N 	0.11063	0.5954	0.1113	-0.141
Mof_N 	N 	0.56242	0.3443	0.5639	-0.2
Mof_H 	H 	0.6217	0.5331	0.6218	0.016
Mof_C 	C 	0.61063	0.4046	0.6113	-0.01
Mof_C 	C 	0.7236	0.4125	0.7227	-0.047
Mof_H 	H 	0.7066	0.5304	0.704	0.046
Mof_N 	N 	0.61063	0.0954	0.6113	-0.161
Mof_N 	N 	0.93758	0.6557	0.0639	-0.193
Mof_H 	H 	0.8783	0.4669	0.1218	0.008
Mof_C 	C 	0.88937	0.5954	0.1113	-0.025
Mof_C 	C 	0.7764	0.5875	0.2227	-0.047
Mof_H 	H 	0.7934	0.4696	0.204	0.033
Mof_N 	N 	0.88937	0.9046	0.1113	-0.116
Mof_N 	N 	0.43758	0.1557	0.5639	-0.194
Mof_H 	H 	0.3783	0.9669	0.6218	0.058
Mof_C 	C 	0.38937	0.0954	0.6113	-0.081
Mof_C 	C 	0.2764	0.0875	0.7227	-0.086
Mof_H 	H 	0.2934	0.9696	0.704	0.076
Mof_N 	N 	0.38937	0.4046	0.6113	-0.141
Mof_N 	N 	0.06242	0.6557	0.0639	-0.196
Mof_H 	H 	0.1217	0.4669	0.1218	0.051
Mof_C 	C 	0.2236	0.5875	0.2227	-0.051
Mof_H 	H 	0.2066	0.4696	0.204	0.032
Mof_N 	N 	0.56242	0.1557	0.5639	-0.176
Mof_H 	H 	0.6217	0.9669	0.6218	0.098
Mof_C 	C 	0.7236	0.0875	0.7227	-0.086
Mof_H 	H 	0.7066	0.9696	0.704	0.079
Mof_N 	N 	0.93758	0.8443	0.0639	-0.16
Mof_H 	H 	0.8783	0.0331	0.1218	0.036
Mof_C 	C 	0.7764	0.9125	0.2227	-0.002
Mof_H 	H 	0.7934	0.0304	0.204	-0.002
Mof_N 	N 	0.43758	0.3443	0.5639	-0.173
Mof_H 	H 	0.3783	0.5331	0.6218	0.074
Mof_C 	C 	0.2764	0.4125	0.7227	-0.044
Mof_H 	H 	0.2934	0.5304	0.704	0.044
Mof_N 	N 	0.93758	0.1557	0.9361	-0.133
Mof_H 	H 	0.8783	0.9669	0.8782	0.114
Mof_C 	C 	0.7764	0.0875	0.7773	-0.086
Mof_H 	H 	0.7934	0.9696	0.796	0.082
Mof_N 	N 	0.43758	0.6557	0.4361	-0.174
Mof_H 	H 	0.3783	0.4669	0.3782	0.064
Mof_C 	C 	0.2764	0.5875	0.2773	-0.055
Mof_H 	H 	0.2934	0.4696	0.296	0.037
Mof_N 	N 	0.06242	0.3443	0.9361	-0.155
Mof_H 	H 	0.1217	0.5331	0.8782	0.083
Mof_C 	C 	0.2236	0.4125	0.7773	-0.047
Mof_H 	H 	0.2066	0.5304	0.796	0.047
Mof_N 	N 	0.56242	0.8443	0.4361	-0.167
Mof_H 	H 	0.6217	0.0331	0.3782	0.04
Mof_C 	C 	0.7236	0.9125	0.2773	-0.006
Mof_H 	H 	0.7066	0.0304	0.296	0.001
Mof_Cu	Cu	1.44321e-33	0.5	-0	0.767
Mof_Cu	Cu	0.5	0	0.5	0.814
Mof_Cu	Cu	-0	0	-0	0.75
Mof_Cu	Cu	0.5	0.5	0.5	0.83
Mof_C 	C 	0.8035	0.25	0.8038	0.019
Mof_C 	C 	0.8593	0.25	0.8584	0.056
Mof_C 	C 	0.3035	0.75	0.3038	-0.004
Mof_C 	C 	0.3593	0.75	0.3584	0.029
Mof_C 	C 	0.1965	0.25	0.8038	0.007
Mof_C 	C 	0.1407	0.25	0.8584	0.071
Mof_C 	C 	0.6965	0.75	0.3038	-0.013
Mof_C 	C 	0.6407	0.75	0.3584	0.055
Mof_C 	C 	0.1965	0.75	0.1962	-0.011
Mof_C 	C 	0.1407	0.75	0.1416	0.022
Mof_C 	C 	0.6965	0.25	0.6962	0.013
Mof_C 	C 	0.6407	0.25	0.6416	0.048
Mof_C 	C 	0.8035	0.75	0.1962	-0.018
Mof_C 	C 	0.8593	0.75	0.1416	0.056
Mof_C 	C 	0.3035	0.25	0.6962	0.003
Mof_C 	C 	0.3593	0.25	0.6416	0.07
_end
