# CIF file generated by openbabel 3.1.0, see https://openbabel.org
data_I
_chemical_name_common 'image0'
_cell_length_a 22.65
_cell_length_b 16.34
_cell_length_c 12.57
_cell_angle_alpha 90
_cell_angle_beta 118.6
_cell_angle_gamma 90
_space_group_name_H-M_alt 'P 1'
_space_group_name_Hall 'P 1'
loop_
    _symmetry_equiv_pos_as_xyz
    x,y,z
loop_
    _atom_site_label
    _atom_site_type_symbol
    _atom_site_fract_x
    _atom_site_fract_y
    _atom_site_fract_z
    _atom_site_occupancy
    S1       S        0.07841    0.97053    0.14012    1.000
    S2       S        0.96442    0.35970    0.51420    1.000
    S3       S        0.20098    0.44765    0.23310    1.000
    O1       O        0.97490    0.58420    0.63520    1.000
    N1       N        0.18960    0.15890    0.03590    1.000
    N2       N        0.15910    0.28930    0.84180    1.000
    N3       N        0.23380    0.33800    0.10360    1.000
    C1       C        0.15540    0.18120    0.09150    1.000
    H1       H        0.15560    0.23750    0.11030    1.000
    C2       C        0.12000    0.12920    0.12390    1.000
    H2       H        0.09650    0.14950    0.16390    1.000
    C3       C        0.18260    0.08080    0.00070    1.000
    H3       H        0.20240    0.06390    0.95270    1.000
    C4       C        0.14820    0.02340    0.03000    1.000
    H4       H        0.14520    0.96840    0.00320    1.000
    C5       C        0.11820    0.04620    0.09840    1.000
    C6       C        0.03560    0.03280    0.19960    1.000
    H5       H        0.06850    0.06860    0.26430    1.000
    H6       H        0.00250    0.06820    0.13440    1.000
    C7       C        0.11460    0.23860    0.77140    1.000
    H7       H        0.12320    0.18210    0.78980    1.000
    C8       C        0.05570    0.25920    0.67200    1.000
    H8       H        0.02520    0.21740    0.62490    1.000
    C9       C        0.14330    0.36330    0.81970    1.000
    H9       H        0.17250    0.40280    0.87550    1.000
    C10      C        0.08770    0.39020    0.72170    1.000
    H10      H        0.07970    0.44710    0.70630    1.000
    C11      C        0.04150    0.33220    0.64210    1.000
    C12      C        0.98110    0.46740    0.48740    1.000
    C13      C        0.93620    0.45300    0.56020    1.000
    C14      C        0.97750    0.52460    0.57070    1.000
    C15      C        0.21870    0.38290    0.15570    1.000
    S4       S        0.57841    0.47053    0.14012    1.000
    S5       S        0.46442    0.85970    0.51420    1.000
    S6       S        0.70098    0.94765    0.23310    1.000
    O2       O        0.47490    0.08420    0.63520    1.000
    N4       N        0.68960    0.65890    0.03590    1.000
    N5       N        0.65910    0.78930    0.84180    1.000
    N6       N        0.73380    0.83800    0.10360    1.000
    C16      C        0.65540    0.68120    0.09150    1.000
    H11      H        0.65560    0.73750    0.11030    1.000
    C17      C        0.62000    0.62920    0.12390    1.000
    H12      H        0.59650    0.64950    0.16390    1.000
    C18      C        0.68260    0.58080    0.00070    1.000
    H13      H        0.70240    0.56390    0.95270    1.000
    C19      C        0.64820    0.52340    0.03000    1.000
    H14      H        0.64520    0.46840    0.00320    1.000
    C20      C        0.61820    0.54620    0.09840    1.000
    C21      C        0.53560    0.53280    0.19960    1.000
    H15      H        0.56850    0.56860    0.26430    1.000
    H16      H        0.50250    0.56820    0.13440    1.000
    C22      C        0.61460    0.73860    0.77140    1.000
    H17      H        0.62320    0.68210    0.78980    1.000
    C23      C        0.55570    0.75920    0.67200    1.000
    H18      H        0.52520    0.71740    0.62490    1.000
    C24      C        0.64330    0.86330    0.81970    1.000
    H19      H        0.67250    0.90280    0.87550    1.000
    C25      C        0.58770    0.89020    0.72170    1.000
    H20      H        0.57970    0.94710    0.70630    1.000
    C26      C        0.54150    0.83220    0.64210    1.000
    C27      C        0.48110    0.96740    0.48740    1.000
    C28      C        0.43620    0.95300    0.56020    1.000
    C29      C        0.47750    0.02460    0.57070    1.000
    C30      C        0.71870    0.88290    0.15570    1.000
    S7       S        0.92159    0.97053    0.35988    1.000
    S8       S        0.03558    0.35970    0.98580    1.000
    S9       S        0.79902    0.44765    0.26690    1.000
    O3       O        0.02510    0.58420    0.86480    1.000
    N7       N        0.81040    0.15890    0.46410    1.000
    N8       N        0.84090    0.28930    0.65820    1.000
    N9       N        0.76620    0.33800    0.39640    1.000
    C31      C        0.84460    0.18120    0.40850    1.000
    H21      H        0.84440    0.23750    0.38970    1.000
    C32      C        0.88000    0.12920    0.37610    1.000
    H22      H        0.90350    0.14950    0.33610    1.000
    C33      C        0.81740    0.08080    0.49930    1.000
    H23      H        0.79760    0.06390    0.54730    1.000
    C34      C        0.85180    0.02340    0.47000    1.000
    H24      H        0.85480    0.96840    0.49680    1.000
    C35      C        0.88180    0.04620    0.40160    1.000
    C36      C        0.96440    0.03280    0.30040    1.000
    H25      H        0.93150    0.06860    0.23570    1.000
    H26      H        0.99750    0.06820    0.36560    1.000
    C37      C        0.88540    0.23860    0.72860    1.000
    H27      H        0.87680    0.18210    0.71020    1.000
    C38      C        0.94430    0.25920    0.82800    1.000
    H28      H        0.97480    0.21740    0.87510    1.000
    C39      C        0.85670    0.36330    0.68030    1.000
    H29      H        0.82750    0.40280    0.62450    1.000
    C40      C        0.91230    0.39020    0.77830    1.000
    H30      H        0.92030    0.44710    0.79370    1.000
    C41      C        0.95850    0.33220    0.85790    1.000
    C42      C        0.01890    0.46740    0.01260    1.000
    C43      C        0.06380    0.45300    0.93980    1.000
    C44      C        0.02250    0.52460    0.92930    1.000
    C45      C        0.78130    0.38290    0.34430    1.000
    S10      S        0.42159    0.47053    0.35988    1.000
    S11      S        0.53558    0.85970    0.98580    1.000
    S12      S        0.29902    0.94765    0.26690    1.000
    O4       O        0.52510    0.08420    0.86480    1.000
    N10      N        0.31040    0.65890    0.46410    1.000
    N11      N        0.34090    0.78930    0.65820    1.000
    N12      N        0.26620    0.83800    0.39640    1.000
    C46      C        0.34460    0.68120    0.40850    1.000
    H31      H        0.34440    0.73750    0.38970    1.000
    C47      C        0.38000    0.62920    0.37610    1.000
    H32      H        0.40350    0.64950    0.33610    1.000
    C48      C        0.31740    0.58080    0.49930    1.000
    H33      H        0.29760    0.56390    0.54730    1.000
    C49      C        0.35180    0.52340    0.47000    1.000
    H34      H        0.35480    0.46840    0.49680    1.000
    C50      C        0.38180    0.54620    0.40160    1.000
    C51      C        0.46440    0.53280    0.30040    1.000
    H35      H        0.43150    0.56860    0.23570    1.000
    H36      H        0.49750    0.56820    0.36560    1.000
    C52      C        0.38540    0.73860    0.72860    1.000
    H37      H        0.37680    0.68210    0.71020    1.000
    C53      C        0.44430    0.75920    0.82800    1.000
    H38      H        0.47480    0.71740    0.87510    1.000
    C54      C        0.35670    0.86330    0.68030    1.000
    H39      H        0.32750    0.90280    0.62450    1.000
    C55      C        0.41230    0.89020    0.77830    1.000
    H40      H        0.42030    0.94710    0.79370    1.000
    C56      C        0.45850    0.83220    0.85790    1.000
    C57      C        0.51890    0.96740    0.01260    1.000
    C58      C        0.56380    0.95300    0.93980    1.000
    C59      C        0.52250    0.02460    0.92930    1.000
    C60      C        0.28130    0.88290    0.34430    1.000
    S13      S        0.92159    0.02947    0.85988    1.000
    S14      S        0.03558    0.64030    0.48580    1.000
    S15      S        0.79902    0.55235    0.76690    1.000
    O5       O        0.02510    0.41580    0.36480    1.000
    N13      N        0.81040    0.84110    0.96410    1.000
    N14      N        0.84090    0.71070    0.15820    1.000
    N15      N        0.76620    0.66200    0.89640    1.000
    C61      C        0.84460    0.81880    0.90850    1.000
    H41      H        0.84440    0.76250    0.88970    1.000
    C62      C        0.88000    0.87080    0.87610    1.000
    H42      H        0.90350    0.85050    0.83610    1.000
    C63      C        0.81740    0.91920    0.99930    1.000
    H43      H        0.79760    0.93610    0.04730    1.000
    C64      C        0.85180    0.97660    0.97000    1.000
    H44      H        0.85480    0.03160    0.99680    1.000
    C65      C        0.88180    0.95380    0.90160    1.000
    C66      C        0.96440    0.96720    0.80040    1.000
    H45      H        0.93150    0.93140    0.73570    1.000
    H46      H        0.99750    0.93180    0.86560    1.000
    C67      C        0.88540    0.76140    0.22860    1.000
    H47      H        0.87680    0.81790    0.21020    1.000
    C68      C        0.94430    0.74080    0.32800    1.000
    H48      H        0.97480    0.78260    0.37510    1.000
    C69      C        0.85670    0.63670    0.18030    1.000
    H49      H        0.82750    0.59720    0.12450    1.000
    C70      C        0.91230    0.60980    0.27830    1.000
    H50      H        0.92030    0.55290    0.29370    1.000
    C71      C        0.95850    0.66780    0.35790    1.000
    C72      C        0.01890    0.53260    0.51260    1.000
    C73      C        0.06380    0.54700    0.43980    1.000
    C74      C        0.02250    0.47540    0.42930    1.000
    C75      C        0.78130    0.61710    0.84430    1.000
    S16      S        0.42159    0.52947    0.85988    1.000
    S17      S        0.53558    0.14030    0.48580    1.000
    S18      S        0.29902    0.05235    0.76690    1.000
    O6       O        0.52510    0.91580    0.36480    1.000
    N16      N        0.31040    0.34110    0.96410    1.000
    N17      N        0.34090    0.21070    0.15820    1.000
    N18      N        0.26620    0.16200    0.89640    1.000
    C76      C        0.34460    0.31880    0.90850    1.000
    H51      H        0.34440    0.26250    0.88970    1.000
    C77      C        0.38000    0.37080    0.87610    1.000
    H52      H        0.40350    0.35050    0.83610    1.000
    C78      C        0.31740    0.41920    0.99930    1.000
    H53      H        0.29760    0.43610    0.04730    1.000
    C79      C        0.35180    0.47660    0.97000    1.000
    H54      H        0.35480    0.53160    0.99680    1.000
    C80      C        0.38180    0.45380    0.90160    1.000
    C81      C        0.46440    0.46720    0.80040    1.000
    H55      H        0.43150    0.43140    0.73570    1.000
    H56      H        0.49750    0.43180    0.86560    1.000
    C82      C        0.38540    0.26140    0.22860    1.000
    H57      H        0.37680    0.31790    0.21020    1.000
    C83      C        0.44430    0.24080    0.32800    1.000
    H58      H        0.47480    0.28260    0.37510    1.000
    C84      C        0.35670    0.13670    0.18030    1.000
    H59      H        0.32750    0.09720    0.12450    1.000
    C85      C        0.41230    0.10980    0.27830    1.000
    H60      H        0.42030    0.05290    0.29370    1.000
    C86      C        0.45850    0.16780    0.35790    1.000
    C87      C        0.51890    0.03260    0.51260    1.000
    C88      C        0.56380    0.04700    0.43980    1.000
    C89      C        0.52250    0.97540    0.42930    1.000
    C90      C        0.28130    0.11710    0.84430    1.000
    S19      S        0.07841    0.02947    0.64012    1.000
    S20      S        0.96442    0.64030    0.01420    1.000
    S21      S        0.20098    0.55235    0.73310    1.000
    O7       O        0.97490    0.41580    0.13520    1.000
    N19      N        0.18960    0.84110    0.53590    1.000
    N20      N        0.15910    0.71070    0.34180    1.000
    N21      N        0.23380    0.66200    0.60360    1.000
    C91      C        0.15540    0.81880    0.59150    1.000
    H61      H        0.15560    0.76250    0.61030    1.000
    C92      C        0.12000    0.87080    0.62390    1.000
    H62      H        0.09650    0.85050    0.66390    1.000
    C93      C        0.18260    0.91920    0.50070    1.000
    H63      H        0.20240    0.93610    0.45270    1.000
    C94      C        0.14820    0.97660    0.53000    1.000
    H64      H        0.14520    0.03160    0.50320    1.000
    C95      C        0.11820    0.95380    0.59840    1.000
    C96      C        0.03560    0.96720    0.69960    1.000
    H65      H        0.06850    0.93140    0.76430    1.000
    H66      H        0.00250    0.93180    0.63440    1.000
    C97      C        0.11460    0.76140    0.27140    1.000
    H67      H        0.12320    0.81790    0.28980    1.000
    C98      C        0.05570    0.74080    0.17200    1.000
    H68      H        0.02520    0.78260    0.12490    1.000
    C99      C        0.14330    0.63670    0.31970    1.000
    H69      H        0.17250    0.59720    0.37550    1.000
    C100     C        0.08770    0.60980    0.22170    1.000
    H70      H        0.07970    0.55290    0.20630    1.000
    C101     C        0.04150    0.66780    0.14210    1.000
    C102     C        0.98110    0.53260    0.98740    1.000
    C103     C        0.93620    0.54700    0.06020    1.000
    C104     C        0.97750    0.47540    0.07070    1.000
    C105     C        0.21870    0.61710    0.65570    1.000
    S22      S        0.57841    0.52947    0.64012    1.000
    S23      S        0.46442    0.14030    0.01420    1.000
    S24      S        0.70098    0.05235    0.73310    1.000
    O8       O        0.47490    0.91580    0.13520    1.000
    N22      N        0.68960    0.34110    0.53590    1.000
    N23      N        0.65910    0.21070    0.34180    1.000
    N24      N        0.73380    0.16200    0.60360    1.000
    C106     C        0.65540    0.31880    0.59150    1.000
    H71      H        0.65560    0.26250    0.61030    1.000
    C107     C        0.62000    0.37080    0.62390    1.000
    H72      H        0.59650    0.35050    0.66390    1.000
    C108     C        0.68260    0.41920    0.50070    1.000
    H73      H        0.70240    0.43610    0.45270    1.000
    C109     C        0.64820    0.47660    0.53000    1.000
    H74      H        0.64520    0.53160    0.50320    1.000
    C110     C        0.61820    0.45380    0.59840    1.000
    C111     C        0.53560    0.46720    0.69960    1.000
    H75      H        0.56850    0.43140    0.76430    1.000
    H76      H        0.50250    0.43180    0.63440    1.000
    C112     C        0.61460    0.26140    0.27140    1.000
    H77      H        0.62320    0.31790    0.28980    1.000
    C113     C        0.55570    0.24080    0.17200    1.000
    H78      H        0.52520    0.28260    0.12490    1.000
    C114     C        0.64330    0.13670    0.31970    1.000
    H79      H        0.67250    0.09720    0.37550    1.000
    C115     C        0.58770    0.10980    0.22170    1.000
    H80      H        0.57970    0.05290    0.20630    1.000
    C116     C        0.54150    0.16780    0.14210    1.000
    C117     C        0.48110    0.03260    0.98740    1.000
    C118     C        0.43620    0.04700    0.06020    1.000
    C119     C        0.47750    0.97540    0.07070    1.000
    C120     C        0.71870    0.11710    0.65570    1.000
    Co1      Co       0.25000    0.25000    0.00000    1.000
    Co2      Co       0.75000    0.25000    0.50000    1.000
    Co3      Co       0.75000    0.75000    0.00000    1.000
    Co4      Co       0.25000    0.75000    0.50000    1.000
    O9       O        0.00000    0.90770    0.25000    1.000
    C121     C        0.00000    0.98120    0.25000    1.000
    O10      O        0.50000    0.40770    0.25000    1.000
    C122     C        0.50000    0.48120    0.25000    1.000
    O11      O        0.00000    0.09230    0.75000    1.000
    C123     C        0.00000    0.01880    0.75000    1.000
    O12      O        0.50000    0.59230    0.75000    1.000
    C124     C        0.50000    0.51880    0.75000    1.000
