data_functionalizedCrystal
_audit_creation_method	'EQeq! by Chris Wilmer'
_symmetry_space_group_name_H-M	'P1'
_symmetry_Int_Tables_number	1
_symmetry_cell_setting	triclinic
loop_
_symmetry_equiv_pos_as_xyz
  x,y,z
_cell_length_a	10.094
_cell_length_b	12.7697
_cell_length_c	13.0726
_cell_angle_alpha	71.1922
_cell_angle_beta	67.2896
_cell_angle_gamma	66.7195
loop_
_atom_site_label
_atom_site_type_symbol
_atom_site_fract_x
_atom_site_fract_y
_atom_site_fract_z
_atom_site_charge
Mof_Co	Co	0.96678	0.61474	0.8973	1.176
Mof_Co	Co	0.24944	0.16696	0.26546	1.189
Mof_Co	Co	0.47882	0.88526	0.6027	1.184
Mof_Co	Co	0.68186	0.33304	0.23454	1.19
Mof_Co	Co	0.03322	0.38526	0.1027	1.177
Mof_Co	Co	0.75056	0.83304	0.73454	1.19
Mof_Co	Co	0.52118	0.11474	0.3973	1.184
Mof_Co	Co	0.31814	0.66696	0.76546	1.19
Mof_H 	H 	0.8549	0.8895	0.1517	0.058
Mof_H 	H 	0.9982	0.7508	0.0424	0.012
Mof_H 	H 	0.6377	0.7306	0.0184	0.002
Mof_H 	H 	0.4863	0.8713	0.1249	0.064
Mof_H 	H 	0.1462	0.9286	0.7444	-0.031
Mof_H 	H 	0.0235	0.0172	0.6008	0.225
Mof_H 	H 	0.0888	0.0633	0.6613	0.226
Mof_H 	H 	0.8961	0.6105	0.3483	0.059
Mof_H 	H 	0.7914	0.7492	0.4576	0.009
Mof_H 	H 	0.3867	0.7694	0.4816	0.001
Mof_H 	H 	0.4825	0.6287	0.3751	0.065
Mof_H 	H 	0.8192	0.5714	0.7556	-0.032
Mof_H 	H 	0.6415	0.4828	0.8992	0.221
Mof_H 	H 	0.8134	0.4367	0.8387	0.219
Mof_H 	H 	0.1451	0.1105	0.8483	0.058
Mof_H 	H 	0.0018	0.2492	0.9576	0.012
Mof_H 	H 	0.3623	0.2694	0.9816	0.002
Mof_H 	H 	0.5137	0.1287	0.8751	0.064
Mof_H 	H 	0.8538	0.0714	0.2556	-0.031
Mof_H 	H 	0.9765	0.9828	0.3992	0.225
Mof_H 	H 	0.9112	0.9367	0.3387	0.226
Mof_H 	H 	0.1039	0.3895	0.6517	0.059
Mof_H 	H 	0.2086	0.2508	0.5424	0.009
Mof_H 	H 	0.6133	0.2306	0.5184	0.001
Mof_H 	H 	0.5175	0.3713	0.6249	0.065
Mof_H 	H 	0.1808	0.4286	0.2444	-0.032
Mof_H 	H 	0.3585	0.5172	0.1008	0.221
Mof_H 	H 	0.1866	0.5633	0.1613	0.219
Mof_C 	C 	0.5544	0.9868	0.2222	0.369
Mof_C 	C 	0.6542	0.8954	0.1508	-0.046
Mof_C 	C 	0.808	0.8587	0.1249	-0.058
Mof_C 	C 	0.8936	0.7754	0.0584	0.047
Mof_C 	C 	0.683	0.7638	0.044	0.035
Mof_C 	C 	0.5906	0.8477	0.1095	-0.057
Mof_C 	C 	0.0324	0.8391	0.7519	0.264
Mof_C 	C 	0.1545	0.8985	0.6813	0.248
Mof_C 	C 	0.1156	0.008	0.6148	-0.629
Mof_C 	C 	0.2192	0.0473	0.5029	0.536
Mof_C 	C 	0.7634	0.5132	0.2778	0.369
Mof_C 	C 	0.7004	0.6046	0.3492	-0.044
Mof_C 	C 	0.7916	0.6413	0.3751	-0.06
Mof_C 	C 	0.7274	0.7246	0.4416	0.048
Mof_C 	C 	0.4908	0.7362	0.456	0.035
Mof_C 	C 	0.5478	0.6523	0.3905	-0.058
Mof_C 	C 	0.6234	0.6609	0.7481	0.258
Mof_C 	C 	0.7343	0.6015	0.8187	0.244
Mof_C 	C 	0.7384	0.492	0.8852	-0.614
Mof_C 	C 	0.7694	0.4527	0.9971	0.515
Mof_C 	C 	0.4456	0.0132	0.7778	0.369
Mof_C 	C 	0.3458	0.1046	0.8492	-0.046
Mof_C 	C 	0.192	0.1413	0.8751	-0.058
Mof_C 	C 	0.1064	0.2246	0.9416	0.047
Mof_C 	C 	0.317	0.2362	0.956	0.035
Mof_C 	C 	0.4094	0.1523	0.8905	-0.057
Mof_C 	C 	0.9676	0.1609	0.2481	0.264
Mof_C 	C 	0.8455	0.1015	0.3187	0.248
Mof_C 	C 	0.8844	0.992	0.3852	-0.629
Mof_C 	C 	0.7808	0.9527	0.4971	0.536
Mof_C 	C 	0.2366	0.4868	0.7222	0.369
Mof_C 	C 	0.2996	0.3954	0.6508	-0.044
Mof_C 	C 	0.2084	0.3587	0.6249	-0.06
Mof_C 	C 	0.2726	0.2754	0.5584	0.048
Mof_C 	C 	0.5092	0.2638	0.544	0.035
Mof_C 	C 	0.4522	0.3477	0.6095	-0.058
Mof_C 	C 	0.3766	0.3391	0.2519	0.258
Mof_C 	C 	0.2657	0.3985	0.1813	0.244
Mof_C 	C 	0.2616	0.508	0.1148	-0.614
Mof_C 	C 	0.2306	0.5473	0.0029	0.515
Mof_N 	N 	0.834	0.7284	0.016	-0.212
Mof_N 	N 	0.5784	0.7716	0.484	-0.215
Mof_N 	N 	0.166	0.2716	0.984	-0.212
Mof_N 	N 	0.4216	0.2284	0.516	-0.215
Mof_O 	O 	0.6115	0.0071	0.2799	-0.425
Mof_O 	O 	0.4213	0.0321	0.2169	-0.455
Mof_O 	O 	0.08165	0.7343	0.7962	-0.522
Mof_O 	O 	0.897	0.8931	0.7603	-0.409
Mof_O 	O 	0.30129	0.82292	0.6757	-0.54
Mof_O 	O 	0.1586	0.1246	0.433	-0.506
Mof_O 	O 	0.35814	0.02352	0.4972	-0.567
Mof_O 	O 	0.8985	0.4929	0.2201	-0.421
Mof_O 	O 	0.6703	0.4679	0.2831	-0.453
Mof_O 	O 	0.61215	0.7657	0.7038	-0.523
Mof_O 	O 	0.5504	0.6069	0.7397	-0.402
Mof_O 	O 	0.79991	0.67708	0.8243	-0.541
Mof_O 	O 	0.7162	0.3754	0.067	-0.495
Mof_O 	O 	0.87886	0.47648	0.0028	-0.554
Mof_O 	O 	0.3885	0.9929	0.7201	-0.425
Mof_O 	O 	0.5787	0.9679	0.7831	-0.455
Mof_O 	O 	0.91835	0.2657	0.2038	-0.522
Mof_O 	O 	0.103	0.1069	0.2397	-0.409
Mof_O 	O 	0.69871	0.17708	0.3243	-0.54
Mof_O 	O 	0.8414	0.8754	0.567	-0.506
Mof_O 	O 	0.64186	0.97648	0.5028	-0.567
Mof_O 	O 	0.1015	0.5071	0.7799	-0.421
Mof_O 	O 	0.3297	0.5321	0.7169	-0.453
Mof_O 	O 	0.38785	0.2343	0.2962	-0.523
Mof_O 	O 	0.4496	0.3931	0.2603	-0.402
Mof_O 	O 	0.20009	0.32292	0.1757	-0.541
Mof_O 	O 	0.2838	0.6246	0.933	-0.495
Mof_O 	O 	0.12114	0.52352	0.9972	-0.554
_end
