data_functionalizedCrystal
_audit_creation_method	'EQeq! by Chris Wilmer'
_symmetry_space_group_name_H-M	'P1'
_symmetry_Int_Tables_number	1
_symmetry_cell_setting	triclinic
loop_
_symmetry_equiv_pos_as_xyz
  x,y,z
_cell_length_a	15.486
_cell_length_b	9.815
_cell_length_c	9.8365
_cell_angle_alpha	90
_cell_angle_beta	105.99
_cell_angle_gamma	90
loop_
_atom_site_label
_atom_site_type_symbol
_atom_site_fract_x
_atom_site_fract_y
_atom_site_fract_z
_atom_site_charge
Mof_Zn	Zn	0.55238	0.17945	0.4484	1.239
Mof_Zn	Zn	0.94569	0.08485	0.67825	1.246
Mof_P 	P 	0.73378	0.018	0.59808	0.59
Mof_H 	H 	0.338	0.412	0.13	0.22
Mof_H 	H 	0.638	0.945	0.682	0.365
Mof_P 	P 	0.48399	0.39513	0.20839	0.533
Mof_P 	P 	0.98531	0.79078	0.56132	0.634
Mof_H 	H 	0.856	0.825	0.465	0.5
Mof_O 	O 	0.67627	0.1388	0.5371	-0.461
Mof_O 	O 	0.54566	0.3534	0.3527	-0.402
Mof_O 	O 	0.82369	0.0561	0.6964	-0.402
Mof_O 	O 	0.99415	0.907	0.6643	-0.464
Mof_O 	O 	0.74734	0.925	0.4796	-0.307
Mof_O 	O 	0.68613	0.9295	0.6885	-0.524
Mof_O 	O 	0.48733	0.2938	0.0921	-0.43
Mof_O 	O 	0.51586	0.5368	0.174	-0.469
Mof_O 	O 	0.38724	0.4021	0.221	-0.345
Mof_O 	O 	0.05563	0.795	0.4785	-0.428
Mof_O 	O 	0.99089	0.6531	0.635	-0.395
Mof_O 	O 	0.89213	0.7962	0.4452	-0.696
Mof_Zn	Zn	0.44762	0.67945	0.0516	1.237
Mof_Zn	Zn	0.05431	0.58485	0.82175	1.247
Mof_P 	P 	0.26622	0.518	0.90192	0.595
Mof_H 	H 	0.662	0.912	0.37	0.22
Mof_H 	H 	0.362	0.445	0.818	0.366
Mof_P 	P 	0.51601	0.89513	0.29161	0.531
Mof_P 	P 	0.01469	0.29078	0.93868	0.628
Mof_H 	H 	0.144	0.325	0.035	0.499
Mof_O 	O 	0.32373	0.6388	0.9629	-0.461
Mof_O 	O 	0.45434	0.8534	0.1473	-0.404
Mof_O 	O 	0.17631	0.5561	0.8036	-0.4
Mof_O 	O 	0.00585	0.407	0.8357	-0.468
Mof_O 	O 	0.25266	0.425	0.0204	-0.309
Mof_O 	O 	0.31387	0.4295	0.8115	-0.529
Mof_O 	O 	0.51267	0.7938	0.4079	-0.431
Mof_O 	O 	0.48414	0.0368	0.326	-0.467
Mof_O 	O 	0.61276	0.9021	0.279	-0.346
Mof_O 	O 	0.94437	0.295	0.0215	-0.426
Mof_O 	O 	0.00911	0.1531	0.865	-0.394
Mof_O 	O 	0.10787	0.2962	0.0548	-0.691
Mof_Zn	Zn	0.44762	0.82055	0.5516	1.238
Mof_Zn	Zn	0.05431	0.91515	0.32175	1.245
Mof_P 	P 	0.26622	0.982	0.40192	0.59
Mof_H 	H 	0.662	0.588	0.87	0.22
Mof_H 	H 	0.362	0.055	0.318	0.365
Mof_P 	P 	0.51601	0.60487	0.79161	0.533
Mof_P 	P 	0.01469	0.20922	0.43868	0.634
Mof_H 	H 	0.144	0.175	0.535	0.5
Mof_O 	O 	0.32373	0.8612	0.4629	-0.461
Mof_O 	O 	0.45434	0.6466	0.6473	-0.402
Mof_O 	O 	0.17631	0.9439	0.3036	-0.402
Mof_O 	O 	0.00585	0.093	0.3357	-0.464
Mof_O 	O 	0.25266	0.075	0.5204	-0.307
Mof_O 	O 	0.31387	0.0705	0.3115	-0.524
Mof_O 	O 	0.51267	0.7062	0.9079	-0.43
Mof_O 	O 	0.48414	0.4632	0.826	-0.469
Mof_O 	O 	0.61276	0.5979	0.779	-0.345
Mof_O 	O 	0.94437	0.205	0.5215	-0.428
Mof_O 	O 	0.00911	0.3469	0.365	-0.395
Mof_O 	O 	0.10787	0.2038	0.5548	-0.696
Mof_Zn	Zn	0.55238	0.32055	0.9484	1.237
Mof_Zn	Zn	0.94569	0.41515	0.17825	1.247
Mof_P 	P 	0.73378	0.482	0.09808	0.595
Mof_H 	H 	0.338	0.088	0.63	0.22
Mof_H 	H 	0.638	0.555	0.182	0.366
Mof_P 	P 	0.48399	0.10487	0.70839	0.531
Mof_P 	P 	0.98531	0.70922	0.06132	0.628
Mof_H 	H 	0.856	0.675	0.965	0.499
Mof_O 	O 	0.67627	0.3612	0.0371	-0.461
Mof_O 	O 	0.54566	0.1466	0.8527	-0.404
Mof_O 	O 	0.82369	0.4439	0.1964	-0.4
Mof_O 	O 	0.99415	0.593	0.1643	-0.468
Mof_O 	O 	0.74734	0.575	0.9796	-0.309
Mof_O 	O 	0.68613	0.5705	0.1885	-0.529
Mof_O 	O 	0.48733	0.2062	0.5921	-0.431
Mof_O 	O 	0.51586	0.9632	0.674	-0.467
Mof_O 	O 	0.38724	0.0979	0.721	-0.346
Mof_O 	O 	0.05563	0.705	0.9785	-0.426
Mof_O 	O 	0.99089	0.8469	0.135	-0.394
Mof_O 	O 	0.89213	0.7038	0.9452	-0.691
_end
