data_functionalizedCrystal
_audit_creation_method	'EQeq! by Chris Wilmer'
_symmetry_space_group_name_H-M	'P1'
_symmetry_Int_Tables_number	1
_symmetry_cell_setting	triclinic
loop_
_symmetry_equiv_pos_as_xyz
  x,y,z
_cell_length_a	11.7258
_cell_length_b	15.4489
_cell_length_c	16.7107
_cell_angle_alpha	106.787
_cell_angle_beta	98.064
_cell_angle_gamma	107.788
loop_
_atom_site_label
_atom_site_type_symbol
_atom_site_fract_x
_atom_site_fract_y
_atom_site_fract_z
_atom_site_charge
Mof_Mn	Mn	0.18016	0.88054	0.89923	0.98
Mof_Mn	Mn	0.81984	0.11946	0.10077	0.915
Mof_Mn	Mn	0.5	0	-0	0.91
Mof_H 	H 	0.2402	0.7262	0.6635	-0.003
Mof_H 	H 	0.2803	0.6528	0.5316	0.124
Mof_H 	H 	0.6431	0.8269	0.6311	0.129
Mof_H 	H 	0.6002	0.9006	0.7624	-0.007
Mof_H 	H 	0.3757	0.5725	0.4508	0.006
Mof_H 	H 	0.3524	0.6459	0.4059	0.029
Mof_H 	H 	0.1464	0.1532	0.112	0.011
Mof_H 	H 	0.2227	0.313	0.212	0.122
Mof_H 	H 	0.5433	0.3627	0.1374	0.118
Mof_H 	H 	0.4701	0.2027	0.0421	0.001
Mof_H 	H 	0.304	0.4754	0.2803	0.037
Mof_H 	H 	0.379	0.4391	0.3436	0.025
Mof_H 	H 	0.4967	0.8163	0.1061	-0.001
Mof_H 	H 	0.5312	0.7385	0.2028	0.122
Mof_H 	H 	0.1643	0.6386	0.1873	0.129
Mof_H 	H 	0.1304	0.7113	0.0879	-0.016
Mof_H 	H 	0.5209	0.6183	0.2531	0.04
Mof_H 	H 	0.534	0.7119	0.3328	0.047
Mof_H 	H 	0.8914	0.6464	0.6551	-0.003
Mof_H 	H 	0.7623	0.5842	0.5171	0.118
Mof_H 	H 	0.7959	0.8551	0.528	0.131
Mof_H 	H 	0.932	0.9181	0.6632	0.008
Mof_H 	H 	0.6267	0.5484	0.3497	0.038
Mof_H 	H 	0.593	0.5556	0.4405	0.024
Mof_H 	H 	0.7598	0.2738	0.3365	-0.007
Mof_H 	H 	0.7197	0.3472	0.4684	0.124
Mof_H 	H 	0.3569	0.1731	0.3689	0.128
Mof_H 	H 	0.3998	0.0994	0.2376	-0.017
Mof_H 	H 	0.6243	0.4275	0.5492	0.005
Mof_H 	H 	0.6476	0.3541	0.5941	0.026
Mof_H 	H 	0.8536	0.8468	0.888	0.013
Mof_H 	H 	0.7773	0.687	0.788	0.128
Mof_H 	H 	0.4567	0.6373	0.8626	0.129
Mof_H 	H 	0.5299	0.7973	0.9579	0.012
Mof_H 	H 	0.696	0.5246	0.7197	0.038
Mof_H 	H 	0.621	0.5609	0.6564	0.024
Mof_H 	H 	0.5033	0.1837	0.8939	-0.006
Mof_H 	H 	0.4688	0.2615	0.7972	0.124
Mof_H 	H 	0.8357	0.3614	0.8127	0.134
Mof_H 	H 	0.8696	0.2887	0.9121	-0.014
Mof_H 	H 	0.4791	0.3817	0.7469	0.041
Mof_H 	H 	0.466	0.2881	0.6672	0.042
Mof_H 	H 	0.1086	0.3536	0.3449	-0.001
Mof_H 	H 	0.2377	0.4158	0.4829	0.119
Mof_H 	H 	0.2041	0.1449	0.472	0.122
Mof_H 	H 	0.068	0.0819	0.3368	-0.005
Mof_H 	H 	0.3733	0.4516	0.6503	0.038
Mof_H 	H 	0.407	0.4444	0.5595	0.024
Mof_C 	C 	0.392	0.8637	0.8082	0.438
Mof_C 	C 	0.4157	0.8194	0.7256	-0.212
Mof_C 	C 	0.3222	0.7466	0.6568	0.157
Mof_C 	C 	0.3449	0.7023	0.5783	-0.266
Mof_C 	C 	0.464	0.7336	0.5719	0.279
Mof_C 	C 	0.5614	0.8069	0.6385	-0.247
Mof_C 	C 	0.5357	0.8502	0.7162	0.151
Mof_C 	C 	0.4168	0.6247	0.4298	0.081
Mof_C 	C 	0.2555	0.0603	0.0079	0.259
Mof_C 	C 	0.302	0.1629	0.0689	-0.151
Mof_C 	C 	0.2279	0.1955	0.1183	0.098
Mof_C 	C 	0.2727	0.2905	0.1773	-0.229
Mof_C 	C 	0.3908	0.3512	0.1846	0.253
Mof_C 	C 	0.4633	0.3195	0.1333	-0.227
Mof_C 	C 	0.4196	0.225	0.0762	0.106
Mof_C 	C 	0.3874	0.479	0.3063	0.034
Mof_C 	C 	0.292	0.8183	0.023	0.376
Mof_C 	C 	0.3098	0.7688	0.0852	-0.201
Mof_C 	C 	0.4287	0.7785	0.1214	0.144
Mof_C 	C 	0.4498	0.7336	0.1798	-0.251
Mof_C 	C 	0.3499	0.6814	0.2042	0.272
Mof_C 	C 	0.2321	0.6738	0.17	-0.258
Mof_C 	C 	0.2122	0.717	0.1112	0.15
Mof_C 	C 	0.4821	0.6432	0.2991	0.04
Mof_C 	C 	0.0063	0.8277	0.7625	0.328
Mof_C 	C 	0.9237	0.7885	0.6738	-0.167
Mof_C 	C 	0.8725	0.6893	0.6293	0.129
Mof_C 	C 	0.7943	0.6522	0.5478	-0.257
Mof_C 	C 	0.7626	0.7121	0.5109	0.279
Mof_C 	C 	0.8154	0.8127	0.5541	-0.241
Mof_C 	C 	0.8955	0.8497	0.6343	0.122
Mof_C 	C 	0.5978	0.5859	0.3957	0.051
Mof_C 	C 	0.4698	0.5827	0.35793	-0.027
Mof_C 	C 	0.608	0.1363	0.1918	0.439
Mof_C 	C 	0.5843	0.1806	0.2744	-0.222
Mof_C 	C 	0.6778	0.2534	0.3432	0.158
Mof_C 	C 	0.6551	0.2977	0.4217	-0.272
Mof_C 	C 	0.536	0.2664	0.4281	0.28
Mof_C 	C 	0.4386	0.1931	0.3615	-0.255
Mof_C 	C 	0.4643	0.1498	0.2838	0.153
Mof_C 	C 	0.5832	0.3753	0.5702	0.085
Mof_C 	C 	0.7445	0.9397	0.9921	0.39
Mof_C 	C 	0.698	0.8371	0.9311	-0.181
Mof_C 	C 	0.7721	0.8045	0.8817	0.127
Mof_C 	C 	0.7273	0.7095	0.8227	-0.243
Mof_C 	C 	0.6092	0.6488	0.8154	0.267
Mof_C 	C 	0.5367	0.6805	0.8667	-0.239
Mof_C 	C 	0.5804	0.775	0.9238	0.135
Mof_C 	C 	0.6126	0.521	0.6937	0.036
Mof_C 	C 	0.708	0.1817	0.977	0.442
Mof_C 	C 	0.6902	0.2312	0.9148	-0.223
Mof_C 	C 	0.5713	0.2215	0.8786	0.159
Mof_C 	C 	0.5502	0.2664	0.8202	-0.262
Mof_C 	C 	0.6501	0.3186	0.7958	0.28
Mof_C 	C 	0.7679	0.3262	0.83	-0.269
Mof_C 	C 	0.7878	0.283	0.8888	0.168
Mof_C 	C 	0.5179	0.3568	0.7009	0.043
Mof_C 	C 	0.9937	0.1723	0.2375	0.326
Mof_C 	C 	0.0763	0.2115	0.3262	-0.166
Mof_C 	C 	0.1275	0.3107	0.3707	0.129
Mof_C 	C 	0.2057	0.3478	0.4522	-0.257
Mof_C 	C 	0.2374	0.2879	0.4891	0.278
Mof_C 	C 	0.1846	0.1873	0.4459	-0.244
Mof_C 	C 	0.1045	0.1503	0.3657	0.122
Mof_C 	C 	0.4022	0.4141	0.6043	0.053
Mof_C 	C 	0.5302	0.4173	0.64207	-0.029
Mof_O 	O 	0.4847	0.9283	0.86593	-0.367
Mof_O 	O 	0.2828	0.84312	0.813	-0.403
Mof_O 	O 	0.4977	0.6995	0.497	-0.25
Mof_O 	O 	0.1457	0.00448	0.99632	-0.282
Mof_O 	O 	0.3278	0.03047	0.96701	-0.375
Mof_O 	O 	0.4449	0.4453	0.2408	-0.243
Mof_O 	O 	0.3854	0.86693	0.0056	-0.394
Mof_O 	O 	0.1829	0.8088	0.98966	-0.361
Mof_O 	O 	0.3605	0.635	0.26228	-0.245
Mof_O 	O 	0.0657	0.91797	0.79845	-0.297
Mof_O 	O 	0.0168	0.76995	0.80061	-0.338
Mof_O 	O 	0.6826	0.6824	0.43248	-0.241
Mof_O 	O 	0.5153	0.0717	0.13407	-0.398
Mof_O 	O 	0.7172	0.15688	0.187	-0.41
Mof_O 	O 	0.5023	0.3005	0.503	-0.255
Mof_O 	O 	0.8543	0.99552	0.00368	-0.318
Mof_O 	O 	0.6722	0.96953	0.03299	-0.41
Mof_O 	O 	0.5551	0.5547	0.7592	-0.244
Mof_O 	O 	0.6146	0.13307	0.9944	-0.397
Mof_O 	O 	0.8171	0.1912	0.01034	-0.427
Mof_O 	O 	0.6395	0.365	0.73772	-0.248
Mof_O 	O 	0.9343	0.08203	0.20155	-0.323
Mof_O 	O 	0.9832	0.23005	0.19939	-0.341
Mof_O 	O 	0.3174	0.3176	0.56752	-0.244
Mof_H 	H 	0.9551	0.8224	0.1379	0.127
Mof_H 	H 	0.8804	0.8327	0.0555	0.132
Mof_H 	H 	0.0049	0.8108	0.0525	0.133
Mof_H 	H 	0.2087	0.9487	0.1502	0.111
Mof_H 	H 	0.1923	0.0439	0.2094	0.079
Mof_H 	H 	0.1408	0.9439	0.2264	0.104
Mof_C 	C 	0.9629	0.8453	0.0893	-0.31
Mof_C 	C 	0.1541	0.9731	0.182	-0.201
Mof_N 	N 	0.0331	0.9468	0.1211	-0.012
Mof_H 	H 	0.0449	0.1776	0.8621	0.129
Mof_H 	H 	0.1196	0.1673	0.9445	0.145
Mof_H 	H 	0.9951	0.1892	0.9475	0.144
Mof_H 	H 	0.7913	0.0513	0.8498	0.153
Mof_H 	H 	0.8077	0.9561	0.7906	0.175
Mof_H 	H 	0.8592	0.0561	0.7736	0.14
Mof_C 	C 	0.0371	0.1547	0.9107	-0.307
Mof_C 	C 	0.8459	0.0269	0.818	-0.399
Mof_N 	N 	0.9669	0.0532	0.8789	-0.008
_end
