# CIF file generated by openbabel 3.1.0, see https://openbabel.org
data_I
_chemical_name_common 'image0'
_cell_length_a 11.564
_cell_length_b 22.347
_cell_length_c 10.179
_cell_angle_alpha 90
_cell_angle_beta 103.343
_cell_angle_gamma 90
_space_group_name_H-M_alt 'P 1'
_space_group_name_Hall 'P 1'
loop_
    _symmetry_equiv_pos_as_xyz
    x,y,z
loop_
    _atom_site_label
    _atom_site_type_symbol
    _atom_site_fract_x
    _atom_site_fract_y
    _atom_site_fract_z
    _atom_site_occupancy
    Cd1      Cd       0.18677    0.09006    0.85486    1.000
    C1       C        0.17080    0.78723    0.74810    1.000
    H1       H        0.09570    0.78870    0.69030    1.000
    C2       C        0.22750    0.83921    0.80120    1.000
    C3       C        0.34150    0.83694    0.88420    1.000
    H2       H        0.37980    0.87190    0.92000    1.000
    C4       C        0.39720    0.78204    0.91270    1.000
    C5       C        0.34140    0.72910    0.86310    1.000
    H3       H        0.37900    0.69240    0.88350    1.000
    C6       C        0.22730    0.73292    0.78220    1.000
    C7       C        0.19920    0.94642    0.84510    1.000
    H4       H        0.26180    0.94940    0.92080    1.000
    C8       C        0.05070    0.96782    0.68450    1.000
    H5       H        0.99050    0.98950    0.62790    1.000
    C9       C        0.07270    0.90939    0.67020    1.000
    H6       H        0.03140    0.88360    0.60410    1.000
    C10      C        0.59530    0.82569    0.99630    1.000
    H7       H        0.58310    0.85720    0.93500    1.000
    C11      C        0.67210    0.76815    0.15850    1.000
    H8       H        0.72520    0.75180    0.23260    1.000
    C12      C        0.56390    0.74507    0.10120    1.000
    H9       H        0.52970    0.71090    0.12800    1.000
    C13      C        0.04390    0.67295    0.73590    1.000
    H10      H        0.99840    0.70110    0.76860    1.000
    C14      C        0.09890    0.59356    0.64890    1.000
    H11      H        0.09620    0.55590    0.60960    1.000
    C15      C        0.19640    0.62884    0.67980    1.000
    H12      H        0.27150    0.62040    0.66620    1.000
    C16      C        0.26610    0.07146    0.13440    1.000
    C17      C        0.28670    0.09016    0.63170    1.000
    C18      C        0.66330    0.07113    0.46540    1.000
    H13      H        0.69470    0.11010    0.45390    1.000
    H14      H        0.68620    0.04360    0.40370    1.000
    H15      H        0.69420    0.05770    0.55630    1.000
    C19      C        0.33790    0.07503    0.27840    1.000
    C20      C        0.28150    0.08486    0.38340    1.000
    H16      H        0.19970    0.09050    0.36500    1.000
    C21      C        0.34830    0.08626    0.51630    1.000
    C22      C        0.47110    0.08114    0.54140    1.000
    H17      H        0.51540    0.08230    0.63010    1.000
    C23      C        0.52940    0.07435    0.43760    1.000
    C24      C        0.46090    0.07006    0.30640    1.000
    H18      H        0.49820    0.06370    0.23590    1.000
    N1       N        0.12960    0.99103    0.79490    1.000
    N2       N        0.16940    0.89542    0.77390    1.000
    N3       N        0.69230    0.81886    0.09190    1.000
    N4       N        0.51530    0.78187    0.99700    1.000
    N5       N        0.00387    0.62158    0.68400    1.000
    N6       N        0.16079    0.68003    0.73580    1.000
    O1       O        0.16280    0.09095    0.10490    1.000
    O2       O        0.31733    0.05068    0.04711    1.000
    O3       O        0.18427    0.11200    0.61290    1.000
    O4       O        0.34030    0.06948    0.74421    1.000
    Cd2      Cd       0.81323    0.59006    0.64514    1.000
    C25      C        0.82920    0.28723    0.75190    1.000
    H19      H        0.90430    0.28870    0.80970    1.000
    C26      C        0.77250    0.33921    0.69880    1.000
    C27      C        0.65850    0.33694    0.61580    1.000
    H20      H        0.62020    0.37190    0.58000    1.000
    C28      C        0.60280    0.28204    0.58730    1.000
    C29      C        0.65860    0.22910    0.63690    1.000
    H21      H        0.62100    0.19240    0.61650    1.000
    C30      C        0.77270    0.23292    0.71780    1.000
    C31      C        0.80080    0.44642    0.65490    1.000
    H22      H        0.73820    0.44940    0.57920    1.000
    C32      C        0.94930    0.46782    0.81550    1.000
    H23      H        0.00950    0.48950    0.87210    1.000
    C33      C        0.92730    0.40939    0.82980    1.000
    H24      H        0.96860    0.38360    0.89590    1.000
    C34      C        0.40470    0.32569    0.50370    1.000
    H25      H        0.41690    0.35720    0.56500    1.000
    C35      C        0.32790    0.26815    0.34150    1.000
    H26      H        0.27480    0.25180    0.26740    1.000
    C36      C        0.43610    0.24507    0.39880    1.000
    H27      H        0.47030    0.21090    0.37200    1.000
    C37      C        0.95610    0.17295    0.76410    1.000
    H28      H        0.00160    0.20110    0.73140    1.000
    C38      C        0.90110    0.09356    0.85110    1.000
    H29      H        0.90380    0.05590    0.89040    1.000
    C39      C        0.80360    0.12884    0.82020    1.000
    H30      H        0.72850    0.12040    0.83380    1.000
    C40      C        0.73390    0.57146    0.36560    1.000
    C41      C        0.71330    0.59016    0.86830    1.000
    C42      C        0.33670    0.57113    0.03460    1.000
    H31      H        0.30530    0.61010    0.04610    1.000
    H32      H        0.31380    0.54360    0.09630    1.000
    H33      H        0.30580    0.55770    0.94370    1.000
    C43      C        0.66210    0.57503    0.22160    1.000
    C44      C        0.71850    0.58486    0.11660    1.000
    H34      H        0.80030    0.59050    0.13500    1.000
    C45      C        0.65170    0.58626    0.98370    1.000
    C46      C        0.52890    0.58114    0.95860    1.000
    H35      H        0.48460    0.58230    0.86990    1.000
    C47      C        0.47060    0.57435    0.06240    1.000
    C48      C        0.53910    0.57006    0.19360    1.000
    H36      H        0.50180    0.56370    0.26410    1.000
    N7       N        0.87040    0.49103    0.70510    1.000
    N8       N        0.83060    0.39542    0.72610    1.000
    N9       N        0.30770    0.31886    0.40810    1.000
    N10      N        0.48470    0.28187    0.50300    1.000
    N11      N        0.99613    0.12158    0.81600    1.000
    N12      N        0.83921    0.18003    0.76420    1.000
    O5       O        0.83720    0.59095    0.39510    1.000
    O6       O        0.68267    0.55068    0.45289    1.000
    O7       O        0.81573    0.61200    0.88710    1.000
    O8       O        0.65970    0.56948    0.75579    1.000
    Cd3      Cd       0.81323    0.90994    0.14514    1.000
    C49      C        0.82920    0.21277    0.25190    1.000
    H37      H        0.90430    0.21130    0.30970    1.000
    C50      C        0.77250    0.16079    0.19880    1.000
    C51      C        0.65850    0.16306    0.11580    1.000
    H38      H        0.62020    0.12810    0.08000    1.000
    C52      C        0.60280    0.21796    0.08730    1.000
    C53      C        0.65860    0.27090    0.13690    1.000
    H39      H        0.62100    0.30760    0.11650    1.000
    C54      C        0.77270    0.26708    0.21780    1.000
    C55      C        0.80080    0.05358    0.15490    1.000
    H40      H        0.73820    0.05060    0.07920    1.000
    C56      C        0.94930    0.03218    0.31550    1.000
    H41      H        0.00950    0.01050    0.37210    1.000
    C57      C        0.92730    0.09061    0.32980    1.000
    H42      H        0.96860    0.11640    0.39590    1.000
    C58      C        0.40470    0.17431    0.00370    1.000
    H43      H        0.41690    0.14280    0.06500    1.000
    C59      C        0.32790    0.23185    0.84150    1.000
    H44      H        0.27480    0.24820    0.76740    1.000
    C60      C        0.43610    0.25493    0.89880    1.000
    H45      H        0.47030    0.28910    0.87200    1.000
    C61      C        0.95610    0.32705    0.26410    1.000
    H46      H        0.00160    0.29890    0.23140    1.000
    C62      C        0.90110    0.40644    0.35110    1.000
    H47      H        0.90380    0.44410    0.39040    1.000
    C63      C        0.80360    0.37116    0.32020    1.000
    H48      H        0.72850    0.37960    0.33380    1.000
    C64      C        0.73390    0.92854    0.86560    1.000
    C65      C        0.71330    0.90984    0.36830    1.000
    C66      C        0.33670    0.92887    0.53460    1.000
    H49      H        0.30530    0.88990    0.54610    1.000
    H50      H        0.31380    0.95640    0.59630    1.000
    H51      H        0.30580    0.94230    0.44370    1.000
    C67      C        0.66210    0.92497    0.72160    1.000
    C68      C        0.71850    0.91514    0.61660    1.000
    H52      H        0.80030    0.90950    0.63500    1.000
    C69      C        0.65170    0.91374    0.48370    1.000
    C70      C        0.52890    0.91886    0.45860    1.000
    H53      H        0.48460    0.91770    0.36990    1.000
    C71      C        0.47060    0.92565    0.56240    1.000
    C72      C        0.53910    0.92994    0.69360    1.000
    H54      H        0.50180    0.93630    0.76410    1.000
    N13      N        0.87040    0.00897    0.20510    1.000
    N14      N        0.83060    0.10458    0.22610    1.000
    N15      N        0.30770    0.18114    0.90810    1.000
    N16      N        0.48470    0.21813    0.00300    1.000
    N17      N        0.99613    0.37842    0.31600    1.000
    N18      N        0.83921    0.31997    0.26420    1.000
    O9       O        0.83720    0.90905    0.89510    1.000
    O10      O        0.68267    0.94932    0.95289    1.000
    O11      O        0.81573    0.88800    0.38710    1.000
    O12      O        0.65970    0.93052    0.25579    1.000
    Cd4      Cd       0.18677    0.40994    0.35486    1.000
    C73      C        0.17080    0.71277    0.24810    1.000
    H55      H        0.09570    0.71130    0.19030    1.000
    C74      C        0.22750    0.66079    0.30120    1.000
    C75      C        0.34150    0.66306    0.38420    1.000
    H56      H        0.37980    0.62810    0.42000    1.000
    C76      C        0.39720    0.71796    0.41270    1.000
    C77      C        0.34140    0.77090    0.36310    1.000
    H57      H        0.37900    0.80760    0.38350    1.000
    C78      C        0.22730    0.76708    0.28220    1.000
    C79      C        0.19920    0.55358    0.34510    1.000
    H58      H        0.26180    0.55060    0.42080    1.000
    C80      C        0.05070    0.53218    0.18450    1.000
    H59      H        0.99050    0.51050    0.12790    1.000
    C81      C        0.07270    0.59061    0.17020    1.000
    H60      H        0.03140    0.61640    0.10410    1.000
    C82      C        0.59530    0.67431    0.49630    1.000
    H61      H        0.58310    0.64280    0.43500    1.000
    C83      C        0.67210    0.73185    0.65850    1.000
    H62      H        0.72520    0.74820    0.73260    1.000
    C84      C        0.56390    0.75493    0.60120    1.000
    H63      H        0.52970    0.78910    0.62800    1.000
    C85      C        0.04390    0.82705    0.23590    1.000
    H64      H        0.99840    0.79890    0.26860    1.000
    C86      C        0.09890    0.90644    0.14890    1.000
    H65      H        0.09620    0.94410    0.10960    1.000
    C87      C        0.19640    0.87116    0.17980    1.000
    H66      H        0.27150    0.87960    0.16620    1.000
    C88      C        0.26610    0.42854    0.63440    1.000
    C89      C        0.28670    0.40984    0.13170    1.000
    C90      C        0.66330    0.42887    0.96540    1.000
    H67      H        0.69470    0.38990    0.95390    1.000
    H68      H        0.68620    0.45640    0.90370    1.000
    H69      H        0.69420    0.44230    0.05630    1.000
    C91      C        0.33790    0.42497    0.77840    1.000
    C92      C        0.28150    0.41514    0.88340    1.000
    H70      H        0.19970    0.40950    0.86500    1.000
    C93      C        0.34830    0.41374    0.01630    1.000
    C94      C        0.47110    0.41886    0.04140    1.000
    H71      H        0.51540    0.41770    0.13010    1.000
    C95      C        0.52940    0.42565    0.93760    1.000
    C96      C        0.46090    0.42994    0.80640    1.000
    H72      H        0.49820    0.43630    0.73590    1.000
    N19      N        0.12960    0.50897    0.29490    1.000
    N20      N        0.16940    0.60458    0.27390    1.000
    N21      N        0.69230    0.68114    0.59190    1.000
    N22      N        0.51530    0.71813    0.49700    1.000
    N23      N        0.00387    0.87842    0.18400    1.000
    N24      N        0.16079    0.81997    0.23580    1.000
    O13      O        0.16280    0.40905    0.60490    1.000
    O14      O        0.31733    0.44932    0.54711    1.000
    O15      O        0.18427    0.38800    0.11290    1.000
    O16      O        0.34030    0.43052    0.24421    1.000
