data_functionalizedCrystal
_audit_creation_method	'EQeq! by Chris Wilmer'
_symmetry_space_group_name_H-M	'P1'
_symmetry_Int_Tables_number	1
_symmetry_cell_setting	triclinic
loop_
_symmetry_equiv_pos_as_xyz
  x,y,z
_cell_length_a	12.73
_cell_length_b	15.81
_cell_length_c	16.73
_cell_angle_alpha	90
_cell_angle_beta	90
_cell_angle_gamma	90
loop_
_atom_site_label
_atom_site_type_symbol
_atom_site_fract_x
_atom_site_fract_y
_atom_site_fract_z
_atom_site_charge
Mof_Mn	Mn	0.7312	0.75736	0.11087	0.989
Mof_Mn	Mn	0.47918	0.73553	0.00016	1.032
Mof_O 	O 	0.651	0.71614	0.99014	-0.527
Mof_O 	O 	0.6121	0.7079	0.18312	-0.385
Mof_O 	O 	0.4889	0.65307	0.1028	-0.381
Mof_O 	O 	0.3617	0.37246	0.40967	-0.357
Mof_O 	O 	0.5326	0.34318	0.41831	-0.379
Mof_O 	O 	0.9812	0.67022	0.0914	-0.4
Mof_O 	O 	0.8192	0.6454	0.1351	-0.39
Mof_O 	O 	0.035	0.35979	0.40621	-0.372
Mof_C 	C 	0.7289	0.7447	0.9525	0.724
Mof_O 	O 	0.8061	0.77478	0.99045	-0.539
Mof_C 	C 	0.5401	0.6553	0.1656	0.369
Mof_C 	C 	0.5178	0.5881	0.2285	-0.078
Mof_C 	C 	0.4587	0.385	0.3922	0.359
Mof_C 	C 	0.4795	0.4578	0.3362	-0.077
Mof_C 	C 	0.5709	0.5056	0.3431	-0.021
Mof_H 	H 	0.6202	0.4933	0.3825	0.045
Mof_C 	C 	0.5873	0.5723	0.2898	-0.017
Mof_H 	H 	0.6461	0.6067	0.2957	0.049
Mof_C 	C 	0.4274	0.5397	0.2215	-0.022
Mof_H 	H 	0.3797	0.5502	0.1805	0.046
Mof_C 	C 	0.409	0.4757	0.2761	-0.016
Mof_H 	H 	0.3476	0.4441	0.2722	0.048
Mof_C 	C 	0.9147	0.6303	0.1315	0.389
Mof_C 	C 	0.9561	0.5583	0.1826	-0.087
Mof_C 	C 	0.8949	0.5253	0.2436	-0.015
Mof_H 	H 	0.8266	0.5448	0.2506	0.046
Mof_C 	C 	0.9342	0.4634	0.2944	-0.024
Mof_H 	H 	0.8928	0.4423	0.3356	0.04
Mof_C 	C 	0.036	0.4331	0.2834	-0.076
Mof_C 	C 	0.0955	0.4636	0.2205	-0.021
Mof_H 	H 	0.1622	0.4417	0.2114	0.05
Mof_C 	C 	0.0563	0.527	0.1703	-0.018
Mof_H 	H 	0.0975	0.5481	0.1289	0.045
Mof_C 	C 	0.0823	0.3701	0.3424	0.371
Mof_O 	O 	0.1674	0.3349	0.32105	-0.38
Mof_C 	C 	0.7314	0.7424	0.8619	-1.265
Mof_H 	H 	0.7961	0.7666	0.8433	0.418
Mof_H 	H 	0.6734	0.7743	0.8411	0.414
Mof_H 	H 	0.7264	0.6849	0.844	0.413
Mof_Mn	Mn	0.7688	0.24264	0.61087	0.99
Mof_Mn	Mn	0.02082	0.26447	0.50016	1.033
Mof_O 	O 	0.849	0.28386	0.49014	-0.528
Mof_O 	O 	0.8879	0.2921	0.68312	-0.385
Mof_O 	O 	0.0111	0.34693	0.6028	-0.381
Mof_O 	O 	0.1383	0.62754	0.90967	-0.356
Mof_O 	O 	0.9674	0.65682	0.91831	-0.378
Mof_O 	O 	0.5188	0.32978	0.5914	-0.4
Mof_O 	O 	0.6808	0.3546	0.6351	-0.39
Mof_O 	O 	0.465	0.64021	0.90621	-0.372
Mof_C 	C 	0.7711	0.2553	0.4525	0.723
Mof_O 	O 	0.6939	0.22522	0.49045	-0.539
Mof_C 	C 	0.9599	0.3447	0.6656	0.369
Mof_C 	C 	0.9822	0.4119	0.7285	-0.078
Mof_C 	C 	0.0413	0.615	0.8922	0.359
Mof_C 	C 	0.0205	0.5422	0.8362	-0.076
Mof_C 	C 	0.9291	0.4944	0.8431	-0.022
Mof_H 	H 	0.8798	0.5067	0.8825	0.045
Mof_C 	C 	0.9127	0.4277	0.7898	-0.017
Mof_H 	H 	0.8539	0.3933	0.7957	0.049
Mof_C 	C 	0.0726	0.4603	0.7215	-0.021
Mof_H 	H 	0.1203	0.4498	0.6805	0.046
Mof_C 	C 	0.091	0.5243	0.7761	-0.017
Mof_H 	H 	0.1524	0.5559	0.7722	0.048
Mof_C 	C 	0.5853	0.3697	0.6315	0.389
Mof_C 	C 	0.5439	0.4417	0.6826	-0.087
Mof_C 	C 	0.6051	0.4747	0.7436	-0.015
Mof_H 	H 	0.6734	0.4552	0.7506	0.046
Mof_C 	C 	0.5658	0.5366	0.7944	-0.024
Mof_H 	H 	0.6072	0.5577	0.8356	0.04
Mof_C 	C 	0.464	0.5669	0.7834	-0.076
Mof_C 	C 	0.4045	0.5364	0.7205	-0.021
Mof_H 	H 	0.3378	0.5583	0.7114	0.05
Mof_C 	C 	0.4437	0.473	0.6703	-0.018
Mof_H 	H 	0.4025	0.4519	0.6289	0.045
Mof_C 	C 	0.4177	0.6299	0.8424	0.371
Mof_O 	O 	0.3326	0.6651	0.82105	-0.38
Mof_C 	C 	0.7686	0.2576	0.3619	-1.265
Mof_H 	H 	0.7039	0.2334	0.3433	0.418
Mof_H 	H 	0.8266	0.2257	0.3411	0.414
Mof_H 	H 	0.7736	0.3151	0.344	0.413
Mof_Mn	Mn	0.2688	0.25736	0.38913	0.99
Mof_Mn	Mn	0.52082	0.23553	0.49984	1.032
Mof_O 	O 	0.349	0.21614	0.50986	-0.528
Mof_O 	O 	0.3879	0.2079	0.31688	-0.385
Mof_O 	O 	0.5111	0.15307	0.3972	-0.381
Mof_O 	O 	0.6383	0.87246	0.09033	-0.357
Mof_O 	O 	0.4674	0.84318	0.08169	-0.379
Mof_O 	O 	0.0188	0.17022	0.4086	-0.4
Mof_O 	O 	0.1808	0.1454	0.3649	-0.39
Mof_O 	O 	0.965	0.85979	0.09379	-0.373
Mof_C 	C 	0.2711	0.2447	0.5475	0.724
Mof_O 	O 	0.1939	0.27478	0.50955	-0.54
Mof_C 	C 	0.4599	0.1553	0.3344	0.369
Mof_C 	C 	0.4822	0.0881	0.2715	-0.077
Mof_C 	C 	0.5413	0.885	0.1078	0.359
Mof_C 	C 	0.5205	0.9578	0.1638	-0.077
Mof_C 	C 	0.4291	0.0056	0.1569	-0.021
Mof_H 	H 	0.3798	0.9933	0.1175	0.045
Mof_C 	C 	0.4127	0.0723	0.2102	-0.017
Mof_H 	H 	0.3539	0.1067	0.2043	0.049
Mof_C 	C 	0.5726	0.0397	0.2785	-0.023
Mof_H 	H 	0.6203	0.0502	0.3195	0.046
Mof_C 	C 	0.591	0.9757	0.2239	-0.016
Mof_H 	H 	0.6524	0.9441	0.2278	0.048
Mof_C 	C 	0.0853	0.1303	0.3685	0.389
Mof_C 	C 	0.0439	0.0583	0.3174	-0.086
Mof_C 	C 	0.1051	0.0253	0.2564	-0.014
Mof_H 	H 	0.1734	0.0448	0.2494	0.046
Mof_C 	C 	0.0658	0.9634	0.2056	-0.026
Mof_H 	H 	0.1072	0.9423	0.1644	0.04
Mof_C 	C 	0.964	0.9331	0.2166	-0.075
Mof_C 	C 	0.9045	0.9636	0.2795	-0.019
Mof_H 	H 	0.8378	0.9417	0.2886	0.049
Mof_C 	C 	0.9437	0.027	0.3297	-0.021
Mof_H 	H 	0.9025	0.0481	0.3711	0.046
Mof_C 	C 	0.9177	0.8701	0.1576	0.371
Mof_O 	O 	0.8326	0.8349	0.17895	-0.38
Mof_C 	C 	0.2686	0.2424	0.6381	-1.266
Mof_H 	H 	0.2039	0.2666	0.6567	0.418
Mof_H 	H 	0.3266	0.2743	0.6589	0.414
Mof_H 	H 	0.2736	0.1849	0.656	0.413
Mof_Mn	Mn	0.2312	0.74264	0.88913	0.991
Mof_Mn	Mn	0.97918	0.76447	0.99984	1.034
Mof_O 	O 	0.151	0.78386	0.00986	-0.528
Mof_O 	O 	0.1121	0.7921	0.81688	-0.386
Mof_O 	O 	0.9889	0.84693	0.8972	-0.381
Mof_O 	O 	0.8617	0.12754	0.59033	-0.356
Mof_O 	O 	0.0326	0.15682	0.58169	-0.378
Mof_O 	O 	0.4812	0.82978	0.9086	-0.4
Mof_O 	O 	0.3192	0.8546	0.8649	-0.39
Mof_O 	O 	0.535	0.14021	0.59379	-0.373
Mof_C 	C 	0.2289	0.7553	0.0475	0.724
Mof_O 	O 	0.3061	0.72522	0.00955	-0.54
Mof_C 	C 	0.0401	0.8447	0.8344	0.37
Mof_C 	C 	0.0178	0.9119	0.7715	-0.081
Mof_C 	C 	0.9587	0.115	0.6078	0.357
Mof_C 	C 	0.9795	0.0422	0.6638	-0.074
Mof_C 	C 	0.0709	0.9944	0.6569	-0.026
Mof_H 	H 	0.1202	0.0067	0.6175	0.047
Mof_C 	C 	0.0873	0.9277	0.7102	-0.014
Mof_H 	H 	0.1461	0.8933	0.7043	0.048
Mof_C 	C 	0.9274	0.9603	0.7785	-0.017
Mof_H 	H 	0.8797	0.9498	0.8195	0.045
Mof_C 	C 	0.909	0.0243	0.7239	-0.021
Mof_H 	H 	0.8476	0.0559	0.7278	0.049
Mof_C 	C 	0.4147	0.8697	0.8685	0.389
Mof_C 	C 	0.4561	0.9417	0.8174	-0.087
Mof_C 	C 	0.3949	0.9747	0.7564	-0.015
Mof_H 	H 	0.3266	0.9552	0.7494	0.046
Mof_C 	C 	0.4342	0.0366	0.7056	-0.023
Mof_H 	H 	0.3928	0.0577	0.6644	0.04
Mof_C 	C 	0.536	0.0669	0.7166	-0.076
Mof_C 	C 	0.5955	0.0364	0.7795	-0.021
Mof_H 	H 	0.6622	0.0583	0.7886	0.05
Mof_C 	C 	0.5563	0.973	0.8297	-0.018
Mof_H 	H 	0.5975	0.9519	0.8711	0.045
Mof_C 	C 	0.5823	0.1299	0.6576	0.371
Mof_O 	O 	0.6674	0.1651	0.67895	-0.38
Mof_C 	C 	0.2314	0.7576	0.1381	-1.265
Mof_H 	H 	0.2961	0.7334	0.1567	0.418
Mof_H 	H 	0.1734	0.7257	0.1589	0.414
Mof_H 	H 	0.2264	0.8151	0.156	0.413
_end
