data_functionalizedCrystal
_audit_creation_method	'EQeq! by Chris Wilmer'
_symmetry_space_group_name_H-M	'P1'
_symmetry_Int_Tables_number	1
_symmetry_cell_setting	triclinic
loop_
_symmetry_equiv_pos_as_xyz
  x,y,z
_cell_length_a	9.4617
_cell_length_b	11.2772
_cell_length_c	11.3489
_cell_angle_alpha	79.254
_cell_angle_beta	65.726
_cell_angle_gamma	80.143
loop_
_atom_site_label
_atom_site_type_symbol
_atom_site_fract_x
_atom_site_fract_y
_atom_site_fract_z
_atom_site_charge
Mof_U 	U 	0.6985	0.44431	0.04771	0.043
Mof_U 	U 	0.27962	0.9685	0.02627	0.016
Mof_P 	P 	0.6346	0.619	0.7596	0.443
Mof_P 	P 	0.5521	0.7508	0.9843	0.441
Mof_P 	P 	0.0119	0.2063	0.9568	0.438
Mof_O 	O 	0.3806	0.7377	0.0089	-0.139
Mof_O 	O 	0.6221	0.6532	0.0604	-0.16
Mof_O 	O 	0.2037	0.5094	0.8184	-0.144
Mof_P 	P 	0.0836	0.4605	0.7865	0.445
Mof_O 	O 	0.5445	0.8804	0.0151	-0.156
Mof_O 	O 	0.9156	0.4996	0.8735	-0.154
Mof_O 	O 	0.61	0.5167	0.8755	-0.137
Mof_O 	O 	0.8801	0.2862	0.0459	-0.144
Mof_O 	O 	0.1256	0.1457	0.0203	-0.166
Mof_O 	O 	0.4749	0.6457	0.7494	-0.148
Mof_O 	O 	0.9461	0.1137	0.9184	-0.156
Mof_O 	O 	0.7669	0.594	0.6332	-0.171
Mof_O 	O 	0.1111	0.5043	0.6451	-0.166
Mof_C 	C 	0.6709	0.748	0.813	-0.382
Mof_H 	H 	0.7802	0.7422	0.7982	0.197
Mof_H 	H 	0.6461	0.8224	0.7634	0.188
Mof_C 	C 	0.1151	0.2993	0.8033	-0.377
Mof_H 	H 	0.2258	0.2774	0.7819	0.19
Mof_H 	H 	0.0923	0.2738	0.7365	0.189
Mof_U 	U 	0.3015	0.55569	0.95229	0.044
Mof_U 	U 	0.72038	0.0315	0.97373	0.016
Mof_P 	P 	0.3654	0.381	0.2404	0.443
Mof_P 	P 	0.4479	0.2492	0.0157	0.441
Mof_P 	P 	0.9881	0.7937	0.0432	0.44
Mof_O 	O 	0.6194	0.2623	0.9911	-0.139
Mof_O 	O 	0.3779	0.3468	0.9396	-0.16
Mof_O 	O 	0.7963	0.4906	0.1816	-0.144
Mof_P 	P 	0.9164	0.5395	0.2135	0.447
Mof_O 	O 	0.4555	0.1196	0.9849	-0.156
Mof_O 	O 	0.0844	0.5004	0.1265	-0.155
Mof_O 	O 	0.39	0.4833	0.1245	-0.137
Mof_O 	O 	0.1199	0.7138	0.9541	-0.145
Mof_O 	O 	0.8744	0.8543	0.9797	-0.166
Mof_O 	O 	0.5251	0.3543	0.2506	-0.148
Mof_O 	O 	0.0539	0.8863	0.0816	-0.158
Mof_O 	O 	0.2331	0.406	0.3668	-0.171
Mof_O 	O 	0.8889	0.4957	0.3549	-0.165
Mof_C 	C 	0.3291	0.252	0.187	-0.381
Mof_H 	H 	0.2198	0.2578	0.2018	0.197
Mof_H 	H 	0.3539	0.1776	0.2366	0.188
Mof_C 	C 	0.8849	0.7007	0.1967	-0.378
Mof_H 	H 	0.7742	0.7226	0.2181	0.19
Mof_H 	H 	0.9077	0.7262	0.2635	0.189
Mof_U 	U 	-5.10605e-17	0.5	0.5	0.018
_end
