data_functionalizedCrystal
_audit_creation_method	'EQeq! by Chris Wilmer'
_symmetry_space_group_name_H-M	'P1'
_symmetry_Int_Tables_number	1
_symmetry_cell_setting	triclinic
loop_
_symmetry_equiv_pos_as_xyz
  x,y,z
_cell_length_a	35.2979
_cell_length_b	35.2979
_cell_length_c	20.6443
_cell_angle_alpha	90
_cell_angle_beta	90
_cell_angle_gamma	120
loop_
_atom_site_label
_atom_site_type_symbol
_atom_site_fract_x
_atom_site_fract_y
_atom_site_fract_z
_atom_site_charge
Mof_O 	O 	0.77967	0.63716	0.59431	-0.408
Mof_O 	O 	0.76677	0.61148	0.69641	-0.403
Mof_C 	C 	0.75537	0.61178	0.63827	0.364
Mof_C 	C 	0.7089	0.57988	0.62061	-0.122
Mof_C 	C 	0.67972	0.55202	0.66701	0.065
Mof_H 	H 	0.6897	0.5525	0.7099	0.029
Mof_C 	C 	0.63629	0.5235	0.65143	-0.138
Mof_H 	H 	0.6167	0.5047	0.6836	0.094
Mof_C 	C 	0.62168	0.52248	0.58924	0.109
Mof_C 	C 	0.6506	0.54993	0.54215	-0.137
Mof_H 	H 	0.6407	0.549	0.4991	0.082
Mof_C 	C 	0.69449	0.57902	0.5585	0.062
Mof_H 	H 	0.7142	0.5981	0.5266	0.029
Mof_C 	C 	0.57451	0.49446	0.57119	-0.063
Mof_C 	C 	0.55443	0.51283	0.53575	-0.04
Mof_H 	H 	0.5714	0.5427	0.5233	0.046
Mof_C 	C 	0.5726	0.3827	0.5362	-0.023
Mof_C 	C 	0.5887	0.3768	0.6438	0.002
Mof_C 	C 	0.578	0.3996	0.5848	0.052
Mof_O 	O 	0.44634	0.97049	0.92764	-0.408
Mof_O 	O 	0.43344	0.94481	0.02974	-0.403
Mof_C 	C 	0.42204	0.94511	0.9716	0.364
Mof_C 	C 	0.37557	0.91321	0.95394	-0.12
Mof_C 	C 	0.34639	0.88535	0.00034	0.062
Mof_H 	H 	0.35637	0.88583	0.04323	0.03
Mof_C 	C 	0.30296	0.85683	0.98476	-0.134
Mof_H 	H 	0.28337	0.83803	0.01693	0.092
Mof_C 	C 	0.28835	0.85581	0.92257	0.107
Mof_C 	C 	0.31727	0.88326	0.87548	-0.135
Mof_H 	H 	0.30737	0.88233	0.83243	0.082
Mof_C 	C 	0.36116	0.91235	0.89183	0.06
Mof_H 	H 	0.38087	0.93143	0.85993	0.029
Mof_C 	C 	0.24118	0.82779	0.90452	-0.062
Mof_C 	C 	0.2211	0.84616	0.86908	-0.04
Mof_H 	H 	0.23807	0.87603	0.85663	0.046
Mof_C 	C 	0.23927	0.71603	0.86953	-0.023
Mof_C 	C 	0.25537	0.71013	0.97713	0.002
Mof_C 	C 	0.24467	0.73293	0.91813	0.052
Mof_O 	O 	0.113	0.30383	0.26098	-0.408
Mof_O 	O 	0.1001	0.27815	0.36308	-0.402
Mof_C 	C 	0.0887	0.27845	0.30494	0.364
Mof_C 	C 	0.04223	0.24655	0.28728	-0.121
Mof_C 	C 	0.01305	0.21869	0.33368	0.064
Mof_H 	H 	0.02303	0.21917	0.37657	0.029
Mof_C 	C 	0.96962	0.19017	0.3181	-0.138
Mof_H 	H 	0.95003	0.17137	0.35027	0.093
Mof_C 	C 	0.95501	0.18915	0.25591	0.107
Mof_C 	C 	0.98393	0.2166	0.20882	-0.137
Mof_H 	H 	0.97403	0.21567	0.16577	0.081
Mof_C 	C 	0.02782	0.24569	0.22517	0.06
Mof_H 	H 	0.04753	0.26477	0.19327	0.028
Mof_C 	C 	0.90784	0.16113	0.23786	-0.064
Mof_C 	C 	0.88776	0.1795	0.20242	-0.041
Mof_H 	H 	0.90473	0.20937	0.18997	0.045
Mof_C 	C 	0.90593	0.04937	0.20287	-0.023
Mof_C 	C 	0.92203	0.04347	0.31047	0.001
Mof_C 	C 	0.91133	0.06627	0.25147	0.051
Mof_O 	O 	0.36284	0.14251	0.59431	-0.409
Mof_O 	O 	0.38852	0.15529	0.69641	-0.404
Mof_C 	C 	0.38822	0.14359	0.63827	0.363
Mof_C 	C 	0.42012	0.12902	0.62061	-0.123
Mof_C 	C 	0.44798	0.1277	0.66701	0.064
Mof_H 	H 	0.4475	0.1372	0.7099	0.028
Mof_C 	C 	0.4765	0.11279	0.65143	-0.139
Mof_H 	H 	0.4953	0.112	0.6836	0.093
Mof_C 	C 	0.47752	0.0992	0.58924	0.108
Mof_C 	C 	0.45007	0.10067	0.54215	-0.138
Mof_H 	H 	0.451	0.0917	0.4991	0.081
Mof_C 	C 	0.42098	0.11547	0.5585	0.061
Mof_H 	H 	0.4019	0.1161	0.5266	0.028
Mof_C 	C 	0.50554	0.08005	0.57119	-0.064
Mof_C 	C 	0.48717	0.0416	0.53575	-0.041
Mof_H 	H 	0.4573	0.0287	0.5233	0.045
Mof_C 	C 	0.6173	0.1899	0.5362	-0.024
Mof_C 	C 	0.6232	0.2119	0.6438	0.001
Mof_C 	C 	0.6004	0.1784	0.5848	0.051
Mof_O 	O 	0.02951	0.47584	0.92764	-0.409
Mof_O 	O 	0.05519	0.48862	0.02974	-0.404
Mof_C 	C 	0.05489	0.47692	0.9716	0.363
Mof_C 	C 	0.08679	0.46235	0.95394	-0.122
Mof_C 	C 	0.11465	0.46103	0.00034	0.062
Mof_H 	H 	0.11417	0.47053	0.04323	0.029
Mof_C 	C 	0.14317	0.44612	0.98476	-0.137
Mof_H 	H 	0.16197	0.44533	0.01693	0.092
Mof_C 	C 	0.14419	0.43253	0.92257	0.107
Mof_C 	C 	0.11674	0.434	0.87548	-0.137
Mof_H 	H 	0.11767	0.42503	0.83243	0.081
Mof_C 	C 	0.08765	0.4488	0.89183	0.06
Mof_H 	H 	0.06857	0.44943	0.85993	0.028
Mof_C 	C 	0.17221	0.41338	0.90452	-0.064
Mof_C 	C 	0.15384	0.37493	0.86908	-0.041
Mof_H 	H 	0.12397	0.36203	0.85663	0.045
Mof_C 	C 	0.28397	0.52323	0.86953	-0.024
Mof_C 	C 	0.28987	0.54523	0.97713	0.001
Mof_C 	C 	0.26707	0.51173	0.91813	0.051
Mof_O 	O 	0.69617	0.80918	0.26098	-0.409
Mof_O 	O 	0.72185	0.82196	0.36308	-0.404
Mof_C 	C 	0.72155	0.81026	0.30494	0.363
Mof_C 	C 	0.75345	0.79569	0.28728	-0.123
Mof_C 	C 	0.78131	0.79437	0.33368	0.064
Mof_H 	H 	0.78083	0.80387	0.37657	0.028
Mof_C 	C 	0.80983	0.77946	0.3181	-0.139
Mof_H 	H 	0.82863	0.77867	0.35027	0.093
Mof_C 	C 	0.81085	0.76587	0.25591	0.108
Mof_C 	C 	0.7834	0.76734	0.20882	-0.138
Mof_H 	H 	0.78433	0.75837	0.16577	0.081
Mof_C 	C 	0.75431	0.78214	0.22517	0.061
Mof_H 	H 	0.73523	0.78277	0.19327	0.028
Mof_C 	C 	0.83887	0.74672	0.23786	-0.064
Mof_C 	C 	0.8205	0.70827	0.20242	-0.041
Mof_H 	H 	0.79063	0.69537	0.18997	0.045
Mof_C 	C 	0.95063	0.85657	0.20287	-0.024
Mof_C 	C 	0.95653	0.87857	0.31047	0.001
Mof_C 	C 	0.93373	0.84507	0.25147	0.051
Mof_O 	O 	0.85749	0.22033	0.59431	-0.409
Mof_O 	O 	0.84471	0.23323	0.69641	-0.404
Mof_C 	C 	0.85641	0.24463	0.63827	0.363
Mof_C 	C 	0.87098	0.2911	0.62061	-0.123
Mof_C 	C 	0.8723	0.32028	0.66701	0.064
Mof_H 	H 	0.8628	0.3103	0.7099	0.028
Mof_C 	C 	0.88721	0.36371	0.65143	-0.139
Mof_H 	H 	0.888	0.3833	0.6836	0.093
Mof_C 	C 	0.9008	0.37832	0.58924	0.108
Mof_C 	C 	0.89933	0.3494	0.54215	-0.138
Mof_H 	H 	0.9083	0.3593	0.4991	0.081
Mof_C 	C 	0.88453	0.30551	0.5585	0.061
Mof_H 	H 	0.8839	0.2858	0.5266	0.028
Mof_C 	C 	0.91995	0.42549	0.57119	-0.064
Mof_C 	C 	0.9584	0.44557	0.53575	-0.041
Mof_H 	H 	0.9713	0.4286	0.5233	0.045
Mof_C 	C 	0.8101	0.4274	0.5362	-0.024
Mof_C 	C 	0.7881	0.4113	0.6438	0.001
Mof_C 	C 	0.8216	0.422	0.5848	0.051
Mof_O 	O 	0.52416	0.55366	0.92764	-0.409
Mof_O 	O 	0.51138	0.56656	0.02974	-0.404
Mof_C 	C 	0.52308	0.57796	0.9716	0.363
Mof_C 	C 	0.53765	0.62443	0.95394	-0.122
Mof_C 	C 	0.53897	0.65361	0.00034	0.063
Mof_H 	H 	0.52947	0.64363	0.04323	0.028
Mof_C 	C 	0.55388	0.69704	0.98476	-0.138
Mof_H 	H 	0.55467	0.71663	0.01693	0.092
Mof_C 	C 	0.56747	0.71165	0.92257	0.107
Mof_C 	C 	0.566	0.68273	0.87548	-0.137
Mof_H 	H 	0.57497	0.69263	0.83243	0.081
Mof_C 	C 	0.5512	0.63884	0.89183	0.06
Mof_H 	H 	0.55057	0.61913	0.85993	0.028
Mof_C 	C 	0.58662	0.75882	0.90452	-0.064
Mof_C 	C 	0.62507	0.7789	0.86908	-0.041
Mof_H 	H 	0.63797	0.76193	0.85663	0.045
Mof_C 	C 	0.47677	0.76073	0.86953	-0.024
Mof_C 	C 	0.45477	0.74463	0.97713	0.001
Mof_C 	C 	0.48827	0.75533	0.91813	0.051
Mof_O 	O 	0.19082	0.887	0.26098	-0.409
Mof_O 	O 	0.17804	0.8999	0.36308	-0.403
Mof_C 	C 	0.18974	0.9113	0.30494	0.363
Mof_C 	C 	0.20431	0.95777	0.28728	-0.122
Mof_C 	C 	0.20563	0.98695	0.33368	0.063
Mof_H 	H 	0.19613	0.97697	0.37657	0.028
Mof_C 	C 	0.22054	0.03038	0.3181	-0.138
Mof_H 	H 	0.22133	0.04997	0.35027	0.093
Mof_C 	C 	0.23413	0.04499	0.25591	0.107
Mof_C 	C 	0.23266	0.01607	0.20882	-0.137
Mof_H 	H 	0.24163	0.02597	0.16577	0.081
Mof_C 	C 	0.21786	0.97218	0.22517	0.06
Mof_H 	H 	0.21723	0.95247	0.19327	0.028
Mof_C 	C 	0.25328	0.09216	0.23786	-0.064
Mof_C 	C 	0.29173	0.11224	0.20242	-0.041
Mof_H 	H 	0.30463	0.09527	0.18997	0.045
Mof_C 	C 	0.14343	0.09407	0.20287	-0.024
Mof_C 	C 	0.12143	0.07797	0.31047	0.001
Mof_C 	C 	0.15493	0.08867	0.25147	0.051
Mof_O 	O 	0.63716	0.77967	0.40569	-0.409
Mof_O 	O 	0.61148	0.76677	0.30359	-0.404
Mof_C 	C 	0.61178	0.75537	0.36173	0.363
Mof_C 	C 	0.57988	0.7089	0.37939	-0.123
Mof_C 	C 	0.55202	0.67972	0.33299	0.064
Mof_H 	H 	0.5525	0.6897	0.2901	0.028
Mof_C 	C 	0.5235	0.63629	0.34857	-0.139
Mof_H 	H 	0.5047	0.6167	0.3164	0.093
Mof_C 	C 	0.52248	0.62168	0.41076	0.108
Mof_C 	C 	0.54993	0.6506	0.45785	-0.138
Mof_H 	H 	0.549	0.6407	0.5009	0.081
Mof_C 	C 	0.57902	0.69449	0.4415	0.061
Mof_H 	H 	0.5981	0.7142	0.4734	0.028
Mof_C 	C 	0.49446	0.57451	0.42881	-0.064
Mof_C 	C 	0.51283	0.55443	0.46425	-0.041
Mof_H 	H 	0.5427	0.5714	0.4767	0.045
Mof_C 	C 	0.3827	0.5726	0.4638	-0.024
Mof_C 	C 	0.3768	0.5887	0.3562	0.001
Mof_C 	C 	0.3996	0.578	0.4152	0.051
Mof_O 	O 	0.30383	0.113	0.73902	-0.409
Mof_O 	O 	0.27815	0.1001	0.63692	-0.403
Mof_C 	C 	0.27845	0.0887	0.69506	0.363
Mof_C 	C 	0.24655	0.04223	0.71272	-0.122
Mof_C 	C 	0.21869	0.01305	0.66632	0.063
Mof_H 	H 	0.21917	0.02303	0.62343	0.028
Mof_C 	C 	0.19017	0.96962	0.6819	-0.138
Mof_H 	H 	0.17137	0.95003	0.64973	0.093
Mof_C 	C 	0.18915	0.95501	0.74409	0.107
Mof_C 	C 	0.2166	0.98393	0.79118	-0.137
Mof_H 	H 	0.21567	0.97403	0.83423	0.081
Mof_C 	C 	0.24569	0.02782	0.77483	0.06
Mof_H 	H 	0.26477	0.04753	0.80673	0.028
Mof_C 	C 	0.16113	0.90784	0.76214	-0.064
Mof_C 	C 	0.1795	0.88776	0.79758	-0.041
Mof_H 	H 	0.20937	0.90473	0.81003	0.045
Mof_C 	C 	0.04937	0.90593	0.79713	-0.023
Mof_C 	C 	0.04347	0.92203	0.68953	0.001
Mof_C 	C 	0.06627	0.91133	0.74853	0.051
Mof_O 	O 	0.97049	0.44634	0.07236	-0.409
Mof_O 	O 	0.94481	0.43344	0.97026	-0.404
Mof_C 	C 	0.94511	0.42204	0.0284	0.363
Mof_C 	C 	0.91321	0.37557	0.04606	-0.121
Mof_C 	C 	0.88535	0.34639	0.99966	0.061
Mof_H 	H 	0.88583	0.35637	0.95677	0.029
Mof_C 	C 	0.85683	0.30296	0.01524	-0.135
Mof_H 	H 	0.83803	0.28337	0.98307	0.091
Mof_C 	C 	0.85581	0.28835	0.07743	0.106
Mof_C 	C 	0.88326	0.31727	0.12452	-0.136
Mof_H 	H 	0.88233	0.30737	0.16757	0.081
Mof_C 	C 	0.91235	0.36116	0.10817	0.059
Mof_H 	H 	0.93143	0.38087	0.14007	0.028
Mof_C 	C 	0.82779	0.24118	0.09548	-0.063
Mof_C 	C 	0.84616	0.2211	0.13092	-0.041
Mof_H 	H 	0.87603	0.23807	0.14337	0.045
Mof_C 	C 	0.71603	0.23927	0.13047	-0.024
Mof_C 	C 	0.71013	0.25537	0.02287	0.001
Mof_C 	C 	0.73293	0.24467	0.08187	0.051
Mof_O 	O 	0.14251	0.36284	0.40569	-0.409
Mof_O 	O 	0.15529	0.38852	0.30359	-0.404
Mof_C 	C 	0.14359	0.38822	0.36173	0.363
Mof_C 	C 	0.12902	0.42012	0.37939	-0.123
Mof_C 	C 	0.1277	0.44798	0.33299	0.064
Mof_H 	H 	0.1372	0.4475	0.2901	0.028
Mof_C 	C 	0.11279	0.4765	0.34857	-0.139
Mof_H 	H 	0.112	0.4953	0.3164	0.093
Mof_C 	C 	0.0992	0.47752	0.41076	0.108
Mof_C 	C 	0.10067	0.45007	0.45785	-0.138
Mof_H 	H 	0.0917	0.451	0.5009	0.081
Mof_C 	C 	0.11547	0.42098	0.4415	0.061
Mof_H 	H 	0.1161	0.4019	0.4734	0.028
Mof_C 	C 	0.08005	0.50554	0.42881	-0.064
Mof_C 	C 	0.0416	0.48717	0.46425	-0.041
Mof_H 	H 	0.0287	0.4573	0.4767	0.045
Mof_C 	C 	0.1899	0.6173	0.4638	-0.024
Mof_C 	C 	0.2119	0.6232	0.3562	0.001
Mof_C 	C 	0.1784	0.6004	0.4152	0.051
Mof_O 	O 	0.80918	0.69617	0.73902	-0.409
Mof_O 	O 	0.82196	0.72185	0.63692	-0.404
Mof_C 	C 	0.81026	0.72155	0.69506	0.363
Mof_C 	C 	0.79569	0.75345	0.71272	-0.123
Mof_C 	C 	0.79437	0.78131	0.66632	0.064
Mof_H 	H 	0.80387	0.78083	0.62343	0.028
Mof_C 	C 	0.77946	0.80983	0.6819	-0.139
Mof_H 	H 	0.77867	0.82863	0.64973	0.093
Mof_C 	C 	0.76587	0.81085	0.74409	0.108
Mof_C 	C 	0.76734	0.7834	0.79118	-0.138
Mof_H 	H 	0.75837	0.78433	0.83423	0.081
Mof_C 	C 	0.78214	0.75431	0.77483	0.061
Mof_H 	H 	0.78277	0.73523	0.80673	0.028
Mof_C 	C 	0.74672	0.83887	0.76214	-0.064
Mof_C 	C 	0.70827	0.8205	0.79758	-0.041
Mof_H 	H 	0.69537	0.79063	0.81003	0.045
Mof_C 	C 	0.85657	0.95063	0.79713	-0.024
Mof_C 	C 	0.87857	0.95653	0.68953	0.001
Mof_C 	C 	0.84507	0.93373	0.74853	0.051
Mof_O 	O 	0.47584	0.02951	0.07236	-0.409
Mof_O 	O 	0.48862	0.05519	0.97026	-0.404
Mof_C 	C 	0.47692	0.05489	0.0284	0.363
Mof_C 	C 	0.46235	0.08679	0.04606	-0.122
Mof_C 	C 	0.46103	0.11465	0.99966	0.062
Mof_H 	H 	0.47053	0.11417	0.95677	0.029
Mof_C 	C 	0.44612	0.14317	0.01524	-0.137
Mof_H 	H 	0.44533	0.16197	0.98307	0.092
Mof_C 	C 	0.43253	0.14419	0.07743	0.107
Mof_C 	C 	0.434	0.11674	0.12452	-0.137
Mof_H 	H 	0.42503	0.11767	0.16757	0.081
Mof_C 	C 	0.4488	0.08765	0.10817	0.06
Mof_H 	H 	0.44943	0.06857	0.14007	0.028
Mof_C 	C 	0.41338	0.17221	0.09548	-0.064
Mof_C 	C 	0.37493	0.15384	0.13092	-0.041
Mof_H 	H 	0.36203	0.12397	0.14337	0.045
Mof_C 	C 	0.52323	0.28397	0.13047	-0.024
Mof_C 	C 	0.54523	0.28987	0.02287	0.001
Mof_C 	C 	0.51173	0.26707	0.08187	0.051
Mof_O 	O 	0.22033	0.85749	0.40569	-0.409
Mof_O 	O 	0.23323	0.84471	0.30359	-0.404
Mof_C 	C 	0.24463	0.85641	0.36173	0.363
Mof_C 	C 	0.2911	0.87098	0.37939	-0.123
Mof_C 	C 	0.32028	0.8723	0.33299	0.064
Mof_H 	H 	0.3103	0.8628	0.2901	0.028
Mof_C 	C 	0.36371	0.88721	0.34857	-0.139
Mof_H 	H 	0.3833	0.888	0.3164	0.093
Mof_C 	C 	0.37832	0.9008	0.41076	0.108
Mof_C 	C 	0.3494	0.89933	0.45785	-0.138
Mof_H 	H 	0.3593	0.9083	0.5009	0.081
Mof_C 	C 	0.30551	0.88453	0.4415	0.061
Mof_H 	H 	0.2858	0.8839	0.4734	0.028
Mof_C 	C 	0.42549	0.91995	0.42881	-0.064
Mof_C 	C 	0.44557	0.9584	0.46425	-0.041
Mof_H 	H 	0.4286	0.9713	0.4767	0.045
Mof_C 	C 	0.4274	0.8101	0.4638	-0.024
Mof_C 	C 	0.4113	0.7881	0.3562	0.001
Mof_C 	C 	0.422	0.8216	0.4152	0.051
Mof_O 	O 	0.887	0.19082	0.73902	-0.409
Mof_O 	O 	0.8999	0.17804	0.63692	-0.403
Mof_C 	C 	0.9113	0.18974	0.69506	0.363
Mof_C 	C 	0.95777	0.20431	0.71272	-0.122
Mof_C 	C 	0.98695	0.20563	0.66632	0.063
Mof_H 	H 	0.97697	0.19613	0.62343	0.028
Mof_C 	C 	0.03038	0.22054	0.6819	-0.138
Mof_H 	H 	0.04997	0.22133	0.64973	0.093
Mof_C 	C 	0.04499	0.23413	0.74409	0.107
Mof_C 	C 	0.01607	0.23266	0.79118	-0.137
Mof_H 	H 	0.02597	0.24163	0.83423	0.081
Mof_C 	C 	0.97218	0.21786	0.77483	0.06
Mof_H 	H 	0.95247	0.21723	0.80673	0.028
Mof_C 	C 	0.09216	0.25328	0.76214	-0.064
Mof_C 	C 	0.11224	0.29173	0.79758	-0.041
Mof_H 	H 	0.09527	0.30463	0.81003	0.045
Mof_C 	C 	0.09407	0.14343	0.79713	-0.024
Mof_C 	C 	0.07797	0.12143	0.68953	0.001
Mof_C 	C 	0.08867	0.15493	0.74853	0.051
Mof_O 	O 	0.55366	0.52416	0.07236	-0.409
Mof_O 	O 	0.56656	0.51138	0.97026	-0.404
Mof_C 	C 	0.57796	0.52308	0.0284	0.363
Mof_C 	C 	0.62443	0.53765	0.04606	-0.122
Mof_C 	C 	0.65361	0.53897	0.99966	0.063
Mof_H 	H 	0.64363	0.52947	0.95677	0.028
Mof_C 	C 	0.69704	0.55388	0.01524	-0.138
Mof_H 	H 	0.71663	0.55467	0.98307	0.092
Mof_C 	C 	0.71165	0.56747	0.07743	0.107
Mof_C 	C 	0.68273	0.566	0.12452	-0.137
Mof_H 	H 	0.69263	0.57497	0.16757	0.081
Mof_C 	C 	0.63884	0.5512	0.10817	0.06
Mof_H 	H 	0.61913	0.55057	0.14007	0.028
Mof_C 	C 	0.75882	0.58662	0.09548	-0.064
Mof_C 	C 	0.7789	0.62507	0.13092	-0.041
Mof_H 	H 	0.76193	0.63797	0.14337	0.045
Mof_C 	C 	0.76073	0.47677	0.13047	-0.024
Mof_C 	C 	0.74463	0.45477	0.02287	0.001
Mof_C 	C 	0.75533	0.48827	0.08187	0.051
Mof_O 	O 	0.22033	0.36284	0.40569	-0.409
Mof_O 	O 	0.23323	0.38852	0.30359	-0.404
Mof_C 	C 	0.24463	0.38822	0.36173	0.363
Mof_C 	C 	0.2911	0.42012	0.37939	-0.123
Mof_C 	C 	0.32028	0.44798	0.33299	0.064
Mof_H 	H 	0.3103	0.4475	0.2901	0.028
Mof_C 	C 	0.36371	0.4765	0.34857	-0.139
Mof_H 	H 	0.3833	0.4953	0.3164	0.093
Mof_C 	C 	0.37832	0.47752	0.41076	0.108
Mof_C 	C 	0.3494	0.45007	0.45785	-0.138
Mof_H 	H 	0.3593	0.451	0.5009	0.081
Mof_C 	C 	0.30551	0.42098	0.4415	0.061
Mof_H 	H 	0.2858	0.4019	0.4734	0.028
Mof_C 	C 	0.42549	0.50554	0.42881	-0.064
Mof_C 	C 	0.44557	0.48717	0.46425	-0.041
Mof_H 	H 	0.4286	0.4573	0.4767	0.045
Mof_C 	C 	0.4274	0.6173	0.4638	-0.024
Mof_C 	C 	0.4113	0.6232	0.3562	0.001
Mof_C 	C 	0.422	0.6004	0.4152	0.051
Mof_O 	O 	0.887	0.69617	0.73902	-0.409
Mof_O 	O 	0.8999	0.72185	0.63692	-0.403
Mof_C 	C 	0.9113	0.72155	0.69506	0.363
Mof_C 	C 	0.95777	0.75345	0.71272	-0.122
Mof_C 	C 	0.98695	0.78131	0.66632	0.063
Mof_H 	H 	0.97697	0.78083	0.62343	0.028
Mof_C 	C 	0.03038	0.80983	0.6819	-0.138
Mof_H 	H 	0.04997	0.82863	0.64973	0.093
Mof_C 	C 	0.04499	0.81085	0.74409	0.107
Mof_C 	C 	0.01607	0.7834	0.79118	-0.137
Mof_H 	H 	0.02597	0.78433	0.83423	0.081
Mof_C 	C 	0.97218	0.75431	0.77483	0.06
Mof_H 	H 	0.95247	0.73523	0.80673	0.028
Mof_C 	C 	0.09216	0.83887	0.76214	-0.064
Mof_C 	C 	0.11224	0.8205	0.79758	-0.041
Mof_H 	H 	0.09527	0.79063	0.81003	0.045
Mof_C 	C 	0.09407	0.95063	0.79713	-0.023
Mof_C 	C 	0.07797	0.95653	0.68953	0.001
Mof_C 	C 	0.08867	0.93373	0.74853	0.051
Mof_O 	O 	0.55366	0.02951	0.07236	-0.409
Mof_O 	O 	0.56656	0.05519	0.97026	-0.404
Mof_C 	C 	0.57796	0.05489	0.0284	0.363
Mof_C 	C 	0.62443	0.08679	0.04606	-0.121
Mof_C 	C 	0.65361	0.11465	0.99966	0.061
Mof_H 	H 	0.64363	0.11417	0.95677	0.029
Mof_C 	C 	0.69704	0.14317	0.01524	-0.135
Mof_H 	H 	0.71663	0.16197	0.98307	0.091
Mof_C 	C 	0.71165	0.14419	0.07743	0.106
Mof_C 	C 	0.68273	0.11674	0.12452	-0.136
Mof_H 	H 	0.69263	0.11767	0.16757	0.081
Mof_C 	C 	0.63884	0.08765	0.10817	0.059
Mof_H 	H 	0.61913	0.06857	0.14007	0.028
Mof_C 	C 	0.75882	0.17221	0.09548	-0.063
Mof_C 	C 	0.7789	0.15384	0.13092	-0.041
Mof_H 	H 	0.76193	0.12397	0.14337	0.045
Mof_C 	C 	0.76073	0.28397	0.13047	-0.024
Mof_C 	C 	0.74463	0.28987	0.02287	0.001
Mof_C 	C 	0.75533	0.26707	0.08187	0.051
Mof_O 	O 	0.63716	0.85749	0.40569	-0.409
Mof_O 	O 	0.61148	0.84471	0.30359	-0.404
Mof_C 	C 	0.61178	0.85641	0.36173	0.363
Mof_C 	C 	0.57988	0.87098	0.37939	-0.123
Mof_C 	C 	0.55202	0.8723	0.33299	0.064
Mof_H 	H 	0.5525	0.8628	0.2901	0.028
Mof_C 	C 	0.5235	0.88721	0.34857	-0.139
Mof_H 	H 	0.5047	0.888	0.3164	0.093
Mof_C 	C 	0.52248	0.9008	0.41076	0.108
Mof_C 	C 	0.54993	0.89933	0.45785	-0.138
Mof_H 	H 	0.549	0.9083	0.5009	0.081
Mof_C 	C 	0.57902	0.88453	0.4415	0.061
Mof_H 	H 	0.5981	0.8839	0.4734	0.028
Mof_C 	C 	0.49446	0.91995	0.42881	-0.064
Mof_C 	C 	0.51283	0.9584	0.46425	-0.041
Mof_H 	H 	0.5427	0.9713	0.4767	0.045
Mof_C 	C 	0.3827	0.8101	0.4638	-0.024
Mof_C 	C 	0.3768	0.7881	0.3562	0.001
Mof_C 	C 	0.3996	0.8216	0.4152	0.051
Mof_O 	O 	0.30383	0.19082	0.73902	-0.409
Mof_O 	O 	0.27815	0.17804	0.63692	-0.404
Mof_C 	C 	0.27845	0.18974	0.69506	0.363
Mof_C 	C 	0.24655	0.20431	0.71272	-0.123
Mof_C 	C 	0.21869	0.20563	0.66632	0.064
Mof_H 	H 	0.21917	0.19613	0.62343	0.028
Mof_C 	C 	0.19017	0.22054	0.6819	-0.139
Mof_H 	H 	0.17137	0.22133	0.64973	0.093
Mof_C 	C 	0.18915	0.23413	0.74409	0.108
Mof_C 	C 	0.2166	0.23266	0.79118	-0.138
Mof_H 	H 	0.21567	0.24163	0.83423	0.081
Mof_C 	C 	0.24569	0.21786	0.77483	0.061
Mof_H 	H 	0.26477	0.21723	0.80673	0.028
Mof_C 	C 	0.16113	0.25328	0.76214	-0.064
Mof_C 	C 	0.1795	0.29173	0.79758	-0.041
Mof_H 	H 	0.20937	0.30463	0.81003	0.045
Mof_C 	C 	0.04937	0.14343	0.79713	-0.024
Mof_C 	C 	0.04347	0.12143	0.68953	0.001
Mof_C 	C 	0.06627	0.15493	0.74853	0.051
Mof_O 	O 	0.97049	0.52416	0.07236	-0.409
Mof_O 	O 	0.94481	0.51138	0.97026	-0.404
Mof_C 	C 	0.94511	0.52308	0.0284	0.363
Mof_C 	C 	0.91321	0.53765	0.04606	-0.122
Mof_C 	C 	0.88535	0.53897	0.99966	0.062
Mof_H 	H 	0.88583	0.52947	0.95677	0.029
Mof_C 	C 	0.85683	0.55388	0.01524	-0.137
Mof_H 	H 	0.83803	0.55467	0.98307	0.092
Mof_C 	C 	0.85581	0.56747	0.07743	0.107
Mof_C 	C 	0.88326	0.566	0.12452	-0.137
Mof_H 	H 	0.88233	0.57497	0.16757	0.081
Mof_C 	C 	0.91235	0.5512	0.10817	0.06
Mof_H 	H 	0.93143	0.55057	0.14007	0.028
Mof_C 	C 	0.82779	0.58662	0.09548	-0.064
Mof_C 	C 	0.84616	0.62507	0.13092	-0.041
Mof_H 	H 	0.87603	0.63797	0.14337	0.045
Mof_C 	C 	0.71603	0.47677	0.13047	-0.024
Mof_C 	C 	0.71013	0.45477	0.02287	0.001
Mof_C 	C 	0.73293	0.48827	0.08187	0.051
Mof_O 	O 	0.14251	0.77967	0.40569	-0.409
Mof_O 	O 	0.15529	0.76677	0.30359	-0.404
Mof_C 	C 	0.14359	0.75537	0.36173	0.363
Mof_C 	C 	0.12902	0.7089	0.37939	-0.123
Mof_C 	C 	0.1277	0.67972	0.33299	0.064
Mof_H 	H 	0.1372	0.6897	0.2901	0.028
Mof_C 	C 	0.11279	0.63629	0.34857	-0.139
Mof_H 	H 	0.112	0.6167	0.3164	0.093
Mof_C 	C 	0.0992	0.62168	0.41076	0.108
Mof_C 	C 	0.10067	0.6506	0.45785	-0.138
Mof_H 	H 	0.0917	0.6407	0.5009	0.081
Mof_C 	C 	0.11547	0.69449	0.4415	0.061
Mof_H 	H 	0.1161	0.7142	0.4734	0.028
Mof_C 	C 	0.08005	0.57451	0.42881	-0.064
Mof_C 	C 	0.0416	0.55443	0.46425	-0.041
Mof_H 	H 	0.0287	0.5714	0.4767	0.045
Mof_C 	C 	0.1899	0.5726	0.4638	-0.024
Mof_C 	C 	0.2119	0.5887	0.3562	0.001
Mof_C 	C 	0.1784	0.578	0.4152	0.051
Mof_O 	O 	0.80918	0.113	0.73902	-0.409
Mof_O 	O 	0.82196	0.1001	0.63692	-0.403
Mof_C 	C 	0.81026	0.0887	0.69506	0.363
Mof_C 	C 	0.79569	0.04223	0.71272	-0.122
Mof_C 	C 	0.79437	0.01305	0.66632	0.063
Mof_H 	H 	0.80387	0.02303	0.62343	0.028
Mof_C 	C 	0.77946	0.96962	0.6819	-0.138
Mof_H 	H 	0.77867	0.95003	0.64973	0.093
Mof_C 	C 	0.76587	0.95501	0.74409	0.107
Mof_C 	C 	0.76734	0.98393	0.79118	-0.137
Mof_H 	H 	0.75837	0.97403	0.83423	0.081
Mof_C 	C 	0.78214	0.02782	0.77483	0.06
Mof_H 	H 	0.78277	0.04753	0.80673	0.028
Mof_C 	C 	0.74672	0.90784	0.76214	-0.064
Mof_C 	C 	0.70827	0.88776	0.79758	-0.041
Mof_H 	H 	0.69537	0.90473	0.81003	0.045
Mof_C 	C 	0.85657	0.90593	0.79713	-0.024
Mof_C 	C 	0.87857	0.92203	0.68953	0.001
Mof_C 	C 	0.84507	0.91133	0.74853	0.051
Mof_O 	O 	0.47584	0.44634	0.07236	-0.409
Mof_O 	O 	0.48862	0.43344	0.97026	-0.404
Mof_C 	C 	0.47692	0.42204	0.0284	0.363
Mof_C 	C 	0.46235	0.37557	0.04606	-0.122
Mof_C 	C 	0.46103	0.34639	0.99966	0.063
Mof_H 	H 	0.47053	0.35637	0.95677	0.028
Mof_C 	C 	0.44612	0.30296	0.01524	-0.138
Mof_H 	H 	0.44533	0.28337	0.98307	0.092
Mof_C 	C 	0.43253	0.28835	0.07743	0.107
Mof_C 	C 	0.434	0.31727	0.12452	-0.137
Mof_H 	H 	0.42503	0.30737	0.16757	0.081
Mof_C 	C 	0.4488	0.36116	0.10817	0.06
Mof_H 	H 	0.44943	0.38087	0.14007	0.028
Mof_C 	C 	0.41338	0.24118	0.09548	-0.064
Mof_C 	C 	0.37493	0.2211	0.13092	-0.041
Mof_H 	H 	0.36203	0.23807	0.14337	0.045
Mof_C 	C 	0.52323	0.23927	0.13047	-0.024
Mof_C 	C 	0.54523	0.25537	0.02287	0.001
Mof_C 	C 	0.51173	0.24467	0.08187	0.051
Mof_O 	O 	0.36284	0.22033	0.59431	-0.409
Mof_O 	O 	0.38852	0.23323	0.69641	-0.404
Mof_C 	C 	0.38822	0.24463	0.63827	0.363
Mof_C 	C 	0.42012	0.2911	0.62061	-0.123
Mof_C 	C 	0.44798	0.32028	0.66701	0.064
Mof_H 	H 	0.4475	0.3103	0.7099	0.028
Mof_C 	C 	0.4765	0.36371	0.65143	-0.139
Mof_H 	H 	0.4953	0.3833	0.6836	0.093
Mof_C 	C 	0.47752	0.37832	0.58924	0.108
Mof_C 	C 	0.45007	0.3494	0.54215	-0.138
Mof_H 	H 	0.451	0.3593	0.4991	0.081
Mof_C 	C 	0.42098	0.30551	0.5585	0.061
Mof_H 	H 	0.4019	0.2858	0.5266	0.028
Mof_C 	C 	0.50554	0.42549	0.57119	-0.064
Mof_C 	C 	0.48717	0.44557	0.53575	-0.041
Mof_H 	H 	0.4573	0.4286	0.5233	0.045
Mof_C 	C 	0.6173	0.4274	0.5362	-0.024
Mof_C 	C 	0.6232	0.4113	0.6438	0.001
Mof_C 	C 	0.6004	0.422	0.5848	0.051
Mof_O 	O 	0.02951	0.55366	0.92764	-0.409
Mof_O 	O 	0.05519	0.56656	0.02974	-0.404
Mof_C 	C 	0.05489	0.57796	0.9716	0.363
Mof_C 	C 	0.08679	0.62443	0.95394	-0.121
Mof_C 	C 	0.11465	0.65361	0.00034	0.061
Mof_H 	H 	0.11417	0.64363	0.04323	0.029
Mof_C 	C 	0.14317	0.69704	0.98476	-0.135
Mof_H 	H 	0.16197	0.71663	0.01693	0.091
Mof_C 	C 	0.14419	0.71165	0.92257	0.106
Mof_C 	C 	0.11674	0.68273	0.87548	-0.136
Mof_H 	H 	0.11767	0.69263	0.83243	0.081
Mof_C 	C 	0.08765	0.63884	0.89183	0.059
Mof_H 	H 	0.06857	0.61913	0.85993	0.028
Mof_C 	C 	0.17221	0.75882	0.90452	-0.063
Mof_C 	C 	0.15384	0.7789	0.86908	-0.041
Mof_H 	H 	0.12397	0.76193	0.85663	0.045
Mof_C 	C 	0.28397	0.76073	0.86953	-0.024
Mof_C 	C 	0.28987	0.74463	0.97713	0.001
Mof_C 	C 	0.26707	0.75533	0.91813	0.051
Mof_O 	O 	0.69617	0.887	0.26098	-0.409
Mof_O 	O 	0.72185	0.8999	0.36308	-0.403
Mof_C 	C 	0.72155	0.9113	0.30494	0.363
Mof_C 	C 	0.75345	0.95777	0.28728	-0.122
Mof_C 	C 	0.78131	0.98695	0.33368	0.063
Mof_H 	H 	0.78083	0.97697	0.37657	0.028
Mof_C 	C 	0.80983	0.03038	0.3181	-0.138
Mof_H 	H 	0.82863	0.04997	0.35027	0.093
Mof_C 	C 	0.81085	0.04499	0.25591	0.107
Mof_C 	C 	0.7834	0.01607	0.20882	-0.137
Mof_H 	H 	0.78433	0.02597	0.16577	0.081
Mof_C 	C 	0.75431	0.97218	0.22517	0.06
Mof_H 	H 	0.73523	0.95247	0.19327	0.028
Mof_C 	C 	0.83887	0.09216	0.23786	-0.064
Mof_C 	C 	0.8205	0.11224	0.20242	-0.041
Mof_H 	H 	0.79063	0.09527	0.18997	0.045
Mof_C 	C 	0.95063	0.09407	0.20287	-0.023
Mof_C 	C 	0.95653	0.07797	0.31047	0.001
Mof_C 	C 	0.93373	0.08867	0.25147	0.051
Mof_O 	O 	0.85749	0.63716	0.59431	-0.409
Mof_O 	O 	0.84471	0.61148	0.69641	-0.404
Mof_C 	C 	0.85641	0.61178	0.63827	0.363
Mof_C 	C 	0.87098	0.57988	0.62061	-0.123
Mof_C 	C 	0.8723	0.55202	0.66701	0.064
Mof_H 	H 	0.8628	0.5525	0.7099	0.028
Mof_C 	C 	0.88721	0.5235	0.65143	-0.139
Mof_H 	H 	0.888	0.5047	0.6836	0.093
Mof_C 	C 	0.9008	0.52248	0.58924	0.108
Mof_C 	C 	0.89933	0.54993	0.54215	-0.138
Mof_H 	H 	0.9083	0.549	0.4991	0.081
Mof_C 	C 	0.88453	0.57902	0.5585	0.061
Mof_H 	H 	0.8839	0.5981	0.5266	0.028
Mof_C 	C 	0.91995	0.49446	0.57119	-0.064
Mof_C 	C 	0.9584	0.51283	0.53575	-0.041
Mof_H 	H 	0.9713	0.5427	0.5233	0.045
Mof_C 	C 	0.8101	0.3827	0.5362	-0.024
Mof_C 	C 	0.7881	0.3768	0.6438	0.001
Mof_C 	C 	0.8216	0.3996	0.5848	0.051
Mof_O 	O 	0.52416	0.97049	0.92764	-0.409
Mof_O 	O 	0.51138	0.94481	0.02974	-0.404
Mof_C 	C 	0.52308	0.94511	0.9716	0.363
Mof_C 	C 	0.53765	0.91321	0.95394	-0.122
Mof_C 	C 	0.53897	0.88535	0.00034	0.062
Mof_H 	H 	0.52947	0.88583	0.04323	0.029
Mof_C 	C 	0.55388	0.85683	0.98476	-0.137
Mof_H 	H 	0.55467	0.83803	0.01693	0.092
Mof_C 	C 	0.56747	0.85581	0.92257	0.107
Mof_C 	C 	0.566	0.88326	0.87548	-0.137
Mof_H 	H 	0.57497	0.88233	0.83243	0.081
Mof_C 	C 	0.5512	0.91235	0.89183	0.06
Mof_H 	H 	0.55057	0.93143	0.85993	0.028
Mof_C 	C 	0.58662	0.82779	0.90452	-0.064
Mof_C 	C 	0.62507	0.84616	0.86908	-0.041
Mof_H 	H 	0.63797	0.87603	0.85663	0.045
Mof_C 	C 	0.47677	0.71603	0.86953	-0.024
Mof_C 	C 	0.45477	0.71013	0.97713	0.001
Mof_C 	C 	0.48827	0.73293	0.91813	0.051
Mof_O 	O 	0.19082	0.30383	0.26098	-0.409
Mof_O 	O 	0.17804	0.27815	0.36308	-0.404
Mof_C 	C 	0.18974	0.27845	0.30494	0.363
Mof_C 	C 	0.20431	0.24655	0.28728	-0.123
Mof_C 	C 	0.20563	0.21869	0.33368	0.064
Mof_H 	H 	0.19613	0.21917	0.37657	0.028
Mof_C 	C 	0.22054	0.19017	0.3181	-0.139
Mof_H 	H 	0.22133	0.17137	0.35027	0.093
Mof_C 	C 	0.23413	0.18915	0.25591	0.108
Mof_C 	C 	0.23266	0.2166	0.20882	-0.138
Mof_H 	H 	0.24163	0.21567	0.16577	0.081
Mof_C 	C 	0.21786	0.24569	0.22517	0.061
Mof_H 	H 	0.21723	0.26477	0.19327	0.028
Mof_C 	C 	0.25328	0.16113	0.23786	-0.064
Mof_C 	C 	0.29173	0.1795	0.20242	-0.041
Mof_H 	H 	0.30463	0.20937	0.18997	0.045
Mof_C 	C 	0.14343	0.04937	0.20287	-0.024
Mof_C 	C 	0.12143	0.04347	0.31047	0.001
Mof_C 	C 	0.15493	0.06627	0.25147	0.051
Mof_O 	O 	0.77967	0.14251	0.59431	-0.409
Mof_O 	O 	0.76677	0.15529	0.69641	-0.404
Mof_C 	C 	0.75537	0.14359	0.63827	0.363
Mof_C 	C 	0.7089	0.12902	0.62061	-0.123
Mof_C 	C 	0.67972	0.1277	0.66701	0.064
Mof_H 	H 	0.6897	0.1372	0.7099	0.028
Mof_C 	C 	0.63629	0.11279	0.65143	-0.139
Mof_H 	H 	0.6167	0.112	0.6836	0.093
Mof_C 	C 	0.62168	0.0992	0.58924	0.108
Mof_C 	C 	0.6506	0.10067	0.54215	-0.138
Mof_H 	H 	0.6407	0.0917	0.4991	0.081
Mof_C 	C 	0.69449	0.11547	0.5585	0.061
Mof_H 	H 	0.7142	0.1161	0.5266	0.028
Mof_C 	C 	0.57451	0.08005	0.57119	-0.064
Mof_C 	C 	0.55443	0.0416	0.53575	-0.041
Mof_H 	H 	0.5714	0.0287	0.5233	0.045
Mof_C 	C 	0.5726	0.1899	0.5362	-0.024
Mof_C 	C 	0.5887	0.2119	0.6438	0.001
Mof_C 	C 	0.578	0.1784	0.5848	0.051
Mof_O 	O 	0.44634	0.47584	0.92764	-0.409
Mof_O 	O 	0.43344	0.48862	0.02974	-0.404
Mof_C 	C 	0.42204	0.47692	0.9716	0.363
Mof_C 	C 	0.37557	0.46235	0.95394	-0.122
Mof_C 	C 	0.34639	0.46103	0.00034	0.063
Mof_H 	H 	0.35637	0.47053	0.04323	0.028
Mof_C 	C 	0.30296	0.44612	0.98476	-0.138
Mof_H 	H 	0.28337	0.44533	0.01693	0.092
Mof_C 	C 	0.28835	0.43253	0.92257	0.107
Mof_C 	C 	0.31727	0.434	0.87548	-0.137
Mof_H 	H 	0.30737	0.42503	0.83243	0.081
Mof_C 	C 	0.36116	0.4488	0.89183	0.06
Mof_H 	H 	0.38087	0.44943	0.85993	0.028
Mof_C 	C 	0.24118	0.41338	0.90452	-0.064
Mof_C 	C 	0.2211	0.37493	0.86908	-0.041
Mof_H 	H 	0.23807	0.36203	0.85663	0.045
Mof_C 	C 	0.23927	0.52323	0.86953	-0.024
Mof_C 	C 	0.25537	0.54523	0.97713	0.001
Mof_C 	C 	0.24467	0.51173	0.91813	0.051
Mof_O 	O 	0.113	0.80918	0.26098	-0.409
Mof_O 	O 	0.1001	0.82196	0.36308	-0.403
Mof_C 	C 	0.0887	0.81026	0.30494	0.363
Mof_C 	C 	0.04223	0.79569	0.28728	-0.122
Mof_C 	C 	0.01305	0.79437	0.33368	0.063
Mof_H 	H 	0.02303	0.80387	0.37657	0.028
Mof_C 	C 	0.96962	0.77946	0.3181	-0.138
Mof_H 	H 	0.95003	0.77867	0.35027	0.093
Mof_C 	C 	0.95501	0.76587	0.25591	0.107
Mof_C 	C 	0.98393	0.76734	0.20882	-0.137
Mof_H 	H 	0.97403	0.75837	0.16577	0.081
Mof_C 	C 	0.02782	0.78214	0.22517	0.06
Mof_H 	H 	0.04753	0.78277	0.19327	0.028
Mof_C 	C 	0.90784	0.74672	0.23786	-0.064
Mof_C 	C 	0.88776	0.70827	0.20242	-0.041
Mof_H 	H 	0.90473	0.69537	0.18997	0.045
Mof_C 	C 	0.90593	0.85657	0.20287	-0.024
Mof_C 	C 	0.92203	0.87857	0.31047	0.001
Mof_C 	C 	0.91133	0.84507	0.25147	0.051
Mof_Cu	Cu	0.82593	0.65187	0.72659	0.907
Mof_Cu	Cu	0.4926	0.9852	0.05992	0.907
Mof_Cu	Cu	0.15927	0.31854	0.39326	0.907
Mof_Cu	Cu	0.34813	0.17406	0.72659	0.907
Mof_Cu	Cu	0.0148	0.5074	0.05992	0.907
Mof_Cu	Cu	0.68146	0.84073	0.39326	0.907
Mof_Cu	Cu	0.82593	0.17407	0.72659	0.907
Mof_Cu	Cu	0.4926	0.5074	0.05992	0.907
Mof_Cu	Cu	0.15927	0.84073	0.39326	0.907
Mof_Cu	Cu	0.65187	0.82593	0.27341	0.907
Mof_Cu	Cu	0.31854	0.15927	0.60674	0.907
Mof_Cu	Cu	0.9852	0.4926	0.94008	0.907
Mof_Cu	Cu	0.17406	0.34813	0.27341	0.907
Mof_Cu	Cu	0.84073	0.68146	0.60674	0.907
Mof_Cu	Cu	0.5074	0.0148	0.94008	0.907
Mof_Cu	Cu	0.17407	0.82594	0.27341	0.907
Mof_Cu	Cu	0.84073	0.15927	0.60674	0.907
Mof_Cu	Cu	0.5074	0.4926	0.94008	0.907
Mof_O 	O 	0.56898	0.43102	0.62396	-0.218
Mof_C 	C 	0.51042	0.48958	0.5174	0.007
Mof_C 	C 	0.5498	0.4502	0.5896	0.139
Mof_O 	O 	0.23565	0.76435	0.95729	-0.218
Mof_C 	C 	0.17709	0.82291	0.85073	0.007
Mof_C 	C 	0.21647	0.78353	0.92293	0.138
Mof_O 	O 	0.90231	0.09769	0.29063	-0.218
Mof_C 	C 	0.84375	0.15625	0.18407	0.007
Mof_C 	C 	0.88313	0.11687	0.25627	0.139
Mof_O 	O 	0.56898	0.13796	0.62396	-0.218
Mof_C 	C 	0.51042	0.02084	0.5174	0.007
Mof_C 	C 	0.5498	0.0996	0.5896	0.139
Mof_O 	O 	0.23565	0.47129	0.95729	-0.218
Mof_C 	C 	0.17709	0.35417	0.85073	0.007
Mof_C 	C 	0.21647	0.43293	0.92293	0.139
Mof_O 	O 	0.90231	0.80463	0.29063	-0.218
Mof_C 	C 	0.84375	0.68751	0.18407	0.007
Mof_C 	C 	0.88313	0.76627	0.25627	0.139
Mof_O 	O 	0.86204	0.43102	0.62396	-0.218
Mof_C 	C 	0.97916	0.48958	0.5174	0.007
Mof_C 	C 	0.9004	0.4502	0.5896	0.139
Mof_O 	O 	0.52871	0.76435	0.95729	-0.218
Mof_C 	C 	0.64583	0.82291	0.85073	0.007
Mof_C 	C 	0.56707	0.78353	0.92293	0.139
Mof_O 	O 	0.19537	0.09769	0.29063	-0.218
Mof_C 	C 	0.31249	0.15625	0.18407	0.007
Mof_C 	C 	0.23373	0.11687	0.25627	0.139
Mof_O 	O 	0.43102	0.56898	0.37604	-0.218
Mof_C 	C 	0.48958	0.51042	0.4826	0.007
Mof_C 	C 	0.4502	0.5498	0.4104	0.139
Mof_O 	O 	0.09769	0.90231	0.70937	-0.218
Mof_C 	C 	0.15625	0.84375	0.81593	0.007
Mof_C 	C 	0.11687	0.88313	0.74373	0.139
Mof_O 	O 	0.76435	0.23565	0.04271	-0.218
Mof_C 	C 	0.82291	0.17709	0.14927	0.007
Mof_C 	C 	0.78353	0.21647	0.07707	0.138
Mof_O 	O 	0.13796	0.56898	0.37604	-0.218
Mof_C 	C 	0.02084	0.51042	0.4826	0.007
Mof_C 	C 	0.0996	0.5498	0.4104	0.139
Mof_O 	O 	0.80463	0.90231	0.70937	-0.218
Mof_C 	C 	0.68751	0.84375	0.81593	0.007
Mof_C 	C 	0.76627	0.88313	0.74373	0.139
Mof_O 	O 	0.47129	0.23565	0.04271	-0.218
Mof_C 	C 	0.35417	0.17709	0.14927	0.007
Mof_C 	C 	0.43293	0.21647	0.07707	0.139
Mof_O 	O 	0.43102	0.86204	0.37604	-0.218
Mof_C 	C 	0.48958	0.97916	0.4826	0.007
Mof_C 	C 	0.4502	0.9004	0.4104	0.139
Mof_O 	O 	0.09769	0.19537	0.70937	-0.218
Mof_C 	C 	0.15625	0.31249	0.81593	0.007
Mof_C 	C 	0.11687	0.23373	0.74373	0.139
Mof_O 	O 	0.76435	0.52871	0.04271	-0.218
Mof_C 	C 	0.82291	0.64583	0.14927	0.007
Mof_C 	C 	0.78353	0.56707	0.07707	0.139
_end
