data_functionalizedCrystal
_audit_creation_method	'EQeq! by Chris Wilmer'
_symmetry_space_group_name_H-M	'P1'
_symmetry_Int_Tables_number	1
_symmetry_cell_setting	triclinic
loop_
_symmetry_equiv_pos_as_xyz
  x,y,z
_cell_length_a	13.1187
_cell_length_b	13.3892
_cell_length_c	22.9554
_cell_angle_alpha	90
_cell_angle_beta	90
_cell_angle_gamma	119.334
loop_
_atom_site_label
_atom_site_type_symbol
_atom_site_fract_x
_atom_site_fract_y
_atom_site_fract_z
_atom_site_charge
Mof_Cd	Cd	0.34016	0.65964	0.93522	0.502
Mof_Cd	Cd	0.31948	0.65964	0.56478	0.502
Mof_H 	H 	0.5584	0.5518	0.0814	0.088
Mof_H 	H 	0.8464	0.818	0.8487	0.1
Mof_H 	H 	0.3016	0.594	0.1443	0.097
Mof_H 	H 	0.4939	0.5232	0.2508	0.107
Mof_H 	H 	0.6093	0.5278	0.174	0.023
Mof_H 	H 	0.6819	0.9058	0.8045	0.087
Mof_H 	H 	0.9297	0.2266	0.8408	0.092
Mof_H 	H 	0.091	0.7396	0.8021	0.097
Mof_H 	H 	0.6696	0.0418	0.9581	0.074
Mof_H 	H 	0.0426	0.7744	0.9697	0.07
Mof_H 	H 	0.9003	0.0154	0.6596	0.108
Mof_H 	H 	0.854	0.2066	0.9348	0.039
Mof_H 	H 	0.8878	0.8074	0.9464	0.013
Mof_H 	H 	0.0866	0.348	0.6941	0.095
Mof_H 	H 	0.1297	0.2338	0.545	0.073
Mof_H 	H 	0.9976	0.053	0.5704	0.014
Mof_H 	H 	0.9934	0.5518	0.4186	0.089
Mof_H 	H 	0.9716	0.818	0.6513	0.1
Mof_H 	H 	0.2924	0.594	0.3557	0.097
Mof_H 	H 	0.0293	0.5232	0.2492	0.107
Mof_H 	H 	0.9185	0.5278	0.326	0.023
Mof_H 	H 	0.2239	0.9058	0.6955	0.087
Mof_H 	H 	0.2969	0.2266	0.6592	0.091
Mof_H 	H 	0.6486	0.7396	0.6979	0.097
Mof_H 	H 	0.3722	0.0418	0.5419	0.074
Mof_H 	H 	0.7318	0.7744	0.5303	0.071
Mof_H 	H 	0.1151	0.0154	0.8404	0.108
Mof_H 	H 	0.3526	0.2066	0.5652	0.039
Mof_H 	H 	0.9196	0.8074	0.5536	0.013
Mof_H 	H 	0.2614	0.348	0.8059	0.095
Mof_H 	H 	0.1041	0.2338	0.955	0.073
Mof_H 	H 	0.0554	0.053	0.9296	0.014
Mof_C 	C 	0.3986	0.6022	0.043	0.258
Mof_C 	C 	0.4268	0.581	0.1021	0.017
Mof_C 	C 	0.5162	0.5564	0.1128	-0.107
Mof_C 	C 	0.9028	0.7982	0.8589	-0.16
Mof_C 	C 	0.3631	0.5788	0.1491	-0.139
Mof_C 	C 	0.4773	0.5368	0.2131	-0.183
Mof_C 	C 	0.9584	0.773	0.8174	0.141
Mof_C 	C 	0.3879	0.5544	0.2039	0.166
Mof_C 	C 	0.1713	0.7226	0.903	0.32
Mof_C 	C 	0.5467	0.8516	0.9005	0.315
Mof_C 	C 	0.5451	0.5384	0.1678	0.073
Mof_C 	C 	0.7115	0.9656	0.8311	-0.089
Mof_C 	C 	0.0782	0.7484	0.8874	-0.015
Mof_C 	C 	0.8109	0.066	0.8162	0.115
Mof_C 	C 	0.8642	0.1592	0.8526	-0.117
Mof_C 	C 	0.6532	0.9494	0.8843	-0.039
Mof_C 	C 	0.0496	0.7516	0.8316	-0.115
Mof_C 	C 	0.7055	0.0446	0.9227	-0.048
Mof_C 	C 	0.0206	0.7728	0.9311	-0.073
Mof_C 	C 	0.9838	0.177	0.6877	0.152
Mof_C 	C 	0.9566	0.0898	0.6499	-0.159
Mof_C 	C 	0.8165	0.1486	0.9075	0.01
Mof_C 	C 	0.9295	0.795	0.9172	0.034
Mof_C 	C 	0.0666	0.2868	0.6689	-0.136
Mof_C 	C 	0.1178	0.3078	0.6173	0.001
Mof_C 	C 	0.1995	0.4318	0.6011	0.304
Mof_C 	C 	0.0924	0.2198	0.5809	-0.097
Mof_C 	C 	0.0141	0.1128	0.5959	0.055
Mof_C 	C 	0.2036	0.6022	0.457	0.258
Mof_C 	C 	0.1542	0.581	0.3979	0.018
Mof_C 	C 	0.0402	0.5564	0.3872	-0.108
Mof_C 	C 	0.8954	0.7982	0.6411	-0.161
Mof_C 	C 	0.2157	0.5788	0.3509	-0.139
Mof_C 	C 	0.0595	0.5368	0.2869	-0.183
Mof_C 	C 	0.8146	0.773	0.6826	0.142
Mof_C 	C 	0.1665	0.5544	0.2961	0.166
Mof_C 	C 	0.5513	0.7226	0.597	0.32
Mof_C 	C 	0.3049	0.8516	0.5995	0.315
Mof_C 	C 	0.9933	0.5384	0.3322	0.074
Mof_C 	C 	0.2541	0.9656	0.6689	-0.089
Mof_C 	C 	0.6702	0.7484	0.6126	-0.014
Mof_C 	C 	0.2551	0.066	0.6838	0.114
Mof_C 	C 	0.295	0.1592	0.6474	-0.117
Mof_C 	C 	0.2962	0.9494	0.6157	-0.04
Mof_C 	C 	0.702	0.7516	0.6684	-0.116
Mof_C 	C 	0.3391	0.0446	0.5773	-0.048
Mof_C 	C 	0.7522	0.7728	0.5689	-0.074
Mof_C 	C 	0.1932	0.177	0.8123	0.152
Mof_C 	C 	0.1332	0.0898	0.8501	-0.16
Mof_C 	C 	0.3321	0.1486	0.5925	0.01
Mof_C 	C 	0.8655	0.795	0.5828	0.035
Mof_C 	C 	0.2202	0.2868	0.8311	-0.136
Mof_C 	C 	0.19	0.3078	0.8827	0.001
Mof_C 	C 	0.2323	0.4318	0.8989	0.304
Mof_C 	C 	0.1274	0.2198	0.9191	-0.098
Mof_C 	C 	0.0987	0.1128	0.9041	0.056
Mof_N 	N 	0.3236	0.5524	0.2535	-0.1
Mof_N 	N 	0.9365	0.167	0.7438	-0.096
Mof_N 	N 	0.8571	0.0698	0.7559	-0.082
Mof_N 	N 	0.932	0.769	0.7569	-0.094
Mof_N 	N 	0.2288	0.5524	0.2465	-0.1
Mof_N 	N 	0.2305	0.167	0.7562	-0.096
Mof_N 	N 	0.2127	0.0698	0.7441	-0.082
Mof_N 	N 	0.837	0.769	0.7431	-0.094
Mof_O 	O 	0.3263	0.6376	0.0375	-0.253
Mof_O 	O 	0.4542	0.5946	0.9991	-0.258
Mof_O 	O 	0.4904	0.8556	0.9452	-0.25
Mof_O 	O 	0.5144	0.7644	0.8755	-0.275
Mof_O 	O 	0.2327	0.716	0.8669	-0.266
Mof_O 	O 	0.1878	0.7088	0.9543	-0.271
Mof_O 	O 	0.2527	0.4414	0.5529	-0.266
Mof_O 	O 	0.2073	0.509	0.6266	-0.294
Mof_O 	O 	0.3113	0.6376	0.4625	-0.253
Mof_O 	O 	0.1404	0.5946	0.5009	-0.258
Mof_O 	O 	0.3652	0.8556	0.5548	-0.251
Mof_O 	O 	0.25	0.7644	0.6245	-0.275
Mof_O 	O 	0.4833	0.716	0.6331	-0.266
Mof_O 	O 	0.521	0.7088	0.5457	-0.271
Mof_O 	O 	0.1887	0.4414	0.9471	-0.266
Mof_O 	O 	0.3017	0.509	0.8734	-0.294
Mof_Cd	Cd	0.65984	0.34036	0.43522	0.503
Mof_Cd	Cd	0.68052	0.34036	0.06478	0.503
Mof_H 	H 	0.4416	0.4482	0.5814	0.089
Mof_H 	H 	0.1536	0.182	0.3487	0.1
Mof_H 	H 	0.6984	0.406	0.6443	0.097
Mof_H 	H 	0.5061	0.4768	0.7508	0.107
Mof_H 	H 	0.3907	0.4722	0.674	0.023
Mof_H 	H 	0.3181	0.0942	0.3045	0.087
Mof_H 	H 	0.0703	0.7734	0.3408	0.092
Mof_H 	H 	0.909	0.2604	0.3021	0.097
Mof_H 	H 	0.3304	0.9582	0.4581	0.074
Mof_H 	H 	0.9574	0.2256	0.4697	0.071
Mof_H 	H 	0.0997	0.9846	0.1596	0.108
Mof_H 	H 	0.146	0.7934	0.4348	0.039
Mof_H 	H 	0.1122	0.1926	0.4464	0.013
Mof_H 	H 	0.9134	0.652	0.1941	0.095
Mof_H 	H 	0.8703	0.7662	0.045	0.073
Mof_H 	H 	0.0024	0.947	0.0704	0.013
Mof_H 	H 	0.0066	0.4482	0.9186	0.09
Mof_H 	H 	0.0284	0.182	0.1513	0.1
Mof_H 	H 	0.7076	0.406	0.8557	0.097
Mof_H 	H 	0.9707	0.4768	0.7492	0.108
Mof_H 	H 	0.0815	0.4722	0.826	0.022
Mof_H 	H 	0.7761	0.0942	0.1955	0.087
Mof_H 	H 	0.7031	0.7734	0.1592	0.091
Mof_H 	H 	0.3514	0.2604	0.1979	0.097
Mof_H 	H 	0.6278	0.9582	0.0419	0.074
Mof_H 	H 	0.2682	0.2256	0.0303	0.071
Mof_H 	H 	0.8849	0.9846	0.3404	0.108
Mof_H 	H 	0.6474	0.7934	0.0652	0.039
Mof_H 	H 	0.0804	0.1926	0.0536	0.013
Mof_H 	H 	0.7386	0.652	0.3059	0.095
Mof_H 	H 	0.8959	0.7662	0.455	0.073
Mof_H 	H 	0.9446	0.947	0.4296	0.014
Mof_C 	C 	0.6014	0.3978	0.543	0.258
Mof_C 	C 	0.5732	0.419	0.6021	0.017
Mof_C 	C 	0.4838	0.4436	0.6128	-0.107
Mof_C 	C 	0.0972	0.2018	0.3589	-0.161
Mof_C 	C 	0.6369	0.4212	0.6491	-0.139
Mof_C 	C 	0.5227	0.4632	0.7131	-0.183
Mof_C 	C 	0.0416	0.227	0.3174	0.141
Mof_C 	C 	0.6121	0.4456	0.7039	0.166
Mof_C 	C 	0.8287	0.2774	0.403	0.32
Mof_C 	C 	0.4533	0.1484	0.4005	0.315
Mof_C 	C 	0.4549	0.4616	0.6678	0.073
Mof_C 	C 	0.2885	0.0344	0.3311	-0.089
Mof_C 	C 	0.9218	0.2516	0.3874	-0.015
Mof_C 	C 	0.1891	0.934	0.3162	0.115
Mof_C 	C 	0.1358	0.8408	0.3526	-0.117
Mof_C 	C 	0.3468	0.0506	0.3843	-0.04
Mof_C 	C 	0.9504	0.2484	0.3316	-0.115
Mof_C 	C 	0.2945	0.9554	0.4227	-0.048
Mof_C 	C 	0.9794	0.2272	0.4311	-0.074
Mof_C 	C 	0.0162	0.823	0.1877	0.152
Mof_C 	C 	0.0434	0.9102	0.1499	-0.161
Mof_C 	C 	0.1835	0.8514	0.4075	0.01
Mof_C 	C 	0.0705	0.205	0.4172	0.035
Mof_C 	C 	0.9334	0.7132	0.1689	-0.136
Mof_C 	C 	0.8822	0.6922	0.1173	0.002
Mof_C 	C 	0.8005	0.5682	0.1011	0.304
Mof_C 	C 	0.9076	0.7802	0.0809	-0.099
Mof_C 	C 	0.9859	0.8872	0.0959	0.057
Mof_C 	C 	0.7964	0.3978	0.957	0.257
Mof_C 	C 	0.8458	0.419	0.8979	0.019
Mof_C 	C 	0.9598	0.4436	0.8872	-0.11
Mof_C 	C 	0.1046	0.2018	0.1411	-0.161
Mof_C 	C 	0.7843	0.4212	0.8509	-0.14
Mof_C 	C 	0.9405	0.4632	0.7869	-0.185
Mof_C 	C 	0.1854	0.227	0.1826	0.142
Mof_C 	C 	0.8335	0.4456	0.7961	0.167
Mof_C 	C 	0.4487	0.2774	0.097	0.32
Mof_C 	C 	0.6951	0.1484	0.0995	0.315
Mof_C 	C 	0.0067	0.4616	0.8322	0.076
Mof_C 	C 	0.7459	0.0344	0.1689	-0.089
Mof_C 	C 	0.3298	0.2516	0.1126	-0.014
Mof_C 	C 	0.7449	0.934	0.1838	0.114
Mof_C 	C 	0.705	0.8408	0.1474	-0.117
Mof_C 	C 	0.7038	0.0506	0.1157	-0.039
Mof_C 	C 	0.298	0.2484	0.1684	-0.116
Mof_C 	C 	0.6609	0.9554	0.0773	-0.048
Mof_C 	C 	0.2478	0.2272	0.0689	-0.074
Mof_C 	C 	0.8068	0.823	0.3123	0.152
Mof_C 	C 	0.8668	0.9102	0.3501	-0.16
Mof_C 	C 	0.6679	0.8514	0.0925	0.01
Mof_C 	C 	0.1345	0.205	0.0828	0.035
Mof_C 	C 	0.7798	0.7132	0.3311	-0.136
Mof_C 	C 	0.81	0.6922	0.3827	0.001
Mof_C 	C 	0.7677	0.5682	0.3989	0.304
Mof_C 	C 	0.8726	0.7802	0.4191	-0.098
Mof_C 	C 	0.9013	0.8872	0.4041	0.056
Mof_N 	N 	0.6764	0.4476	0.7535	-0.1
Mof_N 	N 	0.0635	0.833	0.2438	-0.097
Mof_N 	N 	0.1429	0.9302	0.2559	-0.082
Mof_N 	N 	0.068	0.231	0.2569	-0.094
Mof_N 	N 	0.7712	0.4476	0.7465	-0.1
Mof_N 	N 	0.7695	0.833	0.2562	-0.096
Mof_N 	N 	0.7873	0.9302	0.2441	-0.082
Mof_N 	N 	0.163	0.231	0.2431	-0.094
Mof_O 	O 	0.6737	0.3624	0.5375	-0.253
Mof_O 	O 	0.5458	0.4054	0.4991	-0.258
Mof_O 	O 	0.5096	0.1444	0.4452	-0.251
Mof_O 	O 	0.4856	0.2356	0.3755	-0.275
Mof_O 	O 	0.7673	0.284	0.3669	-0.266
Mof_O 	O 	0.8122	0.2912	0.4543	-0.272
Mof_O 	O 	0.7473	0.5586	0.0529	-0.266
Mof_O 	O 	0.7927	0.491	0.1266	-0.294
Mof_O 	O 	0.6887	0.3624	0.9625	-0.253
Mof_O 	O 	0.8596	0.4054	0.0009	-0.258
Mof_O 	O 	0.6348	0.1444	0.0548	-0.25
Mof_O 	O 	0.75	0.2356	0.1245	-0.275
Mof_O 	O 	0.5167	0.284	0.1331	-0.266
Mof_O 	O 	0.479	0.2912	0.0457	-0.271
Mof_O 	O 	0.8113	0.5586	0.4471	-0.266
Mof_O 	O 	0.6983	0.491	0.3734	-0.294
Mof_H 	H 	0.5252	0.5142	0.9741	0.132
Mof_H 	H 	0.6048	0.4682	0.9694	0.13
Mof_H 	H 	0.6974	0.6478	0.9441	0.152
Mof_H 	H 	0.6851	0.571	0.8901	0.152
Mof_H 	H 	0.6011	0.6224	0.897	0.165
Mof_H 	H 	0.4347	0.3402	0.9375	0.163
Mof_H 	H 	0.436	0.4304	0.8934	0.161
Mof_H 	H 	0.5243	0.3842	0.8858	0.156
Mof_C 	C 	0.6431	0.5914	0.9175	-0.368
Mof_C 	C 	0.4834	0.4052	0.9136	-0.372
Mof_N 	N 	0.5642	0.494	0.9487	-0.129
Mof_H 	H 	0.4748	0.4858	0.4741	0.132
Mof_H 	H 	0.3952	0.5318	0.4694	0.13
Mof_H 	H 	0.3026	0.3522	0.4441	0.152
Mof_H 	H 	0.3149	0.429	0.3901	0.152
Mof_H 	H 	0.3989	0.3776	0.397	0.165
Mof_H 	H 	0.5653	0.6598	0.4375	0.163
Mof_H 	H 	0.564	0.5696	0.3934	0.161
Mof_H 	H 	0.4757	0.6158	0.3858	0.156
Mof_C 	C 	0.3569	0.4086	0.4175	-0.368
Mof_C 	C 	0.5166	0.5948	0.4136	-0.372
Mof_N 	N 	0.4358	0.506	0.4487	-0.129
Mof_H 	H 	0.989	0.5142	0.5259	0.132
Mof_H 	H 	0.8634	0.4682	0.5306	0.13
Mof_H 	H 	0.9504	0.6478	0.5559	0.152
Mof_H 	H 	0.8859	0.571	0.6099	0.153
Mof_H 	H 	0.0213	0.6224	0.603	0.165
Mof_H 	H 	0.9055	0.3402	0.5625	0.163
Mof_H 	H 	0.9944	0.4304	0.6066	0.162
Mof_H 	H 	0.8599	0.3842	0.6142	0.156
Mof_C 	C 	0.9483	0.5914	0.5825	-0.368
Mof_C 	C 	0.9218	0.4052	0.5864	-0.372
Mof_N 	N 	0.9298	0.494	0.5513	-0.128
Mof_H 	H 	0.011	0.4858	0.0259	0.132
Mof_H 	H 	0.1366	0.5318	0.0306	0.13
Mof_H 	H 	0.0496	0.3522	0.0559	0.153
Mof_H 	H 	0.1141	0.429	0.1099	0.153
Mof_H 	H 	0.9787	0.3776	0.103	0.166
Mof_H 	H 	0.0945	0.6598	0.0625	0.163
Mof_H 	H 	0.0056	0.5696	0.1066	0.161
Mof_H 	H 	0.1401	0.6158	0.1142	0.156
Mof_C 	C 	0.0517	0.4086	0.0825	-0.369
Mof_C 	C 	0.0782	0.5948	0.0864	-0.372
Mof_N 	N 	0.0702	0.506	0.0513	-0.128
_end
