data_functionalizedCrystal
_audit_creation_method	'EQeq! by Chris Wilmer'
_symmetry_space_group_name_H-M	'P1'
_symmetry_Int_Tables_number	1
_symmetry_cell_setting	triclinic
loop_
_symmetry_equiv_pos_as_xyz
  x,y,z
_cell_length_a	7.1564
_cell_length_b	13.0405
_cell_length_c	31.192
_cell_angle_alpha	88.2781
_cell_angle_beta	83.713
_cell_angle_gamma	74.0743
loop_
_atom_site_label
_atom_site_type_symbol
_atom_site_fract_x
_atom_site_fract_y
_atom_site_fract_z
_atom_site_charge
Mof_Cd	Cd	0.59868	0.80264	0.25	0.503
Mof_Cd	Cd	0.40132	0.19736	0.75	0.503
Mof_H 	H 	0.955	0.2878	0.1395	0.064
Mof_H 	H 	0.649	0.4258	0.1422	0.077
Mof_H 	H 	0.3082	0.7246	0.038	0.07
Mof_H 	H 	0.4006	0.8002	0.9677	0.056
Mof_H 	H 	0.5409	0.6634	0.1441	0.119
Mof_H 	H 	0.2751	0.725	0.1934	0.044
Mof_H 	H 	0.969	0.578	0.1289	0.033
Mof_H 	H 	0.2357	0.5302	0.0769	0.083
Mof_H 	H 	0.4961	0.2766	0.118	0.084
Mof_H 	H 	0.6198	0.1444	0.1668	0.042
Mof_H 	H 	0.2581	0.9792	0.1342	0.04
Mof_H 	H 	0.1345	0.1114	0.0853	0.077
Mof_H 	H 	0.7572	0.2878	0.3605	0.071
Mof_H 	H 	0.9252	0.4258	0.3578	0.073
Mof_H 	H 	0.9672	0.7246	0.462	0.069
Mof_H 	H 	0.7992	0.8002	0.5323	0.06
Mof_H 	H 	0.7957	0.6634	0.3559	0.109
Mof_H 	H 	0.9999	0.725	0.3066	0.063
Mof_H 	H 	0.453	0.578	0.3711	0.022
Mof_H 	H 	0.2341	0.5302	0.4231	0.086
Mof_H 	H 	0.2273	0.2766	0.382	0.084
Mof_H 	H 	0.2358	0.1444	0.3332	0.038
Mof_H 	H 	0.7627	0.9792	0.3658	0.041
Mof_H 	H 	0.7541	0.1114	0.4147	0.083
Mof_H 	H 	0.045	0.7122	0.8605	0.075
Mof_H 	H 	0.351	0.5742	0.8578	0.068
Mof_H 	H 	0.6918	0.2754	0.962	0.066
Mof_H 	H 	0.5994	0.1998	0.0323	0.063
Mof_H 	H 	0.4591	0.3366	0.8559	0.12
Mof_H 	H 	0.7249	0.275	0.8066	0.045
Mof_H 	H 	0.031	0.422	0.8711	0.004
Mof_H 	H 	0.7643	0.4698	0.9231	0.096
Mof_H 	H 	0.5039	0.7234	0.882	0.087
Mof_H 	H 	0.3802	0.8556	0.8332	0.038
Mof_H 	H 	0.7419	0.0208	0.8658	0.04
Mof_H 	H 	0.8655	0.8886	0.9147	0.087
Mof_H 	H 	0.2428	0.7122	0.6395	0.069
Mof_H 	H 	0.0748	0.5742	0.6422	0.071
Mof_H 	H 	0.0328	0.2754	0.538	0.066
Mof_H 	H 	0.2008	0.1998	0.4677	0.059
Mof_H 	H 	0.2043	0.3366	0.6441	0.129
Mof_H 	H 	0.0001	0.275	0.6934	0.026
Mof_H 	H 	0.547	0.422	0.6289	0.015
Mof_H 	H 	0.7659	0.4698	0.5769	0.091
Mof_H 	H 	0.7727	0.7234	0.618	0.087
Mof_H 	H 	0.7642	0.8556	0.6668	0.041
Mof_H 	H 	0.2373	0.0208	0.6342	0.038
Mof_H 	H 	0.2459	0.8886	0.5853	0.081
Mof_Pd	Pd	-0	0.5	-0	0.499
Mof_Pd	Pd	0.5	0.5	0.5	0.522
Mof_C 	C 	0.0278	0.3564	0.0794	0.089
Mof_C 	C 	0.9169	0.3402	0.1189	-0.055
Mof_C 	C 	0.7491	0.4158	0.1197	-0.104
Mof_C 	C 	0.7417	0.4786	0.0822	0.126
Mof_C 	C 	0.5884	0.5602	0.0705	-0.148
Mof_C 	C 	0.5835	0.617	0.0331	0.125
Mof_C 	C 	0.4285	0.701	0.0215	-0.115
Mof_C 	C 	0.4772	0.7436	0.9824	-0.062
Mof_C 	C 	0.675	0.68	0.9692	0.108
Mof_C 	C 	0.2169	0.3002	0.0671	-0.117
Mof_C 	C 	0.41	0.5942	0.1035	0.14
Mof_C 	C 	0.4232	0.6496	0.1401	-0.178
Mof_C 	C 	0.2649	0.6842	0.1702	0.092
Mof_C 	C 	0.0975	0.661	0.1669	-0.131
Mof_C 	C 	0.0818	0.5984	0.1314	0.05
Mof_C 	C 	0.2444	0.5692	0.1007	-0.168
Mof_C 	C 	0.9245	0.697	0.1986	0.333
Mof_C 	C 	0.3034	0.2072	0.0968	0.099
Mof_C 	C 	0.4485	0.217	0.1212	-0.136
Mof_C 	C 	0.5221	0.1378	0.1505	0.039
Mof_C 	C 	0.4517	0.0486	0.1553	-0.076
Mof_C 	C 	0.3056	0.0388	0.1309	0.03
Mof_C 	C 	0.232	0.118	0.1017	-0.132
Mof_C 	C 	0.5182	0.9596	0.1885	0.306
Mof_C 	C 	0.6158	0.3564	0.4206	0.116
Mof_C 	C 	0.7429	0.3402	0.3811	-0.081
Mof_C 	C 	0.8351	0.4158	0.3803	-0.09
Mof_C 	C 	0.7797	0.4786	0.4178	0.121
Mof_C 	C 	0.8514	0.5602	0.4295	-0.144
Mof_C 	C 	0.7995	0.617	0.4669	0.121
Mof_C 	C 	0.8705	0.701	0.4785	-0.1
Mof_C 	C 	0.7792	0.7436	0.5176	-0.072
Mof_C 	C 	0.645	0.68	0.5308	0.101
Mof_C 	C 	0.4829	0.3002	0.4329	-0.128
Mof_C 	C 	0.9958	0.5942	0.3965	0.139
Mof_C 	C 	0.9272	0.6496	0.3599	-0.152
Mof_C 	C 	0.0509	0.6842	0.3298	0.052
Mof_C 	C 	0.2415	0.661	0.3331	-0.112
Mof_C 	C 	0.3198	0.5984	0.3686	0.063
Mof_C 	C 	0.1864	0.5692	0.3993	-0.178
Mof_C 	C 	0.3785	0.697	0.3014	0.318
Mof_C 	C 	0.4894	0.2072	0.4032	0.107
Mof_C 	C 	0.3345	0.217	0.3788	-0.142
Mof_C 	C 	0.3401	0.1378	0.3495	0.043
Mof_C 	C 	0.4997	0.0486	0.3447	-0.079
Mof_C 	C 	0.6556	0.0388	0.3691	0.036
Mof_C 	C 	0.65	0.118	0.3983	-0.137
Mof_C 	C 	0.5222	0.9596	0.3115	0.308
Mof_C 	C 	0.9722	0.6436	0.9206	0.141
Mof_C 	C 	0.0831	0.6598	0.8811	-0.105
Mof_C 	C 	0.2509	0.5842	0.8803	-0.079
Mof_C 	C 	0.2583	0.5214	0.9178	0.117
Mof_C 	C 	0.4116	0.4398	0.9295	-0.145
Mof_C 	C 	0.4165	0.383	0.9669	0.119
Mof_C 	C 	0.5715	0.299	0.9785	-0.087
Mof_C 	C 	0.5228	0.2564	0.0176	-0.083
Mof_C 	C 	0.325	0.32	0.0308	0.093
Mof_C 	C 	0.7831	0.6998	0.9329	-0.136
Mof_C 	C 	0.59	0.4058	0.8965	0.151
Mof_C 	C 	0.5768	0.3504	0.8599	-0.185
Mof_C 	C 	0.7351	0.3158	0.8298	0.097
Mof_C 	C 	0.9025	0.339	0.8331	-0.13
Mof_C 	C 	0.9182	0.4016	0.8686	0.098
Mof_C 	C 	0.7556	0.4308	0.8993	-0.193
Mof_C 	C 	0.0755	0.303	0.8014	0.32
Mof_C 	C 	0.6966	0.7928	0.9032	0.113
Mof_C 	C 	0.5515	0.783	0.8788	-0.145
Mof_C 	C 	0.4779	0.8622	0.8495	0.046
Mof_C 	C 	0.5483	0.9514	0.8447	-0.081
Mof_C 	C 	0.6944	0.9612	0.8691	0.039
Mof_C 	C 	0.768	0.882	0.8983	-0.14
Mof_C 	C 	0.4818	0.0404	0.8115	0.308
Mof_C 	C 	0.3842	0.6436	0.5794	0.116
Mof_C 	C 	0.2571	0.6598	0.6189	-0.081
Mof_C 	C 	0.1649	0.5842	0.6197	-0.092
Mof_C 	C 	0.2203	0.5214	0.5822	0.122
Mof_C 	C 	0.1486	0.4398	0.5705	-0.151
Mof_C 	C 	0.2005	0.383	0.5331	0.122
Mof_C 	C 	0.1295	0.299	0.5215	-0.102
Mof_C 	C 	0.2208	0.2564	0.4824	-0.073
Mof_C 	C 	0.355	0.32	0.4692	0.101
Mof_C 	C 	0.5171	0.6998	0.5671	-0.128
Mof_C 	C 	0.0042	0.4058	0.6035	0.151
Mof_C 	C 	0.0728	0.3504	0.6401	-0.21
Mof_C 	C 	0.9491	0.3158	0.6702	0.134
Mof_C 	C 	0.7585	0.339	0.6669	-0.148
Mof_C 	C 	0.6802	0.4016	0.6314	0.085
Mof_C 	C 	0.8136	0.4308	0.6007	-0.183
Mof_C 	C 	0.6215	0.303	0.6986	0.333
Mof_C 	C 	0.5106	0.7928	0.5968	0.107
Mof_C 	C 	0.6655	0.783	0.6212	-0.141
Mof_C 	C 	0.6599	0.8622	0.6505	0.043
Mof_C 	C 	0.5003	0.9514	0.6553	-0.079
Mof_C 	C 	0.3444	0.9612	0.6309	0.036
Mof_C 	C 	0.35	0.882	0.6017	-0.137
Mof_C 	C 	0.4778	0.0404	0.6885	0.307
Mof_N 	N 	0.9172	0.4372	0.0576	-0.187
Mof_N 	N 	0.7427	0.6016	0.001	-0.201
Mof_N 	N 	0.6456	0.4372	0.4424	-0.198
Mof_N 	N 	0.6557	0.6016	0.499	-0.2
Mof_N 	N 	0.0828	0.5628	0.9424	-0.202
Mof_N 	N 	0.2573	0.3984	0.999	-0.192
Mof_N 	N 	0.3544	0.5628	0.5576	-0.198
Mof_N 	N 	0.3443	0.3984	0.501	-0.2
Mof_O 	O 	0.9341	0.7584	0.2275	-0.248
Mof_O 	O 	0.7719	0.6698	0.1955	-0.273
Mof_O 	O 	0.6616	0.9728	0.2009	-0.246
Mof_O 	O 	0.4164	0.8932	0.1993	-0.253
Mof_O 	O 	0.3075	0.7584	0.2725	-0.249
Mof_O 	O 	0.5583	0.6698	0.3045	-0.27
Mof_O 	O 	0.3656	0.9728	0.2991	-0.249
Mof_O 	O 	0.6904	0.8932	0.3007	-0.252
Mof_O 	O 	0.0659	0.2416	0.7725	-0.25
Mof_O 	O 	0.2281	0.3302	0.8045	-0.273
Mof_O 	O 	0.3384	0.0272	0.7991	-0.25
Mof_O 	O 	0.5836	0.1068	0.8007	-0.252
Mof_O 	O 	0.6925	0.2416	0.7275	-0.249
Mof_O 	O 	0.4417	0.3302	0.6955	-0.275
Mof_O 	O 	0.6344	0.0272	0.7009	-0.247
Mof_O 	O 	0.3096	0.1068	0.6993	-0.253
_end
