data_functionalizedCrystal
_audit_creation_method	'EQeq! by Chris Wilmer'
_symmetry_space_group_name_H-M	'P1'
_symmetry_Int_Tables_number	1
_symmetry_cell_setting	triclinic
loop_
_symmetry_equiv_pos_as_xyz
  x,y,z
_cell_length_a	40.077
_cell_length_b	21.789
_cell_length_c	9.1437
_cell_angle_alpha	90
_cell_angle_beta	101.28
_cell_angle_gamma	90
loop_
_atom_site_label
_atom_site_type_symbol
_atom_site_fract_x
_atom_site_fract_y
_atom_site_fract_z
_atom_site_charge
Mof_Pb	Pb	0.33043	0.00836	0.06243	0.566
Mof_K 	K 	0.29095	0.8703	0.8485	2.947
Mof_O 	O 	0.3592	0.9468	0.268	-0.392
Mof_O 	O 	0.3403	0.8745	0.107	-0.492
Mof_O 	O 	0.3667	0.7892	0.2914	-0.203
Mof_O 	O 	0.2139	0.4858	0.7965	-0.716
Mof_O 	O 	0.2362	0.5497	0.9713	-0.728
Mof_O 	O 	0.2946	0.5498	0.8835	-0.269
Mof_O 	O 	0.3487	0.0761	0.2611	0.015
Mof_O 	O 	0.3905	0.079	0.1448	-0.186
Mof_O 	O 	0.4212	0.1645	0.334	1.443
Mof_C 	C 	0.36	0.8948	0.218	0.832
Mof_C 	C 	0.3795	0.8498	0.3254	-0.426
Mof_H 	H 	0.4034	0.8513	0.3196	0.187
Mof_H 	H 	0.3775	0.8605	0.4262	0.147
Mof_C 	C 	0.3819	0.742	0.3879	0.193
Mof_C 	C 	0.4065	0.7512	0.514	-0.261
Mof_H 	H 	0.4151	0.7902	0.5399	0.055
Mof_C 	C 	0.4181	0.7006	0.6012	0.129
Mof_H 	H 	0.4343	0.7071	0.6874	-0.062
Mof_C 	C 	0.4072	0.6408	0.5687	-0.277
Mof_C 	C 	0.3827	0.6346	0.4389	0.131
Mof_H 	H 	0.3744	0.5956	0.4113	-0.046
Mof_C 	C 	0.3699	0.6837	0.3483	-0.261
Mof_H 	H 	0.3536	0.6775	0.2624	0.05
Mof_C 	C 	0.2378	0.5161	0.8653	0.546
Mof_C 	C 	0.2699	0.5081	0.8058	-0.23
Mof_H 	H 	0.2656	0.5167	0.6997	0.028
Mof_H 	H 	0.278	0.4662	0.8214	-0.019
Mof_C 	C 	0.3254	0.5525	0.8317	0.22
Mof_C 	C 	0.3345	0.5119	0.7318	-0.277
Mof_H 	H 	0.3206	0.479	0.6952	0.092
Mof_C 	C 	0.3654	0.5212	0.687	0.151
Mof_H 	H 	0.3721	0.4931	0.6218	-0.041
Mof_C 	C 	0.3865	0.5703	0.7349	-0.277
Mof_C 	C 	0.3758	0.6098	0.8359	0.143
Mof_H 	H 	0.3896	0.6429	0.8718	-0.06
Mof_C 	C 	0.3455	0.6022	0.8859	-0.284
Mof_H 	H 	0.339	0.6295	0.9533	0.054
Mof_C 	C 	0.417	0.5859	0.6664	0.513
Mof_C 	C 	0.4474	0.5993	0.7937	-0.92
Mof_H 	H 	0.4661	0.6143	0.7527	0.267
Mof_H 	H 	0.454	0.5623	0.8487	0.26
Mof_H 	H 	0.441	0.6297	0.8591	0.286
Mof_C 	C 	0.4275	0.5318	0.5777	-0.934
Mof_H 	H 	0.4104	0.5252	0.4898	0.298
Mof_H 	H 	0.4298	0.4955	0.6384	0.273
Mof_H 	H 	0.4488	0.5409	0.5495	0.264
Mof_C 	C 	0.375	0.099	0.24	0.466
Mof_C 	C 	0.3872	0.1494	0.345	4.482
Mof_H 	H 	0.3728	0.1853	0.3231	-1.481
Mof_H 	H 	0.3865	0.1358	0.4452	-0.957
Mof_C 	C 	0.4357	0.2064	0.4486	1.294
Mof_C 	C 	0.4204	0.2429	0.5405	-0.835
Mof_H 	H 	0.3972	0.2403	0.5393	0.393
Mof_C 	C 	0.4413	0.2838	0.6354	0.643
Mof_H 	H 	0.4313	0.3097	0.6955	-0.212
Mof_C 	C 	0.4762	0.2875	0.6438	-0.768
Mof_C 	C 	0.4903	0.2506	0.5473	0.796
Mof_H 	H 	0.5137	0.2519	0.5511	-0.267
Mof_C 	C 	0.4704	0.2121	0.4459	-1.151
Mof_H 	H 	0.4799	0.1903	0.3768	0.356
Mof_C 	C 	0.4806	0.3692	0.8408	-1.445
Mof_H 	H 	0.4667	0.3442	0.8916	0.463
Mof_H 	H 	0.4664	0.3971	0.775	0.43
Mof_H 	H 	0.4965	0.392	0.9126	0.422
Mof_O 	O 	0.3797	0.9324	0.177	-0.29
Mof_O 	O 	0.3302	0.889	0.166	-0.315
Mof_O 	O 	0.372	0.084	0.23	-0.773
Mof_O 	O 	0.3261	0.1379	0.16	-0.367
Mof_O 	O 	0.4086	0.167	0.383	-3.763
Mof_C 	C 	0.354	0.13	0.235	-0.898
Mof_C 	C 	0.373	0.178	0.337	-0.15
Mof_H 	H 	0.3697	0.2171	0.2875	0.619
Mof_H 	H 	0.363	0.1801	0.4256	0.058
Mof_Pb	Pb	0.83043	0.50836	0.06243	0.571
Mof_K 	K 	0.79095	0.3703	0.8485	2.956
Mof_O 	O 	0.8592	0.4468	0.268	-0.392
Mof_O 	O 	0.8403	0.3745	0.107	-0.495
Mof_O 	O 	0.8667	0.2892	0.2914	-0.204
Mof_O 	O 	0.7139	0.9858	0.7965	-0.717
Mof_O 	O 	0.7362	0.0497	0.9713	-0.725
Mof_O 	O 	0.7946	0.0498	0.8835	-0.269
Mof_O 	O 	0.8487	0.5761	0.2611	0.017
Mof_O 	O 	0.8905	0.579	0.1448	-0.184
Mof_O 	O 	0.9212	0.6645	0.334	1.453
Mof_C 	C 	0.86	0.3948	0.218	0.833
Mof_C 	C 	0.8795	0.3498	0.3254	-0.427
Mof_H 	H 	0.9034	0.3513	0.3196	0.187
Mof_H 	H 	0.8775	0.3605	0.4262	0.147
Mof_C 	C 	0.8819	0.242	0.3879	0.193
Mof_C 	C 	0.9065	0.2512	0.514	-0.262
Mof_H 	H 	0.9151	0.2902	0.5399	0.056
Mof_C 	C 	0.9181	0.2006	0.6012	0.131
Mof_H 	H 	0.9343	0.2071	0.6874	-0.062
Mof_C 	C 	0.9072	0.1408	0.5687	-0.279
Mof_C 	C 	0.8827	0.1346	0.4389	0.133
Mof_H 	H 	0.8744	0.0956	0.4113	-0.047
Mof_C 	C 	0.8699	0.1837	0.3483	-0.262
Mof_H 	H 	0.8536	0.1775	0.2624	0.05
Mof_C 	C 	0.7378	0.0161	0.8653	0.547
Mof_C 	C 	0.7699	0.0081	0.8058	-0.227
Mof_H 	H 	0.7656	0.0167	0.6997	0.027
Mof_H 	H 	0.778	0.9662	0.8214	-0.022
Mof_C 	C 	0.8254	0.0525	0.8317	0.221
Mof_C 	C 	0.8345	0.0119	0.7318	-0.276
Mof_H 	H 	0.8206	0.979	0.6952	0.091
Mof_C 	C 	0.8654	0.0212	0.687	0.154
Mof_H 	H 	0.8721	0.9931	0.6218	-0.043
Mof_C 	C 	0.8865	0.0703	0.7349	-0.279
Mof_C 	C 	0.8758	0.1098	0.8359	0.144
Mof_H 	H 	0.8896	0.1429	0.8718	-0.06
Mof_C 	C 	0.8455	0.1022	0.8859	-0.284
Mof_H 	H 	0.839	0.1295	0.9533	0.055
Mof_C 	C 	0.917	0.0859	0.6664	0.518
Mof_C 	C 	0.9474	0.0993	0.7937	-0.93
Mof_H 	H 	0.9661	0.1143	0.7527	0.273
Mof_H 	H 	0.954	0.0623	0.8487	0.265
Mof_H 	H 	0.941	0.1297	0.8591	0.291
Mof_C 	C 	0.9275	0.0318	0.5777	-0.937
Mof_H 	H 	0.9104	0.0252	0.4898	0.299
Mof_H 	H 	0.9298	0.9955	0.6384	0.275
Mof_H 	H 	0.9488	0.0409	0.5495	0.267
Mof_C 	C 	0.875	0.599	0.24	0.47
Mof_C 	C 	0.8872	0.6494	0.345	4.506
Mof_H 	H 	0.8728	0.6853	0.3231	-1.488
Mof_H 	H 	0.8865	0.6358	0.4452	-0.963
Mof_C 	C 	0.9357	0.7064	0.4486	1.298
Mof_C 	C 	0.9204	0.7429	0.5405	-0.834
Mof_H 	H 	0.8972	0.7403	0.5393	0.393
Mof_C 	C 	0.9413	0.7838	0.6354	0.637
Mof_H 	H 	0.9313	0.8097	0.6955	-0.209
Mof_C 	C 	0.9762	0.7875	0.6438	-0.756
Mof_C 	C 	0.9903	0.7506	0.5473	0.805
Mof_H 	H 	0.0137	0.7519	0.5511	-0.273
Mof_C 	C 	0.9704	0.7121	0.4459	-1.157
Mof_H 	H 	0.9799	0.6903	0.3768	0.36
Mof_C 	C 	0.9806	0.8692	0.8408	-1.406
Mof_H 	H 	0.9667	0.8442	0.8916	0.452
Mof_H 	H 	0.9664	0.8971	0.775	0.42
Mof_H 	H 	0.9965	0.892	0.9126	0.412
Mof_O 	O 	0.8797	0.4324	0.177	-0.291
Mof_O 	O 	0.8302	0.389	0.166	-0.316
Mof_O 	O 	0.872	0.584	0.23	-0.778
Mof_O 	O 	0.8261	0.6379	0.16	-0.365
Mof_O 	O 	0.9086	0.667	0.383	-3.783
Mof_C 	C 	0.854	0.63	0.235	-0.904
Mof_C 	C 	0.873	0.678	0.337	-0.151
Mof_H 	H 	0.8697	0.7171	0.2875	0.623
Mof_H 	H 	0.863	0.6801	0.4256	0.059
Mof_Pb	Pb	0.66957	0.00836	0.43757	0.569
Mof_K 	K 	0.70905	0.8703	0.6515	2.955
Mof_O 	O 	0.6408	0.9468	0.232	-0.391
Mof_O 	O 	0.6597	0.8745	0.393	-0.495
Mof_O 	O 	0.6333	0.7892	0.2086	-0.204
Mof_O 	O 	0.7861	0.4858	0.7035	-0.716
Mof_O 	O 	0.7638	0.5497	0.5287	-0.727
Mof_O 	O 	0.7054	0.5498	0.6165	-0.269
Mof_O 	O 	0.6513	0.0761	0.2389	0.016
Mof_O 	O 	0.6095	0.079	0.3552	-0.185
Mof_O 	O 	0.5788	0.1645	0.166	1.449
Mof_C 	C 	0.64	0.8948	0.282	0.833
Mof_C 	C 	0.6205	0.8498	0.1746	-0.427
Mof_H 	H 	0.5966	0.8513	0.1804	0.187
Mof_H 	H 	0.6225	0.8605	0.0738	0.148
Mof_C 	C 	0.6181	0.742	0.1121	0.193
Mof_C 	C 	0.5935	0.7512	0.986	-0.262
Mof_H 	H 	0.5849	0.7902	0.9601	0.055
Mof_C 	C 	0.5819	0.7006	0.8988	0.13
Mof_H 	H 	0.5657	0.7071	0.8126	-0.062
Mof_C 	C 	0.5928	0.6408	0.9313	-0.278
Mof_C 	C 	0.6173	0.6346	0.0611	0.132
Mof_H 	H 	0.6256	0.5956	0.0887	-0.047
Mof_C 	C 	0.6301	0.6837	0.1517	-0.261
Mof_H 	H 	0.6464	0.6775	0.2376	0.05
Mof_C 	C 	0.7622	0.5161	0.6347	0.546
Mof_C 	C 	0.7301	0.5081	0.6942	-0.23
Mof_H 	H 	0.7344	0.5167	0.8003	0.028
Mof_H 	H 	0.722	0.4662	0.6786	-0.019
Mof_C 	C 	0.6746	0.5525	0.6683	0.22
Mof_C 	C 	0.6655	0.5119	0.7682	-0.277
Mof_H 	H 	0.6794	0.479	0.8048	0.092
Mof_C 	C 	0.6346	0.5212	0.813	0.151
Mof_H 	H 	0.6279	0.4931	0.8782	-0.041
Mof_C 	C 	0.6135	0.5703	0.7651	-0.277
Mof_C 	C 	0.6242	0.6098	0.6641	0.142
Mof_H 	H 	0.6104	0.6429	0.6282	-0.06
Mof_C 	C 	0.6545	0.6022	0.6141	-0.284
Mof_H 	H 	0.661	0.6295	0.5467	0.054
Mof_C 	C 	0.583	0.5859	0.8336	0.513
Mof_C 	C 	0.5526	0.5993	0.7063	-0.92
Mof_H 	H 	0.5339	0.6143	0.7473	0.267
Mof_H 	H 	0.546	0.5623	0.6513	0.26
Mof_H 	H 	0.559	0.6297	0.6409	0.287
Mof_C 	C 	0.5725	0.5318	0.9223	-0.932
Mof_H 	H 	0.5896	0.5252	0.0102	0.298
Mof_H 	H 	0.5702	0.4955	0.8616	0.273
Mof_H 	H 	0.5512	0.5409	0.9505	0.264
Mof_C 	C 	0.625	0.099	0.26	0.468
Mof_C 	C 	0.6128	0.1494	0.155	4.497
Mof_H 	H 	0.6272	0.1853	0.1769	-1.485
Mof_H 	H 	0.6135	0.1358	0.0548	-0.962
Mof_C 	C 	0.5643	0.2064	0.0514	1.295
Mof_C 	C 	0.5796	0.2429	0.9595	-0.833
Mof_H 	H 	0.6028	0.2403	0.9607	0.394
Mof_C 	C 	0.5587	0.2838	0.8646	0.643
Mof_H 	H 	0.5687	0.3097	0.8045	-0.212
Mof_C 	C 	0.5238	0.2875	0.8562	-0.769
Mof_C 	C 	0.5097	0.2506	0.9527	0.8
Mof_H 	H 	0.4863	0.2519	0.9489	-0.268
Mof_C 	C 	0.5296	0.2121	0.0541	-1.155
Mof_H 	H 	0.5201	0.1903	0.1232	0.357
Mof_C 	C 	0.5194	0.3692	0.6592	-1.444
Mof_H 	H 	0.5333	0.3442	0.6084	0.463
Mof_H 	H 	0.5336	0.3971	0.725	0.43
Mof_H 	H 	0.5035	0.392	0.5874	0.422
Mof_O 	O 	0.6203	0.9324	0.323	-0.292
Mof_O 	O 	0.6698	0.889	0.334	-0.315
Mof_O 	O 	0.628	0.084	0.27	-0.776
Mof_O 	O 	0.6739	0.1379	0.34	-0.365
Mof_O 	O 	0.5914	0.167	0.117	-3.775
Mof_C 	C 	0.646	0.13	0.265	-0.902
Mof_C 	C 	0.627	0.178	0.163	-0.151
Mof_H 	H 	0.6303	0.2171	0.2125	0.621
Mof_H 	H 	0.637	0.1801	0.0744	0.058
Mof_Pb	Pb	0.16957	0.50836	0.43757	0.57
Mof_K 	K 	0.20905	0.3703	0.6515	2.958
Mof_O 	O 	0.1408	0.4468	0.232	-0.392
Mof_O 	O 	0.1597	0.3745	0.393	-0.496
Mof_O 	O 	0.1333	0.2892	0.2086	-0.202
Mof_O 	O 	0.2861	0.9858	0.7035	-0.717
Mof_O 	O 	0.2638	0.0497	0.5287	-0.728
Mof_O 	O 	0.2054	0.0498	0.6165	-0.268
Mof_O 	O 	0.1513	0.5761	0.2389	0.008
Mof_O 	O 	0.1095	0.579	0.3552	-0.185
Mof_O 	O 	0.0788	0.6645	0.166	1.425
Mof_C 	C 	0.14	0.3948	0.282	0.833
Mof_C 	C 	0.1205	0.3498	0.1746	-0.428
Mof_H 	H 	0.0966	0.3513	0.1804	0.187
Mof_H 	H 	0.1225	0.3605	0.0738	0.147
Mof_C 	C 	0.1181	0.242	0.1121	0.184
Mof_C 	C 	0.0935	0.2512	0.986	-0.249
Mof_H 	H 	0.0849	0.2902	0.9601	0.052
Mof_C 	C 	0.0819	0.2006	0.8988	0.118
Mof_H 	H 	0.0657	0.2071	0.8126	-0.058
Mof_C 	C 	0.0928	0.1408	0.9313	-0.262
Mof_C 	C 	0.1173	0.1346	0.0611	0.118
Mof_H 	H 	0.1256	0.0956	0.0887	-0.042
Mof_C 	C 	0.1301	0.1837	0.1517	-0.251
Mof_H 	H 	0.1464	0.1775	0.2376	0.046
Mof_C 	C 	0.2622	0.0161	0.6347	0.547
Mof_C 	C 	0.2301	0.0081	0.6942	-0.23
Mof_H 	H 	0.2344	0.0167	0.8003	0.028
Mof_H 	H 	0.222	0.9662	0.6786	-0.02
Mof_C 	C 	0.1746	0.0525	0.6683	0.217
Mof_C 	C 	0.1655	0.0119	0.7682	-0.271
Mof_H 	H 	0.1794	0.979	0.8048	0.089
Mof_C 	C 	0.1346	0.0212	0.813	0.148
Mof_H 	H 	0.1279	0.9931	0.8782	-0.041
Mof_C 	C 	0.1135	0.0703	0.7651	-0.269
Mof_C 	C 	0.1242	0.1098	0.6641	0.137
Mof_H 	H 	0.1104	0.1429	0.6282	-0.057
Mof_C 	C 	0.1545	0.1022	0.6141	-0.279
Mof_H 	H 	0.161	0.1295	0.5467	0.052
Mof_C 	C 	0.083	0.0859	0.8336	0.495
Mof_C 	C 	0.0526	0.0993	0.7063	-0.9
Mof_H 	H 	0.0339	0.1143	0.7473	0.261
Mof_H 	H 	0.046	0.0623	0.6513	0.254
Mof_H 	H 	0.059	0.1297	0.6409	0.28
Mof_C 	C 	0.0725	0.0318	0.9223	-0.896
Mof_H 	H 	0.0896	0.0252	0.0102	0.285
Mof_H 	H 	0.0702	0.9955	0.8616	0.26
Mof_H 	H 	0.0512	0.0409	0.9505	0.254
Mof_C 	C 	0.125	0.599	0.26	0.458
Mof_C 	C 	0.1128	0.6494	0.155	4.426
Mof_H 	H 	0.1272	0.6853	0.1769	-1.464
Mof_H 	H 	0.1135	0.6358	0.0548	-0.945
Mof_C 	C 	0.0643	0.7064	0.0514	1.272
Mof_C 	C 	0.0796	0.7429	0.9595	-0.818
Mof_H 	H 	0.1028	0.7403	0.9607	0.386
Mof_C 	C 	0.0587	0.7838	0.8646	0.623
Mof_H 	H 	0.0687	0.8097	0.8045	-0.204
Mof_C 	C 	0.0238	0.7875	0.8562	-0.743
Mof_C 	C 	0.0097	0.7506	0.9527	0.759
Mof_H 	H 	0.9863	0.7519	0.9489	-0.25
Mof_C 	C 	0.0296	0.7121	0.0541	-1.122
Mof_H 	H 	0.0201	0.6903	0.1232	0.345
Mof_C 	C 	0.0194	0.8692	0.6592	-1.412
Mof_H 	H 	0.0333	0.8442	0.6084	0.453
Mof_H 	H 	0.0336	0.8971	0.725	0.42
Mof_H 	H 	0.0035	0.892	0.5874	0.41
Mof_O 	O 	0.1203	0.4324	0.323	-0.292
Mof_O 	O 	0.1698	0.389	0.334	-0.316
Mof_O 	O 	0.128	0.584	0.27	-0.76
Mof_O 	O 	0.1739	0.6379	0.34	-0.372
Mof_O 	O 	0.0914	0.667	0.117	-3.717
Mof_C 	C 	0.146	0.63	0.265	-0.882
Mof_C 	C 	0.127	0.678	0.163	-0.146
Mof_H 	H 	0.1303	0.7171	0.2125	0.611
Mof_H 	H 	0.137	0.6801	0.0744	0.056
Mof_Pb	Pb	0.66957	0.99164	0.93757	0.568
Mof_K 	K 	0.70905	0.1297	0.1515	2.947
Mof_O 	O 	0.6408	0.0532	0.732	-0.391
Mof_O 	O 	0.6597	0.1255	0.893	-0.492
Mof_O 	O 	0.6333	0.2108	0.7086	-0.203
Mof_O 	O 	0.7861	0.5142	0.2035	-0.716
Mof_O 	O 	0.7638	0.4503	0.0287	-0.727
Mof_O 	O 	0.7054	0.4502	0.1165	-0.269
Mof_O 	O 	0.6513	0.9239	0.7389	0.015
Mof_O 	O 	0.6095	0.921	0.8552	-0.186
Mof_O 	O 	0.5788	0.8355	0.666	1.443
Mof_C 	C 	0.64	0.1052	0.782	0.832
Mof_C 	C 	0.6205	0.1502	0.6746	-0.426
Mof_H 	H 	0.5966	0.1487	0.6804	0.187
Mof_H 	H 	0.6225	0.1395	0.5738	0.147
Mof_C 	C 	0.6181	0.258	0.6121	0.193
Mof_C 	C 	0.5935	0.2488	0.486	-0.261
Mof_H 	H 	0.5849	0.2098	0.4601	0.055
Mof_C 	C 	0.5819	0.2994	0.3988	0.129
Mof_H 	H 	0.5657	0.2929	0.3126	-0.062
Mof_C 	C 	0.5928	0.3592	0.4313	-0.277
Mof_C 	C 	0.6173	0.3654	0.5611	0.131
Mof_H 	H 	0.6256	0.4044	0.5887	-0.046
Mof_C 	C 	0.6301	0.3163	0.6517	-0.261
Mof_H 	H 	0.6464	0.3225	0.7376	0.05
Mof_C 	C 	0.7622	0.4839	0.1347	0.546
Mof_C 	C 	0.7301	0.4919	0.1942	-0.23
Mof_H 	H 	0.7344	0.4833	0.3003	0.028
Mof_H 	H 	0.722	0.5338	0.1786	-0.019
Mof_C 	C 	0.6746	0.4475	0.1683	0.22
Mof_C 	C 	0.6655	0.4881	0.2682	-0.277
Mof_H 	H 	0.6794	0.521	0.3048	0.092
Mof_C 	C 	0.6346	0.4788	0.313	0.151
Mof_H 	H 	0.6279	0.5069	0.3782	-0.041
Mof_C 	C 	0.6135	0.4297	0.2651	-0.277
Mof_C 	C 	0.6242	0.3902	0.1641	0.143
Mof_H 	H 	0.6104	0.3571	0.1282	-0.06
Mof_C 	C 	0.6545	0.3978	0.1141	-0.284
Mof_H 	H 	0.661	0.3705	0.0467	0.054
Mof_C 	C 	0.583	0.4141	0.3336	0.513
Mof_C 	C 	0.5526	0.4007	0.2063	-0.919
Mof_H 	H 	0.5339	0.3857	0.2473	0.267
Mof_H 	H 	0.546	0.4377	0.1513	0.26
Mof_H 	H 	0.559	0.3703	0.1409	0.286
Mof_C 	C 	0.5725	0.4682	0.4223	-0.934
Mof_H 	H 	0.5896	0.4748	0.5102	0.298
Mof_H 	H 	0.5702	0.5045	0.3616	0.273
Mof_H 	H 	0.5512	0.4591	0.4505	0.264
Mof_C 	C 	0.625	0.901	0.76	0.466
Mof_C 	C 	0.6128	0.8506	0.655	4.482
Mof_H 	H 	0.6272	0.8147	0.6769	-1.481
Mof_H 	H 	0.6135	0.8642	0.5548	-0.958
Mof_C 	C 	0.5643	0.7936	0.5514	1.294
Mof_C 	C 	0.5796	0.7571	0.4595	-0.835
Mof_H 	H 	0.6028	0.7597	0.4607	0.393
Mof_C 	C 	0.5587	0.7162	0.3646	0.643
Mof_H 	H 	0.5687	0.6903	0.3045	-0.212
Mof_C 	C 	0.5238	0.7125	0.3562	-0.768
Mof_C 	C 	0.5097	0.7494	0.4527	0.796
Mof_H 	H 	0.4863	0.7481	0.4489	-0.267
Mof_C 	C 	0.5296	0.7879	0.5541	-1.151
Mof_H 	H 	0.5201	0.8097	0.6232	0.356
Mof_C 	C 	0.5194	0.6308	0.1592	-1.444
Mof_H 	H 	0.5333	0.6558	0.1084	0.463
Mof_H 	H 	0.5336	0.6029	0.225	0.43
Mof_H 	H 	0.5035	0.608	0.0874	0.422
Mof_O 	O 	0.6203	0.0676	0.823	-0.29
Mof_O 	O 	0.6698	0.111	0.834	-0.315
Mof_O 	O 	0.628	0.916	0.77	-0.773
Mof_O 	O 	0.6739	0.8621	0.84	-0.367
Mof_O 	O 	0.5914	0.833	0.617	-3.763
Mof_C 	C 	0.646	0.87	0.765	-0.898
Mof_C 	C 	0.627	0.822	0.663	-0.15
Mof_H 	H 	0.6303	0.7829	0.7125	0.619
Mof_H 	H 	0.637	0.8199	0.5744	0.058
Mof_Pb	Pb	0.16957	0.49164	0.93757	0.571
Mof_K 	K 	0.20905	0.6297	0.1515	2.958
Mof_O 	O 	0.1408	0.5532	0.732	-0.392
Mof_O 	O 	0.1597	0.6255	0.893	-0.496
Mof_O 	O 	0.1333	0.7108	0.7086	-0.204
Mof_O 	O 	0.2861	0.0142	0.2035	-0.717
Mof_O 	O 	0.2638	0.9503	0.0287	-0.725
Mof_O 	O 	0.2054	0.9502	0.1165	-0.269
Mof_O 	O 	0.1513	0.4239	0.7389	0.009
Mof_O 	O 	0.1095	0.421	0.8552	-0.185
Mof_O 	O 	0.0788	0.3355	0.666	1.429
Mof_C 	C 	0.14	0.6052	0.782	0.833
Mof_C 	C 	0.1205	0.6502	0.6746	-0.427
Mof_H 	H 	0.0966	0.6487	0.6804	0.186
Mof_H 	H 	0.1225	0.6395	0.5738	0.147
Mof_C 	C 	0.1181	0.758	0.6121	0.193
Mof_C 	C 	0.0935	0.7488	0.486	-0.261
Mof_H 	H 	0.0849	0.7098	0.4601	0.056
Mof_C 	C 	0.0819	0.7994	0.3988	0.13
Mof_H 	H 	0.0657	0.7929	0.3126	-0.061
Mof_C 	C 	0.0928	0.8592	0.4313	-0.277
Mof_C 	C 	0.1173	0.8654	0.5611	0.131
Mof_H 	H 	0.1256	0.9044	0.5887	-0.046
Mof_C 	C 	0.1301	0.8163	0.6517	-0.261
Mof_H 	H 	0.1464	0.8225	0.7376	0.049
Mof_C 	C 	0.2622	0.9839	0.1347	0.547
Mof_C 	C 	0.2301	0.9919	0.1942	-0.227
Mof_H 	H 	0.2344	0.9833	0.3003	0.027
Mof_H 	H 	0.222	0.0338	0.1786	-0.021
Mof_C 	C 	0.1746	0.9475	0.1683	0.22
Mof_C 	C 	0.1655	0.9881	0.2682	-0.275
Mof_H 	H 	0.1794	0.021	0.3048	0.091
Mof_C 	C 	0.1346	0.9788	0.313	0.151
Mof_H 	H 	0.1279	0.0069	0.3782	-0.042
Mof_C 	C 	0.1135	0.9297	0.2651	-0.276
Mof_C 	C 	0.1242	0.8902	0.1641	0.142
Mof_H 	H 	0.1104	0.8571	0.1282	-0.059
Mof_C 	C 	0.1545	0.8978	0.1141	-0.283
Mof_H 	H 	0.161	0.8705	0.0467	0.054
Mof_C 	C 	0.083	0.9141	0.3336	0.512
Mof_C 	C 	0.0526	0.9007	0.2063	-0.918
Mof_H 	H 	0.0339	0.8857	0.2473	0.266
Mof_H 	H 	0.046	0.9377	0.1513	0.26
Mof_H 	H 	0.059	0.8703	0.1409	0.286
Mof_C 	C 	0.0725	0.9682	0.4223	-0.929
Mof_H 	H 	0.0896	0.9748	0.5102	0.297
Mof_H 	H 	0.0702	0.0045	0.3616	0.271
Mof_H 	H 	0.0512	0.9591	0.4505	0.263
Mof_C 	C 	0.125	0.401	0.76	0.46
Mof_C 	C 	0.1128	0.3506	0.655	4.437
Mof_H 	H 	0.1272	0.3147	0.6769	-1.467
Mof_H 	H 	0.1135	0.3642	0.5548	-0.948
Mof_C 	C 	0.0643	0.2936	0.5514	1.274
Mof_C 	C 	0.0796	0.2571	0.4595	-0.819
Mof_H 	H 	0.1028	0.2597	0.4607	0.387
Mof_C 	C 	0.0587	0.2162	0.3646	0.625
Mof_H 	H 	0.0687	0.1903	0.3045	-0.205
Mof_C 	C 	0.0238	0.2125	0.3562	-0.745
Mof_C 	C 	0.0097	0.2494	0.4527	0.763
Mof_H 	H 	0.9863	0.2481	0.4489	-0.251
Mof_C 	C 	0.0296	0.2879	0.5541	-1.126
Mof_H 	H 	0.0201	0.3097	0.6232	0.346
Mof_C 	C 	0.0194	0.1308	0.1592	-1.412
Mof_H 	H 	0.0333	0.1558	0.1084	0.452
Mof_H 	H 	0.0336	0.1029	0.225	0.419
Mof_H 	H 	0.0035	0.108	0.0874	0.409
Mof_O 	O 	0.1203	0.5676	0.823	-0.292
Mof_O 	O 	0.1698	0.611	0.834	-0.315
Mof_O 	O 	0.128	0.416	0.77	-0.763
Mof_O 	O 	0.1739	0.3621	0.84	-0.371
Mof_O 	O 	0.0914	0.333	0.617	-3.726
Mof_C 	C 	0.146	0.37	0.765	-0.885
Mof_C 	C 	0.127	0.322	0.663	-0.147
Mof_H 	H 	0.1303	0.2829	0.7125	0.613
Mof_H 	H 	0.137	0.3199	0.5744	0.056
Mof_Pb	Pb	0.33043	0.99164	0.56243	0.569
Mof_K 	K 	0.29095	0.1297	0.3485	2.955
Mof_O 	O 	0.3592	0.0532	0.768	-0.391
Mof_O 	O 	0.3403	0.1255	0.607	-0.495
Mof_O 	O 	0.3667	0.2108	0.7914	-0.204
Mof_O 	O 	0.2139	0.5142	0.2965	-0.716
Mof_O 	O 	0.2362	0.4503	0.4713	-0.728
Mof_O 	O 	0.2946	0.4502	0.3835	-0.269
Mof_O 	O 	0.3487	0.9239	0.7611	0.016
Mof_O 	O 	0.3905	0.921	0.6448	-0.185
Mof_O 	O 	0.4212	0.8355	0.834	1.449
Mof_C 	C 	0.36	0.1052	0.718	0.833
Mof_C 	C 	0.3795	0.1502	0.8254	-0.427
Mof_H 	H 	0.4034	0.1487	0.8196	0.187
Mof_H 	H 	0.3775	0.1395	0.9262	0.148
Mof_C 	C 	0.3819	0.258	0.8879	0.194
Mof_C 	C 	0.4065	0.2488	0.014	-0.263
Mof_H 	H 	0.4151	0.2098	0.0399	0.056
Mof_C 	C 	0.4181	0.2994	0.1012	0.131
Mof_H 	H 	0.4343	0.2929	0.1874	-0.062
Mof_C 	C 	0.4072	0.3592	0.0687	-0.279
Mof_C 	C 	0.3827	0.3654	0.9389	0.133
Mof_H 	H 	0.3744	0.4044	0.9113	-0.047
Mof_C 	C 	0.3699	0.3163	0.8483	-0.262
Mof_H 	H 	0.3536	0.3225	0.7624	0.05
Mof_C 	C 	0.2378	0.4839	0.3653	0.546
Mof_C 	C 	0.2699	0.4919	0.3058	-0.23
Mof_H 	H 	0.2656	0.4833	0.1997	0.028
Mof_H 	H 	0.278	0.5338	0.3214	-0.019
Mof_C 	C 	0.3254	0.4475	0.3317	0.22
Mof_C 	C 	0.3345	0.4881	0.2318	-0.277
Mof_H 	H 	0.3206	0.521	0.1952	0.092
Mof_C 	C 	0.3654	0.4788	0.187	0.151
Mof_H 	H 	0.3721	0.5069	0.1218	-0.041
Mof_C 	C 	0.3865	0.4297	0.2349	-0.278
Mof_C 	C 	0.3758	0.3902	0.3359	0.143
Mof_H 	H 	0.3896	0.3571	0.3718	-0.06
Mof_C 	C 	0.3455	0.3978	0.3859	-0.284
Mof_H 	H 	0.339	0.3705	0.4533	0.054
Mof_C 	C 	0.417	0.4141	0.1664	0.514
Mof_C 	C 	0.4474	0.4007	0.2937	-0.92
Mof_H 	H 	0.4661	0.3857	0.2527	0.268
Mof_H 	H 	0.454	0.4377	0.3487	0.26
Mof_H 	H 	0.441	0.3703	0.3591	0.287
Mof_C 	C 	0.4275	0.4682	0.0777	-0.934
Mof_H 	H 	0.4104	0.4748	0.9898	0.298
Mof_H 	H 	0.4298	0.5045	0.1384	0.273
Mof_H 	H 	0.4488	0.4591	0.0495	0.264
Mof_C 	C 	0.375	0.901	0.74	0.468
Mof_C 	C 	0.3872	0.8506	0.845	4.496
Mof_H 	H 	0.3728	0.8147	0.8231	-1.485
Mof_H 	H 	0.3865	0.8642	0.9452	-0.961
Mof_C 	C 	0.4357	0.7936	0.9486	1.295
Mof_C 	C 	0.4204	0.7571	0.0405	-0.833
Mof_H 	H 	0.3972	0.7597	0.0393	0.394
Mof_C 	C 	0.4413	0.7162	0.1354	0.643
Mof_H 	H 	0.4313	0.6903	0.1955	-0.211
Mof_C 	C 	0.4762	0.7125	0.1438	-0.768
Mof_C 	C 	0.4903	0.7494	0.0473	0.8
Mof_H 	H 	0.5137	0.7481	0.0511	-0.267
Mof_C 	C 	0.4704	0.7879	0.9459	-1.155
Mof_H 	H 	0.4799	0.8097	0.8768	0.357
Mof_C 	C 	0.4806	0.6308	0.3408	-1.444
Mof_H 	H 	0.4667	0.6558	0.3916	0.463
Mof_H 	H 	0.4664	0.6029	0.275	0.43
Mof_H 	H 	0.4965	0.608	0.4126	0.422
Mof_O 	O 	0.3797	0.0676	0.677	-0.292
Mof_O 	O 	0.3302	0.111	0.666	-0.315
Mof_O 	O 	0.372	0.916	0.73	-0.776
Mof_O 	O 	0.3261	0.8621	0.66	-0.365
Mof_O 	O 	0.4086	0.833	0.883	-3.775
Mof_C 	C 	0.354	0.87	0.735	-0.902
Mof_C 	C 	0.373	0.822	0.837	-0.151
Mof_H 	H 	0.3697	0.7829	0.7875	0.621
Mof_H 	H 	0.363	0.8199	0.9256	0.058
Mof_Pb	Pb	0.83043	0.49164	0.56243	0.57
Mof_K 	K 	0.79095	0.6297	0.3485	2.956
Mof_O 	O 	0.8592	0.5532	0.768	-0.392
Mof_O 	O 	0.8403	0.6255	0.607	-0.495
Mof_O 	O 	0.8667	0.7108	0.7914	-0.202
Mof_O 	O 	0.7139	0.0142	0.2965	-0.717
Mof_O 	O 	0.7362	0.9503	0.4713	-0.728
Mof_O 	O 	0.7946	0.9502	0.3835	-0.269
Mof_O 	O 	0.8487	0.4239	0.7611	0.016
Mof_O 	O 	0.8905	0.421	0.6448	-0.185
Mof_O 	O 	0.9212	0.3355	0.834	1.449
Mof_C 	C 	0.86	0.6052	0.718	0.833
Mof_C 	C 	0.8795	0.6502	0.8254	-0.428
Mof_H 	H 	0.9034	0.6487	0.8196	0.187
Mof_H 	H 	0.8775	0.6395	0.9262	0.147
Mof_C 	C 	0.8819	0.758	0.8879	0.184
Mof_C 	C 	0.9065	0.7488	0.014	-0.25
Mof_H 	H 	0.9151	0.7098	0.0399	0.052
Mof_C 	C 	0.9181	0.7994	0.1012	0.12
Mof_H 	H 	0.9343	0.7929	0.1874	-0.058
Mof_C 	C 	0.9072	0.8592	0.0687	-0.265
Mof_C 	C 	0.8827	0.8654	0.9389	0.119
Mof_H 	H 	0.8744	0.9044	0.9113	-0.043
Mof_C 	C 	0.8699	0.8163	0.8483	-0.252
Mof_H 	H 	0.8536	0.8225	0.7624	0.046
Mof_C 	C 	0.7378	0.9839	0.3653	0.547
Mof_C 	C 	0.7699	0.9919	0.3058	-0.229
Mof_H 	H 	0.7656	0.9833	0.1997	0.028
Mof_H 	H 	0.778	0.0338	0.3214	-0.02
Mof_C 	C 	0.8254	0.9475	0.3317	0.218
Mof_C 	C 	0.8345	0.9881	0.2318	-0.272
Mof_H 	H 	0.8206	0.021	0.1952	0.089
Mof_C 	C 	0.8654	0.9788	0.187	0.15
Mof_H 	H 	0.8721	0.0069	0.1218	-0.042
Mof_C 	C 	0.8865	0.9297	0.2349	-0.272
Mof_C 	C 	0.8758	0.8902	0.3359	0.139
Mof_H 	H 	0.8896	0.8571	0.3718	-0.058
Mof_C 	C 	0.8455	0.8978	0.3859	-0.281
Mof_H 	H 	0.839	0.8705	0.4533	0.053
Mof_C 	C 	0.917	0.9141	0.1664	0.501
Mof_C 	C 	0.9474	0.9007	0.2937	-0.911
Mof_H 	H 	0.9661	0.8857	0.2527	0.267
Mof_H 	H 	0.954	0.9377	0.3487	0.259
Mof_H 	H 	0.941	0.8703	0.3591	0.284
Mof_C 	C 	0.9275	0.9682	0.0777	-0.903
Mof_H 	H 	0.9104	0.9748	0.9898	0.287
Mof_H 	H 	0.9298	0.0045	0.1384	0.263
Mof_H 	H 	0.9488	0.9591	0.0495	0.257
Mof_C 	C 	0.875	0.401	0.74	0.468
Mof_C 	C 	0.8872	0.3506	0.845	4.496
Mof_H 	H 	0.8728	0.3147	0.8231	-1.485
Mof_H 	H 	0.8865	0.3642	0.9452	-0.961
Mof_C 	C 	0.9357	0.2936	0.9486	1.296
Mof_C 	C 	0.9204	0.2571	0.0405	-0.833
Mof_H 	H 	0.8972	0.2597	0.0393	0.393
Mof_C 	C 	0.9413	0.2162	0.1354	0.636
Mof_H 	H 	0.9313	0.1903	0.1955	-0.209
Mof_C 	C 	0.9762	0.2125	0.1438	-0.755
Mof_C 	C 	0.9903	0.2494	0.0473	0.802
Mof_H 	H 	0.0137	0.2481	0.0511	-0.272
Mof_C 	C 	0.9704	0.2879	0.9459	-1.153
Mof_H 	H 	0.9799	0.3097	0.8768	0.359
Mof_C 	C 	0.9806	0.1308	0.3408	-1.408
Mof_H 	H 	0.9667	0.1558	0.3916	0.453
Mof_H 	H 	0.9664	0.1029	0.275	0.421
Mof_H 	H 	0.9965	0.108	0.4126	0.414
Mof_O 	O 	0.8797	0.5676	0.677	-0.291
Mof_O 	O 	0.8302	0.611	0.666	-0.316
Mof_O 	O 	0.872	0.416	0.73	-0.776
Mof_O 	O 	0.8261	0.3621	0.66	-0.366
Mof_O 	O 	0.9086	0.333	0.883	-3.775
Mof_C 	C 	0.854	0.37	0.735	-0.902
Mof_C 	C 	0.873	0.322	0.837	-0.151
Mof_H 	H 	0.8697	0.2829	0.7875	0.621
Mof_H 	H 	0.863	0.3199	0.9256	0.058
Mof_C 	C 	0.5	0.3279	0.75	1.021
Mof_C 	C 	-7.25934e-18	0.8279	0.75	0.989
Mof_C 	C 	0.5	0.6721	0.25	1.021
Mof_C 	C 	2.55691e-34	0.1721	0.25	0.989
_end
