data_functionalizedCrystal
_audit_creation_method	'EQeq! by Chris Wilmer'
_symmetry_space_group_name_H-M	'P1'
_symmetry_Int_Tables_number	1
_symmetry_cell_setting	triclinic
loop_
_symmetry_equiv_pos_as_xyz
  x,y,z
_cell_length_a	40.5408
_cell_length_b	40.5408
_cell_length_c	17.6055
_cell_angle_alpha	90
_cell_angle_beta	90
_cell_angle_gamma	90
loop_
_atom_site_label
_atom_site_type_symbol
_atom_site_fract_x
_atom_site_fract_y
_atom_site_fract_z
_atom_site_charge
Mof_Mn	Mn	0.57439	0.45518	0.32838	1.008
Mof_O 	O 	0.59564	0.48175	0.2562	-0.447
Mof_O 	O 	0.496	0.47497	0.18383	-0.373
Mof_O 	O 	0.54562	0.42969	0.39455	-0.386
Mof_N 	N 	0.53268	0.46152	0.27646	-0.253
Mof_N 	N 	0.50535	0.44557	0.31224	-0.194
Mof_C 	C 	0.58417	0.4971	0.1991	0.348
Mof_C 	C 	0.60535	0.51721	0.158	-0.31
Mof_H 	H 	0.627	0.5207	0.1769	0.138
Mof_C 	C 	0.5967	0.532	0.0927	0.154
Mof_H 	H 	0.6118	0.5465	0.0685	-0.028
Mof_C 	C 	0.5648	0.5264	0.0583	-0.198
Mof_H 	H 	0.5596	0.534	0.0087	0.101
Mof_C 	C 	0.54173	0.5086	0.1038	0.133
Mof_H 	H 	0.5195	0.507	0.0875	0.002
Mof_C 	C 	0.55099	0.49404	0.1705	-0.255
Mof_C 	C 	0.52545	0.47642	0.212	0.298
Mof_C 	C 	0.51476	0.42998	0.3729	0.229
Mof_C 	C 	0.48987	0.4122	0.4191	-0.152
Mof_H 	H 	0.4757	0.3992	0.3843	0.065
Mof_H 	H 	0.4756	0.4288	0.4441	0.074
Mof_C 	C 	0.5029	0.38952	0.4786	-0.251
Mof_H 	H 	0.5184	0.3739	0.4555	0.101
Mof_H 	H 	0.4846	0.3773	0.5017	0.097
Mof_H 	H 	0.5143	0.4024	0.5178	0.102
Mof_Mn	Mn	0.45902	0.46272	0.25253	1.047
Mof_O 	O 	0.44998	0.42109	0.21261	-0.426
Mof_O 	O 	0.38483	0.43293	0.39966	-0.379
Mof_O 	O 	0.46183	0.505	0.30337	-0.378
Mof_N 	N 	0.42408	0.45735	0.32713	-0.249
Mof_N 	N 	0.41891	0.48558	0.3726	-0.187
Mof_N 	N 	0.4257	0.48829	0.1658	-0.237
Mof_C 	C 	0.42744	0.399	0.2324	0.317
Mof_C 	C 	0.42526	0.37026	0.188	-0.286
Mof_H 	H 	0.4395	0.3675	0.1457	0.135
Mof_C 	C 	0.40281	0.34635	0.2053	0.159
Mof_H 	H 	0.4018	0.327	0.1748	-0.032
Mof_C 	C 	0.38149	0.34955	0.266	-0.222
Mof_H 	H 	0.366	0.3326	0.2773	0.108
Mof_C 	C 	0.38292	0.3774	0.3099	0.143
Mof_H 	H 	0.3681	0.3797	0.3514	0.002
Mof_C 	C 	0.40564	0.40256	0.2951	-0.246
Mof_C 	C 	0.40472	0.43209	0.3438	0.303
Mof_C 	C 	0.4394	0.50888	0.3549	0.212
Mof_C 	C 	0.43636	0.54208	0.393	-0.08
Mof_H 	H 	0.4193	0.5405	0.4331	0.041
Mof_H 	H 	0.4576	0.5473	0.4181	0.048
Mof_C 	C 	0.4282	0.5683	0.3442	-0.315
Mof_H 	H 	0.4476	0.5823	0.3364	0.117
Mof_H 	H 	0.4104	0.5814	0.367	0.114
Mof_H 	H 	0.4208	0.5595	0.2953	0.122
Mof_C 	C 	0.4367	0.5194	0.1422	0.101
Mof_H 	H 	0.4581	0.527	0.1563	0.006
Mof_C 	C 	0.4156	0.5398	0.0967	-0.219
Mof_H 	H 	0.4218	0.5617	0.0829	0.098
Mof_C 	C 	0.38481	0.5257	0.0731	0.261
Mof_C 	C 	0.37529	0.5046	0.1143	-0.367
Mof_H 	H 	0.3523	0.5002	0.1169	0.146
Mof_C 	C 	0.39666	0.4862	0.159	0.247
Mof_H 	H 	0.3865	0.4694	0.1885	-0.057
Mof_C 	C 	0.3614	0.5445	0.0197	-0.249
Mof_H 	H 	0.3448	0.5288	0.9999	0.096
Mof_H 	H 	0.3494	0.5613	0.0498	0.093
Mof_Mn	Mn	0.61301	0.52921	0.52836	1.049
Mof_O 	O 	0.65088	0.50868	0.56457	-0.429
Mof_O 	O 	0.61526	0.44753	0.38603	-0.388
Mof_O 	O 	0.5726	0.5444	0.48114	-0.393
Mof_N 	N 	0.60602	0.49361	0.45623	-0.251
Mof_N 	N 	0.57594	0.49608	0.415	-0.197
Mof_N 	N 	0.31004	0.60828	0.8063	-0.202
Mof_C 	C 	0.66795	0.48388	0.5342	0.316
Mof_C 	C 	0.69928	0.4776	0.5633	-0.288
Mof_H 	H 	0.7075	0.4911	0.6032	0.136
Mof_C 	C 	0.71859	0.45259	0.5363	0.162
Mof_H 	H 	0.7395	0.4487	0.5587	-0.034
Mof_C 	C 	0.70828	0.43295	0.4772	-0.216
Mof_H 	H 	0.7222	0.4161	0.4575	0.112
Mof_C 	C 	0.67718	0.43823	0.4472	0.139
Mof_H 	H 	0.6695	0.4242	0.4077	0.009
Mof_C 	C 	0.6568	0.46353	0.4733	-0.242
Mof_C 	C 	0.62426	0.46807	0.4369	0.307
Mof_C 	C 	0.56107	0.52342	0.4324	0.278
Mof_C 	C 	0.52923	0.53168	0.3946	-0.27
Mof_H 	H 	0.52	0.512	0.369	0.108
Mof_H 	H 	0.513	0.5396	0.4324	0.11
Mof_C 	C 	0.32898	0.58336	0.7853	0.12
Mof_H 	H 	0.3283	0.5766	0.7336	-0.001
Mof_C 	C 	0.34944	0.56686	0.8335	-0.192
Mof_H 	H 	0.3623	0.5489	0.8156	0.1
Mof_C 	C 	0.35129	0.57629	0.9079	0.112
Mof_C 	C 	0.33132	0.60153	0.9309	-0.178
Mof_H 	H 	0.3316	0.6085	0.9824	0.084
Mof_C 	C 	0.31084	0.61694	0.8799	0.107
Mof_H 	H 	0.2969	0.6342	0.8972	-0.004
Mof_C 	C 	0.3755	0.5592	0.9618	-0.068
Mof_H 	H 	0.3883	0.5427	0.9328	0.049
Mof_H 	H 	0.3912	0.5759	0.9814	0.042
Mof_Mn	Mn	0.07439	0.95518	0.82838	1.009
Mof_O 	O 	0.09564	0.98175	0.7562	-0.446
Mof_O 	O 	0.996	0.97497	0.68383	-0.372
Mof_O 	O 	0.04562	0.92969	0.89455	-0.385
Mof_N 	N 	0.03268	0.96152	0.77646	-0.252
Mof_N 	N 	0.00535	0.94557	0.81224	-0.193
Mof_C 	C 	0.08417	0.9971	0.6991	0.349
Mof_C 	C 	0.10535	0.01721	0.658	-0.309
Mof_H 	H 	0.127	0.0207	0.6769	0.139
Mof_C 	C 	0.0967	0.032	0.5927	0.155
Mof_H 	H 	0.1118	0.0465	0.5685	-0.027
Mof_C 	C 	0.0648	0.0264	0.5583	-0.197
Mof_H 	H 	0.0596	0.034	0.5087	0.102
Mof_C 	C 	0.04173	0.0086	0.6038	0.134
Mof_H 	H 	0.0195	0.007	0.5875	0.003
Mof_C 	C 	0.05099	0.99404	0.6705	-0.254
Mof_C 	C 	0.02545	0.97642	0.712	0.299
Mof_C 	C 	0.01476	0.92998	0.8729	0.23
Mof_C 	C 	0.98987	0.9122	0.9191	-0.15
Mof_H 	H 	0.9757	0.8992	0.8843	0.066
Mof_H 	H 	0.9756	0.9288	0.9441	0.075
Mof_C 	C 	0.0029	0.88952	0.9786	-0.251
Mof_H 	H 	0.0184	0.8739	0.9555	0.102
Mof_H 	H 	0.9846	0.8773	0.0017	0.098
Mof_H 	H 	0.0143	0.9024	0.0178	0.102
Mof_Mn	Mn	0.95902	0.96272	0.75253	1.047
Mof_O 	O 	0.94998	0.92109	0.71261	-0.426
Mof_O 	O 	0.88483	0.93293	0.89966	-0.379
Mof_O 	O 	0.96183	0.005	0.80337	-0.378
Mof_N 	N 	0.92408	0.95735	0.82713	-0.249
Mof_N 	N 	0.91891	0.98558	0.8726	-0.187
Mof_N 	N 	0.9257	0.98829	0.6658	-0.237
Mof_C 	C 	0.92744	0.899	0.7324	0.317
Mof_C 	C 	0.92526	0.87026	0.688	-0.286
Mof_H 	H 	0.9395	0.8675	0.6457	0.135
Mof_C 	C 	0.90281	0.84635	0.7053	0.159
Mof_H 	H 	0.9018	0.827	0.6748	-0.032
Mof_C 	C 	0.88149	0.84955	0.766	-0.222
Mof_H 	H 	0.866	0.8326	0.7773	0.108
Mof_C 	C 	0.88292	0.8774	0.8099	0.143
Mof_H 	H 	0.8681	0.8797	0.8514	0.002
Mof_C 	C 	0.90564	0.90256	0.7951	-0.246
Mof_C 	C 	0.90472	0.93209	0.8438	0.303
Mof_C 	C 	0.9394	0.00888	0.8549	0.212
Mof_C 	C 	0.93636	0.04208	0.893	-0.08
Mof_H 	H 	0.9193	0.0405	0.9331	0.041
Mof_H 	H 	0.9576	0.0473	0.9181	0.048
Mof_C 	C 	0.9282	0.0683	0.8442	-0.315
Mof_H 	H 	0.9476	0.0823	0.8364	0.117
Mof_H 	H 	0.9104	0.0814	0.867	0.114
Mof_H 	H 	0.9208	0.0595	0.7953	0.122
Mof_C 	C 	0.9367	0.0194	0.6422	0.101
Mof_H 	H 	0.9581	0.027	0.6563	0.005
Mof_C 	C 	0.9156	0.0398	0.5967	-0.22
Mof_H 	H 	0.9218	0.0617	0.5829	0.098
Mof_C 	C 	0.88481	0.0257	0.5731	0.262
Mof_C 	C 	0.87529	0.0046	0.6143	-0.367
Mof_H 	H 	0.8523	0.0002	0.6169	0.146
Mof_C 	C 	0.89666	0.9862	0.659	0.247
Mof_H 	H 	0.8865	0.9694	0.6885	-0.057
Mof_C 	C 	0.8614	0.0445	0.5197	-0.25
Mof_H 	H 	0.8448	0.0288	0.4999	0.096
Mof_H 	H 	0.8494	0.0613	0.5498	0.093
Mof_Mn	Mn	0.11301	0.02921	0.02836	1.049
Mof_O 	O 	0.15088	0.00868	0.06457	-0.429
Mof_O 	O 	0.11526	0.94753	0.88603	-0.388
Mof_O 	O 	0.0726	0.0444	0.98114	-0.393
Mof_N 	N 	0.10602	0.99361	0.95623	-0.251
Mof_N 	N 	0.07594	0.99608	0.915	-0.197
Mof_N 	N 	0.81004	0.10828	0.3063	-0.202
Mof_C 	C 	0.16795	0.98388	0.0342	0.316
Mof_C 	C 	0.19928	0.9776	0.0633	-0.288
Mof_H 	H 	0.2075	0.9911	0.1032	0.136
Mof_C 	C 	0.21859	0.95259	0.0363	0.162
Mof_H 	H 	0.2395	0.9487	0.0587	-0.034
Mof_C 	C 	0.20828	0.93295	0.9772	-0.216
Mof_H 	H 	0.2222	0.9161	0.9575	0.112
Mof_C 	C 	0.17718	0.93823	0.9472	0.139
Mof_H 	H 	0.1695	0.9242	0.9077	0.009
Mof_C 	C 	0.1568	0.96353	0.9733	-0.242
Mof_C 	C 	0.12426	0.96807	0.9369	0.307
Mof_C 	C 	0.06107	0.02342	0.9324	0.278
Mof_C 	C 	0.02923	0.03168	0.8946	-0.27
Mof_H 	H 	0.02	0.012	0.869	0.108
Mof_H 	H 	0.013	0.0396	0.9324	0.11
Mof_C 	C 	0.82898	0.08336	0.2853	0.12
Mof_H 	H 	0.8283	0.0766	0.2336	-0.001
Mof_C 	C 	0.84944	0.06686	0.3335	-0.192
Mof_H 	H 	0.8623	0.0489	0.3156	0.1
Mof_C 	C 	0.85129	0.07629	0.4079	0.112
Mof_C 	C 	0.83132	0.10153	0.4309	-0.177
Mof_H 	H 	0.8316	0.1085	0.4824	0.084
Mof_C 	C 	0.81084	0.11694	0.3799	0.107
Mof_H 	H 	0.7969	0.1342	0.3972	-0.004
Mof_C 	C 	0.8755	0.0592	0.4618	-0.067
Mof_H 	H 	0.8883	0.0427	0.4328	0.049
Mof_H 	H 	0.8912	0.0759	0.4814	0.042
Mof_Mn	Mn	0.92561	0.54482	0.82838	1.009
Mof_O 	O 	0.90436	0.51825	0.7562	-0.446
Mof_O 	O 	0.004	0.52503	0.68383	-0.372
Mof_O 	O 	0.95438	0.57031	0.89455	-0.385
Mof_N 	N 	0.96732	0.53848	0.77646	-0.252
Mof_N 	N 	0.99465	0.55443	0.81224	-0.193
Mof_C 	C 	0.91583	0.5029	0.6991	0.349
Mof_C 	C 	0.89465	0.48279	0.658	-0.309
Mof_H 	H 	0.873	0.4793	0.6769	0.139
Mof_C 	C 	0.9033	0.468	0.5927	0.155
Mof_H 	H 	0.8882	0.4535	0.5685	-0.027
Mof_C 	C 	0.9352	0.4736	0.5583	-0.197
Mof_H 	H 	0.9404	0.466	0.5087	0.102
Mof_C 	C 	0.95827	0.4914	0.6038	0.134
Mof_H 	H 	0.9805	0.493	0.5875	0.003
Mof_C 	C 	0.94901	0.50596	0.6705	-0.254
Mof_C 	C 	0.97455	0.52358	0.712	0.299
Mof_C 	C 	0.98524	0.57002	0.8729	0.23
Mof_C 	C 	0.01013	0.5878	0.9191	-0.15
Mof_H 	H 	0.0243	0.6008	0.8843	0.066
Mof_H 	H 	0.0244	0.5712	0.9441	0.075
Mof_C 	C 	0.9971	0.61048	0.9786	-0.251
Mof_H 	H 	0.9816	0.6261	0.9555	0.102
Mof_H 	H 	0.0154	0.6227	0.0017	0.098
Mof_H 	H 	0.9857	0.5976	0.0178	0.102
Mof_Mn	Mn	0.04098	0.53728	0.75253	1.047
Mof_O 	O 	0.05002	0.57891	0.71261	-0.426
Mof_O 	O 	0.11517	0.56707	0.89966	-0.379
Mof_O 	O 	0.03817	0.495	0.80337	-0.378
Mof_N 	N 	0.07592	0.54265	0.82713	-0.249
Mof_N 	N 	0.08109	0.51442	0.8726	-0.187
Mof_N 	N 	0.0743	0.51171	0.6658	-0.237
Mof_C 	C 	0.07256	0.601	0.7324	0.317
Mof_C 	C 	0.07474	0.62974	0.688	-0.286
Mof_H 	H 	0.0605	0.6325	0.6457	0.135
Mof_C 	C 	0.09719	0.65365	0.7053	0.159
Mof_H 	H 	0.0982	0.673	0.6748	-0.032
Mof_C 	C 	0.11851	0.65045	0.766	-0.222
Mof_H 	H 	0.134	0.6674	0.7773	0.108
Mof_C 	C 	0.11708	0.6226	0.8099	0.143
Mof_H 	H 	0.1319	0.6203	0.8514	0.002
Mof_C 	C 	0.09436	0.59744	0.7951	-0.246
Mof_C 	C 	0.09528	0.56791	0.8438	0.303
Mof_C 	C 	0.0606	0.49112	0.8549	0.212
Mof_C 	C 	0.06364	0.45792	0.893	-0.08
Mof_H 	H 	0.0807	0.4595	0.9331	0.041
Mof_H 	H 	0.0424	0.4527	0.9181	0.048
Mof_C 	C 	0.0718	0.4317	0.8442	-0.315
Mof_H 	H 	0.0524	0.4177	0.8364	0.117
Mof_H 	H 	0.0896	0.4186	0.867	0.114
Mof_H 	H 	0.0792	0.4405	0.7953	0.122
Mof_C 	C 	0.0633	0.4806	0.6422	0.101
Mof_H 	H 	0.0419	0.473	0.6563	0.005
Mof_C 	C 	0.0844	0.4602	0.5967	-0.22
Mof_H 	H 	0.0782	0.4383	0.5829	0.098
Mof_C 	C 	0.11519	0.4743	0.5731	0.262
Mof_C 	C 	0.12471	0.4954	0.6143	-0.367
Mof_H 	H 	0.1477	0.4998	0.6169	0.146
Mof_C 	C 	0.10334	0.5138	0.659	0.247
Mof_H 	H 	0.1135	0.5306	0.6885	-0.057
Mof_C 	C 	0.1386	0.4555	0.5197	-0.25
Mof_H 	H 	0.1552	0.4712	0.4999	0.096
Mof_H 	H 	0.1506	0.4387	0.5498	0.093
Mof_Mn	Mn	0.88699	0.47079	0.02836	1.049
Mof_O 	O 	0.84912	0.49132	0.06457	-0.428
Mof_O 	O 	0.88474	0.55247	0.88603	-0.388
Mof_O 	O 	0.9274	0.4556	0.98114	-0.393
Mof_N 	N 	0.89398	0.50639	0.95623	-0.251
Mof_N 	N 	0.92406	0.50392	0.915	-0.197
Mof_N 	N 	0.18996	0.39172	0.3063	-0.202
Mof_C 	C 	0.83205	0.51612	0.0342	0.316
Mof_C 	C 	0.80072	0.5224	0.0633	-0.288
Mof_H 	H 	0.7925	0.5089	0.1032	0.136
Mof_C 	C 	0.78141	0.54741	0.0363	0.162
Mof_H 	H 	0.7605	0.5513	0.0587	-0.034
Mof_C 	C 	0.79172	0.56705	0.9772	-0.216
Mof_H 	H 	0.7778	0.5839	0.9575	0.112
Mof_C 	C 	0.82282	0.56177	0.9472	0.139
Mof_H 	H 	0.8305	0.5758	0.9077	0.009
Mof_C 	C 	0.8432	0.53647	0.9733	-0.242
Mof_C 	C 	0.87574	0.53193	0.9369	0.307
Mof_C 	C 	0.93893	0.47658	0.9324	0.278
Mof_C 	C 	0.97077	0.46832	0.8946	-0.27
Mof_H 	H 	0.98	0.488	0.869	0.108
Mof_H 	H 	0.987	0.4604	0.9324	0.11
Mof_C 	C 	0.17102	0.41664	0.2853	0.12
Mof_H 	H 	0.1717	0.4234	0.2336	-0.001
Mof_C 	C 	0.15056	0.43314	0.3335	-0.192
Mof_H 	H 	0.1377	0.4511	0.3156	0.1
Mof_C 	C 	0.14871	0.42371	0.4079	0.112
Mof_C 	C 	0.16868	0.39847	0.4309	-0.177
Mof_H 	H 	0.1684	0.3915	0.4824	0.084
Mof_C 	C 	0.18916	0.38306	0.3799	0.107
Mof_H 	H 	0.2031	0.3658	0.3972	-0.004
Mof_C 	C 	0.1245	0.4408	0.4618	-0.067
Mof_H 	H 	0.1117	0.4573	0.4328	0.049
Mof_H 	H 	0.1088	0.4241	0.4814	0.042
Mof_Mn	Mn	0.42561	0.04482	0.32838	1.009
Mof_O 	O 	0.40436	0.01825	0.2562	-0.446
Mof_O 	O 	0.504	0.02503	0.18383	-0.372
Mof_O 	O 	0.45438	0.07031	0.39455	-0.385
Mof_N 	N 	0.46732	0.03848	0.27646	-0.252
Mof_N 	N 	0.49465	0.05443	0.31224	-0.193
Mof_C 	C 	0.41583	0.0029	0.1991	0.349
Mof_C 	C 	0.39465	0.98279	0.158	-0.309
Mof_H 	H 	0.373	0.9793	0.1769	0.139
Mof_C 	C 	0.4033	0.968	0.0927	0.155
Mof_H 	H 	0.3882	0.9535	0.0685	-0.027
Mof_C 	C 	0.4352	0.9736	0.0583	-0.197
Mof_H 	H 	0.4404	0.966	0.0087	0.102
Mof_C 	C 	0.45827	0.9914	0.1038	0.134
Mof_H 	H 	0.4805	0.993	0.0875	0.003
Mof_C 	C 	0.44901	0.00596	0.1705	-0.254
Mof_C 	C 	0.47455	0.02358	0.212	0.299
Mof_C 	C 	0.48524	0.07002	0.3729	0.23
Mof_C 	C 	0.51013	0.0878	0.4191	-0.151
Mof_H 	H 	0.5243	0.1008	0.3843	0.066
Mof_H 	H 	0.5244	0.0712	0.4441	0.075
Mof_C 	C 	0.4971	0.11048	0.4786	-0.25
Mof_H 	H 	0.4816	0.1261	0.4555	0.102
Mof_H 	H 	0.5154	0.1227	0.5017	0.098
Mof_H 	H 	0.4857	0.0976	0.5178	0.102
Mof_Mn	Mn	0.54098	0.03728	0.25253	1.047
Mof_O 	O 	0.55002	0.07891	0.21261	-0.426
Mof_O 	O 	0.61517	0.06707	0.39966	-0.379
Mof_O 	O 	0.53817	0.995	0.30337	-0.378
Mof_N 	N 	0.57592	0.04265	0.32713	-0.249
Mof_N 	N 	0.58109	0.01442	0.3726	-0.187
Mof_N 	N 	0.5743	0.01171	0.1658	-0.237
Mof_C 	C 	0.57256	0.101	0.2324	0.317
Mof_C 	C 	0.57474	0.12974	0.188	-0.286
Mof_H 	H 	0.5605	0.1325	0.1457	0.135
Mof_C 	C 	0.59719	0.15365	0.2053	0.159
Mof_H 	H 	0.5982	0.173	0.1748	-0.032
Mof_C 	C 	0.61851	0.15045	0.266	-0.222
Mof_H 	H 	0.634	0.1674	0.2773	0.108
Mof_C 	C 	0.61708	0.1226	0.3099	0.143
Mof_H 	H 	0.6319	0.1203	0.3514	0.002
Mof_C 	C 	0.59436	0.09744	0.2951	-0.246
Mof_C 	C 	0.59528	0.06791	0.3438	0.303
Mof_C 	C 	0.5606	0.99112	0.3549	0.212
Mof_C 	C 	0.56364	0.95792	0.393	-0.08
Mof_H 	H 	0.5807	0.9595	0.4331	0.041
Mof_H 	H 	0.5424	0.9527	0.4181	0.048
Mof_C 	C 	0.5718	0.9317	0.3442	-0.315
Mof_H 	H 	0.5524	0.9177	0.3364	0.117
Mof_H 	H 	0.5896	0.9186	0.367	0.114
Mof_H 	H 	0.5792	0.9405	0.2953	0.122
Mof_C 	C 	0.5633	0.9806	0.1422	0.101
Mof_H 	H 	0.5419	0.973	0.1563	0.006
Mof_C 	C 	0.5844	0.9602	0.0967	-0.219
Mof_H 	H 	0.5782	0.9383	0.0829	0.098
Mof_C 	C 	0.61519	0.9743	0.0731	0.261
Mof_C 	C 	0.62471	0.9954	0.1143	-0.366
Mof_H 	H 	0.6477	0.9998	0.1169	0.146
Mof_C 	C 	0.60334	0.0138	0.159	0.247
Mof_H 	H 	0.6135	0.0306	0.1885	-0.057
Mof_C 	C 	0.6386	0.9555	0.0197	-0.249
Mof_H 	H 	0.6552	0.9712	0.9999	0.096
Mof_H 	H 	0.6506	0.9387	0.0498	0.093
Mof_Mn	Mn	0.38699	0.97079	0.52836	1.049
Mof_O 	O 	0.34912	0.99132	0.56457	-0.429
Mof_O 	O 	0.38474	0.05247	0.38603	-0.388
Mof_O 	O 	0.4274	0.9556	0.48114	-0.393
Mof_N 	N 	0.39398	0.00639	0.45623	-0.251
Mof_N 	N 	0.42406	0.00392	0.415	-0.197
Mof_N 	N 	0.68996	0.89172	0.8063	-0.202
Mof_C 	C 	0.33205	0.01612	0.5342	0.316
Mof_C 	C 	0.30072	0.0224	0.5633	-0.288
Mof_H 	H 	0.2925	0.0089	0.6032	0.136
Mof_C 	C 	0.28141	0.04741	0.5363	0.162
Mof_H 	H 	0.2605	0.0513	0.5587	-0.034
Mof_C 	C 	0.29172	0.06705	0.4772	-0.216
Mof_H 	H 	0.2778	0.0839	0.4575	0.112
Mof_C 	C 	0.32282	0.06177	0.4472	0.139
Mof_H 	H 	0.3305	0.0758	0.4077	0.009
Mof_C 	C 	0.3432	0.03647	0.4733	-0.242
Mof_C 	C 	0.37574	0.03193	0.4369	0.307
Mof_C 	C 	0.43893	0.97658	0.4324	0.278
Mof_C 	C 	0.47077	0.96832	0.3946	-0.27
Mof_H 	H 	0.48	0.988	0.369	0.108
Mof_H 	H 	0.487	0.9604	0.4324	0.11
Mof_C 	C 	0.67102	0.91664	0.7853	0.12
Mof_H 	H 	0.6717	0.9234	0.7336	-0.001
Mof_C 	C 	0.65056	0.93314	0.8335	-0.192
Mof_H 	H 	0.6377	0.9511	0.8156	0.1
Mof_C 	C 	0.64871	0.92371	0.9079	0.112
Mof_C 	C 	0.66868	0.89847	0.9309	-0.178
Mof_H 	H 	0.6684	0.8915	0.9824	0.084
Mof_C 	C 	0.68916	0.88306	0.8799	0.107
Mof_H 	H 	0.7031	0.8658	0.8972	-0.004
Mof_C 	C 	0.6245	0.9408	0.9618	-0.068
Mof_H 	H 	0.6117	0.9573	0.9328	0.049
Mof_H 	H 	0.6088	0.9241	0.9814	0.042
Mof_Mn	Mn	0.29482	0.82439	0.57838	1.009
Mof_O 	O 	0.26825	0.84564	0.5062	-0.446
Mof_O 	O 	0.27503	0.746	0.43383	-0.372
Mof_O 	O 	0.32031	0.79562	0.64455	-0.385
Mof_N 	N 	0.28848	0.78268	0.52646	-0.252
Mof_N 	N 	0.30443	0.75535	0.56224	-0.193
Mof_C 	C 	0.2529	0.83417	0.4491	0.349
Mof_C 	C 	0.23279	0.85535	0.408	-0.309
Mof_H 	H 	0.2293	0.877	0.4269	0.139
Mof_C 	C 	0.218	0.8467	0.3427	0.155
Mof_H 	H 	0.2035	0.8618	0.3185	-0.027
Mof_C 	C 	0.2236	0.8148	0.3083	-0.197
Mof_H 	H 	0.216	0.8096	0.2587	0.102
Mof_C 	C 	0.2414	0.79173	0.3538	0.134
Mof_H 	H 	0.243	0.7695	0.3375	0.003
Mof_C 	C 	0.25596	0.80099	0.4205	-0.254
Mof_C 	C 	0.27358	0.77545	0.462	0.299
Mof_C 	C 	0.32002	0.76476	0.6229	0.23
Mof_C 	C 	0.3378	0.73987	0.6691	-0.151
Mof_H 	H 	0.3508	0.7257	0.6343	0.066
Mof_H 	H 	0.3212	0.7256	0.6941	0.075
Mof_C 	C 	0.36048	0.7529	0.7286	-0.25
Mof_H 	H 	0.3761	0.7684	0.7055	0.102
Mof_H 	H 	0.3727	0.7346	0.7517	0.098
Mof_H 	H 	0.3476	0.7643	0.7678	0.102
Mof_Mn	Mn	0.28728	0.70902	0.50253	1.047
Mof_O 	O 	0.32891	0.69998	0.46261	-0.426
Mof_O 	O 	0.31707	0.63483	0.64966	-0.379
Mof_O 	O 	0.245	0.71183	0.55337	-0.378
Mof_N 	N 	0.29265	0.67408	0.57713	-0.249
Mof_N 	N 	0.26442	0.66891	0.6226	-0.187
Mof_N 	N 	0.26171	0.6757	0.4158	-0.237
Mof_C 	C 	0.351	0.67744	0.4824	0.317
Mof_C 	C 	0.37974	0.67526	0.438	-0.286
Mof_H 	H 	0.3825	0.6895	0.3957	0.135
Mof_C 	C 	0.40365	0.65281	0.4553	0.159
Mof_H 	H 	0.423	0.6518	0.4248	-0.032
Mof_C 	C 	0.40045	0.63149	0.516	-0.222
Mof_H 	H 	0.4174	0.616	0.5273	0.108
Mof_C 	C 	0.3726	0.63292	0.5599	0.143
Mof_H 	H 	0.3703	0.6181	0.6014	0.002
Mof_C 	C 	0.34744	0.65564	0.5451	-0.246
Mof_C 	C 	0.31791	0.65472	0.5938	0.303
Mof_C 	C 	0.24112	0.6894	0.6049	0.212
Mof_C 	C 	0.20792	0.68636	0.643	-0.08
Mof_H 	H 	0.2095	0.6693	0.6831	0.041
Mof_H 	H 	0.2027	0.7076	0.6681	0.048
Mof_C 	C 	0.1817	0.6782	0.5942	-0.315
Mof_H 	H 	0.1677	0.6976	0.5864	0.117
Mof_H 	H 	0.1686	0.6604	0.617	0.114
Mof_H 	H 	0.1905	0.6708	0.5453	0.122
Mof_C 	C 	0.2306	0.6867	0.3922	0.101
Mof_H 	H 	0.223	0.7081	0.4063	0.005
Mof_C 	C 	0.2102	0.6656	0.3467	-0.22
Mof_H 	H 	0.1883	0.6718	0.3329	0.098
Mof_C 	C 	0.2243	0.63481	0.3231	0.262
Mof_C 	C 	0.2454	0.62529	0.3643	-0.367
Mof_H 	H 	0.2498	0.6023	0.3669	0.146
Mof_C 	C 	0.2638	0.64666	0.409	0.247
Mof_H 	H 	0.2806	0.6365	0.4385	-0.057
Mof_C 	C 	0.2055	0.6114	0.2697	-0.25
Mof_H 	H 	0.2212	0.5948	0.2499	0.096
Mof_H 	H 	0.1887	0.5994	0.2998	0.093
Mof_Mn	Mn	0.22079	0.86301	0.77836	1.049
Mof_O 	O 	0.24132	0.90088	0.81457	-0.429
Mof_O 	O 	0.30247	0.86526	0.63603	-0.388
Mof_O 	O 	0.2056	0.8226	0.73114	-0.393
Mof_N 	N 	0.25639	0.85602	0.70623	-0.251
Mof_N 	N 	0.25392	0.82594	0.665	-0.197
Mof_N 	N 	0.14172	0.56004	0.0563	-0.202
Mof_C 	C 	0.26612	0.91795	0.7842	0.316
Mof_C 	C 	0.2724	0.94928	0.8133	-0.288
Mof_H 	H 	0.2589	0.9575	0.8532	0.136
Mof_C 	C 	0.29741	0.96859	0.7863	0.162
Mof_H 	H 	0.3013	0.9895	0.8087	-0.034
Mof_C 	C 	0.31705	0.95828	0.7272	-0.216
Mof_H 	H 	0.3339	0.9722	0.7075	0.112
Mof_C 	C 	0.31177	0.92718	0.6972	0.139
Mof_H 	H 	0.3258	0.9195	0.6577	0.009
Mof_C 	C 	0.28647	0.9068	0.7233	-0.242
Mof_C 	C 	0.28193	0.87426	0.6869	0.307
Mof_C 	C 	0.22658	0.81107	0.6824	0.278
Mof_C 	C 	0.21832	0.77923	0.6446	-0.27
Mof_H 	H 	0.238	0.77	0.619	0.108
Mof_H 	H 	0.2104	0.763	0.6824	0.11
Mof_C 	C 	0.16664	0.57898	0.0353	0.12
Mof_H 	H 	0.1734	0.5783	0.9836	-0.002
Mof_C 	C 	0.18314	0.59944	0.0835	-0.192
Mof_H 	H 	0.2011	0.6123	0.0656	0.1
Mof_C 	C 	0.17371	0.60129	0.1579	0.112
Mof_C 	C 	0.14847	0.58132	0.1809	-0.177
Mof_H 	H 	0.1415	0.5816	0.2324	0.084
Mof_C 	C 	0.13306	0.56084	0.1299	0.107
Mof_H 	H 	0.1158	0.5469	0.1472	-0.004
Mof_C 	C 	0.1908	0.6255	0.2118	-0.067
Mof_H 	H 	0.2073	0.6383	0.1828	0.049
Mof_H 	H 	0.1741	0.6412	0.2314	0.042
Mof_Mn	Mn	0.79482	0.32439	0.07838	1.009
Mof_O 	O 	0.76825	0.34564	0.0062	-0.446
Mof_O 	O 	0.77503	0.246	0.93383	-0.372
Mof_O 	O 	0.82031	0.29562	0.14455	-0.385
Mof_N 	N 	0.78848	0.28268	0.02646	-0.252
Mof_N 	N 	0.80443	0.25535	0.06224	-0.193
Mof_C 	C 	0.7529	0.33417	0.9491	0.349
Mof_C 	C 	0.73279	0.35535	0.908	-0.309
Mof_H 	H 	0.7293	0.377	0.9269	0.139
Mof_C 	C 	0.718	0.3467	0.8427	0.155
Mof_H 	H 	0.7035	0.3618	0.8185	-0.027
Mof_C 	C 	0.7236	0.3148	0.8083	-0.197
Mof_H 	H 	0.716	0.3096	0.7587	0.102
Mof_C 	C 	0.7414	0.29173	0.8538	0.134
Mof_H 	H 	0.743	0.2695	0.8375	0.003
Mof_C 	C 	0.75596	0.30099	0.9205	-0.254
Mof_C 	C 	0.77358	0.27545	0.962	0.299
Mof_C 	C 	0.82002	0.26476	0.1229	0.23
Mof_C 	C 	0.8378	0.23987	0.1691	-0.151
Mof_H 	H 	0.8508	0.2257	0.1343	0.066
Mof_H 	H 	0.8212	0.2256	0.1941	0.075
Mof_C 	C 	0.86048	0.2529	0.2286	-0.25
Mof_H 	H 	0.8761	0.2684	0.2055	0.102
Mof_H 	H 	0.8727	0.2346	0.2517	0.098
Mof_H 	H 	0.8476	0.2643	0.2678	0.102
Mof_Mn	Mn	0.78728	0.20902	0.00253	1.047
Mof_O 	O 	0.82891	0.19998	0.96261	-0.426
Mof_O 	O 	0.81707	0.13483	0.14966	-0.379
Mof_O 	O 	0.745	0.21183	0.05337	-0.378
Mof_N 	N 	0.79265	0.17408	0.07713	-0.249
Mof_N 	N 	0.76442	0.16891	0.1226	-0.187
Mof_N 	N 	0.76171	0.1757	0.9158	-0.237
Mof_C 	C 	0.851	0.17744	0.9824	0.317
Mof_C 	C 	0.87974	0.17526	0.938	-0.286
Mof_H 	H 	0.8825	0.1895	0.8957	0.135
Mof_C 	C 	0.90365	0.15281	0.9553	0.159
Mof_H 	H 	0.923	0.1518	0.9248	-0.032
Mof_C 	C 	0.90045	0.13149	0.016	-0.223
Mof_H 	H 	0.9174	0.116	0.0273	0.108
Mof_C 	C 	0.8726	0.13292	0.0599	0.143
Mof_H 	H 	0.8703	0.1181	0.1014	0.002
Mof_C 	C 	0.84744	0.15564	0.0451	-0.246
Mof_C 	C 	0.81791	0.15472	0.0938	0.303
Mof_C 	C 	0.74112	0.1894	0.1049	0.212
Mof_C 	C 	0.70792	0.18636	0.143	-0.08
Mof_H 	H 	0.7095	0.1693	0.1831	0.041
Mof_H 	H 	0.7027	0.2076	0.1681	0.048
Mof_C 	C 	0.6817	0.1782	0.0942	-0.315
Mof_H 	H 	0.6677	0.1976	0.0864	0.117
Mof_H 	H 	0.6686	0.1604	0.117	0.114
Mof_H 	H 	0.6905	0.1708	0.0453	0.122
Mof_C 	C 	0.7306	0.1867	0.8922	0.101
Mof_H 	H 	0.723	0.2081	0.9063	0.006
Mof_C 	C 	0.7102	0.1656	0.8467	-0.22
Mof_H 	H 	0.6883	0.1718	0.8329	0.099
Mof_C 	C 	0.7243	0.13481	0.8231	0.262
Mof_C 	C 	0.7454	0.12529	0.8643	-0.367
Mof_H 	H 	0.7498	0.1023	0.8669	0.146
Mof_C 	C 	0.7638	0.14666	0.909	0.247
Mof_H 	H 	0.7806	0.1365	0.9385	-0.057
Mof_C 	C 	0.7055	0.1114	0.7697	-0.25
Mof_H 	H 	0.7212	0.0948	0.7499	0.096
Mof_H 	H 	0.6887	0.0994	0.7998	0.093
Mof_Mn	Mn	0.72079	0.36301	0.27836	1.049
Mof_O 	O 	0.74132	0.40088	0.31457	-0.429
Mof_O 	O 	0.80247	0.36526	0.13603	-0.388
Mof_O 	O 	0.7056	0.3226	0.23114	-0.393
Mof_N 	N 	0.75639	0.35602	0.20623	-0.251
Mof_N 	N 	0.75392	0.32594	0.165	-0.197
Mof_N 	N 	0.64172	0.06004	0.5563	-0.202
Mof_C 	C 	0.76612	0.41795	0.2842	0.316
Mof_C 	C 	0.7724	0.44928	0.3133	-0.288
Mof_H 	H 	0.7589	0.4575	0.3532	0.136
Mof_C 	C 	0.79741	0.46859	0.2863	0.162
Mof_H 	H 	0.8013	0.4895	0.3087	-0.034
Mof_C 	C 	0.81705	0.45828	0.2272	-0.216
Mof_H 	H 	0.8339	0.4722	0.2075	0.112
Mof_C 	C 	0.81177	0.42718	0.1972	0.139
Mof_H 	H 	0.8258	0.4195	0.1577	0.009
Mof_C 	C 	0.78647	0.4068	0.2233	-0.242
Mof_C 	C 	0.78193	0.37426	0.1869	0.307
Mof_C 	C 	0.72658	0.31107	0.1824	0.278
Mof_C 	C 	0.71832	0.27923	0.1446	-0.27
Mof_H 	H 	0.738	0.27	0.119	0.108
Mof_H 	H 	0.7104	0.263	0.1824	0.11
Mof_C 	C 	0.66664	0.07898	0.5353	0.12
Mof_H 	H 	0.6734	0.0783	0.4836	-0.001
Mof_C 	C 	0.68314	0.09944	0.5835	-0.192
Mof_H 	H 	0.7011	0.1123	0.5656	0.1
Mof_C 	C 	0.67371	0.10129	0.6579	0.112
Mof_C 	C 	0.64847	0.08132	0.6809	-0.177
Mof_H 	H 	0.6415	0.0816	0.7324	0.084
Mof_C 	C 	0.63306	0.06084	0.6299	0.107
Mof_H 	H 	0.6158	0.0469	0.6472	-0.004
Mof_C 	C 	0.6908	0.1255	0.7118	-0.067
Mof_H 	H 	0.7073	0.1383	0.6828	0.049
Mof_H 	H 	0.6741	0.1412	0.7314	0.042
Mof_Mn	Mn	0.20518	0.17561	0.07838	1.009
Mof_O 	O 	0.23175	0.15436	0.0062	-0.446
Mof_O 	O 	0.22497	0.254	0.93383	-0.372
Mof_O 	O 	0.17969	0.20438	0.14455	-0.385
Mof_N 	N 	0.21152	0.21732	0.02646	-0.252
Mof_N 	N 	0.19557	0.24465	0.06224	-0.193
Mof_C 	C 	0.2471	0.16583	0.9491	0.349
Mof_C 	C 	0.26721	0.14465	0.908	-0.309
Mof_H 	H 	0.2707	0.123	0.9269	0.139
Mof_C 	C 	0.282	0.1533	0.8427	0.155
Mof_H 	H 	0.2965	0.1382	0.8185	-0.027
Mof_C 	C 	0.2764	0.1852	0.8083	-0.197
Mof_H 	H 	0.284	0.1904	0.7587	0.102
Mof_C 	C 	0.2586	0.20827	0.8538	0.134
Mof_H 	H 	0.257	0.2305	0.8375	0.003
Mof_C 	C 	0.24404	0.19901	0.9205	-0.254
Mof_C 	C 	0.22642	0.22455	0.962	0.299
Mof_C 	C 	0.17998	0.23524	0.1229	0.23
Mof_C 	C 	0.1622	0.26013	0.1691	-0.151
Mof_H 	H 	0.1492	0.2743	0.1343	0.066
Mof_H 	H 	0.1788	0.2744	0.1941	0.075
Mof_C 	C 	0.13952	0.2471	0.2286	-0.25
Mof_H 	H 	0.1239	0.2316	0.2055	0.102
Mof_H 	H 	0.1273	0.2654	0.2517	0.098
Mof_H 	H 	0.1524	0.2357	0.2678	0.102
Mof_Mn	Mn	0.21272	0.29098	0.00253	1.047
Mof_O 	O 	0.17109	0.30002	0.96261	-0.426
Mof_O 	O 	0.18293	0.36517	0.14966	-0.379
Mof_O 	O 	0.255	0.28817	0.05337	-0.378
Mof_N 	N 	0.20735	0.32592	0.07713	-0.249
Mof_N 	N 	0.23558	0.33109	0.1226	-0.187
Mof_N 	N 	0.23829	0.3243	0.9158	-0.237
Mof_C 	C 	0.149	0.32256	0.9824	0.317
Mof_C 	C 	0.12026	0.32474	0.938	-0.286
Mof_H 	H 	0.1175	0.3105	0.8957	0.135
Mof_C 	C 	0.09635	0.34719	0.9553	0.159
Mof_H 	H 	0.077	0.3482	0.9248	-0.032
Mof_C 	C 	0.09955	0.36851	0.016	-0.223
Mof_H 	H 	0.0826	0.384	0.0273	0.108
Mof_C 	C 	0.1274	0.36708	0.0599	0.143
Mof_H 	H 	0.1297	0.3819	0.1014	0.002
Mof_C 	C 	0.15256	0.34436	0.0451	-0.246
Mof_C 	C 	0.18209	0.34528	0.0938	0.303
Mof_C 	C 	0.25888	0.3106	0.1049	0.212
Mof_C 	C 	0.29208	0.31364	0.143	-0.08
Mof_H 	H 	0.2905	0.3307	0.1831	0.041
Mof_H 	H 	0.2973	0.2924	0.1681	0.048
Mof_C 	C 	0.3183	0.3218	0.0942	-0.315
Mof_H 	H 	0.3323	0.3024	0.0864	0.117
Mof_H 	H 	0.3314	0.3396	0.117	0.114
Mof_H 	H 	0.3095	0.3292	0.0453	0.122
Mof_C 	C 	0.2694	0.3133	0.8922	0.101
Mof_H 	H 	0.277	0.2919	0.9063	0.006
Mof_C 	C 	0.2898	0.3344	0.8467	-0.22
Mof_H 	H 	0.3117	0.3282	0.8329	0.099
Mof_C 	C 	0.2757	0.36519	0.8231	0.262
Mof_C 	C 	0.2546	0.37471	0.8643	-0.367
Mof_H 	H 	0.2502	0.3977	0.8669	0.146
Mof_C 	C 	0.2362	0.35334	0.909	0.247
Mof_H 	H 	0.2194	0.3635	0.9385	-0.057
Mof_C 	C 	0.2945	0.3886	0.7697	-0.25
Mof_H 	H 	0.2788	0.4052	0.7499	0.096
Mof_H 	H 	0.3113	0.4006	0.7998	0.093
Mof_Mn	Mn	0.27921	0.13699	0.27836	1.049
Mof_O 	O 	0.25868	0.09912	0.31457	-0.429
Mof_O 	O 	0.19753	0.13474	0.13603	-0.388
Mof_O 	O 	0.2944	0.1774	0.23114	-0.393
Mof_N 	N 	0.24361	0.14398	0.20623	-0.251
Mof_N 	N 	0.24608	0.17406	0.165	-0.197
Mof_N 	N 	0.35828	0.43996	0.5563	-0.202
Mof_C 	C 	0.23388	0.08205	0.2842	0.316
Mof_C 	C 	0.2276	0.05072	0.3133	-0.288
Mof_H 	H 	0.2411	0.0425	0.3532	0.136
Mof_C 	C 	0.20259	0.03141	0.2863	0.162
Mof_H 	H 	0.1987	0.0105	0.3087	-0.034
Mof_C 	C 	0.18295	0.04172	0.2272	-0.216
Mof_H 	H 	0.1661	0.0278	0.2075	0.112
Mof_C 	C 	0.18823	0.07282	0.1972	0.139
Mof_H 	H 	0.1742	0.0805	0.1577	0.009
Mof_C 	C 	0.21353	0.0932	0.2233	-0.242
Mof_C 	C 	0.21807	0.12574	0.1869	0.307
Mof_C 	C 	0.27342	0.18893	0.1824	0.278
Mof_C 	C 	0.28168	0.22077	0.1446	-0.27
Mof_H 	H 	0.262	0.23	0.119	0.108
Mof_H 	H 	0.2896	0.237	0.1824	0.11
Mof_C 	C 	0.33336	0.42102	0.5353	0.12
Mof_H 	H 	0.3266	0.4217	0.4836	-0.001
Mof_C 	C 	0.31686	0.40056	0.5835	-0.192
Mof_H 	H 	0.2989	0.3877	0.5656	0.1
Mof_C 	C 	0.32629	0.39871	0.6579	0.112
Mof_C 	C 	0.35153	0.41868	0.6809	-0.177
Mof_H 	H 	0.3585	0.4184	0.7324	0.084
Mof_C 	C 	0.36694	0.43916	0.6299	0.107
Mof_H 	H 	0.3842	0.4531	0.6472	-0.004
Mof_C 	C 	0.3092	0.3745	0.7118	-0.067
Mof_H 	H 	0.2927	0.3617	0.6828	0.049
Mof_H 	H 	0.3259	0.3588	0.7314	0.042
Mof_Mn	Mn	0.70518	0.67561	0.57838	1.009
Mof_O 	O 	0.73175	0.65436	0.5062	-0.446
Mof_O 	O 	0.72497	0.754	0.43383	-0.372
Mof_O 	O 	0.67969	0.70438	0.64455	-0.385
Mof_N 	N 	0.71152	0.71732	0.52646	-0.252
Mof_N 	N 	0.69557	0.74465	0.56224	-0.193
Mof_C 	C 	0.7471	0.66583	0.4491	0.349
Mof_C 	C 	0.76721	0.64465	0.408	-0.309
Mof_H 	H 	0.7707	0.623	0.4269	0.139
Mof_C 	C 	0.782	0.6533	0.3427	0.155
Mof_H 	H 	0.7965	0.6382	0.3185	-0.027
Mof_C 	C 	0.7764	0.6852	0.3083	-0.197
Mof_H 	H 	0.784	0.6904	0.2587	0.102
Mof_C 	C 	0.7586	0.70827	0.3538	0.134
Mof_H 	H 	0.757	0.7305	0.3375	0.003
Mof_C 	C 	0.74404	0.69901	0.4205	-0.254
Mof_C 	C 	0.72642	0.72455	0.462	0.299
Mof_C 	C 	0.67998	0.73524	0.6229	0.23
Mof_C 	C 	0.6622	0.76013	0.6691	-0.151
Mof_H 	H 	0.6492	0.7743	0.6343	0.066
Mof_H 	H 	0.6788	0.7744	0.6941	0.075
Mof_C 	C 	0.63952	0.7471	0.7286	-0.25
Mof_H 	H 	0.6239	0.7316	0.7055	0.102
Mof_H 	H 	0.6273	0.7654	0.7517	0.098
Mof_H 	H 	0.6524	0.7357	0.7678	0.102
Mof_Mn	Mn	0.71272	0.79098	0.50253	1.047
Mof_O 	O 	0.67109	0.80002	0.46261	-0.426
Mof_O 	O 	0.68293	0.86517	0.64966	-0.379
Mof_O 	O 	0.755	0.78817	0.55337	-0.378
Mof_N 	N 	0.70735	0.82592	0.57713	-0.249
Mof_N 	N 	0.73558	0.83109	0.6226	-0.187
Mof_N 	N 	0.73829	0.8243	0.4158	-0.237
Mof_C 	C 	0.649	0.82256	0.4824	0.317
Mof_C 	C 	0.62026	0.82474	0.438	-0.286
Mof_H 	H 	0.6175	0.8105	0.3957	0.135
Mof_C 	C 	0.59635	0.84719	0.4553	0.159
Mof_H 	H 	0.577	0.8482	0.4248	-0.032
Mof_C 	C 	0.59955	0.86851	0.516	-0.222
Mof_H 	H 	0.5826	0.884	0.5273	0.108
Mof_C 	C 	0.6274	0.86708	0.5599	0.143
Mof_H 	H 	0.6297	0.8819	0.6014	0.002
Mof_C 	C 	0.65256	0.84436	0.5451	-0.246
Mof_C 	C 	0.68209	0.84528	0.5938	0.303
Mof_C 	C 	0.75888	0.8106	0.6049	0.212
Mof_C 	C 	0.79208	0.81364	0.643	-0.08
Mof_H 	H 	0.7905	0.8307	0.6831	0.041
Mof_H 	H 	0.7973	0.7924	0.6681	0.048
Mof_C 	C 	0.8183	0.8218	0.5942	-0.315
Mof_H 	H 	0.8323	0.8024	0.5864	0.117
Mof_H 	H 	0.8314	0.8396	0.617	0.114
Mof_H 	H 	0.8095	0.8292	0.5453	0.122
Mof_C 	C 	0.7694	0.8133	0.3922	0.101
Mof_H 	H 	0.777	0.7919	0.4063	0.006
Mof_C 	C 	0.7898	0.8344	0.3467	-0.22
Mof_H 	H 	0.8117	0.8282	0.3329	0.098
Mof_C 	C 	0.7757	0.86519	0.3231	0.262
Mof_C 	C 	0.7546	0.87471	0.3643	-0.367
Mof_H 	H 	0.7502	0.8977	0.3669	0.146
Mof_C 	C 	0.7362	0.85334	0.409	0.247
Mof_H 	H 	0.7194	0.8635	0.4385	-0.057
Mof_C 	C 	0.7945	0.8886	0.2697	-0.25
Mof_H 	H 	0.7788	0.9052	0.2499	0.096
Mof_H 	H 	0.8113	0.9006	0.2998	0.093
Mof_Mn	Mn	0.77921	0.63699	0.77836	1.049
Mof_O 	O 	0.75868	0.59912	0.81457	-0.428
Mof_O 	O 	0.69753	0.63474	0.63603	-0.388
Mof_O 	O 	0.7944	0.6774	0.73114	-0.393
Mof_N 	N 	0.74361	0.64398	0.70623	-0.251
Mof_N 	N 	0.74608	0.67406	0.665	-0.197
Mof_N 	N 	0.85828	0.93996	0.0563	-0.202
Mof_C 	C 	0.73388	0.58205	0.7842	0.316
Mof_C 	C 	0.7276	0.55072	0.8133	-0.288
Mof_H 	H 	0.7411	0.5425	0.8532	0.136
Mof_C 	C 	0.70259	0.53141	0.7863	0.162
Mof_H 	H 	0.6987	0.5105	0.8087	-0.034
Mof_C 	C 	0.68295	0.54172	0.7272	-0.216
Mof_H 	H 	0.6661	0.5278	0.7075	0.112
Mof_C 	C 	0.68823	0.57282	0.6972	0.139
Mof_H 	H 	0.6742	0.5805	0.6577	0.009
Mof_C 	C 	0.71353	0.5932	0.7233	-0.242
Mof_C 	C 	0.71807	0.62574	0.6869	0.307
Mof_C 	C 	0.77342	0.68893	0.6824	0.278
Mof_C 	C 	0.78168	0.72077	0.6446	-0.27
Mof_H 	H 	0.762	0.73	0.619	0.108
Mof_H 	H 	0.7896	0.737	0.6824	0.11
Mof_C 	C 	0.83336	0.92102	0.0353	0.12
Mof_H 	H 	0.8266	0.9217	0.9836	-0.002
Mof_C 	C 	0.81686	0.90056	0.0835	-0.192
Mof_H 	H 	0.7989	0.8877	0.0656	0.1
Mof_C 	C 	0.82629	0.89871	0.1579	0.112
Mof_C 	C 	0.85153	0.91868	0.1809	-0.177
Mof_H 	H 	0.8585	0.9184	0.2324	0.084
Mof_C 	C 	0.86694	0.93916	0.1299	0.107
Mof_H 	H 	0.8842	0.9531	0.1472	-0.004
Mof_C 	C 	0.8092	0.8745	0.2118	-0.067
Mof_H 	H 	0.7927	0.8617	0.1828	0.049
Mof_H 	H 	0.8259	0.8588	0.2314	0.042
Mof_Mn	Mn	0.42561	0.54482	0.67162	1.009
Mof_O 	O 	0.40436	0.51825	0.7438	-0.446
Mof_O 	O 	0.504	0.52503	0.81617	-0.372
Mof_O 	O 	0.45438	0.57031	0.60545	-0.385
Mof_N 	N 	0.46732	0.53848	0.72354	-0.252
Mof_N 	N 	0.49465	0.55443	0.68776	-0.193
Mof_C 	C 	0.41583	0.5029	0.8009	0.349
Mof_C 	C 	0.39465	0.48279	0.842	-0.309
Mof_H 	H 	0.373	0.4793	0.8231	0.139
Mof_C 	C 	0.4033	0.468	0.9073	0.155
Mof_H 	H 	0.3882	0.4535	0.9315	-0.027
Mof_C 	C 	0.4352	0.4736	0.9417	-0.197
Mof_H 	H 	0.4404	0.466	0.9913	0.102
Mof_C 	C 	0.45827	0.4914	0.8962	0.134
Mof_H 	H 	0.4805	0.493	0.9125	0.003
Mof_C 	C 	0.44901	0.50596	0.8295	-0.254
Mof_C 	C 	0.47455	0.52358	0.788	0.299
Mof_C 	C 	0.48524	0.57002	0.6271	0.23
Mof_C 	C 	0.51013	0.5878	0.5809	-0.151
Mof_H 	H 	0.5243	0.6008	0.6157	0.066
Mof_H 	H 	0.5244	0.5712	0.5559	0.075
Mof_C 	C 	0.4971	0.61048	0.5214	-0.25
Mof_H 	H 	0.4816	0.6261	0.5445	0.102
Mof_H 	H 	0.5154	0.6227	0.4983	0.098
Mof_H 	H 	0.4857	0.5976	0.4822	0.102
Mof_Mn	Mn	0.54098	0.53728	0.74747	1.047
Mof_O 	O 	0.55002	0.57891	0.78739	-0.426
Mof_O 	O 	0.61517	0.56707	0.60034	-0.379
Mof_O 	O 	0.53817	0.495	0.69663	-0.378
Mof_N 	N 	0.57592	0.54265	0.67287	-0.249
Mof_N 	N 	0.58109	0.51442	0.6274	-0.187
Mof_N 	N 	0.5743	0.51171	0.8342	-0.237
Mof_C 	C 	0.57256	0.601	0.7676	0.317
Mof_C 	C 	0.57474	0.62974	0.812	-0.286
Mof_H 	H 	0.5605	0.6325	0.8543	0.135
Mof_C 	C 	0.59719	0.65365	0.7947	0.159
Mof_H 	H 	0.5982	0.673	0.8252	-0.032
Mof_C 	C 	0.61851	0.65045	0.734	-0.222
Mof_H 	H 	0.634	0.6674	0.7227	0.108
Mof_C 	C 	0.61708	0.6226	0.6901	0.143
Mof_H 	H 	0.6319	0.6203	0.6486	0.002
Mof_C 	C 	0.59436	0.59744	0.7049	-0.246
Mof_C 	C 	0.59528	0.56791	0.6562	0.303
Mof_C 	C 	0.5606	0.49112	0.6451	0.212
Mof_C 	C 	0.56364	0.45792	0.607	-0.08
Mof_H 	H 	0.5807	0.4595	0.5669	0.041
Mof_H 	H 	0.5424	0.4527	0.5819	0.048
Mof_C 	C 	0.5718	0.4317	0.6558	-0.315
Mof_H 	H 	0.5524	0.4177	0.6636	0.117
Mof_H 	H 	0.5896	0.4186	0.633	0.114
Mof_H 	H 	0.5792	0.4405	0.7047	0.122
Mof_C 	C 	0.5633	0.4806	0.8578	0.101
Mof_H 	H 	0.5419	0.473	0.8437	0.006
Mof_C 	C 	0.5844	0.4602	0.9033	-0.219
Mof_H 	H 	0.5782	0.4383	0.9171	0.098
Mof_C 	C 	0.61519	0.4743	0.9269	0.261
Mof_C 	C 	0.62471	0.4954	0.8857	-0.367
Mof_H 	H 	0.6477	0.4998	0.8831	0.146
Mof_C 	C 	0.60334	0.5138	0.841	0.247
Mof_H 	H 	0.6135	0.5306	0.8115	-0.057
Mof_C 	C 	0.6386	0.4555	0.9803	-0.249
Mof_H 	H 	0.6552	0.4712	0.0001	0.096
Mof_H 	H 	0.6506	0.4387	0.9502	0.093
Mof_Mn	Mn	0.38699	0.47079	0.47164	1.049
Mof_O 	O 	0.34912	0.49132	0.43543	-0.429
Mof_O 	O 	0.38474	0.55247	0.61397	-0.388
Mof_O 	O 	0.4274	0.4556	0.51886	-0.393
Mof_N 	N 	0.39398	0.50639	0.54377	-0.251
Mof_N 	N 	0.42406	0.50392	0.585	-0.197
Mof_N 	N 	0.68996	0.39172	0.1937	-0.202
Mof_C 	C 	0.33205	0.51612	0.4658	0.316
Mof_C 	C 	0.30072	0.5224	0.4367	-0.288
Mof_H 	H 	0.2925	0.5089	0.3968	0.136
Mof_C 	C 	0.28141	0.54741	0.4637	0.162
Mof_H 	H 	0.2605	0.5513	0.4413	-0.034
Mof_C 	C 	0.29172	0.56705	0.5228	-0.216
Mof_H 	H 	0.2778	0.5839	0.5425	0.112
Mof_C 	C 	0.32282	0.56177	0.5528	0.139
Mof_H 	H 	0.3305	0.5758	0.5923	0.009
Mof_C 	C 	0.3432	0.53647	0.5267	-0.242
Mof_C 	C 	0.37574	0.53193	0.5631	0.307
Mof_C 	C 	0.43893	0.47658	0.5676	0.278
Mof_C 	C 	0.47077	0.46832	0.6054	-0.27
Mof_H 	H 	0.48	0.488	0.631	0.108
Mof_H 	H 	0.487	0.4604	0.5676	0.11
Mof_C 	C 	0.67102	0.41664	0.2147	0.12
Mof_H 	H 	0.6717	0.4234	0.2664	-0.001
Mof_C 	C 	0.65056	0.43314	0.1665	-0.192
Mof_H 	H 	0.6377	0.4511	0.1844	0.1
Mof_C 	C 	0.64871	0.42371	0.0921	0.112
Mof_C 	C 	0.66868	0.39847	0.0691	-0.178
Mof_H 	H 	0.6684	0.3915	0.0176	0.084
Mof_C 	C 	0.68916	0.38306	0.1201	0.107
Mof_H 	H 	0.7031	0.3658	0.1028	-0.004
Mof_C 	C 	0.6245	0.4408	0.0382	-0.068
Mof_H 	H 	0.6117	0.4573	0.0672	0.049
Mof_H 	H 	0.6088	0.4241	0.0186	0.042
Mof_Mn	Mn	0.92561	0.04482	0.17162	1.009
Mof_O 	O 	0.90436	0.01825	0.2438	-0.446
Mof_O 	O 	0.004	0.02503	0.31617	-0.372
Mof_O 	O 	0.95438	0.07031	0.10545	-0.385
Mof_N 	N 	0.96732	0.03848	0.22354	-0.252
Mof_N 	N 	0.99465	0.05443	0.18776	-0.193
Mof_C 	C 	0.91583	0.0029	0.3009	0.349
Mof_C 	C 	0.89465	0.98279	0.342	-0.309
Mof_H 	H 	0.873	0.9793	0.3231	0.139
Mof_C 	C 	0.9033	0.968	0.4073	0.155
Mof_H 	H 	0.8882	0.9535	0.4315	-0.027
Mof_C 	C 	0.9352	0.9736	0.4417	-0.197
Mof_H 	H 	0.9404	0.966	0.4913	0.102
Mof_C 	C 	0.95827	0.9914	0.3962	0.134
Mof_H 	H 	0.9805	0.993	0.4125	0.003
Mof_C 	C 	0.94901	0.00596	0.3295	-0.254
Mof_C 	C 	0.97455	0.02358	0.288	0.299
Mof_C 	C 	0.98524	0.07002	0.1271	0.23
Mof_C 	C 	0.01013	0.0878	0.0809	-0.15
Mof_H 	H 	0.0243	0.1008	0.1157	0.066
Mof_H 	H 	0.0244	0.0712	0.0559	0.075
Mof_C 	C 	0.9971	0.11048	0.0214	-0.251
Mof_H 	H 	0.9816	0.1261	0.0445	0.102
Mof_H 	H 	0.0154	0.1227	0.9983	0.098
Mof_H 	H 	0.9857	0.0976	0.9822	0.102
Mof_Mn	Mn	0.04098	0.03728	0.24747	1.047
Mof_O 	O 	0.05002	0.07891	0.28739	-0.426
Mof_O 	O 	0.11517	0.06707	0.10034	-0.379
Mof_O 	O 	0.03817	0.995	0.19663	-0.378
Mof_N 	N 	0.07592	0.04265	0.17287	-0.249
Mof_N 	N 	0.08109	0.01442	0.1274	-0.187
Mof_N 	N 	0.0743	0.01171	0.3342	-0.237
Mof_C 	C 	0.07256	0.101	0.2676	0.317
Mof_C 	C 	0.07474	0.12974	0.312	-0.286
Mof_H 	H 	0.0605	0.1325	0.3543	0.135
Mof_C 	C 	0.09719	0.15365	0.2947	0.159
Mof_H 	H 	0.0982	0.173	0.3252	-0.032
Mof_C 	C 	0.11851	0.15045	0.234	-0.222
Mof_H 	H 	0.134	0.1674	0.2227	0.108
Mof_C 	C 	0.11708	0.1226	0.1901	0.143
Mof_H 	H 	0.1319	0.1203	0.1486	0.002
Mof_C 	C 	0.09436	0.09744	0.2049	-0.246
Mof_C 	C 	0.09528	0.06791	0.1562	0.303
Mof_C 	C 	0.0606	0.99112	0.1451	0.212
Mof_C 	C 	0.06364	0.95792	0.107	-0.08
Mof_H 	H 	0.0807	0.9595	0.0669	0.041
Mof_H 	H 	0.0424	0.9527	0.0819	0.048
Mof_C 	C 	0.0718	0.9317	0.1558	-0.315
Mof_H 	H 	0.0524	0.9177	0.1636	0.117
Mof_H 	H 	0.0896	0.9186	0.133	0.114
Mof_H 	H 	0.0792	0.9405	0.2047	0.122
Mof_C 	C 	0.0633	0.9806	0.3578	0.101
Mof_H 	H 	0.0419	0.973	0.3437	0.005
Mof_C 	C 	0.0844	0.9602	0.4033	-0.22
Mof_H 	H 	0.0782	0.9383	0.4171	0.098
Mof_C 	C 	0.11519	0.9743	0.4269	0.262
Mof_C 	C 	0.12471	0.9954	0.3857	-0.367
Mof_H 	H 	0.1477	0.9998	0.3831	0.146
Mof_C 	C 	0.10334	0.0138	0.341	0.247
Mof_H 	H 	0.1135	0.0306	0.3115	-0.057
Mof_C 	C 	0.1386	0.9555	0.4803	-0.25
Mof_H 	H 	0.1552	0.9712	0.5001	0.096
Mof_H 	H 	0.1506	0.9387	0.4502	0.093
Mof_Mn	Mn	0.88699	0.97079	0.97164	1.049
Mof_O 	O 	0.84912	0.99132	0.93543	-0.429
Mof_O 	O 	0.88474	0.05247	0.11397	-0.388
Mof_O 	O 	0.9274	0.9556	0.01886	-0.393
Mof_N 	N 	0.89398	0.00639	0.04377	-0.251
Mof_N 	N 	0.92406	0.00392	0.085	-0.197
Mof_N 	N 	0.18996	0.89172	0.6937	-0.202
Mof_C 	C 	0.83205	0.01612	0.9658	0.316
Mof_C 	C 	0.80072	0.0224	0.9367	-0.288
Mof_H 	H 	0.7925	0.0089	0.8968	0.136
Mof_C 	C 	0.78141	0.04741	0.9637	0.162
Mof_H 	H 	0.7605	0.0513	0.9413	-0.034
Mof_C 	C 	0.79172	0.06705	0.0228	-0.216
Mof_H 	H 	0.7778	0.0839	0.0425	0.112
Mof_C 	C 	0.82282	0.06177	0.0528	0.139
Mof_H 	H 	0.8305	0.0758	0.0923	0.009
Mof_C 	C 	0.8432	0.03647	0.0267	-0.242
Mof_C 	C 	0.87574	0.03193	0.0631	0.307
Mof_C 	C 	0.93893	0.97658	0.0676	0.278
Mof_C 	C 	0.97077	0.96832	0.1054	-0.27
Mof_H 	H 	0.98	0.988	0.131	0.108
Mof_H 	H 	0.987	0.9604	0.0676	0.11
Mof_C 	C 	0.17102	0.91664	0.7147	0.12
Mof_H 	H 	0.1717	0.9234	0.7664	-0.001
Mof_C 	C 	0.15056	0.93314	0.6665	-0.192
Mof_H 	H 	0.1377	0.9511	0.6844	0.1
Mof_C 	C 	0.14871	0.92371	0.5921	0.112
Mof_C 	C 	0.16868	0.89847	0.5691	-0.177
Mof_H 	H 	0.1684	0.8915	0.5176	0.084
Mof_C 	C 	0.18916	0.88306	0.6201	0.107
Mof_H 	H 	0.2031	0.8658	0.6028	-0.004
Mof_C 	C 	0.1245	0.9408	0.5382	-0.067
Mof_H 	H 	0.1117	0.9573	0.5672	0.049
Mof_H 	H 	0.1088	0.9241	0.5186	0.042
Mof_Mn	Mn	0.07439	0.45518	0.17162	1.009
Mof_O 	O 	0.09564	0.48175	0.2438	-0.446
Mof_O 	O 	0.996	0.47497	0.31617	-0.372
Mof_O 	O 	0.04562	0.42969	0.10545	-0.385
Mof_N 	N 	0.03268	0.46152	0.22354	-0.252
Mof_N 	N 	0.00535	0.44557	0.18776	-0.193
Mof_C 	C 	0.08417	0.4971	0.3009	0.349
Mof_C 	C 	0.10535	0.51721	0.342	-0.309
Mof_H 	H 	0.127	0.5207	0.3231	0.139
Mof_C 	C 	0.0967	0.532	0.4073	0.155
Mof_H 	H 	0.1118	0.5465	0.4315	-0.027
Mof_C 	C 	0.0648	0.5264	0.4417	-0.197
Mof_H 	H 	0.0596	0.534	0.4913	0.102
Mof_C 	C 	0.04173	0.5086	0.3962	0.134
Mof_H 	H 	0.0195	0.507	0.4125	0.003
Mof_C 	C 	0.05099	0.49404	0.3295	-0.254
Mof_C 	C 	0.02545	0.47642	0.288	0.299
Mof_C 	C 	0.01476	0.42998	0.1271	0.23
Mof_C 	C 	0.98987	0.4122	0.0809	-0.15
Mof_H 	H 	0.9757	0.3992	0.1157	0.066
Mof_H 	H 	0.9756	0.4288	0.0559	0.075
Mof_C 	C 	0.0029	0.38952	0.0214	-0.251
Mof_H 	H 	0.0184	0.3739	0.0445	0.102
Mof_H 	H 	0.9846	0.3773	0.9983	0.098
Mof_H 	H 	0.0143	0.4024	0.9822	0.102
Mof_Mn	Mn	0.95902	0.46272	0.24747	1.047
Mof_O 	O 	0.94998	0.42109	0.28739	-0.426
Mof_O 	O 	0.88483	0.43293	0.10034	-0.379
Mof_O 	O 	0.96183	0.505	0.19663	-0.378
Mof_N 	N 	0.92408	0.45735	0.17287	-0.249
Mof_N 	N 	0.91891	0.48558	0.1274	-0.187
Mof_N 	N 	0.9257	0.48829	0.3342	-0.237
Mof_C 	C 	0.92744	0.399	0.2676	0.317
Mof_C 	C 	0.92526	0.37026	0.312	-0.286
Mof_H 	H 	0.9395	0.3675	0.3543	0.135
Mof_C 	C 	0.90281	0.34635	0.2947	0.159
Mof_H 	H 	0.9018	0.327	0.3252	-0.032
Mof_C 	C 	0.88149	0.34955	0.234	-0.222
Mof_H 	H 	0.866	0.3326	0.2227	0.108
Mof_C 	C 	0.88292	0.3774	0.1901	0.143
Mof_H 	H 	0.8681	0.3797	0.1486	0.002
Mof_C 	C 	0.90564	0.40256	0.2049	-0.246
Mof_C 	C 	0.90472	0.43209	0.1562	0.303
Mof_C 	C 	0.9394	0.50888	0.1451	0.212
Mof_C 	C 	0.93636	0.54208	0.107	-0.08
Mof_H 	H 	0.9193	0.5405	0.0669	0.041
Mof_H 	H 	0.9576	0.5473	0.0819	0.048
Mof_C 	C 	0.9282	0.5683	0.1558	-0.315
Mof_H 	H 	0.9476	0.5823	0.1636	0.117
Mof_H 	H 	0.9104	0.5814	0.133	0.114
Mof_H 	H 	0.9208	0.5595	0.2047	0.122
Mof_C 	C 	0.9367	0.5194	0.3578	0.101
Mof_H 	H 	0.9581	0.527	0.3437	0.005
Mof_C 	C 	0.9156	0.5398	0.4033	-0.22
Mof_H 	H 	0.9218	0.5617	0.4171	0.098
Mof_C 	C 	0.88481	0.5257	0.4269	0.262
Mof_C 	C 	0.87529	0.5046	0.3857	-0.367
Mof_H 	H 	0.8523	0.5002	0.3831	0.146
Mof_C 	C 	0.89666	0.4862	0.341	0.247
Mof_H 	H 	0.8865	0.4694	0.3115	-0.057
Mof_C 	C 	0.8614	0.5445	0.4803	-0.25
Mof_H 	H 	0.8448	0.5288	0.5001	0.096
Mof_H 	H 	0.8494	0.5613	0.4502	0.093
Mof_Mn	Mn	0.11301	0.52921	0.97164	1.049
Mof_O 	O 	0.15088	0.50868	0.93543	-0.428
Mof_O 	O 	0.11526	0.44753	0.11397	-0.388
Mof_O 	O 	0.0726	0.5444	0.01886	-0.393
Mof_N 	N 	0.10602	0.49361	0.04377	-0.251
Mof_N 	N 	0.07594	0.49608	0.085	-0.197
Mof_N 	N 	0.81004	0.60828	0.6937	-0.202
Mof_C 	C 	0.16795	0.48388	0.9658	0.316
Mof_C 	C 	0.19928	0.4776	0.9367	-0.288
Mof_H 	H 	0.2075	0.4911	0.8968	0.136
Mof_C 	C 	0.21859	0.45259	0.9637	0.162
Mof_H 	H 	0.2395	0.4487	0.9413	-0.034
Mof_C 	C 	0.20828	0.43295	0.0228	-0.216
Mof_H 	H 	0.2222	0.4161	0.0425	0.112
Mof_C 	C 	0.17718	0.43823	0.0528	0.139
Mof_H 	H 	0.1695	0.4242	0.0923	0.009
Mof_C 	C 	0.1568	0.46353	0.0267	-0.242
Mof_C 	C 	0.12426	0.46807	0.0631	0.307
Mof_C 	C 	0.06107	0.52342	0.0676	0.278
Mof_C 	C 	0.02923	0.53168	0.1054	-0.27
Mof_H 	H 	0.02	0.512	0.131	0.108
Mof_H 	H 	0.013	0.5396	0.0676	0.11
Mof_C 	C 	0.82898	0.58336	0.7147	0.12
Mof_H 	H 	0.8283	0.5766	0.7664	-0.001
Mof_C 	C 	0.84944	0.56686	0.6665	-0.192
Mof_H 	H 	0.8623	0.5489	0.6844	0.1
Mof_C 	C 	0.85129	0.57629	0.5921	0.112
Mof_C 	C 	0.83132	0.60153	0.5691	-0.177
Mof_H 	H 	0.8316	0.6085	0.5176	0.084
Mof_C 	C 	0.81084	0.61694	0.6201	0.107
Mof_H 	H 	0.7969	0.6342	0.6028	-0.004
Mof_C 	C 	0.8755	0.5592	0.5382	-0.067
Mof_H 	H 	0.8883	0.5427	0.5672	0.049
Mof_H 	H 	0.8912	0.5759	0.5186	0.042
Mof_Mn	Mn	0.57439	0.95518	0.67162	1.009
Mof_O 	O 	0.59564	0.98175	0.7438	-0.446
Mof_O 	O 	0.496	0.97497	0.81617	-0.372
Mof_O 	O 	0.54562	0.92969	0.60545	-0.385
Mof_N 	N 	0.53268	0.96152	0.72354	-0.252
Mof_N 	N 	0.50535	0.94557	0.68776	-0.193
Mof_C 	C 	0.58417	0.9971	0.8009	0.349
Mof_C 	C 	0.60535	0.01721	0.842	-0.309
Mof_H 	H 	0.627	0.0207	0.8231	0.139
Mof_C 	C 	0.5967	0.032	0.9073	0.155
Mof_H 	H 	0.6118	0.0465	0.9315	-0.027
Mof_C 	C 	0.5648	0.0264	0.9417	-0.197
Mof_H 	H 	0.5596	0.034	0.9913	0.102
Mof_C 	C 	0.54173	0.0086	0.8962	0.134
Mof_H 	H 	0.5195	0.007	0.9125	0.003
Mof_C 	C 	0.55099	0.99404	0.8295	-0.254
Mof_C 	C 	0.52545	0.97642	0.788	0.299
Mof_C 	C 	0.51476	0.92998	0.6271	0.23
Mof_C 	C 	0.48987	0.9122	0.5809	-0.151
Mof_H 	H 	0.4757	0.8992	0.6157	0.066
Mof_H 	H 	0.4756	0.9288	0.5559	0.075
Mof_C 	C 	0.5029	0.88952	0.5214	-0.25
Mof_H 	H 	0.5184	0.8739	0.5445	0.102
Mof_H 	H 	0.4846	0.8773	0.4983	0.098
Mof_H 	H 	0.5143	0.9024	0.4822	0.102
Mof_Mn	Mn	0.45902	0.96272	0.74747	1.047
Mof_O 	O 	0.44998	0.92109	0.78739	-0.426
Mof_O 	O 	0.38483	0.93293	0.60034	-0.379
Mof_O 	O 	0.46183	0.005	0.69663	-0.378
Mof_N 	N 	0.42408	0.95735	0.67287	-0.249
Mof_N 	N 	0.41891	0.98558	0.6274	-0.187
Mof_N 	N 	0.4257	0.98829	0.8342	-0.237
Mof_C 	C 	0.42744	0.899	0.7676	0.317
Mof_C 	C 	0.42526	0.87026	0.812	-0.286
Mof_H 	H 	0.4395	0.8675	0.8543	0.135
Mof_C 	C 	0.40281	0.84635	0.7947	0.159
Mof_H 	H 	0.4018	0.827	0.8252	-0.032
Mof_C 	C 	0.38149	0.84955	0.734	-0.222
Mof_H 	H 	0.366	0.8326	0.7227	0.108
Mof_C 	C 	0.38292	0.8774	0.6901	0.143
Mof_H 	H 	0.3681	0.8797	0.6486	0.002
Mof_C 	C 	0.40564	0.90256	0.7049	-0.246
Mof_C 	C 	0.40472	0.93209	0.6562	0.303
Mof_C 	C 	0.4394	0.00888	0.6451	0.212
Mof_C 	C 	0.43636	0.04208	0.607	-0.08
Mof_H 	H 	0.4193	0.0405	0.5669	0.041
Mof_H 	H 	0.4576	0.0473	0.5819	0.048
Mof_C 	C 	0.4282	0.0683	0.6558	-0.315
Mof_H 	H 	0.4476	0.0823	0.6636	0.117
Mof_H 	H 	0.4104	0.0814	0.633	0.114
Mof_H 	H 	0.4208	0.0595	0.7047	0.122
Mof_C 	C 	0.4367	0.0194	0.8578	0.101
Mof_H 	H 	0.4581	0.027	0.8437	0.006
Mof_C 	C 	0.4156	0.0398	0.9033	-0.219
Mof_H 	H 	0.4218	0.0617	0.9171	0.098
Mof_C 	C 	0.38481	0.0257	0.9269	0.261
Mof_C 	C 	0.37529	0.0046	0.8857	-0.366
Mof_H 	H 	0.3523	0.0002	0.8831	0.146
Mof_C 	C 	0.39666	0.9862	0.841	0.247
Mof_H 	H 	0.3865	0.9694	0.8115	-0.057
Mof_C 	C 	0.3614	0.0445	0.9803	-0.249
Mof_H 	H 	0.3448	0.0288	0.0001	0.096
Mof_H 	H 	0.3494	0.0613	0.9502	0.093
Mof_Mn	Mn	0.61301	0.02921	0.47164	1.049
Mof_O 	O 	0.65088	0.00868	0.43543	-0.429
Mof_O 	O 	0.61526	0.94753	0.61397	-0.388
Mof_O 	O 	0.5726	0.0444	0.51886	-0.393
Mof_N 	N 	0.60602	0.99361	0.54377	-0.251
Mof_N 	N 	0.57594	0.99608	0.585	-0.197
Mof_N 	N 	0.31004	0.10828	0.1937	-0.202
Mof_C 	C 	0.66795	0.98388	0.4658	0.316
Mof_C 	C 	0.69928	0.9776	0.4367	-0.288
Mof_H 	H 	0.7075	0.9911	0.3968	0.136
Mof_C 	C 	0.71859	0.95259	0.4637	0.162
Mof_H 	H 	0.7395	0.9487	0.4413	-0.034
Mof_C 	C 	0.70828	0.93295	0.5228	-0.216
Mof_H 	H 	0.7222	0.9161	0.5425	0.112
Mof_C 	C 	0.67718	0.93823	0.5528	0.139
Mof_H 	H 	0.6695	0.9242	0.5923	0.009
Mof_C 	C 	0.6568	0.96353	0.5267	-0.242
Mof_C 	C 	0.62426	0.96807	0.5631	0.307
Mof_C 	C 	0.56107	0.02342	0.5676	0.278
Mof_C 	C 	0.52923	0.03168	0.6054	-0.27
Mof_H 	H 	0.52	0.012	0.631	0.108
Mof_H 	H 	0.513	0.0396	0.5676	0.11
Mof_C 	C 	0.32898	0.08336	0.2147	0.12
Mof_H 	H 	0.3283	0.0766	0.2664	-0.001
Mof_C 	C 	0.34944	0.06686	0.1665	-0.192
Mof_H 	H 	0.3623	0.0489	0.1844	0.1
Mof_C 	C 	0.35129	0.07629	0.0921	0.112
Mof_C 	C 	0.33132	0.10153	0.0691	-0.178
Mof_H 	H 	0.3316	0.1085	0.0176	0.084
Mof_C 	C 	0.31084	0.11694	0.1201	0.107
Mof_H 	H 	0.2969	0.1342	0.1028	-0.004
Mof_C 	C 	0.3755	0.0592	0.0382	-0.068
Mof_H 	H 	0.3883	0.0427	0.0672	0.049
Mof_H 	H 	0.3912	0.0759	0.0186	0.042
Mof_Mn	Mn	0.70518	0.17561	0.42162	1.009
Mof_O 	O 	0.73175	0.15436	0.4938	-0.446
Mof_O 	O 	0.72497	0.254	0.56617	-0.372
Mof_O 	O 	0.67969	0.20438	0.35545	-0.385
Mof_N 	N 	0.71152	0.21732	0.47354	-0.252
Mof_N 	N 	0.69557	0.24465	0.43776	-0.193
Mof_C 	C 	0.7471	0.16583	0.5509	0.349
Mof_C 	C 	0.76721	0.14465	0.592	-0.309
Mof_H 	H 	0.7707	0.123	0.5731	0.139
Mof_C 	C 	0.782	0.1533	0.6573	0.155
Mof_H 	H 	0.7965	0.1382	0.6815	-0.027
Mof_C 	C 	0.7764	0.1852	0.6917	-0.197
Mof_H 	H 	0.784	0.1904	0.7413	0.102
Mof_C 	C 	0.7586	0.20827	0.6462	0.134
Mof_H 	H 	0.757	0.2305	0.6625	0.003
Mof_C 	C 	0.74404	0.19901	0.5795	-0.254
Mof_C 	C 	0.72642	0.22455	0.538	0.299
Mof_C 	C 	0.67998	0.23524	0.3771	0.23
Mof_C 	C 	0.6622	0.26013	0.3309	-0.151
Mof_H 	H 	0.6492	0.2743	0.3657	0.066
Mof_H 	H 	0.6788	0.2744	0.3059	0.075
Mof_C 	C 	0.63952	0.2471	0.2714	-0.25
Mof_H 	H 	0.6239	0.2316	0.2945	0.102
Mof_H 	H 	0.6273	0.2654	0.2483	0.098
Mof_H 	H 	0.6524	0.2357	0.2322	0.102
Mof_Mn	Mn	0.71272	0.29098	0.49747	1.047
Mof_O 	O 	0.67109	0.30002	0.53739	-0.426
Mof_O 	O 	0.68293	0.36517	0.35034	-0.379
Mof_O 	O 	0.755	0.28817	0.44663	-0.378
Mof_N 	N 	0.70735	0.32592	0.42287	-0.249
Mof_N 	N 	0.73558	0.33109	0.3774	-0.187
Mof_N 	N 	0.73829	0.3243	0.5842	-0.237
Mof_C 	C 	0.649	0.32256	0.5176	0.317
Mof_C 	C 	0.62026	0.32474	0.562	-0.286
Mof_H 	H 	0.6175	0.3105	0.6043	0.135
Mof_C 	C 	0.59635	0.34719	0.5447	0.159
Mof_H 	H 	0.577	0.3482	0.5752	-0.032
Mof_C 	C 	0.59955	0.36851	0.484	-0.222
Mof_H 	H 	0.5826	0.384	0.4727	0.108
Mof_C 	C 	0.6274	0.36708	0.4401	0.143
Mof_H 	H 	0.6297	0.3819	0.3986	0.002
Mof_C 	C 	0.65256	0.34436	0.4549	-0.246
Mof_C 	C 	0.68209	0.34528	0.4062	0.303
Mof_C 	C 	0.75888	0.3106	0.3951	0.212
Mof_C 	C 	0.79208	0.31364	0.357	-0.08
Mof_H 	H 	0.7905	0.3307	0.3169	0.041
Mof_H 	H 	0.7973	0.2924	0.3319	0.048
Mof_C 	C 	0.8183	0.3218	0.4058	-0.315
Mof_H 	H 	0.8323	0.3024	0.4136	0.117
Mof_H 	H 	0.8314	0.3396	0.383	0.114
Mof_H 	H 	0.8095	0.3292	0.4547	0.122
Mof_C 	C 	0.7694	0.3133	0.6078	0.101
Mof_H 	H 	0.777	0.2919	0.5937	0.005
Mof_C 	C 	0.7898	0.3344	0.6533	-0.22
Mof_H 	H 	0.8117	0.3282	0.6671	0.098
Mof_C 	C 	0.7757	0.36519	0.6769	0.262
Mof_C 	C 	0.7546	0.37471	0.6357	-0.367
Mof_H 	H 	0.7502	0.3977	0.6331	0.146
Mof_C 	C 	0.7362	0.35334	0.591	0.247
Mof_H 	H 	0.7194	0.3635	0.5615	-0.057
Mof_C 	C 	0.7945	0.3886	0.7303	-0.25
Mof_H 	H 	0.7788	0.4052	0.7501	0.096
Mof_H 	H 	0.8113	0.4006	0.7002	0.093
Mof_Mn	Mn	0.77921	0.13699	0.22164	1.049
Mof_O 	O 	0.75868	0.09912	0.18543	-0.429
Mof_O 	O 	0.69753	0.13474	0.36397	-0.388
Mof_O 	O 	0.7944	0.1774	0.26886	-0.393
Mof_N 	N 	0.74361	0.14398	0.29377	-0.251
Mof_N 	N 	0.74608	0.17406	0.335	-0.197
Mof_N 	N 	0.85828	0.43996	0.9437	-0.202
Mof_C 	C 	0.73388	0.08205	0.2158	0.316
Mof_C 	C 	0.7276	0.05072	0.1867	-0.288
Mof_H 	H 	0.7411	0.0425	0.1468	0.136
Mof_C 	C 	0.70259	0.03141	0.2137	0.162
Mof_H 	H 	0.6987	0.0105	0.1913	-0.034
Mof_C 	C 	0.68295	0.04172	0.2728	-0.216
Mof_H 	H 	0.6661	0.0278	0.2925	0.112
Mof_C 	C 	0.68823	0.07282	0.3028	0.139
Mof_H 	H 	0.6742	0.0805	0.3423	0.009
Mof_C 	C 	0.71353	0.0932	0.2767	-0.242
Mof_C 	C 	0.71807	0.12574	0.3131	0.307
Mof_C 	C 	0.77342	0.18893	0.3176	0.278
Mof_C 	C 	0.78168	0.22077	0.3554	-0.27
Mof_H 	H 	0.762	0.23	0.381	0.108
Mof_H 	H 	0.7896	0.237	0.3176	0.11
Mof_C 	C 	0.83336	0.42102	0.9647	0.12
Mof_H 	H 	0.8266	0.4217	0.0164	-0.002
Mof_C 	C 	0.81686	0.40056	0.9165	-0.192
Mof_H 	H 	0.7989	0.3877	0.9344	0.1
Mof_C 	C 	0.82629	0.39871	0.8421	0.112
Mof_C 	C 	0.85153	0.41868	0.8191	-0.177
Mof_H 	H 	0.8585	0.4184	0.7676	0.084
Mof_C 	C 	0.86694	0.43916	0.8701	0.107
Mof_H 	H 	0.8842	0.4531	0.8528	-0.004
Mof_C 	C 	0.8092	0.3745	0.7882	-0.067
Mof_H 	H 	0.7927	0.3617	0.8172	0.049
Mof_H 	H 	0.8259	0.3588	0.7686	0.042
Mof_Mn	Mn	0.20518	0.67561	0.92162	1.009
Mof_O 	O 	0.23175	0.65436	0.9938	-0.446
Mof_O 	O 	0.22497	0.754	0.06617	-0.372
Mof_O 	O 	0.17969	0.70438	0.85545	-0.385
Mof_N 	N 	0.21152	0.71732	0.97354	-0.252
Mof_N 	N 	0.19557	0.74465	0.93776	-0.193
Mof_C 	C 	0.2471	0.66583	0.0509	0.349
Mof_C 	C 	0.26721	0.64465	0.092	-0.309
Mof_H 	H 	0.2707	0.623	0.0731	0.139
Mof_C 	C 	0.282	0.6533	0.1573	0.155
Mof_H 	H 	0.2965	0.6382	0.1815	-0.027
Mof_C 	C 	0.2764	0.6852	0.1917	-0.197
Mof_H 	H 	0.284	0.6904	0.2413	0.102
Mof_C 	C 	0.2586	0.70827	0.1462	0.134
Mof_H 	H 	0.257	0.7305	0.1625	0.003
Mof_C 	C 	0.24404	0.69901	0.0795	-0.254
Mof_C 	C 	0.22642	0.72455	0.038	0.299
Mof_C 	C 	0.17998	0.73524	0.8771	0.23
Mof_C 	C 	0.1622	0.76013	0.8309	-0.151
Mof_H 	H 	0.1492	0.7743	0.8657	0.066
Mof_H 	H 	0.1788	0.7744	0.8059	0.075
Mof_C 	C 	0.13952	0.7471	0.7714	-0.25
Mof_H 	H 	0.1239	0.7316	0.7945	0.102
Mof_H 	H 	0.1273	0.7654	0.7483	0.098
Mof_H 	H 	0.1524	0.7357	0.7322	0.102
Mof_Mn	Mn	0.21272	0.79098	0.99747	1.047
Mof_O 	O 	0.17109	0.80002	0.03739	-0.426
Mof_O 	O 	0.18293	0.86517	0.85034	-0.379
Mof_O 	O 	0.255	0.78817	0.94663	-0.378
Mof_N 	N 	0.20735	0.82592	0.92287	-0.249
Mof_N 	N 	0.23558	0.83109	0.8774	-0.187
Mof_N 	N 	0.23829	0.8243	0.0842	-0.237
Mof_C 	C 	0.149	0.82256	0.0176	0.317
Mof_C 	C 	0.12026	0.82474	0.062	-0.286
Mof_H 	H 	0.1175	0.8105	0.1043	0.135
Mof_C 	C 	0.09635	0.84719	0.0447	0.159
Mof_H 	H 	0.077	0.8482	0.0752	-0.032
Mof_C 	C 	0.09955	0.86851	0.984	-0.223
Mof_H 	H 	0.0826	0.884	0.9727	0.108
Mof_C 	C 	0.1274	0.86708	0.9401	0.143
Mof_H 	H 	0.1297	0.8819	0.8986	0.002
Mof_C 	C 	0.15256	0.84436	0.9549	-0.246
Mof_C 	C 	0.18209	0.84528	0.9062	0.303
Mof_C 	C 	0.25888	0.8106	0.8951	0.212
Mof_C 	C 	0.29208	0.81364	0.857	-0.08
Mof_H 	H 	0.2905	0.8307	0.8169	0.041
Mof_H 	H 	0.2973	0.7924	0.8319	0.048
Mof_C 	C 	0.3183	0.8218	0.9058	-0.315
Mof_H 	H 	0.3323	0.8024	0.9136	0.117
Mof_H 	H 	0.3314	0.8396	0.883	0.114
Mof_H 	H 	0.3095	0.8292	0.9547	0.122
Mof_C 	C 	0.2694	0.8133	0.1078	0.101
Mof_H 	H 	0.277	0.7919	0.0937	0.006
Mof_C 	C 	0.2898	0.8344	0.1533	-0.22
Mof_H 	H 	0.3117	0.8282	0.1671	0.099
Mof_C 	C 	0.2757	0.86519	0.1769	0.262
Mof_C 	C 	0.2546	0.87471	0.1357	-0.367
Mof_H 	H 	0.2502	0.8977	0.1331	0.146
Mof_C 	C 	0.2362	0.85334	0.091	0.247
Mof_H 	H 	0.2194	0.8635	0.0615	-0.057
Mof_C 	C 	0.2945	0.8886	0.2303	-0.25
Mof_H 	H 	0.2788	0.9052	0.2501	0.096
Mof_H 	H 	0.3113	0.9006	0.2002	0.093
Mof_Mn	Mn	0.27921	0.63699	0.72164	1.049
Mof_O 	O 	0.25868	0.59912	0.68543	-0.429
Mof_O 	O 	0.19753	0.63474	0.86397	-0.388
Mof_O 	O 	0.2944	0.6774	0.76886	-0.393
Mof_N 	N 	0.24361	0.64398	0.79377	-0.251
Mof_N 	N 	0.24608	0.67406	0.835	-0.197
Mof_N 	N 	0.35828	0.93996	0.4437	-0.202
Mof_C 	C 	0.23388	0.58205	0.7158	0.316
Mof_C 	C 	0.2276	0.55072	0.6867	-0.288
Mof_H 	H 	0.2411	0.5425	0.6468	0.136
Mof_C 	C 	0.20259	0.53141	0.7137	0.162
Mof_H 	H 	0.1987	0.5105	0.6913	-0.034
Mof_C 	C 	0.18295	0.54172	0.7728	-0.216
Mof_H 	H 	0.1661	0.5278	0.7925	0.112
Mof_C 	C 	0.18823	0.57282	0.8028	0.139
Mof_H 	H 	0.1742	0.5805	0.8423	0.009
Mof_C 	C 	0.21353	0.5932	0.7767	-0.242
Mof_C 	C 	0.21807	0.62574	0.8131	0.307
Mof_C 	C 	0.27342	0.68893	0.8176	0.278
Mof_C 	C 	0.28168	0.72077	0.8554	-0.27
Mof_H 	H 	0.262	0.73	0.881	0.108
Mof_H 	H 	0.2896	0.737	0.8176	0.11
Mof_C 	C 	0.33336	0.92102	0.4647	0.12
Mof_H 	H 	0.3266	0.9217	0.5164	-0.001
Mof_C 	C 	0.31686	0.90056	0.4165	-0.192
Mof_H 	H 	0.2989	0.8877	0.4344	0.1
Mof_C 	C 	0.32629	0.89871	0.3421	0.112
Mof_C 	C 	0.35153	0.91868	0.3191	-0.177
Mof_H 	H 	0.3585	0.9184	0.2676	0.084
Mof_C 	C 	0.36694	0.93916	0.3701	0.107
Mof_H 	H 	0.3842	0.9531	0.3528	-0.004
Mof_C 	C 	0.3092	0.8745	0.2882	-0.067
Mof_H 	H 	0.2927	0.8617	0.3172	0.049
Mof_H 	H 	0.3259	0.8588	0.2686	0.042
Mof_Mn	Mn	0.79482	0.82439	0.92162	1.009
Mof_O 	O 	0.76825	0.84564	0.9938	-0.446
Mof_O 	O 	0.77503	0.746	0.06617	-0.372
Mof_O 	O 	0.82031	0.79562	0.85545	-0.385
Mof_N 	N 	0.78848	0.78268	0.97354	-0.252
Mof_N 	N 	0.80443	0.75535	0.93776	-0.193
Mof_C 	C 	0.7529	0.83417	0.0509	0.349
Mof_C 	C 	0.73279	0.85535	0.092	-0.309
Mof_H 	H 	0.7293	0.877	0.0731	0.139
Mof_C 	C 	0.718	0.8467	0.1573	0.155
Mof_H 	H 	0.7035	0.8618	0.1815	-0.027
Mof_C 	C 	0.7236	0.8148	0.1917	-0.197
Mof_H 	H 	0.716	0.8096	0.2413	0.102
Mof_C 	C 	0.7414	0.79173	0.1462	0.134
Mof_H 	H 	0.743	0.7695	0.1625	0.003
Mof_C 	C 	0.75596	0.80099	0.0795	-0.254
Mof_C 	C 	0.77358	0.77545	0.038	0.299
Mof_C 	C 	0.82002	0.76476	0.8771	0.23
Mof_C 	C 	0.8378	0.73987	0.8309	-0.151
Mof_H 	H 	0.8508	0.7257	0.8657	0.066
Mof_H 	H 	0.8212	0.7256	0.8059	0.075
Mof_C 	C 	0.86048	0.7529	0.7714	-0.25
Mof_H 	H 	0.8761	0.7684	0.7945	0.102
Mof_H 	H 	0.8727	0.7346	0.7483	0.098
Mof_H 	H 	0.8476	0.7643	0.7322	0.102
Mof_Mn	Mn	0.78728	0.70902	0.99747	1.047
Mof_O 	O 	0.82891	0.69998	0.03739	-0.426
Mof_O 	O 	0.81707	0.63483	0.85034	-0.379
Mof_O 	O 	0.745	0.71183	0.94663	-0.378
Mof_N 	N 	0.79265	0.67408	0.92287	-0.249
Mof_N 	N 	0.76442	0.66891	0.8774	-0.187
Mof_N 	N 	0.76171	0.6757	0.0842	-0.237
Mof_C 	C 	0.851	0.67744	0.0176	0.317
Mof_C 	C 	0.87974	0.67526	0.062	-0.286
Mof_H 	H 	0.8825	0.6895	0.1043	0.135
Mof_C 	C 	0.90365	0.65281	0.0447	0.159
Mof_H 	H 	0.923	0.6518	0.0752	-0.032
Mof_C 	C 	0.90045	0.63149	0.984	-0.223
Mof_H 	H 	0.9174	0.616	0.9727	0.108
Mof_C 	C 	0.8726	0.63292	0.9401	0.143
Mof_H 	H 	0.8703	0.6181	0.8986	0.002
Mof_C 	C 	0.84744	0.65564	0.9549	-0.246
Mof_C 	C 	0.81791	0.65472	0.9062	0.303
Mof_C 	C 	0.74112	0.6894	0.8951	0.212
Mof_C 	C 	0.70792	0.68636	0.857	-0.08
Mof_H 	H 	0.7095	0.6693	0.8169	0.041
Mof_H 	H 	0.7027	0.7076	0.8319	0.048
Mof_C 	C 	0.6817	0.6782	0.9058	-0.315
Mof_H 	H 	0.6677	0.6976	0.9136	0.117
Mof_H 	H 	0.6686	0.6604	0.883	0.114
Mof_H 	H 	0.6905	0.6708	0.9547	0.122
Mof_C 	C 	0.7306	0.6867	0.1078	0.101
Mof_H 	H 	0.723	0.7081	0.0937	0.006
Mof_C 	C 	0.7102	0.6656	0.1533	-0.22
Mof_H 	H 	0.6883	0.6718	0.1671	0.099
Mof_C 	C 	0.7243	0.63481	0.1769	0.262
Mof_C 	C 	0.7454	0.62529	0.1357	-0.367
Mof_H 	H 	0.7498	0.6023	0.1331	0.146
Mof_C 	C 	0.7638	0.64666	0.091	0.247
Mof_H 	H 	0.7806	0.6365	0.0615	-0.057
Mof_C 	C 	0.7055	0.6114	0.2303	-0.25
Mof_H 	H 	0.7212	0.5948	0.2501	0.096
Mof_H 	H 	0.6887	0.5994	0.2002	0.093
Mof_Mn	Mn	0.72079	0.86301	0.72164	1.049
Mof_O 	O 	0.74132	0.90088	0.68543	-0.429
Mof_O 	O 	0.80247	0.86526	0.86397	-0.388
Mof_O 	O 	0.7056	0.8226	0.76886	-0.393
Mof_N 	N 	0.75639	0.85602	0.79377	-0.251
Mof_N 	N 	0.75392	0.82594	0.835	-0.197
Mof_N 	N 	0.64172	0.56004	0.4437	-0.202
Mof_C 	C 	0.76612	0.91795	0.7158	0.316
Mof_C 	C 	0.7724	0.94928	0.6867	-0.288
Mof_H 	H 	0.7589	0.9575	0.6468	0.136
Mof_C 	C 	0.79741	0.96859	0.7137	0.162
Mof_H 	H 	0.8013	0.9895	0.6913	-0.034
Mof_C 	C 	0.81705	0.95828	0.7728	-0.216
Mof_H 	H 	0.8339	0.9722	0.7925	0.112
Mof_C 	C 	0.81177	0.92718	0.8028	0.139
Mof_H 	H 	0.8258	0.9195	0.8423	0.009
Mof_C 	C 	0.78647	0.9068	0.7767	-0.242
Mof_C 	C 	0.78193	0.87426	0.8131	0.307
Mof_C 	C 	0.72658	0.81107	0.8176	0.278
Mof_C 	C 	0.71832	0.77923	0.8554	-0.27
Mof_H 	H 	0.738	0.77	0.881	0.108
Mof_H 	H 	0.7104	0.763	0.8176	0.11
Mof_C 	C 	0.66664	0.57898	0.4647	0.12
Mof_H 	H 	0.6734	0.5783	0.5164	-0.001
Mof_C 	C 	0.68314	0.59944	0.4165	-0.192
Mof_H 	H 	0.7011	0.6123	0.4344	0.1
Mof_C 	C 	0.67371	0.60129	0.3421	0.112
Mof_C 	C 	0.64847	0.58132	0.3191	-0.177
Mof_H 	H 	0.6415	0.5816	0.2676	0.084
Mof_C 	C 	0.63306	0.56084	0.3701	0.107
Mof_H 	H 	0.6158	0.5469	0.3528	-0.004
Mof_C 	C 	0.6908	0.6255	0.2882	-0.067
Mof_H 	H 	0.7073	0.6383	0.3172	0.049
Mof_H 	H 	0.6741	0.6412	0.2686	0.042
Mof_Mn	Mn	0.29482	0.32439	0.42162	1.009
Mof_O 	O 	0.26825	0.34564	0.4938	-0.446
Mof_O 	O 	0.27503	0.246	0.56617	-0.372
Mof_O 	O 	0.32031	0.29562	0.35545	-0.385
Mof_N 	N 	0.28848	0.28268	0.47354	-0.252
Mof_N 	N 	0.30443	0.25535	0.43776	-0.193
Mof_C 	C 	0.2529	0.33417	0.5509	0.349
Mof_C 	C 	0.23279	0.35535	0.592	-0.309
Mof_H 	H 	0.2293	0.377	0.5731	0.139
Mof_C 	C 	0.218	0.3467	0.6573	0.155
Mof_H 	H 	0.2035	0.3618	0.6815	-0.027
Mof_C 	C 	0.2236	0.3148	0.6917	-0.197
Mof_H 	H 	0.216	0.3096	0.7413	0.102
Mof_C 	C 	0.2414	0.29173	0.6462	0.134
Mof_H 	H 	0.243	0.2695	0.6625	0.003
Mof_C 	C 	0.25596	0.30099	0.5795	-0.254
Mof_C 	C 	0.27358	0.27545	0.538	0.299
Mof_C 	C 	0.32002	0.26476	0.3771	0.23
Mof_C 	C 	0.3378	0.23987	0.3309	-0.151
Mof_H 	H 	0.3508	0.2257	0.3657	0.066
Mof_H 	H 	0.3212	0.2256	0.3059	0.075
Mof_C 	C 	0.36048	0.2529	0.2714	-0.25
Mof_H 	H 	0.3761	0.2684	0.2945	0.102
Mof_H 	H 	0.3727	0.2346	0.2483	0.098
Mof_H 	H 	0.3476	0.2643	0.2322	0.102
Mof_Mn	Mn	0.28728	0.20902	0.49747	1.047
Mof_O 	O 	0.32891	0.19998	0.53739	-0.426
Mof_O 	O 	0.31707	0.13483	0.35034	-0.379
Mof_O 	O 	0.245	0.21183	0.44663	-0.378
Mof_N 	N 	0.29265	0.17408	0.42287	-0.249
Mof_N 	N 	0.26442	0.16891	0.3774	-0.187
Mof_N 	N 	0.26171	0.1757	0.5842	-0.237
Mof_C 	C 	0.351	0.17744	0.5176	0.317
Mof_C 	C 	0.37974	0.17526	0.562	-0.286
Mof_H 	H 	0.3825	0.1895	0.6043	0.135
Mof_C 	C 	0.40365	0.15281	0.5447	0.159
Mof_H 	H 	0.423	0.1518	0.5752	-0.032
Mof_C 	C 	0.40045	0.13149	0.484	-0.222
Mof_H 	H 	0.4174	0.116	0.4727	0.108
Mof_C 	C 	0.3726	0.13292	0.4401	0.143
Mof_H 	H 	0.3703	0.1181	0.3986	0.002
Mof_C 	C 	0.34744	0.15564	0.4549	-0.246
Mof_C 	C 	0.31791	0.15472	0.4062	0.303
Mof_C 	C 	0.24112	0.1894	0.3951	0.212
Mof_C 	C 	0.20792	0.18636	0.357	-0.08
Mof_H 	H 	0.2095	0.1693	0.3169	0.041
Mof_H 	H 	0.2027	0.2076	0.3319	0.048
Mof_C 	C 	0.1817	0.1782	0.4058	-0.315
Mof_H 	H 	0.1677	0.1976	0.4136	0.117
Mof_H 	H 	0.1686	0.1604	0.383	0.114
Mof_H 	H 	0.1905	0.1708	0.4547	0.122
Mof_C 	C 	0.2306	0.1867	0.6078	0.101
Mof_H 	H 	0.223	0.2081	0.5937	0.006
Mof_C 	C 	0.2102	0.1656	0.6533	-0.22
Mof_H 	H 	0.1883	0.1718	0.6671	0.098
Mof_C 	C 	0.2243	0.13481	0.6769	0.262
Mof_C 	C 	0.2454	0.12529	0.6357	-0.367
Mof_H 	H 	0.2498	0.1023	0.6331	0.146
Mof_C 	C 	0.2638	0.14666	0.591	0.247
Mof_H 	H 	0.2806	0.1365	0.5615	-0.057
Mof_C 	C 	0.2055	0.1114	0.7303	-0.25
Mof_H 	H 	0.2212	0.0948	0.7501	0.096
Mof_H 	H 	0.1887	0.0994	0.7002	0.093
Mof_Mn	Mn	0.22079	0.36301	0.22164	1.049
Mof_O 	O 	0.24132	0.40088	0.18543	-0.428
Mof_O 	O 	0.30247	0.36526	0.36397	-0.388
Mof_O 	O 	0.2056	0.3226	0.26886	-0.393
Mof_N 	N 	0.25639	0.35602	0.29377	-0.251
Mof_N 	N 	0.25392	0.32594	0.335	-0.197
Mof_N 	N 	0.14172	0.06004	0.9437	-0.202
Mof_C 	C 	0.26612	0.41795	0.2158	0.316
Mof_C 	C 	0.2724	0.44928	0.1867	-0.288
Mof_H 	H 	0.2589	0.4575	0.1468	0.136
Mof_C 	C 	0.29741	0.46859	0.2137	0.162
Mof_H 	H 	0.3013	0.4895	0.1913	-0.034
Mof_C 	C 	0.31705	0.45828	0.2728	-0.216
Mof_H 	H 	0.3339	0.4722	0.2925	0.112
Mof_C 	C 	0.31177	0.42718	0.3028	0.139
Mof_H 	H 	0.3258	0.4195	0.3423	0.009
Mof_C 	C 	0.28647	0.4068	0.2767	-0.242
Mof_C 	C 	0.28193	0.37426	0.3131	0.307
Mof_C 	C 	0.22658	0.31107	0.3176	0.278
Mof_C 	C 	0.21832	0.27923	0.3554	-0.27
Mof_H 	H 	0.238	0.27	0.381	0.108
Mof_H 	H 	0.2104	0.263	0.3176	0.11
Mof_C 	C 	0.16664	0.07898	0.9647	0.12
Mof_H 	H 	0.1734	0.0783	0.0164	-0.002
Mof_C 	C 	0.18314	0.09944	0.9165	-0.192
Mof_H 	H 	0.2011	0.1123	0.9344	0.1
Mof_C 	C 	0.17371	0.10129	0.8421	0.112
Mof_C 	C 	0.14847	0.08132	0.8191	-0.177
Mof_H 	H 	0.1415	0.0816	0.7676	0.084
Mof_C 	C 	0.13306	0.06084	0.8701	0.107
Mof_H 	H 	0.1158	0.0469	0.8528	-0.004
Mof_C 	C 	0.1908	0.1255	0.7882	-0.067
Mof_H 	H 	0.2073	0.1383	0.8172	0.049
Mof_H 	H 	0.1741	0.1412	0.7686	0.042
_end
