data_functionalizedCrystal
_audit_creation_method	'EQeq! by Chris Wilmer'
_symmetry_space_group_name_H-M	'P1'
_symmetry_Int_Tables_number	1
_symmetry_cell_setting	triclinic
loop_
_symmetry_equiv_pos_as_xyz
  x,y,z
_cell_length_a	8.566
_cell_length_b	8.566
_cell_length_c	37.811
_cell_angle_alpha	90
_cell_angle_beta	90
_cell_angle_gamma	120
loop_
_atom_site_label
_atom_site_type_symbol
_atom_site_fract_x
_atom_site_fract_y
_atom_site_fract_z
_atom_site_charge
Mof_Cd	Cd	4.20248e-32	0	0.66667	0.295
Mof_Cd	Cd	-2.10124e-32	-2.10124e-32	0.33333	0.295
Mof_Cd	Cd	-0	0	-0	0.3
Mof_In	In	0.5	0.5	0.77804	2.483
Mof_In	In	-5.11335e-17	0.5	0.44471	2.098
Mof_In	In	0.5	1.05062e-32	0.11137	2.096
Mof_In	In	-7.20864e-18	0.5	0.88863	2.096
Mof_In	In	0.5	0.5	0.22196	2.484
Mof_In	In	0.5	-4.20248e-32	0.55529	2.099
Mof_C 	C 	0.2782	0.1775	0.72542	0.23
Mof_C 	C 	0.2261	0.3213	0.7171	0.263
Mof_C 	C 	0.8993	0.7218	0.39209	0.362
Mof_C 	C 	0.0952	0.7739	0.38377	0.147
Mof_C 	C 	0.8225	0.1007	0.05875	0.11
Mof_C 	C 	0.6787	0.9048	0.05043	0.398
Mof_C 	C 	0.7218	0.8225	0.72542	0.242
Mof_C 	C 	0.7739	0.6787	0.7171	0.284
Mof_C 	C 	0.1007	0.2782	0.39209	0.106
Mof_C 	C 	0.9048	0.2261	0.38377	0.387
Mof_C 	C 	0.1775	0.8993	0.05875	0.36
Mof_C 	C 	0.3213	0.0952	0.05043	0.134
Mof_C 	C 	0.1007	0.8225	0.94125	0.111
Mof_C 	C 	0.9048	0.6787	0.94957	0.398
Mof_C 	C 	0.1775	0.2782	0.27458	0.23
Mof_C 	C 	0.3213	0.2261	0.2829	0.263
Mof_C 	C 	0.7218	0.8993	0.60791	0.362
Mof_C 	C 	0.7739	0.0952	0.61623	0.147
Mof_C 	C 	0.8993	0.1775	0.94125	0.36
Mof_C 	C 	0.0952	0.3213	0.94957	0.134
Mof_C 	C 	0.8225	0.7218	0.27458	0.242
Mof_C 	C 	0.6787	0.7739	0.2829	0.284
Mof_C 	C 	0.2782	0.1007	0.60791	0.106
Mof_C 	C 	0.2261	0.9048	0.61623	0.387
Mof_C 	C 	0.7048	0.4096	0.83333	0.297
Mof_C 	C 	0.8072	0.6144	0.83333	0.247
Mof_C 	C 	0.7048	0.2952	0.5	0.278
Mof_C 	C 	0.8072	0.1928	0.5	0.249
Mof_C 	C 	0.5904	0.2952	0.16667	0.268
Mof_C 	C 	0.3856	0.1928	0.16667	0.256
Mof_C 	C 	0.2952	0.5904	0.83333	0.268
Mof_C 	C 	0.1928	0.3856	0.83333	0.256
Mof_C 	C 	0.2952	0.7048	0.5	0.278
Mof_C 	C 	0.1928	0.8072	0.5	0.249
Mof_C 	C 	0.4096	0.7048	0.16667	0.297
Mof_C 	C 	0.6144	0.8072	0.16667	0.247
Mof_O 	O 	0.5785	0.3304	0.81194	-0.477
Mof_O 	O 	0.2951	0.4606	0.73615	-0.486
Mof_O 	O 	0.1205	0.2897	0.69213	-0.244
Mof_O 	O 	0.3916	0.2141	0.74959	-0.41
Mof_O 	O 	0.7562	0.6901	0.81155	-0.383
Mof_O 	O 	0.2052	0.0355	0.70731	-0.277
Mof_O 	O 	0.7519	0.4215	0.47861	-0.379
Mof_O 	O 	0.1655	0.7049	0.40282	-0.399
Mof_O 	O 	0.1692	0.8795	0.3588	-0.115
Mof_O 	O 	0.8225	0.6084	0.41626	-0.329
Mof_O 	O 	0.9339	0.2438	0.47822	-0.347
Mof_O 	O 	0.8303	0.7948	0.37398	-0.141
Mof_O 	O 	0.6696	0.2481	0.14527	-0.419
Mof_O 	O 	0.5394	0.8345	0.06948	-0.419
Mof_O 	O 	0.7103	0.8308	0.02546	-0.143
Mof_O 	O 	0.7859	0.1775	0.08292	-0.318
Mof_O 	O 	0.3099	0.0661	0.14488	-0.47
Mof_O 	O 	0.9645	0.1697	0.04064	-0.114
Mof_O 	O 	0.4215	0.6696	0.81194	-0.439
Mof_O 	O 	0.7049	0.5394	0.73615	-0.454
Mof_O 	O 	0.8795	0.7103	0.69213	-0.095
Mof_O 	O 	0.6084	0.7859	0.74959	-0.35
Mof_O 	O 	0.2438	0.3099	0.81155	-0.477
Mof_O 	O 	0.7948	0.9645	0.70731	-0.081
Mof_O 	O 	0.2481	0.5785	0.47861	-0.435
Mof_O 	O 	0.8345	0.2951	0.40282	-0.435
Mof_O 	O 	0.8308	0.1205	0.3588	-0.216
Mof_O 	O 	0.1775	0.3916	0.41626	-0.348
Mof_O 	O 	0.0661	0.7562	0.47822	-0.42
Mof_O 	O 	0.1697	0.2052	0.37398	-0.212
Mof_O 	O 	0.3304	0.7519	0.14527	-0.401
Mof_O 	O 	0.4606	0.1655	0.06948	-0.415
Mof_O 	O 	0.2897	0.1692	0.02546	-0.192
Mof_O 	O 	0.2141	0.8225	0.08292	-0.36
Mof_O 	O 	0.6901	0.9339	0.14488	-0.303
Mof_O 	O 	0.0355	0.8303	0.04064	-0.242
Mof_O 	O 	0.2481	0.6696	0.85473	-0.419
Mof_O 	O 	0.8345	0.5394	0.93052	-0.419
Mof_O 	O 	0.8308	0.7103	0.97454	-0.141
Mof_O 	O 	0.1775	0.7859	0.91708	-0.318
Mof_O 	O 	0.0661	0.3099	0.85512	-0.47
Mof_O 	O 	0.1697	0.9645	0.95936	-0.112
Mof_O 	O 	0.3304	0.5785	0.18806	-0.477
Mof_O 	O 	0.4606	0.2951	0.26385	-0.486
Mof_O 	O 	0.2897	0.1205	0.30787	-0.244
Mof_O 	O 	0.2141	0.3916	0.25041	-0.41
Mof_O 	O 	0.6901	0.7562	0.18845	-0.383
Mof_O 	O 	0.0355	0.2052	0.29269	-0.277
Mof_O 	O 	0.4215	0.7519	0.52139	-0.379
Mof_O 	O 	0.7049	0.1655	0.59718	-0.399
Mof_O 	O 	0.8795	0.1692	0.6412	-0.115
Mof_O 	O 	0.6084	0.8225	0.58374	-0.329
Mof_O 	O 	0.2438	0.9339	0.52178	-0.347
Mof_O 	O 	0.7948	0.8303	0.62602	-0.141
Mof_O 	O 	0.7519	0.3304	0.85473	-0.401
Mof_O 	O 	0.1655	0.4606	0.93052	-0.415
Mof_O 	O 	0.1692	0.2897	0.97454	-0.19
Mof_O 	O 	0.8225	0.2141	0.91708	-0.36
Mof_O 	O 	0.9339	0.6901	0.85512	-0.303
Mof_O 	O 	0.8303	0.0355	0.95936	-0.241
Mof_O 	O 	0.6696	0.4215	0.18806	-0.439
Mof_O 	O 	0.5394	0.7049	0.26385	-0.454
Mof_O 	O 	0.7103	0.8795	0.30787	-0.095
Mof_O 	O 	0.7859	0.6084	0.25041	-0.35
Mof_O 	O 	0.3099	0.2438	0.18845	-0.477
Mof_O 	O 	0.9645	0.7948	0.29269	-0.081
Mof_O 	O 	0.5785	0.2481	0.52139	-0.435
Mof_O 	O 	0.2951	0.8345	0.59718	-0.435
Mof_O 	O 	0.1205	0.8308	0.6412	-0.216
Mof_O 	O 	0.3916	0.1775	0.58374	-0.348
Mof_O 	O 	0.7562	0.0661	0.52178	-0.42
Mof_O 	O 	0.2052	0.1697	0.62602	-0.212
_end
