# CIF file generated by openbabel 3.1.0, see https://openbabel.org
data_I
_chemical_name_common 'REFTON_clean'
_cell_length_a 7.3077
_cell_length_b 23.3444
_cell_length_c 18.8151
_cell_angle_alpha 90
_cell_angle_beta 90
_cell_angle_gamma 90
_space_group_name_H-M_alt 'P 1'
_space_group_name_Hall 'P 1'
loop_
    _symmetry_equiv_pos_as_xyz
    x,y,z
loop_
    _atom_site_label
    _atom_site_type_symbol
    _atom_site_fract_x
    _atom_site_fract_y
    _atom_site_fract_z
    _atom_site_occupancy
    Zn1      Zn       0.84966    0.91321    0.45132    1.000
    H2       H        0.77170    0.02570    0.70610    1.000
    H3       H        0.98870    0.87110    0.66630    1.000
    H4       H        0.91190    0.92140    0.86730    1.000
    H5       H        0.92610    0.80450    0.80490    1.000
    H6       H        0.10760    0.81270    0.76160    1.000
    H7       H        0.09530    0.83420    0.84040    1.000
    H8       H        0.19000    0.83580    0.55020    1.000
    H9       H        0.89050    0.77530    0.56040    1.000
    C10      C        0.82040    0.99131    0.72228    1.000
    C11      C        0.87320    0.94966    0.67412    1.000
    C12      C        0.94770    0.89820    0.69882    1.000
    C13      C        0.83470    0.95748    0.59615    1.000
    C14      C        0.77980    0.02685    0.84510    1.000
    C15      C        0.84050    0.98165    0.79512    1.000
    C16      C        0.90570    0.92872    0.81874    1.000
    C17      C        0.96140    0.88692    0.77100    1.000
    C18      C        0.02880    0.82933    0.79685    1.000
    C19      C        0.51600    0.85656    0.48999    1.000
    C20      C        0.41930    0.80151    0.50745    1.000
    C21      C        0.24670    0.80122    0.53927    1.000
    O22      O        0.72710    0.99695    0.57893    1.000
    O23      O        0.90720    0.92265    0.55370    1.000
    O24      O        0.77340    0.01563    0.91287    1.000
    O25      O        0.73050    0.07432    0.82343    1.000
    O26      O        0.44020    0.90294    0.50400    1.000
    O27      O        0.67300    0.85084    0.46219    1.000
    Zn29     Zn       0.65034    0.08679    0.95132    1.000
    H30      H        0.72830    0.97430    0.20610    1.000
    H31      H        0.51130    0.12890    0.16630    1.000
    H32      H        0.58810    0.07860    0.36730    1.000
    H33      H        0.57390    0.19550    0.30490    1.000
    H34      H        0.39240    0.18730    0.26160    1.000
    H35      H        0.40470    0.16580    0.34040    1.000
    H36      H        0.31000    0.16420    0.05020    1.000
    H37      H        0.60950    0.22470    0.06040    1.000
    C38      C        0.67960    0.00869    0.22228    1.000
    C39      C        0.62680    0.05034    0.17412    1.000
    C40      C        0.55230    0.10180    0.19882    1.000
    C41      C        0.66530    0.04252    0.09615    1.000
    C42      C        0.72020    0.97315    0.34510    1.000
    C43      C        0.65950    0.01835    0.29512    1.000
    C44      C        0.59430    0.07128    0.31874    1.000
    C45      C        0.53860    0.11308    0.27100    1.000
    C46      C        0.47120    0.17067    0.29685    1.000
    C47      C        0.98400    0.14344    0.98999    1.000
    C48      C        0.08070    0.19849    0.00745    1.000
    C49      C        0.25330    0.19878    0.03927    1.000
    O50      O        0.77290    0.00305    0.07893    1.000
    O51      O        0.59280    0.07735    0.05370    1.000
    O52      O        0.72660    0.98437    0.41287    1.000
    O53      O        0.76950    0.92568    0.32343    1.000
    O54      O        0.05980    0.09706    0.00400    1.000
    O55      O        0.82700    0.14916    0.96219    1.000
    Zn57     Zn       0.15034    0.41321    0.54868    1.000
    H58      H        0.22830    0.52570    0.29390    1.000
    H59      H        0.01130    0.37110    0.33370    1.000
    H60      H        0.08810    0.42140    0.13270    1.000
    H61      H        0.07390    0.30450    0.19510    1.000
    H62      H        0.89240    0.31270    0.23840    1.000
    H63      H        0.90470    0.33420    0.15960    1.000
    H64      H        0.81000    0.33580    0.44980    1.000
    H65      H        0.10950    0.27530    0.43960    1.000
    C66      C        0.17960    0.49131    0.27772    1.000
    C67      C        0.12680    0.44966    0.32588    1.000
    C68      C        0.05230    0.39820    0.30118    1.000
    C69      C        0.16530    0.45748    0.40385    1.000
    C70      C        0.22020    0.52685    0.15490    1.000
    C71      C        0.15950    0.48165    0.20488    1.000
    C72      C        0.09430    0.42872    0.18126    1.000
    C73      C        0.03860    0.38692    0.22900    1.000
    C74      C        0.97120    0.32933    0.20315    1.000
    C75      C        0.48400    0.35656    0.51001    1.000
    C76      C        0.58070    0.30151    0.49255    1.000
    C77      C        0.75330    0.30122    0.46073    1.000
    O78      O        0.27290    0.49695    0.42107    1.000
    O79      O        0.09280    0.42265    0.44630    1.000
    O80      O        0.22660    0.51563    0.08713    1.000
    O81      O        0.26950    0.57432    0.17657    1.000
    O82      O        0.55980    0.40294    0.49600    1.000
    O83      O        0.32700    0.35084    0.53781    1.000
    Zn85     Zn       0.34966    0.58679    0.04868    1.000
    H86      H        0.27170    0.47430    0.79390    1.000
    H87      H        0.48870    0.62890    0.83370    1.000
    H88      H        0.41190    0.57860    0.63270    1.000
    H89      H        0.42610    0.69550    0.69510    1.000
    H90      H        0.60760    0.68730    0.73840    1.000
    H91      H        0.59530    0.66580    0.65960    1.000
    H92      H        0.69000    0.66420    0.94980    1.000
    H93      H        0.39050    0.72470    0.93960    1.000
    C94      C        0.32040    0.50869    0.77772    1.000
    C95      C        0.37320    0.55034    0.82588    1.000
    C96      C        0.44770    0.60180    0.80118    1.000
    C97      C        0.33470    0.54252    0.90385    1.000
    C98      C        0.27980    0.47315    0.65490    1.000
    C99      C        0.34050    0.51835    0.70488    1.000
    C100     C        0.40570    0.57128    0.68126    1.000
    C101     C        0.46140    0.61308    0.72900    1.000
    C102     C        0.52880    0.67067    0.70315    1.000
    C103     C        0.01600    0.64344    0.01001    1.000
    C104     C        0.91930    0.69849    0.99255    1.000
    C105     C        0.74670    0.69878    0.96073    1.000
    O106     O        0.22710    0.50305    0.92107    1.000
    O107     O        0.40720    0.57735    0.94630    1.000
    O108     O        0.27340    0.48437    0.58713    1.000
    O109     O        0.23050    0.42568    0.67657    1.000
    O110     O        0.94020    0.59706    0.99600    1.000
    O111     O        0.17300    0.64916    0.03781    1.000
    H112     H        0.60042    0.25000    0.11357    1.000
    Zn113    Zn       0.15034    0.08679    0.54868    1.000
    H114     H        0.22830    0.97430    0.29390    1.000
    H115     H        0.01130    0.12890    0.33370    1.000
    H116     H        0.08810    0.07860    0.13270    1.000
    H117     H        0.07390    0.19550    0.19510    1.000
    H118     H        0.89240    0.18730    0.23840    1.000
    H119     H        0.90470    0.16580    0.15960    1.000
    H120     H        0.81000    0.16420    0.44980    1.000
    H121     H        0.10950    0.22470    0.43960    1.000
    C122     C        0.17960    0.00869    0.27772    1.000
    C123     C        0.12680    0.05034    0.32588    1.000
    C124     C        0.05230    0.10180    0.30118    1.000
    C125     C        0.16530    0.04252    0.40385    1.000
    C126     C        0.22020    0.97315    0.15490    1.000
    C127     C        0.15950    0.01835    0.20488    1.000
    C128     C        0.09430    0.07128    0.18126    1.000
    C129     C        0.03860    0.11308    0.22900    1.000
    C130     C        0.97120    0.17067    0.20315    1.000
    C131     C        0.48400    0.14344    0.51001    1.000
    C132     C        0.58070    0.19849    0.49255    1.000
    C133     C        0.75330    0.19878    0.46073    1.000
    O134     O        0.27290    0.00305    0.42107    1.000
    O135     O        0.09280    0.07735    0.44630    1.000
    O136     O        0.22660    0.98437    0.08713    1.000
    O137     O        0.26950    0.92568    0.17657    1.000
    O138     O        0.55980    0.09706    0.49600    1.000
    O139     O        0.32700    0.14916    0.53781    1.000
    H140     H        0.89958    0.75000    0.61357    1.000
    Zn141    Zn       0.34966    0.91321    0.04868    1.000
    H142     H        0.27170    0.02570    0.79390    1.000
    H143     H        0.48870    0.87110    0.83370    1.000
    H144     H        0.41190    0.92140    0.63270    1.000
    H145     H        0.42610    0.80450    0.69510    1.000
    H146     H        0.60760    0.81270    0.73840    1.000
    H147     H        0.59530    0.83420    0.65960    1.000
    H148     H        0.69000    0.83580    0.94980    1.000
    H149     H        0.39050    0.77530    0.93960    1.000
    C150     C        0.32040    0.99131    0.77772    1.000
    C151     C        0.37320    0.94966    0.82588    1.000
    C152     C        0.44770    0.89820    0.80118    1.000
    C153     C        0.33470    0.95748    0.90385    1.000
    C154     C        0.27980    0.02685    0.65490    1.000
    C155     C        0.34050    0.98165    0.70488    1.000
    C156     C        0.40570    0.92872    0.68126    1.000
    C157     C        0.46140    0.88692    0.72900    1.000
    C158     C        0.52880    0.82933    0.70315    1.000
    C159     C        0.01600    0.85656    0.01001    1.000
    C160     C        0.91930    0.80151    0.99255    1.000
    C161     C        0.74670    0.80122    0.96073    1.000
    O162     O        0.22710    0.99695    0.92107    1.000
    O163     O        0.40720    0.92265    0.94630    1.000
    O164     O        0.27340    0.01563    0.58713    1.000
    O165     O        0.23050    0.07432    0.67657    1.000
    O166     O        0.94020    0.90294    0.99600    1.000
    O167     O        0.17300    0.85084    0.03781    1.000
    Zn169    Zn       0.84966    0.58679    0.45132    1.000
    H170     H        0.77170    0.47430    0.70610    1.000
    H171     H        0.98870    0.62890    0.66630    1.000
    H172     H        0.91190    0.57860    0.86730    1.000
    H173     H        0.92610    0.69550    0.80490    1.000
    H174     H        0.10760    0.68730    0.76160    1.000
    H175     H        0.09530    0.66580    0.84040    1.000
    H176     H        0.19000    0.66420    0.55020    1.000
    H177     H        0.89050    0.72470    0.56040    1.000
    C178     C        0.82040    0.50869    0.72228    1.000
    C179     C        0.87320    0.55034    0.67412    1.000
    C180     C        0.94770    0.60180    0.69882    1.000
    C181     C        0.83470    0.54252    0.59615    1.000
    C182     C        0.77980    0.47315    0.84510    1.000
    C183     C        0.84050    0.51835    0.79512    1.000
    C184     C        0.90570    0.57128    0.81874    1.000
    C185     C        0.96140    0.61308    0.77100    1.000
    C186     C        0.02880    0.67067    0.79685    1.000
    C187     C        0.51600    0.64344    0.48999    1.000
    C188     C        0.41930    0.69849    0.50745    1.000
    C189     C        0.24670    0.69878    0.53927    1.000
    O190     O        0.72710    0.50305    0.57893    1.000
    O191     O        0.90720    0.57735    0.55370    1.000
    O192     O        0.77340    0.48437    0.91287    1.000
    O193     O        0.73050    0.42568    0.82343    1.000
    O194     O        0.44020    0.59706    0.50400    1.000
    O195     O        0.67300    0.64916    0.46219    1.000
    H196     H        0.10042    0.25000    0.38643    1.000
    Zn197    Zn       0.65034    0.41321    0.95132    1.000
    H198     H        0.72830    0.52570    0.20610    1.000
    H199     H        0.51130    0.37110    0.16630    1.000
    H200     H        0.58810    0.42140    0.36730    1.000
    H201     H        0.57390    0.30450    0.30490    1.000
    H202     H        0.39240    0.31270    0.26160    1.000
    H203     H        0.40470    0.33420    0.34040    1.000
    H204     H        0.31000    0.33580    0.05020    1.000
    H205     H        0.60950    0.27530    0.06040    1.000
    C206     C        0.67960    0.49131    0.22228    1.000
    C207     C        0.62680    0.44966    0.17412    1.000
    C208     C        0.55230    0.39820    0.19882    1.000
    C209     C        0.66530    0.45748    0.09615    1.000
    C210     C        0.72020    0.52685    0.34510    1.000
    C211     C        0.65950    0.48165    0.29512    1.000
    C212     C        0.59430    0.42872    0.31874    1.000
    C213     C        0.53860    0.38692    0.27100    1.000
    C214     C        0.47120    0.32933    0.29685    1.000
    C215     C        0.98400    0.35656    0.98999    1.000
    C216     C        0.08070    0.30151    0.00745    1.000
    C217     C        0.25330    0.30122    0.03927    1.000
    O218     O        0.77290    0.49695    0.07893    1.000
    O219     O        0.59280    0.42265    0.05370    1.000
    O220     O        0.72660    0.51563    0.41287    1.000
    O221     O        0.76950    0.57432    0.32343    1.000
    O222     O        0.05980    0.40294    0.00400    1.000
    O223     O        0.82700    0.35084    0.96219    1.000
    H224     H        0.39958    0.75000    0.88643    1.000
    Cd225    Cd       0.50000    0.00000    0.50000    1.000
    Cd226    Cd       0.00000    0.00000    0.00000    1.000
    Cd227    Cd       0.50000    0.50000    0.50000    1.000
    Cd228    Cd       0.00000    0.50000    0.00000    1.000
    H229     H        0.61730    0.75000    0.46900    1.000
    C230     C        0.50350    0.75000    0.49110    1.000
    C231     C        0.15870    0.75000    0.55480    1.000
    C232     C        0.96800    0.75000    0.58700    1.000
    H233     H        0.88270    0.25000    0.96900    1.000
    C234     C        0.99650    0.25000    0.99110    1.000
    C235     C        0.34130    0.25000    0.05480    1.000
    C236     C        0.53200    0.25000    0.08700    1.000
    H237     H        0.38270    0.25000    0.53100    1.000
    C238     C        0.49650    0.25000    0.50890    1.000
    C239     C        0.84130    0.25000    0.44520    1.000
    C240     C        0.03200    0.25000    0.41300    1.000
    H241     H        0.11730    0.75000    0.03100    1.000
    C242     C        0.00350    0.75000    0.00890    1.000
    C243     C        0.65870    0.75000    0.94520    1.000
    C244     C        0.46800    0.75000    0.91300    1.000
