data_functionalizedCrystal
_audit_creation_method	'EQeq! by Chris Wilmer'
_symmetry_space_group_name_H-M	'P1'
_symmetry_Int_Tables_number	1
_symmetry_cell_setting	triclinic
loop_
_symmetry_equiv_pos_as_xyz
  x,y,z
_cell_length_a	8.8841
_cell_length_b	12.058
_cell_length_c	16.5763
_cell_angle_alpha	90
_cell_angle_beta	90
_cell_angle_gamma	109.252
loop_
_atom_site_label
_atom_site_type_symbol
_atom_site_fract_x
_atom_site_fract_y
_atom_site_fract_z
_atom_site_charge
Mof_Eu	Eu	0.93332	0.4523	0.88254	2.386
Mof_Eu	Eu	0.56668	0.5477	0.38254	2.389
Mof_Eu	Eu	0.06668	0.5477	0.11746	2.386
Mof_Eu	Eu	0.43332	0.4523	0.61746	2.389
Mof_H 	H 	0.4711	0.7808	0.9337	0.128
Mof_H 	H 	0.3801	0.8626	0.9671	0.13
Mof_H 	H 	0.6298	0.9652	0.9331	0.049
Mof_H 	H 	0.8215	0.1419	0.9006	0.09
Mof_H 	H 	0.5972	0.1532	0.6937	0.105
Mof_H 	H 	0.405	0.975	0.7252	0.054
Mof_H 	H 	0.9106	0.2246	0.6769	0.116
Mof_H 	H 	0.8281	0.3211	0.6672	0.108
Mof_H 	H 	0.6204	0.6386	0.9898	0.098
Mof_H 	H 	0.7536	0.7053	0.9284	0.084
Mof_H 	H 	0.9876	0.8345	0.9259	0.05
Mof_H 	H 	0.796	0.9959	0.0868	0.077
Mof_H 	H 	0.0289	0.2192	0.4337	0.128
Mof_H 	H 	0.1199	0.1374	0.4671	0.13
Mof_H 	H 	0.8702	0.0348	0.4331	0.05
Mof_H 	H 	0.6785	0.8581	0.4006	0.089
Mof_H 	H 	0.9028	0.8468	0.1937	0.103
Mof_H 	H 	0.095	0.025	0.2252	0.058
Mof_H 	H 	0.5894	0.7754	0.1769	0.116
Mof_H 	H 	0.6719	0.6789	0.1672	0.107
Mof_H 	H 	0.8796	0.3614	0.4898	0.097
Mof_H 	H 	0.7464	0.2947	0.4284	0.083
Mof_H 	H 	0.5124	0.1655	0.4259	0.048
Mof_H 	H 	0.704	0.0041	0.5868	0.078
Mof_H 	H 	0.5289	0.2192	0.0663	0.128
Mof_H 	H 	0.6199	0.1374	0.0329	0.13
Mof_H 	H 	0.3702	0.0348	0.0669	0.049
Mof_H 	H 	0.1785	0.8581	0.0994	0.09
Mof_H 	H 	0.4028	0.8468	0.3063	0.105
Mof_H 	H 	0.595	0.025	0.2748	0.054
Mof_H 	H 	0.0894	0.7754	0.3231	0.116
Mof_H 	H 	0.1719	0.6789	0.3328	0.108
Mof_H 	H 	0.3796	0.3614	0.0102	0.098
Mof_H 	H 	0.2464	0.2947	0.0716	0.084
Mof_H 	H 	0.0124	0.1655	0.0741	0.05
Mof_H 	H 	0.204	0.0041	0.9132	0.077
Mof_H 	H 	0.9711	0.7808	0.5663	0.128
Mof_H 	H 	0.8801	0.8626	0.5329	0.13
Mof_H 	H 	0.1298	0.9652	0.5669	0.05
Mof_H 	H 	0.3215	0.1419	0.5994	0.089
Mof_H 	H 	0.0972	0.1532	0.8063	0.103
Mof_H 	H 	0.905	0.975	0.7748	0.058
Mof_H 	H 	0.4106	0.2246	0.8231	0.116
Mof_H 	H 	0.3281	0.3211	0.8328	0.107
Mof_H 	H 	0.1204	0.6386	0.5102	0.097
Mof_H 	H 	0.2536	0.7053	0.5716	0.083
Mof_H 	H 	0.4876	0.8345	0.5741	0.048
Mof_H 	H 	0.296	0.9959	0.4132	0.078
Mof_C 	C 	0.2296	0.6953	0.9434	0.559
Mof_C 	C 	0.3759	0.8025	0.9275	-0.292
Mof_C 	C 	0.4952	0.9533	0.833	0.087
Mof_C 	C 	0.622	0.0031	0.8851	-0.045
Mof_C 	C 	0.7364	0.1089	0.8658	-0.156
Mof_C 	C 	0.725	0.1651	0.7956	0.21
Mof_C 	C 	0.6027	0.1156	0.7421	-0.162
Mof_C 	C 	0.4877	0.0091	0.7611	-0.039
Mof_C 	C 	0.9008	0.2957	0.7002	-0.231
Mof_C 	C 	0.0625	0.3909	0.7037	0.497
Mof_C 	C 	0.8422	0.6404	0.0247	0.499
Mof_C 	C 	0.7281	0.6935	0.9853	-0.243
Mof_C 	C 	0.8695	0.8977	0.0087	0.137
Mof_C 	C 	0.9922	0.9008	0.9559	-0.084
Mof_C 	C 	0.8784	0.9972	0.0518	-0.099
Mof_C 	C 	0.2704	0.3047	0.4434	0.558
Mof_C 	C 	0.1241	0.1975	0.4275	-0.291
Mof_C 	C 	0.0048	0.0467	0.333	0.093
Mof_C 	C 	0.878	0.9969	0.3851	-0.048
Mof_C 	C 	0.7636	0.8911	0.3658	-0.152
Mof_C 	C 	0.775	0.8349	0.2956	0.206
Mof_C 	C 	0.8973	0.8844	0.2421	-0.153
Mof_C 	C 	0.0123	0.9909	0.2611	-0.049
Mof_C 	C 	0.5992	0.7043	0.2002	-0.229
Mof_C 	C 	0.4375	0.6091	0.2037	0.495
Mof_C 	C 	0.6578	0.3596	0.5247	0.494
Mof_C 	C 	0.7719	0.3065	0.4853	-0.237
Mof_C 	C 	0.6305	0.1023	0.5087	0.134
Mof_C 	C 	0.5078	0.0992	0.4559	-0.077
Mof_C 	C 	0.6216	0.0028	0.5518	-0.105
Mof_C 	C 	0.7704	0.3047	0.0566	0.559
Mof_C 	C 	0.6241	0.1975	0.0725	-0.292
Mof_C 	C 	0.5048	0.0467	0.167	0.087
Mof_C 	C 	0.378	0.9969	0.1149	-0.045
Mof_C 	C 	0.2636	0.8911	0.1342	-0.156
Mof_C 	C 	0.275	0.8349	0.2044	0.21
Mof_C 	C 	0.3973	0.8844	0.2579	-0.162
Mof_C 	C 	0.5123	0.9909	0.2389	-0.039
Mof_C 	C 	0.0992	0.7043	0.2998	-0.231
Mof_C 	C 	0.9375	0.6091	0.2963	0.497
Mof_C 	C 	0.1578	0.3596	0.9753	0.499
Mof_C 	C 	0.2719	0.3065	0.0147	-0.243
Mof_C 	C 	0.1305	0.1023	0.9913	0.137
Mof_C 	C 	0.0078	0.0992	0.0441	-0.084
Mof_C 	C 	0.1216	0.0028	0.9482	-0.099
Mof_C 	C 	0.7296	0.6953	0.5566	0.558
Mof_C 	C 	0.8759	0.8025	0.5725	-0.291
Mof_C 	C 	0.9952	0.9533	0.667	0.093
Mof_C 	C 	0.122	0.0031	0.6149	-0.048
Mof_C 	C 	0.2364	0.1089	0.6342	-0.152
Mof_C 	C 	0.225	0.1651	0.7044	0.206
Mof_C 	C 	0.1027	0.1156	0.7579	-0.153
Mof_C 	C 	0.9877	0.0091	0.7389	-0.049
Mof_C 	C 	0.4008	0.2957	0.7998	-0.229
Mof_C 	C 	0.5625	0.3909	0.7963	0.495
Mof_C 	C 	0.3422	0.6404	0.4753	0.494
Mof_C 	C 	0.2281	0.6935	0.5147	-0.237
Mof_C 	C 	0.3695	0.8977	0.4913	0.134
Mof_C 	C 	0.4922	0.9008	0.5441	-0.077
Mof_C 	C 	0.3784	0.9972	0.4482	-0.105
Mof_O 	O 	0.1572	0.6308	0.8861	-0.571
Mof_O 	O 	0.1979	0.6811	0.0165	-0.589
Mof_O 	O 	0.3742	0.8491	0.849	-0.149
Mof_O 	O 	0.8415	0.2738	0.7816	-0.338
Mof_O 	O 	0.1494	0.4	0.6431	-0.549
Mof_O 	O 	0.0951	0.4552	0.765	-0.564
Mof_O 	O 	0.8696	0.5578	0.9881	-0.677
Mof_O 	O 	0.9013	0.6751	0.0914	-0.503
Mof_O 	O 	0.7338	0.8027	0.0204	-0.173
Mof_O 	O 	0.3428	0.3692	0.3861	-0.572
Mof_O 	O 	0.3021	0.3189	0.5165	-0.588
Mof_O 	O 	0.1258	0.1509	0.349	-0.15
Mof_O 	O 	0.6585	0.7262	0.2816	-0.337
Mof_O 	O 	0.3506	0.6	0.1431	-0.549
Mof_O 	O 	0.4049	0.5448	0.265	-0.565
Mof_O 	O 	0.6304	0.4422	0.4881	-0.675
Mof_O 	O 	0.5987	0.3249	0.5914	-0.504
Mof_O 	O 	0.7662	0.1973	0.5204	-0.175
Mof_O 	O 	0.8428	0.3692	0.1139	-0.571
Mof_O 	O 	0.8021	0.3189	0.9835	-0.589
Mof_O 	O 	0.6258	0.1509	0.151	-0.149
Mof_O 	O 	0.1585	0.7262	0.2184	-0.338
Mof_O 	O 	0.8506	0.6	0.3569	-0.549
Mof_O 	O 	0.9049	0.5448	0.235	-0.564
Mof_O 	O 	0.1304	0.4422	0.0119	-0.677
Mof_O 	O 	0.0987	0.3249	0.9086	-0.503
Mof_O 	O 	0.2662	0.1973	0.9796	-0.173
Mof_O 	O 	0.6572	0.6308	0.6139	-0.572
Mof_O 	O 	0.6979	0.6811	0.4835	-0.588
Mof_O 	O 	0.8742	0.8491	0.651	-0.15
Mof_O 	O 	0.3415	0.2738	0.7184	-0.337
Mof_O 	O 	0.6494	0.4	0.8569	-0.549
Mof_O 	O 	0.5951	0.4552	0.735	-0.565
Mof_O 	O 	0.3696	0.5578	0.5119	-0.675
Mof_O 	O 	0.4013	0.6751	0.4086	-0.504
Mof_O 	O 	0.2338	0.8027	0.4796	-0.175
_end
