data_functionalizedCrystal
_audit_creation_method	'EQeq! by Chris Wilmer'
_symmetry_space_group_name_H-M	'P1'
_symmetry_Int_Tables_number	1
_symmetry_cell_setting	triclinic
loop_
_symmetry_equiv_pos_as_xyz
  x,y,z
_cell_length_a	9.5121
_cell_length_b	9.8819
_cell_length_c	12.1172
_cell_angle_alpha	70.533
_cell_angle_beta	73.473
_cell_angle_gamma	82.328
loop_
_atom_site_label
_atom_site_type_symbol
_atom_site_fract_x
_atom_site_fract_y
_atom_site_fract_z
_atom_site_charge
Mof_Mn	Mn	0.14671	0.30605	0.64121	0.783
Mof_Al	Al	0.2305	0.97474	0.43051	6.469
Mof_Al	Al	0.4836	0.52428	0.68064	6.304
Mof_Al	Al	0.93339	0.67164	0.85039	6.701
Mof_P 	P 	0.18823	0.42239	0.86757	1.53
Mof_P 	P 	0.03241	0.97995	0.68437	1.449
Mof_P 	P 	0.2456	0.30683	0.34084	1.518
Mof_P 	P 	0.53375	0.28318	0.56789	1.35
Mof_O 	O 	0.0855	0.5564	0.8526	-2.082
Mof_O 	O 	0.2945	0.1482	0.3653	-1.966
Mof_O 	O 	0.6229	0.1419	0.5998	-1.89
Mof_O 	O 	0.3458	0.4763	0.8134	-1.862
Mof_O 	O 	0.9968	0.8449	0.795	-1.926
Mof_O 	O 	0.158	0.3205	0.811	-0.706
Mof_O 	O 	0.8885	0.0443	0.6504	-1.908
Mof_O 	O 	0.1315	0.9293	0.5807	-2.053
Mof_O 	O 	0.1761	0.3503	0.0031	-1.942
Mof_O 	O 	0.3744	0.2627	0.5933	-0.758
Mof_O 	O 	0.1717	0.3506	0.2367	-2.024
Mof_O 	O 	0.5652	0.3736	0.6395	-1.856
Mof_O 	O 	0.5993	0.3619	0.4313	-1.896
Mof_O 	O 	0.1426	0.3358	0.4507	-0.764
Mof_O 	O 	0.3866	0.3913	0.2931	-1.869
Mof_O 	O 	0.1014	0.0851	0.7148	-0.602
Mof_Mn	Mn	0.85329	0.69395	0.35879	0.783
Mof_Al	Al	0.7695	0.02526	0.56949	6.469
Mof_Al	Al	0.5164	0.47572	0.31936	6.304
Mof_Al	Al	0.06661	0.32836	0.14961	6.701
Mof_P 	P 	0.81177	0.57761	0.13243	1.53
Mof_P 	P 	0.96759	0.02005	0.31563	1.449
Mof_P 	P 	0.7544	0.69317	0.65916	1.518
Mof_P 	P 	0.46625	0.71682	0.43211	1.35
Mof_O 	O 	0.9145	0.4436	0.1474	-2.082
Mof_O 	O 	0.7055	0.8518	0.6347	-1.966
Mof_O 	O 	0.3771	0.8581	0.4002	-1.89
Mof_O 	O 	0.6542	0.5237	0.1866	-1.862
Mof_O 	O 	0.0032	0.1551	0.205	-1.926
Mof_O 	O 	0.842	0.6795	0.189	-0.706
Mof_O 	O 	0.1115	0.9557	0.3496	-1.908
Mof_O 	O 	0.8685	0.0707	0.4193	-2.053
Mof_O 	O 	0.8239	0.6497	0.9969	-1.942
Mof_O 	O 	0.6256	0.7373	0.4067	-0.758
Mof_O 	O 	0.8283	0.6494	0.7633	-2.024
Mof_O 	O 	0.4348	0.6264	0.3605	-1.856
Mof_O 	O 	0.4007	0.6381	0.5687	-1.896
Mof_O 	O 	0.8574	0.6642	0.5493	-0.764
Mof_O 	O 	0.6134	0.6087	0.7069	-1.869
Mof_O 	O 	0.8986	0.9149	0.2852	-0.602
_end
