data_functionalizedCrystal
_audit_creation_method	'EQeq! by Chris Wilmer'
_symmetry_space_group_name_H-M	'P1'
_symmetry_Int_Tables_number	1
_symmetry_cell_setting	triclinic
loop_
_symmetry_equiv_pos_as_xyz
  x,y,z
_cell_length_a	7.5423
_cell_length_b	12.5387
_cell_length_c	13.6887
_cell_angle_alpha	90
_cell_angle_beta	105.991
_cell_angle_gamma	90
loop_
_atom_site_label
_atom_site_type_symbol
_atom_site_fract_x
_atom_site_fract_y
_atom_site_fract_z
_atom_site_charge
Mof_Ni	Ni	0.5	0.5	0.5	1.047
Mof_Ni	Ni	4.56773e-17	0.5	0.5	1.031
Mof_H 	H 	0.5429	0.735	0.6066	0.098
Mof_H 	H 	0.57	0.912	0.638	0.059
Mof_H 	H 	0.4571	0.735	0.3934	0.096
Mof_H 	H 	0.7815	0.5807	0.0912	0.056
Mof_H 	H 	0.43	0.912	0.362	0.065
Mof_H 	H 	0.0637	0.265	0.6066	0.07
Mof_H 	H 	0.068	0.088	0.638	0.005
Mof_H 	H 	0.9363	0.265	0.3934	0.125
Mof_H 	H 	0.3097	0.4193	0.0912	0.045
Mof_H 	H 	0.932	0.088	0.362	0.116
Mof_H 	H 	0.4571	0.265	0.3934	0.096
Mof_H 	H 	0.43	0.088	0.362	0.063
Mof_H 	H 	0.5429	0.265	0.6066	0.098
Mof_H 	H 	0.2185	0.4193	0.9088	0.045
Mof_H 	H 	0.57	0.088	0.638	0.059
Mof_H 	H 	0.9363	0.735	0.3934	0.125
Mof_H 	H 	0.932	0.912	0.362	0.118
Mof_H 	H 	0.0637	0.735	0.6066	0.07
Mof_H 	H 	0.6903	0.5807	0.9088	0.056
Mof_H 	H 	0.068	0.912	0.638	0.006
Mof_C 	C 	0.66013	0.9451	0.63746	-0.059
Mof_C 	C 	0.6682	0.5412	0.0536	-0.029
Mof_C 	C 	0.33987	0.9451	0.36254	-0.074
Mof_C 	C 	0.97733	0.0549	0.63746	0.007
Mof_C 	C 	0.3854	0.4588	0.0536	-0.032
Mof_C 	C 	0.02267	0.0549	0.36254	-0.132
Mof_C 	C 	0.33987	0.0549	0.36254	-0.069
Mof_C 	C 	0.3318	0.4588	0.9464	-0.044
Mof_C 	C 	0.66013	0.0549	0.63746	-0.057
Mof_C 	C 	0.02267	0.9451	0.36254	-0.137
Mof_C 	C 	0.6146	0.5412	0.9464	-0.04
Mof_C 	C 	0.97733	0.9451	0.63746	0.005
Mof_C 	C 	0.39128	0.5	0.78256	0.109
Mof_C 	C 	0.4473	0.5	0.8946	-0.005
Mof_C 	C 	0.60872	0.5	0.21744	0.113
Mof_C 	C 	0.5527	0.5	0.1054	-0.01
Mof_C 	C 	0.80771	0.7733	0.61542	0.136
Mof_C 	C 	0.81704	0.8879	0.63408	-0.028
Mof_C 	C 	0.19229	0.7733	0.38458	0.114
Mof_C 	C 	0.18296	0.8879	0.36592	0.012
Mof_C 	C 	0.80771	0.2267	0.61542	0.136
Mof_C 	C 	0.81704	0.1121	0.63408	-0.029
Mof_C 	C 	0.19229	0.2267	0.38458	0.116
Mof_C 	C 	0.18296	0.1121	0.36592	0.008
Mof_N 	N 	0.69608	0.61946	0.56796	-0.154
Mof_N 	N 	0.65246	0.71453	0.59872	-0.161
Mof_N 	N 	0.30392	0.61946	0.43204	-0.156
Mof_N 	N 	0.34754	0.71453	0.40128	-0.158
Mof_N 	N 	0.87188	0.38054	0.56796	-0.147
Mof_N 	N 	0.94626	0.28547	0.59872	-0.133
Mof_N 	N 	0.12812	0.38054	0.43204	-0.16
Mof_N 	N 	0.05374	0.28547	0.40128	-0.186
Mof_N 	N 	0.30392	0.38054	0.43204	-0.156
Mof_N 	N 	0.34754	0.28547	0.40128	-0.158
Mof_N 	N 	0.69608	0.38054	0.56796	-0.154
Mof_N 	N 	0.65246	0.28547	0.59872	-0.161
Mof_N 	N 	0.12812	0.61946	0.43204	-0.16
Mof_N 	N 	0.05374	0.71453	0.40128	-0.186
Mof_N 	N 	0.87188	0.61946	0.56796	-0.147
Mof_N 	N 	0.94626	0.71453	0.59872	-0.132
Mof_N 	N 	0.40294	0.5	0.62948	-0.167
Mof_N 	N 	0.50984	0.5	0.72508	-0.095
Mof_N 	N 	0.59706	0.5	0.37052	-0.167
Mof_N 	N 	0.49016	0.5	0.27492	-0.099
Mof_N 	N 	0.22654	0.5	0.62948	-0.171
Mof_N 	N 	0.21524	0.5	0.72508	-0.103
Mof_N 	N 	0.77346	0.5	0.37052	-0.159
Mof_N 	N 	0.78476	0.5	0.27492	-0.09
_end
