# CIF file generated by openbabel 3.1.0, see https://openbabel.org
data_I
_chemical_name_common 'image0'
_cell_length_a 8.3755
_cell_length_b 16.2549
_cell_length_c 17.0748
_cell_angle_alpha 90
_cell_angle_beta 101.168
_cell_angle_gamma 90
_space_group_name_H-M_alt 'P 1'
_space_group_name_Hall 'P 1'
loop_
    _symmetry_equiv_pos_as_xyz
    x,y,z
loop_
    _atom_site_label
    _atom_site_type_symbol
    _atom_site_fract_x
    _atom_site_fract_y
    _atom_site_fract_z
    _atom_site_occupancy
    C1       C        0.79350    0.88200    0.13560    1.000
    H1       H        0.89280    0.89700    0.12320    1.000
    C2       C        0.65710    0.92870    0.10700    1.000
    H2       H        0.66620    0.97490    0.07610    1.000
    C3       C        0.50870    0.90800    0.12360    1.000
    C4       C        0.49900    0.83750    0.16710    1.000
    H3       H        0.39980    0.81980    0.17780    1.000
    C5       C        0.64040    0.79360    0.19450    1.000
    H4       H        0.63340    0.74610    0.22400    1.000
    C6       C        0.36340    0.95970    0.09550    1.000
    C7       C        0.35100    0.04070    0.10970    1.000
    C8       C        0.48260    0.09580    0.15180    1.000
    C9       C        0.51990    0.16750    0.11810    1.000
    H5       H        0.45590    0.18650    0.07090    1.000
    C10      C        0.65410    0.21130    0.15520    1.000
    H6       H        0.67900    0.26010    0.13170    1.000
    C11      C        0.70960    0.11920    0.25770    1.000
    H7       H        0.77370    0.10230    0.30570    1.000
    C12      C        0.57640    0.07290    0.22500    1.000
    H8       H        0.54900    0.02660    0.25160    1.000
    C13      C        0.07440    0.00020    0.02230    1.000
    Fe1      Fe       0.01480    0.75026    0.23096    1.000
    N1       N        0.78580    0.81560    0.18090    1.000
    N2       N        0.75060    0.18740    0.22330    1.000
    N3       N        0.14270    0.86670    0.24390    1.000
    C14      C        0.17940    0.93160    0.26710    1.000
    C15      C        0.16390    0.06920    0.28400    1.000
    N4       N        0.11180    0.13450    0.27810    1.000
    N5       N        0.97350    0.76890    0.34880    1.000
    C16      C        0.98190    0.79000    0.41140    1.000
    C17      C        0.02810    0.79090    0.55000    1.000
    N6       N        0.05150    0.77040    0.61190    1.000
    N7       N        0.07000    0.82330    0.48330    1.000
    N8       N        0.24500    0.00080    0.29580    1.000
    S1       S        0.16408    0.08799    0.07218    1.000
    S2       S        0.19443    0.91090    0.03857    1.000
    N9       N        0.93700    0.81880    0.47680    1.000
    C18      C        0.20650    0.38200    0.36440    1.000
    H9       H        0.10720    0.39700    0.37680    1.000
    C19      C        0.34290    0.42870    0.39300    1.000
    H10      H        0.33380    0.47490    0.42390    1.000
    C20      C        0.49130    0.40800    0.37640    1.000
    C21      C        0.50100    0.33750    0.33290    1.000
    H11      H        0.60020    0.31980    0.32220    1.000
    C22      C        0.35960    0.29360    0.30550    1.000
    H12      H        0.36660    0.24610    0.27600    1.000
    C23      C        0.63660    0.45970    0.40450    1.000
    C24      C        0.64900    0.54070    0.39030    1.000
    C25      C        0.51740    0.59580    0.34820    1.000
    C26      C        0.48010    0.66750    0.38190    1.000
    H13      H        0.54410    0.68650    0.42910    1.000
    C27      C        0.34590    0.71130    0.34480    1.000
    H14      H        0.32100    0.76010    0.36830    1.000
    C28      C        0.29040    0.61920    0.24230    1.000
    H15      H        0.22630    0.60230    0.19430    1.000
    C29      C        0.42360    0.57290    0.27500    1.000
    H16      H        0.45100    0.52660    0.24840    1.000
    C30      C        0.92560    0.50020    0.47770    1.000
    Fe2      Fe       0.98520    0.25026    0.26904    1.000
    N10      N        0.21420    0.31560    0.31910    1.000
    N11      N        0.24940    0.68740    0.27670    1.000
    N12      N        0.85730    0.36670    0.25610    1.000
    C31      C        0.82060    0.43160    0.23290    1.000
    C32      C        0.83610    0.56920    0.21600    1.000
    N13      N        0.88820    0.63450    0.22190    1.000
    N14      N        0.02650    0.26890    0.15120    1.000
    C33      C        0.01810    0.29000    0.08860    1.000
    C34      C        0.97190    0.29090    0.95000    1.000
    N15      N        0.94850    0.27040    0.88810    1.000
    N16      N        0.93000    0.32330    0.01670    1.000
    N17      N        0.75500    0.50080    0.20420    1.000
    S3       S        0.83592    0.58799    0.42782    1.000
    S4       S        0.80557    0.41090    0.46143    1.000
    N18      N        0.06300    0.31880    0.02320    1.000
    C35      C        0.20650    0.11800    0.86440    1.000
    H17      H        0.10720    0.10300    0.87680    1.000
    C36      C        0.34290    0.07130    0.89300    1.000
    H18      H        0.33380    0.02510    0.92390    1.000
    C37      C        0.49130    0.09200    0.87640    1.000
    C38      C        0.50100    0.16250    0.83290    1.000
    H19      H        0.60020    0.18020    0.82220    1.000
    C39      C        0.35960    0.20640    0.80550    1.000
    H20      H        0.36660    0.25390    0.77600    1.000
    C40      C        0.63660    0.04030    0.90450    1.000
    C41      C        0.64900    0.95930    0.89030    1.000
    C42      C        0.51740    0.90420    0.84820    1.000
    C43      C        0.48010    0.83250    0.88190    1.000
    H21      H        0.54410    0.81350    0.92910    1.000
    C44      C        0.34590    0.78870    0.84480    1.000
    H22      H        0.32100    0.73990    0.86830    1.000
    C45      C        0.29040    0.88080    0.74230    1.000
    H23      H        0.22630    0.89770    0.69430    1.000
    C46      C        0.42360    0.92710    0.77500    1.000
    H24      H        0.45100    0.97340    0.74840    1.000
    C47      C        0.92560    0.99980    0.97770    1.000
    Fe3      Fe       0.98520    0.24974    0.76904    1.000
    N19      N        0.21420    0.18440    0.81910    1.000
    N20      N        0.24940    0.81260    0.77670    1.000
    N21      N        0.85730    0.13330    0.75610    1.000
    C48      C        0.82060    0.06840    0.73290    1.000
    C49      C        0.83610    0.93080    0.71600    1.000
    N22      N        0.88820    0.86550    0.72190    1.000
    N23      N        0.02650    0.23110    0.65120    1.000
    C50      C        0.01810    0.21000    0.58860    1.000
    C51      C        0.97190    0.20910    0.45000    1.000
    N24      N        0.94850    0.22960    0.38810    1.000
    N25      N        0.93000    0.17670    0.51670    1.000
    N26      N        0.75500    0.99920    0.70420    1.000
    S5       S        0.83592    0.91201    0.92782    1.000
    S6       S        0.80557    0.08910    0.96143    1.000
    N27      N        0.06300    0.18120    0.52320    1.000
    C52      C        0.79350    0.61800    0.63560    1.000
    H25      H        0.89280    0.60300    0.62320    1.000
    C53      C        0.65710    0.57130    0.60700    1.000
    H26      H        0.66620    0.52510    0.57610    1.000
    C54      C        0.50870    0.59200    0.62360    1.000
    C55      C        0.49900    0.66250    0.66710    1.000
    H27      H        0.39980    0.68020    0.67780    1.000
    C56      C        0.64040    0.70640    0.69450    1.000
    H28      H        0.63340    0.75390    0.72400    1.000
    C57      C        0.36340    0.54030    0.59550    1.000
    C58      C        0.35100    0.45930    0.60970    1.000
    C59      C        0.48260    0.40420    0.65180    1.000
    C60      C        0.51990    0.33250    0.61810    1.000
    H29      H        0.45590    0.31350    0.57090    1.000
    C61      C        0.65410    0.28870    0.65520    1.000
    H30      H        0.67900    0.23990    0.63170    1.000
    C62      C        0.70960    0.38080    0.75770    1.000
    H31      H        0.77370    0.39770    0.80570    1.000
    C63      C        0.57640    0.42710    0.72500    1.000
    H32      H        0.54900    0.47340    0.75160    1.000
    C64      C        0.07440    0.49980    0.52230    1.000
    Fe4      Fe       0.01480    0.74974    0.73096    1.000
    N28      N        0.78580    0.68440    0.68090    1.000
    N29      N        0.75060    0.31260    0.72330    1.000
    N30      N        0.14270    0.63330    0.74390    1.000
    C65      C        0.17940    0.56840    0.76710    1.000
    C66      C        0.16390    0.43080    0.78400    1.000
    N31      N        0.11180    0.36550    0.77810    1.000
    N32      N        0.97350    0.73110    0.84880    1.000
    C67      C        0.98190    0.71000    0.91140    1.000
    C68      C        0.02810    0.70910    0.05000    1.000
    N33      N        0.05150    0.72960    0.11190    1.000
    N34      N        0.07000    0.67670    0.98330    1.000
    N35      N        0.24500    0.49920    0.79580    1.000
    S7       S        0.16408    0.41201    0.57218    1.000
    S8       S        0.19443    0.58910    0.53857    1.000
    N36      N        0.93700    0.68120    0.97680    1.000
