# CIF file generated by openbabel 3.1.0, see https://openbabel.org
data_I
_chemical_name_common 'image0'
_cell_length_a 10.8761
_cell_length_b 11.4866
_cell_length_c 13.4225
_cell_angle_alpha 69.499
_cell_angle_beta 79.992
_cell_angle_gamma 62.506
_space_group_name_H-M_alt 'P 1'
_space_group_name_Hall 'P 1'
loop_
    _symmetry_equiv_pos_as_xyz
    x,y,z
loop_
    _atom_site_label
    _atom_site_type_symbol
    _atom_site_fract_x
    _atom_site_fract_y
    _atom_site_fract_z
    _atom_site_occupancy
    U1       U        0.63156    0.70286    0.83306    1.000
    Nd1      Nd       0.62063    0.21519    0.77498    1.000
    O1       O        0.85710    0.52830    0.90700    1.000
    O2       O        0.77420    0.48530    0.79430    1.000
    O3       O        0.85350    0.20740    0.76120    1.000
    O4       O        0.89830    0.35670    0.62270    1.000
    O5       O        0.42700    0.90950    0.82710    1.000
    O6       O        0.51700    0.05940    0.77600    1.000
    O7       O        0.47630    0.17600    0.93150    1.000
    O8       O        0.31210    0.21350    0.05440    1.000
    O9       O        0.50680    0.69150    0.71240    1.000
    O10      O        0.42520    0.70010    0.56980    1.000
    O11      O        0.73620    0.63140    0.53180    1.000
    O12      O        0.85750    0.75120    0.47730    1.000
    C1       C        0.00830    0.33710    0.84590    1.000
    C2       C        0.11720    0.31240    0.90480    1.000
    H1       H        0.09920    0.36290    0.95100    1.000
    C3       C        0.25070    0.21460    0.89570    1.000
    C4       C        0.27730    0.13450    0.82810    1.000
    C5       C        0.16600    0.15510    0.77480    1.000
    H2       H        0.18150    0.09840    0.73420    1.000
    C6       C        0.03270    0.25760    0.78010    1.000
    C7       C        0.62080    0.00200    0.45180    1.000
    H3       H        0.70360    0.00250    0.41980    1.000
    C8       C        0.61520    0.87550    0.50330    1.000
    C9       C        0.49230    0.87480    0.55280    1.000
    C10      C        0.87210    0.45550    0.85000    1.000
    C11      C        0.35690    0.19860    0.96220    1.000
    C12      C        0.41880    0.02970    0.80870    1.000
    C13      C        0.91910    0.27750    0.71700    1.000
    C14      C        0.47450    0.74580    0.61540    1.000
    C15      C        0.74260    0.74440    0.50560    1.000
    U2       U        0.36844    0.29714    0.16694    1.000
    Nd2      Nd       0.37937    0.78481    0.22502    1.000
    O13      O        0.14290    0.47170    0.09300    1.000
    O14      O        0.22580    0.51470    0.20570    1.000
    O15      O        0.14650    0.79260    0.23880    1.000
    O16      O        0.10170    0.64330    0.37730    1.000
    O17      O        0.57300    0.09050    0.17290    1.000
    O18      O        0.48300    0.94060    0.22400    1.000
    O19      O        0.52370    0.82400    0.06850    1.000
    O20      O        0.68790    0.78650    0.94560    1.000
    O21      O        0.49320    0.30850    0.28760    1.000
    O22      O        0.57480    0.29990    0.43020    1.000
    O23      O        0.26380    0.36860    0.46820    1.000
    O24      O        0.14250    0.24880    0.52270    1.000
    C16      C        0.99170    0.66290    0.15410    1.000
    C17      C        0.88280    0.68760    0.09520    1.000
    H4       H        0.90080    0.63710    0.04900    1.000
    C18      C        0.74930    0.78540    0.10430    1.000
    C19      C        0.72270    0.86550    0.17190    1.000
    C20      C        0.83400    0.84490    0.22520    1.000
    H5       H        0.81850    0.90160    0.26580    1.000
    C21      C        0.96730    0.74240    0.21990    1.000
    C22      C        0.37920    0.99800    0.54820    1.000
    H6       H        0.29640    0.99750    0.58020    1.000
    C23      C        0.38480    0.12450    0.49670    1.000
    C24      C        0.50770    0.12520    0.44720    1.000
    C25      C        0.12790    0.54450    0.15000    1.000
    C26      C        0.64310    0.80140    0.03780    1.000
    C27      C        0.58120    0.97030    0.19130    1.000
    C28      C        0.08090    0.72250    0.28300    1.000
    C29      C        0.52550    0.25420    0.38460    1.000
    C30      C        0.25740    0.25560    0.49440    1.000
    U3       U        0.00000    0.50000    0.50000    1.000
