data_functionalizedCrystal
_audit_creation_method	'EQeq! by Chris Wilmer'
_symmetry_space_group_name_H-M	'P1'
_symmetry_Int_Tables_number	1
_symmetry_cell_setting	triclinic
loop_
_symmetry_equiv_pos_as_xyz
  x,y,z
_cell_length_a	18.4966
_cell_length_b	18.466
_cell_length_c	35.3859
_cell_angle_alpha	89.5895
_cell_angle_beta	90.274
_cell_angle_gamma	120.097
loop_
_atom_site_label
_atom_site_type_symbol
_atom_site_fract_x
_atom_site_fract_y
_atom_site_fract_z
_atom_site_charge
Mof_C 	C 	0.29239	0.13915	0.21345	-0.029
Mof_C 	C 	0.26826	0.19332	0.22924	0.023
Mof_C 	C 	0.22175	0.17114	0.26309	-0.11
Mof_C 	C 	0.19753	0.09303	0.27999	0.06
Mof_C 	C 	0.21895	0.03739	0.26359	-0.106
Mof_C 	C 	0.26768	0.06178	0.23078	0.026
Mof_H 	H 	0.28725	0.253	0.21568	0.041
Mof_H 	H 	0.15987	0.07444	0.3054	0.045
Mof_H 	H 	0.28555	0.01974	0.21815	0.051
Mof_C 	C 	0.87745	0.43209	0.5295	-0.03
Mof_C 	C 	0.86944	0.49272	0.5496	0.027
Mof_C 	C 	0.85786	0.48643	0.58882	-0.112
Mof_C 	C 	0.85409	0.41774	0.608	0.06
Mof_C 	C 	0.86171	0.35584	0.58828	-0.109
Mof_C 	C 	0.87549	0.36465	0.54893	0.022
Mof_H 	H 	0.86993	0.544	0.53427	0.051
Mof_H 	H 	0.84239	0.41102	0.63814	0.046
Mof_H 	H 	0.87903	0.31656	0.53306	0.043
Mof_C 	C 	0.62002	0.80191	0.87907	-0.03
Mof_C 	C 	0.59456	0.72455	0.89665	0.028
Mof_C 	C 	0.54343	0.69985	0.92872	-0.11
Mof_C 	C 	0.51996	0.75504	0.94389	0.061
Mof_C 	C 	0.545	0.83312	0.92666	-0.11
Mof_C 	C 	0.59394	0.85553	0.89364	0.023
Mof_H 	H 	0.61435	0.68313	0.88501	0.051
Mof_H 	H 	0.48087	0.7365	0.96885	0.048
Mof_H 	H 	0.61407	0.91542	0.88005	0.042
Mof_C 	C 	0.85058	0.10829	0.19898	-0.03
Mof_C 	C 	0.7845	0.04139	0.21823	0.029
Mof_C 	C 	0.79016	0.03137	0.25748	-0.104
Mof_C 	C 	0.86103	0.09156	0.27729	0.056
Mof_C 	C 	0.92669	0.15952	0.25828	-0.099
Mof_C 	C 	0.92062	0.16714	0.21916	0.024
Mof_H 	H 	0.73181	0.99448	0.20228	0.036
Mof_H 	H 	0.86665	0.08382	0.30734	0.05
Mof_H 	H 	0.97191	0.21795	0.20394	0.053
Mof_C 	C 	0.47483	0.47964	0.55053	-0.032
Mof_C 	C 	0.42226	0.3993	0.56532	0.024
Mof_C 	C 	0.44535	0.37279	0.59837	-0.113
Mof_C 	C 	0.52287	0.4266	0.61545	0.062
Mof_C 	C 	0.57708	0.50576	0.59992	-0.115
Mof_C 	C 	0.55167	0.5323	0.56797	0.029
Mof_H 	H 	0.36304	0.35863	0.55163	0.041
Mof_H 	H 	0.54226	0.40579	0.6402	0.044
Mof_H 	H 	0.59278	0.59367	0.55595	0.049
Mof_C 	C 	0.17326	0.76911	0.86714	0.053
Mof_C 	C 	0.11134	0.7024	0.88797	-0.001
Mof_C 	C 	0.1196	0.69502	0.92708	-0.114
Mof_C 	C 	0.19073	0.7586	0.94548	0.055
Mof_C 	C 	0.25279	0.82767	0.92505	-0.097
Mof_C 	C 	0.24276	0.83288	0.88577	-0.011
Mof_H 	H 	0.05871	0.65343	0.87274	0.059
Mof_H 	H 	0.19936	0.75299	0.97544	0.049
Mof_H 	H 	0.29147	0.88304	0.86921	0.054
Mof_C 	C 	0.83909	0.73008	0.19961	-0.033
Mof_C 	C 	0.90835	0.7345	0.21807	0.028
Mof_C 	C 	0.9194	0.7499	0.25723	-0.119
Mof_C 	C 	0.85811	0.757	0.27782	0.065
Mof_C 	C 	0.78762	0.75074	0.25958	-0.116
Mof_C 	C 	0.77887	0.73697	0.22052	0.029
Mof_H 	H 	0.95597	0.73156	0.20154	0.042
Mof_H 	H 	0.86681	0.77067	0.30775	0.045
Mof_H 	H 	0.72632	0.73483	0.20578	0.048
Mof_C 	C 	0.50502	0.0596	0.5344	-0.029
Mof_C 	C 	0.57181	0.05983	0.55339	0.021
Mof_C 	C 	0.5829	0.07571	0.59257	-0.11
Mof_C 	C 	0.52373	0.08737	0.61264	0.059
Mof_C 	C 	0.4556	0.08528	0.59387	-0.112
Mof_C 	C 	0.44707	0.07112	0.55484	0.026
Mof_H 	H 	0.61802	0.05372	0.5372	0.044
Mof_H 	H 	0.53246	0.10139	0.64254	0.044
Mof_H 	H 	0.3962	0.07172	0.53978	0.051
Mof_C 	C 	0.1675	0.38993	0.86763	-0.029
Mof_C 	C 	0.10862	0.39986	0.88815	0.024
Mof_C 	C 	0.11789	0.41537	0.92706	-0.106
Mof_C 	C 	0.18743	0.4202	0.94563	0.058
Mof_C 	C 	0.24746	0.41022	0.9255	-0.108
Mof_C 	C 	0.23589	0.39312	0.88643	0.021
Mof_H 	H 	0.05675	0.39869	0.8732	0.049
Mof_H 	H 	0.19656	0.43521	0.97544	0.048
Mof_H 	H 	0.28272	0.38819	0.87017	0.043
Mof_C 	C 	0.11891	0.29088	0.73509	0.048
Mof_C 	C 	0.17276	0.26494	0.72074	-0.007
Mof_C 	C 	0.15276	0.21915	0.68687	-0.104
Mof_C 	C 	0.07736	0.19833	0.66811	0.064
Mof_C 	C 	0.02119	0.22088	0.68313	-0.139
Mof_C 	C 	0.04351	0.26802	0.71648	0.009
Mof_H 	H 	0.23092	0.28267	0.73527	0.053
Mof_H 	H 	0.06123	0.16212	0.64233	0.041
Mof_H 	H 	0.00208	0.28738	0.72845	0.056
Mof_C 	C 	0.7895	0.63143	0.06744	0.064
Mof_C 	C 	0.84352	0.60581	0.0529	-0.026
Mof_C 	C 	0.82184	0.55739	0.0198	-0.073
Mof_C 	C 	0.74434	0.53275	0.00232	-0.001
Mof_C 	C 	0.68889	0.55583	0.01744	-0.074
Mof_C 	C 	0.71273	0.60619	0.04966	-0.022
Mof_H 	H 	0.90289	0.62561	0.0667	0.057
Mof_H 	H 	0.7263	0.49399	0.97731	0.075
Mof_H 	H 	0.67102	0.62537	0.06144	0.063
Mof_C 	C 	0.45672	0.96092	0.40194	0.051
Mof_C 	C 	0.37941	0.93455	0.38444	-0.007
Mof_C 	C 	0.35659	0.88594	0.35166	-0.099
Mof_C 	C 	0.41338	0.86554	0.33582	0.048
Mof_C 	C 	0.49134	0.89121	0.35301	-0.097
Mof_C 	C 	0.51217	0.93805	0.3866	-0.011
Mof_H 	H 	0.33683	0.95204	0.39672	0.059
Mof_H 	H 	0.39609	0.82817	0.31038	0.046
Mof_H 	H 	0.5719	0.95867	0.40021	0.053
Mof_C 	C 	0.13079	0.81418	0.73277	-0.036
Mof_C 	C 	0.18219	0.89541	0.71864	0.027
Mof_C 	C 	0.16046	0.92116	0.68496	-0.124
Mof_C 	C 	0.08529	0.86552	0.66651	0.068
Mof_C 	C 	0.03217	0.78529	0.68128	-0.131
Mof_C 	C 	0.05647	0.75969	0.71391	0.034
Mof_H 	H 	0.23952	0.93747	0.73337	0.038
Mof_H 	H 	0.06671	0.88564	0.64128	0.038
Mof_H 	H 	0.01606	0.69765	0.72545	0.046
Mof_C 	C 	0.79728	0.15876	0.06714	0.06
Mof_C 	C 	0.84875	0.23711	0.0505	-0.011
Mof_C 	C 	0.8245	0.26155	0.01742	-0.097
Mof_C 	C 	0.74722	0.20492	0.00078	0.01
Mof_C 	C 	0.69353	0.1267	0.01771	-0.076
Mof_C 	C 	0.71891	0.1043	0.05128	-0.022
Mof_H 	H 	0.90855	0.27871	0.06355	0.062
Mof_H 	H 	0.72746	0.22268	0.97519	0.072
Mof_H 	H 	0.67926	0.04401	0.06451	0.058
Mof_C 	C 	0.42992	0.52857	0.41734	0.056
Mof_C 	C 	0.4911	0.59639	0.39667	-0.009
Mof_C 	C 	0.48469	0.60135	0.35739	-0.097
Mof_C 	C 	0.41584	0.53636	0.33869	0.047
Mof_C 	C 	0.3536	0.46736	0.35898	-0.095
Mof_C 	C 	0.36211	0.46311	0.39842	-0.013
Mof_H 	H 	0.54232	0.6472	0.41175	0.062
Mof_H 	H 	0.40907	0.54115	0.3085	0.047
Mof_H 	H 	0.31365	0.4122	0.41475	0.054
Mof_C 	C 	0.72626	0.85393	0.7479	0.05
Mof_C 	C 	0.73663	0.79463	0.728	-0.004
Mof_C 	C 	0.75095	0.80221	0.68903	-0.102
Mof_C 	C 	0.7548	0.87083	0.66976	0.061
Mof_C 	C 	0.74483	0.93189	0.68917	-0.128
Mof_C 	C 	0.72817	0.92133	0.72842	0.001
Mof_H 	H 	0.73578	0.74336	0.74346	0.062
Mof_H 	H 	0.76825	0.87787	0.63975	0.044
Mof_H 	H 	0.7223	0.96796	0.7444	0.051
Mof_C 	C 	0.38382	0.18342	0.07969	0.058
Mof_C 	C 	0.39259	0.12374	0.05925	-0.018
Mof_C 	C 	0.40704	0.13213	0.02021	-0.079
Mof_C 	C 	0.41225	0.20189	0.00144	0.008
Mof_C 	C 	0.40338	0.26304	0.02143	-0.096
Mof_C 	C 	0.38659	0.25159	0.06066	-0.015
Mof_H 	H 	0.39152	0.07209	0.07446	0.063
Mof_H 	H 	0.42635	0.20994	0.9715	0.071
Mof_H 	H 	0.38219	0.29856	0.07705	0.055
Mof_C 	C 	0.97743	0.48156	0.39745	0.095
Mof_C 	C 	0.0015	0.55851	0.37984	-0.047
Mof_C 	C 	0.05332	0.5844	0.34802	-0.082
Mof_C 	C 	0.07901	0.53083	0.33302	0.034
Mof_C 	C 	0.05578	0.45331	0.35035	-0.08
Mof_C 	C 	0.0057	0.42952	0.38308	-0.052
Mof_H 	H 	0.98049	0.59888	0.39152	0.078
Mof_H 	H 	0.11915	0.55065	0.30839	0.049
Mof_H 	H 	0.98707	0.37016	0.39687	0.071
Mof_O 	O 	0.07659	0.4672	0.97954	-0.4
Mof_O 	O 	0.9403	0.53795	0.02199	-0.406
Mof_O 	O 	0.94021	0.39542	0.01968	-0.41
Mof_O 	O 	0.07572	0.60656	0.97962	-0.403
Mof_O 	O 	0.99837	0.56598	0.92808	-0.403
Mof_O 	O 	0.8591	0.35919	0.96937	-0.391
Mof_O 	O 	0.86392	0.50138	0.97008	-0.389
Mof_O 	O 	0.99537	0.42609	0.92911	-0.399
Mof_Cu	Cu	0.01537	0.50548	0.00566	0.917
Mof_Cu	Cu	0.92115	0.45955	0.94417	0.943
Mof_C 	C 	0.05988	0.436	0.94657	0.359
Mof_C 	C 	0.87857	0.53142	0.00321	0.331
Mof_C 	C 	0.87637	0.34122	0.00158	0.348
Mof_C 	C 	0.06212	0.62083	0.94587	0.37
Mof_O 	O 	0.74476	0.79981	0.31257	-0.412
Mof_O 	O 	0.61224	0.87597	0.3542	-0.412
Mof_O 	O 	0.60878	0.73421	0.35456	-0.415
Mof_O 	O 	0.74389	0.93895	0.31033	-0.416
Mof_O 	O 	0.66454	0.8985	0.25931	-0.412
Mof_O 	O 	0.52869	0.69263	0.3038	-0.413
Mof_O 	O 	0.53269	0.83441	0.30326	-0.417
Mof_O 	O 	0.66404	0.75934	0.26201	-0.418
Mof_Cu	Cu	0.6853	0.84104	0.33808	0.938
Mof_Cu	Cu	0.58932	0.79195	0.27708	0.939
Mof_C 	C 	0.72854	0.76934	0.27947	0.376
Mof_C 	C 	0.54884	0.86675	0.33597	0.369
Mof_C 	C 	0.54436	0.67917	0.33727	0.37
Mof_C 	C 	0.72884	0.95307	0.27684	0.367
Mof_O 	O 	0.27213	0.20086	0.68934	-0.411
Mof_O 	O 	0.41162	0.13343	0.64696	-0.411
Mof_O 	O 	0.40653	0.27121	0.64742	-0.416
Mof_O 	O 	0.27583	0.06071	0.68819	-0.416
Mof_O 	O 	0.19886	0.02364	0.63645	-0.418
Mof_O 	O 	0.32826	0.23437	0.59605	-0.414
Mof_O 	O 	0.33393	0.09743	0.59546	-0.417
Mof_O 	O 	0.19502	0.16202	0.63764	-0.418
Mof_Cu	Cu	0.34906	0.17024	0.67329	0.937
Mof_Cu	Cu	0.25609	0.12517	0.61134	0.941
Mof_C 	C 	0.20969	0.19291	0.6706	0.371
Mof_C 	C 	0.39719	0.10548	0.61339	0.374
Mof_C 	C 	0.39038	0.28872	0.61476	0.375
Mof_C 	C 	0.2146	0.00601	0.66912	0.383
Mof_O 	O 	0.34188	0.45713	0.97761	-0.405
Mof_O 	O 	0.55107	0.53477	0.01843	-0.411
Mof_O 	O 	0.48007	0.59943	0.97829	-0.402
Mof_O 	O 	0.41235	0.39307	0.0215	-0.416
Mof_O 	O 	0.44704	0.35267	0.96961	-0.392
Mof_O 	O 	0.52266	0.56172	0.9279	-0.411
Mof_O 	O 	0.58859	0.49175	0.96811	-0.386
Mof_O 	O 	0.38159	0.4213	0.92578	-0.413
Mof_Cu	Cu	0.44172	0.4992	0.00412	0.925
Mof_Cu	Cu	0.48809	0.45234	0.94268	0.939
Mof_C 	C 	0.32697	0.429	0.94408	0.373
Mof_C 	C 	0.60556	0.52623	0.00036	0.33
Mof_C 	C 	0.51412	0.61633	0.9459	0.374
Mof_C 	C 	0.42015	0.33815	0.00343	0.346
Mof_O 	O 	0.19591	0.89873	0.26088	-0.417
Mof_O 	O 	0.11601	0.68622	0.29899	-0.414
Mof_O 	O 	0.05345	0.7604	0.25756	-0.429
Mof_O 	O 	0.25837	0.82566	0.30129	-0.414
Mof_O 	O 	0.21823	0.86344	0.35245	-0.415
Mof_O 	O 	0.01316	0.79574	0.30939	-0.431
Mof_O 	O 	0.07592	0.72281	0.35052	-0.415
Mof_O 	O 	0.15398	0.93464	0.31207	-0.415
Mof_Cu	Cu	0.15967	0.7887	0.2745	0.938
Mof_Cu	Cu	0.1111	0.83221	0.3364	0.94
Mof_C 	C 	0.18843	0.95291	0.27977	0.368
Mof_C 	C 	0.08284	0.66845	0.33156	0.363
Mof_C 	C 	0.99881	0.76843	0.27576	0.402
Mof_C 	C 	0.27367	0.85686	0.33423	0.37
Mof_O 	O 	0.67774	0.12212	0.64449	-0.414
Mof_O 	O 	0.88888	0.2049	0.68369	-0.418
Mof_O 	O 	0.8149	0.26346	0.64127	-0.412
Mof_O 	O 	0.75226	0.0614	0.68795	-0.416
Mof_O 	O 	0.78492	0.01833	0.63631	-0.417
Mof_O 	O 	0.85541	0.22344	0.59095	-0.411
Mof_O 	O 	0.92516	0.15849	0.63427	-0.416
Mof_O 	O 	0.71598	0.08408	0.59286	-0.413
Mof_Cu	Cu	0.77936	0.16652	0.66948	0.94
Mof_Cu	Cu	0.82396	0.11653	0.60861	0.938
Mof_C 	C 	0.66199	0.09296	0.61116	0.373
Mof_C 	C 	0.94287	0.19448	0.66625	0.402
Mof_C 	C 	0.84464	0.27768	0.60799	0.372
Mof_C 	C 	0.75979	0.0057	0.6704	0.393
Mof_O 	O 	0.5284	0.95349	0.92513	-0.413
Mof_O 	O 	0.45463	0.08788	0.96711	-0.386
Mof_O 	O 	0.59412	0.08655	0.96776	-0.387
Mof_O 	O 	0.38707	0.95122	0.92531	-0.414
Mof_O 	O 	0.34769	0.87369	0.97705	-0.404
Mof_O 	O 	0.55654	0.00657	0.01876	-0.405
Mof_O 	O 	0.41819	0.00954	0.01857	-0.412
Mof_O 	O 	0.48734	0.87395	0.97627	-0.407
Mof_Cu	Cu	0.4946	0.02773	0.94118	0.94
Mof_Cu	Cu	0.44816	0.93309	0.00278	0.923
Mof_C 	C 	0.51937	0.89001	0.94346	0.374
Mof_C 	C 	0.42633	0.07304	0.00065	0.332
Mof_C 	C 	0.61082	0.07009	0.00052	0.331
Mof_C 	C 	0.33254	0.88794	0.94361	0.368
Mof_O 	O 	0.20372	0.29017	0.26188	-0.415
Mof_O 	O 	0.12074	0.41672	0.30223	-0.415
Mof_O 	O 	0.2624	0.42081	0.30593	-0.416
Mof_O 	O 	0.06043	0.28252	0.2607	-0.416
Mof_O 	O 	0.01791	0.20243	0.31165	-0.415
Mof_O 	O 	0.22068	0.34185	0.35722	-0.413
Mof_O 	O 	0.07775	0.33653	0.35314	-0.413
Mof_O 	O 	0.16143	0.20989	0.31277	-0.415
Mof_Cu	Cu	0.16602	0.36068	0.27766	0.939
Mof_Cu	Cu	0.11573	0.26465	0.33885	0.937
Mof_C 	C 	0.19503	0.22698	0.28018	0.374
Mof_C 	C 	0.08577	0.39914	0.33445	0.362
Mof_C 	C 	0.27555	0.40618	0.33964	0.369
Mof_C 	C 	0.00504	0.21816	0.2781	0.362
Mof_O 	O 	0.79538	0.75629	0.63579	-0.413
Mof_O 	O 	0.85152	0.61195	0.59111	-0.414
Mof_O 	O 	0.71609	0.62033	0.59629	-0.415
Mof_O 	O 	0.93051	0.7478	0.6324	-0.415
Mof_O 	O 	0.89456	0.6684	0.68357	-0.416
Mof_O 	O 	0.68049	0.54136	0.64761	-0.415
Mof_O 	O 	0.81592	0.53351	0.64257	-0.412
Mof_O 	O 	0.75992	0.67806	0.68732	-0.412
Mof_Cu	Cu	0.82719	0.69167	0.60861	0.94
Mof_Cu	Cu	0.78428	0.59766	0.67049	0.94
Mof_C 	C 	0.7688	0.74216	0.66956	0.371
Mof_C 	C 	0.84195	0.54743	0.60868	0.375
Mof_C 	C 	0.66183	0.55881	0.61558	0.377
Mof_C 	C 	0.94867	0.73065	0.66465	0.39
Mof_N 	N 	0.12064	0.40237	0.77124	-0.041
Mof_N 	N 	0.1324	0.42996	0.80632	-0.077
Mof_C 	C 	0.16035	0.38625	0.82613	0.065
Mof_C 	C 	0.16615	0.33098	0.80183	-0.001
Mof_N 	N 	0.1402	0.34292	0.76787	-0.084
Mof_H 	H 	0.17992	0.282	0.80884	0.04
Mof_N 	N 	0.45816	0.07232	0.43799	-0.039
Mof_N 	N 	0.46982	0.09979	0.47311	-0.077
Mof_C 	C 	0.49819	0.05637	0.49286	0.063
Mof_C 	C 	0.50442	0.00147	0.46849	0.009
Mof_N 	N 	0.47833	0.01334	0.43456	-0.083
Mof_H 	H 	0.51839	0.95261	0.47545	0.034
Mof_N 	N 	0.79027	0.74248	0.10357	-0.042
Mof_N 	N 	0.80219	0.76994	0.13869	-0.079
Mof_C 	C 	0.83187	0.72733	0.15816	0.067
Mof_C 	C 	0.83858	0.67299	0.13367	-0.001
Mof_N 	N 	0.81147	0.68428	0.09991	-0.087
Mof_H 	H 	0.85336	0.62463	0.14049	0.04
Mof_N 	N 	0.1436	0.69382	0.80821	-0.04
Mof_N 	N 	0.13243	0.70363	0.77205	-0.078
Mof_C 	C 	0.15197	0.78391	0.76732	0.067
Mof_C 	C 	0.17599	0.82353	0.80197	-0.002
Mof_N 	N 	0.16926	0.76466	0.82671	-0.085
Mof_H 	H 	0.18876	0.88576	0.80912	0.039
Mof_N 	N 	0.46008	0.60229	0.47679	-0.042
Mof_N 	N 	0.47192	0.59137	0.51274	-0.079
Mof_C 	C 	0.45212	0.51087	0.5168	0.066
Mof_C 	C 	0.42736	0.47233	0.48197	-0.001
Mof_N 	N 	0.43378	0.53194	0.45779	-0.085
Mof_H 	H 	0.41471	0.41041	0.47428	0.041
Mof_N 	N 	0.9065	0.1529	0.10233	-0.04
Mof_N 	N 	0.92322	0.14072	0.13736	-0.077
Mof_C 	C 	0.85259	0.11431	0.15747	0.068
Mof_C 	C 	0.79126	0.10991	0.13348	0
Mof_N 	N 	0.82789	0.13494	0.09935	-0.086
Mof_H 	H 	0.72954	0.09817	0.14083	0.042
Mof_N 	N 	0.76428	0.82153	0.80859	-0.04
Mof_N 	N 	0.7378	0.80719	0.84393	-0.076
Mof_C 	C 	0.67611	0.82558	0.8463	0.067
Mof_C 	C 	0.66563	0.85219	0.81108	-0
Mof_N 	N 	0.72175	0.84819	0.78835	-0.084
Mof_H 	H 	0.61694	0.86477	0.80209	0.039
Mof_N 	N 	0.86288	0.47546	0.43281	-0.039
Mof_N 	N 	0.83494	0.46344	0.4679	-0.077
Mof_C 	C 	0.87973	0.4372	0.48795	0.066
Mof_C 	C 	0.93603	0.43281	0.46384	0.002
Mof_N 	N 	0.92354	0.45764	0.4297	-0.09
Mof_H 	H 	0.98639	0.42142	0.47114	0.041
Mof_N 	N 	0.42747	0.15333	0.1395	-0.042
Mof_N 	N 	0.40566	0.14206	0.17549	-0.078
Mof_C 	C 	0.34483	0.16134	0.17937	0.065
Mof_C 	C 	0.32989	0.18513	0.1443	-0.001
Mof_N 	N 	0.38265	0.17868	0.12021	-0.086
Mof_H 	H 	0.28052	0.19762	0.13647	0.039
_end
