# CIF file generated by openbabel 3.1.0, see https://openbabel.org
data_I
_chemical_name_common 'image0'
_cell_length_a 11.665
_cell_length_b 13.915
_cell_length_c 17.343
_cell_angle_alpha 95.514
_cell_angle_beta 99.792
_cell_angle_gamma 101.313
_space_group_name_H-M_alt 'P 1'
_space_group_name_Hall 'P 1'
loop_
    _symmetry_equiv_pos_as_xyz
    x,y,z
loop_
    _atom_site_label
    _atom_site_type_symbol
    _atom_site_fract_x
    _atom_site_fract_y
    _atom_site_fract_z
    _atom_site_occupancy
    Ce1      Ce       0.84883    0.06065    0.00409    1.000
    O1       O        0.70350    0.07890    0.08640    1.000
    O2       O        0.33160    0.93820    0.09120    1.000
    O3       O        0.97570    0.13320    0.92010    1.000
    O4       O        0.66530    0.90150    0.99360    1.000
    O5       O        0.89220    0.92850    0.92500    1.000
    O6       O        0.10840    0.04620    0.89830    1.000
    O7       O        0.99820    0.82330    0.89140    1.000
    N1       N        0.12340    0.39110    0.52160    1.000
    N2       N        0.17580    0.51810    0.40450    1.000
    N3       N        0.34020    0.49910    0.62430    1.000
    N4       N        0.39030    0.63000    0.50800    1.000
    C1       C        0.09790    0.18110    0.82910    1.000
    C2       C        0.61310    0.70070    0.70010    1.000
    C3       C        0.90190    0.85600    0.88180    1.000
    C4       C        0.38230    0.83920    0.19130    1.000
    C5       C        0.21790    0.58080    0.35420    1.000
    C6       C        0.80490    0.80340    0.81570    1.000
    C7       C        0.16590    0.29920    0.71940    1.000
    C8       C        0.07960    0.45380    0.36100    1.000
    C9       C        0.28160    0.83550    0.22200    1.000
    H1       H        0.22490    0.87210    0.20230    1.000
    C10      C        0.05560    0.11520    0.88650    1.000
    C11      C        0.60890    0.79140    0.73990    1.000
    H2       H        0.54040    0.81840    0.72710    1.000
    C12      C        0.04540    0.25800    0.81360    1.000
    H3       H        0.98410    0.27060    0.84030    1.000
    C13      C        0.29960    0.43550    0.67340    1.000
    C14      C        0.92820    0.21750    0.29730    1.000
    H4       H        0.99690    0.19540    0.31980    1.000
    C15      C        0.70380    0.84250    0.79790    1.000
    H5       H        0.70000    0.90390    0.82540    1.000
    C16      C        0.37850    0.45930    0.75120    1.000
    H6       H        0.37050    0.42620    0.79610    1.000
    C17      C        0.34190    0.72220    0.31000    1.000
    C18      C        0.05910    0.47410    0.27980    1.000
    H7       H        0.99690    0.43920    0.23800    1.000
    C19      C        0.50690    0.64140    0.64150    1.000
    C20      C        0.40760    0.90020    0.12850    1.000
    C21      C        0.00950    0.37460    0.38630    1.000
    C22      C        0.26160    0.77820    0.28200    1.000
    H8       H        0.19220    0.77750    0.30390    1.000
    C23      C        0.46340    0.53640    0.74670    1.000
    H9       H        0.52770    0.56920    0.78790    1.000
    C24      C        0.11500    0.34050    0.58520    1.000
    C25      C        0.14560    0.55220    0.27540    1.000
    H10      H        0.15710    0.58250    0.22970    1.000
    C26      C        0.19720    0.36260    0.65670    1.000
    C27      C        0.84520    0.15730    0.23460    1.000
    H11      H        0.85850    0.09590    0.21320    1.000
    C28      C        0.44010    0.56080    0.66810    1.000
    C29      C        0.46180    0.78380    0.21940    1.000
    H12      H        0.53210    0.78600    0.19830    1.000
    C30      C        0.50120    0.75830    0.46590    1.000
    H13      H        0.52910    0.80510    0.43320    1.000
    C31      C        0.91160    0.30760    0.32630    1.000
    C32      C        0.74540    0.18870    0.20530    1.000
    C33      C        0.80940    0.71780    0.77510    1.000
    H14      H        0.87940    0.69240    0.78660    1.000
    C34      C        0.31640    0.65860    0.37260    1.000
    C35      C        0.21800    0.22130    0.73430    1.000
    H15      H        0.27790    0.20790    0.70660    1.000
    C36      C        0.71560    0.66470    0.71670    1.000
    H16      H        0.72190    0.60450    0.68850    1.000
    C37      C        0.44130    0.72430    0.27840    1.000
    H17      H        0.49650    0.68550    0.29640    1.000
    C38      C        0.01070    0.26620    0.56530    1.000
    H18      H        0.98230    0.22140    0.59930    1.000
    C39      C        0.39640    0.68020    0.44350    1.000
    C40      C        0.48480    0.67350    0.56760    1.000
    C41      C        0.02800    0.34760    0.46150    1.000
    C42      C        0.55320    0.75420    0.54050    1.000
    H19      H        0.62350    0.79780    0.56980    1.000
    C43      C        0.18350    0.16200    0.78960    1.000
    H20      H        0.21980    0.10800    0.79990    1.000
    C44      C        0.72460    0.27550    0.23700    1.000
    H21      H        0.65110    0.29310    0.21850    1.000
    C45      C        0.80960    0.33940    0.29650    1.000
    H22      H        0.79770    0.40230    0.31560    1.000
    C46      C        0.08090    0.31780    0.75920    1.000
    H23      H        0.04540    0.37250    0.74960    1.000
    C47      C        0.95710    0.26820    0.49060    1.000
    H24      H        0.88570    0.22510    0.46250    1.000
    C48      C        0.66380    0.12980    0.13480    1.000
    O8       O        0.55150    0.10150    0.14200    1.000
    O9       O        0.48600    0.80960    0.00120    1.000
    C49      C        0.59500    0.81800    0.99050    1.000
    C50      C        0.73840    0.71090    0.96440    1.000
    C51      C        0.76100    0.61900    0.94180    1.000
    C52      C        0.67410    0.53370    0.93790    1.000
    C53      C        0.56440    0.54030    0.95670    1.000
    C54      C        0.54180    0.63230    0.97930    1.000
    C55      C        0.62880    0.71760    0.98320    1.000
    O10      O        0.52360    0.94570    0.13970    1.000
    O11      O        0.81930    0.23820    0.00240    1.000
    O12      O        0.93140    0.34420    0.10180    1.000
    O13      O        0.56150    0.15070    0.10520    1.000
    O14      O        0.48780    0.87740    0.08700    1.000
    C56      C        0.85570    0.31860    0.03550    1.000
    C57      C        0.82190    0.49330    0.05760    1.000
    C58      C        0.80770    0.40500    0.00850    1.000
    C59      C        0.75120    0.39530    0.92990    1.000
    C60      C        0.70900    0.47390    0.90050    1.000
    C61      C        0.77970    0.57180    0.02810    1.000
    C62      C        0.72300    0.56210    0.94960    1.000
    Ce2      Ce       0.15117    0.93935    0.99591    1.000
    O15      O        0.29650    0.92110    0.91360    1.000
    O16      O        0.66840    0.06180    0.90880    1.000
    O17      O        0.02430    0.86680    0.07990    1.000
    O18      O        0.33470    0.09850    0.00640    1.000
    O19      O        0.10780    0.07150    0.07500    1.000
    O20      O        0.89160    0.95380    0.10170    1.000
    O21      O        0.00180    0.17670    0.10860    1.000
    N5       N        0.87660    0.60890    0.47840    1.000
    N6       N        0.82420    0.48190    0.59550    1.000
    N7       N        0.65980    0.50090    0.37570    1.000
    N8       N        0.60970    0.37000    0.49200    1.000
    C63      C        0.90210    0.81890    0.17090    1.000
    C64      C        0.38690    0.29930    0.29990    1.000
    C65      C        0.09810    0.14400    0.11820    1.000
    C66      C        0.61770    0.16080    0.80870    1.000
    C67      C        0.78210    0.41920    0.64580    1.000
    C68      C        0.19510    0.19660    0.18430    1.000
    C69      C        0.83410    0.70080    0.28060    1.000
    C70      C        0.92040    0.54620    0.63900    1.000
    C71      C        0.71840    0.16450    0.77800    1.000
    H25      H        0.77510    0.12790    0.79770    1.000
    C72      C        0.94440    0.88480    0.11350    1.000
    C73      C        0.39110    0.20860    0.26010    1.000
    H26      H        0.45960    0.18160    0.27290    1.000
    C74      C        0.95460    0.74200    0.18640    1.000
    H27      H        0.01590    0.72940    0.15970    1.000
    C75      C        0.70040    0.56450    0.32660    1.000
    C76      C        0.07180    0.78250    0.70270    1.000
    H28      H        0.00310    0.80460    0.68020    1.000
    C77      C        0.29620    0.15750    0.20210    1.000
    H29      H        0.30000    0.09610    0.17460    1.000
    C78      C        0.62150    0.54070    0.24880    1.000
    H30      H        0.62950    0.57380    0.20390    1.000
    C79      C        0.65810    0.27780    0.69000    1.000
    C80      C        0.94090    0.52590    0.72020    1.000
    H31      H        0.00310    0.56080    0.76200    1.000
    C81      C        0.49310    0.35860    0.35850    1.000
    C82      C        0.59240    0.09980    0.87150    1.000
    C83      C        0.99050    0.62540    0.61370    1.000
    C84      C        0.73840    0.22180    0.71800    1.000
    H32      H        0.80780    0.22250    0.69610    1.000
    C85      C        0.53660    0.46360    0.25330    1.000
    H33      H        0.47230    0.43080    0.21210    1.000
    C86      C        0.88500    0.65950    0.41480    1.000
    C87      C        0.85440    0.44780    0.72460    1.000
    H34      H        0.84290    0.41750    0.77030    1.000
    C88      C        0.80280    0.63740    0.34330    1.000
    C89      C        0.15480    0.84270    0.76540    1.000
    H35      H        0.14150    0.90410    0.78680    1.000
    C90      C        0.55990    0.43920    0.33190    1.000
    C91      C        0.53820    0.21620    0.78060    1.000
    H36      H        0.46790    0.21400    0.80170    1.000
    C92      C        0.49880    0.24170    0.53410    1.000
    H37      H        0.47090    0.19490    0.56680    1.000
    C93      C        0.08840    0.69240    0.67370    1.000
    C94      C        0.25460    0.81130    0.79470    1.000
    C95      C        0.19060    0.28220    0.22490    1.000
    H38      H        0.12060    0.30760    0.21340    1.000
    C96      C        0.68360    0.34140    0.62740    1.000
    C97      C        0.78200    0.77870    0.26570    1.000
    H39      H        0.72210    0.79210    0.29340    1.000
    C98      C        0.28440    0.33530    0.28330    1.000
    H40      H        0.27810    0.39550    0.31150    1.000
    C99      C        0.55870    0.27570    0.72160    1.000
    H41      H        0.50350    0.31450    0.70360    1.000
    C100     C        0.98930    0.73380    0.43470    1.000
    H42      H        0.01770    0.77860    0.40070    1.000
    C101     C        0.60360    0.31980    0.55650    1.000
    C102     C        0.51520    0.32650    0.43240    1.000
    C103     C        0.97200    0.65240    0.53850    1.000
    C104     C        0.44680    0.24580    0.45950    1.000
    H43      H        0.37650    0.20220    0.43020    1.000
    C105     C        0.81650    0.83800    0.21040    1.000
    H44      H        0.78020    0.89200    0.20010    1.000
    C106     C        0.27540    0.72450    0.76300    1.000
    H45      H        0.34890    0.70690    0.78150    1.000
    C107     C        0.19040    0.66060    0.70350    1.000
    H46      H        0.20230    0.59770    0.68440    1.000
    C108     C        0.91910    0.68220    0.24080    1.000
    H47      H        0.95460    0.62750    0.25040    1.000
    C109     C        0.04290    0.73180    0.50940    1.000
    H48      H        0.11430    0.77490    0.53750    1.000
    C110     C        0.33620    0.87020    0.86520    1.000
    O22      O        0.44850    0.89850    0.85800    1.000
    O23      O        0.51400    0.19040    0.99880    1.000
    C111     C        0.40500    0.18200    0.00950    1.000
    C112     C        0.26160    0.28910    0.03560    1.000
    C113     C        0.23900    0.38100    0.05820    1.000
    C114     C        0.32590    0.46630    0.06210    1.000
    C115     C        0.43560    0.45970    0.04330    1.000
    C116     C        0.45820    0.36770    0.02070    1.000
    C117     C        0.37120    0.28240    0.01680    1.000
    O24      O        0.47640    0.05430    0.86030    1.000
    O25      O        0.18070    0.76180    0.99760    1.000
    O26      O        0.06860    0.65580    0.89820    1.000
    O27      O        0.43850    0.84930    0.89480    1.000
    O28      O        0.51220    0.12260    0.91300    1.000
    C118     C        0.14430    0.68140    0.96450    1.000
    C119     C        0.17810    0.50670    0.94240    1.000
    C120     C        0.19230    0.59500    0.99150    1.000
    C121     C        0.24880    0.60470    0.07010    1.000
    C122     C        0.29100    0.52610    0.09950    1.000
    C123     C        0.22030    0.42820    0.97190    1.000
    C124     C        0.27700    0.43790    0.05040    1.000
    Ce3      Ce       0.50000    0.00000    0.00000    1.000
