# CIF file generated by openbabel 3.1.0, see https://openbabel.org
data_I
_chemical_name_common 'image0'
_cell_length_a 21.78
_cell_length_b 10.8551
_cell_length_c 19.4405
_cell_angle_alpha 90
_cell_angle_beta 92.088
_cell_angle_gamma 90
_space_group_name_H-M_alt 'P 1'
_space_group_name_Hall 'P 1'
loop_
    _symmetry_equiv_pos_as_xyz
    x,y,z
loop_
    _atom_site_label
    _atom_site_type_symbol
    _atom_site_fract_x
    _atom_site_fract_y
    _atom_site_fract_z
    _atom_site_occupancy
    Cu1      Cu       0.30176    0.14524    0.19603    1.000
    Cu2      Cu       0.01941    0.00857    0.43772    1.000
    Cu3      Cu       0.37752    0.97540    0.15022    1.000
    O1       O        0.73650    0.53420    0.15941    1.000
    O2       O        0.46077    0.64130    0.41848    1.000
    O3       O        0.37994    0.22130    0.22799    1.000
    O4       O        0.04839    0.89230    0.58008    1.000
    O5       O        0.61619    0.08040    0.93102    1.000
    O6       O        0.44412    0.07200    0.19231    1.000
    O7       O        0.41908    0.62350    0.52252    1.000
    O8       O        0.07277    0.87370    0.46863    1.000
    O9       O        0.29845    0.05660    0.28360    1.000
    C1       C        0.32707    0.95570    0.28820    1.000
    O10      O        0.68910    0.21220    0.89634    1.000
    O11      O        0.35898    0.90720    0.24281    1.000
    O12      O        0.80152    0.40450    0.10890    1.000
    C2       C        0.64114    0.36710    0.13019    1.000
    H1       H        0.63850    0.41010    0.17140    1.000
    C3       C        0.65095    0.17270    0.93900    1.000
    C4       C        0.69509    0.37190    0.09314    1.000
    C5       C        0.53390    0.29270    0.14520    1.000
    C6       C        0.41965    0.66310    0.46162    1.000
    N1       N        0.53966    0.24890    0.20966    1.000
    C7       C        0.07898    0.84850    0.53154    1.000
    C8       C        0.59119    0.29730    0.10487    1.000
    C9       C        0.74880    0.44190    0.12267    1.000
    C10      C        0.37077    0.80710    0.37525    1.000
    H2       H        0.40440    0.79670    0.34770    1.000
    C11      C        0.32294    0.88580    0.35451    1.000
    O13      O        0.48400    0.32950    0.12033    1.000
    C12      C        0.27264    0.90110    0.39622    1.000
    H3       H        0.24190    0.95710    0.38370    1.000
    C13      C        0.26827    0.83240    0.45671    1.000
    N2       N        0.17774    0.74770    0.50773    1.000
    C14      C        0.64751    0.24100    0.00560    1.000
    C15      C        0.43271    0.17320    0.22035    1.000
    C16      C        0.48674    0.24380    0.25377    1.000
    H4       H        0.47410    0.32700    0.26680    1.000
    C17      C        0.21383    0.84580    0.50184    1.000
    O14      O        0.20399    0.94290    0.53253    1.000
    C18      C        0.69869    0.30750    0.03130    1.000
    H5       H        0.73480    0.30870    0.00720    1.000
    C19      C        0.59438    0.23650    0.04282    1.000
    H6       H        0.56060    0.19210    0.02580    1.000
    C20      C        0.12607    0.75090    0.55368    1.000
    H7       H        0.14060    0.76460    0.60140    1.000
    C21      C        0.31536    0.75370    0.47709    1.000
    H8       H        0.31230    0.70710    0.51690    1.000
    C22      C        0.51178    0.17220    0.31712    1.000
    H9       H        0.52730    0.22820    0.35260    1.000
    H10      H        0.48000    0.12100    0.33600    1.000
    C23      C        0.59321    0.17990    0.23882    1.000
    H11      H        0.62250    0.23460    0.26200    1.000
    H12      H        0.61380    0.13450    0.20340    1.000
    C24      C        0.36787    0.74430    0.43749    1.000
    C25      C        0.17775    0.63640    0.46360    1.000
    H13      H        0.20960    0.57900    0.47880    1.000
    H14      H        0.18370    0.65780    0.41580    1.000
    C26      C        0.11373    0.58230    0.47300    1.000
    H15      H        0.08440    0.61550    0.43920    1.000
    H16      H        0.11430    0.49330    0.46890    1.000
    C27      C        0.09771    0.62120    0.54530    1.000
    H17      H        0.11530    0.56480    0.57930    1.000
    H18      H        0.05350    0.62390    0.54990    1.000
    C28      C        0.56376    0.09310    0.28963    1.000
    H19      H        0.59280    0.06920    0.32630    1.000
    H20      H        0.54780    0.01970    0.26680    1.000
    Cu4      Cu       0.80176    0.64524    0.19603    1.000
    Cu5      Cu       0.51941    0.50857    0.43772    1.000
    Cu6      Cu       0.87752    0.47540    0.15022    1.000
    O15      O        0.23650    0.03420    0.15941    1.000
    O16      O        0.96077    0.14130    0.41848    1.000
    O17      O        0.87994    0.72130    0.22799    1.000
    O18      O        0.54839    0.39230    0.58008    1.000
    O19      O        0.11619    0.58040    0.93102    1.000
    O20      O        0.94412    0.57200    0.19231    1.000
    O21      O        0.91908    0.12350    0.52252    1.000
    O22      O        0.57277    0.37370    0.46863    1.000
    O23      O        0.79845    0.55660    0.28360    1.000
    C29      C        0.82707    0.45570    0.28820    1.000
    O24      O        0.18910    0.71220    0.89634    1.000
    O25      O        0.85898    0.40720    0.24281    1.000
    O26      O        0.30152    0.90450    0.10890    1.000
    C30      C        0.14114    0.86710    0.13019    1.000
    H21      H        0.13850    0.91010    0.17140    1.000
    C31      C        0.15095    0.67270    0.93900    1.000
    C32      C        0.19509    0.87190    0.09314    1.000
    C33      C        0.03390    0.79270    0.14520    1.000
    C34      C        0.91965    0.16310    0.46162    1.000
    N3       N        0.03966    0.74890    0.20966    1.000
    C35      C        0.57898    0.34850    0.53154    1.000
    C36      C        0.09119    0.79730    0.10487    1.000
    C37      C        0.24880    0.94190    0.12267    1.000
    C38      C        0.87077    0.30710    0.37525    1.000
    H22      H        0.90440    0.29670    0.34770    1.000
    C39      C        0.82294    0.38580    0.35451    1.000
    O27      O        0.98400    0.82950    0.12033    1.000
    C40      C        0.77264    0.40110    0.39622    1.000
    H23      H        0.74190    0.45710    0.38370    1.000
    C41      C        0.76827    0.33240    0.45671    1.000
    N4       N        0.67774    0.24770    0.50773    1.000
    C42      C        0.14751    0.74100    0.00560    1.000
    C43      C        0.93271    0.67320    0.22035    1.000
    C44      C        0.98674    0.74380    0.25377    1.000
    H24      H        0.97410    0.82700    0.26680    1.000
    C45      C        0.71383    0.34580    0.50184    1.000
    O28      O        0.70399    0.44290    0.53253    1.000
    C46      C        0.19869    0.80750    0.03130    1.000
    H25      H        0.23480    0.80870    0.00720    1.000
    C47      C        0.09438    0.73650    0.04282    1.000
    H26      H        0.06060    0.69210    0.02580    1.000
    C48      C        0.62607    0.25090    0.55368    1.000
    H27      H        0.64060    0.26460    0.60140    1.000
    C49      C        0.81536    0.25370    0.47709    1.000
    H28      H        0.81230    0.20710    0.51690    1.000
    C50      C        0.01178    0.67220    0.31712    1.000
    H29      H        0.02730    0.72820    0.35260    1.000
    H30      H        0.98000    0.62100    0.33600    1.000
    C51      C        0.09321    0.67990    0.23882    1.000
    H31      H        0.12250    0.73460    0.26200    1.000
    H32      H        0.11380    0.63450    0.20340    1.000
    C52      C        0.86787    0.24430    0.43749    1.000
    C53      C        0.67775    0.13640    0.46360    1.000
    H33      H        0.70960    0.07900    0.47880    1.000
    H34      H        0.68370    0.15780    0.41580    1.000
    C54      C        0.61373    0.08230    0.47300    1.000
    H35      H        0.58440    0.11550    0.43920    1.000
    H36      H        0.61430    0.99330    0.46890    1.000
    C55      C        0.59771    0.12120    0.54530    1.000
    H37      H        0.61530    0.06480    0.57930    1.000
    H38      H        0.55350    0.12390    0.54990    1.000
    C56      C        0.06376    0.59310    0.28963    1.000
    H39      H        0.09280    0.56920    0.32630    1.000
    H40      H        0.04780    0.51970    0.26680    1.000
    Cu7      Cu       0.69824    0.14524    0.80397    1.000
    Cu8      Cu       0.98059    0.00857    0.56228    1.000
    Cu9      Cu       0.62248    0.97540    0.84978    1.000
    O29      O        0.26350    0.53420    0.84059    1.000
    O30      O        0.53923    0.64130    0.58152    1.000
    O31      O        0.62006    0.22130    0.77201    1.000
    O32      O        0.95161    0.89230    0.41992    1.000
    O33      O        0.38381    0.08040    0.06898    1.000
    O34      O        0.55588    0.07200    0.80769    1.000
    O35      O        0.58092    0.62350    0.47748    1.000
    O36      O        0.92723    0.87370    0.53137    1.000
    O37      O        0.70155    0.05660    0.71640    1.000
    C57      C        0.67293    0.95570    0.71180    1.000
    O38      O        0.31090    0.21220    0.10366    1.000
    O39      O        0.64102    0.90720    0.75719    1.000
    O40      O        0.19848    0.40450    0.89110    1.000
    C58      C        0.35886    0.36710    0.86981    1.000
    H41      H        0.36150    0.41010    0.82860    1.000
    C59      C        0.34905    0.17270    0.06100    1.000
    C60      C        0.30491    0.37190    0.90686    1.000
    C61      C        0.46610    0.29270    0.85480    1.000
    C62      C        0.58035    0.66310    0.53838    1.000
    N5       N        0.46034    0.24890    0.79034    1.000
    C63      C        0.92102    0.84850    0.46846    1.000
    C64      C        0.40881    0.29730    0.89513    1.000
    C65      C        0.25120    0.44190    0.87733    1.000
    C66      C        0.62923    0.80710    0.62475    1.000
    H42      H        0.59560    0.79670    0.65230    1.000
    C67      C        0.67706    0.88580    0.64549    1.000
    O41      O        0.51600    0.32950    0.87967    1.000
    C68      C        0.72736    0.90110    0.60378    1.000
    H43      H        0.75810    0.95710    0.61630    1.000
    C69      C        0.73173    0.83240    0.54329    1.000
    N6       N        0.82226    0.74770    0.49227    1.000
    C70      C        0.35249    0.24100    0.99440    1.000
    C71      C        0.56729    0.17320    0.77965    1.000
    C72      C        0.51326    0.24380    0.74623    1.000
    H44      H        0.52590    0.32700    0.73320    1.000
    C73      C        0.78617    0.84580    0.49816    1.000
    O42      O        0.79601    0.94290    0.46747    1.000
    C74      C        0.30131    0.30750    0.96870    1.000
    H45      H        0.26520    0.30870    0.99280    1.000
    C75      C        0.40562    0.23650    0.95718    1.000
    H46      H        0.43940    0.19210    0.97420    1.000
    C76      C        0.87393    0.75090    0.44632    1.000
    H47      H        0.85940    0.76460    0.39860    1.000
    C77      C        0.68464    0.75370    0.52291    1.000
    H48      H        0.68770    0.70710    0.48310    1.000
    C78      C        0.48822    0.17220    0.68288    1.000
    H49      H        0.47270    0.22820    0.64740    1.000
    H50      H        0.52000    0.12100    0.66400    1.000
    C79      C        0.40679    0.17990    0.76118    1.000
    H51      H        0.37750    0.23460    0.73800    1.000
    H52      H        0.38620    0.13450    0.79660    1.000
    C80      C        0.63213    0.74430    0.56251    1.000
    C81      C        0.82225    0.63640    0.53640    1.000
    H53      H        0.79040    0.57900    0.52120    1.000
    H54      H        0.81630    0.65780    0.58420    1.000
    C82      C        0.88627    0.58230    0.52700    1.000
    H55      H        0.91560    0.61550    0.56080    1.000
    H56      H        0.88570    0.49330    0.53110    1.000
    C83      C        0.90229    0.62120    0.45470    1.000
    H57      H        0.88470    0.56480    0.42070    1.000
    H58      H        0.94650    0.62390    0.45010    1.000
    C84      C        0.43624    0.09310    0.71037    1.000
    H59      H        0.40720    0.06920    0.67370    1.000
    H60      H        0.45220    0.01970    0.73320    1.000
    Cu10     Cu       0.19824    0.64524    0.80397    1.000
    Cu11     Cu       0.48059    0.50857    0.56228    1.000
    Cu12     Cu       0.12248    0.47540    0.84978    1.000
    O43      O        0.76350    0.03420    0.84059    1.000
    O44      O        0.03923    0.14130    0.58152    1.000
    O45      O        0.12006    0.72130    0.77201    1.000
    O46      O        0.45161    0.39230    0.41992    1.000
    O47      O        0.88381    0.58040    0.06898    1.000
    O48      O        0.05588    0.57200    0.80769    1.000
    O49      O        0.08092    0.12350    0.47748    1.000
    O50      O        0.42723    0.37370    0.53137    1.000
    O51      O        0.20155    0.55660    0.71640    1.000
    C85      C        0.17293    0.45570    0.71180    1.000
    O52      O        0.81090    0.71220    0.10366    1.000
    O53      O        0.14102    0.40720    0.75719    1.000
    O54      O        0.69848    0.90450    0.89110    1.000
    C86      C        0.85886    0.86710    0.86981    1.000
    H61      H        0.86150    0.91010    0.82860    1.000
    C87      C        0.84905    0.67270    0.06100    1.000
    C88      C        0.80491    0.87190    0.90686    1.000
    C89      C        0.96610    0.79270    0.85480    1.000
    C90      C        0.08035    0.16310    0.53838    1.000
    N7       N        0.96034    0.74890    0.79034    1.000
    C91      C        0.42102    0.34850    0.46846    1.000
    C92      C        0.90881    0.79730    0.89513    1.000
    C93      C        0.75120    0.94190    0.87733    1.000
    C94      C        0.12923    0.30710    0.62475    1.000
    H62      H        0.09560    0.29670    0.65230    1.000
    C95      C        0.17706    0.38580    0.64549    1.000
    O55      O        0.01600    0.82950    0.87967    1.000
    C96      C        0.22736    0.40110    0.60378    1.000
    H63      H        0.25810    0.45710    0.61630    1.000
    C97      C        0.23173    0.33240    0.54329    1.000
    N8       N        0.32226    0.24770    0.49227    1.000
    C98      C        0.85249    0.74100    0.99440    1.000
    C99      C        0.06729    0.67320    0.77965    1.000
    C100     C        0.01326    0.74380    0.74623    1.000
    H64      H        0.02590    0.82700    0.73320    1.000
    C101     C        0.28617    0.34580    0.49816    1.000
    O56      O        0.29601    0.44290    0.46747    1.000
    C102     C        0.80131    0.80750    0.96870    1.000
    H65      H        0.76520    0.80870    0.99280    1.000
    C103     C        0.90562    0.73650    0.95718    1.000
    H66      H        0.93940    0.69210    0.97420    1.000
    C104     C        0.37393    0.25090    0.44632    1.000
    H67      H        0.35940    0.26460    0.39860    1.000
    C105     C        0.18464    0.25370    0.52291    1.000
    H68      H        0.18770    0.20710    0.48310    1.000
    C106     C        0.98822    0.67220    0.68288    1.000
    H69      H        0.97270    0.72820    0.64740    1.000
    H70      H        0.02000    0.62100    0.66400    1.000
    C107     C        0.90679    0.67990    0.76118    1.000
    H71      H        0.87750    0.73460    0.73800    1.000
    H72      H        0.88620    0.63450    0.79660    1.000
    C108     C        0.13213    0.24430    0.56251    1.000
    C109     C        0.32225    0.13640    0.53640    1.000
    H73      H        0.29040    0.07900    0.52120    1.000
    H74      H        0.31630    0.15780    0.58420    1.000
    C110     C        0.38627    0.08230    0.52700    1.000
    H75      H        0.41560    0.11550    0.56080    1.000
    H76      H        0.38570    0.99330    0.53110    1.000
    C111     C        0.40229    0.12120    0.45470    1.000
    H77      H        0.38470    0.06480    0.42070    1.000
    H78      H        0.44650    0.12390    0.45010    1.000
    C112     C        0.93624    0.59310    0.71037    1.000
    H79      H        0.90720    0.56920    0.67370    1.000
    H80      H        0.95220    0.51970    0.73320    1.000
