data_functionalizedCrystal
_audit_creation_method	'EQeq! by Chris Wilmer'
_symmetry_space_group_name_H-M	'P1'
_symmetry_Int_Tables_number	1
_symmetry_cell_setting	triclinic
loop_
_symmetry_equiv_pos_as_xyz
  x,y,z
_cell_length_a	8.883
_cell_length_b	9.9355
_cell_length_c	14.5052
_cell_angle_alpha	82.1326
_cell_angle_beta	72.1699
_cell_angle_gamma	63.4466
loop_
_atom_site_label
_atom_site_type_symbol
_atom_site_fract_x
_atom_site_fract_y
_atom_site_fract_z
_atom_site_charge
Mof_Co	Co	0.025	0.58116	0.87242	1.086
Mof_Co	Co	0.47858	0.41884	0.12758	1.096
Mof_Co	Co	0.14742	0.08116	0.62758	1.09
Mof_Co	Co	0.85616	0.91884	0.37242	1.102
Mof_H 	H 	0.7347	0.4728	0.9504	-0.046
Mof_H 	H 	0.8252	0.714	0.0986	0.007
Mof_H 	H 	0.6033	0.6484	0.2012	-0.004
Mof_H 	H 	0.2045	0.257	0.7684	-0.06
Mof_H 	H 	0.7975	0.616	0.732	-0.004
Mof_H 	H 	0.8416	0.4178	0.633	-0.003
Mof_H 	H 	0.1579	0.5272	0.0496	-0.058
Mof_H 	H 	0.6378	0.286	0.9014	0.004
Mof_H 	H 	0.4529	0.3516	0.7988	-0.004
Mof_H 	H 	0.2299	0.743	0.2316	-0.06
Mof_H 	H 	0.1455	0.384	0.268	0.016
Mof_H 	H 	0.8924	0.5822	0.367	-0.022
Mof_H 	H 	0.9351	0.9728	0.5496	-0.059
Mof_H 	H 	0.1738	0.214	0.4014	-0.008
Mof_H 	H 	0.0545	0.1484	0.2988	0.002
Mof_H 	H 	0.2229	0.757	0.7316	-0.05
Mof_H 	H 	0.7795	0.116	0.768	-0.005
Mof_H 	H 	0.7246	0.9178	0.867	0.003
Mof_H 	H 	0.4575	0.0272	0.4504	-0.061
Mof_H 	H 	0.7892	0.786	0.5986	0.005
Mof_H 	H 	0.5017	0.8516	0.7012	-0.003
Mof_H 	H 	0.7115	0.243	0.2684	-0.055
Mof_H 	H 	0.6635	0.884	0.232	-0.001
Mof_H 	H 	0.5094	0.0822	0.133	-0.001
Mof_C 	C 	0.7322	0.522	0.0012	0.065
Mof_C 	C 	0.7807	0.6556	0.081	-0.013
Mof_C 	C 	0.6609	0.6176	0.1372	0.003
Mof_C 	C 	0.1091	0.323	0.7462	0.081
Mof_C 	C 	0.8865	0.5188	0.7274	0.008
Mof_C 	C 	0.9112	0.41	0.672	0.01
Mof_C 	C 	0.2554	0.478	0.9988	0.069
Mof_C 	C 	0.5173	0.3444	0.919	-0.011
Mof_C 	C 	0.4157	0.3824	0.8628	-0.002
Mof_C 	C 	0.1783	0.677	0.2538	0.085
Mof_C 	C 	0.1327	0.4812	0.2726	-0.072
Mof_C 	C 	0.9932	0.59	0.328	0.064
Mof_C 	C 	0.9834	0.022	0.4988	0.106
Mof_C 	C 	0.1117	0.1556	0.419	0.005
Mof_C 	C 	0.0481	0.1176	0.3628	-0.043
Mof_C 	C 	0.1053	0.823	0.7538	0.058
Mof_C 	C 	0.8639	0.0188	0.7726	0.009
Mof_C 	C 	0.8332	0.91	0.828	-0.014
Mof_C 	C 	0.5042	0.978	0.5012	0.084
Mof_C 	C 	0.6863	0.8444	0.581	-0.009
Mof_C 	C 	0.5285	0.8824	0.6372	-0.001
Mof_C 	C 	0.6821	0.177	0.2462	0.088
Mof_C 	C 	0.6553	0.9812	0.2274	-0.004
Mof_C 	C 	0.5712	0.09	0.172	-0.015
Mof_N 	N 	0.8299	0.5954	0.9926	-0.259
Mof_N 	N 	0.6307	0.527	0.0904	-0.278
Mof_N 	N 	0.0108	0.4666	0.7764	-0.295
Mof_N 	N 	0.05624	0.2854	0.68232	-0.294
Mof_N 	N 	0.4179	0.4046	0.0074	-0.27
Mof_N 	N 	0.2481	0.473	0.9096	-0.282
Mof_N 	N 	0.2538	0.5334	0.2236	-0.271
Mof_N 	N 	0.02396	0.7146	0.31768	-0.304
Mof_N 	N 	0.0725	0.0954	0.5074	-0.292
Mof_N 	N 	0.9711	0.027	0.4096	-0.266
Mof_N 	N 	0.0372	0.9666	0.7236	-0.285
Mof_N 	N 	0.98856	0.7854	0.81768	-0.257
Mof_N 	N 	0.6753	0.9046	0.4926	-0.271
Mof_N 	N 	0.4077	0.973	0.5904	-0.279
Mof_N 	N 	0.7274	0.0334	0.2764	-0.278
Mof_N 	N 	0.59164	0.2146	0.18232	-0.277
_end
