data_functionalizedCrystal
_audit_creation_method	'EQeq! by Chris Wilmer'
_symmetry_space_group_name_H-M	'P1'
_symmetry_Int_Tables_number	1
_symmetry_cell_setting	triclinic
loop_
_symmetry_equiv_pos_as_xyz
  x,y,z
_cell_length_a	14.2698
_cell_length_b	14.2698
_cell_length_c	10.066
_cell_angle_alpha	90
_cell_angle_beta	90
_cell_angle_gamma	120
loop_
_atom_site_label
_atom_site_type_symbol
_atom_site_fract_x
_atom_site_fract_y
_atom_site_fract_z
_atom_site_charge
Mof_Tb	Tb	0.44103	0.85659	0.21953	2.247
Mof_S 	S 	0.66197	0.80623	0.25639	0.831
Mof_S 	S 	0.51994	0.99534	0.46868	0.617
Mof_O 	O 	0.7039	0.8292	0.121	-0.223
Mof_O 	O 	0.5933	0.6884	0.2761	-0.505
Mof_O 	O 	0.5965	0.8572	0.2858	-0.531
Mof_O 	O 	0.7526	0.8466	0.3508	-0.21
Mof_O 	O 	0.5468	0.0303	0.3298	-0.383
Mof_O 	O 	0.6187	0.0296	0.5507	-0.348
Mof_O 	O 	0.4518	0.8765	0.4657	-0.407
Mof_O 	O 	0.465	0.0478	0.5332	-0.396
Mof_O 	O 	0.445	0.724	0.0683	-0.586
Mof_Tb	Tb	0.14341	0.58444	0.21953	2.246
Mof_S 	S 	0.19377	0.85574	0.25639	0.831
Mof_S 	S 	0.00466	0.5246	0.46868	0.615
Mof_O 	O 	0.1708	0.8747	0.121	-0.232
Mof_O 	O 	0.3116	0.9049	0.2761	-0.509
Mof_O 	O 	0.1428	0.7393	0.2858	-0.532
Mof_O 	O 	0.1534	0.906	0.3508	-0.219
Mof_O 	O 	0.9697	0.5165	0.3298	-0.384
Mof_O 	O 	0.9704	0.5891	0.5507	-0.349
Mof_O 	O 	0.1235	0.5753	0.4657	-0.407
Mof_O 	O 	0.9522	0.4172	0.5332	-0.396
Mof_O 	O 	0.276	0.721	0.0683	-0.586
Mof_Tb	Tb	0.41556	0.55897	0.21953	2.257
Mof_S 	S 	0.14426	0.33803	0.25639	0.83
Mof_S 	S 	0.4754	0.48006	0.46868	0.672
Mof_O 	O 	0.1253	0.2961	0.121	-0.226
Mof_O 	O 	0.0951	0.4067	0.2761	-0.508
Mof_O 	O 	0.2607	0.4035	0.2858	-0.529
Mof_O 	O 	0.094	0.2474	0.3508	-0.211
Mof_O 	O 	0.4835	0.4532	0.3298	-0.409
Mof_O 	O 	0.4109	0.3813	0.5507	-0.37
Mof_O 	O 	0.4247	0.5482	0.4657	-0.416
Mof_O 	O 	0.5828	0.535	0.5332	-0.416
Mof_O 	O 	0.279	0.555	0.0683	-0.586
Mof_Tb	Tb	0.85659	0.44103	0.71953	2.254
Mof_S 	S 	0.80623	0.66197	0.75639	0.833
Mof_S 	S 	0.99534	0.51994	0.96868	0.567
Mof_O 	O 	0.8292	0.7039	0.621	-0.243
Mof_O 	O 	0.6884	0.5933	0.7761	-0.517
Mof_O 	O 	0.8572	0.5965	0.7858	-0.536
Mof_O 	O 	0.8466	0.7526	0.8508	-0.234
Mof_O 	O 	0.0303	0.5468	0.8298	-0.421
Mof_O 	O 	0.0296	0.6187	0.0507	-0.319
Mof_O 	O 	0.8765	0.4518	0.9657	-0.413
Mof_O 	O 	0.0478	0.465	0.0332	-0.363
Mof_O 	O 	0.724	0.445	0.5683	-0.578
Mof_Tb	Tb	0.58444	0.14341	0.71953	2.255
Mof_S 	S 	0.85574	0.19377	0.75639	0.832
Mof_S 	S 	0.5246	0.00466	0.96868	0.566
Mof_O 	O 	0.8747	0.1708	0.621	-0.238
Mof_O 	O 	0.9049	0.3116	0.7761	-0.514
Mof_O 	O 	0.7393	0.1428	0.7858	-0.536
Mof_O 	O 	0.906	0.1534	0.8508	-0.228
Mof_O 	O 	0.5165	0.9697	0.8298	-0.42
Mof_O 	O 	0.5891	0.9704	0.0507	-0.317
Mof_O 	O 	0.5753	0.1235	0.9657	-0.413
Mof_O 	O 	0.4172	0.9522	0.0332	-0.363
Mof_O 	O 	0.721	0.276	0.5683	-0.578
Mof_Tb	Tb	0.55897	0.41556	0.71953	2.246
Mof_S 	S 	0.33803	0.14426	0.75639	0.833
Mof_S 	S 	0.48006	0.4754	0.96868	0.514
Mof_O 	O 	0.2961	0.1253	0.621	-0.242
Mof_O 	O 	0.4067	0.0951	0.7761	-0.514
Mof_O 	O 	0.4035	0.2607	0.7858	-0.538
Mof_O 	O 	0.2474	0.094	0.8508	-0.233
Mof_O 	O 	0.4532	0.4835	0.8298	-0.4
Mof_O 	O 	0.3813	0.4109	0.0507	-0.296
Mof_O 	O 	0.5482	0.4247	0.9657	-0.404
Mof_O 	O 	0.535	0.5828	0.0332	-0.342
Mof_O 	O 	0.555	0.279	0.5683	-0.578
Mof_S 	S 	0.33333	0.66667	0.00955	0.786
Mof_O 	O 	0.33333	0.66667	0.8693	-0.307
Mof_O 	O 	0.33333	0.66667	0.3047	-0.668
Mof_S 	S 	0.66667	0.33333	0.50955	0.693
Mof_O 	O 	0.66667	0.33333	0.3693	-0.225
Mof_O 	O 	0.66667	0.33333	0.8047	-0.673
_end
