data_functionalizedCrystal
_audit_creation_method	'EQeq! by Chris Wilmer'
_symmetry_space_group_name_H-M	'P1'
_symmetry_Int_Tables_number	1
_symmetry_cell_setting	triclinic
loop_
_symmetry_equiv_pos_as_xyz
  x,y,z
_cell_length_a	35.411
_cell_length_b	35.411
_cell_length_c	45.691
_cell_angle_alpha	90
_cell_angle_beta	90
_cell_angle_gamma	120
loop_
_atom_site_label
_atom_site_type_symbol
_atom_site_fract_x
_atom_site_fract_y
_atom_site_fract_z
_atom_site_charge
Mof_Ni	Ni	0.56085	0.02016	0.05111	1.061
Mof_Ni	Ni	0.45932	0.02018	0.0511	1.061
Mof_O 	O 	0.51875	0.03761	0.03592	-0.597
Mof_C 	C 	0.2107	0.7889	0.11797	0.029
Mof_C 	C 	0.1806	0.75216	0.10264	-0.1
Mof_H 	H 	0.1554	0.7316	0.1122	0.057
Mof_C 	C 	0.1864	0.74493	0.07392	0.028
Mof_C 	C 	0.2238	0.77599	0.05905	-0.098
Mof_H 	H 	0.2278	0.7719	0.0394	0.059
Mof_C 	C 	0.2551	0.81329	0.07393	0.027
Mof_C 	C 	0.248	0.81937	0.10261	-0.1
Mof_H 	H 	0.2685	0.8445	0.1122	0.056
Mof_C 	C 	0.2025	0.79752	0.14793	0.037
Mof_C 	C 	0.1602	0.7802	0.1589	-0.218
Mof_H 	H 	0.137	0.7631	0.1466	0.093
Mof_C 	C 	0.151	0.7871	0.1869	0.163
Mof_H 	H 	0.1224	0.7747	0.1933	-0.041
Mof_C 	C 	0.2124	0.8489	0.1869	0.196
Mof_H 	H 	0.2241	0.8776	0.1932	-0.052
Mof_C 	C 	0.2202	0.8399	0.159	-0.249
Mof_H 	H 	0.2382	0.8631	0.1469	0.103
Mof_C 	C 	0.18633	0.81386	0.20593	-0.118
Mof_C 	C 	0.2939	0.84709	0.05727	0.058
Mof_C 	C 	0.2906	0.85484	0.02863	-0.133
Mof_H 	H 	0.264	0.8384	0.0192	0.067
Mof_C 	C 	0.3261	0.88658	0.01266	0.055
Mof_H 	H 	0.3229	0.8921	0.9932	0.009
Mof_C 	C 	0.36645	0.9098	0.02677	-0.159
Mof_C 	C 	0.3702	0.90201	0.05545	0.052
Mof_H 	H 	0.397	0.9178	0.0648	0.013
Mof_C 	C 	0.3339	0.87022	0.07128	-0.131
Mof_H 	H 	0.3368	0.8648	0.0908	0.071
Mof_C 	C 	0.1532	0.70615	0.05739	0.055
Mof_C 	C 	0.1452	0.7095	0.02861	-0.131
Mof_H 	H 	0.1613	0.7361	0.0192	0.066
Mof_C 	C 	0.1131	0.6737	0.01266	0.052
Mof_H 	H 	0.1075	0.6769	0.9932	0.01
Mof_C 	C 	0.09004	0.63347	0.02671	-0.158
Mof_C 	C 	0.0979	0.62975	0.0555	0.049
Mof_H 	H 	0.0821	0.6029	0.0648	0.014
Mof_C 	C 	0.1296	0.66622	0.07127	-0.128
Mof_H 	H 	0.1346	0.6633	0.0909	0.069
Mof_C 	C 	0.40425	0.9433	0.00894	0.399
Mof_O 	O 	0.39774	0.94659	0.98297	-0.478
Mof_O 	O 	0.44099	0.96516	0.02241	-0.526
Mof_C 	C 	0.05676	0.59567	0.00889	0.398
Mof_O 	O 	0.05344	0.60219	0.9829	-0.48
Mof_O 	O 	0.03479	0.559	0.02245	-0.528
Mof_C 	C 	0.17661	0.82343	0.23585	0.394
Mof_O 	O 	0.20468	0.85882	0.24717	-0.478
Mof_O 	O 	0.14118	0.7954	0.24701	-0.477
Mof_C 	C 	0.6038	0.7731	0.1956	-0.173
Mof_C 	C 	0.5854	0.7645	0.1678	0.127
Mof_C 	C 	0.5862	0.8218	0.1676	0.098
Mof_C 	C 	0.6039	0.831	0.1951	-0.144
Mof_H 	H 	0.5993	0.7499	0.2075	0.085
Mof_H 	H 	0.5662	0.7358	0.1625	-0.023
Mof_H 	H 	0.5679	0.8322	0.1619	-0.012
Mof_H 	H 	0.5994	0.8498	0.2069	0.075
Mof_Ni	Ni	0.22752	0.35349	0.38444	1.061
Mof_Ni	Ni	0.12599	0.35351	0.38444	1.061
Mof_O 	O 	0.18542	0.37094	0.36925	-0.597
Mof_C 	C 	0.87737	0.12223	0.4513	0.027
Mof_C 	C 	0.84727	0.08549	0.43597	-0.101
Mof_H 	H 	0.82207	0.06493	0.44553	0.056
Mof_C 	C 	0.85307	0.07826	0.40725	0.028
Mof_C 	C 	0.89047	0.10932	0.39238	-0.098
Mof_H 	H 	0.89447	0.10523	0.37273	0.059
Mof_C 	C 	0.92177	0.14662	0.40726	0.023
Mof_C 	C 	0.91467	0.1527	0.43594	-0.098
Mof_H 	H 	0.93517	0.17783	0.44553	0.056
Mof_C 	C 	0.86917	0.13085	0.48126	0.037
Mof_C 	C 	0.82687	0.11353	0.49223	-0.218
Mof_H 	H 	0.80367	0.09643	0.47993	0.093
Mof_C 	C 	0.81767	0.12043	0.52023	0.163
Mof_H 	H 	0.78907	0.10803	0.52663	-0.041
Mof_C 	C 	0.87907	0.18223	0.52023	0.196
Mof_H 	H 	0.89077	0.21093	0.52653	-0.052
Mof_C 	C 	0.88687	0.17323	0.49233	-0.249
Mof_H 	H 	0.90487	0.19643	0.48023	0.104
Mof_C 	C 	0.853	0.14719	0.53926	-0.118
Mof_C 	C 	0.96057	0.18042	0.3906	0.069
Mof_C 	C 	0.95727	0.18817	0.36196	-0.145
Mof_H 	H 	0.93067	0.17173	0.35253	0.071
Mof_C 	C 	0.99277	0.21991	0.34599	0.071
Mof_H 	H 	0.98957	0.22543	0.32653	0.004
Mof_C 	C 	0.03312	0.24313	0.3601	-0.171
Mof_C 	C 	0.03687	0.23534	0.38878	0.063
Mof_H 	H 	0.06367	0.25113	0.39813	0.009
Mof_C 	C 	0.00057	0.20355	0.40461	-0.143
Mof_H 	H 	0.00347	0.19813	0.42413	0.074
Mof_C 	C 	0.81987	0.03948	0.39072	0.049
Mof_C 	C 	0.81187	0.04283	0.36194	-0.126
Mof_H 	H 	0.82797	0.06943	0.35253	0.065
Mof_C 	C 	0.77977	0.00703	0.34599	0.048
Mof_H 	H 	0.77417	0.01023	0.32653	0.01
Mof_C 	C 	0.75671	0.9668	0.36004	-0.152
Mof_C 	C 	0.76457	0.96308	0.38883	0.044
Mof_H 	H 	0.74877	0.93623	0.39813	0.016
Mof_C 	C 	0.79627	0.99955	0.4046	-0.12
Mof_H 	H 	0.80127	0.99663	0.42423	0.068
Mof_C 	C 	0.07092	0.27663	0.34227	0.404
Mof_O 	O 	0.06441	0.27992	0.3163	-0.482
Mof_O 	O 	0.10766	0.29849	0.35574	-0.528
Mof_C 	C 	0.72343	0.929	0.34222	0.398
Mof_O 	O 	0.72011	0.93552	0.31623	-0.48
Mof_O 	O 	0.70146	0.89233	0.35578	-0.527
Mof_C 	C 	0.84328	0.15676	0.56918	0.394
Mof_O 	O 	0.87135	0.19215	0.5805	-0.478
Mof_O 	O 	0.80785	0.12873	0.58034	-0.477
Mof_C 	C 	0.27047	0.10643	0.52893	-0.173
Mof_C 	C 	0.25207	0.09783	0.50113	0.127
Mof_C 	C 	0.25287	0.15513	0.50093	0.098
Mof_C 	C 	0.27057	0.16433	0.52843	-0.144
Mof_H 	H 	0.26597	0.08323	0.54083	0.085
Mof_H 	H 	0.23287	0.06913	0.49583	-0.023
Mof_H 	H 	0.23457	0.16553	0.49523	-0.013
Mof_H 	H 	0.26607	0.18313	0.54023	0.075
Mof_Ni	Ni	0.89418	0.68683	0.71778	1.061
Mof_Ni	Ni	0.79265	0.68685	0.71777	1.061
Mof_O 	O 	0.85208	0.70428	0.70259	-0.597
Mof_C 	C 	0.54403	0.45557	0.78464	0.027
Mof_C 	C 	0.51393	0.41883	0.76931	-0.1
Mof_H 	H 	0.48873	0.39827	0.77887	0.056
Mof_C 	C 	0.51973	0.4116	0.74059	0.026
Mof_C 	C 	0.55713	0.44266	0.72572	-0.098
Mof_H 	H 	0.56113	0.43857	0.70607	0.059
Mof_C 	C 	0.58843	0.47996	0.7406	0.025
Mof_C 	C 	0.58133	0.48604	0.76928	-0.099
Mof_H 	H 	0.60183	0.51117	0.77887	0.056
Mof_C 	C 	0.53583	0.46419	0.8146	0.037
Mof_C 	C 	0.49353	0.44687	0.82557	-0.218
Mof_H 	H 	0.47033	0.42977	0.81327	0.093
Mof_C 	C 	0.48433	0.45377	0.85357	0.163
Mof_H 	H 	0.45573	0.44137	0.85997	-0.041
Mof_C 	C 	0.54573	0.51557	0.85357	0.196
Mof_H 	H 	0.55743	0.54427	0.85987	-0.052
Mof_C 	C 	0.55353	0.50657	0.82567	-0.249
Mof_H 	H 	0.57153	0.52977	0.81357	0.103
Mof_C 	C 	0.51966	0.48053	0.8726	-0.118
Mof_C 	C 	0.62723	0.51376	0.72394	0.06
Mof_C 	C 	0.62393	0.52151	0.6953	-0.137
Mof_H 	H 	0.59733	0.50507	0.68587	0.068
Mof_C 	C 	0.65943	0.55325	0.67933	0.06
Mof_H 	H 	0.65623	0.55877	0.65987	0.006
Mof_C 	C 	0.69978	0.57647	0.69344	-0.163
Mof_C 	C 	0.70353	0.56868	0.72212	0.055
Mof_H 	H 	0.73033	0.58447	0.73147	0.012
Mof_C 	C 	0.66723	0.53689	0.73795	-0.133
Mof_H 	H 	0.67013	0.53147	0.75747	0.072
Mof_C 	C 	0.48653	0.37282	0.72406	0.057
Mof_C 	C 	0.47853	0.37617	0.69528	-0.134
Mof_H 	H 	0.49463	0.40277	0.68587	0.067
Mof_C 	C 	0.44643	0.34037	0.67933	0.058
Mof_H 	H 	0.44083	0.34357	0.65987	0.007
Mof_C 	C 	0.42337	0.30014	0.69338	-0.161
Mof_C 	C 	0.43123	0.29642	0.72217	0.052
Mof_H 	H 	0.41543	0.26957	0.73147	0.013
Mof_C 	C 	0.46293	0.33289	0.73794	-0.13
Mof_H 	H 	0.46793	0.32997	0.75757	0.07
Mof_C 	C 	0.73758	0.60997	0.67561	0.402
Mof_O 	O 	0.73107	0.61326	0.64964	-0.481
Mof_O 	O 	0.77432	0.63183	0.68908	-0.528
Mof_C 	C 	0.39009	0.26234	0.67556	0.401
Mof_O 	O 	0.38677	0.26886	0.64957	-0.481
Mof_O 	O 	0.36812	0.22567	0.68912	-0.527
Mof_C 	C 	0.50994	0.4901	0.90252	0.394
Mof_O 	O 	0.53801	0.52549	0.91384	-0.478
Mof_O 	O 	0.47451	0.46207	0.91368	-0.477
Mof_C 	C 	0.93713	0.43977	0.86227	-0.173
Mof_C 	C 	0.91873	0.43117	0.83447	0.127
Mof_C 	C 	0.91953	0.48847	0.83427	0.098
Mof_C 	C 	0.93723	0.49767	0.86177	-0.144
Mof_H 	H 	0.93263	0.41657	0.87417	0.085
Mof_H 	H 	0.89953	0.40247	0.82917	-0.023
Mof_H 	H 	0.90123	0.49887	0.82857	-0.012
Mof_H 	H 	0.93273	0.51647	0.87357	0.075
Mof_Ni	Ni	0.97984	0.54069	0.05111	1.062
Mof_Ni	Ni	0.97982	0.43914	0.0511	1.062
Mof_O 	O 	0.96239	0.48114	0.03592	-0.596
Mof_C 	C 	0.2111	0.4218	0.11797	0.028
Mof_C 	C 	0.24784	0.42844	0.10264	-0.101
Mof_H 	H 	0.2684	0.4238	0.1122	0.056
Mof_C 	C 	0.25507	0.44147	0.07392	0.027
Mof_C 	C 	0.22401	0.44781	0.05905	-0.099
Mof_H 	H 	0.2281	0.4559	0.0394	0.059
Mof_C 	C 	0.18671	0.44181	0.07393	0.026
Mof_C 	C 	0.18063	0.42863	0.10261	-0.1
Mof_H 	H 	0.1555	0.424	0.1122	0.056
Mof_C 	C 	0.20248	0.40498	0.14793	0.037
Mof_C 	C 	0.2198	0.38	0.1589	-0.219
Mof_H 	H 	0.2369	0.3739	0.1466	0.093
Mof_C 	C 	0.2129	0.3639	0.1869	0.163
Mof_H 	H 	0.2253	0.3477	0.1933	-0.041
Mof_C 	C 	0.1511	0.3635	0.1869	0.196
Mof_H 	H 	0.1224	0.3465	0.1932	-0.053
Mof_C 	C 	0.1601	0.3803	0.159	-0.249
Mof_H 	H 	0.1369	0.3751	0.1469	0.103
Mof_C 	C 	0.18614	0.37247	0.20593	-0.118
Mof_C 	C 	0.15291	0.44681	0.05727	0.058
Mof_C 	C 	0.14516	0.43576	0.02863	-0.134
Mof_H 	H 	0.1616	0.4256	0.0192	0.067
Mof_C 	C 	0.11342	0.43952	0.01266	0.055
Mof_H 	H 	0.1079	0.4308	0.9932	0.009
Mof_C 	C 	0.0902	0.45665	0.02677	-0.16
Mof_C 	C 	0.09799	0.46819	0.05545	0.052
Mof_H 	H 	0.0822	0.4792	0.0648	0.013
Mof_C 	C 	0.12978	0.46368	0.07128	-0.131
Mof_H 	H 	0.1352	0.472	0.0908	0.071
Mof_C 	C 	0.29385	0.44705	0.05739	0.055
Mof_C 	C 	0.2905	0.4357	0.02861	-0.131
Mof_H 	H 	0.2639	0.4252	0.0192	0.066
Mof_C 	C 	0.3263	0.4394	0.01266	0.052
Mof_H 	H 	0.3231	0.4306	0.9932	0.01
Mof_C 	C 	0.36653	0.45657	0.02671	-0.158
Mof_C 	C 	0.37025	0.46815	0.0555	0.049
Mof_H 	H 	0.3971	0.4792	0.0648	0.014
Mof_C 	C 	0.33378	0.46338	0.07127	-0.128
Mof_H 	H 	0.3367	0.4713	0.0909	0.069
Mof_C 	C 	0.0567	0.46095	0.00894	0.399
Mof_O 	O 	0.05341	0.45115	0.98297	-0.48
Mof_O 	O 	0.03484	0.47583	0.02241	-0.528
Mof_C 	C 	0.40433	0.46109	0.00889	0.398
Mof_O 	O 	0.39781	0.45125	0.9829	-0.479
Mof_O 	O 	0.441	0.47579	0.02245	-0.527
Mof_C 	C 	0.17657	0.35318	0.23585	0.394
Mof_O 	O 	0.14118	0.34586	0.24717	-0.478
Mof_O 	O 	0.2046	0.34578	0.24701	-0.477
Mof_C 	C 	0.2269	0.8307	0.1956	-0.174
Mof_C 	C 	0.2355	0.8209	0.1678	0.128
Mof_C 	C 	0.1782	0.7644	0.1676	0.099
Mof_C 	C 	0.169	0.7729	0.1951	-0.144
Mof_H 	H 	0.2501	0.8494	0.2075	0.085
Mof_H 	H 	0.2642	0.8304	0.1625	-0.023
Mof_H 	H 	0.1678	0.7357	0.1619	-0.013
Mof_H 	H 	0.1502	0.7496	0.2069	0.075
Mof_Ni	Ni	0.64651	0.87402	0.38444	1.061
Mof_Ni	Ni	0.64649	0.77247	0.38444	1.061
Mof_O 	O 	0.62906	0.81447	0.36925	-0.597
Mof_C 	C 	0.87777	0.75513	0.4513	0.026
Mof_C 	C 	0.91451	0.76177	0.43597	-0.097
Mof_H 	H 	0.93507	0.75713	0.44553	0.055
Mof_C 	C 	0.92174	0.7748	0.40725	0.022
Mof_C 	C 	0.89068	0.78114	0.39238	-0.096
Mof_H 	H 	0.89477	0.78923	0.37273	0.058
Mof_C 	C 	0.85338	0.77514	0.40726	0.024
Mof_C 	C 	0.8473	0.76196	0.43594	-0.098
Mof_H 	H 	0.82217	0.75733	0.44553	0.055
Mof_C 	C 	0.86915	0.73831	0.48126	0.038
Mof_C 	C 	0.88647	0.71333	0.49223	-0.219
Mof_H 	H 	0.90357	0.70723	0.47993	0.094
Mof_C 	C 	0.87957	0.69723	0.52023	0.164
Mof_H 	H 	0.89197	0.68103	0.52663	-0.041
Mof_C 	C 	0.81777	0.69683	0.52023	0.196
Mof_H 	H 	0.78907	0.67983	0.52653	-0.053
Mof_C 	C 	0.82677	0.71363	0.49233	-0.25
Mof_H 	H 	0.80357	0.70843	0.48023	0.104
Mof_C 	C 	0.85281	0.7058	0.53926	-0.118
Mof_C 	C 	0.81958	0.78014	0.3906	0.061
Mof_C 	C 	0.81183	0.76909	0.36196	-0.138
Mof_H 	H 	0.82827	0.75893	0.35253	0.069
Mof_C 	C 	0.78009	0.77285	0.34599	0.061
Mof_H 	H 	0.77457	0.76413	0.32653	0.006
Mof_C 	C 	0.75687	0.78998	0.3601	-0.163
Mof_C 	C 	0.76466	0.80152	0.38878	0.056
Mof_H 	H 	0.74887	0.81253	0.39813	0.012
Mof_C 	C 	0.79645	0.79701	0.40461	-0.134
Mof_H 	H 	0.80187	0.80533	0.42413	0.072
Mof_C 	C 	0.96052	0.78038	0.39072	0.067
Mof_C 	C 	0.95717	0.76903	0.36194	-0.142
Mof_H 	H 	0.93057	0.75853	0.35253	0.07
Mof_C 	C 	0.99297	0.77273	0.34599	0.068
Mof_H 	H 	0.98977	0.76393	0.32653	0.005
Mof_C 	C 	0.0332	0.7899	0.36004	-0.169
Mof_C 	C 	0.03692	0.80148	0.38883	0.059
Mof_H 	H 	0.06377	0.81253	0.39813	0.011
Mof_C 	C 	0.00045	0.79671	0.4046	-0.14
Mof_H 	H 	0.00337	0.80463	0.42423	0.073
Mof_C 	C 	0.72337	0.79428	0.34227	0.402
Mof_O 	O 	0.72008	0.78448	0.3163	-0.481
Mof_O 	O 	0.70151	0.80916	0.35574	-0.528
Mof_C 	C 	0.071	0.79442	0.34222	0.403
Mof_O 	O 	0.06448	0.78458	0.31623	-0.482
Mof_O 	O 	0.10767	0.80912	0.35578	-0.528
Mof_C 	C 	0.84324	0.68651	0.56918	0.394
Mof_O 	O 	0.80785	0.67919	0.5805	-0.478
Mof_O 	O 	0.87127	0.67911	0.58034	-0.477
Mof_C 	C 	0.89357	0.16403	0.52893	-0.174
Mof_C 	C 	0.90217	0.15423	0.50113	0.128
Mof_C 	C 	0.84487	0.09773	0.50093	0.098
Mof_C 	C 	0.83567	0.10623	0.52843	-0.144
Mof_H 	H 	0.91677	0.18273	0.54083	0.085
Mof_H 	H 	0.93087	0.16373	0.49583	-0.022
Mof_H 	H 	0.83447	0.06903	0.49523	-0.013
Mof_H 	H 	0.81687	0.08293	0.54023	0.075
Mof_Ni	Ni	0.31317	0.20736	0.71778	1.061
Mof_Ni	Ni	0.31315	0.10581	0.71777	1.061
Mof_O 	O 	0.29572	0.14781	0.70259	-0.597
Mof_C 	C 	0.54443	0.08847	0.78464	0.027
Mof_C 	C 	0.58117	0.09511	0.76931	-0.1
Mof_H 	H 	0.60173	0.09047	0.77887	0.056
Mof_C 	C 	0.5884	0.10814	0.74059	0.026
Mof_C 	C 	0.55734	0.11448	0.72572	-0.098
Mof_H 	H 	0.56143	0.12257	0.70607	0.059
Mof_C 	C 	0.52004	0.10848	0.7406	0.025
Mof_C 	C 	0.51396	0.0953	0.76928	-0.099
Mof_H 	H 	0.48883	0.09067	0.77887	0.056
Mof_C 	C 	0.53581	0.07165	0.8146	0.037
Mof_C 	C 	0.55313	0.04667	0.82557	-0.219
Mof_H 	H 	0.57023	0.04057	0.81327	0.093
Mof_C 	C 	0.54623	0.03057	0.85357	0.163
Mof_H 	H 	0.55863	0.01437	0.85997	-0.041
Mof_C 	C 	0.48443	0.03017	0.85357	0.196
Mof_H 	H 	0.45573	0.01317	0.85987	-0.053
Mof_C 	C 	0.49343	0.04697	0.82567	-0.25
Mof_H 	H 	0.47023	0.04177	0.81357	0.103
Mof_C 	C 	0.51947	0.03914	0.8726	-0.118
Mof_C 	C 	0.48624	0.11348	0.72394	0.06
Mof_C 	C 	0.47849	0.10243	0.6953	-0.137
Mof_H 	H 	0.49493	0.09227	0.68587	0.068
Mof_C 	C 	0.44675	0.10619	0.67933	0.06
Mof_H 	H 	0.44123	0.09747	0.65987	0.006
Mof_C 	C 	0.42353	0.12332	0.69344	-0.163
Mof_C 	C 	0.43132	0.13486	0.72212	0.055
Mof_H 	H 	0.41553	0.14587	0.73147	0.012
Mof_C 	C 	0.46311	0.13035	0.73795	-0.133
Mof_H 	H 	0.46853	0.13867	0.75747	0.072
Mof_C 	C 	0.62718	0.11372	0.72406	0.057
Mof_C 	C 	0.62383	0.10237	0.69528	-0.134
Mof_H 	H 	0.59723	0.09187	0.68587	0.067
Mof_C 	C 	0.65963	0.10607	0.67933	0.058
Mof_H 	H 	0.65643	0.09727	0.65987	0.007
Mof_C 	C 	0.69986	0.12324	0.69338	-0.161
Mof_C 	C 	0.70358	0.13482	0.72217	0.052
Mof_H 	H 	0.73043	0.14587	0.73147	0.013
Mof_C 	C 	0.66711	0.13005	0.73794	-0.13
Mof_H 	H 	0.67003	0.13797	0.75757	0.07
Mof_C 	C 	0.39003	0.12762	0.67561	0.402
Mof_O 	O 	0.38674	0.11782	0.64964	-0.481
Mof_O 	O 	0.36817	0.1425	0.68908	-0.528
Mof_C 	C 	0.73766	0.12776	0.67556	0.401
Mof_O 	O 	0.73114	0.11792	0.64957	-0.481
Mof_O 	O 	0.77433	0.14246	0.68912	-0.527
Mof_C 	C 	0.5099	0.01985	0.90252	0.394
Mof_O 	O 	0.47451	0.01253	0.91384	-0.479
Mof_O 	O 	0.53793	0.01245	0.91368	-0.478
Mof_C 	C 	0.56023	0.49737	0.86227	-0.174
Mof_C 	C 	0.56883	0.48757	0.83447	0.128
Mof_C 	C 	0.51153	0.43107	0.83427	0.098
Mof_C 	C 	0.50233	0.43957	0.86177	-0.144
Mof_H 	H 	0.58343	0.51607	0.87417	0.085
Mof_H 	H 	0.59753	0.49707	0.82917	-0.023
Mof_H 	H 	0.50113	0.40237	0.82857	-0.013
Mof_H 	H 	0.48353	0.41627	0.87357	0.075
Mof_Ni	Ni	0.45931	0.43915	0.05111	1.061
Mof_Ni	Ni	0.56086	0.54068	0.0511	1.061
Mof_O 	O 	0.51886	0.48125	0.03592	-0.597
Mof_C 	C 	0.5782	0.7893	0.11797	0.028
Mof_C 	C 	0.57156	0.8194	0.10264	-0.101
Mof_H 	H 	0.5762	0.8446	0.1122	0.056
Mof_C 	C 	0.55853	0.8136	0.07392	0.027
Mof_C 	C 	0.55219	0.7762	0.05905	-0.099
Mof_H 	H 	0.5441	0.7722	0.0394	0.059
Mof_C 	C 	0.55819	0.7449	0.07393	0.027
Mof_C 	C 	0.57137	0.752	0.10261	-0.1
Mof_H 	H 	0.576	0.7315	0.1122	0.056
Mof_C 	C 	0.59502	0.7975	0.14793	0.037
Mof_C 	C 	0.62	0.8398	0.1589	-0.218
Mof_H 	H 	0.6261	0.863	0.1466	0.093
Mof_C 	C 	0.6361	0.849	0.1869	0.163
Mof_H 	H 	0.6523	0.8776	0.1933	-0.04
Mof_C 	C 	0.6365	0.7876	0.1869	0.196
Mof_H 	H 	0.6535	0.7759	0.1932	-0.052
Mof_C 	C 	0.6197	0.7798	0.159	-0.248
Mof_H 	H 	0.6249	0.7618	0.1469	0.103
Mof_C 	C 	0.62753	0.81367	0.20593	-0.117
Mof_C 	C 	0.55319	0.7061	0.05727	0.058
Mof_C 	C 	0.56424	0.7094	0.02863	-0.133
Mof_H 	H 	0.5744	0.736	0.0192	0.067
Mof_C 	C 	0.56048	0.6739	0.01266	0.055
Mof_H 	H 	0.5692	0.6771	0.9932	0.009
Mof_C 	C 	0.54335	0.63355	0.02677	-0.16
Mof_C 	C 	0.53181	0.6298	0.05545	0.052
Mof_H 	H 	0.5208	0.603	0.0648	0.013
Mof_C 	C 	0.53632	0.6661	0.07128	-0.131
Mof_H 	H 	0.528	0.6632	0.0908	0.071
Mof_C 	C 	0.55295	0.8468	0.05739	0.055
Mof_C 	C 	0.5643	0.8548	0.02861	-0.13
Mof_H 	H 	0.5748	0.8387	0.0192	0.066
Mof_C 	C 	0.5606	0.8869	0.01266	0.052
Mof_H 	H 	0.5694	0.8925	0.9932	0.01
Mof_C 	C 	0.54343	0.90996	0.02671	-0.158
Mof_C 	C 	0.53185	0.9021	0.0555	0.049
Mof_H 	H 	0.5208	0.9179	0.0648	0.014
Mof_C 	C 	0.53662	0.8704	0.07127	-0.127
Mof_H 	H 	0.5287	0.8654	0.0909	0.069
Mof_C 	C 	0.53905	0.59575	0.00894	0.399
Mof_O 	O 	0.54885	0.60226	0.98297	-0.479
Mof_O 	O 	0.52417	0.55901	0.02241	-0.527
Mof_C 	C 	0.53891	0.94324	0.00889	0.398
Mof_O 	O 	0.54875	0.94656	0.9829	-0.478
Mof_O 	O 	0.52421	0.96521	0.02245	-0.526
Mof_C 	C 	0.64682	0.82339	0.23585	0.394
Mof_O 	O 	0.65414	0.79532	0.24717	-0.478
Mof_O 	O 	0.65422	0.85882	0.24701	-0.477
Mof_C 	C 	0.1693	0.3962	0.1956	-0.174
Mof_C 	C 	0.1791	0.4146	0.1678	0.128
Mof_C 	C 	0.2356	0.4138	0.1676	0.099
Mof_C 	C 	0.2271	0.3961	0.1951	-0.144
Mof_H 	H 	0.1506	0.4007	0.2075	0.085
Mof_H 	H 	0.1696	0.4338	0.1625	-0.023
Mof_H 	H 	0.2643	0.4321	0.1619	-0.013
Mof_H 	H 	0.2504	0.4006	0.2069	0.075
Mof_Ni	Ni	0.12598	0.77248	0.38444	1.061
Mof_Ni	Ni	0.22753	0.87401	0.38444	1.061
Mof_O 	O 	0.18553	0.81458	0.36925	-0.597
Mof_C 	C 	0.24487	0.12263	0.4513	0.028
Mof_C 	C 	0.23823	0.15273	0.43597	-0.101
Mof_H 	H 	0.24287	0.17793	0.44553	0.056
Mof_C 	C 	0.2252	0.14693	0.40725	0.027
Mof_C 	C 	0.21886	0.10953	0.39238	-0.101
Mof_H 	H 	0.21077	0.10553	0.37273	0.059
Mof_C 	C 	0.22486	0.07823	0.40726	0.029
Mof_C 	C 	0.23804	0.08533	0.43594	-0.102
Mof_H 	H 	0.24267	0.06483	0.44553	0.056
Mof_C 	C 	0.26169	0.13083	0.48126	0.037
Mof_C 	C 	0.28667	0.17313	0.49223	-0.218
Mof_H 	H 	0.29277	0.19633	0.47993	0.093
Mof_C 	C 	0.30277	0.18233	0.52023	0.163
Mof_H 	H 	0.31897	0.21093	0.52663	-0.041
Mof_C 	C 	0.30317	0.12093	0.52023	0.195
Mof_H 	H 	0.32017	0.10923	0.52653	-0.052
Mof_C 	C 	0.28637	0.11313	0.49233	-0.248
Mof_H 	H 	0.29157	0.09513	0.48023	0.103
Mof_C 	C 	0.2942	0.147	0.53926	-0.118
Mof_C 	C 	0.21986	0.03943	0.3906	0.051
Mof_C 	C 	0.23091	0.04273	0.36196	-0.129
Mof_H 	H 	0.24107	0.06933	0.35253	0.065
Mof_C 	C 	0.22715	0.00723	0.34599	0.049
Mof_H 	H 	0.23587	0.01043	0.32653	0.009
Mof_C 	C 	0.21002	0.96688	0.3601	-0.154
Mof_C 	C 	0.19848	0.96313	0.38878	0.047
Mof_H 	H 	0.18747	0.93633	0.39813	0.015
Mof_C 	C 	0.20299	0.99943	0.40461	-0.122
Mof_H 	H 	0.19467	0.99653	0.42413	0.069
Mof_C 	C 	0.21962	0.18013	0.39072	0.057
Mof_C 	C 	0.23097	0.18813	0.36194	-0.134
Mof_H 	H 	0.24147	0.17203	0.35253	0.067
Mof_C 	C 	0.22727	0.22023	0.34599	0.057
Mof_H 	H 	0.23607	0.22583	0.32653	0.007
Mof_C 	C 	0.2101	0.24329	0.36004	-0.161
Mof_C 	C 	0.19852	0.23543	0.38883	0.051
Mof_H 	H 	0.18747	0.25123	0.39813	0.013
Mof_C 	C 	0.20329	0.20373	0.4046	-0.129
Mof_H 	H 	0.19537	0.19873	0.42423	0.07
Mof_C 	C 	0.20572	0.92908	0.34227	0.399
Mof_O 	O 	0.21552	0.93559	0.3163	-0.48
Mof_O 	O 	0.19084	0.89234	0.35574	-0.527
Mof_C 	C 	0.20558	0.27657	0.34222	0.401
Mof_O 	O 	0.21542	0.27989	0.31623	-0.481
Mof_O 	O 	0.19088	0.29854	0.35578	-0.527
Mof_C 	C 	0.31349	0.15672	0.56918	0.394
Mof_O 	O 	0.32081	0.12865	0.5805	-0.478
Mof_O 	O 	0.32089	0.19215	0.58034	-0.477
Mof_C 	C 	0.83597	0.72953	0.52893	-0.174
Mof_C 	C 	0.84577	0.74793	0.50113	0.128
Mof_C 	C 	0.90227	0.74713	0.50093	0.099
Mof_C 	C 	0.89377	0.72943	0.52843	-0.144
Mof_H 	H 	0.81727	0.73403	0.54083	0.085
Mof_H 	H 	0.83627	0.76713	0.49583	-0.023
Mof_H 	H 	0.93097	0.76543	0.49523	-0.012
Mof_H 	H 	0.91707	0.73393	0.54023	0.075
Mof_Ni	Ni	0.79264	0.10582	0.71778	1.061
Mof_Ni	Ni	0.89419	0.20735	0.71777	1.061
Mof_O 	O 	0.85219	0.14792	0.70259	-0.597
Mof_C 	C 	0.91153	0.45597	0.78464	0.027
Mof_C 	C 	0.90489	0.48607	0.76931	-0.1
Mof_H 	H 	0.90953	0.51127	0.77887	0.056
Mof_C 	C 	0.89186	0.48027	0.74059	0.026
Mof_C 	C 	0.88552	0.44287	0.72572	-0.098
Mof_H 	H 	0.87743	0.43887	0.70607	0.059
Mof_C 	C 	0.89152	0.41157	0.7406	0.025
Mof_C 	C 	0.9047	0.41867	0.76928	-0.099
Mof_H 	H 	0.90933	0.39817	0.77887	0.056
Mof_C 	C 	0.92835	0.46417	0.8146	0.037
Mof_C 	C 	0.95333	0.50647	0.82557	-0.218
Mof_H 	H 	0.95943	0.52967	0.81327	0.093
Mof_C 	C 	0.96943	0.51567	0.85357	0.163
Mof_H 	H 	0.98563	0.54427	0.85997	-0.04
Mof_C 	C 	0.96983	0.45427	0.85357	0.195
Mof_H 	H 	0.98683	0.44257	0.85987	-0.052
Mof_C 	C 	0.95303	0.44647	0.82567	-0.248
Mof_H 	H 	0.95823	0.42847	0.81357	0.103
Mof_C 	C 	0.96086	0.48034	0.8726	-0.117
Mof_C 	C 	0.88652	0.37277	0.72394	0.06
Mof_C 	C 	0.89757	0.37607	0.6953	-0.137
Mof_H 	H 	0.90773	0.40267	0.68587	0.069
Mof_C 	C 	0.89381	0.34057	0.67933	0.06
Mof_H 	H 	0.90253	0.34377	0.65987	0.006
Mof_C 	C 	0.87668	0.30022	0.69344	-0.163
Mof_C 	C 	0.86514	0.29647	0.72212	0.055
Mof_H 	H 	0.85413	0.26967	0.73147	0.012
Mof_C 	C 	0.86965	0.33277	0.73795	-0.133
Mof_H 	H 	0.86133	0.32987	0.75747	0.072
Mof_C 	C 	0.88628	0.51347	0.72406	0.057
Mof_C 	C 	0.89763	0.52147	0.69528	-0.134
Mof_H 	H 	0.90813	0.50537	0.68587	0.068
Mof_C 	C 	0.89393	0.55357	0.67933	0.058
Mof_H 	H 	0.90273	0.55917	0.65987	0.007
Mof_C 	C 	0.87676	0.57663	0.69338	-0.161
Mof_C 	C 	0.86518	0.56877	0.72217	0.052
Mof_H 	H 	0.85413	0.58457	0.73147	0.013
Mof_C 	C 	0.86995	0.53707	0.73794	-0.13
Mof_H 	H 	0.86203	0.53207	0.75757	0.07
Mof_C 	C 	0.87238	0.26242	0.67561	0.402
Mof_O 	O 	0.88218	0.26893	0.64964	-0.481
Mof_O 	O 	0.8575	0.22568	0.68908	-0.528
Mof_C 	C 	0.87224	0.60991	0.67556	0.401
Mof_O 	O 	0.88208	0.61323	0.64957	-0.481
Mof_O 	O 	0.85754	0.63188	0.68912	-0.527
Mof_C 	C 	0.98015	0.49006	0.90252	0.394
Mof_O 	O 	0.98747	0.46199	0.91384	-0.477
Mof_O 	O 	0.98755	0.52549	0.91368	-0.476
Mof_C 	C 	0.50263	0.06287	0.86227	-0.174
Mof_C 	C 	0.51243	0.08127	0.83447	0.128
Mof_C 	C 	0.56893	0.08047	0.83427	0.099
Mof_C 	C 	0.56043	0.06277	0.86177	-0.144
Mof_H 	H 	0.48393	0.06737	0.87417	0.085
Mof_H 	H 	0.50293	0.10047	0.82917	-0.023
Mof_H 	H 	0.59763	0.09877	0.82857	-0.013
Mof_H 	H 	0.58373	0.06727	0.87357	0.075
Mof_Ni	Ni	0.43915	0.97984	0.94889	1.062
Mof_Ni	Ni	0.54068	0.97982	0.9489	1.062
Mof_O 	O 	0.48125	0.96239	0.96408	-0.595
Mof_C 	C 	0.7893	0.2111	0.88203	0.026
Mof_C 	C 	0.8194	0.24784	0.89736	-0.099
Mof_H 	H 	0.8446	0.2684	0.8878	0.056
Mof_C 	C 	0.8136	0.25507	0.92608	0.024
Mof_C 	C 	0.7762	0.22401	0.94095	-0.097
Mof_H 	H 	0.7722	0.2281	0.9606	0.059
Mof_C 	C 	0.7449	0.18671	0.92607	0.024
Mof_C 	C 	0.752	0.18063	0.89739	-0.098
Mof_H 	H 	0.7315	0.1555	0.8878	0.055
Mof_C 	C 	0.7975	0.20248	0.85207	0.038
Mof_C 	C 	0.8398	0.2198	0.8411	-0.218
Mof_H 	H 	0.863	0.2369	0.8534	0.093
Mof_C 	C 	0.849	0.2129	0.8131	0.163
Mof_H 	H 	0.8776	0.2253	0.8067	-0.041
Mof_C 	C 	0.7876	0.1511	0.8131	0.196
Mof_H 	H 	0.7759	0.1224	0.8068	-0.053
Mof_C 	C 	0.7798	0.1601	0.841	-0.249
Mof_H 	H 	0.7618	0.1369	0.8531	0.103
Mof_C 	C 	0.81367	0.18614	0.79407	-0.118
Mof_C 	C 	0.7061	0.15291	0.94273	0.063
Mof_C 	C 	0.7094	0.14516	0.97137	-0.141
Mof_H 	H 	0.736	0.1616	0.9808	0.07
Mof_C 	C 	0.6739	0.11342	0.98734	0.066
Mof_H 	H 	0.6771	0.1079	0.0068	0.003
Mof_C 	C 	0.63355	0.0902	0.97323	-0.166
Mof_C 	C 	0.6298	0.09799	0.94455	0.058
Mof_H 	H 	0.603	0.0822	0.9352	0.011
Mof_C 	C 	0.6661	0.12978	0.92872	-0.136
Mof_H 	H 	0.6632	0.1352	0.9092	0.073
Mof_C 	C 	0.8468	0.29385	0.94261	0.06
Mof_C 	C 	0.8548	0.2905	0.97139	-0.137
Mof_H 	H 	0.8387	0.2639	0.9808	0.069
Mof_C 	C 	0.8869	0.3263	0.98734	0.063
Mof_H 	H 	0.8925	0.3231	0.0068	0.004
Mof_C 	C 	0.90996	0.36653	0.97329	-0.164
Mof_C 	C 	0.9021	0.37025	0.9445	0.054
Mof_H 	H 	0.9179	0.3971	0.9352	0.013
Mof_C 	C 	0.8704	0.33378	0.92873	-0.132
Mof_H 	H 	0.8654	0.3367	0.9091	0.071
Mof_C 	C 	0.59575	0.0567	0.99106	0.405
Mof_O 	O 	0.60226	0.05341	0.01703	-0.484
Mof_O 	O 	0.55901	0.03484	0.97759	-0.529
Mof_C 	C 	0.94324	0.40433	0.99111	0.404
Mof_O 	O 	0.94656	0.39781	0.0171	-0.482
Mof_O 	O 	0.96521	0.441	0.97755	-0.526
Mof_C 	C 	0.82339	0.17657	0.76415	0.394
Mof_O 	O 	0.79532	0.14118	0.75283	-0.478
Mof_O 	O 	0.85882	0.2046	0.75299	-0.477
Mof_C 	C 	0.3962	0.2269	0.8044	-0.174
Mof_C 	C 	0.4146	0.2355	0.8322	0.128
Mof_C 	C 	0.4138	0.1782	0.8324	0.099
Mof_C 	C 	0.3961	0.169	0.8049	-0.144
Mof_H 	H 	0.4007	0.2501	0.7925	0.085
Mof_H 	H 	0.4338	0.2642	0.8375	-0.023
Mof_H 	H 	0.4321	0.1678	0.8381	-0.013
Mof_H 	H 	0.4006	0.1502	0.7931	0.075
Mof_Ni	Ni	0.10582	0.31317	0.28222	1.061
Mof_Ni	Ni	0.20735	0.31315	0.28223	1.061
Mof_O 	O 	0.14792	0.29572	0.29741	-0.597
Mof_C 	C 	0.45597	0.54443	0.21536	0.027
Mof_C 	C 	0.48607	0.58117	0.23069	-0.1
Mof_H 	H 	0.51127	0.60173	0.22113	0.056
Mof_C 	C 	0.48027	0.5884	0.25941	0.026
Mof_C 	C 	0.44287	0.55734	0.27428	-0.098
Mof_H 	H 	0.43887	0.56143	0.29393	0.059
Mof_C 	C 	0.41157	0.52004	0.2594	0.025
Mof_C 	C 	0.41867	0.51396	0.23072	-0.099
Mof_H 	H 	0.39817	0.48883	0.22113	0.056
Mof_C 	C 	0.46417	0.53581	0.1854	0.037
Mof_C 	C 	0.50647	0.55313	0.17443	-0.218
Mof_H 	H 	0.52967	0.57023	0.18673	0.093
Mof_C 	C 	0.51567	0.54623	0.14643	0.163
Mof_H 	H 	0.54427	0.55863	0.14003	-0.041
Mof_C 	C 	0.45427	0.48443	0.14643	0.196
Mof_H 	H 	0.44257	0.45573	0.14013	-0.052
Mof_C 	C 	0.44647	0.49343	0.17433	-0.249
Mof_H 	H 	0.42847	0.47023	0.18643	0.103
Mof_C 	C 	0.48034	0.51947	0.1274	-0.118
Mof_C 	C 	0.37277	0.48624	0.27606	0.06
Mof_C 	C 	0.37607	0.47849	0.3047	-0.137
Mof_H 	H 	0.40267	0.49493	0.31413	0.068
Mof_C 	C 	0.34057	0.44675	0.32067	0.06
Mof_H 	H 	0.34377	0.44123	0.34013	0.006
Mof_C 	C 	0.30022	0.42353	0.30656	-0.163
Mof_C 	C 	0.29647	0.43132	0.27788	0.055
Mof_H 	H 	0.26967	0.41553	0.26853	0.012
Mof_C 	C 	0.33277	0.46311	0.26205	-0.133
Mof_H 	H 	0.32987	0.46853	0.24253	0.072
Mof_C 	C 	0.51347	0.62718	0.27594	0.057
Mof_C 	C 	0.52147	0.62383	0.30472	-0.134
Mof_H 	H 	0.50537	0.59723	0.31413	0.067
Mof_C 	C 	0.55357	0.65963	0.32067	0.058
Mof_H 	H 	0.55917	0.65643	0.34013	0.007
Mof_C 	C 	0.57663	0.69986	0.30662	-0.161
Mof_C 	C 	0.56877	0.70358	0.27783	0.052
Mof_H 	H 	0.58457	0.73043	0.26853	0.013
Mof_C 	C 	0.53707	0.66711	0.26206	-0.13
Mof_H 	H 	0.53207	0.67003	0.24243	0.07
Mof_C 	C 	0.26242	0.39003	0.32439	0.402
Mof_O 	O 	0.26893	0.38674	0.35036	-0.481
Mof_O 	O 	0.22568	0.36817	0.31092	-0.528
Mof_C 	C 	0.60991	0.73766	0.32444	0.401
Mof_O 	O 	0.61323	0.73114	0.35043	-0.481
Mof_O 	O 	0.63188	0.77433	0.31088	-0.527
Mof_C 	C 	0.49006	0.5099	0.09748	0.394
Mof_O 	O 	0.46199	0.47451	0.08616	-0.478
Mof_O 	O 	0.52549	0.53793	0.08632	-0.477
Mof_C 	C 	0.06287	0.56023	0.13773	-0.174
Mof_C 	C 	0.08127	0.56883	0.16553	0.128
Mof_C 	C 	0.08047	0.51153	0.16573	0.099
Mof_C 	C 	0.06277	0.50233	0.13823	-0.144
Mof_H 	H 	0.06737	0.58343	0.12583	0.085
Mof_H 	H 	0.10047	0.59753	0.17083	-0.023
Mof_H 	H 	0.09877	0.50113	0.17143	-0.013
Mof_H 	H 	0.06727	0.48353	0.12643	0.075
Mof_Ni	Ni	0.77248	0.64651	0.61556	1.061
Mof_Ni	Ni	0.87401	0.64649	0.61556	1.061
Mof_O 	O 	0.81458	0.62906	0.63075	-0.597
Mof_C 	C 	0.12263	0.87777	0.5487	0.027
Mof_C 	C 	0.15273	0.91451	0.56403	-0.098
Mof_H 	H 	0.17793	0.93507	0.55447	0.056
Mof_C 	C 	0.14693	0.92174	0.59275	0.023
Mof_C 	C 	0.10953	0.89068	0.60762	-0.098
Mof_H 	H 	0.10553	0.89477	0.62727	0.059
Mof_C 	C 	0.07823	0.85338	0.59274	0.028
Mof_C 	C 	0.08533	0.8473	0.56406	-0.1
Mof_H 	H 	0.06483	0.82217	0.55447	0.056
Mof_C 	C 	0.13083	0.86915	0.51874	0.037
Mof_C 	C 	0.17313	0.88647	0.50777	-0.218
Mof_H 	H 	0.19633	0.90357	0.52007	0.094
Mof_C 	C 	0.18233	0.87957	0.47977	0.163
Mof_H 	H 	0.21093	0.89197	0.47337	-0.041
Mof_C 	C 	0.12093	0.81777	0.47977	0.196
Mof_H 	H 	0.10923	0.78907	0.47347	-0.053
Mof_C 	C 	0.11313	0.82677	0.50767	-0.249
Mof_H 	H 	0.09513	0.80357	0.51977	0.103
Mof_C 	C 	0.147	0.85281	0.46074	-0.118
Mof_C 	C 	0.03943	0.81958	0.6094	0.052
Mof_C 	C 	0.04273	0.81183	0.63804	-0.129
Mof_H 	H 	0.06933	0.82827	0.64747	0.065
Mof_C 	C 	0.00723	0.78009	0.65401	0.05
Mof_H 	H 	0.01043	0.77457	0.67347	0.009
Mof_C 	C 	0.96688	0.75687	0.6399	-0.154
Mof_C 	C 	0.96313	0.76466	0.61122	0.048
Mof_H 	H 	0.93633	0.74887	0.60187	0.015
Mof_C 	C 	0.99943	0.79645	0.59539	-0.123
Mof_H 	H 	0.99653	0.80187	0.57587	0.069
Mof_C 	C 	0.18013	0.96052	0.60928	0.066
Mof_C 	C 	0.18813	0.95717	0.63806	-0.141
Mof_H 	H 	0.17203	0.93057	0.64747	0.07
Mof_C 	C 	0.22023	0.99297	0.65401	0.068
Mof_H 	H 	0.22583	0.98977	0.67347	0.005
Mof_C 	C 	0.24329	0.0332	0.63996	-0.169
Mof_C 	C 	0.23543	0.03692	0.61117	0.059
Mof_H 	H 	0.25123	0.06377	0.60187	0.011
Mof_C 	C 	0.20373	0.00045	0.5954	-0.14
Mof_H 	H 	0.19873	0.00337	0.57577	0.073
Mof_C 	C 	0.92908	0.72337	0.65773	0.399
Mof_O 	O 	0.93559	0.72008	0.6837	-0.479
Mof_O 	O 	0.89234	0.70151	0.64426	-0.527
Mof_C 	C 	0.27657	0.071	0.65778	0.403
Mof_O 	O 	0.27989	0.06448	0.68377	-0.483
Mof_O 	O 	0.29854	0.10767	0.64422	-0.528
Mof_C 	C 	0.15672	0.84324	0.43082	0.394
Mof_O 	O 	0.12865	0.80785	0.4195	-0.478
Mof_O 	O 	0.19215	0.87127	0.41966	-0.477
Mof_C 	C 	0.72953	0.89357	0.47107	-0.174
Mof_C 	C 	0.74793	0.90217	0.49887	0.128
Mof_C 	C 	0.74713	0.84487	0.49907	0.099
Mof_C 	C 	0.72943	0.83567	0.47157	-0.144
Mof_H 	H 	0.73403	0.91677	0.45917	0.086
Mof_H 	H 	0.76713	0.93087	0.50417	-0.022
Mof_H 	H 	0.76543	0.83447	0.50477	-0.012
Mof_H 	H 	0.73393	0.81687	0.45977	0.075
Mof_Ni	Ni	0.02016	0.45931	0.94889	1.06
Mof_Ni	Ni	0.02018	0.56086	0.9489	1.06
Mof_O 	O 	0.03761	0.51886	0.96408	-0.597
Mof_C 	C 	0.7889	0.5782	0.88203	0.026
Mof_C 	C 	0.75216	0.57156	0.89736	-0.099
Mof_H 	H 	0.7316	0.5762	0.8878	0.056
Mof_C 	C 	0.74493	0.55853	0.92608	0.025
Mof_C 	C 	0.77599	0.55219	0.94095	-0.097
Mof_H 	H 	0.7719	0.5441	0.9606	0.059
Mof_C 	C 	0.81329	0.55819	0.92607	0.024
Mof_C 	C 	0.81937	0.57137	0.89739	-0.098
Mof_H 	H 	0.8445	0.576	0.8878	0.055
Mof_C 	C 	0.79752	0.59502	0.85207	0.038
Mof_C 	C 	0.7802	0.62	0.8411	-0.218
Mof_H 	H 	0.7631	0.6261	0.8534	0.093
Mof_C 	C 	0.7871	0.6361	0.8131	0.163
Mof_H 	H 	0.7747	0.6523	0.8067	-0.041
Mof_C 	C 	0.8489	0.6365	0.8131	0.196
Mof_H 	H 	0.8776	0.6535	0.8068	-0.052
Mof_C 	C 	0.8399	0.6197	0.841	-0.249
Mof_H 	H 	0.8631	0.6249	0.8531	0.104
Mof_C 	C 	0.81386	0.62753	0.79407	-0.118
Mof_C 	C 	0.84709	0.55319	0.94273	0.063
Mof_C 	C 	0.85484	0.56424	0.97137	-0.141
Mof_H 	H 	0.8384	0.5744	0.9808	0.07
Mof_C 	C 	0.88658	0.56048	0.98734	0.066
Mof_H 	H 	0.8921	0.5692	0.0068	0.003
Mof_C 	C 	0.9098	0.54335	0.97323	-0.165
Mof_C 	C 	0.90201	0.53181	0.94455	0.058
Mof_H 	H 	0.9178	0.5208	0.9352	0.011
Mof_C 	C 	0.87022	0.53632	0.92872	-0.135
Mof_H 	H 	0.8648	0.528	0.9092	0.073
Mof_C 	C 	0.70615	0.55295	0.94261	0.06
Mof_C 	C 	0.7095	0.5643	0.97139	-0.137
Mof_H 	H 	0.7361	0.5748	0.9808	0.069
Mof_C 	C 	0.6737	0.5606	0.98734	0.063
Mof_H 	H 	0.6769	0.5694	0.0068	0.004
Mof_C 	C 	0.63347	0.54343	0.97329	-0.164
Mof_C 	C 	0.62975	0.53185	0.9445	0.054
Mof_H 	H 	0.6029	0.5208	0.9352	0.012
Mof_C 	C 	0.66622	0.53662	0.92873	-0.132
Mof_H 	H 	0.6633	0.5287	0.9091	0.071
Mof_C 	C 	0.9433	0.53905	0.99106	0.405
Mof_O 	O 	0.94659	0.54885	0.01703	-0.482
Mof_O 	O 	0.96516	0.52417	0.97759	-0.527
Mof_C 	C 	0.59567	0.53891	0.99111	0.404
Mof_O 	O 	0.60219	0.54875	0.0171	-0.483
Mof_O 	O 	0.559	0.52421	0.97755	-0.528
Mof_C 	C 	0.82343	0.64682	0.76415	0.394
Mof_O 	O 	0.85882	0.65414	0.75283	-0.478
Mof_O 	O 	0.7954	0.65422	0.75299	-0.477
Mof_C 	C 	0.7731	0.1693	0.8044	-0.173
Mof_C 	C 	0.7645	0.1791	0.8322	0.127
Mof_C 	C 	0.8218	0.2356	0.8324	0.098
Mof_C 	C 	0.831	0.2271	0.8049	-0.144
Mof_H 	H 	0.7499	0.1506	0.7925	0.085
Mof_H 	H 	0.7358	0.1696	0.8375	-0.023
Mof_H 	H 	0.8322	0.2643	0.8381	-0.012
Mof_H 	H 	0.8498	0.2504	0.7931	0.075
Mof_Ni	Ni	0.68683	0.79264	0.28222	1.061
Mof_Ni	Ni	0.68685	0.89419	0.28223	1.061
Mof_O 	O 	0.70428	0.85219	0.29741	-0.597
Mof_C 	C 	0.45557	0.91153	0.21536	0.027
Mof_C 	C 	0.41883	0.90489	0.23069	-0.1
Mof_H 	H 	0.39827	0.90953	0.22113	0.056
Mof_C 	C 	0.4116	0.89186	0.25941	0.026
Mof_C 	C 	0.44266	0.88552	0.27428	-0.098
Mof_H 	H 	0.43857	0.87743	0.29393	0.059
Mof_C 	C 	0.47996	0.89152	0.2594	0.025
Mof_C 	C 	0.48604	0.9047	0.23072	-0.099
Mof_H 	H 	0.51117	0.90933	0.22113	0.056
Mof_C 	C 	0.46419	0.92835	0.1854	0.037
Mof_C 	C 	0.44687	0.95333	0.17443	-0.218
Mof_H 	H 	0.42977	0.95943	0.18673	0.093
Mof_C 	C 	0.45377	0.96943	0.14643	0.163
Mof_H 	H 	0.44137	0.98563	0.14003	-0.04
Mof_C 	C 	0.51557	0.96983	0.14643	0.195
Mof_H 	H 	0.54427	0.98683	0.14013	-0.052
Mof_C 	C 	0.50657	0.95303	0.17433	-0.248
Mof_H 	H 	0.52977	0.95823	0.18643	0.103
Mof_C 	C 	0.48053	0.96086	0.1274	-0.117
Mof_C 	C 	0.51376	0.88652	0.27606	0.06
Mof_C 	C 	0.52151	0.89757	0.3047	-0.137
Mof_H 	H 	0.50507	0.90773	0.31413	0.069
Mof_C 	C 	0.55325	0.89381	0.32067	0.06
Mof_H 	H 	0.55877	0.90253	0.34013	0.006
Mof_C 	C 	0.57647	0.87668	0.30656	-0.163
Mof_C 	C 	0.56868	0.86514	0.27788	0.055
Mof_H 	H 	0.58447	0.85413	0.26853	0.012
Mof_C 	C 	0.53689	0.86965	0.26205	-0.133
Mof_H 	H 	0.53147	0.86133	0.24253	0.072
Mof_C 	C 	0.37282	0.88628	0.27594	0.057
Mof_C 	C 	0.37617	0.89763	0.30472	-0.134
Mof_H 	H 	0.40277	0.90813	0.31413	0.068
Mof_C 	C 	0.34037	0.89393	0.32067	0.058
Mof_H 	H 	0.34357	0.90273	0.34013	0.007
Mof_C 	C 	0.30014	0.87676	0.30662	-0.161
Mof_C 	C 	0.29642	0.86518	0.27783	0.052
Mof_H 	H 	0.26957	0.85413	0.26853	0.013
Mof_C 	C 	0.33289	0.86995	0.26206	-0.13
Mof_H 	H 	0.32997	0.86203	0.24243	0.07
Mof_C 	C 	0.60997	0.87238	0.32439	0.402
Mof_O 	O 	0.61326	0.88218	0.35036	-0.481
Mof_O 	O 	0.63183	0.8575	0.31092	-0.528
Mof_C 	C 	0.26234	0.87224	0.32444	0.401
Mof_O 	O 	0.26886	0.88208	0.35043	-0.481
Mof_O 	O 	0.22567	0.85754	0.31088	-0.527
Mof_C 	C 	0.4901	0.98015	0.09748	0.394
Mof_O 	O 	0.52549	0.98747	0.08616	-0.477
Mof_O 	O 	0.46207	0.98755	0.08632	-0.476
Mof_C 	C 	0.43977	0.50263	0.13773	-0.173
Mof_C 	C 	0.43117	0.51243	0.16553	0.128
Mof_C 	C 	0.48847	0.56893	0.16573	0.098
Mof_C 	C 	0.49767	0.56043	0.13823	-0.144
Mof_H 	H 	0.41657	0.48393	0.12583	0.085
Mof_H 	H 	0.40247	0.50293	0.17083	-0.023
Mof_H 	H 	0.49887	0.59763	0.17143	-0.013
Mof_H 	H 	0.51647	0.58373	0.12643	0.075
Mof_Ni	Ni	0.35349	0.12598	0.61556	1.061
Mof_Ni	Ni	0.35351	0.22753	0.61556	1.061
Mof_O 	O 	0.37094	0.18553	0.63075	-0.597
Mof_C 	C 	0.12223	0.24487	0.5487	0.028
Mof_C 	C 	0.08549	0.23823	0.56403	-0.102
Mof_H 	H 	0.06493	0.24287	0.55447	0.056
Mof_C 	C 	0.07826	0.2252	0.59275	0.029
Mof_C 	C 	0.10932	0.21886	0.60762	-0.101
Mof_H 	H 	0.10523	0.21077	0.62727	0.059
Mof_C 	C 	0.14662	0.22486	0.59274	0.026
Mof_C 	C 	0.1527	0.23804	0.56406	-0.101
Mof_H 	H 	0.17783	0.24267	0.55447	0.056
Mof_C 	C 	0.13085	0.26169	0.51874	0.037
Mof_C 	C 	0.11353	0.28667	0.50777	-0.218
Mof_H 	H 	0.09643	0.29277	0.52007	0.093
Mof_C 	C 	0.12043	0.30277	0.47977	0.162
Mof_H 	H 	0.10803	0.31897	0.47337	-0.041
Mof_C 	C 	0.18223	0.30317	0.47977	0.195
Mof_H 	H 	0.21093	0.32017	0.47347	-0.052
Mof_C 	C 	0.17323	0.28637	0.50767	-0.248
Mof_H 	H 	0.19643	0.29157	0.51977	0.103
Mof_C 	C 	0.14719	0.2942	0.46074	-0.118
Mof_C 	C 	0.18042	0.21986	0.6094	0.059
Mof_C 	C 	0.18817	0.23091	0.63804	-0.137
Mof_H 	H 	0.17173	0.24107	0.64747	0.068
Mof_C 	C 	0.21991	0.22715	0.65401	0.06
Mof_H 	H 	0.22543	0.23587	0.67347	0.006
Mof_C 	C 	0.24313	0.21002	0.6399	-0.163
Mof_C 	C 	0.23534	0.19848	0.61122	0.055
Mof_H 	H 	0.25113	0.18747	0.60187	0.012
Mof_C 	C 	0.20355	0.20299	0.59539	-0.133
Mof_H 	H 	0.19813	0.19467	0.57587	0.071
Mof_C 	C 	0.03948	0.21962	0.60928	0.048
Mof_C 	C 	0.04283	0.23097	0.63806	-0.126
Mof_H 	H 	0.06943	0.24147	0.64747	0.064
Mof_C 	C 	0.00703	0.22727	0.65401	0.047
Mof_H 	H 	0.01023	0.23607	0.67347	0.01
Mof_C 	C 	0.9668	0.2101	0.63996	-0.152
Mof_C 	C 	0.96308	0.19852	0.61117	0.044
Mof_H 	H 	0.93623	0.18747	0.60187	0.016
Mof_C 	C 	0.99955	0.20329	0.5954	-0.119
Mof_H 	H 	0.99663	0.19537	0.57577	0.067
Mof_C 	C 	0.27663	0.20572	0.65773	0.402
Mof_O 	O 	0.27992	0.21552	0.6837	-0.481
Mof_O 	O 	0.29849	0.19084	0.64426	-0.528
Mof_C 	C 	0.929	0.20558	0.65778	0.398
Mof_O 	O 	0.93552	0.21542	0.68377	-0.48
Mof_O 	O 	0.89233	0.19088	0.64422	-0.527
Mof_C 	C 	0.15676	0.31349	0.43082	0.394
Mof_O 	O 	0.19215	0.32081	0.4195	-0.478
Mof_O 	O 	0.12873	0.32089	0.41966	-0.477
Mof_C 	C 	0.10643	0.83597	0.47107	-0.173
Mof_C 	C 	0.09783	0.84577	0.49887	0.128
Mof_C 	C 	0.15513	0.90227	0.49907	0.098
Mof_C 	C 	0.16433	0.89377	0.47157	-0.144
Mof_H 	H 	0.08323	0.81727	0.45917	0.085
Mof_H 	H 	0.06913	0.83627	0.50417	-0.023
Mof_H 	H 	0.16553	0.93097	0.50477	-0.012
Mof_H 	H 	0.18313	0.91707	0.45977	0.075
Mof_Ni	Ni	0.54069	0.56085	0.94889	1.061
Mof_Ni	Ni	0.43914	0.45932	0.9489	1.061
Mof_O 	O 	0.48114	0.51875	0.96408	-0.596
Mof_C 	C 	0.4218	0.2107	0.88203	0.026
Mof_C 	C 	0.42844	0.1806	0.89736	-0.099
Mof_H 	H 	0.4238	0.1554	0.8878	0.055
Mof_C 	C 	0.44147	0.1864	0.92608	0.024
Mof_C 	C 	0.44781	0.2238	0.94095	-0.097
Mof_H 	H 	0.4559	0.2278	0.9606	0.058
Mof_C 	C 	0.44181	0.2551	0.92607	0.024
Mof_C 	C 	0.42863	0.248	0.89739	-0.098
Mof_H 	H 	0.424	0.2685	0.8878	0.055
Mof_C 	C 	0.40498	0.2025	0.85207	0.038
Mof_C 	C 	0.38	0.1602	0.8411	-0.219
Mof_H 	H 	0.3739	0.137	0.8534	0.093
Mof_C 	C 	0.3639	0.151	0.8131	0.163
Mof_H 	H 	0.3477	0.1224	0.8067	-0.041
Mof_C 	C 	0.3635	0.2124	0.8131	0.196
Mof_H 	H 	0.3465	0.2241	0.8068	-0.053
Mof_C 	C 	0.3803	0.2202	0.841	-0.249
Mof_H 	H 	0.3751	0.2382	0.8531	0.103
Mof_C 	C 	0.37247	0.18633	0.79407	-0.118
Mof_C 	C 	0.44681	0.2939	0.94273	0.063
Mof_C 	C 	0.43576	0.2906	0.97137	-0.141
Mof_H 	H 	0.4256	0.264	0.9808	0.07
Mof_C 	C 	0.43952	0.3261	0.98734	0.066
Mof_H 	H 	0.4308	0.3229	0.0068	0.003
Mof_C 	C 	0.45665	0.36645	0.97323	-0.166
Mof_C 	C 	0.46819	0.3702	0.94455	0.058
Mof_H 	H 	0.4792	0.397	0.9352	0.011
Mof_C 	C 	0.46368	0.3339	0.92872	-0.136
Mof_H 	H 	0.472	0.3368	0.9092	0.073
Mof_C 	C 	0.44705	0.1532	0.94261	0.06
Mof_C 	C 	0.4357	0.1452	0.97139	-0.138
Mof_H 	H 	0.4252	0.1613	0.9808	0.069
Mof_C 	C 	0.4394	0.1131	0.98734	0.063
Mof_H 	H 	0.4306	0.1075	0.0068	0.004
Mof_C 	C 	0.45657	0.09004	0.97329	-0.164
Mof_C 	C 	0.46815	0.0979	0.9445	0.054
Mof_H 	H 	0.4792	0.0821	0.9352	0.012
Mof_C 	C 	0.46338	0.1296	0.92873	-0.132
Mof_H 	H 	0.4713	0.1346	0.9091	0.071
Mof_C 	C 	0.46095	0.40425	0.99106	0.405
Mof_O 	O 	0.45115	0.39774	0.01703	-0.483
Mof_O 	O 	0.47583	0.44099	0.97759	-0.528
Mof_C 	C 	0.46109	0.05676	0.99111	0.404
Mof_O 	O 	0.45125	0.05344	0.0171	-0.484
Mof_O 	O 	0.47579	0.03479	0.97755	-0.529
Mof_C 	C 	0.35318	0.17661	0.76415	0.394
Mof_O 	O 	0.34586	0.20468	0.75283	-0.478
Mof_O 	O 	0.34578	0.14118	0.75299	-0.478
Mof_C 	C 	0.8307	0.6038	0.8044	-0.173
Mof_C 	C 	0.8209	0.5854	0.8322	0.127
Mof_C 	C 	0.7644	0.5862	0.8324	0.098
Mof_C 	C 	0.7729	0.6039	0.8049	-0.144
Mof_H 	H 	0.8494	0.5993	0.7925	0.085
Mof_H 	H 	0.8304	0.5662	0.8375	-0.023
Mof_H 	H 	0.7357	0.5679	0.8381	-0.012
Mof_H 	H 	0.7496	0.5994	0.7931	0.075
Mof_Ni	Ni	0.20736	0.89418	0.28222	1.061
Mof_Ni	Ni	0.10581	0.79265	0.28223	1.061
Mof_O 	O 	0.14781	0.85208	0.29741	-0.597
Mof_C 	C 	0.08847	0.54403	0.21536	0.027
Mof_C 	C 	0.09511	0.51393	0.23069	-0.1
Mof_H 	H 	0.09047	0.48873	0.22113	0.056
Mof_C 	C 	0.10814	0.51973	0.25941	0.026
Mof_C 	C 	0.11448	0.55713	0.27428	-0.098
Mof_H 	H 	0.12257	0.56113	0.29393	0.059
Mof_C 	C 	0.10848	0.58843	0.2594	0.025
Mof_C 	C 	0.0953	0.58133	0.23072	-0.099
Mof_H 	H 	0.09067	0.60183	0.22113	0.056
Mof_C 	C 	0.07165	0.53583	0.1854	0.038
Mof_C 	C 	0.04667	0.49353	0.17443	-0.219
Mof_H 	H 	0.04057	0.47033	0.18673	0.093
Mof_C 	C 	0.03057	0.48433	0.14643	0.163
Mof_H 	H 	0.01437	0.45573	0.14003	-0.042
Mof_C 	C 	0.03017	0.54573	0.14643	0.196
Mof_H 	H 	0.01317	0.55743	0.14013	-0.053
Mof_C 	C 	0.04697	0.55353	0.17433	-0.25
Mof_H 	H 	0.04177	0.57153	0.18643	0.103
Mof_C 	C 	0.03914	0.51966	0.1274	-0.118
Mof_C 	C 	0.11348	0.62723	0.27606	0.06
Mof_C 	C 	0.10243	0.62393	0.3047	-0.137
Mof_H 	H 	0.09227	0.59733	0.31413	0.068
Mof_C 	C 	0.10619	0.65943	0.32067	0.06
Mof_H 	H 	0.09747	0.65623	0.34013	0.006
Mof_C 	C 	0.12332	0.69978	0.30656	-0.163
Mof_C 	C 	0.13486	0.70353	0.27788	0.055
Mof_H 	H 	0.14587	0.73033	0.26853	0.012
Mof_C 	C 	0.13035	0.66723	0.26205	-0.133
Mof_H 	H 	0.13867	0.67013	0.24253	0.072
Mof_C 	C 	0.11372	0.48653	0.27594	0.057
Mof_C 	C 	0.10237	0.47853	0.30472	-0.134
Mof_H 	H 	0.09187	0.49463	0.31413	0.067
Mof_C 	C 	0.10607	0.44643	0.32067	0.058
Mof_H 	H 	0.09727	0.44083	0.34013	0.007
Mof_C 	C 	0.12324	0.42337	0.30662	-0.161
Mof_C 	C 	0.13482	0.43123	0.27783	0.052
Mof_H 	H 	0.14587	0.41543	0.26853	0.013
Mof_C 	C 	0.13005	0.46293	0.26206	-0.13
Mof_H 	H 	0.13797	0.46793	0.24243	0.07
Mof_C 	C 	0.12762	0.73758	0.32439	0.402
Mof_O 	O 	0.11782	0.73107	0.35036	-0.481
Mof_O 	O 	0.1425	0.77432	0.31092	-0.528
Mof_C 	C 	0.12776	0.39009	0.32444	0.401
Mof_O 	O 	0.11792	0.38677	0.35043	-0.481
Mof_O 	O 	0.14246	0.36812	0.31088	-0.527
Mof_C 	C 	0.01985	0.50994	0.09748	0.394
Mof_O 	O 	0.01253	0.53801	0.08616	-0.479
Mof_O 	O 	0.01245	0.47451	0.08632	-0.479
Mof_C 	C 	0.49737	0.93713	0.13773	-0.173
Mof_C 	C 	0.48757	0.91873	0.16553	0.127
Mof_C 	C 	0.43107	0.91953	0.16573	0.098
Mof_C 	C 	0.43957	0.93723	0.13823	-0.144
Mof_H 	H 	0.51607	0.93263	0.12583	0.085
Mof_H 	H 	0.49707	0.89953	0.17083	-0.022
Mof_H 	H 	0.40237	0.90123	0.17143	-0.012
Mof_H 	H 	0.41627	0.93273	0.12643	0.075
Mof_Ni	Ni	0.87402	0.22752	0.61556	1.061
Mof_Ni	Ni	0.77247	0.12599	0.61556	1.061
Mof_O 	O 	0.81447	0.18542	0.63075	-0.597
Mof_C 	C 	0.75513	0.87737	0.5487	0.026
Mof_C 	C 	0.76177	0.84727	0.56403	-0.098
Mof_H 	H 	0.75713	0.82207	0.55447	0.055
Mof_C 	C 	0.7748	0.85307	0.59275	0.025
Mof_C 	C 	0.78114	0.89047	0.60762	-0.096
Mof_H 	H 	0.78923	0.89447	0.62727	0.058
Mof_C 	C 	0.77514	0.92177	0.59274	0.022
Mof_C 	C 	0.76196	0.91467	0.56406	-0.097
Mof_H 	H 	0.75733	0.93517	0.55447	0.055
Mof_C 	C 	0.73831	0.86917	0.51874	0.038
Mof_C 	C 	0.71333	0.82687	0.50777	-0.219
Mof_H 	H 	0.70723	0.80367	0.52007	0.093
Mof_C 	C 	0.69723	0.81767	0.47977	0.163
Mof_H 	H 	0.68103	0.78907	0.47337	-0.041
Mof_C 	C 	0.69683	0.87907	0.47977	0.197
Mof_H 	H 	0.67983	0.89077	0.47347	-0.052
Mof_C 	C 	0.71363	0.88687	0.50767	-0.25
Mof_H 	H 	0.70843	0.90487	0.51977	0.104
Mof_C 	C 	0.7058	0.853	0.46074	-0.118
Mof_C 	C 	0.78014	0.96057	0.6094	0.07
Mof_C 	C 	0.76909	0.95727	0.63804	-0.145
Mof_H 	H 	0.75893	0.93067	0.64747	0.072
Mof_C 	C 	0.77285	0.99277	0.65401	0.071
Mof_H 	H 	0.76413	0.98957	0.67347	0.004
Mof_C 	C 	0.78998	0.03312	0.6399	-0.171
Mof_C 	C 	0.80152	0.03687	0.61122	0.063
Mof_H 	H 	0.81253	0.06367	0.60187	0.009
Mof_C 	C 	0.79701	0.00057	0.59539	-0.144
Mof_H 	H 	0.80533	0.00347	0.57587	0.075
Mof_C 	C 	0.78038	0.81987	0.60928	0.058
Mof_C 	C 	0.76903	0.81187	0.63806	-0.134
Mof_H 	H 	0.75853	0.82797	0.64747	0.068
Mof_C 	C 	0.77273	0.77977	0.65401	0.058
Mof_H 	H 	0.76393	0.77417	0.67347	0.007
Mof_C 	C 	0.7899	0.75671	0.63996	-0.161
Mof_C 	C 	0.80148	0.76457	0.61117	0.052
Mof_H 	H 	0.81253	0.74877	0.60187	0.013
Mof_C 	C 	0.79671	0.79627	0.5954	-0.13
Mof_H 	H 	0.80463	0.80127	0.57577	0.071
Mof_C 	C 	0.79428	0.07092	0.65773	0.404
Mof_O 	O 	0.78448	0.06441	0.6837	-0.482
Mof_O 	O 	0.80916	0.10766	0.64426	-0.528
Mof_C 	C 	0.79442	0.72343	0.65778	0.401
Mof_O 	O 	0.78458	0.72011	0.68377	-0.481
Mof_O 	O 	0.80912	0.70146	0.64422	-0.527
Mof_C 	C 	0.68651	0.84328	0.43082	0.394
Mof_O 	O 	0.67919	0.87135	0.4195	-0.478
Mof_O 	O 	0.67911	0.80785	0.41966	-0.477
Mof_C 	C 	0.16403	0.27047	0.47107	-0.173
Mof_C 	C 	0.15423	0.25207	0.49887	0.127
Mof_C 	C 	0.09773	0.25287	0.49907	0.098
Mof_C 	C 	0.10623	0.27057	0.47157	-0.144
Mof_H 	H 	0.18273	0.26597	0.45917	0.085
Mof_H 	H 	0.16373	0.23287	0.50417	-0.023
Mof_H 	H 	0.06903	0.23457	0.50477	-0.013
Mof_H 	H 	0.08293	0.26607	0.45977	0.074
Mof_Ni	Ni	0.5	0	-0	1.099
Mof_Ni	Ni	0.16667	0.33333	0.33333	1.101
Mof_Ni	Ni	0.83333	0.66667	0.66667	1.101
Mof_Ni	Ni	3.666e-17	0.5	-0	1.099
Mof_Ni	Ni	0.66667	0.83333	0.33333	1.101
Mof_Ni	Ni	0.33333	0.16667	0.66667	1.101
Mof_Ni	Ni	0.5	0.5	-0	1.101
Mof_Ni	Ni	0.16667	0.83333	0.33333	1.101
Mof_Ni	Ni	0.83333	0.16667	0.66667	1.101
_end
