# CIF file generated by openbabel 3.1.0, see https://openbabel.org
data_I
_chemical_name_common 'image0'
_cell_length_a 13.936
_cell_length_b 13.936
_cell_length_c 17.469
_cell_angle_alpha 90
_cell_angle_beta 90
_cell_angle_gamma 90
_space_group_name_H-M_alt 'P 1'
_space_group_name_Hall 'P 1'
loop_
    _symmetry_equiv_pos_as_xyz
    x,y,z
loop_
    _atom_site_label
    _atom_site_type_symbol
    _atom_site_fract_x
    _atom_site_fract_y
    _atom_site_fract_z
    _atom_site_occupancy
    Nd1      Nd       0.28547    0.67676    0.74981    1.000
    N1       N        0.47060    0.67730    0.75030    1.000
    O1       O        0.36730    0.56460    0.84180    1.000
    O2       O        0.17260    0.67370    0.64500    1.000
    O3       O        0.36830    0.78830    0.65840    1.000
    O4       O        0.50360    0.84990    0.60520    1.000
    O5       O        0.11180    0.54400    0.90780    1.000
    O6       O        0.50250    0.50560    0.89670    1.000
    O7       O        0.17140    0.68020    0.85360    1.000
    O8       O        0.11220    0.80870    0.59180    1.000
    C1       C        0.05600    0.65710    0.54840    1.000
    C2       C        0.52030    0.73290    0.70140    1.000
    C3       C        0.51940    0.62150    0.79880    1.000
    C4       C        0.66890    0.67730    0.75070    1.000
    H1       H        0.73560    0.67770    0.75110    1.000
    C5       C        0.11900    0.71860    0.59960    1.000
    C6       C        0.61820    0.62020    0.80170    1.000
    H2       H        0.65020    0.58200    0.83710    1.000
    C7       C        0.45950    0.79580    0.65020    1.000
    C8       C        0.61910    0.73330    0.69940    1.000
    H3       H        0.65170    0.77080    0.66390    1.000
    C9       C        0.11820    0.63450    0.89990    1.000
    C10      C        0.05580    0.69710    0.95100    1.000
    C11      C        0.05550    0.79580    0.94840    1.000
    H4       H        0.09210    0.82860    0.91240    1.000
    C12      C        0.45780    0.55800    0.85040    1.000
    C13      C        0.05640    0.55710    0.55170    1.000
    H5       H        0.09360    0.52490    0.58760    1.000
    Nd2      Nd       0.78547    0.17676    0.24981    1.000
    N2       N        0.97060    0.17730    0.25030    1.000
    O9       O        0.86730    0.06460    0.34180    1.000
    O10      O        0.67260    0.17370    0.14500    1.000
    O11      O        0.86830    0.28830    0.15840    1.000
    O12      O        0.00360    0.34990    0.10520    1.000
    O13      O        0.61180    0.04400    0.40780    1.000
    O14      O        0.00250    0.00560    0.39670    1.000
    O15      O        0.67140    0.18020    0.35360    1.000
    O16      O        0.61220    0.30870    0.09180    1.000
    C14      C        0.55600    0.15710    0.04840    1.000
    C15      C        0.02030    0.23290    0.20140    1.000
    C16      C        0.01940    0.12150    0.29880    1.000
    C17      C        0.16890    0.17730    0.25070    1.000
    H6       H        0.23560    0.17770    0.25110    1.000
    C18      C        0.61900    0.21860    0.09960    1.000
    C19      C        0.11820    0.12020    0.30170    1.000
    H7       H        0.15020    0.08200    0.33710    1.000
    C20      C        0.95950    0.29580    0.15020    1.000
    C21      C        0.11910    0.23330    0.19940    1.000
    H8       H        0.15170    0.27080    0.16390    1.000
    C22      C        0.61820    0.13450    0.39990    1.000
    C23      C        0.55580    0.19710    0.45100    1.000
    C24      C        0.55550    0.29580    0.44840    1.000
    H9       H        0.59210    0.32860    0.41240    1.000
    C25      C        0.95780    0.05800    0.35040    1.000
    C26      C        0.55640    0.05710    0.05170    1.000
    H10      H        0.59360    0.02490    0.08760    1.000
    Nd3      Nd       0.71453    0.67676    0.25019    1.000
    N3       N        0.52940    0.67730    0.24970    1.000
    O17      O        0.63270    0.56460    0.15820    1.000
    O18      O        0.82740    0.67370    0.35500    1.000
    O19      O        0.63170    0.78830    0.34160    1.000
    O20      O        0.49640    0.84990    0.39480    1.000
    O21      O        0.88820    0.54400    0.09220    1.000
    O22      O        0.49750    0.50560    0.10330    1.000
    O23      O        0.82860    0.68020    0.14640    1.000
    O24      O        0.88780    0.80870    0.40820    1.000
    C27      C        0.94400    0.65710    0.45160    1.000
    C28      C        0.47970    0.73290    0.29860    1.000
    C29      C        0.48060    0.62150    0.20120    1.000
    C30      C        0.33110    0.67730    0.24930    1.000
    H11      H        0.26440    0.67770    0.24890    1.000
    C31      C        0.88100    0.71860    0.40040    1.000
    C32      C        0.38180    0.62020    0.19830    1.000
    H12      H        0.34980    0.58200    0.16290    1.000
    C33      C        0.54050    0.79580    0.34980    1.000
    C34      C        0.38090    0.73330    0.30060    1.000
    H13      H        0.34830    0.77080    0.33610    1.000
    C35      C        0.88180    0.63450    0.10010    1.000
    C36      C        0.94420    0.69710    0.04900    1.000
    C37      C        0.94450    0.79580    0.05160    1.000
    H14      H        0.90790    0.82860    0.08760    1.000
    C38      C        0.54220    0.55800    0.14960    1.000
    C39      C        0.94360    0.55710    0.44830    1.000
    H15      H        0.90640    0.52490    0.41240    1.000
    Nd4      Nd       0.21453    0.17676    0.75019    1.000
    N4       N        0.02940    0.17730    0.74970    1.000
    O25      O        0.13270    0.06460    0.65820    1.000
    O26      O        0.32740    0.17370    0.85500    1.000
    O27      O        0.13170    0.28830    0.84160    1.000
    O28      O        0.99640    0.34990    0.89480    1.000
    O29      O        0.38820    0.04400    0.59220    1.000
    O30      O        0.99750    0.00560    0.60330    1.000
    O31      O        0.32860    0.18020    0.64640    1.000
    O32      O        0.38780    0.30870    0.90820    1.000
    C40      C        0.44400    0.15710    0.95160    1.000
    C41      C        0.97970    0.23290    0.79860    1.000
    C42      C        0.98060    0.12150    0.70120    1.000
    C43      C        0.83110    0.17730    0.74930    1.000
    H16      H        0.76440    0.17770    0.74890    1.000
    C44      C        0.38100    0.21860    0.90040    1.000
    C45      C        0.88180    0.12020    0.69830    1.000
    H17      H        0.84980    0.08200    0.66290    1.000
    C46      C        0.04050    0.29580    0.84980    1.000
    C47      C        0.88090    0.23330    0.80060    1.000
    H18      H        0.84830    0.27080    0.83610    1.000
    C48      C        0.38180    0.13450    0.60010    1.000
    C49      C        0.44420    0.19710    0.54900    1.000
    C50      C        0.44450    0.29580    0.55160    1.000
    H19      H        0.40790    0.32860    0.58760    1.000
    C51      C        0.04220    0.05800    0.64960    1.000
    C52      C        0.44360    0.05710    0.94830    1.000
    H20      H        0.40640    0.02490    0.91240    1.000
    Nd5      Nd       0.50000    0.96231    0.50000    1.000
    Nd6      Nd       0.00000    0.46231    0.00000    1.000
    Nd7      Nd       0.00000    0.89133    0.50000    1.000
    N5       N        0.00000    0.70600    0.50000    1.000
    C53      C        0.00000    0.50700    0.50000    1.000
    H21      H        0.00000    0.44030    0.50000    1.000
    Nd8      Nd       0.50000    0.39133    0.00000    1.000
    N6       N        0.50000    0.20600    0.00000    1.000
    C54      C        0.50000    0.00700    0.00000    1.000
    H22      H        0.50000    0.94030    0.00000    1.000
    N7       N        0.00000    0.64630    0.00000    1.000
    C55      C        0.00000    0.84450    0.00000    1.000
    H23      H        0.00000    0.91130    0.00000    1.000
    N8       N        0.50000    0.14630    0.50000    1.000
    C56      C        0.50000    0.34450    0.50000    1.000
    H24      H        0.50000    0.41130    0.50000    1.000
