data_functionalizedCrystal
_audit_creation_method	'EQeq! by Chris Wilmer'
_symmetry_space_group_name_H-M	'P1'
_symmetry_Int_Tables_number	1
_symmetry_cell_setting	triclinic
loop_
_symmetry_equiv_pos_as_xyz
  x,y,z
_cell_length_a	9.189
_cell_length_b	14.1036
_cell_length_c	18.3518
_cell_angle_alpha	90
_cell_angle_beta	117.157
_cell_angle_gamma	90
loop_
_atom_site_label
_atom_site_type_symbol
_atom_site_fract_x
_atom_site_fract_y
_atom_site_fract_z
_atom_site_charge
Mof_Hg	Hg	0.56352	0.7981	0.58086	0.133
Mof_Fe	Fe	0.23151	0.6515	0.75298	0.577
Mof_S 	S 	0.71129	0.77187	0.73255	-0.086
Mof_S 	S 	0.27126	0.84379	0.5388	-0.068
Mof_S 	S 	0.7201	0.91503	0.53963	-0.072
Mof_S 	S 	0.55848	0.65272	0.49424	-0.078
Mof_N 	N 	0.3894	0.753	0.3478	-0.185
Mof_N 	N 	0.7517	0.0555	0.6529	-0.197
Mof_N 	N 	0.2339	0.7416	0.6602	-0.195
Mof_N 	N 	0.0155	0.7176	0.7466	-0.189
Mof_C 	C 	0.4601	0.712	0.408	0.09
Mof_C 	C 	0.2513	0.7831	0.6109	0.086
Mof_C 	C 	0.7368	0.9986	0.6071	0.095
Mof_C 	C 	0.8912	0.7409	0.739	0.092
Mof_Hg	Hg	0.43648	0.2981	0.91914	0.132
Mof_Fe	Fe	0.76849	0.1515	0.74702	0.576
Mof_S 	S 	0.28871	0.27187	0.76745	-0.087
Mof_S 	S 	0.72874	0.34379	0.9612	-0.069
Mof_S 	S 	0.2799	0.41503	0.96037	-0.072
Mof_S 	S 	0.44152	0.15272	0.00576	-0.078
Mof_N 	N 	0.6106	0.253	0.1522	-0.185
Mof_N 	N 	0.2483	0.5555	0.8471	-0.197
Mof_N 	N 	0.7661	0.2416	0.8398	-0.195
Mof_N 	N 	0.9845	0.2176	0.7534	-0.189
Mof_C 	C 	0.5399	0.212	0.092	0.09
Mof_C 	C 	0.7487	0.2831	0.8891	0.086
Mof_C 	C 	0.2632	0.4986	0.8929	0.095
Mof_C 	C 	0.1088	0.2409	0.761	0.092
Mof_Hg	Hg	0.43648	0.2019	0.41914	0.132
Mof_Fe	Fe	0.76849	0.3485	0.24702	0.576
Mof_S 	S 	0.28871	0.22813	0.26745	-0.087
Mof_S 	S 	0.72874	0.15621	0.4612	-0.069
Mof_S 	S 	0.2799	0.08497	0.46037	-0.072
Mof_S 	S 	0.44152	0.34728	0.50576	-0.078
Mof_N 	N 	0.6106	0.247	0.6522	-0.185
Mof_N 	N 	0.2483	0.9445	0.3471	-0.197
Mof_N 	N 	0.7661	0.2584	0.3398	-0.195
Mof_N 	N 	0.9845	0.2824	0.2534	-0.189
Mof_C 	C 	0.5399	0.288	0.592	0.09
Mof_C 	C 	0.7487	0.2169	0.3891	0.086
Mof_C 	C 	0.2632	0.0014	0.3929	0.095
Mof_C 	C 	0.1088	0.2591	0.261	0.092
Mof_Hg	Hg	0.56352	0.7019	0.08086	0.132
Mof_Fe	Fe	0.23151	0.8485	0.25298	0.576
Mof_S 	S 	0.71129	0.72813	0.23255	-0.087
Mof_S 	S 	0.27126	0.65621	0.0388	-0.069
Mof_S 	S 	0.7201	0.58497	0.03963	-0.072
Mof_S 	S 	0.55848	0.84728	0.99424	-0.078
Mof_N 	N 	0.3894	0.747	0.8478	-0.185
Mof_N 	N 	0.7517	0.4445	0.1529	-0.197
Mof_N 	N 	0.2339	0.7584	0.1602	-0.195
Mof_N 	N 	0.0155	0.7824	0.2466	-0.189
Mof_C 	C 	0.4601	0.788	0.908	0.09
Mof_C 	C 	0.2513	0.7169	0.1109	0.086
Mof_C 	C 	0.7368	0.5014	0.1071	0.095
Mof_C 	C 	0.8912	0.7591	0.239	0.092
_end
