# CIF file generated by openbabel 3.1.0, see https://openbabel.org
data_I
_chemical_name_common 'image0'
_cell_length_a 21.9415
_cell_length_b 19.2703
_cell_length_c 8.905
_cell_angle_alpha 90
_cell_angle_beta 90
_cell_angle_gamma 90
_space_group_name_H-M_alt 'P 1'
_space_group_name_Hall 'P 1'
loop_
    _symmetry_equiv_pos_as_xyz
    x,y,z
loop_
    _atom_site_label
    _atom_site_type_symbol
    _atom_site_fract_x
    _atom_site_fract_y
    _atom_site_fract_z
    _atom_site_occupancy
    C1       C        0.49923    0.15299    0.44380    1.000
    C2       C        0.50117    0.18082    0.55860    1.000
    N1       N        0.42530    0.03387    0.25620    1.000
    C3       C        0.42958    0.97045    0.19900    1.000
    H1       H        0.46200    0.95990    0.13560    1.000
    N2       N        0.33803    0.93186    0.31570    1.000
    C4       C        0.38690    0.91970    0.23140    1.000
    H2       H        0.39260    0.87540    0.19270    1.000
    N3       N        0.26437    0.07718    0.48790    1.000
    C5       C        0.33234    0.99665    0.36850    1.000
    N4       N        0.14614    0.17971    0.65690    1.000
    C6       C        0.37612    0.04615    0.33970    1.000
    H3       H        0.37110    0.09020    0.38050    1.000
    N5       N        0.21540    0.28290    0.52780    1.000
    C7       C        0.27677    0.01028    0.46070    1.000
    N6       N        0.06983    0.80337    0.72020    1.000
    C8       C        0.24135    0.95653    0.50910    1.000
    H4       H        0.25200    0.91110    0.48550    1.000
    C9       C        0.18955    0.96955    0.59320    1.000
    C10      C        0.14810    0.91197    0.63980    1.000
    C11      C        0.14150    0.85380    0.55120    1.000
    H5       H        0.16350    0.84970    0.46240    1.000
    C12      C        0.10270    0.80240    0.59380    1.000
    H6       H        0.09880    0.76410    0.53100    1.000
    C13      C        0.07684    0.85900    0.80290    1.000
    H7       H        0.05460    0.86160    0.89160    1.000
    C14      C        0.11430    0.91320    0.76910    1.000
    H8       H        0.11680    0.95100    0.83370    1.000
    C15      C        0.17687    0.03881    0.62560    1.000
    H9       H        0.14340    0.05020    0.68470    1.000
    C16      C        0.21436    0.09071    0.56920    1.000
    C17      C        0.19816    0.16507    0.58830    1.000
    C18      C        0.13000    0.24670    0.66270    1.000
    H10      H        0.09440    0.25900    0.71310    1.000
    C19      C        0.16370    0.29640    0.59770    1.000
    H11      H        0.15010    0.34200    0.60210    1.000
    C20      C        0.23160    0.21680    0.52500    1.000
    H12      H        0.26790    0.20500    0.47710    1.000
    N7       N        0.50077    0.15299    0.05620    1.000
    C21      C        0.49883    0.18082    0.94140    1.000
    N8       N        0.57470    0.03387    0.24380    1.000
    C22      C        0.57042    0.97045    0.30100    1.000
    H13      H        0.53800    0.95990    0.36440    1.000
    N9       N        0.66197    0.93186    0.18430    1.000
    C23      C        0.61310    0.91970    0.26860    1.000
    H14      H        0.60740    0.87540    0.30730    1.000
    N10      N        0.73563    0.07718    0.01210    1.000
    C24      C        0.66766    0.99665    0.13150    1.000
    N11      N        0.85386    0.17971    0.84310    1.000
    C25      C        0.62388    0.04615    0.16030    1.000
    H15      H        0.62890    0.09020    0.11950    1.000
    N12      N        0.78460    0.28290    0.97220    1.000
    C26      C        0.72323    0.01028    0.03930    1.000
    N13      N        0.93017    0.80337    0.77980    1.000
    C27      C        0.75865    0.95653    0.99090    1.000
    H16      H        0.74800    0.91110    0.01450    1.000
    C28      C        0.81045    0.96955    0.90680    1.000
    C29      C        0.85190    0.91197    0.86020    1.000
    C30      C        0.85850    0.85380    0.94880    1.000
    H17      H        0.83650    0.84970    0.03760    1.000
    C31      C        0.89730    0.80240    0.90620    1.000
    H18      H        0.90120    0.76410    0.96900    1.000
    C32      C        0.92316    0.85900    0.69710    1.000
    H19      H        0.94540    0.86160    0.60840    1.000
    C33      C        0.88570    0.91320    0.73090    1.000
    H20      H        0.88320    0.95100    0.66630    1.000
    C34      C        0.82313    0.03881    0.87440    1.000
    H21      H        0.85660    0.05020    0.81530    1.000
    C35      C        0.78564    0.09071    0.93080    1.000
    C36      C        0.80184    0.16507    0.91170    1.000
    C37      C        0.87000    0.24670    0.83730    1.000
    H22      H        0.90560    0.25900    0.78690    1.000
    C38      C        0.83630    0.29640    0.90230    1.000
    H23      H        0.84990    0.34200    0.89790    1.000
    C39      C        0.76840    0.21680    0.97500    1.000
    H24      H        0.73210    0.20500    0.02290    1.000
    C40      C        0.99923    0.65299    0.05620    1.000
    C41      C        0.00117    0.68082    0.94140    1.000
    N14      N        0.92530    0.53387    0.24380    1.000
    C42      C        0.92958    0.47045    0.30100    1.000
    H25      H        0.96200    0.45990    0.36440    1.000
    N15      N        0.83803    0.43186    0.18430    1.000
    C43      C        0.88690    0.41970    0.26860    1.000
    H26      H        0.89260    0.37540    0.30730    1.000
    N16      N        0.76437    0.57718    0.01210    1.000
    C44      C        0.83234    0.49665    0.13150    1.000
    N17      N        0.64614    0.67971    0.84310    1.000
    C45      C        0.87612    0.54615    0.16030    1.000
    H27      H        0.87110    0.59020    0.11950    1.000
    N18      N        0.71540    0.78290    0.97220    1.000
    C46      C        0.77677    0.51028    0.03930    1.000
    N19      N        0.56983    0.30337    0.77980    1.000
    C47      C        0.74135    0.45653    0.99090    1.000
    H28      H        0.75200    0.41110    0.01450    1.000
    C48      C        0.68955    0.46955    0.90680    1.000
    C49      C        0.64810    0.41197    0.86020    1.000
    C50      C        0.64150    0.35380    0.94880    1.000
    H29      H        0.66350    0.34970    0.03760    1.000
    C51      C        0.60270    0.30240    0.90620    1.000
    H30      H        0.59880    0.26410    0.96900    1.000
    C52      C        0.57684    0.35900    0.69710    1.000
    H31      H        0.55460    0.36160    0.60840    1.000
    C53      C        0.61430    0.41320    0.73090    1.000
    H32      H        0.61680    0.45100    0.66630    1.000
    C54      C        0.67687    0.53881    0.87440    1.000
    H33      H        0.64340    0.55020    0.81530    1.000
    C55      C        0.71436    0.59071    0.93080    1.000
    C56      C        0.69816    0.66507    0.91170    1.000
    C57      C        0.63000    0.74670    0.83730    1.000
    H34      H        0.59440    0.75900    0.78690    1.000
    C58      C        0.66370    0.79640    0.90230    1.000
    H35      H        0.65010    0.84200    0.89790    1.000
    C59      C        0.73160    0.71680    0.97500    1.000
    H36      H        0.76790    0.70500    0.02290    1.000
    N20      N        0.00077    0.65299    0.44380    1.000
    C60      C        0.99883    0.68082    0.55860    1.000
    N21      N        0.07470    0.53387    0.25620    1.000
    C61      C        0.07042    0.47045    0.19900    1.000
    H37      H        0.03800    0.45990    0.13560    1.000
    N22      N        0.16197    0.43186    0.31570    1.000
    C62      C        0.11310    0.41970    0.23140    1.000
    H38      H        0.10740    0.37540    0.19270    1.000
    N23      N        0.23563    0.57718    0.48790    1.000
    C63      C        0.16766    0.49665    0.36850    1.000
    N24      N        0.35386    0.67971    0.65690    1.000
    C64      C        0.12388    0.54615    0.33970    1.000
    H39      H        0.12890    0.59020    0.38050    1.000
    N25      N        0.28460    0.78290    0.52780    1.000
    C65      C        0.22323    0.51028    0.46070    1.000
    N26      N        0.43017    0.30337    0.72020    1.000
    C66      C        0.25865    0.45653    0.50910    1.000
    H40      H        0.24800    0.41110    0.48550    1.000
    C67      C        0.31045    0.46955    0.59320    1.000
    C68      C        0.35190    0.41197    0.63980    1.000
    C69      C        0.35850    0.35380    0.55120    1.000
    H41      H        0.33650    0.34970    0.46240    1.000
    C70      C        0.39730    0.30240    0.59380    1.000
    H42      H        0.40120    0.26410    0.53100    1.000
    C71      C        0.42316    0.35900    0.80290    1.000
    H43      H        0.44540    0.36160    0.89160    1.000
    C72      C        0.38570    0.41320    0.76910    1.000
    H44      H        0.38320    0.45100    0.83370    1.000
    C73      C        0.32313    0.53881    0.62560    1.000
    H45      H        0.35660    0.55020    0.68470    1.000
    C74      C        0.28564    0.59071    0.56920    1.000
    C75      C        0.30184    0.66507    0.58830    1.000
    C76      C        0.37000    0.74670    0.66270    1.000
    H46      H        0.40560    0.75900    0.71310    1.000
    C77      C        0.33630    0.79640    0.59770    1.000
    H47      H        0.34990    0.84200    0.60210    1.000
    C78      C        0.26840    0.71680    0.52500    1.000
    H48      H        0.23210    0.70500    0.47710    1.000
    Cu1      Cu       0.50000    0.10918    0.25000    1.000
    Cu2      Cu       0.00000    0.60918    0.25000    1.000
    Cu3      Cu       0.50000    0.22632    0.75000    1.000
    Cu4      Cu       0.00000    0.72632    0.75000    1.000
    C79      C        0.00077    0.34701    0.94380    1.000
    C80      C        0.99883    0.31918    0.05860    1.000
    N27      N        0.07470    0.46613    0.75620    1.000
    C81      C        0.07042    0.52955    0.69900    1.000
    H49      H        0.03800    0.54010    0.63560    1.000
    N28      N        0.16197    0.56814    0.81570    1.000
    C82      C        0.11310    0.58030    0.73140    1.000
    H50      H        0.10740    0.62460    0.69270    1.000
    N29      N        0.23563    0.42282    0.98790    1.000
    C83      C        0.16766    0.50335    0.86850    1.000
    N30      N        0.35386    0.32029    0.15690    1.000
    C84      C        0.12388    0.45385    0.83970    1.000
    H51      H        0.12890    0.40980    0.88050    1.000
    N31      N        0.28460    0.21710    0.02780    1.000
    C85      C        0.22323    0.48972    0.96070    1.000
    N32      N        0.43017    0.69663    0.22020    1.000
    C86      C        0.25865    0.54347    0.00910    1.000
    H52      H        0.24800    0.58890    0.98550    1.000
    C87      C        0.31045    0.53045    0.09320    1.000
    C88      C        0.35190    0.58803    0.13980    1.000
    C89      C        0.35850    0.64620    0.05120    1.000
    H53      H        0.33650    0.65030    0.96240    1.000
    C90      C        0.39730    0.69760    0.09380    1.000
    H54      H        0.40120    0.73590    0.03100    1.000
    C91      C        0.42316    0.64100    0.30290    1.000
    H55      H        0.44540    0.63840    0.39160    1.000
    C92      C        0.38570    0.58680    0.26910    1.000
    H56      H        0.38320    0.54900    0.33370    1.000
    C93      C        0.32313    0.46119    0.12560    1.000
    H57      H        0.35660    0.44980    0.18470    1.000
    C94      C        0.28564    0.40929    0.06920    1.000
    C95      C        0.30184    0.33493    0.08830    1.000
    C96      C        0.37000    0.25330    0.16270    1.000
    H58      H        0.40560    0.24100    0.21310    1.000
    C97      C        0.33630    0.20360    0.09770    1.000
    H59      H        0.34990    0.15800    0.10210    1.000
    C98      C        0.26840    0.28320    0.02500    1.000
    H60      H        0.23210    0.29500    0.97710    1.000
    N33      N        0.99923    0.34701    0.55620    1.000
    C99      C        0.00117    0.31918    0.44140    1.000
    N34      N        0.92530    0.46613    0.74380    1.000
    C100     C        0.92958    0.52955    0.80100    1.000
    H61      H        0.96200    0.54010    0.86440    1.000
    N35      N        0.83803    0.56814    0.68430    1.000
    C101     C        0.88690    0.58030    0.76860    1.000
    H62      H        0.89260    0.62460    0.80730    1.000
    N36      N        0.76437    0.42282    0.51210    1.000
    C102     C        0.83234    0.50335    0.63150    1.000
    N37      N        0.64614    0.32029    0.34310    1.000
    C103     C        0.87612    0.45385    0.66030    1.000
    H63      H        0.87110    0.40980    0.61950    1.000
    N38      N        0.71540    0.21710    0.47220    1.000
    C104     C        0.77677    0.48972    0.53930    1.000
    N39      N        0.56983    0.69663    0.27980    1.000
    C105     C        0.74135    0.54347    0.49090    1.000
    H64      H        0.75200    0.58890    0.51450    1.000
    C106     C        0.68955    0.53045    0.40680    1.000
    C107     C        0.64810    0.58803    0.36020    1.000
    C108     C        0.64150    0.64620    0.44880    1.000
    H65      H        0.66350    0.65030    0.53760    1.000
    C109     C        0.60270    0.69760    0.40620    1.000
    H66      H        0.59880    0.73590    0.46900    1.000
    C110     C        0.57684    0.64100    0.19710    1.000
    H67      H        0.55460    0.63840    0.10840    1.000
    C111     C        0.61430    0.58680    0.23090    1.000
    H68      H        0.61680    0.54900    0.16630    1.000
    C112     C        0.67687    0.46119    0.37440    1.000
    H69      H        0.64340    0.44980    0.31530    1.000
    C113     C        0.71436    0.40929    0.43080    1.000
    C114     C        0.69816    0.33493    0.41170    1.000
    C115     C        0.63000    0.25330    0.33730    1.000
    H70      H        0.59440    0.24100    0.28690    1.000
    C116     C        0.66370    0.20360    0.40230    1.000
    H71      H        0.65010    0.15800    0.39790    1.000
    C117     C        0.73160    0.28320    0.47500    1.000
    H72      H        0.76790    0.29500    0.52290    1.000
    C118     C        0.50077    0.84701    0.55620    1.000
    C119     C        0.49883    0.81918    0.44140    1.000
    N40      N        0.57470    0.96613    0.74380    1.000
    C120     C        0.57042    0.02955    0.80100    1.000
    H73      H        0.53800    0.04010    0.86440    1.000
    N41      N        0.66197    0.06814    0.68430    1.000
    C121     C        0.61310    0.08030    0.76860    1.000
    H74      H        0.60740    0.12460    0.80730    1.000
    N42      N        0.73563    0.92282    0.51210    1.000
    C122     C        0.66766    0.00335    0.63150    1.000
    N43      N        0.85386    0.82029    0.34310    1.000
    C123     C        0.62388    0.95385    0.66030    1.000
    H75      H        0.62890    0.90980    0.61950    1.000
    N44      N        0.78460    0.71710    0.47220    1.000
    C124     C        0.72323    0.98972    0.53930    1.000
    N45      N        0.93017    0.19663    0.27980    1.000
    C125     C        0.75865    0.04347    0.49090    1.000
    H76      H        0.74800    0.08890    0.51450    1.000
    C126     C        0.81045    0.03045    0.40680    1.000
    C127     C        0.85190    0.08803    0.36020    1.000
    C128     C        0.85850    0.14620    0.44880    1.000
    H77      H        0.83650    0.15030    0.53760    1.000
    C129     C        0.89730    0.19760    0.40620    1.000
    H78      H        0.90120    0.23590    0.46900    1.000
    C130     C        0.92316    0.14100    0.19710    1.000
    H79      H        0.94540    0.13840    0.10840    1.000
    C131     C        0.88570    0.08680    0.23090    1.000
    H80      H        0.88320    0.04900    0.16630    1.000
    C132     C        0.82313    0.96119    0.37440    1.000
    H81      H        0.85660    0.94980    0.31530    1.000
    C133     C        0.78564    0.90929    0.43080    1.000
    C134     C        0.80184    0.83493    0.41170    1.000
    C135     C        0.87000    0.75330    0.33730    1.000
    H82      H        0.90560    0.74100    0.28690    1.000
    C136     C        0.83630    0.70360    0.40230    1.000
    H83      H        0.84990    0.65800    0.39790    1.000
    C137     C        0.76840    0.78320    0.47500    1.000
    H84      H        0.73210    0.79500    0.52290    1.000
    N46      N        0.49923    0.84701    0.94380    1.000
    C138     C        0.50117    0.81918    0.05860    1.000
    N47      N        0.42530    0.96613    0.75620    1.000
    C139     C        0.42958    0.02955    0.69900    1.000
    H85      H        0.46200    0.04010    0.63560    1.000
    N48      N        0.33803    0.06814    0.81570    1.000
    C140     C        0.38690    0.08030    0.73140    1.000
    H86      H        0.39260    0.12460    0.69270    1.000
    N49      N        0.26437    0.92282    0.98790    1.000
    C141     C        0.33234    0.00335    0.86850    1.000
    N50      N        0.14614    0.82029    0.15690    1.000
    C142     C        0.37612    0.95385    0.83970    1.000
    H87      H        0.37110    0.90980    0.88050    1.000
    N51      N        0.21540    0.71710    0.02780    1.000
    C143     C        0.27677    0.98972    0.96070    1.000
    N52      N        0.06983    0.19663    0.22020    1.000
    C144     C        0.24135    0.04347    0.00910    1.000
    H88      H        0.25200    0.08890    0.98550    1.000
    C145     C        0.18955    0.03045    0.09320    1.000
    C146     C        0.14810    0.08803    0.13980    1.000
    C147     C        0.14150    0.14620    0.05120    1.000
    H89      H        0.16350    0.15030    0.96240    1.000
    C148     C        0.10270    0.19760    0.09380    1.000
    H90      H        0.09880    0.23590    0.03100    1.000
    C149     C        0.07684    0.14100    0.30290    1.000
    H91      H        0.05460    0.13840    0.39160    1.000
    C150     C        0.11430    0.08680    0.26910    1.000
    H92      H        0.11680    0.04900    0.33370    1.000
    C151     C        0.17687    0.96119    0.12560    1.000
    H93      H        0.14340    0.94980    0.18470    1.000
    C152     C        0.21436    0.90929    0.06920    1.000
    C153     C        0.19816    0.83493    0.08830    1.000
    C154     C        0.13000    0.75330    0.16270    1.000
    H94      H        0.09440    0.74100    0.21310    1.000
    C155     C        0.16370    0.70360    0.09770    1.000
    H95      H        0.15010    0.65800    0.10210    1.000
    C156     C        0.23160    0.78320    0.02500    1.000
    H96      H        0.26790    0.79500    0.97710    1.000
    Cu5      Cu       0.00000    0.39082    0.75000    1.000
    Cu6      Cu       0.50000    0.89082    0.75000    1.000
    Cu7      Cu       0.00000    0.27368    0.25000    1.000
    Cu8      Cu       0.50000    0.77368    0.25000    1.000
