data_functionalizedCrystal
_audit_creation_method	'EQeq! by Chris Wilmer'
_symmetry_space_group_name_H-M	'P1'
_symmetry_Int_Tables_number	1
_symmetry_cell_setting	triclinic
loop_
_symmetry_equiv_pos_as_xyz
  x,y,z
_cell_length_a	22.92
_cell_length_b	28.738
_cell_length_c	22.999
_cell_angle_alpha	90
_cell_angle_beta	94.908
_cell_angle_gamma	90
loop_
_atom_site_label
_atom_site_type_symbol
_atom_site_fract_x
_atom_site_fract_y
_atom_site_fract_z
_atom_site_charge
Mof_Cd	Cd	0.23255	0.43646	0.34208	0.446
Mof_Cd	Cd	0.73113	0.68736	0.34666	0.449
Mof_C 	C 	0.9031	0.6299	0.3471	-0.074
Mof_O 	O 	0.8105	0.6486	0.3799	-0.277
Mof_O 	O 	0.2713	0.3938	0.2723	-0.261
Mof_O 	O 	0.2068	0.4441	0.2293	-0.254
Mof_O 	O 	0.2061	0.3915	0.4132	-0.278
Mof_C 	C 	0.2371	0.3706	0.5084	-0.079
Mof_O 	O 	0.2735	0.4361	0.4606	-0.264
Mof_O 	O 	0.6576	0.6417	0.3037	-0.28
Mof_C 	C 	0.5652	0.626	0.3364	-0.086
Mof_O 	O 	0.6266	0.6901	0.3666	-0.275
Mof_O 	O 	0.844	0.6935	0.3122	-0.276
Mof_C 	C 	0.1871	0.3133	0.5635	-0.067
Mof_H 	H 	0.1539	0.294	0.5662	0.058
Mof_C 	C 	0.2821	0.3716	0.5541	0.003
Mof_H 	H 	0.3146	0.3917	0.551	0.042
Mof_C 	C 	0.9415	0.6345	0.3033	0.01
Mof_H 	H 	0.9338	0.6562	0.2724	0.038
Mof_C 	C 	0.2886	0.3245	0.1154	-0.068
Mof_H 	H 	0.3177	0.3012	0.1127	0.056
Mof_C 	C 	0.8487	0.6614	0.3449	0.319
Mof_C 	C 	0.2856	0.3488	0.167	-0
Mof_H 	H 	0.311	0.3404	0.2001	0.052
Mof_C 	C 	0.0047	0.5741	0.3486	0.026
Mof_C 	C 	0.9919	0.6062	0.3063	-0.088
Mof_H 	H 	0.0183	0.6098	0.277	0.06
Mof_C 	C 	0.962	0.5683	0.3907	-0.083
Mof_H 	H 	0.9675	0.5448	0.4196	0.062
Mof_C 	C 	0.9144	0.5957	0.3893	0.015
Mof_H 	H 	0.8876	0.5916	0.4181	0.047
Mof_C 	C 	0.2465	0.3852	0.1714	-0.07
Mof_C 	C 	0.1911	0.3398	0.5137	0.005
Mof_H 	H 	0.1616	0.3368	0.4823	0.05
Mof_C 	C 	0.2374	0.4085	0.2271	0.28
Mof_C 	C 	0.5263	0.6352	0.3796	0.016
Mof_H 	H 	0.5342	0.66	0.4064	0.045
Mof_C 	C 	0.6191	0.6553	0.3359	0.316
Mof_C 	C 	0.5512	0.593	0.2961	0.018
Mof_H 	H 	0.5751	0.5889	0.2648	0.041
Mof_C 	C 	0.2416	0.4017	0.4579	0.306
Mof_N 	N 	0.1556	0.4858	0.3473	-0.15
Mof_C 	C 	0.0547	0.5447	0.349	0.054
Mof_C 	C 	0.0883	0.5416	0.3011	-0.114
Mof_H 	H 	0.0768	0.559	0.2669	0.068
Mof_C 	C 	0.1375	0.5141	0.3022	0.062
Mof_H 	H 	0.1602	0.515	0.2694	0.036
Mof_C 	C 	0.0747	0.5148	0.3953	-0.123
Mof_H 	H 	0.0548	0.5141	0.4299	0.077
Mof_C 	C 	0.1229	0.4864	0.3908	0.083
Mof_H 	H 	0.1329	0.4656	0.4222	0.019
Mof_N 	N 	0.222	0.236	0.7673	-0.157
Mof_C 	C 	0.2602	0.2993	0.7168	-0.147
Mof_H 	H 	0.2847	0.326	0.7185	0.079
Mof_C 	C 	0.192	0.225	0.7187	0.095
Mof_H 	H 	0.1673	0.1985	0.719	0.014
Mof_C 	C 	0.2286	0.2875	0.6644	0.083
Mof_C 	C 	0.2565	0.2732	0.765	0.096
Mof_H 	H 	0.2798	0.2819	0.7994	0.008
Mof_C 	C 	0.2317	0.3143	0.6112	0.002
Mof_C 	C 	0.1931	0.249	0.6665	-0.145
Mof_H 	H 	0.1698	0.2389	0.6327	0.085
Mof_C 	C 	0.2805	0.3444	0.6033	-0.068
Mof_H 	H 	0.3124	0.3455	0.6325	0.052
Mof_C 	C 	0.5025	0.565	0.2994	-0.079
Mof_H 	H 	0.4964	0.5393	0.2736	0.055
Mof_N 	N 	0.307	0.4912	0.3455	-0.158
Mof_C 	C 	0.4623	0.5739	0.3402	0.017
Mof_C 	C 	0.3796	0.5384	0.3923	-0.161
Mof_H 	H 	0.3938	0.5526	0.428	0.102
Mof_C 	C 	0.4075	0.5462	0.3433	0.078
Mof_C 	C 	0.3328	0.5114	0.3905	0.111
Mof_H 	H 	0.3164	0.5064	0.4265	0.02
Mof_C 	C 	0.3811	0.5253	0.2903	-0.135
Mof_H 	H 	0.3954	0.5312	0.2535	0.076
Mof_C 	C 	0.4763	0.6079	0.3827	-0.081
Mof_H 	H 	0.4519	0.6124	0.4136	0.074
Mof_C 	C 	0.3347	0.497	0.2959	0.083
Mof_H 	H 	0.3204	0.4796	0.2625	0.017
Mof_N 	N 	0.2413	0.2441	0.9168	-0.153
Mof_C 	C 	0.1979	0.2711	0.9312	0.086
Mof_H 	H 	0.1626	0.2695	0.9063	0.022
Mof_C 	C 	0.2083	0.3703	0.0703	-0.072
Mof_H 	H 	0.1817	0.3776	0.0375	0.063
Mof_C 	C 	0.2495	0.3338	0.0678	0.009
Mof_C 	C 	0.2076	0.3952	0.1219	0.002
Mof_H 	H 	0.1802	0.4198	0.124	0.048
Mof_C 	C 	0.2486	0.3052	0.0138	0.084
Mof_C 	C 	0.2922	0.249	0.953	0.079
Mof_H 	H 	0.325	0.2303	0.9456	0.016
Mof_C 	C 	0.1977	0.3011	0.9776	-0.149
Mof_H 	H 	0.1637	0.3184	0.9845	0.088
Mof_C 	C 	0.2978	0.2791	0.9986	-0.147
Mof_H 	H 	0.3346	0.2828	0.0204	0.084
Mof_Cd	Cd	0.73255	0.93646	0.84208	0.445
Mof_Cd	Cd	0.23113	0.18736	0.84666	0.448
Mof_C 	C 	0.4031	0.1299	0.8471	-0.069
Mof_O 	O 	0.3105	0.1486	0.8799	-0.278
Mof_O 	O 	0.7713	0.8938	0.7723	-0.262
Mof_O 	O 	0.7068	0.9441	0.7293	-0.255
Mof_O 	O 	0.7061	0.8915	0.9132	-0.279
Mof_C 	C 	0.7371	0.8706	0.0084	-0.079
Mof_O 	O 	0.7735	0.9361	0.9606	-0.266
Mof_O 	O 	0.1576	0.1417	0.8037	-0.281
Mof_C 	C 	0.0652	0.126	0.8364	-0.085
Mof_O 	O 	0.1266	0.1901	0.8666	-0.276
Mof_O 	O 	0.344	0.1935	0.8122	-0.276
Mof_C 	C 	0.6871	0.8133	0.0635	-0.071
Mof_H 	H 	0.6539	0.794	0.0662	0.06
Mof_C 	C 	0.7821	0.8716	0.0541	0.003
Mof_H 	H 	0.8146	0.8917	0.051	0.043
Mof_C 	C 	0.4415	0.1345	0.8033	0.001
Mof_H 	H 	0.4338	0.1562	0.7724	0.041
Mof_C 	C 	0.7886	0.8245	0.6154	-0.073
Mof_H 	H 	0.8177	0.8012	0.6127	0.058
Mof_C 	C 	0.3487	0.1614	0.8449	0.317
Mof_C 	C 	0.7856	0.8488	0.667	0.003
Mof_H 	H 	0.811	0.8404	0.7001	0.051
Mof_C 	C 	0.5047	0.0741	0.8486	0.013
Mof_C 	C 	0.4919	0.1062	0.8063	-0.074
Mof_H 	H 	0.5183	0.1098	0.777	0.054
Mof_C 	C 	0.462	0.0683	0.8907	-0.073
Mof_H 	H 	0.4675	0.0448	0.9196	0.059
Mof_C 	C 	0.4144	0.0957	0.8893	0.007
Mof_H 	H 	0.3876	0.0916	0.9181	0.049
Mof_C 	C 	0.7465	0.8852	0.6714	-0.072
Mof_C 	C 	0.6911	0.8398	0.0137	0.013
Mof_H 	H 	0.6616	0.8368	0.9823	0.045
Mof_C 	C 	0.7374	0.9085	0.7271	0.281
Mof_C 	C 	0.0263	0.1352	0.8796	0.017
Mof_H 	H 	0.0342	0.16	0.9064	0.044
Mof_C 	C 	0.1191	0.1553	0.8359	0.315
Mof_C 	C 	0.0512	0.093	0.7961	0.013
Mof_H 	H 	0.0751	0.0889	0.7648	0.043
Mof_C 	C 	0.7416	0.9017	0.9579	0.303
Mof_N 	N 	0.6556	0.9858	0.8473	-0.15
Mof_C 	C 	0.5547	0.0447	0.849	0.059
Mof_C 	C 	0.5883	0.0416	0.8011	-0.118
Mof_H 	H 	0.5768	0.059	0.7669	0.07
Mof_C 	C 	0.6375	0.0141	0.8022	0.063
Mof_H 	H 	0.6602	0.015	0.7694	0.035
Mof_C 	C 	0.5747	0.0148	0.8953	-0.126
Mof_H 	H 	0.5548	0.0141	0.9299	0.077
Mof_C 	C 	0.6229	0.9864	0.8908	0.084
Mof_H 	H 	0.6329	0.9656	0.9222	0.018
Mof_N 	N 	0.722	0.736	0.2673	-0.157
Mof_C 	C 	0.7602	0.7993	0.2168	-0.147
Mof_H 	H 	0.7847	0.826	0.2185	0.079
Mof_C 	C 	0.692	0.725	0.2187	0.095
Mof_H 	H 	0.6673	0.6985	0.219	0.014
Mof_C 	C 	0.7286	0.7875	0.1644	0.083
Mof_C 	C 	0.7565	0.7732	0.265	0.095
Mof_H 	H 	0.7798	0.7819	0.2994	0.008
Mof_C 	C 	0.7317	0.8143	0.1112	0.004
Mof_C 	C 	0.6931	0.749	0.1665	-0.145
Mof_H 	H 	0.6698	0.7389	0.1327	0.085
Mof_C 	C 	0.7805	0.8444	0.1033	-0.069
Mof_H 	H 	0.8124	0.8455	0.1325	0.052
Mof_C 	C 	0.0025	0.065	0.7994	-0.069
Mof_H 	H 	0.9964	0.0393	0.7736	0.05
Mof_N 	N 	0.807	0.9912	0.8455	-0.158
Mof_C 	C 	0.9623	0.0739	0.8402	0.011
Mof_C 	C 	0.8796	0.0384	0.8923	-0.163
Mof_H 	H 	0.8938	0.0526	0.928	0.101
Mof_C 	C 	0.9075	0.0462	0.8433	0.08
Mof_C 	C 	0.8328	0.0114	0.8905	0.112
Mof_H 	H 	0.8164	0.0064	0.9265	0.018
Mof_C 	C 	0.8811	0.0253	0.7903	-0.137
Mof_H 	H 	0.8954	0.0312	0.7535	0.076
Mof_C 	C 	0.9763	0.1079	0.8827	-0.082
Mof_H 	H 	0.9519	0.1124	0.9136	0.073
Mof_C 	C 	0.8347	0.997	0.7959	0.084
Mof_H 	H 	0.8204	0.9796	0.7625	0.017
Mof_N 	N 	0.7413	0.7441	0.4168	-0.149
Mof_C 	C 	0.6979	0.7711	0.4312	0.08
Mof_H 	H 	0.6626	0.7695	0.4063	0.025
Mof_C 	C 	0.7083	0.8703	0.5703	-0.077
Mof_H 	H 	0.6817	0.8776	0.5375	0.064
Mof_C 	C 	0.7495	0.8338	0.5678	0.017
Mof_C 	C 	0.7076	0.8952	0.6219	0.005
Mof_H 	H 	0.6802	0.9198	0.624	0.046
Mof_C 	C 	0.7486	0.8052	0.5138	0.066
Mof_C 	C 	0.7922	0.749	0.453	0.069
Mof_H 	H 	0.825	0.7303	0.4456	0.02
Mof_C 	C 	0.6977	0.8011	0.4776	-0.134
Mof_H 	H 	0.6637	0.8184	0.4845	0.084
Mof_C 	C 	0.7978	0.7791	0.4986	-0.125
Mof_H 	H 	0.8346	0.7828	0.5204	0.074
Mof_Cd	Cd	0.8835	0.127	0.04901	0.433
Mof_O 	O 	0.861	0.1415	0.9522	-0.293
Mof_O 	O 	0.9829	0.1144	0.0505	-0.281
Mof_C 	C 	0.8772	0.1822	0.9556	0.288
Mof_O 	O 	0.8942	0.2023	0.0036	-0.262
Mof_C 	C 	0.8838	0.2109	0.9003	-0.078
Mof_C 	C 	0.137	0.9909	0.0533	0.026
Mof_O 	O 	0.9307	0.052	0.0526	-0.273
Mof_C 	C 	0.9809	0.0703	0.0543	0.301
Mof_C 	C 	0.0326	0.043	0.0533	-0.104
Mof_C 	C 	0.1897	0.9636	0.0531	0.064
Mof_C 	C 	0.1383	0.0394	0.0494	-0.089
Mof_H 	H 	0.1744	0.0551	0.0469	0.068
Mof_C 	C 	0.869	0.1857	0.8463	-0.002
Mof_H 	H 	0.8593	0.1536	0.8457	0.045
Mof_C 	C 	0.0859	0.0648	0.0493	0.025
Mof_H 	H 	0.0872	0.0978	0.0465	0.036
Mof_C 	C 	0.9	0.2539	0.9002	0.023
Mof_H 	H 	0.9092	0.269	0.9366	0.044
Mof_C 	C 	0.0307	0.9949	0.057	0.021
Mof_H 	H 	0.9945	0.9795	0.0604	0.035
Mof_C 	C 	0.0844	0.9684	0.0555	-0.088
Mof_H 	H 	0.0832	0.9353	0.0561	0.061
Mof_C 	C 	0.2468	0.9833	0.0723	-0.118
Mof_H 	H 	0.2493	0.0151	0.0832	0.077
Mof_C 	C 	0.1936	0.9213	0.0323	-0.126
Mof_H 	H 	0.1592	0.9075	0.0136	0.076
Mof_N 	N 	0.2963	0.9142	0.0538	-0.153
Mof_C 	C 	0.2967	0.9571	0.075	0.079
Mof_H 	H 	0.3323	0.9699	0.0923	0.02
Mof_C 	C 	0.2467	0.8948	0.036	0.08
Mof_H 	H 	0.2457	0.8628	0.0255	0.01
Mof_N 	N 	0.8817	0.3329	0.6333	-0.153
Mof_C 	C 	0.8881	0.2575	0.7942	0.018
Mof_C 	C 	0.8866	0.2836	0.7403	0.06
Mof_C 	C 	0.9046	0.2788	0.8495	-0.085
Mof_H 	H 	0.9185	0.31	0.8512	0.078
Mof_C 	C 	0.8701	0.2125	0.7947	-0.073
Mof_H 	H 	0.8575	0.1982	0.7585	0.056
Mof_C 	C 	0.8856	0.3332	0.7383	-0.129
Mof_H 	H 	0.8857	0.3508	0.7733	0.085
Mof_C 	C 	0.8845	0.3548	0.6867	0.076
Mof_H 	H 	0.8858	0.3878	0.6869	0.01
Mof_C 	C 	0.8877	0.2618	0.6864	-0.116
Mof_H 	H 	0.8895	0.2288	0.6849	0.072
Mof_C 	C 	0.8861	0.2874	0.634	0.068
Mof_H 	H 	0.8884	0.2712	0.5982	0.035
Mof_Cd	Cd	0.3835	0.627	0.54901	0.432
Mof_O 	O 	0.361	0.6415	0.4522	-0.293
Mof_O 	O 	0.4829	0.6144	0.5505	-0.281
Mof_C 	C 	0.3772	0.6822	0.4556	0.292
Mof_O 	O 	0.3942	0.7023	0.5036	-0.265
Mof_C 	C 	0.3838	0.7109	0.4003	-0.079
Mof_C 	C 	0.637	0.4909	0.5533	0.025
Mof_O 	O 	0.4307	0.552	0.5526	-0.274
Mof_C 	C 	0.4809	0.5703	0.5543	0.303
Mof_C 	C 	0.5326	0.543	0.5533	-0.106
Mof_C 	C 	0.6897	0.4636	0.5531	0.064
Mof_C 	C 	0.6383	0.5394	0.5494	-0.089
Mof_H 	H 	0.6744	0.5551	0.5469	0.068
Mof_C 	C 	0.369	0.6857	0.3463	-0.002
Mof_H 	H 	0.3593	0.6536	0.3457	0.045
Mof_C 	C 	0.5859	0.5648	0.5493	0.025
Mof_H 	H 	0.5872	0.5978	0.5465	0.035
Mof_C 	C 	0.4	0.7539	0.4002	0.024
Mof_H 	H 	0.4092	0.769	0.4366	0.045
Mof_C 	C 	0.5307	0.4949	0.557	0.018
Mof_H 	H 	0.4945	0.4795	0.5604	0.037
Mof_C 	C 	0.5844	0.4684	0.5555	-0.087
Mof_H 	H 	0.5832	0.4353	0.5561	0.059
Mof_C 	C 	0.7468	0.4833	0.5723	-0.118
Mof_H 	H 	0.7493	0.5151	0.5832	0.077
Mof_C 	C 	0.6936	0.4213	0.5323	-0.127
Mof_H 	H 	0.6592	0.4075	0.5136	0.075
Mof_N 	N 	0.7963	0.4142	0.5538	-0.153
Mof_C 	C 	0.7967	0.4571	0.575	0.079
Mof_H 	H 	0.8323	0.4699	0.5923	0.02
Mof_C 	C 	0.7467	0.3948	0.536	0.079
Mof_H 	H 	0.7457	0.3628	0.5255	0.01
Mof_N 	N 	0.3817	0.8329	0.1333	-0.153
Mof_C 	C 	0.3881	0.7575	0.2942	0.018
Mof_C 	C 	0.3866	0.7836	0.2403	0.06
Mof_C 	C 	0.4046	0.7788	0.3495	-0.085
Mof_H 	H 	0.4185	0.81	0.3512	0.078
Mof_C 	C 	0.3701	0.7125	0.2947	-0.074
Mof_H 	H 	0.3575	0.6982	0.2585	0.056
Mof_C 	C 	0.3856	0.8332	0.2383	-0.128
Mof_H 	H 	0.3857	0.8508	0.2733	0.085
Mof_C 	C 	0.3845	0.8548	0.1867	0.076
Mof_H 	H 	0.3858	0.8878	0.1869	0.01
Mof_C 	C 	0.3877	0.7618	0.1864	-0.116
Mof_H 	H 	0.3895	0.7288	0.1849	0.073
Mof_C 	C 	0.3861	0.7874	0.134	0.069
Mof_H 	H 	0.3884	0.7712	0.0982	0.036
Mof_Cd	Cd	0.3835	0.873	0.04901	0.434
Mof_O 	O 	0.361	0.8585	0.9522	-0.293
Mof_O 	O 	0.4829	0.8856	0.0505	-0.28
Mof_C 	C 	0.3772	0.8178	0.9556	0.288
Mof_O 	O 	0.3942	0.7977	0.0036	-0.261
Mof_C 	C 	0.3838	0.7891	0.9003	-0.078
Mof_C 	C 	0.637	0.0091	0.0533	0.025
Mof_O 	O 	0.4307	0.948	0.0526	-0.273
Mof_C 	C 	0.4809	0.9297	0.0543	0.303
Mof_C 	C 	0.5326	0.957	0.0533	-0.105
Mof_C 	C 	0.6897	0.0364	0.0531	0.064
Mof_C 	C 	0.6383	0.9606	0.0494	-0.088
Mof_H 	H 	0.6744	0.9449	0.0469	0.068
Mof_C 	C 	0.369	0.8143	0.8463	-0.002
Mof_H 	H 	0.3593	0.8464	0.8457	0.045
Mof_C 	C 	0.5859	0.9352	0.0493	0.026
Mof_H 	H 	0.5872	0.9022	0.0465	0.036
Mof_C 	C 	0.4	0.7461	0.9002	0.023
Mof_H 	H 	0.4092	0.731	0.9366	0.044
Mof_C 	C 	0.5307	0.0051	0.057	0.018
Mof_H 	H 	0.4945	0.0205	0.0604	0.037
Mof_C 	C 	0.5844	0.0316	0.0555	-0.087
Mof_H 	H 	0.5832	0.0647	0.0561	0.06
Mof_C 	C 	0.7468	0.0167	0.0723	-0.118
Mof_H 	H 	0.7493	0.9849	0.0832	0.077
Mof_C 	C 	0.6936	0.0787	0.0323	-0.127
Mof_H 	H 	0.6592	0.0925	0.0136	0.076
Mof_N 	N 	0.7963	0.0858	0.0538	-0.153
Mof_C 	C 	0.7967	0.0429	0.075	0.08
Mof_H 	H 	0.8323	0.0301	0.0923	0.02
Mof_C 	C 	0.7467	0.1052	0.036	0.08
Mof_H 	H 	0.7457	0.1372	0.0255	0.01
Mof_N 	N 	0.3817	0.6671	0.6333	-0.153
Mof_C 	C 	0.3881	0.7425	0.7942	0.018
Mof_C 	C 	0.3866	0.7164	0.7403	0.06
Mof_C 	C 	0.4046	0.7212	0.8495	-0.085
Mof_H 	H 	0.4185	0.69	0.8512	0.078
Mof_C 	C 	0.3701	0.7875	0.7947	-0.073
Mof_H 	H 	0.3575	0.8018	0.7585	0.056
Mof_C 	C 	0.3856	0.6668	0.7383	-0.128
Mof_H 	H 	0.3857	0.6492	0.7733	0.085
Mof_C 	C 	0.3845	0.6452	0.6867	0.076
Mof_H 	H 	0.3858	0.6122	0.6869	0.01
Mof_C 	C 	0.3877	0.7382	0.6864	-0.116
Mof_H 	H 	0.3895	0.7712	0.6849	0.073
Mof_C 	C 	0.3861	0.7126	0.634	0.069
Mof_H 	H 	0.3884	0.7288	0.5982	0.036
Mof_Cd	Cd	0.8835	0.373	0.54901	0.432
Mof_O 	O 	0.861	0.3585	0.4522	-0.293
Mof_O 	O 	0.9829	0.3856	0.5505	-0.281
Mof_C 	C 	0.8772	0.3178	0.4556	0.292
Mof_O 	O 	0.8942	0.2977	0.5036	-0.265
Mof_C 	C 	0.8838	0.2891	0.4003	-0.079
Mof_C 	C 	0.137	0.5091	0.5533	0.026
Mof_O 	O 	0.9307	0.448	0.5526	-0.274
Mof_C 	C 	0.9809	0.4297	0.5543	0.302
Mof_C 	C 	0.0326	0.457	0.5533	-0.105
Mof_C 	C 	0.1897	0.5364	0.5531	0.063
Mof_C 	C 	0.1383	0.4606	0.5494	-0.09
Mof_H 	H 	0.1744	0.4449	0.5469	0.068
Mof_C 	C 	0.869	0.3143	0.3463	-0.002
Mof_H 	H 	0.8593	0.3464	0.3457	0.045
Mof_C 	C 	0.0859	0.4352	0.5493	0.026
Mof_H 	H 	0.0872	0.4022	0.5465	0.036
Mof_C 	C 	0.9	0.2461	0.4002	0.024
Mof_H 	H 	0.9092	0.231	0.4366	0.044
Mof_C 	C 	0.0307	0.5051	0.557	0.022
Mof_H 	H 	0.9945	0.5205	0.5604	0.034
Mof_C 	C 	0.0844	0.5316	0.5555	-0.089
Mof_H 	H 	0.0832	0.5647	0.5561	0.06
Mof_C 	C 	0.2468	0.5167	0.5723	-0.118
Mof_H 	H 	0.2493	0.4849	0.5832	0.077
Mof_C 	C 	0.1936	0.5787	0.5323	-0.126
Mof_H 	H 	0.1592	0.5925	0.5136	0.075
Mof_N 	N 	0.2963	0.5858	0.5538	-0.153
Mof_C 	C 	0.2967	0.5429	0.575	0.079
Mof_H 	H 	0.3323	0.5301	0.5923	0.02
Mof_C 	C 	0.2467	0.6052	0.536	0.079
Mof_H 	H 	0.2457	0.6372	0.5255	0.01
Mof_N 	N 	0.8817	0.1671	0.1333	-0.153
Mof_C 	C 	0.8881	0.2425	0.2942	0.018
Mof_C 	C 	0.8866	0.2164	0.2403	0.059
Mof_C 	C 	0.9046	0.2212	0.3495	-0.085
Mof_H 	H 	0.9185	0.19	0.3512	0.078
Mof_C 	C 	0.8701	0.2875	0.2947	-0.074
Mof_H 	H 	0.8575	0.3018	0.2585	0.056
Mof_C 	C 	0.8856	0.1668	0.2383	-0.129
Mof_H 	H 	0.8857	0.1492	0.2733	0.085
Mof_C 	C 	0.8845	0.1452	0.1867	0.076
Mof_H 	H 	0.8858	0.1122	0.1869	0.01
Mof_C 	C 	0.8877	0.2382	0.1864	-0.116
Mof_H 	H 	0.8895	0.2712	0.1849	0.072
Mof_C 	C 	0.8861	0.2126	0.134	0.068
Mof_H 	H 	0.8884	0.2288	0.0982	0.035
Mof_Cd	Cd	0.04579	0.3743	0.87058	0.439
Mof_O 	O 	0.0599	0.3675	0.9709	-0.299
Mof_O 	O 	0.0393	0.305	0.9211	-0.285
Mof_O 	O 	0.9486	0.393	0.8638	-0.286
Mof_C 	C 	0.0458	0.2998	0.0242	-0.107
Mof_C 	C 	0.0476	0.3257	0.9686	0.321
Mof_C 	C 	0.0552	0.3187	0.0786	0.039
Mof_H 	H 	0.065	0.3508	0.0814	0.031
Mof_C 	C 	0.9557	0.4361	0.8677	0.296
Mof_C 	C 	0.9012	0.4665	0.869	-0.093
Mof_O 	O 	0.0063	0.4528	0.8656	-0.271
Mof_C 	C 	0.8474	0.4446	0.8744	0.018
Mof_H 	H 	0.8452	0.4117	0.8774	0.034
Mof_N 	N 	0.6355	0.5938	0.8671	-0.154
Mof_C 	C 	0.9033	0.5139	0.8672	0.033
Mof_H 	H 	0.9401	0.5288	0.8655	0.027
Mof_C 	C 	0.8026	0.5201	0.8718	0.027
Mof_C 	C 	0.7444	0.5468	0.8721	0.064
Mof_C 	C 	0.798	0.4713	0.8754	-0.091
Mof_H 	H 	0.761	0.4571	0.8785	0.061
Mof_C 	C 	0.8569	0.539	0.8675	-0.104
Mof_H 	H 	0.8604	0.5718	0.8648	0.062
Mof_C 	C 	0.6964	0.53	0.898	-0.14
Mof_H 	H 	0.6999	0.5027	0.9212	0.072
Mof_C 	C 	0.7379	0.5911	0.8474	-0.13
Mof_H 	H 	0.77	0.606	0.8318	0.073
Mof_C 	C 	0.6454	0.5519	0.8904	0.087
Mof_H 	H 	0.6124	0.536	0.9029	0.015
Mof_C 	C 	0.6854	0.6122	0.8459	0.07
Mof_H 	H 	0.6823	0.6424	0.8288	0.012
Mof_N 	N 	0.0459	0.1667	0.2858	-0.153
Mof_C 	C 	0.04	0.2485	0.1287	0.038
Mof_C 	C 	0.0393	0.2199	0.1833	0.061
Mof_C 	C 	0.0293	0.2253	0.0751	-0.098
Mof_H 	H 	0.0206	0.193	0.0734	0.083
Mof_C 	C 	0.0321	0.2529	0.0225	0.038
Mof_H 	H 	0.0243	0.2382	0.9856	0.039
Mof_C 	C 	0.0505	0.2133	0.2868	0.076
Mof_H 	H 	0.0587	0.2281	0.3235	0.03
Mof_C 	C 	0.0412	0.1461	0.233	0.078
Mof_H 	H 	0.0389	0.1131	0.2305	0.011
Mof_C 	C 	0.0515	0.2943	0.1292	-0.105
Mof_H 	H 	0.0573	0.3102	0.1655	0.067
Mof_C 	C 	0.0396	0.1716	0.1829	-0.126
Mof_H 	H 	0.0386	0.1559	0.1465	0.082
Mof_C 	C 	0.0444	0.2399	0.2391	-0.123
Mof_H 	H 	0.0434	0.2728	0.2431	0.077
Mof_Cd	Cd	0.54579	0.8743	0.37058	0.438
Mof_O 	O 	0.5599	0.8675	0.4709	-0.298
Mof_O 	O 	0.5393	0.805	0.4211	-0.286
Mof_O 	O 	0.4486	0.893	0.3638	-0.286
Mof_C 	C 	0.5458	0.7998	0.5242	-0.109
Mof_C 	C 	0.5476	0.8257	0.4686	0.324
Mof_C 	C 	0.5552	0.8187	0.5786	0.039
Mof_H 	H 	0.565	0.8508	0.5814	0.03
Mof_C 	C 	0.4557	0.9361	0.3677	0.299
Mof_C 	C 	0.4012	0.9665	0.369	-0.093
Mof_O 	O 	0.5063	0.9528	0.3656	-0.273
Mof_C 	C 	0.3474	0.9446	0.3744	0.019
Mof_H 	H 	0.3452	0.9117	0.3774	0.035
Mof_N 	N 	0.1355	0.0938	0.3671	-0.154
Mof_C 	C 	0.4033	0.0139	0.3672	0.034
Mof_H 	H 	0.4401	0.0288	0.3655	0.028
Mof_C 	C 	0.3026	0.0201	0.3718	0.028
Mof_C 	C 	0.2444	0.0468	0.3721	0.064
Mof_C 	C 	0.298	0.9713	0.3754	-0.091
Mof_H 	H 	0.261	0.9571	0.3785	0.061
Mof_C 	C 	0.3569	0.039	0.3675	-0.104
Mof_H 	H 	0.3604	0.0718	0.3648	0.063
Mof_C 	C 	0.1964	0.03	0.398	-0.14
Mof_H 	H 	0.1999	0.0027	0.4212	0.073
Mof_C 	C 	0.2379	0.0911	0.3474	-0.13
Mof_H 	H 	0.27	0.106	0.3318	0.073
Mof_C 	C 	0.1454	0.0519	0.3904	0.087
Mof_H 	H 	0.1124	0.036	0.4029	0.016
Mof_C 	C 	0.1854	0.1122	0.3459	0.071
Mof_H 	H 	0.1823	0.1424	0.3288	0.012
Mof_N 	N 	0.5459	0.6667	0.7858	-0.153
Mof_C 	C 	0.54	0.7485	0.6287	0.036
Mof_C 	C 	0.5393	0.7199	0.6833	0.061
Mof_C 	C 	0.5293	0.7253	0.5751	-0.096
Mof_H 	H 	0.5206	0.693	0.5734	0.081
Mof_C 	C 	0.5321	0.7529	0.5225	0.031
Mof_H 	H 	0.5243	0.7382	0.4856	0.044
Mof_C 	C 	0.5505	0.7133	0.7868	0.076
Mof_H 	H 	0.5587	0.7281	0.8235	0.03
Mof_C 	C 	0.5412	0.6461	0.733	0.078
Mof_H 	H 	0.5389	0.6131	0.7305	0.011
Mof_C 	C 	0.5515	0.7943	0.6292	-0.105
Mof_H 	H 	0.5573	0.8102	0.6655	0.067
Mof_C 	C 	0.5396	0.6716	0.6829	-0.127
Mof_H 	H 	0.5386	0.6559	0.6465	0.082
Mof_C 	C 	0.5444	0.7399	0.7391	-0.124
Mof_H 	H 	0.5434	0.7728	0.7431	0.077
Mof_Cd	Cd	0.54579	0.6257	0.87058	0.438
Mof_O 	O 	0.5599	0.6325	0.9709	-0.299
Mof_O 	O 	0.5393	0.695	0.9211	-0.285
Mof_O 	O 	0.4486	0.607	0.8638	-0.286
Mof_C 	C 	0.5458	0.7002	0.0242	-0.108
Mof_C 	C 	0.5476	0.6743	0.9686	0.321
Mof_C 	C 	0.5552	0.6813	0.0786	0.039
Mof_H 	H 	0.565	0.6492	0.0814	0.031
Mof_C 	C 	0.4557	0.5639	0.8677	0.299
Mof_C 	C 	0.4012	0.5335	0.869	-0.094
Mof_O 	O 	0.5063	0.5472	0.8656	-0.273
Mof_C 	C 	0.3474	0.5554	0.8744	0.019
Mof_H 	H 	0.3452	0.5883	0.8774	0.034
Mof_N 	N 	0.1355	0.4062	0.8671	-0.154
Mof_C 	C 	0.4033	0.4861	0.8672	0.034
Mof_H 	H 	0.4401	0.4712	0.8655	0.027
Mof_C 	C 	0.3026	0.4799	0.8718	0.028
Mof_C 	C 	0.2444	0.4532	0.8721	0.064
Mof_C 	C 	0.298	0.5287	0.8754	-0.092
Mof_H 	H 	0.261	0.5429	0.8785	0.061
Mof_C 	C 	0.3569	0.461	0.8675	-0.105
Mof_H 	H 	0.3604	0.4282	0.8648	0.063
Mof_C 	C 	0.1964	0.47	0.898	-0.14
Mof_H 	H 	0.1999	0.4973	0.9212	0.072
Mof_C 	C 	0.2379	0.4089	0.8474	-0.13
Mof_H 	H 	0.27	0.394	0.8318	0.073
Mof_C 	C 	0.1454	0.4481	0.8904	0.087
Mof_H 	H 	0.1124	0.464	0.9029	0.015
Mof_C 	C 	0.1854	0.3878	0.8459	0.07
Mof_H 	H 	0.1823	0.3576	0.8288	0.012
Mof_N 	N 	0.5459	0.8333	0.2858	-0.153
Mof_C 	C 	0.54	0.7515	0.1287	0.038
Mof_C 	C 	0.5393	0.7801	0.1833	0.06
Mof_C 	C 	0.5293	0.7747	0.0751	-0.099
Mof_H 	H 	0.5206	0.807	0.0734	0.082
Mof_C 	C 	0.5321	0.7471	0.0225	0.038
Mof_H 	H 	0.5243	0.7618	0.9856	0.039
Mof_C 	C 	0.5505	0.7867	0.2868	0.076
Mof_H 	H 	0.5587	0.7719	0.3235	0.03
Mof_C 	C 	0.5412	0.8539	0.233	0.077
Mof_H 	H 	0.5389	0.8869	0.2305	0.011
Mof_C 	C 	0.5515	0.7057	0.1292	-0.106
Mof_H 	H 	0.5573	0.6898	0.1655	0.067
Mof_C 	C 	0.5396	0.8284	0.1829	-0.126
Mof_H 	H 	0.5386	0.8441	0.1465	0.082
Mof_C 	C 	0.5444	0.7601	0.2391	-0.123
Mof_H 	H 	0.5434	0.7272	0.2431	0.076
Mof_Cd	Cd	0.04579	0.1257	0.37058	0.439
Mof_O 	O 	0.0599	0.1325	0.4709	-0.297
Mof_O 	O 	0.0393	0.195	0.4211	-0.285
Mof_O 	O 	0.9486	0.107	0.3638	-0.286
Mof_C 	C 	0.0458	0.2002	0.5242	-0.109
Mof_C 	C 	0.0476	0.1743	0.4686	0.325
Mof_C 	C 	0.0552	0.1813	0.5786	0.039
Mof_H 	H 	0.065	0.1492	0.5814	0.03
Mof_C 	C 	0.9557	0.0639	0.3677	0.296
Mof_C 	C 	0.9012	0.0335	0.369	-0.093
Mof_O 	O 	0.0063	0.0472	0.3656	-0.27
Mof_C 	C 	0.8474	0.0554	0.3744	0.018
Mof_H 	H 	0.8452	0.0883	0.3774	0.035
Mof_N 	N 	0.6355	0.9062	0.3671	-0.154
Mof_C 	C 	0.9033	0.9861	0.3672	0.034
Mof_H 	H 	0.9401	0.9712	0.3655	0.027
Mof_C 	C 	0.8026	0.9799	0.3718	0.028
Mof_C 	C 	0.7444	0.9532	0.3721	0.064
Mof_C 	C 	0.798	0.0287	0.3754	-0.091
Mof_H 	H 	0.761	0.0429	0.3785	0.061
Mof_C 	C 	0.8569	0.961	0.3675	-0.104
Mof_H 	H 	0.8604	0.9282	0.3648	0.063
Mof_C 	C 	0.6964	0.97	0.398	-0.14
Mof_H 	H 	0.6999	0.9973	0.4212	0.073
Mof_C 	C 	0.7379	0.9089	0.3474	-0.13
Mof_H 	H 	0.77	0.894	0.3318	0.073
Mof_C 	C 	0.6454	0.9481	0.3904	0.087
Mof_H 	H 	0.6124	0.964	0.4029	0.016
Mof_C 	C 	0.6854	0.8878	0.3459	0.071
Mof_H 	H 	0.6823	0.8576	0.3288	0.012
Mof_N 	N 	0.0459	0.3333	0.7858	-0.153
Mof_C 	C 	0.04	0.2515	0.6287	0.037
Mof_C 	C 	0.0393	0.2801	0.6833	0.061
Mof_C 	C 	0.0293	0.2747	0.5751	-0.095
Mof_H 	H 	0.0206	0.307	0.5734	0.081
Mof_C 	C 	0.0321	0.2471	0.5225	0.031
Mof_H 	H 	0.0243	0.2618	0.4856	0.044
Mof_C 	C 	0.0505	0.2867	0.7868	0.077
Mof_H 	H 	0.0587	0.2719	0.8235	0.03
Mof_C 	C 	0.0412	0.3539	0.733	0.078
Mof_H 	H 	0.0389	0.3869	0.7305	0.011
Mof_C 	C 	0.0515	0.2057	0.6292	-0.105
Mof_H 	H 	0.0573	0.1898	0.6655	0.067
Mof_C 	C 	0.0396	0.3284	0.6829	-0.127
Mof_H 	H 	0.0386	0.3441	0.6465	0.083
Mof_C 	C 	0.0444	0.2601	0.7391	-0.124
Mof_H 	H 	0.0434	0.2272	0.7431	0.077
Mof_Cd	Cd	0.73255	0.56354	0.34208	0.445
Mof_Cd	Cd	0.23113	0.31264	0.34666	0.448
Mof_C 	C 	0.4031	0.3701	0.3471	-0.069
Mof_O 	O 	0.3105	0.3514	0.3799	-0.277
Mof_O 	O 	0.7713	0.6062	0.2723	-0.262
Mof_O 	O 	0.7068	0.5559	0.2293	-0.255
Mof_O 	O 	0.7061	0.6085	0.4132	-0.279
Mof_C 	C 	0.7371	0.6294	0.5084	-0.08
Mof_O 	O 	0.7735	0.5639	0.4606	-0.265
Mof_O 	O 	0.1576	0.3583	0.3037	-0.281
Mof_C 	C 	0.0652	0.374	0.3364	-0.085
Mof_O 	O 	0.1266	0.3099	0.3666	-0.276
Mof_O 	O 	0.344	0.3065	0.3122	-0.276
Mof_C 	C 	0.6871	0.6867	0.5635	-0.067
Mof_H 	H 	0.6539	0.706	0.5662	0.058
Mof_C 	C 	0.7821	0.6284	0.5541	0.003
Mof_H 	H 	0.8146	0.6083	0.551	0.042
Mof_C 	C 	0.4415	0.3655	0.3033	0.001
Mof_H 	H 	0.4338	0.3438	0.2724	0.041
Mof_C 	C 	0.7886	0.6755	0.1154	-0.068
Mof_H 	H 	0.8177	0.6988	0.1127	0.056
Mof_C 	C 	0.3487	0.3386	0.3449	0.317
Mof_C 	C 	0.7856	0.6512	0.167	-0
Mof_H 	H 	0.811	0.6596	0.2001	0.052
Mof_C 	C 	0.5047	0.4259	0.3486	0.014
Mof_C 	C 	0.4919	0.3938	0.3063	-0.074
Mof_H 	H 	0.5183	0.3902	0.277	0.054
Mof_C 	C 	0.462	0.4317	0.3907	-0.073
Mof_H 	H 	0.4675	0.4552	0.4196	0.059
Mof_C 	C 	0.4144	0.4043	0.3893	0.007
Mof_H 	H 	0.3876	0.4084	0.4181	0.05
Mof_C 	C 	0.7465	0.6148	0.1714	-0.07
Mof_C 	C 	0.6911	0.6602	0.5137	0.005
Mof_H 	H 	0.6616	0.6632	0.4823	0.05
Mof_C 	C 	0.7374	0.5915	0.2271	0.28
Mof_C 	C 	0.0263	0.3648	0.3796	0.017
Mof_H 	H 	0.0342	0.34	0.4064	0.045
Mof_C 	C 	0.1191	0.3447	0.3359	0.315
Mof_C 	C 	0.0512	0.407	0.2961	0.013
Mof_H 	H 	0.0751	0.4111	0.2648	0.042
Mof_C 	C 	0.7416	0.5983	0.4579	0.306
Mof_N 	N 	0.6556	0.5142	0.3473	-0.15
Mof_C 	C 	0.5547	0.4553	0.349	0.06
Mof_C 	C 	0.5883	0.4584	0.3011	-0.118
Mof_H 	H 	0.5768	0.441	0.2669	0.07
Mof_C 	C 	0.6375	0.4859	0.3022	0.064
Mof_H 	H 	0.6602	0.485	0.2694	0.035
Mof_C 	C 	0.5747	0.4852	0.3953	-0.126
Mof_H 	H 	0.5548	0.4859	0.4299	0.078
Mof_C 	C 	0.6229	0.5136	0.3908	0.084
Mof_H 	H 	0.6329	0.5344	0.4222	0.018
Mof_N 	N 	0.722	0.764	0.7673	-0.157
Mof_C 	C 	0.7602	0.7007	0.7168	-0.147
Mof_H 	H 	0.7847	0.674	0.7185	0.079
Mof_C 	C 	0.692	0.775	0.7187	0.095
Mof_H 	H 	0.6673	0.8015	0.719	0.014
Mof_C 	C 	0.7286	0.7125	0.6644	0.083
Mof_C 	C 	0.7565	0.7268	0.765	0.096
Mof_H 	H 	0.7798	0.7181	0.7994	0.008
Mof_C 	C 	0.7317	0.6857	0.6112	0.002
Mof_C 	C 	0.6931	0.751	0.6665	-0.145
Mof_H 	H 	0.6698	0.7611	0.6327	0.085
Mof_C 	C 	0.7805	0.6556	0.6033	-0.068
Mof_H 	H 	0.8124	0.6545	0.6325	0.052
Mof_C 	C 	0.0025	0.435	0.2994	-0.07
Mof_H 	H 	0.9964	0.4607	0.2736	0.05
Mof_N 	N 	0.807	0.5088	0.3455	-0.158
Mof_C 	C 	0.9623	0.4261	0.3402	0.012
Mof_C 	C 	0.8796	0.4616	0.3923	-0.163
Mof_H 	H 	0.8938	0.4474	0.428	0.102
Mof_C 	C 	0.9075	0.4538	0.3433	0.08
Mof_C 	C 	0.8328	0.4886	0.3905	0.112
Mof_H 	H 	0.8164	0.4936	0.4265	0.019
Mof_C 	C 	0.8811	0.4747	0.2903	-0.136
Mof_H 	H 	0.8954	0.4688	0.2535	0.076
Mof_C 	C 	0.9763	0.3921	0.3827	-0.082
Mof_H 	H 	0.9519	0.3876	0.4136	0.074
Mof_C 	C 	0.8347	0.503	0.2959	0.084
Mof_H 	H 	0.8204	0.5204	0.2625	0.017
Mof_N 	N 	0.7413	0.7559	0.9168	-0.153
Mof_C 	C 	0.6979	0.7289	0.9312	0.086
Mof_H 	H 	0.6626	0.7305	0.9063	0.022
Mof_C 	C 	0.7083	0.6297	0.0703	-0.072
Mof_H 	H 	0.6817	0.6224	0.0375	0.063
Mof_C 	C 	0.7495	0.6662	0.0678	0.009
Mof_C 	C 	0.7076	0.6048	0.1219	0.002
Mof_H 	H 	0.6802	0.5802	0.124	0.048
Mof_C 	C 	0.7486	0.6948	0.0138	0.084
Mof_C 	C 	0.7922	0.751	0.953	0.079
Mof_H 	H 	0.825	0.7697	0.9456	0.016
Mof_C 	C 	0.6977	0.6989	0.9776	-0.149
Mof_H 	H 	0.6637	0.6816	0.9845	0.088
Mof_C 	C 	0.7978	0.7209	0.9986	-0.147
Mof_H 	H 	0.8346	0.7172	0.0204	0.084
Mof_Cd	Cd	0.23255	0.06354	0.84208	0.444
Mof_Cd	Cd	0.73113	0.81264	0.84666	0.448
Mof_C 	C 	0.9031	0.8701	0.8471	-0.075
Mof_O 	O 	0.8105	0.8514	0.8799	-0.278
Mof_O 	O 	0.2713	0.1062	0.7723	-0.262
Mof_O 	O 	0.2068	0.0559	0.7293	-0.255
Mof_O 	O 	0.2061	0.1085	0.9132	-0.279
Mof_C 	C 	0.2371	0.1294	0.0084	-0.079
Mof_O 	O 	0.2735	0.0639	0.9606	-0.266
Mof_O 	O 	0.6576	0.8583	0.8037	-0.281
Mof_C 	C 	0.5652	0.874	0.8364	-0.087
Mof_O 	O 	0.6266	0.8099	0.8666	-0.276
Mof_O 	O 	0.844	0.8065	0.8122	-0.276
Mof_C 	C 	0.1871	0.1867	0.0635	-0.07
Mof_H 	H 	0.1539	0.206	0.0662	0.06
Mof_C 	C 	0.2821	0.1284	0.0541	0.003
Mof_H 	H 	0.3146	0.1083	0.051	0.043
Mof_C 	C 	0.9415	0.8655	0.8033	0.01
Mof_H 	H 	0.9338	0.8438	0.7724	0.038
Mof_C 	C 	0.2886	0.1755	0.6154	-0.073
Mof_H 	H 	0.3177	0.1988	0.6127	0.058
Mof_C 	C 	0.8487	0.8386	0.8449	0.319
Mof_C 	C 	0.2856	0.1512	0.667	0.003
Mof_H 	H 	0.311	0.1596	0.7001	0.051
Mof_C 	C 	0.0047	0.9259	0.8486	0.026
Mof_C 	C 	0.9919	0.8938	0.8063	-0.088
Mof_H 	H 	0.0183	0.8902	0.777	0.06
Mof_C 	C 	0.962	0.9317	0.8907	-0.083
Mof_H 	H 	0.9675	0.9552	0.9196	0.061
Mof_C 	C 	0.9144	0.9043	0.8893	0.014
Mof_H 	H 	0.8876	0.9084	0.9181	0.047
Mof_C 	C 	0.2465	0.1148	0.6714	-0.072
Mof_C 	C 	0.1911	0.1602	0.0137	0.013
Mof_H 	H 	0.1616	0.1632	0.9823	0.045
Mof_C 	C 	0.2374	0.0915	0.7271	0.281
Mof_C 	C 	0.5263	0.8648	0.8796	0.016
Mof_H 	H 	0.5342	0.84	0.9064	0.044
Mof_C 	C 	0.6191	0.8447	0.8359	0.316
Mof_C 	C 	0.5512	0.907	0.7961	0.018
Mof_H 	H 	0.5751	0.9111	0.7648	0.041
Mof_C 	C 	0.2416	0.0983	0.9579	0.303
Mof_N 	N 	0.1556	0.0142	0.8473	-0.15
Mof_C 	C 	0.0547	0.9553	0.849	0.054
Mof_C 	C 	0.0883	0.9584	0.8011	-0.114
Mof_H 	H 	0.0768	0.941	0.7669	0.068
Mof_C 	C 	0.1375	0.9859	0.8022	0.062
Mof_H 	H 	0.1602	0.985	0.7694	0.036
Mof_C 	C 	0.0747	0.9852	0.8953	-0.123
Mof_H 	H 	0.0548	0.9859	0.9299	0.076
Mof_C 	C 	0.1229	0.0136	0.8908	0.083
Mof_H 	H 	0.1329	0.0344	0.9222	0.018
Mof_N 	N 	0.222	0.264	0.2673	-0.157
Mof_C 	C 	0.2602	0.2007	0.2168	-0.147
Mof_H 	H 	0.2847	0.174	0.2185	0.079
Mof_C 	C 	0.192	0.275	0.2187	0.095
Mof_H 	H 	0.1673	0.3015	0.219	0.014
Mof_C 	C 	0.2286	0.2125	0.1644	0.083
Mof_C 	C 	0.2565	0.2268	0.265	0.095
Mof_H 	H 	0.2798	0.2181	0.2994	0.008
Mof_C 	C 	0.2317	0.1857	0.1112	0.004
Mof_C 	C 	0.1931	0.251	0.1665	-0.145
Mof_H 	H 	0.1698	0.2611	0.1327	0.085
Mof_C 	C 	0.2805	0.1556	0.1033	-0.069
Mof_H 	H 	0.3124	0.1545	0.1325	0.053
Mof_C 	C 	0.5025	0.935	0.7994	-0.079
Mof_H 	H 	0.4964	0.9607	0.7736	0.055
Mof_N 	N 	0.307	0.0088	0.8455	-0.158
Mof_C 	C 	0.4623	0.9261	0.8402	0.017
Mof_C 	C 	0.3796	0.9616	0.8923	-0.161
Mof_H 	H 	0.3938	0.9474	0.928	0.101
Mof_C 	C 	0.4075	0.9538	0.8433	0.078
Mof_C 	C 	0.3328	0.9886	0.8905	0.111
Mof_H 	H 	0.3164	0.9936	0.9265	0.019
Mof_C 	C 	0.3811	0.9747	0.7903	-0.135
Mof_H 	H 	0.3954	0.9688	0.7535	0.076
Mof_C 	C 	0.4763	0.8921	0.8827	-0.081
Mof_H 	H 	0.4519	0.8876	0.9136	0.074
Mof_C 	C 	0.3347	0.003	0.7959	0.083
Mof_H 	H 	0.3204	0.0204	0.7625	0.017
Mof_N 	N 	0.2413	0.2559	0.4168	-0.149
Mof_C 	C 	0.1979	0.2289	0.4312	0.08
Mof_H 	H 	0.1626	0.2305	0.4063	0.025
Mof_C 	C 	0.2083	0.1297	0.5703	-0.077
Mof_H 	H 	0.1817	0.1224	0.5375	0.064
Mof_C 	C 	0.2495	0.1662	0.5678	0.017
Mof_C 	C 	0.2076	0.1048	0.6219	0.005
Mof_H 	H 	0.1802	0.0802	0.624	0.046
Mof_C 	C 	0.2486	0.1948	0.5138	0.066
Mof_C 	C 	0.2922	0.251	0.453	0.069
Mof_H 	H 	0.325	0.2697	0.4456	0.02
Mof_C 	C 	0.1977	0.1989	0.4776	-0.134
Mof_H 	H 	0.1637	0.1816	0.4845	0.084
Mof_C 	C 	0.2978	0.2209	0.4986	-0.125
Mof_H 	H 	0.3346	0.2172	0.5204	0.075
Mof_Cd	Cd	0.19182	0.56523	0.08872	0.391
Mof_Cd	Cd	0.68983	0.31347	0.09238	0.429
Mof_N 	N 	0.2696	0.5161	0.0861	-0.159
Mof_O 	O 	0.223	0.5628	0.2024	-0.266
Mof_C 	C 	0.5239	0.3754	0.0806	-0.073
Mof_C 	C 	0.8587	0.3708	0.0993	-0.151
Mof_O 	O 	0.5803	0.309	0.1127	-0.239
Mof_O 	O 	0.1661	0.613	0.1572	-0.308
Mof_C 	C 	0.1458	0.6571	0.2646	0.022
Mof_H 	H 	0.1185	0.6638	0.2322	0.04
Mof_C 	C 	0.2215	0.6407	0.3585	-0.084
Mof_H 	H 	0.2484	0.6346	0.3913	0.069
Mof_C 	C 	0.1412	0.6811	0.3152	-0.082
Mof_H 	H 	0.1104	0.7031	0.3168	0.061
Mof_C 	C 	0.188	0.6237	0.258	-0.095
Mof_C 	C 	0.4339	0.392	0.1247	-0.071
Mof_H 	H 	0.4078	0.3873	0.1541	0.055
Mof_C 	C 	0.3685	0.4573	0.0815	0.07
Mof_C 	C 	0.483	0.3648	0.1244	-0.001
Mof_H 	H 	0.4903	0.3402	0.1516	0.042
Mof_C 	C 	0.4208	0.4282	0.0805	0.011
Mof_O 	O 	0.6164	0.3594	0.0467	-0.272
Mof_C 	C 	0.5108	0.4078	0.0387	0.008
Mof_H 	H 	0.5373	0.4134	0.0098	0.039
Mof_C 	C 	0.1794	0.6748	0.3638	0.021
Mof_C 	C 	0.1904	0.5978	0.2015	0.342
Mof_C 	C 	0.8093	0.3416	0.1051	0.353
Mof_C 	C 	0.2267	0.6146	0.3071	0.021
Mof_H 	H 	0.2559	0.5913	0.3059	0.042
Mof_C 	C 	0.5761	0.3482	0.0799	0.26
Mof_C 	C 	0.4583	0.4334	0.0377	-0.073
Mof_H 	H 	0.4488	0.4546	0.0067	0.059
Mof_C 	C 	0.2951	0.4967	0.1321	0.082
Mof_H 	H 	0.2798	0.503	0.1684	0.032
Mof_C 	C 	0.3439	0.4669	0.1324	-0.129
Mof_H 	H 	0.3598	0.4534	0.168	0.076
Mof_C 	C 	0.2905	0.505	0.0359	0.077
Mof_H 	H 	0.2721	0.5179	0.0009	0
Mof_C 	C 	0.1794	0.6761	0.8208	-0.016
Mof_C 	C 	0.1316	0.6482	0.8301	-0.029
Mof_H 	H 	0.0982	0.648	0.8025	0.039
Mof_C 	C 	0.1324	0.6205	0.8797	-0.063
Mof_H 	H 	0.0998	0.6014	0.886	0.055
Mof_C 	C 	0.1812	0.6208	0.9201	0.018
Mof_C 	C 	0.229	0.6487	0.9108	-0.065
Mof_H 	H 	0.2623	0.6489	0.9384	0.057
Mof_C 	C 	0.2281	0.6764	0.8612	-0.028
Mof_H 	H 	0.2608	0.6955	0.8548	0.042
Mof_C 	C 	0.3381	0.4755	0.0319	-0.124
Mof_H 	H 	0.35	0.4677	0.9946	0.073
Mof_C 	C 	0.8878	0.3892	0.1479	0.065
Mof_H 	H 	0.8752	0.3824	0.1853	0.016
Mof_C 	C 	0.8869	0.3802	0.0517	0.078
Mof_H 	H 	0.8706	0.3671	0.0161	0.019
Mof_N 	N 	0.1846	0.7617	0.5151	-0.157
Mof_C 	C 	0.1796	0.7034	0.4155	0.07
Mof_C 	C 	0.1295	0.722	0.4347	-0.134
Mof_H 	H 	0.0921	0.7164	0.4148	0.078
Mof_C 	C 	0.2308	0.716	0.4482	-0.139
Mof_H 	H 	0.2669	0.7045	0.4367	0.084
Mof_C 	C 	0.2319	0.7436	0.495	0.082
Mof_H 	H 	0.2689	0.7506	0.515	0.03
Mof_C 	C 	0.1366	0.7502	0.4863	0.085
Mof_H 	H 	0.1017	0.7617	0.5006	0.015
Mof_C 	C 	0.2365	0.7534	0.7068	0.066
Mof_H 	H 	0.2721	0.7678	0.6984	0.017
Mof_N 	N 	0.1863	0.7592	0.6692	-0.138
Mof_C 	C 	0.1342	0.7381	0.6815	0.059
Mof_H 	H 	0.0999	0.742	0.6558	0.032
Mof_C 	C 	0.1323	0.7112	0.7315	-0.123
Mof_H 	H 	0.0967	0.6968	0.74	0.072
Mof_C 	C 	0.1825	0.7054	0.7692	0.075
Mof_C 	C 	0.2346	0.7265	0.7569	-0.124
Mof_H 	H 	0.2689	0.7225	0.7826	0.076
Mof_N 	N 	0.116	0.5145	0.0918	-0.148
Mof_C 	C 	0.0472	0.4574	0.0463	-0.108
Mof_H 	H 	0.0375	0.4377	0.0137	0.087
Mof_C 	C 	0.9632	0.4274	0.0954	0.069
Mof_C 	C 	0.0134	0.4564	0.0943	0.034
Mof_C 	C 	0.0341	0.4862	0.1401	-0.099
Mof_H 	H 	0.0142	0.4861	0.1746	0.061
Mof_C 	C 	0.9364	0.4183	0.143	-0.124
Mof_H 	H 	0.9519	0.4331	0.1778	0.067
Mof_C 	C 	0.0966	0.4881	0.0461	0.061
Mof_H 	H 	0.1166	0.4898	0.0116	0.01
Mof_C 	C 	0.0821	0.5161	0.1382	0.06
Mof_H 	H 	0.0912	0.5375	0.169	0.019
Mof_C 	C 	0.9377	0.4073	0.0484	-0.134
Mof_H 	H 	0.9537	0.4112	0.0119	0.085
Mof_O 	O 	0.7689	0.3561	0.1288	-0.311
Mof_O 	O 	0.8026	0.3091	0.0672	-0.276
Mof_Cd	Cd	0.69182	0.06523	0.58872	0.39
Mof_Cd	Cd	0.18983	0.81347	0.59238	0.429
Mof_N 	N 	0.7696	0.0161	0.5861	-0.16
Mof_O 	O 	0.723	0.0628	0.7024	-0.267
Mof_C 	C 	0.0239	0.8754	0.5806	-0.071
Mof_C 	C 	0.3587	0.8708	0.5993	-0.154
Mof_O 	O 	0.0803	0.809	0.6127	-0.239
Mof_O 	O 	0.6661	0.113	0.6572	-0.309
Mof_C 	C 	0.6458	0.1571	0.7646	0.024
Mof_H 	H 	0.6185	0.1638	0.7322	0.039
Mof_C 	C 	0.7215	0.1407	0.8585	-0.087
Mof_H 	H 	0.7484	0.1346	0.8913	0.07
Mof_C 	C 	0.6412	0.1811	0.8152	-0.086
Mof_H 	H 	0.6104	0.2031	0.8168	0.062
Mof_C 	C 	0.688	0.1237	0.758	-0.097
Mof_C 	C 	0.9339	0.892	0.6247	-0.07
Mof_H 	H 	0.9078	0.8873	0.6541	0.055
Mof_C 	C 	0.8685	0.9573	0.5815	0.075
Mof_C 	C 	0.983	0.8648	0.6244	-0.004
Mof_H 	H 	0.9903	0.8402	0.6516	0.042
Mof_C 	C 	0.9208	0.9282	0.5805	0.009
Mof_O 	O 	0.1164	0.8594	0.5467	-0.273
Mof_C 	C 	0.0108	0.9078	0.5387	0.01
Mof_H 	H 	0.0373	0.9134	0.5098	0.038
Mof_C 	C 	0.6794	0.1748	0.8638	0.025
Mof_C 	C 	0.6904	0.0978	0.7015	0.342
Mof_C 	C 	0.3093	0.8416	0.6051	0.354
Mof_C 	C 	0.7267	0.1146	0.8071	0.022
Mof_H 	H 	0.7559	0.0913	0.8059	0.041
Mof_C 	C 	0.0761	0.8482	0.5799	0.26
Mof_C 	C 	0.9583	0.9334	0.5377	-0.075
Mof_H 	H 	0.9488	0.9546	0.5067	0.058
Mof_C 	C 	0.7951	0.9967	0.6321	0.083
Mof_H 	H 	0.7798	0.003	0.6684	0.031
Mof_C 	C 	0.8439	0.9669	0.6324	-0.132
Mof_H 	H 	0.8598	0.9534	0.668	0.077
Mof_C 	C 	0.7905	0.005	0.5359	0.082
Mof_H 	H 	0.7721	0.0179	0.5009	-0.003
Mof_C 	C 	0.6794	0.1761	0.3208	-0.017
Mof_C 	C 	0.6316	0.1482	0.3301	-0.029
Mof_H 	H 	0.5982	0.148	0.3025	0.039
Mof_C 	C 	0.6324	0.1205	0.3797	-0.064
Mof_H 	H 	0.5998	0.1014	0.386	0.055
Mof_C 	C 	0.6812	0.1208	0.4201	0.02
Mof_C 	C 	0.729	0.1487	0.4108	-0.066
Mof_H 	H 	0.7623	0.1489	0.4384	0.058
Mof_C 	C 	0.7281	0.1764	0.3612	-0.027
Mof_H 	H 	0.7608	0.1955	0.3548	0.041
Mof_C 	C 	0.8381	0.9755	0.5319	-0.135
Mof_H 	H 	0.85	0.9677	0.4946	0.079
Mof_C 	C 	0.3878	0.8892	0.6479	0.069
Mof_H 	H 	0.3752	0.8824	0.6853	0.014
Mof_C 	C 	0.3869	0.8802	0.5517	0.082
Mof_H 	H 	0.3706	0.8671	0.5161	0.017
Mof_N 	N 	0.6846	0.2617	0.0151	-0.148
Mof_C 	C 	0.6796	0.2034	0.9155	0.061
Mof_C 	C 	0.6295	0.222	0.9347	-0.124
Mof_H 	H 	0.5921	0.2164	0.9148	0.073
Mof_C 	C 	0.7308	0.216	0.9482	-0.127
Mof_H 	H 	0.7669	0.2045	0.9367	0.08
Mof_C 	C 	0.7319	0.2436	0.995	0.064
Mof_H 	H 	0.7689	0.2506	0.015	0.039
Mof_C 	C 	0.6366	0.2502	0.9863	0.069
Mof_H 	H 	0.6017	0.2617	0.0006	0.023
Mof_C 	C 	0.7365	0.2534	0.2068	0.066
Mof_H 	H 	0.7721	0.2678	0.1984	0.017
Mof_N 	N 	0.6863	0.2592	0.1692	-0.138
Mof_C 	C 	0.6342	0.2381	0.1815	0.059
Mof_H 	H 	0.5999	0.242	0.1558	0.032
Mof_C 	C 	0.6323	0.2112	0.2315	-0.124
Mof_H 	H 	0.5967	0.1968	0.24	0.072
Mof_C 	C 	0.6825	0.2054	0.2692	0.075
Mof_C 	C 	0.7346	0.2265	0.2569	-0.125
Mof_H 	H 	0.7689	0.2225	0.2826	0.076
Mof_N 	N 	0.616	0.0145	0.5918	-0.147
Mof_C 	C 	0.5472	0.9574	0.5463	-0.106
Mof_H 	H 	0.5375	0.9377	0.5137	0.084
Mof_C 	C 	0.4632	0.9274	0.5954	0.076
Mof_C 	C 	0.5134	0.9564	0.5943	0.028
Mof_C 	C 	0.5341	0.9862	0.6401	-0.095
Mof_H 	H 	0.5142	0.9861	0.6746	0.059
Mof_C 	C 	0.4364	0.9183	0.643	-0.129
Mof_H 	H 	0.4519	0.9331	0.6778	0.07
Mof_C 	C 	0.5966	0.9881	0.5461	0.06
Mof_H 	H 	0.6166	0.9898	0.5116	0.009
Mof_C 	C 	0.5821	0.0161	0.6382	0.058
Mof_H 	H 	0.5912	0.0375	0.669	0.02
Mof_C 	C 	0.4377	0.9073	0.5484	-0.139
Mof_H 	H 	0.4537	0.9112	0.5119	0.086
Mof_O 	O 	0.2689	0.8561	0.6288	-0.312
Mof_O 	O 	0.3026	0.8091	0.5672	-0.277
Mof_Cd	Cd	0.69182	0.43477	0.08872	0.391
Mof_Cd	Cd	0.18983	0.68653	0.09238	0.429
Mof_N 	N 	0.7696	0.4839	0.0861	-0.159
Mof_O 	O 	0.723	0.4372	0.2024	-0.266
Mof_C 	C 	0.0239	0.6246	0.0806	-0.072
Mof_C 	C 	0.3587	0.6292	0.0993	-0.154
Mof_O 	O 	0.0803	0.691	0.1127	-0.239
Mof_O 	O 	0.6661	0.387	0.1572	-0.309
Mof_C 	C 	0.6458	0.3429	0.2646	0.022
Mof_H 	H 	0.6185	0.3362	0.2322	0.04
Mof_C 	C 	0.7215	0.3593	0.3585	-0.084
Mof_H 	H 	0.7484	0.3654	0.3913	0.069
Mof_C 	C 	0.6412	0.3189	0.3152	-0.082
Mof_H 	H 	0.6104	0.2969	0.3168	0.061
Mof_C 	C 	0.688	0.3763	0.258	-0.095
Mof_C 	C 	0.9339	0.608	0.1247	-0.071
Mof_H 	H 	0.9078	0.6127	0.1541	0.055
Mof_C 	C 	0.8685	0.5427	0.0815	0.07
Mof_C 	C 	0.983	0.6352	0.1244	-0.003
Mof_H 	H 	0.9903	0.6598	0.1516	0.042
Mof_C 	C 	0.9208	0.5718	0.0805	0.012
Mof_O 	O 	0.1164	0.6406	0.0467	-0.272
Mof_C 	C 	0.0108	0.5922	0.0387	0.011
Mof_H 	H 	0.0373	0.5866	0.0098	0.039
Mof_C 	C 	0.6794	0.3252	0.3638	0.02
Mof_C 	C 	0.6904	0.4022	0.2015	0.342
Mof_C 	C 	0.3093	0.6584	0.1051	0.354
Mof_C 	C 	0.7267	0.3854	0.3071	0.021
Mof_H 	H 	0.7559	0.4087	0.3059	0.042
Mof_C 	C 	0.0761	0.6518	0.0799	0.26
Mof_C 	C 	0.9583	0.5666	0.0377	-0.077
Mof_H 	H 	0.9488	0.5454	0.0067	0.059
Mof_C 	C 	0.7951	0.5033	0.1321	0.081
Mof_H 	H 	0.7798	0.497	0.1684	0.032
Mof_C 	C 	0.8439	0.5331	0.1324	-0.129
Mof_H 	H 	0.8598	0.5466	0.168	0.076
Mof_C 	C 	0.7905	0.495	0.0359	0.077
Mof_H 	H 	0.7721	0.4821	0.0009	0.001
Mof_C 	C 	0.6794	0.3239	0.8208	-0.016
Mof_C 	C 	0.6316	0.3518	0.8301	-0.03
Mof_H 	H 	0.5982	0.352	0.8025	0.039
Mof_C 	C 	0.6324	0.3795	0.8797	-0.063
Mof_H 	H 	0.5998	0.3986	0.886	0.054
Mof_C 	C 	0.6812	0.3792	0.9201	0.018
Mof_C 	C 	0.729	0.3513	0.9108	-0.065
Mof_H 	H 	0.7623	0.3511	0.9384	0.057
Mof_C 	C 	0.7281	0.3236	0.8612	-0.028
Mof_H 	H 	0.7608	0.3045	0.8548	0.042
Mof_C 	C 	0.8381	0.5245	0.0319	-0.124
Mof_H 	H 	0.85	0.5323	0.9946	0.073
Mof_C 	C 	0.3878	0.6108	0.1479	0.068
Mof_H 	H 	0.3752	0.6176	0.1853	0.014
Mof_C 	C 	0.3869	0.6198	0.0517	0.082
Mof_H 	H 	0.3706	0.6329	0.0161	0.018
Mof_N 	N 	0.6846	0.2383	0.5151	-0.157
Mof_C 	C 	0.6796	0.2966	0.4155	0.07
Mof_C 	C 	0.6295	0.278	0.4347	-0.134
Mof_H 	H 	0.5921	0.2836	0.4148	0.077
Mof_C 	C 	0.7308	0.284	0.4482	-0.139
Mof_H 	H 	0.7669	0.2955	0.4367	0.084
Mof_C 	C 	0.7319	0.2564	0.495	0.082
Mof_H 	H 	0.7689	0.2494	0.515	0.03
Mof_C 	C 	0.6366	0.2498	0.4863	0.085
Mof_H 	H 	0.6017	0.2383	0.5006	0.015
Mof_C 	C 	0.7365	0.2466	0.7068	0.066
Mof_H 	H 	0.7721	0.2322	0.6984	0.017
Mof_N 	N 	0.6863	0.2408	0.6692	-0.138
Mof_C 	C 	0.6342	0.2619	0.6815	0.059
Mof_H 	H 	0.5999	0.258	0.6558	0.032
Mof_C 	C 	0.6323	0.2888	0.7315	-0.123
Mof_H 	H 	0.5967	0.3032	0.74	0.072
Mof_C 	C 	0.6825	0.2946	0.7692	0.075
Mof_C 	C 	0.7346	0.2735	0.7569	-0.124
Mof_H 	H 	0.7689	0.2775	0.7826	0.076
Mof_N 	N 	0.616	0.4855	0.0918	-0.147
Mof_C 	C 	0.5472	0.5426	0.0463	-0.106
Mof_H 	H 	0.5375	0.5623	0.0137	0.085
Mof_C 	C 	0.4632	0.5726	0.0954	0.076
Mof_C 	C 	0.5134	0.5436	0.0943	0.028
Mof_C 	C 	0.5341	0.5138	0.1401	-0.096
Mof_H 	H 	0.5142	0.5139	0.1746	0.059
Mof_C 	C 	0.4364	0.5817	0.143	-0.129
Mof_H 	H 	0.4519	0.5669	0.1778	0.07
Mof_C 	C 	0.5966	0.5119	0.0461	0.06
Mof_H 	H 	0.6166	0.5102	0.0116	0.01
Mof_C 	C 	0.5821	0.4839	0.1382	0.058
Mof_H 	H 	0.5912	0.4625	0.169	0.02
Mof_C 	C 	0.4377	0.5927	0.0484	-0.138
Mof_H 	H 	0.4537	0.5888	0.0119	0.087
Mof_O 	O 	0.2689	0.6439	0.1288	-0.312
Mof_O 	O 	0.3026	0.6909	0.0672	-0.276
Mof_Cd	Cd	0.19182	0.93477	0.58872	0.39
Mof_Cd	Cd	0.68983	0.18653	0.59238	0.429
Mof_N 	N 	0.2696	0.9839	0.5861	-0.16
Mof_O 	O 	0.223	0.9372	0.7024	-0.267
Mof_C 	C 	0.5239	0.1246	0.5806	-0.073
Mof_C 	C 	0.8587	0.1292	0.5993	-0.152
Mof_O 	O 	0.5803	0.191	0.6127	-0.239
Mof_O 	O 	0.1661	0.887	0.6572	-0.309
Mof_C 	C 	0.1458	0.8429	0.7646	0.024
Mof_H 	H 	0.1185	0.8362	0.7322	0.039
Mof_C 	C 	0.2215	0.8593	0.8585	-0.087
Mof_H 	H 	0.2484	0.8654	0.8913	0.07
Mof_C 	C 	0.1412	0.8189	0.8152	-0.086
Mof_H 	H 	0.1104	0.7969	0.8168	0.062
Mof_C 	C 	0.188	0.8763	0.758	-0.097
Mof_C 	C 	0.4339	0.108	0.6247	-0.07
Mof_H 	H 	0.4078	0.1127	0.6541	0.055
Mof_C 	C 	0.3685	0.0427	0.5815	0.075
Mof_C 	C 	0.483	0.1352	0.6244	-0.002
Mof_H 	H 	0.4903	0.1598	0.6516	0.042
Mof_C 	C 	0.4208	0.0718	0.5805	0.008
Mof_O 	O 	0.6164	0.1406	0.5467	-0.273
Mof_C 	C 	0.5108	0.0922	0.5387	0.007
Mof_H 	H 	0.5373	0.0866	0.5098	0.039
Mof_C 	C 	0.1794	0.8252	0.8638	0.025
Mof_C 	C 	0.1904	0.9022	0.7015	0.342
Mof_C 	C 	0.8093	0.1584	0.6051	0.353
Mof_C 	C 	0.2267	0.8854	0.8071	0.022
Mof_H 	H 	0.2559	0.9087	0.8059	0.041
Mof_C 	C 	0.5761	0.1518	0.5799	0.26
Mof_C 	C 	0.4583	0.0666	0.5377	-0.071
Mof_H 	H 	0.4488	0.0454	0.5067	0.057
Mof_C 	C 	0.2951	0.0033	0.6321	0.084
Mof_H 	H 	0.2798	0.997	0.6684	0.031
Mof_C 	C 	0.3439	0.0331	0.6324	-0.133
Mof_H 	H 	0.3598	0.0466	0.668	0.077
Mof_C 	C 	0.2905	0.995	0.5359	0.082
Mof_H 	H 	0.2721	0.9821	0.5009	-0.003
Mof_C 	C 	0.1794	0.8239	0.3208	-0.017
Mof_C 	C 	0.1316	0.8518	0.3301	-0.028
Mof_H 	H 	0.0982	0.852	0.3025	0.039
Mof_C 	C 	0.1324	0.8795	0.3797	-0.064
Mof_H 	H 	0.0998	0.8986	0.386	0.056
Mof_C 	C 	0.1812	0.8792	0.4201	0.02
Mof_C 	C 	0.229	0.8513	0.4108	-0.066
Mof_H 	H 	0.2623	0.8511	0.4384	0.058
Mof_C 	C 	0.2281	0.8236	0.3612	-0.027
Mof_H 	H 	0.2608	0.8045	0.3548	0.041
Mof_C 	C 	0.3381	0.0245	0.5319	-0.135
Mof_H 	H 	0.35	0.0323	0.4946	0.08
Mof_C 	C 	0.8878	0.1108	0.6479	0.065
Mof_H 	H 	0.8752	0.1176	0.6853	0.016
Mof_C 	C 	0.8869	0.1198	0.5517	0.078
Mof_H 	H 	0.8706	0.1329	0.5161	0.018
Mof_N 	N 	0.1846	0.7383	0.0151	-0.148
Mof_C 	C 	0.1796	0.7966	0.9155	0.061
Mof_C 	C 	0.1295	0.778	0.9347	-0.124
Mof_H 	H 	0.0921	0.7836	0.9148	0.074
Mof_C 	C 	0.2308	0.784	0.9482	-0.127
Mof_H 	H 	0.2669	0.7955	0.9367	0.08
Mof_C 	C 	0.2319	0.7564	0.995	0.064
Mof_H 	H 	0.2689	0.7494	0.015	0.039
Mof_C 	C 	0.1366	0.7498	0.9863	0.069
Mof_H 	H 	0.1017	0.7383	0.0006	0.023
Mof_C 	C 	0.2365	0.7466	0.2068	0.066
Mof_H 	H 	0.2721	0.7322	0.1984	0.017
Mof_N 	N 	0.1863	0.7408	0.1692	-0.138
Mof_C 	C 	0.1342	0.7619	0.1815	0.059
Mof_H 	H 	0.0999	0.758	0.1558	0.033
Mof_C 	C 	0.1323	0.7888	0.2315	-0.124
Mof_H 	H 	0.0967	0.8032	0.24	0.072
Mof_C 	C 	0.1825	0.7946	0.2692	0.075
Mof_C 	C 	0.2346	0.7735	0.2569	-0.125
Mof_H 	H 	0.2689	0.7775	0.2826	0.076
Mof_N 	N 	0.116	0.9855	0.5918	-0.148
Mof_C 	C 	0.0472	0.0426	0.5463	-0.109
Mof_H 	H 	0.0375	0.0623	0.5137	0.086
Mof_C 	C 	0.9632	0.0726	0.5954	0.069
Mof_C 	C 	0.0134	0.0436	0.5943	0.034
Mof_C 	C 	0.0341	0.0138	0.6401	-0.099
Mof_H 	H 	0.0142	0.0139	0.6746	0.061
Mof_C 	C 	0.9364	0.0817	0.643	-0.124
Mof_H 	H 	0.9519	0.0669	0.6778	0.067
Mof_C 	C 	0.0966	0.0119	0.5461	0.061
Mof_H 	H 	0.1166	0.0102	0.5116	0.009
Mof_C 	C 	0.0821	0.9839	0.6382	0.06
Mof_H 	H 	0.0912	0.9625	0.669	0.019
Mof_C 	C 	0.9377	0.0927	0.5484	-0.134
Mof_H 	H 	0.9537	0.0888	0.5119	0.084
Mof_O 	O 	0.7689	0.1439	0.6288	-0.312
Mof_O 	O 	0.8026	0.1909	0.5672	-0.277
_end
