data_functionalizedCrystal
_audit_creation_method	'EQeq! by Chris Wilmer'
_symmetry_space_group_name_H-M	'P1'
_symmetry_Int_Tables_number	1
_symmetry_cell_setting	triclinic
loop_
_symmetry_equiv_pos_as_xyz
  x,y,z
_cell_length_a	20.4031
_cell_length_b	20.4031
_cell_length_c	20.4031
_cell_angle_alpha	90
_cell_angle_beta	90
_cell_angle_gamma	90
loop_
_atom_site_label
_atom_site_type_symbol
_atom_site_fract_x
_atom_site_fract_y
_atom_site_fract_z
_atom_site_charge
Mof_O 	O 	0.5859	0.946	0.6678	-0.519
Mof_O 	O 	0.5319	0.0364	0.6865	-0.472
Mof_C 	C 	0.5393	0.9852	0.6548	0.356
Mof_C 	C 	0.4955	0.9691	0.5983	0.096
Mof_C 	C 	0.4431	0.0097	0.5836	-0.262
Mof_H 	H 	0.4354	0.0467	0.6091	0.148
Mof_O 	O 	0.0859	0.446	0.1678	-0.551
Mof_O 	O 	0.0319	0.5364	0.1865	-0.445
Mof_C 	C 	0.0393	0.4852	0.1548	0.257
Mof_C 	C 	0.9955	0.4691	0.0983	0.05
Mof_C 	C 	0.9431	0.5097	0.0836	0.002
Mof_H 	H 	0.9354	0.5467	0.1091	0.084
Mof_O 	O 	0.9141	0.054	0.1678	-0.562
Mof_O 	O 	0.9681	0.9636	0.1865	-0.387
Mof_C 	C 	0.9607	0.0148	0.1548	0.44
Mof_C 	C 	0.0045	0.0309	0.0983	-0.496
Mof_C 	C 	0.0569	0.9903	0.0836	0.466
Mof_H 	H 	0.0646	0.9533	0.1091	-0.088
Mof_O 	O 	0.4141	0.554	0.6678	-0.557
Mof_O 	O 	0.4681	0.4636	0.6865	-0.442
Mof_C 	C 	0.4607	0.5148	0.6548	0.337
Mof_C 	C 	0.5045	0.5309	0.5983	-0.068
Mof_C 	C 	0.5569	0.4903	0.5836	0.018
Mof_H 	H 	0.5646	0.4533	0.6091	0.067
Mof_O 	O 	0.4141	0.446	0.8322	-0.545
Mof_O 	O 	0.4681	0.5364	0.8135	-0.43
Mof_C 	C 	0.4607	0.4852	0.8452	0.304
Mof_C 	C 	0.5045	0.4691	0.9017	0.032
Mof_C 	C 	0.5569	0.5097	0.9164	-0.09
Mof_H 	H 	0.5646	0.5467	0.8909	0.106
Mof_O 	O 	0.9141	0.946	0.3322	-0.542
Mof_O 	O 	0.9681	0.0364	0.3135	-0.486
Mof_C 	C 	0.9607	0.9852	0.3452	0.489
Mof_C 	C 	0.0045	0.9691	0.4017	-0.167
Mof_C 	C 	0.0569	0.0097	0.4164	-0.095
Mof_H 	H 	0.0646	0.0467	0.3909	0.079
Mof_O 	O 	0.0859	0.554	0.3322	-0.536
Mof_O 	O 	0.0319	0.4636	0.3135	-0.433
Mof_C 	C 	0.0393	0.5148	0.3452	0.215
Mof_C 	C 	0.9955	0.5309	0.4017	0.171
Mof_C 	C 	0.9431	0.4903	0.4164	-0.12
Mof_H 	H 	0.9354	0.4533	0.3909	0.126
Mof_O 	O 	0.5859	0.054	0.8322	-0.522
Mof_O 	O 	0.5319	0.9636	0.8135	-0.36
Mof_C 	C 	0.5393	0.0148	0.8452	0.282
Mof_C 	C 	0.4955	0.0309	0.9017	-0.144
Mof_C 	C 	0.4431	0.9903	0.9164	0.211
Mof_H 	H 	0.4354	0.9533	0.8909	0.018
Mof_O 	O 	0.6678	0.5859	0.946	-0.519
Mof_O 	O 	0.6865	0.5319	0.0364	-0.472
Mof_C 	C 	0.6548	0.5393	0.9852	0.356
Mof_C 	C 	0.5983	0.4955	0.9691	0.096
Mof_C 	C 	0.5836	0.4431	0.0097	-0.262
Mof_H 	H 	0.6091	0.4354	0.0467	0.148
Mof_O 	O 	0.1678	0.0859	0.446	-0.551
Mof_O 	O 	0.1865	0.0319	0.5364	-0.445
Mof_C 	C 	0.1548	0.0393	0.4852	0.257
Mof_C 	C 	0.0983	0.9955	0.4691	0.05
Mof_C 	C 	0.0836	0.9431	0.5097	0.002
Mof_H 	H 	0.1091	0.9354	0.5467	0.084
Mof_O 	O 	0.1678	0.9141	0.054	-0.562
Mof_O 	O 	0.1865	0.9681	0.9636	-0.387
Mof_C 	C 	0.1548	0.9607	0.0148	0.44
Mof_C 	C 	0.0983	0.0045	0.0309	-0.496
Mof_C 	C 	0.0836	0.0569	0.9903	0.466
Mof_H 	H 	0.1091	0.0646	0.9533	-0.088
Mof_O 	O 	0.6678	0.4141	0.554	-0.557
Mof_O 	O 	0.6865	0.4681	0.4636	-0.442
Mof_C 	C 	0.6548	0.4607	0.5148	0.337
Mof_C 	C 	0.5983	0.5045	0.5309	-0.068
Mof_C 	C 	0.5836	0.5569	0.4903	0.018
Mof_H 	H 	0.6091	0.5646	0.4533	0.067
Mof_O 	O 	0.8322	0.4141	0.446	-0.545
Mof_O 	O 	0.8135	0.4681	0.5364	-0.43
Mof_C 	C 	0.8452	0.4607	0.4852	0.304
Mof_C 	C 	0.9017	0.5045	0.4691	0.032
Mof_C 	C 	0.9164	0.5569	0.5097	-0.09
Mof_H 	H 	0.8909	0.5646	0.5467	0.106
Mof_O 	O 	0.3322	0.9141	0.946	-0.542
Mof_O 	O 	0.3135	0.9681	0.0364	-0.486
Mof_C 	C 	0.3452	0.9607	0.9852	0.489
Mof_C 	C 	0.4017	0.0045	0.9691	-0.167
Mof_C 	C 	0.4164	0.0569	0.0097	-0.095
Mof_H 	H 	0.3909	0.0646	0.0467	0.079
Mof_O 	O 	0.3322	0.0859	0.554	-0.536
Mof_O 	O 	0.3135	0.0319	0.4636	-0.433
Mof_C 	C 	0.3452	0.0393	0.5148	0.215
Mof_C 	C 	0.4017	0.9955	0.5309	0.171
Mof_C 	C 	0.4164	0.9431	0.4903	-0.12
Mof_H 	H 	0.3909	0.9354	0.4533	0.126
Mof_O 	O 	0.8322	0.5859	0.054	-0.522
Mof_O 	O 	0.8135	0.5319	0.9636	-0.36
Mof_C 	C 	0.8452	0.5393	0.0148	0.282
Mof_C 	C 	0.9017	0.4955	0.0309	-0.144
Mof_C 	C 	0.9164	0.4431	0.9903	0.211
Mof_H 	H 	0.8909	0.4354	0.9533	0.018
Mof_O 	O 	0.946	0.6678	0.5859	-0.519
Mof_O 	O 	0.0364	0.6865	0.5319	-0.472
Mof_C 	C 	0.9852	0.6548	0.5393	0.356
Mof_C 	C 	0.9691	0.5983	0.4955	0.096
Mof_C 	C 	0.0097	0.5836	0.4431	-0.262
Mof_H 	H 	0.0467	0.6091	0.4354	0.148
Mof_O 	O 	0.446	0.1678	0.0859	-0.551
Mof_O 	O 	0.5364	0.1865	0.0319	-0.445
Mof_C 	C 	0.4852	0.1548	0.0393	0.257
Mof_C 	C 	0.4691	0.0983	0.9955	0.05
Mof_C 	C 	0.5097	0.0836	0.9431	0.002
Mof_H 	H 	0.5467	0.1091	0.9354	0.084
Mof_O 	O 	0.054	0.1678	0.9141	-0.562
Mof_O 	O 	0.9636	0.1865	0.9681	-0.387
Mof_C 	C 	0.0148	0.1548	0.9607	0.44
Mof_C 	C 	0.0309	0.0983	0.0045	-0.496
Mof_C 	C 	0.9903	0.0836	0.0569	0.466
Mof_H 	H 	0.9533	0.1091	0.0646	-0.088
Mof_O 	O 	0.554	0.6678	0.4141	-0.557
Mof_O 	O 	0.4636	0.6865	0.4681	-0.442
Mof_C 	C 	0.5148	0.6548	0.4607	0.337
Mof_C 	C 	0.5309	0.5983	0.5045	-0.068
Mof_C 	C 	0.4903	0.5836	0.5569	0.018
Mof_H 	H 	0.4533	0.6091	0.5646	0.067
Mof_O 	O 	0.446	0.8322	0.4141	-0.545
Mof_O 	O 	0.5364	0.8135	0.4681	-0.43
Mof_C 	C 	0.4852	0.8452	0.4607	0.304
Mof_C 	C 	0.4691	0.9017	0.5045	0.032
Mof_C 	C 	0.5097	0.9164	0.5569	-0.09
Mof_H 	H 	0.5467	0.8909	0.5646	0.106
Mof_O 	O 	0.946	0.3322	0.9141	-0.542
Mof_O 	O 	0.0364	0.3135	0.9681	-0.486
Mof_C 	C 	0.9852	0.3452	0.9607	0.489
Mof_C 	C 	0.9691	0.4017	0.0045	-0.167
Mof_C 	C 	0.0097	0.4164	0.0569	-0.095
Mof_H 	H 	0.0467	0.3909	0.0646	0.079
Mof_O 	O 	0.554	0.3322	0.0859	-0.536
Mof_O 	O 	0.4636	0.3135	0.0319	-0.433
Mof_C 	C 	0.5148	0.3452	0.0393	0.215
Mof_C 	C 	0.5309	0.4017	0.9955	0.171
Mof_C 	C 	0.4903	0.4164	0.9431	-0.12
Mof_H 	H 	0.4533	0.3909	0.9354	0.126
Mof_O 	O 	0.054	0.8322	0.5859	-0.522
Mof_O 	O 	0.9636	0.8135	0.5319	-0.36
Mof_C 	C 	0.0148	0.8452	0.5393	0.282
Mof_C 	C 	0.0309	0.9017	0.4955	-0.144
Mof_C 	C 	0.9903	0.9164	0.4431	0.211
Mof_H 	H 	0.9533	0.8909	0.4354	0.018
Mof_O 	O 	0.196	0.8359	0.9178	-0.509
Mof_O 	O 	0.2864	0.7819	0.9365	-0.399
Mof_C 	C 	0.2352	0.7893	0.9048	0.331
Mof_C 	C 	0.2191	0.7455	0.8483	-0.059
Mof_C 	C 	0.2597	0.6931	0.8336	0.016
Mof_H 	H 	0.2967	0.6854	0.8591	0.073
Mof_O 	O 	0.696	0.3359	0.4178	-0.558
Mof_O 	O 	0.7864	0.2819	0.4365	-0.441
Mof_C 	C 	0.7352	0.2893	0.4048	0.337
Mof_C 	C 	0.7191	0.2455	0.3483	-0.072
Mof_C 	C 	0.7597	0.1931	0.3336	0.022
Mof_H 	H 	0.7967	0.1854	0.3591	0.065
Mof_O 	O 	0.304	0.1641	0.4178	-0.563
Mof_O 	O 	0.2136	0.2181	0.4365	-0.45
Mof_C 	C 	0.2648	0.2107	0.4048	0.34
Mof_C 	C 	0.2809	0.2545	0.3483	-0.079
Mof_C 	C 	0.2403	0.3069	0.3336	0.024
Mof_H 	H 	0.2033	0.3146	0.3591	0.059
Mof_O 	O 	0.804	0.6641	0.9178	-0.501
Mof_O 	O 	0.7136	0.7181	0.9365	-0.395
Mof_C 	C 	0.7648	0.7107	0.9048	0.328
Mof_C 	C 	0.7809	0.7545	0.8483	-0.042
Mof_C 	C 	0.7403	0.8069	0.8336	0.006
Mof_H 	H 	0.7033	0.8146	0.8591	0.082
Mof_O 	O 	0.696	0.6641	0.0822	-0.544
Mof_O 	O 	0.7864	0.7181	0.0635	-0.435
Mof_C 	C 	0.7352	0.7107	0.0952	0.335
Mof_C 	C 	0.7191	0.7545	0.1517	-0.068
Mof_C 	C 	0.7597	0.8069	0.1664	0.016
Mof_H 	H 	0.7967	0.8146	0.1409	0.07
Mof_O 	O 	0.196	0.1641	0.5822	-0.566
Mof_O 	O 	0.2864	0.2181	0.5635	-0.445
Mof_C 	C 	0.2352	0.2107	0.5952	0.339
Mof_C 	C 	0.2191	0.2545	0.6517	-0.077
Mof_C 	C 	0.2597	0.3069	0.6664	0.022
Mof_H 	H 	0.2967	0.3146	0.6409	0.064
Mof_O 	O 	0.804	0.3359	0.5822	-0.553
Mof_O 	O 	0.7136	0.2819	0.5635	-0.444
Mof_C 	C 	0.7648	0.2893	0.5952	0.337
Mof_C 	C 	0.7809	0.2455	0.6517	-0.065
Mof_C 	C 	0.7403	0.1931	0.6664	0.017
Mof_H 	H 	0.7033	0.1854	0.6409	0.064
Mof_O 	O 	0.304	0.8359	0.0822	-0.542
Mof_O 	O 	0.2136	0.7819	0.0635	-0.446
Mof_C 	C 	0.2648	0.7893	0.0952	0.338
Mof_C 	C 	0.2809	0.7455	0.1517	-0.078
Mof_C 	C 	0.2403	0.6931	0.1664	0.023
Mof_H 	H 	0.2033	0.6854	0.1409	0.056
Mof_O 	O 	0.8359	0.9178	0.196	-0.509
Mof_O 	O 	0.7819	0.9365	0.2864	-0.399
Mof_C 	C 	0.7893	0.9048	0.2352	0.331
Mof_C 	C 	0.7455	0.8483	0.2191	-0.059
Mof_C 	C 	0.6931	0.8336	0.2597	0.016
Mof_H 	H 	0.6854	0.8591	0.2967	0.073
Mof_O 	O 	0.3359	0.4178	0.696	-0.558
Mof_O 	O 	0.2819	0.4365	0.7864	-0.441
Mof_C 	C 	0.2893	0.4048	0.7352	0.337
Mof_C 	C 	0.2455	0.3483	0.7191	-0.072
Mof_C 	C 	0.1931	0.3336	0.7597	0.022
Mof_H 	H 	0.1854	0.3591	0.7967	0.065
Mof_O 	O 	0.1641	0.4178	0.304	-0.563
Mof_O 	O 	0.2181	0.4365	0.2136	-0.45
Mof_C 	C 	0.2107	0.4048	0.2648	0.34
Mof_C 	C 	0.2545	0.3483	0.2809	-0.079
Mof_C 	C 	0.3069	0.3336	0.2403	0.024
Mof_H 	H 	0.3146	0.3591	0.2033	0.059
Mof_O 	O 	0.6641	0.9178	0.804	-0.501
Mof_O 	O 	0.7181	0.9365	0.7136	-0.395
Mof_C 	C 	0.7107	0.9048	0.7648	0.328
Mof_C 	C 	0.7545	0.8483	0.7809	-0.042
Mof_C 	C 	0.8069	0.8336	0.7403	0.006
Mof_H 	H 	0.8146	0.8591	0.7033	0.082
Mof_O 	O 	0.6641	0.0822	0.696	-0.544
Mof_O 	O 	0.7181	0.0635	0.7864	-0.435
Mof_C 	C 	0.7107	0.0952	0.7352	0.335
Mof_C 	C 	0.7545	0.1517	0.7191	-0.068
Mof_C 	C 	0.8069	0.1664	0.7597	0.016
Mof_H 	H 	0.8146	0.1409	0.7967	0.07
Mof_O 	O 	0.1641	0.5822	0.196	-0.566
Mof_O 	O 	0.2181	0.5635	0.2864	-0.445
Mof_C 	C 	0.2107	0.5952	0.2352	0.339
Mof_C 	C 	0.2545	0.6517	0.2191	-0.077
Mof_C 	C 	0.3069	0.6664	0.2597	0.022
Mof_H 	H 	0.3146	0.6409	0.2967	0.064
Mof_O 	O 	0.3359	0.5822	0.804	-0.553
Mof_O 	O 	0.2819	0.5635	0.7136	-0.444
Mof_C 	C 	0.2893	0.5952	0.7648	0.337
Mof_C 	C 	0.2455	0.6517	0.7809	-0.065
Mof_C 	C 	0.1931	0.6664	0.7403	0.017
Mof_H 	H 	0.1854	0.6409	0.7033	0.064
Mof_O 	O 	0.8359	0.0822	0.304	-0.542
Mof_O 	O 	0.7819	0.0635	0.2136	-0.446
Mof_C 	C 	0.7893	0.0952	0.2648	0.338
Mof_C 	C 	0.7455	0.1517	0.2809	-0.078
Mof_C 	C 	0.6931	0.1664	0.2403	0.023
Mof_H 	H 	0.6854	0.1409	0.2033	0.056
Mof_O 	O 	0.9178	0.196	0.8359	-0.509
Mof_O 	O 	0.9365	0.2864	0.7819	-0.399
Mof_C 	C 	0.9048	0.2352	0.7893	0.331
Mof_C 	C 	0.8483	0.2191	0.7455	-0.059
Mof_C 	C 	0.8336	0.2597	0.6931	0.016
Mof_H 	H 	0.8591	0.2967	0.6854	0.073
Mof_O 	O 	0.4178	0.696	0.3359	-0.558
Mof_O 	O 	0.4365	0.7864	0.2819	-0.441
Mof_C 	C 	0.4048	0.7352	0.2893	0.337
Mof_C 	C 	0.3483	0.7191	0.2455	-0.072
Mof_C 	C 	0.3336	0.7597	0.1931	0.022
Mof_H 	H 	0.3591	0.7967	0.1854	0.065
Mof_O 	O 	0.4178	0.304	0.1641	-0.563
Mof_O 	O 	0.4365	0.2136	0.2181	-0.45
Mof_C 	C 	0.4048	0.2648	0.2107	0.34
Mof_C 	C 	0.3483	0.2809	0.2545	-0.079
Mof_C 	C 	0.3336	0.2403	0.3069	0.024
Mof_H 	H 	0.3591	0.2033	0.3146	0.059
Mof_O 	O 	0.9178	0.804	0.6641	-0.501
Mof_O 	O 	0.9365	0.7136	0.7181	-0.395
Mof_C 	C 	0.9048	0.7648	0.7107	0.328
Mof_C 	C 	0.8483	0.7809	0.7545	-0.042
Mof_C 	C 	0.8336	0.7403	0.8069	0.006
Mof_H 	H 	0.8591	0.7033	0.8146	0.082
Mof_O 	O 	0.0822	0.696	0.6641	-0.544
Mof_O 	O 	0.0635	0.7864	0.7181	-0.435
Mof_C 	C 	0.0952	0.7352	0.7107	0.335
Mof_C 	C 	0.1517	0.7191	0.7545	-0.068
Mof_C 	C 	0.1664	0.7597	0.8069	0.016
Mof_H 	H 	0.1409	0.7967	0.8146	0.07
Mof_O 	O 	0.5822	0.196	0.1641	-0.566
Mof_O 	O 	0.5635	0.2864	0.2181	-0.445
Mof_C 	C 	0.5952	0.2352	0.2107	0.339
Mof_C 	C 	0.6517	0.2191	0.2545	-0.077
Mof_C 	C 	0.6664	0.2597	0.3069	0.022
Mof_H 	H 	0.6409	0.2967	0.3146	0.064
Mof_O 	O 	0.5822	0.804	0.3359	-0.553
Mof_O 	O 	0.5635	0.7136	0.2819	-0.444
Mof_C 	C 	0.5952	0.7648	0.2893	0.337
Mof_C 	C 	0.6517	0.7809	0.2455	-0.065
Mof_C 	C 	0.6664	0.7403	0.1931	0.017
Mof_H 	H 	0.6409	0.7033	0.1854	0.064
Mof_O 	O 	0.0822	0.304	0.8359	-0.542
Mof_O 	O 	0.0635	0.2136	0.7819	-0.446
Mof_C 	C 	0.0952	0.2648	0.7893	0.338
Mof_C 	C 	0.1517	0.2809	0.7455	-0.078
Mof_C 	C 	0.1664	0.2403	0.6931	0.023
Mof_H 	H 	0.1409	0.2033	0.6854	0.056
Mof_In	In	0.625	-1.18884e-32	0.75	2.384
Mof_In	In	0.875	0	0.25	2.395
Mof_In	In	0.375	0.5	0.75	2.584
Mof_In	In	0.125	0.5	0.25	2.569
Mof_In	In	0.75	0.625	-0	2.384
Mof_In	In	0.25	0.875	-0	2.395
Mof_In	In	0.75	0.375	0.5	2.584
Mof_In	In	0.25	0.125	0.5	2.569
Mof_In	In	-3.60081e-33	0.75	0.625	2.384
Mof_In	In	-8.60763e-33	0.25	0.875	2.395
Mof_In	In	0.5	0.75	0.375	2.584
Mof_In	In	0.5	0.25	0.125	2.569
_end
