data_functionalizedCrystal
_audit_creation_method	'EQeq! by Chris Wilmer'
_symmetry_space_group_name_H-M	'P1'
_symmetry_Int_Tables_number	1
_symmetry_cell_setting	triclinic
loop_
_symmetry_equiv_pos_as_xyz
  x,y,z
_cell_length_a	28.795
_cell_length_b	9.5078
_cell_length_c	27.7363
_cell_angle_alpha	90
_cell_angle_beta	92.594
_cell_angle_gamma	90
loop_
_atom_site_label
_atom_site_type_symbol
_atom_site_fract_x
_atom_site_fract_y
_atom_site_fract_z
_atom_site_charge
Mof_Bi	Bi	0.8999	0.41667	0.97784	1.081
Mof_O 	O 	0.9284	0.4967	0.0517	-0.295
Mof_O 	O 	0.9351	0.7003	0.0926	-0.252
Mof_O 	O 	0.9292	0.6205	0.9668	-0.344
Mof_O 	O 	0.8395	0.5811	0.0078	-0.422
Mof_O 	O 	0.8097	0.7686	0.0395	-0.386
Mof_O 	O 	0.0485	0.792	0.9801	-0.34
Mof_O 	O 	0.0254	0.651	0.0364	-0.403
Mof_C 	C 	0.9324	0.6318	0.0539	0.187
Mof_C 	C 	0.9292	0.7138	0.0058	0.337
Mof_C 	C 	0.9699	0.8163	0.0039	-0.546
Mof_H 	H 	0.9665	0.8701	0.9743	0.209
Mof_H 	H 	0.9682	0.8818	0.0306	0.202
Mof_C 	C 	0.8841	0.7961	0.0053	-0.562
Mof_H 	H 	0.8784	0.8354	0.9733	0.22
Mof_H 	H 	0.8879	0.874	0.0277	0.223
Mof_C 	C 	0.8413	0.7108	0.0185	0.501
Mof_C 	C 	0.017	0.7499	0.0063	0.461
Mof_Bi	Bi	0.1001	0.58333	0.02216	1.082
Mof_O 	O 	0.0716	0.5033	0.9483	-0.294
Mof_O 	O 	0.0649	0.2997	0.9074	-0.251
Mof_O 	O 	0.0708	0.3795	0.0332	-0.343
Mof_O 	O 	0.1605	0.4189	0.9922	-0.421
Mof_O 	O 	0.1903	0.2314	0.9605	-0.385
Mof_O 	O 	0.9515	0.208	0.0199	-0.34
Mof_O 	O 	0.9746	0.349	0.9636	-0.403
Mof_C 	C 	0.0676	0.3682	0.9461	0.187
Mof_C 	C 	0.0708	0.2862	0.9942	0.337
Mof_C 	C 	0.0301	0.1837	0.9961	-0.546
Mof_H 	H 	0.0335	0.1299	0.0257	0.209
Mof_H 	H 	0.0318	0.1182	0.9694	0.202
Mof_C 	C 	0.1159	0.2039	0.9947	-0.562
Mof_H 	H 	0.1216	0.1646	0.0267	0.22
Mof_H 	H 	0.1121	0.126	0.9723	0.223
Mof_C 	C 	0.1587	0.2892	0.9815	0.501
Mof_C 	C 	0.983	0.2501	0.9937	0.461
Mof_Bi	Bi	0.75365	0.55053	0.99785	1.081
Mof_O 	O 	0.6872	0.4342	0.0096	-0.307
Mof_O 	O 	0.646	0.347	0.0683	-0.255
Mof_O 	O 	0.7663	0.4417	0.0651	-0.321
Mof_O 	O 	0.7108	0.6935	0.0651	-0.38
Mof_O 	O 	0.6986	0.7544	0.1401	-0.266
Mof_O 	O 	0.7686	0.0437	0.0916	-0.307
Mof_O 	O 	0.7217	0.1486	0.0376	-0.374
Mof_C 	C 	0.6824	0.3967	0.0534	0.218
Mof_C 	C 	0.7255	0.4056	0.0885	0.29
Mof_C 	C 	0.7328	0.2628	0.1137	-0.481
Mof_H 	H 	0.7589	0.2703	0.137	0.194
Mof_H 	H 	0.7054	0.2404	0.1312	0.187
Mof_C 	C 	0.7157	0.5163	0.1269	-0.529
Mof_H 	H 	0.6878	0.4893	0.143	0.205
Mof_H 	H 	0.7413	0.5166	0.1509	0.204
Mof_C 	C 	0.7093	0.6639	0.1072	0.473
Mof_C 	C 	0.7422	0.1433	0.0788	0.439
Mof_Bi	Bi	0.74635	0.94947	0.00215	1.086
Mof_O 	O 	0.8128	0.0658	0.9904	-0.307
Mof_O 	O 	0.854	0.153	0.9317	-0.254
Mof_O 	O 	0.7337	0.0583	0.9349	-0.322
Mof_O 	O 	0.7892	0.8065	0.9349	-0.383
Mof_O 	O 	0.8014	0.7456	0.8599	-0.269
Mof_O 	O 	0.7314	0.4563	0.9084	-0.306
Mof_O 	O 	0.7783	0.3514	0.9624	-0.373
Mof_C 	C 	0.8176	0.1033	0.9466	0.216
Mof_C 	C 	0.7745	0.0944	0.9115	0.296
Mof_C 	C 	0.7672	0.2372	0.8863	-0.485
Mof_H 	H 	0.7411	0.2297	0.863	0.196
Mof_H 	H 	0.7946	0.2596	0.8688	0.189
Mof_C 	C 	0.7843	0.9837	0.8731	-0.544
Mof_H 	H 	0.8122	0.0107	0.857	0.212
Mof_H 	H 	0.7587	0.9834	0.8491	0.206
Mof_C 	C 	0.7907	0.8361	0.8928	0.477
Mof_C 	C 	0.7578	0.3567	0.9212	0.441
Mof_Bi	Bi	0.01101	0.58766	0.14321	1.043
Mof_Bi	Bi	0.98899	0.58766	0.35679	1.045
Mof_O 	O 	0.0534	0.7615	0.1858	-0.264
Mof_O 	O 	0.1225	0.7852	0.2224	-0.212
Mof_O 	O 	0.0509	0.4881	0.1979	-0.329
Mof_O 	O 	0.1581	0.4783	0.1032	-0.324
Mof_O 	O 	0.0911	0.5801	0.1108	-0.421
Mof_O 	O 	0.0467	0.446	0.3223	-0.33
Mof_O 	O 	0.044	0.6638	0.296	-0.337
Mof_C 	C 	0.0906	0.713	0.208	0.212
Mof_C 	C 	0.0923	0.5562	0.2129	0.289
Mof_C 	C 	0.1031	0.516	0.264	-0.466
Mof_H 	H 	0.1098	0.4159	0.2659	0.195
Mof_H 	H 	0.1303	0.5666	0.2763	0.188
Mof_C 	C 	0.133	0.4964	0.1822	-0.52
Mof_H 	H 	0.1358	0.3962	0.1881	0.213
Mof_H 	H 	0.162	0.5398	0.1937	0.197
Mof_C 	C 	0.1272	0.5197	0.1287	0.48
Mof_C 	C 	0.0604	0.551	0.296	0.437
Mof_O 	O 	0.9466	0.7615	0.3142	-0.264
Mof_O 	O 	0.8775	0.7852	0.2776	-0.212
Mof_O 	O 	0.9491	0.4881	0.3021	-0.329
Mof_O 	O 	0.8419	0.4783	0.3968	-0.324
Mof_O 	O 	0.9089	0.5801	0.3892	-0.421
Mof_O 	O 	0.9533	0.446	0.1777	-0.329
Mof_O 	O 	0.956	0.6638	0.204	-0.336
Mof_C 	C 	0.9094	0.713	0.292	0.212
Mof_C 	C 	0.9077	0.5562	0.2871	0.289
Mof_C 	C 	0.8969	0.516	0.236	-0.465
Mof_H 	H 	0.8902	0.4159	0.2341	0.195
Mof_H 	H 	0.8697	0.5666	0.2237	0.188
Mof_C 	C 	0.867	0.4964	0.3178	-0.52
Mof_H 	H 	0.8642	0.3962	0.3119	0.213
Mof_H 	H 	0.838	0.5398	0.3063	0.197
Mof_C 	C 	0.8728	0.5197	0.3713	0.48
Mof_C 	C 	0.9396	0.551	0.204	0.437
Mof_O 	O 	0.9466	0.2385	0.8142	-0.264
Mof_O 	O 	0.8775	0.2148	0.7776	-0.212
Mof_O 	O 	0.9491	0.5119	0.8021	-0.329
Mof_O 	O 	0.8419	0.5217	0.8968	-0.324
Mof_O 	O 	0.9089	0.4199	0.8892	-0.421
Mof_O 	O 	0.9533	0.554	0.6777	-0.33
Mof_O 	O 	0.956	0.3362	0.704	-0.337
Mof_C 	C 	0.9094	0.287	0.792	0.212
Mof_C 	C 	0.9077	0.4438	0.7871	0.289
Mof_C 	C 	0.8969	0.484	0.736	-0.466
Mof_H 	H 	0.8902	0.5841	0.7341	0.195
Mof_H 	H 	0.8697	0.4334	0.7237	0.188
Mof_C 	C 	0.867	0.5036	0.8178	-0.52
Mof_H 	H 	0.8642	0.6038	0.8119	0.213
Mof_H 	H 	0.838	0.4602	0.8063	0.197
Mof_C 	C 	0.8728	0.4803	0.8713	0.48
Mof_C 	C 	0.9396	0.449	0.704	0.437
Mof_O 	O 	0.0534	0.2385	0.6858	-0.264
Mof_O 	O 	0.1225	0.2148	0.7224	-0.212
Mof_O 	O 	0.0509	0.5119	0.6979	-0.329
Mof_O 	O 	0.1581	0.5217	0.6032	-0.324
Mof_O 	O 	0.0911	0.4199	0.6108	-0.421
Mof_O 	O 	0.0467	0.554	0.8223	-0.329
Mof_O 	O 	0.044	0.3362	0.796	-0.336
Mof_C 	C 	0.0906	0.287	0.708	0.212
Mof_C 	C 	0.0923	0.4438	0.7129	0.289
Mof_C 	C 	0.1031	0.484	0.764	-0.465
Mof_H 	H 	0.1098	0.5841	0.7659	0.195
Mof_H 	H 	0.1303	0.4334	0.7763	0.188
Mof_C 	C 	0.133	0.5036	0.6822	-0.52
Mof_H 	H 	0.1358	0.6038	0.6881	0.213
Mof_H 	H 	0.162	0.4602	0.6937	0.197
Mof_C 	C 	0.1272	0.4803	0.6287	0.48
Mof_C 	C 	0.0604	0.449	0.796	0.437
Mof_Bi	Bi	0.98899	0.41234	0.85679	1.043
Mof_Bi	Bi	0.01101	0.41234	0.64321	1.045
Mof_Bi	Bi	0.3999	0.91667	0.97784	1.081
Mof_O 	O 	0.4284	0.9967	0.0517	-0.291
Mof_O 	O 	0.4351	0.2003	0.0926	-0.25
Mof_O 	O 	0.4292	0.1205	0.9668	-0.341
Mof_O 	O 	0.3395	0.0811	0.0078	-0.424
Mof_O 	O 	0.3097	0.2686	0.0395	-0.387
Mof_O 	O 	0.5485	0.292	0.9801	-0.341
Mof_O 	O 	0.5254	0.151	0.0364	-0.403
Mof_C 	C 	0.4324	0.1318	0.0539	0.183
Mof_C 	C 	0.4292	0.2138	0.0058	0.34
Mof_C 	C 	0.4699	0.3163	0.0039	-0.555
Mof_H 	H 	0.4665	0.3701	0.9743	0.214
Mof_H 	H 	0.4682	0.3818	0.0306	0.204
Mof_C 	C 	0.3841	0.2961	0.0053	-0.569
Mof_H 	H 	0.3784	0.3354	0.9733	0.224
Mof_H 	H 	0.3879	0.374	0.0277	0.224
Mof_C 	C 	0.3413	0.2108	0.0185	0.503
Mof_C 	C 	0.517	0.2499	0.0063	0.465
Mof_Bi	Bi	0.6001	0.08333	0.02216	1.081
Mof_O 	O 	0.5716	0.0033	0.9483	-0.291
Mof_O 	O 	0.5649	0.7997	0.9074	-0.25
Mof_O 	O 	0.5708	0.8795	0.0332	-0.341
Mof_O 	O 	0.6605	0.9189	0.9922	-0.424
Mof_O 	O 	0.6903	0.7314	0.9605	-0.387
Mof_O 	O 	0.4515	0.708	0.0199	-0.341
Mof_O 	O 	0.4746	0.849	0.9636	-0.403
Mof_C 	C 	0.5676	0.8682	0.9461	0.183
Mof_C 	C 	0.5708	0.7862	0.9942	0.34
Mof_C 	C 	0.5301	0.6837	0.9961	-0.555
Mof_H 	H 	0.5335	0.6299	0.0257	0.214
Mof_H 	H 	0.5318	0.6182	0.9694	0.204
Mof_C 	C 	0.6159	0.7039	0.9947	-0.569
Mof_H 	H 	0.6216	0.6646	0.0267	0.224
Mof_H 	H 	0.6121	0.626	0.9723	0.224
Mof_C 	C 	0.6587	0.7892	0.9815	0.503
Mof_C 	C 	0.483	0.7501	0.9937	0.465
Mof_Bi	Bi	0.25365	0.05053	0.99785	1.086
Mof_O 	O 	0.1872	0.9342	0.0096	-0.307
Mof_O 	O 	0.146	0.847	0.0683	-0.254
Mof_O 	O 	0.2663	0.9417	0.0651	-0.322
Mof_O 	O 	0.2108	0.1935	0.0651	-0.383
Mof_O 	O 	0.1986	0.2544	0.1401	-0.269
Mof_O 	O 	0.2686	0.5437	0.0916	-0.306
Mof_O 	O 	0.2217	0.6486	0.0376	-0.373
Mof_C 	C 	0.1824	0.8967	0.0534	0.216
Mof_C 	C 	0.2255	0.9056	0.0885	0.296
Mof_C 	C 	0.2328	0.7628	0.1137	-0.485
Mof_H 	H 	0.2589	0.7703	0.137	0.196
Mof_H 	H 	0.2054	0.7404	0.1312	0.189
Mof_C 	C 	0.2157	0.0163	0.1269	-0.544
Mof_H 	H 	0.1878	0.9893	0.143	0.212
Mof_H 	H 	0.2413	0.0166	0.1509	0.206
Mof_C 	C 	0.2093	0.1639	0.1072	0.477
Mof_C 	C 	0.2422	0.6433	0.0788	0.441
Mof_Bi	Bi	0.24635	0.44947	0.00215	1.081
Mof_O 	O 	0.3128	0.5658	0.9904	-0.307
Mof_O 	O 	0.354	0.653	0.9317	-0.255
Mof_O 	O 	0.2337	0.5583	0.9349	-0.321
Mof_O 	O 	0.2892	0.3065	0.9349	-0.38
Mof_O 	O 	0.3014	0.2456	0.8599	-0.266
Mof_O 	O 	0.2314	0.9563	0.9084	-0.307
Mof_O 	O 	0.2783	0.8514	0.9624	-0.374
Mof_C 	C 	0.3176	0.6033	0.9466	0.218
Mof_C 	C 	0.2745	0.5944	0.9115	0.29
Mof_C 	C 	0.2672	0.7372	0.8863	-0.481
Mof_H 	H 	0.2411	0.7297	0.863	0.194
Mof_H 	H 	0.2946	0.7596	0.8688	0.187
Mof_C 	C 	0.2843	0.4837	0.8731	-0.529
Mof_H 	H 	0.3122	0.5107	0.857	0.205
Mof_H 	H 	0.2587	0.4834	0.8491	0.204
Mof_C 	C 	0.2907	0.3361	0.8928	0.473
Mof_C 	C 	0.2578	0.8567	0.9212	0.439
Mof_Bi	Bi	0.51101	0.08766	0.14321	1.035
Mof_Bi	Bi	0.48899	0.08766	0.35679	1.036
Mof_O 	O 	0.5534	0.2615	0.1858	-0.265
Mof_O 	O 	0.6225	0.2852	0.2224	-0.214
Mof_O 	O 	0.5509	0.9881	0.1979	-0.32
Mof_O 	O 	0.6581	0.9783	0.1032	-0.314
Mof_O 	O 	0.5911	0.0801	0.1108	-0.417
Mof_O 	O 	0.5467	0.946	0.3223	-0.324
Mof_O 	O 	0.544	0.1638	0.296	-0.335
Mof_C 	C 	0.5906	0.213	0.208	0.216
Mof_C 	C 	0.5923	0.0562	0.2129	0.275
Mof_C 	C 	0.6031	0.016	0.264	-0.468
Mof_H 	H 	0.6098	0.9159	0.2659	0.199
Mof_H 	H 	0.6303	0.0666	0.2763	0.187
Mof_C 	C 	0.633	0.9964	0.1822	-0.488
Mof_H 	H 	0.6358	0.8962	0.1881	0.205
Mof_H 	H 	0.662	0.0398	0.1937	0.184
Mof_C 	C 	0.6272	0.0197	0.1287	0.461
Mof_C 	C 	0.5604	0.051	0.296	0.43
Mof_O 	O 	0.4466	0.2615	0.3142	-0.265
Mof_O 	O 	0.3775	0.2852	0.2776	-0.214
Mof_O 	O 	0.4491	0.9881	0.3021	-0.32
Mof_O 	O 	0.3419	0.9783	0.3968	-0.316
Mof_O 	O 	0.4089	0.0801	0.3892	-0.417
Mof_O 	O 	0.4533	0.946	0.1777	-0.323
Mof_O 	O 	0.456	0.1638	0.204	-0.335
Mof_C 	C 	0.4094	0.213	0.292	0.216
Mof_C 	C 	0.4077	0.0562	0.2871	0.276
Mof_C 	C 	0.3969	0.016	0.236	-0.468
Mof_H 	H 	0.3902	0.9159	0.2341	0.199
Mof_H 	H 	0.3697	0.0666	0.2237	0.187
Mof_C 	C 	0.367	0.9964	0.3178	-0.491
Mof_H 	H 	0.3642	0.8962	0.3119	0.206
Mof_H 	H 	0.338	0.0398	0.3063	0.185
Mof_C 	C 	0.3728	0.0197	0.3713	0.463
Mof_C 	C 	0.4396	0.051	0.204	0.43
Mof_O 	O 	0.4466	0.7385	0.8142	-0.265
Mof_O 	O 	0.3775	0.7148	0.7776	-0.214
Mof_O 	O 	0.4491	0.0119	0.8021	-0.32
Mof_O 	O 	0.3419	0.0217	0.8968	-0.314
Mof_O 	O 	0.4089	0.9199	0.8892	-0.417
Mof_O 	O 	0.4533	0.054	0.6777	-0.324
Mof_O 	O 	0.456	0.8362	0.704	-0.335
Mof_C 	C 	0.4094	0.787	0.792	0.216
Mof_C 	C 	0.4077	0.9438	0.7871	0.275
Mof_C 	C 	0.3969	0.984	0.736	-0.468
Mof_H 	H 	0.3902	0.0841	0.7341	0.199
Mof_H 	H 	0.3697	0.9334	0.7237	0.187
Mof_C 	C 	0.367	0.0036	0.8178	-0.488
Mof_H 	H 	0.3642	0.1038	0.8119	0.205
Mof_H 	H 	0.338	0.9602	0.8063	0.184
Mof_C 	C 	0.3728	0.9803	0.8713	0.461
Mof_C 	C 	0.4396	0.949	0.704	0.43
Mof_O 	O 	0.5534	0.7385	0.6858	-0.265
Mof_O 	O 	0.6225	0.7148	0.7224	-0.214
Mof_O 	O 	0.5509	0.0119	0.6979	-0.32
Mof_O 	O 	0.6581	0.0217	0.6032	-0.316
Mof_O 	O 	0.5911	0.9199	0.6108	-0.417
Mof_O 	O 	0.5467	0.054	0.8223	-0.323
Mof_O 	O 	0.544	0.8362	0.796	-0.335
Mof_C 	C 	0.5906	0.787	0.708	0.216
Mof_C 	C 	0.5923	0.9438	0.7129	0.276
Mof_C 	C 	0.6031	0.984	0.764	-0.468
Mof_H 	H 	0.6098	0.0841	0.7659	0.199
Mof_H 	H 	0.6303	0.9334	0.7763	0.187
Mof_C 	C 	0.633	0.0036	0.6822	-0.491
Mof_H 	H 	0.6358	0.1038	0.6881	0.206
Mof_H 	H 	0.662	0.9602	0.6937	0.185
Mof_C 	C 	0.6272	0.9803	0.6287	0.463
Mof_C 	C 	0.5604	0.949	0.796	0.43
Mof_Bi	Bi	0.48899	0.91234	0.85679	1.035
Mof_Bi	Bi	0.51101	0.91234	0.64321	1.036
Mof_Bi	Bi	0.1001	0.41667	0.52216	1.083
Mof_O 	O 	0.0716	0.4967	0.4483	-0.294
Mof_O 	O 	0.0649	0.7003	0.4074	-0.251
Mof_O 	O 	0.0708	0.6205	0.5332	-0.343
Mof_O 	O 	0.1605	0.5811	0.4922	-0.422
Mof_O 	O 	0.1903	0.7686	0.4605	-0.386
Mof_O 	O 	0.9515	0.792	0.5199	-0.342
Mof_O 	O 	0.9746	0.651	0.4636	-0.403
Mof_C 	C 	0.0676	0.6318	0.4461	0.186
Mof_C 	C 	0.0708	0.7138	0.4942	0.339
Mof_C 	C 	0.0301	0.8163	0.4961	-0.554
Mof_H 	H 	0.0335	0.8701	0.5257	0.213
Mof_H 	H 	0.0318	0.8818	0.4694	0.203
Mof_C 	C 	0.1159	0.7961	0.4947	-0.567
Mof_H 	H 	0.1216	0.8354	0.5267	0.223
Mof_H 	H 	0.1121	0.874	0.4723	0.224
Mof_C 	C 	0.1587	0.7108	0.4815	0.502
Mof_C 	C 	0.983	0.7499	0.4937	0.465
Mof_Bi	Bi	0.8999	0.58333	0.47784	1.083
Mof_O 	O 	0.9284	0.5033	0.5517	-0.294
Mof_O 	O 	0.9351	0.2997	0.5926	-0.251
Mof_O 	O 	0.9292	0.3795	0.4668	-0.343
Mof_O 	O 	0.8395	0.4189	0.5078	-0.422
Mof_O 	O 	0.8097	0.2314	0.5395	-0.386
Mof_O 	O 	0.0485	0.208	0.4801	-0.342
Mof_O 	O 	0.0254	0.349	0.5364	-0.403
Mof_C 	C 	0.9324	0.3682	0.5539	0.186
Mof_C 	C 	0.9292	0.2862	0.5058	0.339
Mof_C 	C 	0.9699	0.1837	0.5039	-0.554
Mof_H 	H 	0.9665	0.1299	0.4743	0.213
Mof_H 	H 	0.9682	0.1182	0.5306	0.203
Mof_C 	C 	0.8841	0.2039	0.5053	-0.567
Mof_H 	H 	0.8784	0.1646	0.4733	0.223
Mof_H 	H 	0.8879	0.126	0.5277	0.224
Mof_C 	C 	0.8413	0.2892	0.5185	0.502
Mof_C 	C 	0.017	0.2501	0.5063	0.465
Mof_Bi	Bi	0.24635	0.55053	0.50215	1.083
Mof_O 	O 	0.3128	0.4342	0.4904	-0.307
Mof_O 	O 	0.354	0.347	0.4317	-0.255
Mof_O 	O 	0.2337	0.4417	0.4349	-0.321
Mof_O 	O 	0.2892	0.6935	0.4349	-0.38
Mof_O 	O 	0.3014	0.7544	0.3599	-0.266
Mof_O 	O 	0.2314	0.0437	0.4084	-0.307
Mof_O 	O 	0.2783	0.1486	0.4624	-0.373
Mof_C 	C 	0.3176	0.3967	0.4466	0.218
Mof_C 	C 	0.2745	0.4056	0.4115	0.29
Mof_C 	C 	0.2672	0.2628	0.3863	-0.481
Mof_H 	H 	0.2411	0.2703	0.363	0.194
Mof_H 	H 	0.2946	0.2404	0.3688	0.187
Mof_C 	C 	0.2843	0.5163	0.3731	-0.529
Mof_H 	H 	0.3122	0.4893	0.357	0.205
Mof_H 	H 	0.2587	0.5166	0.3491	0.204
Mof_C 	C 	0.2907	0.6639	0.3928	0.473
Mof_C 	C 	0.2578	0.1433	0.4212	0.439
Mof_Bi	Bi	0.25365	0.94947	0.49785	1.082
Mof_O 	O 	0.1872	0.0658	0.5096	-0.307
Mof_O 	O 	0.146	0.153	0.5683	-0.255
Mof_O 	O 	0.2663	0.0583	0.5651	-0.321
Mof_O 	O 	0.2108	0.8065	0.5651	-0.382
Mof_O 	O 	0.1986	0.7456	0.6401	-0.268
Mof_O 	O 	0.2686	0.4563	0.5916	-0.306
Mof_O 	O 	0.2217	0.3514	0.5376	-0.373
Mof_C 	C 	0.1824	0.1033	0.5534	0.216
Mof_C 	C 	0.2255	0.0944	0.5885	0.295
Mof_C 	C 	0.2328	0.2372	0.6137	-0.484
Mof_H 	H 	0.2589	0.2297	0.637	0.196
Mof_H 	H 	0.2054	0.2596	0.6312	0.188
Mof_C 	C 	0.2157	0.9837	0.6269	-0.541
Mof_H 	H 	0.1878	0.0107	0.643	0.211
Mof_H 	H 	0.2413	0.9834	0.6509	0.206
Mof_C 	C 	0.2093	0.8361	0.6072	0.476
Mof_C 	C 	0.2422	0.3567	0.5788	0.44
Mof_Bi	Bi	0.6001	0.91667	0.52216	1.082
Mof_O 	O 	0.5716	0.9967	0.4483	-0.292
Mof_O 	O 	0.5649	0.2003	0.4074	-0.251
Mof_O 	O 	0.5708	0.1205	0.5332	-0.342
Mof_O 	O 	0.6605	0.0811	0.4922	-0.423
Mof_O 	O 	0.6903	0.2686	0.4605	-0.386
Mof_O 	O 	0.4515	0.292	0.5199	-0.341
Mof_O 	O 	0.4746	0.151	0.4636	-0.403
Mof_C 	C 	0.5676	0.1318	0.4461	0.184
Mof_C 	C 	0.5708	0.2138	0.4942	0.34
Mof_C 	C 	0.5301	0.3163	0.4961	-0.554
Mof_H 	H 	0.5335	0.3701	0.5257	0.213
Mof_H 	H 	0.5318	0.3818	0.4694	0.203
Mof_C 	C 	0.6159	0.2961	0.4947	-0.568
Mof_H 	H 	0.6216	0.3354	0.5267	0.223
Mof_H 	H 	0.6121	0.374	0.4723	0.224
Mof_C 	C 	0.6587	0.2108	0.4815	0.502
Mof_C 	C 	0.483	0.2499	0.4937	0.465
Mof_Bi	Bi	0.3999	0.08333	0.47784	1.082
Mof_O 	O 	0.4284	0.0033	0.5517	-0.292
Mof_O 	O 	0.4351	0.7997	0.5926	-0.251
Mof_O 	O 	0.4292	0.8795	0.4668	-0.342
Mof_O 	O 	0.3395	0.9189	0.5078	-0.423
Mof_O 	O 	0.3097	0.7314	0.5395	-0.386
Mof_O 	O 	0.5485	0.708	0.4801	-0.341
Mof_O 	O 	0.5254	0.849	0.5364	-0.403
Mof_C 	C 	0.4324	0.8682	0.5539	0.184
Mof_C 	C 	0.4292	0.7862	0.5058	0.34
Mof_C 	C 	0.4699	0.6837	0.5039	-0.554
Mof_H 	H 	0.4665	0.6299	0.4743	0.213
Mof_H 	H 	0.4682	0.6182	0.5306	0.203
Mof_C 	C 	0.3841	0.7039	0.5053	-0.568
Mof_H 	H 	0.3784	0.6646	0.4733	0.223
Mof_H 	H 	0.3879	0.626	0.5277	0.224
Mof_C 	C 	0.3413	0.7892	0.5185	0.502
Mof_C 	C 	0.517	0.7501	0.5063	0.465
Mof_Bi	Bi	0.74635	0.05053	0.50215	1.082
Mof_O 	O 	0.8128	0.9342	0.4904	-0.307
Mof_O 	O 	0.854	0.847	0.4317	-0.255
Mof_O 	O 	0.7337	0.9417	0.4349	-0.321
Mof_O 	O 	0.7892	0.1935	0.4349	-0.382
Mof_O 	O 	0.8014	0.2544	0.3599	-0.268
Mof_O 	O 	0.7314	0.5437	0.4084	-0.306
Mof_O 	O 	0.7783	0.6486	0.4624	-0.373
Mof_C 	C 	0.8176	0.8967	0.4466	0.216
Mof_C 	C 	0.7745	0.9056	0.4115	0.295
Mof_C 	C 	0.7672	0.7628	0.3863	-0.484
Mof_H 	H 	0.7411	0.7703	0.363	0.196
Mof_H 	H 	0.7946	0.7404	0.3688	0.188
Mof_C 	C 	0.7843	0.0163	0.3731	-0.541
Mof_H 	H 	0.8122	0.9893	0.357	0.211
Mof_H 	H 	0.7587	0.0166	0.3491	0.206
Mof_C 	C 	0.7907	0.1639	0.3928	0.476
Mof_C 	C 	0.7578	0.6433	0.4212	0.44
Mof_Bi	Bi	0.75365	0.44947	0.49785	1.083
Mof_O 	O 	0.6872	0.5658	0.5096	-0.307
Mof_O 	O 	0.646	0.653	0.5683	-0.255
Mof_O 	O 	0.7663	0.5583	0.5651	-0.321
Mof_O 	O 	0.7108	0.3065	0.5651	-0.38
Mof_O 	O 	0.6986	0.2456	0.6401	-0.266
Mof_O 	O 	0.7686	0.9563	0.5916	-0.307
Mof_O 	O 	0.7217	0.8514	0.5376	-0.373
Mof_C 	C 	0.6824	0.6033	0.5534	0.218
Mof_C 	C 	0.7255	0.5944	0.5885	0.29
Mof_C 	C 	0.7328	0.7372	0.6137	-0.481
Mof_H 	H 	0.7589	0.7297	0.637	0.194
Mof_H 	H 	0.7054	0.7596	0.6312	0.187
Mof_C 	C 	0.7157	0.4837	0.6269	-0.529
Mof_H 	H 	0.6878	0.5107	0.643	0.205
Mof_H 	H 	0.7413	0.4834	0.6509	0.204
Mof_C 	C 	0.7093	0.3361	0.6072	0.473
Mof_C 	C 	0.7422	0.8567	0.5788	0.439
_end
