data_functionalizedCrystal
_audit_creation_method	'EQeq! by Chris Wilmer'
_symmetry_space_group_name_H-M	'P1'
_symmetry_Int_Tables_number	1
_symmetry_cell_setting	triclinic
loop_
_symmetry_equiv_pos_as_xyz
  x,y,z
_cell_length_a	24.3584
_cell_length_b	23.8485
_cell_length_c	17.1987
_cell_angle_alpha	90
_cell_angle_beta	93.465
_cell_angle_gamma	90
loop_
_atom_site_label
_atom_site_type_symbol
_atom_site_fract_x
_atom_site_fract_y
_atom_site_fract_z
_atom_site_charge
Mof_Zn	Zn	0.14194	0.06619	0.31002	1.215
Mof_O 	O 	0.2435	0.0715	0.2076	-0.507
Mof_O 	O 	0.1969	0.12	0.2992	-0.499
Mof_O 	O 	0.0683	0.1018	0.2954	-0.504
Mof_O 	O 	0.0286	0.937	0.19	-0.504
Mof_O 	O 	0.1439	0.0463	0.4208	-0.511
Mof_O 	O 	0.3645	0.85	0.706	-0.104
Mof_O 	O 	0.4193	0.7764	0.718	-0.102
Mof_O 	O 	0.3925	0.6313	0.8941	-0.162
Mof_O 	O 	0.3366	0.6425	0.99	-0.142
Mof_O 	O 	0.5164	0.1554	0.827	-0.104
Mof_O 	O 	0.4815	0.2053	0.921	-0.125
Mof_O 	O 	0.3513	0.0354	0.764	-0.134
Mof_N 	N 	0.2381	0.8906	0.8332	-0.073
Mof_N 	N 	0.2799	0.8629	0.7996	-0.159
Mof_H 	H 	0.2944	0.8791	0.7598	0.149
Mof_N 	N 	0.3772	0.8031	0.7318	-0.007
Mof_N 	N 	0.3578	0.6568	0.93	-0.01
Mof_N 	N 	0.3807	0.165	0.0641	-0.06
Mof_N 	N 	0.4122	0.1639	-0	-0.139
Mof_H 	H 	0.4358	0.191	0.9924	0.149
Mof_N 	N 	0.483	0.1639	0.8773	-0.005
Mof_C 	C 	0.2304	0.1141	0.2469	0.362
Mof_C 	C 	0.2726	0.1604	0.2445	-0.058
Mof_C 	C 	0.2776	0.2004	0.3033	-0.006
Mof_H 	H 	0.2534	0.1997	0.3445	0.059
Mof_C 	C 	0.3181	0.2414	0.3017	-0.044
Mof_H 	H 	0.3215	0.2687	0.3419	0.055
Mof_C 	C 	0.3536	0.2424	0.2414	-0.022
Mof_C 	C 	0.3485	0.2024	0.1826	0.03
Mof_C 	C 	0.3081	0.1614	0.1841	-0.033
Mof_H 	H 	0.3046	0.1341	0.1439	0.071
Mof_C 	C 	0.1384	0.9918	0.0377	0.121
Mof_C 	C 	0.09733	0.01855	0.9033	-0.176
Mof_H 	H 	0.0666	0.0342	0.9268	0.103
Mof_C 	C 	0.0971	0.01415	0.8227	-0.098
Mof_H 	H 	0.0662	0.0268	0.7911	0.061
Mof_C 	C 	0.1422	0.9912	0.7882	-0.025
Mof_C 	C 	0.18737	0.9727	0.8343	0.025
Mof_C 	C 	0.1876	0.97706	0.9149	-0.027
Mof_H 	H 	0.2185	0.9644	0.9465	0.06
Mof_C 	C 	0.0304	0.0985	0.2416	0.465
Mof_C 	C 	0.9864	0.1362	0.246	-0.199
Mof_C 	C 	0.9465	0.13795	0.1846	0.111
Mof_H 	H 	0.9477	0.1117	0.1432	0.024
Mof_C 	C 	0.90507	0.17802	0.1839	-0.152
Mof_H 	H 	0.8778	0.1792	0.142	0.103
Mof_C 	C 	0.40344	0.28361	0.2446	0.105
Mof_C 	C 	0.4433	0.2853	0.3059	-0.149
Mof_H 	H 	0.4422	0.2591	0.3474	0.099
Mof_C 	C 	0.9847	0.1746	0.3066	0.113
Mof_H 	H 	0.012	0.1735	0.3485	0.019
Mof_C 	C 	0.1428	0.0489	0.5803	0.088
Mof_H 	H 	0.1403	0.0833	0.5525	0.021
Mof_C 	C 	0.14322	0.0492	0.6602	-0.141
Mof_H 	H 	0.1421	0.084	0.6871	0.086
Mof_C 	C 	0.22688	0.93432	0.7968	-0.001
Mof_H 	H 	0.2421	0.9429	0.7486	0.057
Mof_C 	C 	0.3016	0.8101	0.8238	0.069
Mof_C 	C 	0.3412	0.7779	0.7897	0.069
Mof_C 	C 	0.3596	0.7283	0.8246	-0.116
Mof_H 	H 	0.3866	0.7063	0.8013	0.108
Mof_C 	C 	0.3383	0.71077	0.8938	0.104
Mof_C 	C 	0.2987	0.74292	0.928	-0.077
Mof_H 	H 	0.2842	0.7309	0.9752	0.066
Mof_C 	C 	0.2803	0.79255	0.893	-0.05
Mof_H 	H 	0.2533	0.8145	0.9164	0.068
Mof_C 	C 	0.37846	0.20784	0.1114	0.004
Mof_H 	H 	0.396	0.2421	0.0997	0.061
Mof_C 	C 	0.4063	0.1205	0.9481	0.065
Mof_C 	C 	0.4406	0.1199	0.886	0.08
Mof_C 	C 	0.4324	0.0807	0.8272	-0.132
Mof_H 	H 	0.4559	0.0803	0.785	0.13
Mof_C 	C 	0.3899	0.042	0.8295	0.142
Mof_C 	C 	0.3556	0.0425	0.8912	-0.051
Mof_H 	H 	0.3265	0.016	0.8928	0.018
Mof_C 	C 	0.3637	0.0818	0.9505	-0.059
Mof_H 	H 	0.3403	0.0821	0.9926	0.064
Mof_Zn	Zn	0.64194	0.56619	0.31002	1.217
Mof_O 	O 	0.7435	0.5715	0.2076	-0.503
Mof_O 	O 	0.6969	0.62	0.2992	-0.497
Mof_O 	O 	0.5683	0.6018	0.2954	-0.502
Mof_O 	O 	0.5286	0.437	0.19	-0.51
Mof_O 	O 	0.6439	0.5463	0.4208	-0.513
Mof_O 	O 	0.8645	0.35	0.706	-0.105
Mof_O 	O 	0.9193	0.2764	0.718	-0.101
Mof_O 	O 	0.8925	0.1313	0.8941	-0.162
Mof_O 	O 	0.8366	0.1425	0.99	-0.14
Mof_O 	O 	0.0164	0.6554	0.827	-0.102
Mof_O 	O 	0.9815	0.7053	0.921	-0.124
Mof_O 	O 	0.8513	0.5354	0.764	-0.133
Mof_N 	N 	0.7381	0.3906	0.8332	-0.072
Mof_N 	N 	0.7799	0.3629	0.7996	-0.158
Mof_H 	H 	0.7944	0.3791	0.7598	0.149
Mof_N 	N 	0.8772	0.3031	0.7318	-0.007
Mof_N 	N 	0.8578	0.1568	0.93	-0.01
Mof_N 	N 	0.8807	0.665	0.0641	-0.06
Mof_N 	N 	0.9122	0.6639	-0	-0.137
Mof_H 	H 	0.9358	0.691	0.9924	0.149
Mof_N 	N 	0.983	0.6639	0.8773	-0.006
Mof_C 	C 	0.7304	0.6141	0.2469	0.361
Mof_C 	C 	0.7726	0.6604	0.2445	-0.057
Mof_C 	C 	0.7776	0.7004	0.3033	-0.006
Mof_H 	H 	0.7534	0.6997	0.3445	0.059
Mof_C 	C 	0.8181	0.7414	0.3017	-0.044
Mof_H 	H 	0.8215	0.7687	0.3419	0.055
Mof_C 	C 	0.8536	0.7424	0.2414	-0.022
Mof_C 	C 	0.8485	0.7024	0.1826	0.031
Mof_C 	C 	0.8081	0.6614	0.1841	-0.033
Mof_H 	H 	0.8046	0.6341	0.1439	0.072
Mof_C 	C 	0.6384	0.4918	0.0377	0.164
Mof_C 	C 	0.59733	0.51855	0.9033	-0.019
Mof_H 	H 	0.5666	0.5342	0.9268	0.056
Mof_C 	C 	0.5971	0.51415	0.8227	-0.026
Mof_H 	H 	0.5662	0.5268	0.7911	0.043
Mof_C 	C 	0.6422	0.4912	0.7882	-0.013
Mof_C 	C 	0.68737	0.4727	0.8343	0.012
Mof_C 	C 	0.6876	0.47706	0.9149	-0.027
Mof_H 	H 	0.7185	0.4644	0.9465	0.056
Mof_C 	C 	0.5304	0.5985	0.2416	0.465
Mof_C 	C 	0.4864	0.6362	0.246	-0.199
Mof_C 	C 	0.4465	0.63795	0.1846	0.112
Mof_H 	H 	0.4477	0.6117	0.1432	0.021
Mof_C 	C 	0.40507	0.67802	0.1839	-0.154
Mof_H 	H 	0.3778	0.6792	0.142	0.103
Mof_C 	C 	0.90344	0.78361	0.2446	0.106
Mof_C 	C 	0.9433	0.7853	0.3059	-0.149
Mof_H 	H 	0.9422	0.7591	0.3474	0.1
Mof_C 	C 	0.4847	0.6746	0.3066	0.113
Mof_H 	H 	0.512	0.6735	0.3485	0.021
Mof_C 	C 	0.6428	0.5489	0.5803	0.096
Mof_H 	H 	0.6403	0.5833	0.5525	0.018
Mof_C 	C 	0.64322	0.5492	0.6602	-0.155
Mof_H 	H 	0.6421	0.584	0.6871	0.09
Mof_C 	C 	0.72688	0.43432	0.7968	0.003
Mof_H 	H 	0.7421	0.4429	0.7486	0.052
Mof_C 	C 	0.8016	0.3101	0.8238	0.069
Mof_C 	C 	0.8412	0.2779	0.7897	0.069
Mof_C 	C 	0.8596	0.2283	0.8246	-0.116
Mof_H 	H 	0.8866	0.2063	0.8013	0.108
Mof_C 	C 	0.8383	0.21077	0.8938	0.104
Mof_C 	C 	0.7987	0.24292	0.928	-0.077
Mof_H 	H 	0.7842	0.2309	0.9752	0.066
Mof_C 	C 	0.7803	0.29255	0.893	-0.05
Mof_H 	H 	0.7533	0.3145	0.9164	0.068
Mof_C 	C 	0.87846	0.70784	0.1114	0.004
Mof_H 	H 	0.896	0.7421	0.0997	0.061
Mof_C 	C 	0.9063	0.6205	0.9481	0.058
Mof_C 	C 	0.9406	0.6199	0.886	0.088
Mof_C 	C 	0.9324	0.5807	0.8272	-0.142
Mof_H 	H 	0.9559	0.5803	0.785	0.134
Mof_C 	C 	0.8899	0.542	0.8295	0.16
Mof_C 	C 	0.8556	0.5425	0.8912	-0.078
Mof_H 	H 	0.8265	0.516	0.8928	0.052
Mof_C 	C 	0.8637	0.5818	0.9505	-0.04
Mof_H 	H 	0.8403	0.5821	0.9926	0.059
Mof_Zn	Zn	0.14194	0.93381	0.31002	1.219
Mof_O 	O 	0.2435	0.9285	0.2076	-0.496
Mof_O 	O 	0.1969	0.88	0.2992	-0.495
Mof_O 	O 	0.0683	0.8982	0.2954	-0.499
Mof_O 	O 	0.0286	0.063	0.19	-0.513
Mof_O 	O 	0.1439	0.9537	0.4208	-0.498
Mof_O 	O 	0.3645	0.15	0.706	-0.106
Mof_O 	O 	0.4193	0.2236	0.718	-0.102
Mof_O 	O 	0.3925	0.3687	0.8941	-0.161
Mof_O 	O 	0.3366	0.3575	0.99	-0.141
Mof_O 	O 	0.5164	0.8446	0.827	-0.1
Mof_O 	O 	0.4815	0.7947	0.921	-0.123
Mof_O 	O 	0.3513	0.9646	0.764	-0.127
Mof_N 	N 	0.2381	0.1094	0.8332	-0.074
Mof_N 	N 	0.2799	0.1371	0.7996	-0.158
Mof_H 	H 	0.2944	0.1209	0.7598	0.148
Mof_N 	N 	0.3772	0.1969	0.7318	-0.007
Mof_N 	N 	0.3578	0.3432	0.93	-0.01
Mof_N 	N 	0.3807	0.835	0.0641	-0.059
Mof_N 	N 	0.4122	0.8361	-0	-0.135
Mof_H 	H 	0.4358	0.809	0.9924	0.148
Mof_N 	N 	0.483	0.8361	0.8773	-0.007
Mof_C 	C 	0.2304	0.8859	0.2469	0.361
Mof_C 	C 	0.2726	0.8396	0.2445	-0.055
Mof_C 	C 	0.2776	0.7996	0.3033	-0.007
Mof_H 	H 	0.2534	0.8003	0.3445	0.06
Mof_C 	C 	0.3181	0.7586	0.3017	-0.043
Mof_H 	H 	0.3215	0.7313	0.3419	0.055
Mof_C 	C 	0.3536	0.7576	0.2414	-0.022
Mof_C 	C 	0.3485	0.7976	0.1826	0.032
Mof_C 	C 	0.3081	0.8386	0.1841	-0.034
Mof_H 	H 	0.3046	0.8659	0.1439	0.073
Mof_C 	C 	0.1384	0.0082	0.0377	0.234
Mof_C 	C 	0.09733	0.98145	0.9033	0.163
Mof_H 	H 	0.0666	0.9658	0.9268	0.003
Mof_C 	C 	0.0971	0.98585	0.8227	0.029
Mof_H 	H 	0.0662	0.9732	0.7911	0.032
Mof_C 	C 	0.1422	0.0088	0.7882	0.018
Mof_C 	C 	0.18737	0.0273	0.8343	-0.016
Mof_C 	C 	0.1876	0.02294	0.9149	0
Mof_H 	H 	0.2185	0.0356	0.9465	0.045
Mof_C 	C 	0.0304	0.9015	0.2416	0.464
Mof_C 	C 	0.9864	0.8638	0.246	-0.198
Mof_C 	C 	0.9465	0.86205	0.1846	0.111
Mof_H 	H 	0.9477	0.8883	0.1432	0.02
Mof_C 	C 	0.90507	0.82198	0.1839	-0.155
Mof_H 	H 	0.8778	0.8208	0.142	0.102
Mof_C 	C 	0.40344	0.71639	0.2446	0.106
Mof_C 	C 	0.4433	0.7147	0.3059	-0.149
Mof_H 	H 	0.4422	0.7409	0.3474	0.1
Mof_C 	C 	0.9847	0.8254	0.3066	0.113
Mof_H 	H 	0.012	0.8265	0.3485	0.02
Mof_C 	C 	0.1428	0.9511	0.5803	0.101
Mof_H 	H 	0.1403	0.9167	0.5525	0.019
Mof_C 	C 	0.14322	0.9508	0.6602	-0.127
Mof_H 	H 	0.1421	0.916	0.6871	0.082
Mof_C 	C 	0.22688	0.06568	0.7968	0.014
Mof_H 	H 	0.2421	0.0571	0.7486	0.046
Mof_C 	C 	0.3016	0.1899	0.8238	0.069
Mof_C 	C 	0.3412	0.2221	0.7897	0.069
Mof_C 	C 	0.3596	0.2717	0.8246	-0.116
Mof_H 	H 	0.3866	0.2937	0.8013	0.108
Mof_C 	C 	0.3383	0.28923	0.8938	0.104
Mof_C 	C 	0.2987	0.25708	0.928	-0.076
Mof_H 	H 	0.2842	0.2691	0.9752	0.066
Mof_C 	C 	0.2803	0.20745	0.893	-0.05
Mof_H 	H 	0.2533	0.1855	0.9164	0.069
Mof_C 	C 	0.37846	0.79216	0.1114	0.004
Mof_H 	H 	0.396	0.7579	0.0997	0.061
Mof_C 	C 	0.4063	0.8795	0.9481	0.05
Mof_C 	C 	0.4406	0.8801	0.886	0.096
Mof_C 	C 	0.4324	0.9193	0.8272	-0.154
Mof_H 	H 	0.4559	0.9197	0.785	0.141
Mof_C 	C 	0.3899	0.958	0.8295	0.185
Mof_C 	C 	0.3556	0.9575	0.8912	-0.108
Mof_H 	H 	0.3265	0.984	0.8928	0.086
Mof_C 	C 	0.3637	0.9182	0.9505	-0.02
Mof_H 	H 	0.3403	0.9179	0.9926	0.054
Mof_Zn	Zn	0.64194	0.43381	0.31002	1.217
Mof_O 	O 	0.7435	0.4285	0.2076	-0.503
Mof_O 	O 	0.6969	0.38	0.2992	-0.497
Mof_O 	O 	0.5683	0.3982	0.2954	-0.502
Mof_O 	O 	0.5286	0.563	0.19	-0.51
Mof_O 	O 	0.6439	0.4537	0.4208	-0.513
Mof_O 	O 	0.8645	0.65	0.706	-0.105
Mof_O 	O 	0.9193	0.7236	0.718	-0.101
Mof_O 	O 	0.8925	0.8687	0.8941	-0.157
Mof_O 	O 	0.8366	0.8575	0.99	-0.14
Mof_O 	O 	0.0164	0.3446	0.827	-0.102
Mof_O 	O 	0.9815	0.2947	0.921	-0.124
Mof_O 	O 	0.8513	0.4646	0.764	-0.133
Mof_N 	N 	0.7381	0.6094	0.8332	-0.072
Mof_N 	N 	0.7799	0.6371	0.7996	-0.158
Mof_H 	H 	0.7944	0.6209	0.7598	0.149
Mof_N 	N 	0.8772	0.6969	0.7318	-0.007
Mof_N 	N 	0.8578	0.8432	0.93	-0.01
Mof_N 	N 	0.8807	0.335	0.0641	-0.06
Mof_N 	N 	0.9122	0.3361	-0	-0.137
Mof_H 	H 	0.9358	0.309	0.9924	0.149
Mof_N 	N 	0.983	0.3361	0.8773	-0.006
Mof_C 	C 	0.7304	0.3859	0.2469	0.361
Mof_C 	C 	0.7726	0.3396	0.2445	-0.057
Mof_C 	C 	0.7776	0.2996	0.3033	-0.006
Mof_H 	H 	0.7534	0.3003	0.3445	0.059
Mof_C 	C 	0.8181	0.2586	0.3017	-0.044
Mof_H 	H 	0.8215	0.2313	0.3419	0.055
Mof_C 	C 	0.8536	0.2576	0.2414	-0.022
Mof_C 	C 	0.8485	0.2976	0.1826	0.031
Mof_C 	C 	0.8081	0.3386	0.1841	-0.033
Mof_H 	H 	0.8046	0.3659	0.1439	0.072
Mof_C 	C 	0.6384	0.5082	0.0377	0.164
Mof_C 	C 	0.59733	0.48145	0.9033	-0.019
Mof_H 	H 	0.5666	0.4658	0.9268	0.056
Mof_C 	C 	0.5971	0.48585	0.8227	-0.026
Mof_H 	H 	0.5662	0.4732	0.7911	0.043
Mof_C 	C 	0.6422	0.5088	0.7882	-0.013
Mof_C 	C 	0.68737	0.5273	0.8343	0.012
Mof_C 	C 	0.6876	0.52294	0.9149	-0.027
Mof_H 	H 	0.7185	0.5356	0.9465	0.056
Mof_C 	C 	0.5304	0.4015	0.2416	0.465
Mof_C 	C 	0.4864	0.3638	0.246	-0.199
Mof_C 	C 	0.4465	0.36205	0.1846	0.111
Mof_H 	H 	0.4477	0.3883	0.1432	0.022
Mof_C 	C 	0.40507	0.32198	0.1839	-0.154
Mof_H 	H 	0.3778	0.3208	0.142	0.103
Mof_C 	C 	0.90344	0.21639	0.2446	0.105
Mof_C 	C 	0.9433	0.2147	0.3059	-0.149
Mof_H 	H 	0.9422	0.2409	0.3474	0.1
Mof_C 	C 	0.4847	0.3254	0.3066	0.112
Mof_H 	H 	0.512	0.3265	0.3485	0.02
Mof_C 	C 	0.6428	0.4511	0.5803	0.096
Mof_H 	H 	0.6403	0.4167	0.5525	0.018
Mof_C 	C 	0.64322	0.4508	0.6602	-0.155
Mof_H 	H 	0.6421	0.416	0.6871	0.09
Mof_C 	C 	0.72688	0.56568	0.7968	0.003
Mof_H 	H 	0.7421	0.5571	0.7486	0.052
Mof_C 	C 	0.8016	0.6899	0.8238	0.069
Mof_C 	C 	0.8412	0.7221	0.7897	0.069
Mof_C 	C 	0.8596	0.7717	0.8246	-0.116
Mof_H 	H 	0.8866	0.7937	0.8013	0.108
Mof_C 	C 	0.8383	0.78923	0.8938	0.105
Mof_C 	C 	0.7987	0.75708	0.928	-0.077
Mof_H 	H 	0.7842	0.7691	0.9752	0.066
Mof_C 	C 	0.7803	0.70745	0.893	-0.05
Mof_H 	H 	0.7533	0.6855	0.9164	0.068
Mof_C 	C 	0.87846	0.29216	0.1114	0.004
Mof_H 	H 	0.896	0.2579	0.0997	0.061
Mof_C 	C 	0.9063	0.3795	0.9481	0.058
Mof_C 	C 	0.9406	0.3801	0.886	0.088
Mof_C 	C 	0.9324	0.4193	0.8272	-0.142
Mof_H 	H 	0.9559	0.4197	0.785	0.134
Mof_C 	C 	0.8899	0.458	0.8295	0.16
Mof_C 	C 	0.8556	0.4575	0.8912	-0.078
Mof_H 	H 	0.8265	0.484	0.8928	0.052
Mof_C 	C 	0.8637	0.4182	0.9505	-0.04
Mof_H 	H 	0.8403	0.4179	0.9926	0.059
Mof_Zn	Zn	0.07869	-1.26564e-33	0.1743	1.214
Mof_Zn	Zn	0.20859	0	0.18591	1.211
Mof_O 	O 	0.1428	0	0.2456	-0.965
Mof_O 	O 	0.0918	0	0.0636	-0.453
Mof_O 	O 	0.1837	6.32819e-34	0.0762	-0.479
Mof_O 	O 	0.4283	0	0.7227	-0.113
Mof_N 	N 	0.3889	0	0.7648	-0.008
Mof_C 	C 	0.1425	0	0.9494	-0.073
Mof_C 	C 	0.1431	0	0.4528	0.429
Mof_C 	C 	0.146	0	0.5408	-0.175
Mof_C 	C 	0.14523	5.06255e-33	0.7019	0.062
Mof_Zn	Zn	0.57869	0.5	0.1743	1.217
Mof_Zn	Zn	0.70859	0.5	0.18591	1.214
Mof_O 	O 	0.6428	0.5	0.2456	-0.959
Mof_O 	O 	0.5918	0.5	0.0636	-0.439
Mof_O 	O 	0.6837	0.5	0.0762	-0.466
Mof_O 	O 	0.9283	0.5	0.7227	-0.107
Mof_N 	N 	0.8889	0.5	0.7648	0
Mof_C 	C 	0.6425	0.5	0.9494	-0.037
Mof_C 	C 	0.6431	0.5	0.4528	0.447
Mof_C 	C 	0.646	0.5	0.5408	-0.169
Mof_C 	C 	0.64523	0.5	0.7019	0.095
Mof_Zn	Zn	0.85806	0.06619	0.68998	1.216
Mof_O 	O 	0.7565	0.0715	0.7924	-0.509
Mof_O 	O 	0.8031	0.12	0.7008	-0.498
Mof_O 	O 	0.9317	0.1018	0.7046	-0.503
Mof_O 	O 	0.9714	0.937	0.81	-0.504
Mof_O 	O 	0.8561	0.0463	0.5792	-0.511
Mof_O 	O 	0.6355	0.85	0.294	-0.103
Mof_O 	O 	0.5807	0.7764	0.282	-0.101
Mof_O 	O 	0.6075	0.6313	0.1059	-0.156
Mof_O 	O 	0.6634	0.6425	0.01	-0.125
Mof_O 	O 	0.4836	0.1554	0.173	-0.1
Mof_O 	O 	0.5185	0.2053	0.079	-0.116
Mof_O 	O 	0.6487	0.0354	0.236	-0.133
Mof_N 	N 	0.7619	0.8906	0.1668	-0.07
Mof_N 	N 	0.7201	0.8629	0.2004	-0.158
Mof_H 	H 	0.7056	0.8791	0.2402	0.149
Mof_N 	N 	0.6228	0.8031	0.2682	-0.007
Mof_N 	N 	0.6422	0.6568	0.07	-0.011
Mof_N 	N 	0.6193	0.165	0.9359	-0.07
Mof_N 	N 	0.5878	0.1639	-0	-0.156
Mof_H 	H 	0.5642	0.191	0.0076	0.169
Mof_N 	N 	0.517	0.1639	0.1227	-0.004
Mof_C 	C 	0.7696	0.1141	0.7531	0.363
Mof_C 	C 	0.7274	0.1604	0.7555	-0.06
Mof_C 	C 	0.7224	0.2004	0.6967	-0.005
Mof_H 	H 	0.7466	0.1997	0.6555	0.058
Mof_C 	C 	0.6819	0.2414	0.6983	-0.046
Mof_H 	H 	0.6785	0.2687	0.6581	0.056
Mof_C 	C 	0.6464	0.2424	0.7586	-0.021
Mof_C 	C 	0.6515	0.2024	0.8174	0.027
Mof_C 	C 	0.6919	0.1614	0.8159	-0.031
Mof_H 	H 	0.6954	0.1341	0.8561	0.066
Mof_C 	C 	0.8616	0.9918	0.9623	0.107
Mof_C 	C 	0.90267	0.01855	0.0967	-0.185
Mof_H 	H 	0.9334	0.0342	0.0732	0.113
Mof_C 	C 	0.9029	0.01415	0.1773	-0.093
Mof_H 	H 	0.9338	0.0268	0.2089	0.06
Mof_C 	C 	0.8578	0.9912	0.2118	-0.028
Mof_C 	C 	0.81263	0.9727	0.1657	0.03
Mof_C 	C 	0.8124	0.97706	0.0851	-0.036
Mof_H 	H 	0.7815	0.9644	0.0535	0.071
Mof_C 	C 	0.9696	0.0985	0.7584	0.466
Mof_C 	C 	0.0136	0.1362	0.754	-0.199
Mof_C 	C 	0.0535	0.13795	0.8154	0.109
Mof_H 	H 	0.0523	0.1117	0.8568	0.021
Mof_C 	C 	0.09493	0.17802	0.8161	-0.151
Mof_H 	H 	0.1222	0.1792	0.858	0.098
Mof_C 	C 	0.59656	0.28361	0.7554	0.104
Mof_C 	C 	0.5567	0.2853	0.6941	-0.148
Mof_H 	H 	0.5578	0.2591	0.6526	0.099
Mof_C 	C 	0.0153	0.1746	0.6934	0.111
Mof_H 	H 	0.988	0.1735	0.6515	0.021
Mof_C 	C 	0.8572	0.0489	0.4197	0.089
Mof_H 	H 	0.8597	0.0833	0.4475	0.02
Mof_C 	C 	0.85678	0.0492	0.3398	-0.142
Mof_H 	H 	0.8579	0.084	0.3129	0.087
Mof_C 	C 	0.77312	0.93432	0.2032	-0.003
Mof_H 	H 	0.7579	0.9429	0.2514	0.058
Mof_C 	C 	0.6984	0.8101	0.1762	0.068
Mof_C 	C 	0.6588	0.7779	0.2103	0.07
Mof_C 	C 	0.6404	0.7283	0.1754	-0.118
Mof_H 	H 	0.6134	0.7063	0.1987	0.109
Mof_C 	C 	0.6617	0.71077	0.1062	0.109
Mof_C 	C 	0.7013	0.74292	0.072	-0.077
Mof_H 	H 	0.7158	0.7309	0.0248	0.077
Mof_C 	C 	0.7197	0.79255	0.107	-0.047
Mof_H 	H 	0.7467	0.8145	0.0836	0.074
Mof_C 	C 	0.62154	0.20784	0.8886	0.002
Mof_H 	H 	0.604	0.2421	0.9003	0.055
Mof_C 	C 	0.5937	0.1205	0.0519	0.087
Mof_C 	C 	0.5594	0.1199	0.114	0.076
Mof_C 	C 	0.5676	0.0807	0.1728	-0.126
Mof_H 	H 	0.5441	0.0803	0.215	0.129
Mof_C 	C 	0.6101	0.042	0.1705	0.138
Mof_C 	C 	0.6444	0.0425	0.1088	-0.043
Mof_H 	H 	0.6735	0.016	0.1072	0.017
Mof_C 	C 	0.6363	0.0818	0.0495	-0.068
Mof_H 	H 	0.6597	0.0821	0.0074	0.077
Mof_Zn	Zn	0.35806	0.56619	0.68998	1.217
Mof_O 	O 	0.2565	0.5715	0.7924	-0.506
Mof_O 	O 	0.3031	0.62	0.7008	-0.497
Mof_O 	O 	0.4317	0.6018	0.7046	-0.502
Mof_O 	O 	0.4714	0.437	0.81	-0.512
Mof_O 	O 	0.3561	0.5463	0.5792	-0.513
Mof_O 	O 	0.1355	0.35	0.294	-0.105
Mof_O 	O 	0.0807	0.2764	0.282	-0.101
Mof_O 	O 	0.1075	0.1313	0.1059	-0.157
Mof_O 	O 	0.1634	0.1425	0.01	-0.124
Mof_O 	O 	0.9836	0.6554	0.173	-0.099
Mof_O 	O 	0.0185	0.7053	0.079	-0.116
Mof_O 	O 	0.1487	0.5354	0.236	-0.133
Mof_N 	N 	0.2619	0.3906	0.1668	-0.07
Mof_N 	N 	0.2201	0.3629	0.2004	-0.158
Mof_H 	H 	0.2056	0.3791	0.2402	0.149
Mof_N 	N 	0.1228	0.3031	0.2682	-0.007
Mof_N 	N 	0.1422	0.1568	0.07	-0.011
Mof_N 	N 	0.1193	0.665	0.9359	-0.07
Mof_N 	N 	0.0878	0.6639	-0	-0.154
Mof_H 	H 	0.0642	0.691	0.0076	0.168
Mof_N 	N 	0.017	0.6639	0.1227	-0.005
Mof_C 	C 	0.2696	0.6141	0.7531	0.362
Mof_C 	C 	0.2274	0.6604	0.7555	-0.059
Mof_C 	C 	0.2224	0.7004	0.6967	-0.005
Mof_H 	H 	0.2466	0.6997	0.6555	0.059
Mof_C 	C 	0.1819	0.7414	0.6983	-0.045
Mof_H 	H 	0.1785	0.7687	0.6581	0.056
Mof_C 	C 	0.1464	0.7424	0.7586	-0.021
Mof_C 	C 	0.1515	0.7024	0.8174	0.028
Mof_C 	C 	0.1919	0.6614	0.8159	-0.031
Mof_H 	H 	0.1954	0.6341	0.8561	0.067
Mof_C 	C 	0.3616	0.4918	0.9623	0.151
Mof_C 	C 	0.40267	0.51855	0.0967	-0.028
Mof_H 	H 	0.4334	0.5342	0.0732	0.066
Mof_C 	C 	0.4029	0.51415	0.1773	-0.021
Mof_H 	H 	0.4338	0.5268	0.2089	0.042
Mof_C 	C 	0.3578	0.4912	0.2118	-0.016
Mof_C 	C 	0.31263	0.4727	0.1657	0.017
Mof_C 	C 	0.3124	0.47706	0.0851	-0.037
Mof_H 	H 	0.2815	0.4644	0.0535	0.066
Mof_C 	C 	0.4696	0.5985	0.7584	0.465
Mof_C 	C 	0.5136	0.6362	0.754	-0.199
Mof_C 	C 	0.5535	0.63795	0.8154	0.11
Mof_H 	H 	0.5523	0.6117	0.8568	0.019
Mof_C 	C 	0.59493	0.67802	0.8161	-0.153
Mof_H 	H 	0.6222	0.6792	0.858	0.098
Mof_C 	C 	0.09656	0.78361	0.7554	0.104
Mof_C 	C 	0.0567	0.7853	0.6941	-0.148
Mof_H 	H 	0.0578	0.7591	0.6526	0.099
Mof_C 	C 	0.5153	0.6746	0.6934	0.112
Mof_H 	H 	0.488	0.6735	0.6515	0.021
Mof_C 	C 	0.3572	0.5489	0.4197	0.098
Mof_H 	H 	0.3597	0.5833	0.4475	0.018
Mof_C 	C 	0.35678	0.5492	0.3398	-0.157
Mof_H 	H 	0.3579	0.584	0.3129	0.091
Mof_C 	C 	0.27312	0.43432	0.2032	0.001
Mof_H 	H 	0.2579	0.4429	0.2514	0.053
Mof_C 	C 	0.1984	0.3101	0.1762	0.068
Mof_C 	C 	0.1588	0.2779	0.2103	0.07
Mof_C 	C 	0.1404	0.2283	0.1754	-0.118
Mof_H 	H 	0.1134	0.2063	0.1987	0.109
Mof_C 	C 	0.1617	0.21077	0.1062	0.109
Mof_C 	C 	0.2013	0.24292	0.072	-0.077
Mof_H 	H 	0.2158	0.2309	0.0248	0.077
Mof_C 	C 	0.2197	0.29255	0.107	-0.047
Mof_H 	H 	0.2467	0.3145	0.0836	0.074
Mof_C 	C 	0.12154	0.70784	0.8886	0.002
Mof_H 	H 	0.104	0.7421	0.9003	0.055
Mof_C 	C 	0.0937	0.6205	0.0519	0.08
Mof_C 	C 	0.0594	0.6199	0.114	0.083
Mof_C 	C 	0.0676	0.5807	0.1728	-0.136
Mof_H 	H 	0.0441	0.5803	0.215	0.133
Mof_C 	C 	0.1101	0.542	0.1705	0.156
Mof_C 	C 	0.1444	0.5425	0.1088	-0.07
Mof_H 	H 	0.1735	0.516	0.1072	0.051
Mof_C 	C 	0.1363	0.5818	0.0495	-0.05
Mof_H 	H 	0.1597	0.5821	0.0074	0.072
Mof_Zn	Zn	0.85806	0.93381	0.68998	1.219
Mof_O 	O 	0.7565	0.9285	0.7924	-0.499
Mof_O 	O 	0.8031	0.88	0.7008	-0.495
Mof_O 	O 	0.9317	0.8982	0.7046	-0.499
Mof_O 	O 	0.9714	0.063	0.81	-0.514
Mof_O 	O 	0.8561	0.9537	0.5792	-0.498
Mof_O 	O 	0.6355	0.15	0.294	-0.106
Mof_O 	O 	0.5807	0.2236	0.282	-0.101
Mof_O 	O 	0.6075	0.3687	0.1059	-0.156
Mof_O 	O 	0.6634	0.3575	0.01	-0.125
Mof_O 	O 	0.4836	0.8446	0.173	-0.098
Mof_O 	O 	0.5185	0.7947	0.079	-0.116
Mof_O 	O 	0.6487	0.9646	0.236	-0.127
Mof_N 	N 	0.7619	0.1094	0.1668	-0.072
Mof_N 	N 	0.7201	0.1371	0.2004	-0.158
Mof_H 	H 	0.7056	0.1209	0.2402	0.148
Mof_N 	N 	0.6228	0.1969	0.2682	-0.007
Mof_N 	N 	0.6422	0.3432	0.07	-0.011
Mof_N 	N 	0.6193	0.835	0.9359	-0.069
Mof_N 	N 	0.5878	0.8361	-0	-0.152
Mof_H 	H 	0.5642	0.809	0.0076	0.168
Mof_N 	N 	0.517	0.8361	0.1227	-0.006
Mof_C 	C 	0.7696	0.8859	0.7531	0.362
Mof_C 	C 	0.7274	0.8396	0.7555	-0.057
Mof_C 	C 	0.7224	0.7996	0.6967	-0.005
Mof_H 	H 	0.7466	0.8003	0.6555	0.059
Mof_C 	C 	0.6819	0.7586	0.6983	-0.044
Mof_H 	H 	0.6785	0.7313	0.6581	0.055
Mof_C 	C 	0.6464	0.7576	0.7586	-0.021
Mof_C 	C 	0.6515	0.7976	0.8174	0.029
Mof_C 	C 	0.6919	0.8386	0.8159	-0.032
Mof_H 	H 	0.6954	0.8659	0.8561	0.068
Mof_C 	C 	0.8616	0.0082	0.9623	0.221
Mof_C 	C 	0.90267	0.98145	0.0967	0.155
Mof_H 	H 	0.9334	0.9658	0.0732	0.013
Mof_C 	C 	0.9029	0.98585	0.1773	0.034
Mof_H 	H 	0.9338	0.9732	0.2089	0.031
Mof_C 	C 	0.8578	0.0088	0.2118	0.016
Mof_C 	C 	0.81263	0.0273	0.1657	-0.011
Mof_C 	C 	0.8124	0.02294	0.0851	-0.009
Mof_H 	H 	0.7815	0.0356	0.0535	0.055
Mof_C 	C 	0.9696	0.9015	0.7584	0.465
Mof_C 	C 	0.0136	0.8638	0.754	-0.198
Mof_C 	C 	0.0535	0.86205	0.8154	0.109
Mof_H 	H 	0.0523	0.8883	0.8568	0.017
Mof_C 	C 	0.09493	0.82198	0.8161	-0.154
Mof_H 	H 	0.1222	0.8208	0.858	0.097
Mof_C 	C 	0.59656	0.71639	0.7554	0.105
Mof_C 	C 	0.5567	0.7147	0.6941	-0.149
Mof_H 	H 	0.5578	0.7409	0.6526	0.1
Mof_C 	C 	0.0153	0.8254	0.6934	0.111
Mof_H 	H 	0.988	0.8265	0.6515	0.022
Mof_C 	C 	0.8572	0.9511	0.4197	0.102
Mof_H 	H 	0.8597	0.9167	0.4475	0.018
Mof_C 	C 	0.85678	0.9508	0.3398	-0.129
Mof_H 	H 	0.8579	0.916	0.3129	0.082
Mof_C 	C 	0.77312	0.06568	0.2032	0.013
Mof_H 	H 	0.7579	0.0571	0.2514	0.047
Mof_C 	C 	0.6984	0.1899	0.1762	0.068
Mof_C 	C 	0.6588	0.2221	0.2103	0.07
Mof_C 	C 	0.6404	0.2717	0.1754	-0.118
Mof_H 	H 	0.6134	0.2937	0.1987	0.109
Mof_C 	C 	0.6617	0.28923	0.1062	0.109
Mof_C 	C 	0.7013	0.25708	0.072	-0.077
Mof_H 	H 	0.7158	0.2691	0.0248	0.077
Mof_C 	C 	0.7197	0.20745	0.107	-0.047
Mof_H 	H 	0.7467	0.1855	0.0836	0.075
Mof_C 	C 	0.62154	0.79216	0.8886	0.002
Mof_H 	H 	0.604	0.7579	0.9003	0.055
Mof_C 	C 	0.5937	0.8795	0.0519	0.072
Mof_C 	C 	0.5594	0.8801	0.114	0.091
Mof_C 	C 	0.5676	0.9193	0.1728	-0.148
Mof_H 	H 	0.5441	0.9197	0.215	0.14
Mof_C 	C 	0.6101	0.958	0.1705	0.181
Mof_C 	C 	0.6444	0.9575	0.1088	-0.101
Mof_H 	H 	0.6735	0.984	0.1072	0.085
Mof_C 	C 	0.6363	0.9182	0.0495	-0.029
Mof_H 	H 	0.6597	0.9179	0.0074	0.067
Mof_Zn	Zn	0.35806	0.43381	0.68998	1.217
Mof_O 	O 	0.2565	0.4285	0.7924	-0.506
Mof_O 	O 	0.3031	0.38	0.7008	-0.497
Mof_O 	O 	0.4317	0.3982	0.7046	-0.502
Mof_O 	O 	0.4714	0.563	0.81	-0.512
Mof_O 	O 	0.3561	0.4537	0.5792	-0.513
Mof_O 	O 	0.1355	0.65	0.294	-0.105
Mof_O 	O 	0.0807	0.7236	0.282	-0.101
Mof_O 	O 	0.1075	0.8687	0.1059	-0.153
Mof_O 	O 	0.1634	0.8575	0.01	-0.124
Mof_O 	O 	0.9836	0.3446	0.173	-0.099
Mof_O 	O 	0.0185	0.2947	0.079	-0.116
Mof_O 	O 	0.1487	0.4646	0.236	-0.133
Mof_N 	N 	0.2619	0.6094	0.1668	-0.07
Mof_N 	N 	0.2201	0.6371	0.2004	-0.158
Mof_H 	H 	0.2056	0.6209	0.2402	0.149
Mof_N 	N 	0.1228	0.6969	0.2682	-0.007
Mof_N 	N 	0.1422	0.8432	0.07	-0.011
Mof_N 	N 	0.1193	0.335	0.9359	-0.07
Mof_N 	N 	0.0878	0.3361	-0	-0.154
Mof_H 	H 	0.0642	0.309	0.0076	0.168
Mof_N 	N 	0.017	0.3361	0.1227	-0.005
Mof_C 	C 	0.2696	0.3859	0.7531	0.362
Mof_C 	C 	0.2274	0.3396	0.7555	-0.059
Mof_C 	C 	0.2224	0.2996	0.6967	-0.005
Mof_H 	H 	0.2466	0.3003	0.6555	0.058
Mof_C 	C 	0.1819	0.2586	0.6983	-0.045
Mof_H 	H 	0.1785	0.2313	0.6581	0.055
Mof_C 	C 	0.1464	0.2576	0.7586	-0.021
Mof_C 	C 	0.1515	0.2976	0.8174	0.028
Mof_C 	C 	0.1919	0.3386	0.8159	-0.031
Mof_H 	H 	0.1954	0.3659	0.8561	0.067
Mof_C 	C 	0.3616	0.5082	0.9623	0.151
Mof_C 	C 	0.40267	0.48145	0.0967	-0.028
Mof_H 	H 	0.4334	0.4658	0.0732	0.066
Mof_C 	C 	0.4029	0.48585	0.1773	-0.021
Mof_H 	H 	0.4338	0.4732	0.2089	0.042
Mof_C 	C 	0.3578	0.5088	0.2118	-0.016
Mof_C 	C 	0.31263	0.5273	0.1657	0.017
Mof_C 	C 	0.3124	0.52294	0.0851	-0.037
Mof_H 	H 	0.2815	0.5356	0.0535	0.066
Mof_C 	C 	0.4696	0.4015	0.7584	0.465
Mof_C 	C 	0.5136	0.3638	0.754	-0.199
Mof_C 	C 	0.5535	0.36205	0.8154	0.109
Mof_H 	H 	0.5523	0.3883	0.8568	0.019
Mof_C 	C 	0.59493	0.32198	0.8161	-0.153
Mof_H 	H 	0.6222	0.3208	0.858	0.098
Mof_C 	C 	0.09656	0.21639	0.7554	0.103
Mof_C 	C 	0.0567	0.2147	0.6941	-0.148
Mof_H 	H 	0.0578	0.2409	0.6526	0.099
Mof_C 	C 	0.5153	0.3254	0.6934	0.112
Mof_H 	H 	0.488	0.3265	0.6515	0.021
Mof_C 	C 	0.3572	0.4511	0.4197	0.098
Mof_H 	H 	0.3597	0.4167	0.4475	0.018
Mof_C 	C 	0.35678	0.4508	0.3398	-0.157
Mof_H 	H 	0.3579	0.416	0.3129	0.091
Mof_C 	C 	0.27312	0.56568	0.2032	0.001
Mof_H 	H 	0.2579	0.5571	0.2514	0.053
Mof_C 	C 	0.1984	0.6899	0.1762	0.068
Mof_C 	C 	0.1588	0.7221	0.2103	0.07
Mof_C 	C 	0.1404	0.7717	0.1754	-0.118
Mof_H 	H 	0.1134	0.7937	0.1987	0.109
Mof_C 	C 	0.1617	0.78923	0.1062	0.109
Mof_C 	C 	0.2013	0.75708	0.072	-0.077
Mof_H 	H 	0.2158	0.7691	0.0248	0.077
Mof_C 	C 	0.2197	0.70745	0.107	-0.047
Mof_H 	H 	0.2467	0.6855	0.0836	0.074
Mof_C 	C 	0.12154	0.29216	0.8886	0.002
Mof_H 	H 	0.104	0.2579	0.9003	0.055
Mof_C 	C 	0.0937	0.3795	0.0519	0.08
Mof_C 	C 	0.0594	0.3801	0.114	0.083
Mof_C 	C 	0.0676	0.4193	0.1728	-0.136
Mof_H 	H 	0.0441	0.4197	0.215	0.133
Mof_C 	C 	0.1101	0.458	0.1705	0.156
Mof_C 	C 	0.1444	0.4575	0.1088	-0.07
Mof_H 	H 	0.1735	0.484	0.1072	0.051
Mof_C 	C 	0.1363	0.4182	0.0495	-0.05
Mof_H 	H 	0.1597	0.4179	0.0074	0.072
Mof_Zn	Zn	0.92131	5.06255e-33	0.8257	1.214
Mof_Zn	Zn	0.79141	0	0.81409	1.211
Mof_O 	O 	0.8572	0	0.7544	-0.965
Mof_O 	O 	0.9082	-1.01251e-32	0.9364	-0.456
Mof_O 	O 	0.8163	-5.06255e-33	0.9238	-0.482
Mof_O 	O 	0.5717	2.53128e-33	0.2773	-0.112
Mof_N 	N 	0.6111	1.26564e-33	0.2352	-0.007
Mof_C 	C 	0.8575	0	0.0506	-0.035
Mof_C 	C 	0.8569	0	0.5472	0.429
Mof_C 	C 	0.854	2.53128e-33	0.4592	-0.176
Mof_C 	C 	0.85477	0	0.2981	0.065
Mof_Zn	Zn	0.42131	0.5	0.8257	1.217
Mof_Zn	Zn	0.29141	0.5	0.81409	1.213
Mof_O 	O 	0.3572	0.5	0.7544	-0.959
Mof_O 	O 	0.4082	0.5	0.9364	-0.443
Mof_O 	O 	0.3163	0.5	0.9238	-0.469
Mof_O 	O 	0.0717	0.5	0.2773	-0.107
Mof_N 	N 	0.1111	0.5	0.2352	0.001
Mof_C 	C 	0.3575	0.5	0.0506	0.002
Mof_C 	C 	0.3569	0.5	0.5472	0.447
Mof_C 	C 	0.354	0.5	0.4592	-0.17
Mof_C 	C 	0.35477	0.5	0.2981	0.098
_end
