data_functionalizedCrystal
_audit_creation_method	'EQeq! by Chris Wilmer'
_symmetry_space_group_name_H-M	'P1'
_symmetry_Int_Tables_number	1
_symmetry_cell_setting	triclinic
loop_
_symmetry_equiv_pos_as_xyz
  x,y,z
_cell_length_a	24.1322
_cell_length_b	8.2047
_cell_length_c	15.471
_cell_angle_alpha	90
_cell_angle_beta	90
_cell_angle_gamma	90
loop_
_atom_site_label
_atom_site_type_symbol
_atom_site_fract_x
_atom_site_fract_y
_atom_site_fract_z
_atom_site_charge
Mof_Ni	Ni	0.81435	0.58155	0.97866	1.09
Mof_F 	F 	0.95179	0.8196	0.3437	-0.496
Mof_F 	F 	0.01346	0.7135	0.2616	-0.503
Mof_F 	F 	0.03753	0.8554	0.3722	-0.478
Mof_O 	O 	0.8987	0.6246	0.9798	-0.359
Mof_O 	O 	0.9378	0.8467	0.9221	-0.215
Mof_O 	O 	0.79526	0.8252	0.9786	-0.425
Mof_O 	O 	0.77048	0.0606	0.0363	-0.41
Mof_N 	N 	0.8156	0.5883	0.571	-0.13
Mof_N 	N 	0.8075	0.5596	0.3866	-0.115
Mof_N 	N 	0.8172	0.5883	0.8426	-0.24
Mof_N 	N 	0.8102	0.572	0.1133	-0.251
Mof_C 	C 	0.9474	0.9822	0.1925	0.304
Mof_C 	C 	0.9493	0.8903	0.117	-0.216
Mof_H 	H 	0.9824	0.8389	0.1024	0.145
Mof_C 	C 	0.9044	0.8719	0.0628	0.072
Mof_C 	C 	0.853	0.9474	0.0851	-0.19
Mof_C 	C 	0.8511	0.0391	0.1616	0.167
Mof_H 	H 	0.8182	0.0908	0.1769	-0.012
Mof_C 	C 	0.8963	0.0544	0.2144	-0.247
Mof_H 	H 	0.8933	0.1135	0.2654	0.187
Mof_C 	C 	0.0008	0.8457	0.3071	0.977
Mof_C 	C 	0.9135	0.775	0.9798	0.263
Mof_C 	C 	0.8034	0.9417	0.0293	0.389
Mof_C 	C 	0.8451	0.4626	0.5248	-0.009
Mof_H 	H 	0.8234	0.363	0.5265	0.041
Mof_H 	H 	0.8799	0.4415	0.5539	0.058
Mof_C 	C 	0.8564	0.5049	0.4337	-0.121
Mof_H 	H 	0.8842	0.5903	0.432	0.133
Mof_H 	H 	0.8717	0.4102	0.4047	0.109
Mof_C 	C 	0.7878	0.712	0.4317	-0.004
Mof_H 	H 	0.759	0.7662	0.3987	0.028
Mof_H 	H 	0.8181	0.7871	0.4418	0.057
Mof_C 	C 	0.7633	0.6378	0.5233	0.016
Mof_H 	H 	0.7429	0.72	0.5551	0.027
Mof_H 	H 	0.7395	0.5447	0.5131	0.029
Mof_C 	C 	0.8446	0.4792	0.7963	0.131
Mof_H 	H 	0.8653	0.4021	0.8262	-0.017
Mof_C 	C 	0.8448	0.4704	0.7077	-0.21
Mof_H 	H 	0.8648	0.3893	0.6795	0.117
Mof_C 	C 	0.8146	0.5852	0.6605	0.181
Mof_C 	C 	0.7865	0.7029	0.7077	-0.204
Mof_H 	H 	0.7663	0.7835	0.6796	0.108
Mof_C 	C 	0.7889	0.6993	0.797	0.125
Mof_H 	H 	0.7696	0.7791	0.8273	-0
Mof_C 	C 	0.8524	0.514	0.1583	0.139
Mof_H 	H 	0.8828	0.4735	0.1281	0.001
Mof_C 	C 	0.8541	0.51	0.2473	-0.21
Mof_H 	H 	0.8852	0.4682	0.275	0.168
Mof_C 	C 	0.81	0.5675	0.2964	0.184
Mof_C 	C 	0.7645	0.6263	0.2477	-0.209
Mof_H 	H 	0.733	0.6638	0.276	0.107
Mof_C 	C 	0.7665	0.6284	0.1597	0.13
Mof_H 	H 	0.7363	0.6707	0.1298	-0.02
Mof_C 	C 	0.7687	0.663	0.4335	-0.055
Mof_H 	H 	0.7677	0.7683	0.4054	0.009
Mof_H 	H 	0.7321	0.6152	0.4283	0.044
Mof_C 	C 	0.78	0.688	0.523	-0.054
Mof_H 	H 	0.794	0.7979	0.5284	0.049
Mof_H 	H 	0.7445	0.6854	0.5523	0.005
Mof_Ni	Ni	0.18565	0.41845	0.97866	1.089
Mof_F 	F 	0.04821	0.1804	0.3437	-0.477
Mof_F 	F 	0.98654	0.2865	0.2616	-0.509
Mof_F 	F 	0.96247	0.1446	0.3722	-0.477
Mof_O 	O 	0.1013	0.3754	0.9798	-0.355
Mof_O 	O 	0.0622	0.1533	0.9221	-0.201
Mof_O 	O 	0.20474	0.1748	0.9786	-0.428
Mof_O 	O 	0.22952	0.9394	0.0363	-0.423
Mof_N 	N 	0.1844	0.4117	0.571	-0.129
Mof_N 	N 	0.1925	0.4404	0.3866	-0.114
Mof_N 	N 	0.1828	0.4117	0.8426	-0.24
Mof_N 	N 	0.1898	0.428	0.1133	-0.251
Mof_C 	C 	0.0526	0.0178	0.1925	0.346
Mof_C 	C 	0.0507	0.1097	0.117	-0.23
Mof_H 	H 	0.0176	0.1611	0.1024	0.162
Mof_C 	C 	0.0956	0.1281	0.0628	0.085
Mof_C 	C 	0.147	0.0526	0.0851	-0.186
Mof_C 	C 	0.1489	0.9609	0.1616	0.167
Mof_H 	H 	0.1818	0.9092	0.1769	-0.015
Mof_C 	C 	0.1037	0.9456	0.2144	-0.279
Mof_H 	H 	0.1067	0.8865	0.2654	0.196
Mof_C 	C 	0.9992	0.1543	0.3071	0.953
Mof_C 	C 	0.0865	0.225	0.9798	0.259
Mof_C 	C 	0.1966	0.0583	0.0293	0.407
Mof_C 	C 	0.1549	0.5374	0.5248	-0.008
Mof_H 	H 	0.1766	0.637	0.5265	0.04
Mof_H 	H 	0.1201	0.5585	0.5539	0.061
Mof_C 	C 	0.1436	0.4951	0.4337	-0.123
Mof_H 	H 	0.1158	0.4097	0.432	0.137
Mof_H 	H 	0.1283	0.5898	0.4047	0.11
Mof_C 	C 	0.2122	0.288	0.4317	-0.003
Mof_H 	H 	0.241	0.2338	0.3987	0.029
Mof_H 	H 	0.1819	0.2129	0.4418	0.06
Mof_C 	C 	0.2367	0.3622	0.5233	0.015
Mof_H 	H 	0.2571	0.28	0.5551	0.027
Mof_H 	H 	0.2605	0.4553	0.5131	0.03
Mof_C 	C 	0.1554	0.5208	0.7963	0.132
Mof_H 	H 	0.1347	0.5979	0.8262	-0.017
Mof_C 	C 	0.1552	0.5296	0.7077	-0.21
Mof_H 	H 	0.1352	0.6107	0.6795	0.118
Mof_C 	C 	0.1854	0.4148	0.6605	0.182
Mof_C 	C 	0.2135	0.2971	0.7077	-0.203
Mof_H 	H 	0.2337	0.2165	0.6796	0.111
Mof_C 	C 	0.2111	0.3007	0.797	0.126
Mof_H 	H 	0.2304	0.2209	0.8273	0.002
Mof_C 	C 	0.1476	0.486	0.1583	0.139
Mof_H 	H 	0.1172	0.5265	0.1281	0.003
Mof_C 	C 	0.1459	0.49	0.2473	-0.209
Mof_H 	H 	0.1148	0.5318	0.275	0.169
Mof_C 	C 	0.19	0.4325	0.2964	0.184
Mof_C 	C 	0.2355	0.3737	0.2477	-0.208
Mof_H 	H 	0.267	0.3362	0.276	0.108
Mof_C 	C 	0.2335	0.3716	0.1597	0.131
Mof_H 	H 	0.2637	0.3293	0.1298	-0.019
Mof_C 	C 	0.2313	0.337	0.4335	-0.057
Mof_H 	H 	0.2323	0.2317	0.4054	0.011
Mof_H 	H 	0.2679	0.3848	0.4283	0.045
Mof_C 	C 	0.22	0.312	0.523	-0.054
Mof_H 	H 	0.206	0.2021	0.5284	0.053
Mof_H 	H 	0.2555	0.3146	0.5523	0.007
Mof_Ni	Ni	0.68565	0.08155	0.02134	1.091
Mof_F 	F 	0.54821	0.3196	0.6563	-0.488
Mof_F 	F 	0.48654	0.2135	0.7384	-0.507
Mof_F 	F 	0.46247	0.3554	0.6278	-0.48
Mof_O 	O 	0.6013	0.1246	0.0202	-0.354
Mof_O 	O 	0.5622	0.3467	0.0779	-0.206
Mof_O 	O 	0.70474	0.3252	0.0214	-0.426
Mof_O 	O 	0.72952	0.5606	0.9637	-0.418
Mof_N 	N 	0.6844	0.0883	0.429	-0.125
Mof_N 	N 	0.6925	0.0596	0.6134	-0.117
Mof_N 	N 	0.6828	0.0883	0.1574	-0.237
Mof_N 	N 	0.6898	0.072	0.8867	-0.252
Mof_C 	C 	0.5526	0.4822	0.8075	0.345
Mof_C 	C 	0.5507	0.3903	0.883	-0.234
Mof_H 	H 	0.5176	0.3389	0.8976	0.158
Mof_C 	C 	0.5956	0.3719	0.9372	0.083
Mof_C 	C 	0.647	0.4474	0.9149	-0.193
Mof_C 	C 	0.6489	0.5391	0.8384	0.175
Mof_H 	H 	0.6818	0.5908	0.8231	-0.017
Mof_C 	C 	0.6037	0.5544	0.7856	-0.276
Mof_H 	H 	0.6067	0.6135	0.7346	0.196
Mof_C 	C 	0.4992	0.3457	0.6929	0.979
Mof_C 	C 	0.5865	0.275	0.0202	0.26
Mof_C 	C 	0.6966	0.4417	0.9707	0.399
Mof_C 	C 	0.6549	0.9626	0.4752	-0.038
Mof_H 	H 	0.6766	0.863	0.4735	0.048
Mof_H 	H 	0.6201	0.9415	0.4461	0.067
Mof_C 	C 	0.6436	0.0049	0.5663	-0.088
Mof_H 	H 	0.6158	0.0903	0.568	0.127
Mof_H 	H 	0.6283	0.9102	0.5953	0.095
Mof_C 	C 	0.7122	0.212	0.5683	-0.002
Mof_H 	H 	0.741	0.2662	0.6013	0.028
Mof_H 	H 	0.6819	0.2871	0.5582	0.059
Mof_C 	C 	0.7367	0.1378	0.4767	0.015
Mof_H 	H 	0.7571	0.22	0.4449	0.027
Mof_H 	H 	0.7605	0.0447	0.4869	0.032
Mof_C 	C 	0.6554	0.9792	0.2037	0.127
Mof_H 	H 	0.6347	0.9021	0.1738	-0.017
Mof_C 	C 	0.6552	0.9704	0.2923	-0.219
Mof_H 	H 	0.6352	0.8893	0.3205	0.119
Mof_C 	C 	0.6854	0.0852	0.3395	0.19
Mof_C 	C 	0.7135	0.2029	0.2923	-0.207
Mof_H 	H 	0.7337	0.2835	0.3204	0.111
Mof_C 	C 	0.7111	0.1993	0.203	0.128
Mof_H 	H 	0.7304	0.2791	0.1727	0
Mof_C 	C 	0.6476	0.014	0.8417	0.147
Mof_H 	H 	0.6172	0.9735	0.8719	-0.006
Mof_C 	C 	0.6459	0.01	0.7527	-0.201
Mof_H 	H 	0.6148	0.9682	0.725	0.161
Mof_C 	C 	0.69	0.0675	0.7036	0.184
Mof_C 	C 	0.7355	0.1263	0.7523	-0.208
Mof_H 	H 	0.767	0.1638	0.724	0.108
Mof_C 	C 	0.7335	0.1284	0.8403	0.131
Mof_H 	H 	0.7637	0.1707	0.8702	-0.019
Mof_C 	C 	0.7313	0.163	0.5665	-0.056
Mof_H 	H 	0.7323	0.2683	0.5946	0.01
Mof_H 	H 	0.7679	0.1152	0.5717	0.045
Mof_C 	C 	0.72	0.188	0.477	-0.055
Mof_H 	H 	0.706	0.2979	0.4716	0.051
Mof_H 	H 	0.7555	0.1854	0.4477	0.006
Mof_Ni	Ni	0.31435	0.91845	0.02134	1.089
Mof_F 	F 	0.45179	0.6804	0.6563	-0.49
Mof_F 	F 	0.51346	0.7865	0.7384	-0.51
Mof_F 	F 	0.53753	0.6446	0.6278	-0.48
Mof_O 	O 	0.3987	0.8754	0.0202	-0.359
Mof_O 	O 	0.4378	0.6533	0.0779	-0.208
Mof_O 	O 	0.29526	0.6748	0.0214	-0.426
Mof_O 	O 	0.27048	0.4394	0.9637	-0.417
Mof_N 	N 	0.3156	0.9117	0.429	-0.134
Mof_N 	N 	0.3075	0.9404	0.6134	-0.112
Mof_N 	N 	0.3172	0.9117	0.1574	-0.243
Mof_N 	N 	0.3102	0.928	0.8867	-0.251
Mof_C 	C 	0.4474	0.5178	0.8075	0.344
Mof_C 	C 	0.4493	0.6097	0.883	-0.234
Mof_H 	H 	0.4824	0.6611	0.8976	0.157
Mof_C 	C 	0.4044	0.6281	0.9372	0.082
Mof_C 	C 	0.353	0.5526	0.9149	-0.191
Mof_C 	C 	0.3511	0.4609	0.8384	0.174
Mof_H 	H 	0.3182	0.4092	0.8231	-0.016
Mof_C 	C 	0.3963	0.4456	0.7856	-0.275
Mof_H 	H 	0.3933	0.3865	0.7346	0.196
Mof_C 	C 	0.5008	0.6543	0.6929	0.979
Mof_C 	C 	0.4135	0.725	0.0202	0.261
Mof_C 	C 	0.3034	0.5583	0.9707	0.398
Mof_C 	C 	0.3451	0.0374	0.4752	0.016
Mof_H 	H 	0.3234	0.137	0.4735	0.034
Mof_H 	H 	0.3799	0.0585	0.4461	0.054
Mof_C 	C 	0.3564	0.9951	0.5663	-0.15
Mof_H 	H 	0.3842	0.9097	0.568	0.142
Mof_H 	H 	0.3717	0.0898	0.5953	0.121
Mof_C 	C 	0.2878	0.788	0.5683	-0.005
Mof_H 	H 	0.259	0.7338	0.6013	0.029
Mof_H 	H 	0.3181	0.7129	0.5582	0.059
Mof_C 	C 	0.2633	0.8622	0.4767	0.016
Mof_H 	H 	0.2429	0.78	0.4449	0.026
Mof_H 	H 	0.2395	0.9553	0.4869	0.027
Mof_C 	C 	0.3446	0.0208	0.2037	0.136
Mof_H 	H 	0.3653	0.0979	0.1738	-0.017
Mof_C 	C 	0.3448	0.0296	0.2923	-0.202
Mof_H 	H 	0.3648	0.1107	0.3205	0.116
Mof_C 	C 	0.3146	0.9148	0.3395	0.174
Mof_C 	C 	0.2865	0.7971	0.2923	-0.201
Mof_H 	H 	0.2663	0.7165	0.3204	0.109
Mof_C 	C 	0.2889	0.8007	0.203	0.123
Mof_H 	H 	0.2696	0.7209	0.1727	0.002
Mof_C 	C 	0.3524	0.986	0.8417	0.132
Mof_H 	H 	0.3828	0.0265	0.8719	0.009
Mof_C 	C 	0.3541	0.99	0.7527	-0.217
Mof_H 	H 	0.3852	0.0318	0.725	0.175
Mof_C 	C 	0.31	0.9325	0.7036	0.184
Mof_C 	C 	0.2645	0.8737	0.7523	-0.209
Mof_H 	H 	0.233	0.8362	0.724	0.107
Mof_C 	C 	0.2665	0.8716	0.8403	0.13
Mof_H 	H 	0.2363	0.8293	0.8702	-0.02
Mof_C 	C 	0.2687	0.837	0.5665	-0.056
Mof_H 	H 	0.2677	0.7317	0.5946	0.01
Mof_H 	H 	0.2321	0.8848	0.5717	0.043
Mof_C 	C 	0.28	0.812	0.477	-0.054
Mof_H 	H 	0.294	0.7021	0.4716	0.051
Mof_H 	H 	0.2445	0.8146	0.4477	0.006
Mof_C 	C 	2.6573e-33	0	0.2484	-0.455
Mof_C 	C 	0.5	0.5	0.7516	-0.494
_end
