data_functionalizedCrystal
_audit_creation_method	'EQeq! by Chris Wilmer'
_symmetry_space_group_name_H-M	'P1'
_symmetry_Int_Tables_number	1
_symmetry_cell_setting	triclinic
loop_
_symmetry_equiv_pos_as_xyz
  x,y,z
_cell_length_a	44.006
_cell_length_b	44.006
_cell_length_c	28.267
_cell_angle_alpha	90
_cell_angle_beta	90
_cell_angle_gamma	120
loop_
_atom_site_label
_atom_site_type_symbol
_atom_site_fract_x
_atom_site_fract_y
_atom_site_fract_z
_atom_site_charge
Mof_Zn	Zn	0.49284	0.64556	0.8069	1.168
Mof_I 	I 	0.45405	0.67197	0.80786	-0.373
Mof_N 	N 	0.54373	0.68255	0.8211	-0.282
Mof_C 	C 	0.55882	0.71303	0.79603	0.068
Mof_H 	H 	0.5453	0.7158	0.772	-0.019
Mof_C 	C 	0.59192	0.73954	0.80345	-0.125
Mof_H 	H 	0.6017	0.7602	0.7846	0.089
Mof_C 	C 	0.61129	0.73572	0.83956	0.064
Mof_C 	C 	0.59688	0.70488	0.86444	-0.132
Mof_H 	H 	0.6098	0.7016	0.8888	0.081
Mof_C 	C 	0.56288	0.67842	0.85342	0.076
Mof_H 	H 	0.5533	0.6567	0.8698	-0.022
Mof_N 	N 	0.79538	0.94234	0.69068	-0.287
Mof_C 	C 	0.8108	0.94512	0.73293	0.066
Mof_H 	H 	0.8336	0.9646	0.7382	-0.022
Mof_C 	C 	0.7953	0.92122	0.76854	-0.127
Mof_H 	H 	0.8069	0.9243	0.798	0.083
Mof_C 	C 	0.76224	0.89233	0.76104	0.063
Mof_C 	C 	0.74532	0.89022	0.71832	-0.128
Mof_H 	H 	0.7221	0.8716	0.7128	0.088
Mof_C 	C 	0.76252	0.91507	0.68475	0.073
Mof_H 	H 	0.7509	0.9132	0.6557	-0.02
Mof_N 	N 	0.79362	0.8352	0.07889	-0.296
Mof_C 	C 	0.7641	0.8069	0.0683	0.097
Mof_H 	H 	0.7541	0.7885	0.0909	-0.028
Mof_C 	C 	0.7465	0.80237	0.02634	-0.153
Mof_H 	H 	0.7249	0.7813	0.021	0.091
Mof_C 	C 	0.75936	0.82709	0.99316	0.079
Mof_C 	C 	0.7898	0.8578	0.0037	-0.139
Mof_H 	H 	0.7995	0.8767	0.9819	0.089
Mof_C 	C 	0.8063	0.8605	0.0475	0.08
Mof_H 	H 	0.8274	0.8815	0.0546	-0.026
Mof_C 	C 	0.6474	0.76556	0.84945	0.098
Mof_N 	N 	0.66181	0.78894	0.81357	-0.145
Mof_C 	C 	0.69456	0.81558	0.82149	0.178
Mof_N 	N 	0.71119	0.83996	0.78736	-0.146
Mof_C 	C 	0.74365	0.8648	0.79853	0.1
Mof_N 	N 	0.76233	0.86996	0.83834	-0.147
Mof_C 	C 	0.74517	0.84583	0.87248	0.172
Mof_N 	N 	0.76101	0.84842	0.91496	-0.145
Mof_C 	C 	0.74208	0.82359	0.94635	0.09
Mof_N 	N 	0.70915	0.79542	0.94259	-0.144
Mof_C 	C 	0.69314	0.79261	0.89979	0.175
Mof_N 	N 	0.66088	0.76572	0.89212	-0.148
Mof_C 	C 	0.71104	0.81812	0.86509	-0.158
Mof_Zn	Zn	0.1595	0.9789	0.14023	1.168
Mof_I 	I 	0.12071	0.00531	0.14119	-0.373
Mof_N 	N 	0.2104	0.01588	0.15443	-0.282
Mof_C 	C 	0.22549	0.04636	0.12936	0.069
Mof_H 	H 	0.21197	0.04913	0.10533	-0.018
Mof_C 	C 	0.25859	0.07287	0.13678	-0.124
Mof_H 	H 	0.26837	0.09353	0.11793	0.09
Mof_C 	C 	0.27796	0.06905	0.17289	0.065
Mof_C 	C 	0.26355	0.03821	0.19777	-0.131
Mof_H 	H 	0.27647	0.03493	0.22213	0.082
Mof_C 	C 	0.22955	0.01175	0.18675	0.078
Mof_H 	H 	0.21997	0.99003	0.20313	-0.021
Mof_N 	N 	0.46205	0.27567	0.02401	-0.286
Mof_C 	C 	0.47747	0.27845	0.06626	0.067
Mof_H 	H 	0.50027	0.29793	0.07153	-0.021
Mof_C 	C 	0.46197	0.25455	0.10187	-0.126
Mof_H 	H 	0.47357	0.25763	0.13133	0.084
Mof_C 	C 	0.42891	0.22566	0.09437	0.064
Mof_C 	C 	0.41199	0.22355	0.05165	-0.127
Mof_H 	H 	0.38877	0.20493	0.04613	0.089
Mof_C 	C 	0.42919	0.2484	0.01808	0.074
Mof_H 	H 	0.41757	0.24653	0.98903	-0.019
Mof_N 	N 	0.46029	0.16853	0.41222	-0.295
Mof_C 	C 	0.43077	0.14023	0.40163	0.098
Mof_H 	H 	0.42077	0.12183	0.42423	-0.027
Mof_C 	C 	0.41317	0.1357	0.35967	-0.152
Mof_H 	H 	0.39157	0.11463	0.35433	0.092
Mof_C 	C 	0.42603	0.16042	0.32649	0.08
Mof_C 	C 	0.45647	0.19113	0.33703	-0.138
Mof_H 	H 	0.46617	0.21003	0.31523	0.09
Mof_C 	C 	0.47297	0.19383	0.38083	0.081
Mof_H 	H 	0.49407	0.21483	0.38793	-0.025
Mof_C 	C 	0.31407	0.09889	0.18278	0.099
Mof_N 	N 	0.32848	0.12227	0.1469	-0.144
Mof_C 	C 	0.36123	0.14891	0.15482	0.179
Mof_N 	N 	0.37786	0.17329	0.12069	-0.145
Mof_C 	C 	0.41032	0.19813	0.13186	0.101
Mof_N 	N 	0.429	0.20329	0.17167	-0.146
Mof_C 	C 	0.41184	0.17916	0.20581	0.173
Mof_N 	N 	0.42768	0.18175	0.24829	-0.144
Mof_C 	C 	0.40875	0.15692	0.27968	0.091
Mof_N 	N 	0.37582	0.12875	0.27592	-0.143
Mof_C 	C 	0.35981	0.12594	0.23312	0.176
Mof_N 	N 	0.32755	0.09905	0.22545	-0.147
Mof_C 	C 	0.37771	0.15145	0.19842	-0.157
Mof_Zn	Zn	0.82617	0.31223	0.47357	1.169
Mof_I 	I 	0.78738	0.33864	0.47453	-0.372
Mof_N 	N 	0.87706	0.34922	0.48777	-0.281
Mof_C 	C 	0.89215	0.3797	0.4627	0.069
Mof_H 	H 	0.87863	0.38247	0.43867	-0.018
Mof_C 	C 	0.92525	0.40621	0.47012	-0.124
Mof_H 	H 	0.93503	0.42687	0.45127	0.09
Mof_C 	C 	0.94462	0.40239	0.50623	0.065
Mof_C 	C 	0.93021	0.37155	0.53111	-0.131
Mof_H 	H 	0.94313	0.36827	0.55547	0.082
Mof_C 	C 	0.89621	0.34509	0.52009	0.077
Mof_H 	H 	0.88663	0.32337	0.53647	-0.021
Mof_N 	N 	0.12871	0.60901	0.35735	-0.286
Mof_C 	C 	0.14413	0.61179	0.3996	0.067
Mof_H 	H 	0.16693	0.63127	0.40487	-0.021
Mof_C 	C 	0.12863	0.58789	0.43521	-0.126
Mof_H 	H 	0.14023	0.59097	0.46467	0.084
Mof_C 	C 	0.09557	0.559	0.42771	0.064
Mof_C 	C 	0.07865	0.55689	0.38499	-0.127
Mof_H 	H 	0.05543	0.53827	0.37947	0.089
Mof_C 	C 	0.09585	0.58174	0.35142	0.074
Mof_H 	H 	0.08423	0.57987	0.32237	-0.019
Mof_N 	N 	0.12695	0.50187	0.74556	-0.295
Mof_C 	C 	0.09743	0.47357	0.73497	0.098
Mof_H 	H 	0.08743	0.45517	0.75757	-0.027
Mof_C 	C 	0.07983	0.46904	0.69301	-0.152
Mof_H 	H 	0.05823	0.44797	0.68767	0.092
Mof_C 	C 	0.09269	0.49376	0.65983	0.08
Mof_C 	C 	0.12313	0.52447	0.67037	-0.138
Mof_H 	H 	0.13283	0.54337	0.64857	0.09
Mof_C 	C 	0.13963	0.52717	0.71417	0.081
Mof_H 	H 	0.16073	0.54817	0.72127	-0.025
Mof_C 	C 	0.98073	0.43223	0.51612	0.099
Mof_N 	N 	0.99514	0.45561	0.48024	-0.144
Mof_C 	C 	0.02789	0.48225	0.48816	0.179
Mof_N 	N 	0.04452	0.50663	0.45403	-0.145
Mof_C 	C 	0.07698	0.53147	0.4652	0.101
Mof_N 	N 	0.09566	0.53663	0.50501	-0.146
Mof_C 	C 	0.0785	0.5125	0.53915	0.173
Mof_N 	N 	0.09434	0.51509	0.58163	-0.144
Mof_C 	C 	0.07541	0.49026	0.61302	0.091
Mof_N 	N 	0.04248	0.46209	0.60926	-0.143
Mof_C 	C 	0.02647	0.45928	0.56646	0.176
Mof_N 	N 	0.99421	0.43239	0.55879	-0.147
Mof_C 	C 	0.04437	0.48479	0.53176	-0.157
Mof_Zn	Zn	0.35444	0.84727	0.8069	1.169
Mof_I 	I 	0.32803	0.78207	0.80786	-0.372
Mof_N 	N 	0.31745	0.86118	0.8211	-0.281
Mof_C 	C 	0.28697	0.84579	0.79603	0.069
Mof_H 	H 	0.2842	0.8295	0.772	-0.018
Mof_C 	C 	0.26046	0.85238	0.80345	-0.124
Mof_H 	H 	0.2398	0.8415	0.7846	0.09
Mof_C 	C 	0.26428	0.87557	0.83956	0.065
Mof_C 	C 	0.29512	0.892	0.86444	-0.131
Mof_H 	H 	0.2984	0.9082	0.8888	0.082
Mof_C 	C 	0.32158	0.88446	0.85342	0.077
Mof_H 	H 	0.3433	0.8966	0.8698	-0.021
Mof_N 	N 	0.05766	0.85304	0.69068	-0.286
Mof_C 	C 	0.05488	0.86568	0.73293	0.067
Mof_H 	H 	0.0354	0.869	0.7382	-0.021
Mof_C 	C 	0.07878	0.87408	0.76854	-0.126
Mof_H 	H 	0.0757	0.8826	0.798	0.084
Mof_C 	C 	0.10767	0.86991	0.76104	0.064
Mof_C 	C 	0.10978	0.8551	0.71832	-0.127
Mof_H 	H 	0.1284	0.8505	0.7128	0.089
Mof_C 	C 	0.08493	0.84745	0.68475	0.074
Mof_H 	H 	0.0868	0.8377	0.6557	-0.019
Mof_N 	N 	0.1648	0.95842	0.07889	-0.295
Mof_C 	C 	0.1931	0.9572	0.0683	0.098
Mof_H 	H 	0.2115	0.9656	0.0909	-0.027
Mof_C 	C 	0.19763	0.94413	0.02634	-0.152
Mof_H 	H 	0.2187	0.9436	0.021	0.092
Mof_C 	C 	0.17291	0.93227	0.99316	0.08
Mof_C 	C 	0.1422	0.932	0.0037	-0.138
Mof_H 	H 	0.1233	0.9228	0.9819	0.09
Mof_C 	C 	0.1395	0.9458	0.0475	0.081
Mof_H 	H 	0.1185	0.9459	0.0546	-0.025
Mof_C 	C 	0.23444	0.88184	0.84945	0.099
Mof_N 	N 	0.21106	0.87287	0.81357	-0.144
Mof_C 	C 	0.18442	0.87898	0.82149	0.179
Mof_N 	N 	0.16004	0.87123	0.78736	-0.145
Mof_C 	C 	0.1352	0.87885	0.79853	0.101
Mof_N 	N 	0.13004	0.89237	0.83834	-0.146
Mof_C 	C 	0.15417	0.89934	0.87248	0.173
Mof_N 	N 	0.15158	0.91259	0.91496	-0.144
Mof_C 	C 	0.17641	0.91849	0.94635	0.091
Mof_N 	N 	0.20458	0.91373	0.94259	-0.143
Mof_C 	C 	0.20739	0.90053	0.89979	0.176
Mof_N 	N 	0.23428	0.89516	0.89212	-0.147
Mof_C 	C 	0.18188	0.89292	0.86509	-0.157
Mof_Zn	Zn	0.0211	0.18061	0.14023	1.169
Mof_I 	I 	0.99469	0.11541	0.14119	-0.372
Mof_N 	N 	0.98412	0.19451	0.15443	-0.281
Mof_C 	C 	0.95364	0.17912	0.12936	0.069
Mof_H 	H 	0.95087	0.16283	0.10533	-0.018
Mof_C 	C 	0.92713	0.18571	0.13678	-0.124
Mof_H 	H 	0.90647	0.17483	0.11793	0.09
Mof_C 	C 	0.93095	0.2089	0.17289	0.065
Mof_C 	C 	0.96179	0.22533	0.19777	-0.131
Mof_H 	H 	0.96507	0.24153	0.22213	0.082
Mof_C 	C 	0.98825	0.21779	0.18675	0.078
Mof_H 	H 	0.00997	0.22993	0.20313	-0.021
Mof_N 	N 	0.72433	0.18637	0.02401	-0.286
Mof_C 	C 	0.72155	0.19901	0.06626	0.067
Mof_H 	H 	0.70207	0.20233	0.07153	-0.021
Mof_C 	C 	0.74545	0.20741	0.10187	-0.126
Mof_H 	H 	0.74237	0.21593	0.13133	0.084
Mof_C 	C 	0.77434	0.20324	0.09437	0.064
Mof_C 	C 	0.77645	0.18843	0.05165	-0.127
Mof_H 	H 	0.79507	0.18383	0.04613	0.089
Mof_C 	C 	0.7516	0.18078	0.01808	0.074
Mof_H 	H 	0.75347	0.17103	0.98903	-0.019
Mof_N 	N 	0.83147	0.29175	0.41222	-0.295
Mof_C 	C 	0.85977	0.29053	0.40163	0.098
Mof_H 	H 	0.87817	0.29893	0.42423	-0.027
Mof_C 	C 	0.8643	0.27746	0.35967	-0.152
Mof_H 	H 	0.88537	0.27693	0.35433	0.092
Mof_C 	C 	0.83958	0.2656	0.32649	0.08
Mof_C 	C 	0.80887	0.26533	0.33703	-0.138
Mof_H 	H 	0.78997	0.25613	0.31523	0.09
Mof_C 	C 	0.80617	0.27913	0.38083	0.081
Mof_H 	H 	0.78517	0.27923	0.38793	-0.025
Mof_C 	C 	0.90111	0.21517	0.18278	0.099
Mof_N 	N 	0.87773	0.2062	0.1469	-0.144
Mof_C 	C 	0.85109	0.21231	0.15482	0.179
Mof_N 	N 	0.82671	0.20456	0.12069	-0.145
Mof_C 	C 	0.80187	0.21218	0.13186	0.101
Mof_N 	N 	0.79671	0.2257	0.17167	-0.146
Mof_C 	C 	0.82084	0.23267	0.20581	0.173
Mof_N 	N 	0.81825	0.24592	0.24829	-0.144
Mof_C 	C 	0.84308	0.25182	0.27968	0.091
Mof_N 	N 	0.87125	0.24706	0.27592	-0.143
Mof_C 	C 	0.87406	0.23386	0.23312	0.176
Mof_N 	N 	0.90095	0.22849	0.22545	-0.147
Mof_C 	C 	0.84855	0.22625	0.19842	-0.157
Mof_Zn	Zn	0.68777	0.51394	0.47357	1.169
Mof_I 	I 	0.66136	0.44874	0.47453	-0.372
Mof_N 	N 	0.65078	0.52785	0.48777	-0.281
Mof_C 	C 	0.6203	0.51246	0.4627	0.069
Mof_H 	H 	0.61753	0.49617	0.43867	-0.018
Mof_C 	C 	0.59379	0.51905	0.47012	-0.124
Mof_H 	H 	0.57313	0.50817	0.45127	0.09
Mof_C 	C 	0.59761	0.54224	0.50623	0.065
Mof_C 	C 	0.62845	0.55867	0.53111	-0.131
Mof_H 	H 	0.63173	0.57487	0.55547	0.082
Mof_C 	C 	0.65491	0.55113	0.52009	0.077
Mof_H 	H 	0.67663	0.56327	0.53647	-0.021
Mof_N 	N 	0.39099	0.51971	0.35735	-0.286
Mof_C 	C 	0.38821	0.53235	0.3996	0.067
Mof_H 	H 	0.36873	0.53567	0.40487	-0.021
Mof_C 	C 	0.41211	0.54075	0.43521	-0.126
Mof_H 	H 	0.40903	0.54927	0.46467	0.084
Mof_C 	C 	0.441	0.53658	0.42771	0.064
Mof_C 	C 	0.44311	0.52177	0.38499	-0.127
Mof_H 	H 	0.46173	0.51717	0.37947	0.089
Mof_C 	C 	0.41826	0.51412	0.35142	0.074
Mof_H 	H 	0.42013	0.50437	0.32237	-0.019
Mof_N 	N 	0.49813	0.62509	0.74556	-0.295
Mof_C 	C 	0.52643	0.62387	0.73497	0.098
Mof_H 	H 	0.54483	0.63227	0.75757	-0.027
Mof_C 	C 	0.53096	0.6108	0.69301	-0.152
Mof_H 	H 	0.55203	0.61027	0.68767	0.092
Mof_C 	C 	0.50624	0.59894	0.65983	0.08
Mof_C 	C 	0.47553	0.59867	0.67037	-0.138
Mof_H 	H 	0.45663	0.58947	0.64857	0.09
Mof_C 	C 	0.47283	0.61247	0.71417	0.081
Mof_H 	H 	0.45183	0.61257	0.72127	-0.025
Mof_C 	C 	0.56777	0.54851	0.51612	0.099
Mof_N 	N 	0.54439	0.53954	0.48024	-0.144
Mof_C 	C 	0.51775	0.54565	0.48816	0.179
Mof_N 	N 	0.49337	0.5379	0.45403	-0.145
Mof_C 	C 	0.46853	0.54552	0.4652	0.101
Mof_N 	N 	0.46337	0.55904	0.50501	-0.146
Mof_C 	C 	0.4875	0.56601	0.53915	0.173
Mof_N 	N 	0.48491	0.57926	0.58163	-0.144
Mof_C 	C 	0.50974	0.58516	0.61302	0.091
Mof_N 	N 	0.53791	0.5804	0.60926	-0.143
Mof_C 	C 	0.54072	0.5672	0.56646	0.176
Mof_N 	N 	0.56761	0.56183	0.55879	-0.147
Mof_C 	C 	0.51521	0.55959	0.53176	-0.157
Mof_Zn	Zn	0.15273	0.50716	0.8069	1.169
Mof_I 	I 	0.21793	0.54595	0.80786	-0.372
Mof_N 	N 	0.13882	0.45627	0.8211	-0.281
Mof_C 	C 	0.15421	0.44118	0.79603	0.069
Mof_H 	H 	0.1705	0.4547	0.772	-0.018
Mof_C 	C 	0.14762	0.40808	0.80345	-0.124
Mof_H 	H 	0.1585	0.3983	0.7846	0.09
Mof_C 	C 	0.12443	0.38871	0.83956	0.065
Mof_C 	C 	0.108	0.40312	0.86444	-0.131
Mof_H 	H 	0.0918	0.3902	0.8888	0.082
Mof_C 	C 	0.11554	0.43712	0.85342	0.077
Mof_H 	H 	0.1034	0.4467	0.8698	-0.021
Mof_N 	N 	0.14696	0.20462	0.69068	-0.286
Mof_C 	C 	0.13432	0.1892	0.73293	0.067
Mof_H 	H 	0.131	0.1664	0.7382	-0.021
Mof_C 	C 	0.12592	0.2047	0.76854	-0.126
Mof_H 	H 	0.1174	0.1931	0.798	0.084
Mof_C 	C 	0.13009	0.23776	0.76104	0.064
Mof_C 	C 	0.1449	0.25468	0.71832	-0.127
Mof_H 	H 	0.1495	0.2779	0.7128	0.089
Mof_C 	C 	0.15255	0.23748	0.68475	0.074
Mof_H 	H 	0.1623	0.2491	0.6557	-0.019
Mof_N 	N 	0.04158	0.20638	0.07889	-0.295
Mof_C 	C 	0.0428	0.2359	0.0683	0.098
Mof_H 	H 	0.0344	0.2459	0.0909	-0.027
Mof_C 	C 	0.05587	0.2535	0.02634	-0.152
Mof_H 	H 	0.0564	0.2751	0.021	0.092
Mof_C 	C 	0.06773	0.24064	0.99316	0.08
Mof_C 	C 	0.068	0.2102	0.0037	-0.138
Mof_H 	H 	0.0772	0.2005	0.9819	0.09
Mof_C 	C 	0.0542	0.1937	0.0475	0.081
Mof_H 	H 	0.0541	0.1726	0.0546	-0.025
Mof_C 	C 	0.11816	0.3526	0.84945	0.099
Mof_N 	N 	0.12713	0.33819	0.81357	-0.144
Mof_C 	C 	0.12102	0.30544	0.82149	0.179
Mof_N 	N 	0.12877	0.28881	0.78736	-0.145
Mof_C 	C 	0.12115	0.25635	0.79853	0.101
Mof_N 	N 	0.10763	0.23767	0.83834	-0.146
Mof_C 	C 	0.10066	0.25483	0.87248	0.173
Mof_N 	N 	0.08741	0.23899	0.91496	-0.144
Mof_C 	C 	0.08151	0.25792	0.94635	0.091
Mof_N 	N 	0.08627	0.29085	0.94259	-0.143
Mof_C 	C 	0.09947	0.30686	0.89979	0.176
Mof_N 	N 	0.10484	0.33912	0.89212	-0.147
Mof_C 	C 	0.10708	0.28896	0.86509	-0.157
Mof_Zn	Zn	0.81939	0.8405	0.14023	1.169
Mof_I 	I 	0.88459	0.87929	0.14119	-0.372
Mof_N 	N 	0.80549	0.7896	0.15443	-0.281
Mof_C 	C 	0.82088	0.77451	0.12936	0.069
Mof_H 	H 	0.83717	0.78803	0.10533	-0.018
Mof_C 	C 	0.81429	0.74141	0.13678	-0.124
Mof_H 	H 	0.82517	0.73163	0.11793	0.09
Mof_C 	C 	0.7911	0.72204	0.17289	0.065
Mof_C 	C 	0.77467	0.73645	0.19777	-0.131
Mof_H 	H 	0.75847	0.72353	0.22213	0.082
Mof_C 	C 	0.78221	0.77045	0.18675	0.077
Mof_H 	H 	0.77007	0.78003	0.20313	-0.021
Mof_N 	N 	0.81363	0.53795	0.02401	-0.286
Mof_C 	C 	0.80099	0.52253	0.06626	0.067
Mof_H 	H 	0.79767	0.49973	0.07153	-0.021
Mof_C 	C 	0.79259	0.53803	0.10187	-0.126
Mof_H 	H 	0.78407	0.52643	0.13133	0.084
Mof_C 	C 	0.79676	0.57109	0.09437	0.064
Mof_C 	C 	0.81157	0.58801	0.05165	-0.127
Mof_H 	H 	0.81617	0.61123	0.04613	0.089
Mof_C 	C 	0.81922	0.57081	0.01808	0.074
Mof_H 	H 	0.82897	0.58243	0.98903	-0.019
Mof_N 	N 	0.70825	0.53971	0.41222	-0.295
Mof_C 	C 	0.70947	0.56923	0.40163	0.098
Mof_H 	H 	0.70107	0.57923	0.42423	-0.027
Mof_C 	C 	0.72254	0.58683	0.35967	-0.152
Mof_H 	H 	0.72307	0.60843	0.35433	0.092
Mof_C 	C 	0.7344	0.57397	0.32649	0.08
Mof_C 	C 	0.73467	0.54353	0.33703	-0.138
Mof_H 	H 	0.74387	0.53383	0.31523	0.09
Mof_C 	C 	0.72087	0.52703	0.38083	0.081
Mof_H 	H 	0.72077	0.50593	0.38793	-0.025
Mof_C 	C 	0.78483	0.68593	0.18278	0.099
Mof_N 	N 	0.7938	0.67152	0.1469	-0.144
Mof_C 	C 	0.78769	0.63877	0.15482	0.179
Mof_N 	N 	0.79544	0.62214	0.12069	-0.145
Mof_C 	C 	0.78782	0.58968	0.13186	0.101
Mof_N 	N 	0.7743	0.571	0.17167	-0.146
Mof_C 	C 	0.76733	0.58816	0.20581	0.173
Mof_N 	N 	0.75408	0.57232	0.24829	-0.144
Mof_C 	C 	0.74818	0.59125	0.27968	0.091
Mof_N 	N 	0.75294	0.62418	0.27592	-0.143
Mof_C 	C 	0.76614	0.64019	0.23312	0.176
Mof_N 	N 	0.77151	0.67245	0.22545	-0.147
Mof_C 	C 	0.77375	0.62229	0.19842	-0.157
Mof_Zn	Zn	0.48606	0.17383	0.47357	1.169
Mof_I 	I 	0.55126	0.21262	0.47453	-0.372
Mof_N 	N 	0.47215	0.12294	0.48777	-0.281
Mof_C 	C 	0.48754	0.10785	0.4627	0.069
Mof_H 	H 	0.50383	0.12137	0.43867	-0.018
Mof_C 	C 	0.48095	0.07475	0.47012	-0.124
Mof_H 	H 	0.49183	0.06497	0.45127	0.09
Mof_C 	C 	0.45776	0.05538	0.50623	0.065
Mof_C 	C 	0.44133	0.06979	0.53111	-0.131
Mof_H 	H 	0.42513	0.05687	0.55547	0.082
Mof_C 	C 	0.44887	0.10379	0.52009	0.077
Mof_H 	H 	0.43673	0.11337	0.53647	-0.021
Mof_N 	N 	0.48029	0.87129	0.35735	-0.286
Mof_C 	C 	0.46765	0.85587	0.3996	0.067
Mof_H 	H 	0.46433	0.83307	0.40487	-0.021
Mof_C 	C 	0.45925	0.87137	0.43521	-0.126
Mof_H 	H 	0.45073	0.85977	0.46467	0.084
Mof_C 	C 	0.46342	0.90443	0.42771	0.064
Mof_C 	C 	0.47823	0.92135	0.38499	-0.127
Mof_H 	H 	0.48283	0.94457	0.37947	0.089
Mof_C 	C 	0.48588	0.90415	0.35142	0.074
Mof_H 	H 	0.49563	0.91577	0.32237	-0.019
Mof_N 	N 	0.37491	0.87305	0.74556	-0.295
Mof_C 	C 	0.37613	0.90257	0.73497	0.098
Mof_H 	H 	0.36773	0.91257	0.75757	-0.027
Mof_C 	C 	0.3892	0.92017	0.69301	-0.152
Mof_H 	H 	0.38973	0.94177	0.68767	0.092
Mof_C 	C 	0.40106	0.90731	0.65983	0.08
Mof_C 	C 	0.40133	0.87687	0.67037	-0.138
Mof_H 	H 	0.41053	0.86717	0.64857	0.09
Mof_C 	C 	0.38753	0.86037	0.71417	0.081
Mof_H 	H 	0.38743	0.83927	0.72127	-0.025
Mof_C 	C 	0.45149	0.01927	0.51612	0.099
Mof_N 	N 	0.46046	0.00486	0.48024	-0.144
Mof_C 	C 	0.45435	0.97211	0.48816	0.179
Mof_N 	N 	0.4621	0.95548	0.45403	-0.145
Mof_C 	C 	0.45448	0.92302	0.4652	0.101
Mof_N 	N 	0.44096	0.90434	0.50501	-0.146
Mof_C 	C 	0.43399	0.9215	0.53915	0.173
Mof_N 	N 	0.42074	0.90566	0.58163	-0.144
Mof_C 	C 	0.41484	0.92459	0.61302	0.091
Mof_N 	N 	0.4196	0.95752	0.60926	-0.143
Mof_C 	C 	0.4328	0.97353	0.56646	0.176
Mof_N 	N 	0.43817	0.00579	0.55879	-0.147
Mof_C 	C 	0.44041	0.95563	0.53176	-0.157
Mof_Zn	Zn	0.35444	0.50716	0.3069	1.169
Mof_I 	I 	0.32803	0.54595	0.30786	-0.372
Mof_N 	N 	0.31745	0.45627	0.3211	-0.281
Mof_C 	C 	0.28697	0.44118	0.29603	0.069
Mof_H 	H 	0.2842	0.4547	0.272	-0.018
Mof_C 	C 	0.26046	0.40808	0.30345	-0.124
Mof_H 	H 	0.2398	0.3983	0.2846	0.09
Mof_C 	C 	0.26428	0.38871	0.33956	0.065
Mof_C 	C 	0.29512	0.40312	0.36444	-0.131
Mof_H 	H 	0.2984	0.3902	0.3888	0.082
Mof_C 	C 	0.32158	0.43712	0.35342	0.077
Mof_H 	H 	0.3433	0.4467	0.3698	-0.021
Mof_N 	N 	0.05766	0.20462	0.19068	-0.286
Mof_C 	C 	0.05488	0.1892	0.23293	0.067
Mof_H 	H 	0.0354	0.1664	0.2382	-0.021
Mof_C 	C 	0.07878	0.2047	0.26854	-0.126
Mof_H 	H 	0.0757	0.1931	0.298	0.084
Mof_C 	C 	0.10767	0.23776	0.26104	0.064
Mof_C 	C 	0.10978	0.25468	0.21832	-0.127
Mof_H 	H 	0.1284	0.2779	0.2128	0.089
Mof_C 	C 	0.08493	0.23748	0.18475	0.074
Mof_H 	H 	0.0868	0.2491	0.1557	-0.019
Mof_N 	N 	0.1648	0.20638	0.57889	-0.295
Mof_C 	C 	0.1931	0.2359	0.5683	0.098
Mof_H 	H 	0.2115	0.2459	0.5909	-0.027
Mof_C 	C 	0.19763	0.2535	0.52634	-0.152
Mof_H 	H 	0.2187	0.2751	0.521	0.092
Mof_C 	C 	0.17291	0.24064	0.49316	0.08
Mof_C 	C 	0.1422	0.2102	0.5037	-0.138
Mof_H 	H 	0.1233	0.2005	0.4819	0.09
Mof_C 	C 	0.1395	0.1937	0.5475	0.081
Mof_H 	H 	0.1185	0.1726	0.5546	-0.025
Mof_C 	C 	0.23444	0.3526	0.34945	0.099
Mof_N 	N 	0.21106	0.33819	0.31357	-0.144
Mof_C 	C 	0.18442	0.30544	0.32149	0.179
Mof_N 	N 	0.16004	0.28881	0.28736	-0.145
Mof_C 	C 	0.1352	0.25635	0.29853	0.101
Mof_N 	N 	0.13004	0.23767	0.33834	-0.146
Mof_C 	C 	0.15417	0.25483	0.37248	0.173
Mof_N 	N 	0.15158	0.23899	0.41496	-0.144
Mof_C 	C 	0.17641	0.25792	0.44635	0.091
Mof_N 	N 	0.20458	0.29085	0.44259	-0.143
Mof_C 	C 	0.20739	0.30686	0.39979	0.176
Mof_N 	N 	0.23428	0.33912	0.39212	-0.147
Mof_C 	C 	0.18188	0.28896	0.36509	-0.157
Mof_Zn	Zn	0.0211	0.8405	0.64023	1.169
Mof_I 	I 	0.99469	0.87929	0.64119	-0.372
Mof_N 	N 	0.98412	0.7896	0.65443	-0.281
Mof_C 	C 	0.95364	0.77451	0.62936	0.069
Mof_H 	H 	0.95087	0.78803	0.60533	-0.018
Mof_C 	C 	0.92713	0.74141	0.63678	-0.124
Mof_H 	H 	0.90647	0.73163	0.61793	0.09
Mof_C 	C 	0.93095	0.72204	0.67289	0.065
Mof_C 	C 	0.96179	0.73645	0.69777	-0.131
Mof_H 	H 	0.96507	0.72353	0.72213	0.082
Mof_C 	C 	0.98825	0.77045	0.68675	0.077
Mof_H 	H 	0.00997	0.78003	0.70313	-0.021
Mof_N 	N 	0.72433	0.53795	0.52401	-0.286
Mof_C 	C 	0.72155	0.52253	0.56626	0.067
Mof_H 	H 	0.70207	0.49973	0.57153	-0.021
Mof_C 	C 	0.74545	0.53803	0.60187	-0.126
Mof_H 	H 	0.74237	0.52643	0.63133	0.084
Mof_C 	C 	0.77434	0.57109	0.59437	0.064
Mof_C 	C 	0.77645	0.58801	0.55165	-0.127
Mof_H 	H 	0.79507	0.61123	0.54613	0.089
Mof_C 	C 	0.7516	0.57081	0.51808	0.074
Mof_H 	H 	0.75347	0.58243	0.48903	-0.019
Mof_N 	N 	0.83147	0.53971	0.91222	-0.295
Mof_C 	C 	0.85977	0.56923	0.90163	0.098
Mof_H 	H 	0.87817	0.57923	0.92423	-0.027
Mof_C 	C 	0.8643	0.58683	0.85967	-0.152
Mof_H 	H 	0.88537	0.60843	0.85433	0.092
Mof_C 	C 	0.83958	0.57397	0.82649	0.08
Mof_C 	C 	0.80887	0.54353	0.83703	-0.138
Mof_H 	H 	0.78997	0.53383	0.81523	0.09
Mof_C 	C 	0.80617	0.52703	0.88083	0.081
Mof_H 	H 	0.78517	0.50593	0.88793	-0.025
Mof_C 	C 	0.90111	0.68593	0.68278	0.099
Mof_N 	N 	0.87773	0.67152	0.6469	-0.144
Mof_C 	C 	0.85109	0.63877	0.65482	0.179
Mof_N 	N 	0.82671	0.62214	0.62069	-0.145
Mof_C 	C 	0.80187	0.58968	0.63186	0.101
Mof_N 	N 	0.79671	0.571	0.67167	-0.146
Mof_C 	C 	0.82084	0.58816	0.70581	0.173
Mof_N 	N 	0.81825	0.57232	0.74829	-0.144
Mof_C 	C 	0.84308	0.59125	0.77968	0.091
Mof_N 	N 	0.87125	0.62418	0.77592	-0.143
Mof_C 	C 	0.87406	0.64019	0.73312	0.176
Mof_N 	N 	0.90095	0.67245	0.72545	-0.147
Mof_C 	C 	0.84855	0.62229	0.69842	-0.157
Mof_Zn	Zn	0.68777	0.17383	0.97357	1.169
Mof_I 	I 	0.66136	0.21262	0.97453	-0.372
Mof_N 	N 	0.65078	0.12294	0.98777	-0.281
Mof_C 	C 	0.6203	0.10785	0.9627	0.069
Mof_H 	H 	0.61753	0.12137	0.93867	-0.018
Mof_C 	C 	0.59379	0.07475	0.97012	-0.124
Mof_H 	H 	0.57313	0.06497	0.95127	0.09
Mof_C 	C 	0.59761	0.05538	0.00623	0.065
Mof_C 	C 	0.62845	0.06979	0.03111	-0.131
Mof_H 	H 	0.63173	0.05687	0.05547	0.083
Mof_C 	C 	0.65491	0.10379	0.02009	0.078
Mof_H 	H 	0.67663	0.11337	0.03647	-0.021
Mof_N 	N 	0.39099	0.87129	0.85735	-0.286
Mof_C 	C 	0.38821	0.85587	0.8996	0.067
Mof_H 	H 	0.36873	0.83307	0.90487	-0.021
Mof_C 	C 	0.41211	0.87137	0.93521	-0.126
Mof_H 	H 	0.40903	0.85977	0.96467	0.084
Mof_C 	C 	0.441	0.90443	0.92771	0.064
Mof_C 	C 	0.44311	0.92135	0.88499	-0.127
Mof_H 	H 	0.46173	0.94457	0.87947	0.089
Mof_C 	C 	0.41826	0.90415	0.85142	0.074
Mof_H 	H 	0.42013	0.91577	0.82237	-0.019
Mof_N 	N 	0.49813	0.87305	0.24556	-0.295
Mof_C 	C 	0.52643	0.90257	0.23497	0.098
Mof_H 	H 	0.54483	0.91257	0.25757	-0.027
Mof_C 	C 	0.53096	0.92017	0.19301	-0.152
Mof_H 	H 	0.55203	0.94177	0.18767	0.092
Mof_C 	C 	0.50624	0.90731	0.15983	0.08
Mof_C 	C 	0.47553	0.87687	0.17037	-0.138
Mof_H 	H 	0.45663	0.86717	0.14857	0.09
Mof_C 	C 	0.47283	0.86037	0.21417	0.081
Mof_H 	H 	0.45183	0.83927	0.22127	-0.025
Mof_C 	C 	0.56777	0.01927	0.01612	0.099
Mof_N 	N 	0.54439	0.00486	0.98024	-0.144
Mof_C 	C 	0.51775	0.97211	0.98816	0.179
Mof_N 	N 	0.49337	0.95548	0.95403	-0.145
Mof_C 	C 	0.46853	0.92302	0.9652	0.101
Mof_N 	N 	0.46337	0.90434	0.00501	-0.146
Mof_C 	C 	0.4875	0.9215	0.03915	0.173
Mof_N 	N 	0.48491	0.90566	0.08163	-0.144
Mof_C 	C 	0.50974	0.92459	0.11302	0.091
Mof_N 	N 	0.53791	0.95752	0.10926	-0.143
Mof_C 	C 	0.54072	0.97353	0.06646	0.176
Mof_N 	N 	0.56761	0.00579	0.05879	-0.147
Mof_C 	C 	0.51521	0.95563	0.03176	-0.157
Mof_Zn	Zn	0.15273	0.64556	0.3069	1.169
Mof_I 	I 	0.21793	0.67197	0.30786	-0.372
Mof_N 	N 	0.13882	0.68255	0.3211	-0.281
Mof_C 	C 	0.15421	0.71303	0.29603	0.069
Mof_H 	H 	0.1705	0.7158	0.272	-0.018
Mof_C 	C 	0.14762	0.73954	0.30345	-0.124
Mof_H 	H 	0.1585	0.7602	0.2846	0.09
Mof_C 	C 	0.12443	0.73572	0.33956	0.065
Mof_C 	C 	0.108	0.70488	0.36444	-0.131
Mof_H 	H 	0.0918	0.7016	0.3888	0.082
Mof_C 	C 	0.11554	0.67842	0.35342	0.077
Mof_H 	H 	0.1034	0.6567	0.3698	-0.021
Mof_N 	N 	0.14696	0.94234	0.19068	-0.286
Mof_C 	C 	0.13432	0.94512	0.23293	0.067
Mof_H 	H 	0.131	0.9646	0.2382	-0.021
Mof_C 	C 	0.12592	0.92122	0.26854	-0.126
Mof_H 	H 	0.1174	0.9243	0.298	0.084
Mof_C 	C 	0.13009	0.89233	0.26104	0.064
Mof_C 	C 	0.1449	0.89022	0.21832	-0.127
Mof_H 	H 	0.1495	0.8716	0.2128	0.089
Mof_C 	C 	0.15255	0.91507	0.18475	0.074
Mof_H 	H 	0.1623	0.9132	0.1557	-0.019
Mof_N 	N 	0.04158	0.8352	0.57889	-0.295
Mof_C 	C 	0.0428	0.8069	0.5683	0.098
Mof_H 	H 	0.0344	0.7885	0.5909	-0.027
Mof_C 	C 	0.05587	0.80237	0.52634	-0.152
Mof_H 	H 	0.0564	0.7813	0.521	0.092
Mof_C 	C 	0.06773	0.82709	0.49316	0.08
Mof_C 	C 	0.068	0.8578	0.5037	-0.138
Mof_H 	H 	0.0772	0.8767	0.4819	0.09
Mof_C 	C 	0.0542	0.8605	0.5475	0.081
Mof_H 	H 	0.0541	0.8815	0.5546	-0.025
Mof_C 	C 	0.11816	0.76556	0.34945	0.099
Mof_N 	N 	0.12713	0.78894	0.31357	-0.144
Mof_C 	C 	0.12102	0.81558	0.32149	0.179
Mof_N 	N 	0.12877	0.83996	0.28736	-0.145
Mof_C 	C 	0.12115	0.8648	0.29853	0.101
Mof_N 	N 	0.10763	0.86996	0.33834	-0.146
Mof_C 	C 	0.10066	0.84583	0.37248	0.173
Mof_N 	N 	0.08741	0.84842	0.41496	-0.144
Mof_C 	C 	0.08151	0.82359	0.44635	0.091
Mof_N 	N 	0.08627	0.79542	0.44259	-0.143
Mof_C 	C 	0.09947	0.79261	0.39979	0.176
Mof_N 	N 	0.10484	0.76572	0.39212	-0.147
Mof_C 	C 	0.10708	0.81812	0.36509	-0.157
Mof_Zn	Zn	0.81939	0.9789	0.64023	1.169
Mof_I 	I 	0.88459	0.00531	0.64119	-0.372
Mof_N 	N 	0.80549	0.01588	0.65443	-0.281
Mof_C 	C 	0.82088	0.04636	0.62936	0.069
Mof_H 	H 	0.83717	0.04913	0.60533	-0.018
Mof_C 	C 	0.81429	0.07287	0.63678	-0.124
Mof_H 	H 	0.82517	0.09353	0.61793	0.09
Mof_C 	C 	0.7911	0.06905	0.67289	0.065
Mof_C 	C 	0.77467	0.03821	0.69777	-0.131
Mof_H 	H 	0.75847	0.03493	0.72213	0.082
Mof_C 	C 	0.78221	0.01175	0.68675	0.077
Mof_H 	H 	0.77007	0.99003	0.70313	-0.021
Mof_N 	N 	0.81363	0.27567	0.52401	-0.286
Mof_C 	C 	0.80099	0.27845	0.56626	0.067
Mof_H 	H 	0.79767	0.29793	0.57153	-0.021
Mof_C 	C 	0.79259	0.25455	0.60187	-0.126
Mof_H 	H 	0.78407	0.25763	0.63133	0.084
Mof_C 	C 	0.79676	0.22566	0.59437	0.064
Mof_C 	C 	0.81157	0.22355	0.55165	-0.127
Mof_H 	H 	0.81617	0.20493	0.54613	0.089
Mof_C 	C 	0.81922	0.2484	0.51808	0.074
Mof_H 	H 	0.82897	0.24653	0.48903	-0.019
Mof_N 	N 	0.70825	0.16853	0.91222	-0.295
Mof_C 	C 	0.70947	0.14023	0.90163	0.098
Mof_H 	H 	0.70107	0.12183	0.92423	-0.027
Mof_C 	C 	0.72254	0.1357	0.85967	-0.152
Mof_H 	H 	0.72307	0.11463	0.85433	0.092
Mof_C 	C 	0.7344	0.16042	0.82649	0.08
Mof_C 	C 	0.73467	0.19113	0.83703	-0.138
Mof_H 	H 	0.74387	0.21003	0.81523	0.09
Mof_C 	C 	0.72087	0.19383	0.88083	0.081
Mof_H 	H 	0.72077	0.21483	0.88793	-0.025
Mof_C 	C 	0.78483	0.09889	0.68278	0.099
Mof_N 	N 	0.7938	0.12227	0.6469	-0.144
Mof_C 	C 	0.78769	0.14891	0.65482	0.179
Mof_N 	N 	0.79544	0.17329	0.62069	-0.145
Mof_C 	C 	0.78782	0.19813	0.63186	0.101
Mof_N 	N 	0.7743	0.20329	0.67167	-0.146
Mof_C 	C 	0.76733	0.17916	0.70581	0.173
Mof_N 	N 	0.75408	0.18175	0.74829	-0.144
Mof_C 	C 	0.74818	0.15692	0.77968	0.091
Mof_N 	N 	0.75294	0.12875	0.77592	-0.143
Mof_C 	C 	0.76614	0.12594	0.73312	0.176
Mof_N 	N 	0.77151	0.09905	0.72545	-0.147
Mof_C 	C 	0.77375	0.15145	0.69842	-0.157
Mof_Zn	Zn	0.48606	0.31223	0.97357	1.169
Mof_I 	I 	0.55126	0.33864	0.97453	-0.372
Mof_N 	N 	0.47215	0.34922	0.98777	-0.281
Mof_C 	C 	0.48754	0.3797	0.9627	0.069
Mof_H 	H 	0.50383	0.38247	0.93867	-0.018
Mof_C 	C 	0.48095	0.40621	0.97012	-0.124
Mof_H 	H 	0.49183	0.42687	0.95127	0.09
Mof_C 	C 	0.45776	0.40239	0.00623	0.065
Mof_C 	C 	0.44133	0.37155	0.03111	-0.131
Mof_H 	H 	0.42513	0.36827	0.05547	0.082
Mof_C 	C 	0.44887	0.34509	0.02009	0.077
Mof_H 	H 	0.43673	0.32337	0.03647	-0.021
Mof_N 	N 	0.48029	0.60901	0.85735	-0.286
Mof_C 	C 	0.46765	0.61179	0.8996	0.067
Mof_H 	H 	0.46433	0.63127	0.90487	-0.021
Mof_C 	C 	0.45925	0.58789	0.93521	-0.126
Mof_H 	H 	0.45073	0.59097	0.96467	0.084
Mof_C 	C 	0.46342	0.559	0.92771	0.064
Mof_C 	C 	0.47823	0.55689	0.88499	-0.127
Mof_H 	H 	0.48283	0.53827	0.87947	0.089
Mof_C 	C 	0.48588	0.58174	0.85142	0.074
Mof_H 	H 	0.49563	0.57987	0.82237	-0.019
Mof_N 	N 	0.37491	0.50187	0.24556	-0.295
Mof_C 	C 	0.37613	0.47357	0.23497	0.098
Mof_H 	H 	0.36773	0.45517	0.25757	-0.027
Mof_C 	C 	0.3892	0.46904	0.19301	-0.152
Mof_H 	H 	0.38973	0.44797	0.18767	0.092
Mof_C 	C 	0.40106	0.49376	0.15983	0.08
Mof_C 	C 	0.40133	0.52447	0.17037	-0.138
Mof_H 	H 	0.41053	0.54337	0.14857	0.09
Mof_C 	C 	0.38753	0.52717	0.21417	0.081
Mof_H 	H 	0.38743	0.54817	0.22127	-0.025
Mof_C 	C 	0.45149	0.43223	0.01612	0.099
Mof_N 	N 	0.46046	0.45561	0.98024	-0.144
Mof_C 	C 	0.45435	0.48225	0.98816	0.179
Mof_N 	N 	0.4621	0.50663	0.95403	-0.145
Mof_C 	C 	0.45448	0.53147	0.9652	0.101
Mof_N 	N 	0.44096	0.53663	0.00501	-0.146
Mof_C 	C 	0.43399	0.5125	0.03915	0.173
Mof_N 	N 	0.42074	0.51509	0.08163	-0.144
Mof_C 	C 	0.41484	0.49026	0.11302	0.091
Mof_N 	N 	0.4196	0.46209	0.10926	-0.143
Mof_C 	C 	0.4328	0.45928	0.06646	0.176
Mof_N 	N 	0.43817	0.43239	0.05879	-0.147
Mof_C 	C 	0.44041	0.48479	0.03176	-0.157
Mof_Zn	Zn	0.49284	0.84727	0.3069	1.169
Mof_I 	I 	0.45405	0.78207	0.30786	-0.372
Mof_N 	N 	0.54373	0.86118	0.3211	-0.281
Mof_C 	C 	0.55882	0.84579	0.29603	0.069
Mof_H 	H 	0.5453	0.8295	0.272	-0.018
Mof_C 	C 	0.59192	0.85238	0.30345	-0.124
Mof_H 	H 	0.6017	0.8415	0.2846	0.09
Mof_C 	C 	0.61129	0.87557	0.33956	0.065
Mof_C 	C 	0.59688	0.892	0.36444	-0.131
Mof_H 	H 	0.6098	0.9082	0.3888	0.082
Mof_C 	C 	0.56288	0.88446	0.35342	0.077
Mof_H 	H 	0.5533	0.8966	0.3698	-0.021
Mof_N 	N 	0.79538	0.85304	0.19068	-0.286
Mof_C 	C 	0.8108	0.86568	0.23293	0.067
Mof_H 	H 	0.8336	0.869	0.2382	-0.021
Mof_C 	C 	0.7953	0.87408	0.26854	-0.126
Mof_H 	H 	0.8069	0.8826	0.298	0.084
Mof_C 	C 	0.76224	0.86991	0.26104	0.064
Mof_C 	C 	0.74532	0.8551	0.21832	-0.127
Mof_H 	H 	0.7221	0.8505	0.2128	0.089
Mof_C 	C 	0.76252	0.84745	0.18475	0.074
Mof_H 	H 	0.7509	0.8377	0.1557	-0.019
Mof_N 	N 	0.79362	0.95842	0.57889	-0.295
Mof_C 	C 	0.7641	0.9572	0.5683	0.098
Mof_H 	H 	0.7541	0.9656	0.5909	-0.027
Mof_C 	C 	0.7465	0.94413	0.52634	-0.152
Mof_H 	H 	0.7249	0.9436	0.521	0.092
Mof_C 	C 	0.75936	0.93227	0.49316	0.08
Mof_C 	C 	0.7898	0.932	0.5037	-0.138
Mof_H 	H 	0.7995	0.9228	0.4819	0.09
Mof_C 	C 	0.8063	0.9458	0.5475	0.081
Mof_H 	H 	0.8274	0.9459	0.5546	-0.025
Mof_C 	C 	0.6474	0.88184	0.34945	0.099
Mof_N 	N 	0.66181	0.87287	0.31357	-0.144
Mof_C 	C 	0.69456	0.87898	0.32149	0.179
Mof_N 	N 	0.71119	0.87123	0.28736	-0.145
Mof_C 	C 	0.74365	0.87885	0.29853	0.101
Mof_N 	N 	0.76233	0.89237	0.33834	-0.146
Mof_C 	C 	0.74517	0.89934	0.37248	0.173
Mof_N 	N 	0.76101	0.91259	0.41496	-0.144
Mof_C 	C 	0.74208	0.91849	0.44635	0.091
Mof_N 	N 	0.70915	0.91373	0.44259	-0.143
Mof_C 	C 	0.69314	0.90053	0.39979	0.176
Mof_N 	N 	0.66088	0.89516	0.39212	-0.147
Mof_C 	C 	0.71104	0.89292	0.36509	-0.157
Mof_Zn	Zn	0.1595	0.18061	0.64023	1.169
Mof_I 	I 	0.12071	0.11541	0.64119	-0.372
Mof_N 	N 	0.2104	0.19451	0.65443	-0.281
Mof_C 	C 	0.22549	0.17912	0.62936	0.069
Mof_H 	H 	0.21197	0.16283	0.60533	-0.018
Mof_C 	C 	0.25859	0.18571	0.63678	-0.124
Mof_H 	H 	0.26837	0.17483	0.61793	0.09
Mof_C 	C 	0.27796	0.2089	0.67289	0.065
Mof_C 	C 	0.26355	0.22533	0.69777	-0.131
Mof_H 	H 	0.27647	0.24153	0.72213	0.082
Mof_C 	C 	0.22955	0.21779	0.68675	0.077
Mof_H 	H 	0.21997	0.22993	0.70313	-0.021
Mof_N 	N 	0.46205	0.18637	0.52401	-0.286
Mof_C 	C 	0.47747	0.19901	0.56626	0.067
Mof_H 	H 	0.50027	0.20233	0.57153	-0.021
Mof_C 	C 	0.46197	0.20741	0.60187	-0.126
Mof_H 	H 	0.47357	0.21593	0.63133	0.084
Mof_C 	C 	0.42891	0.20324	0.59437	0.064
Mof_C 	C 	0.41199	0.18843	0.55165	-0.127
Mof_H 	H 	0.38877	0.18383	0.54613	0.089
Mof_C 	C 	0.42919	0.18078	0.51808	0.074
Mof_H 	H 	0.41757	0.17103	0.48903	-0.019
Mof_N 	N 	0.46029	0.29175	0.91222	-0.295
Mof_C 	C 	0.43077	0.29053	0.90163	0.098
Mof_H 	H 	0.42077	0.29893	0.92423	-0.027
Mof_C 	C 	0.41317	0.27746	0.85967	-0.152
Mof_H 	H 	0.39157	0.27693	0.85433	0.092
Mof_C 	C 	0.42603	0.2656	0.82649	0.08
Mof_C 	C 	0.45647	0.26533	0.83703	-0.138
Mof_H 	H 	0.46617	0.25613	0.81523	0.09
Mof_C 	C 	0.47297	0.27913	0.88083	0.081
Mof_H 	H 	0.49407	0.27923	0.88793	-0.025
Mof_C 	C 	0.31407	0.21517	0.68278	0.099
Mof_N 	N 	0.32848	0.2062	0.6469	-0.144
Mof_C 	C 	0.36123	0.21231	0.65482	0.179
Mof_N 	N 	0.37786	0.20456	0.62069	-0.145
Mof_C 	C 	0.41032	0.21218	0.63186	0.101
Mof_N 	N 	0.429	0.2257	0.67167	-0.146
Mof_C 	C 	0.41184	0.23267	0.70581	0.173
Mof_N 	N 	0.42768	0.24592	0.74829	-0.144
Mof_C 	C 	0.40875	0.25182	0.77968	0.091
Mof_N 	N 	0.37582	0.24706	0.77592	-0.143
Mof_C 	C 	0.35981	0.23386	0.73312	0.176
Mof_N 	N 	0.32755	0.22849	0.72545	-0.147
Mof_C 	C 	0.37771	0.22625	0.69842	-0.157
Mof_Zn	Zn	0.82617	0.51394	0.97357	1.169
Mof_I 	I 	0.78738	0.44874	0.97453	-0.372
Mof_N 	N 	0.87706	0.52785	0.98777	-0.281
Mof_C 	C 	0.89215	0.51246	0.9627	0.069
Mof_H 	H 	0.87863	0.49617	0.93867	-0.018
Mof_C 	C 	0.92525	0.51905	0.97012	-0.124
Mof_H 	H 	0.93503	0.50817	0.95127	0.09
Mof_C 	C 	0.94462	0.54224	0.00623	0.065
Mof_C 	C 	0.93021	0.55867	0.03111	-0.131
Mof_H 	H 	0.94313	0.57487	0.05547	0.083
Mof_C 	C 	0.89621	0.55113	0.02009	0.078
Mof_H 	H 	0.88663	0.56327	0.03647	-0.021
Mof_N 	N 	0.12871	0.51971	0.85735	-0.286
Mof_C 	C 	0.14413	0.53235	0.8996	0.067
Mof_H 	H 	0.16693	0.53567	0.90487	-0.021
Mof_C 	C 	0.12863	0.54075	0.93521	-0.126
Mof_H 	H 	0.14023	0.54927	0.96467	0.084
Mof_C 	C 	0.09557	0.53658	0.92771	0.064
Mof_C 	C 	0.07865	0.52177	0.88499	-0.127
Mof_H 	H 	0.05543	0.51717	0.87947	0.089
Mof_C 	C 	0.09585	0.51412	0.85142	0.074
Mof_H 	H 	0.08423	0.50437	0.82237	-0.019
Mof_N 	N 	0.12695	0.62509	0.24556	-0.295
Mof_C 	C 	0.09743	0.62387	0.23497	0.098
Mof_H 	H 	0.08743	0.63227	0.25757	-0.027
Mof_C 	C 	0.07983	0.6108	0.19301	-0.152
Mof_H 	H 	0.05823	0.61027	0.18767	0.092
Mof_C 	C 	0.09269	0.59894	0.15983	0.08
Mof_C 	C 	0.12313	0.59867	0.17037	-0.138
Mof_H 	H 	0.13283	0.58947	0.14857	0.09
Mof_C 	C 	0.13963	0.61247	0.21417	0.081
Mof_H 	H 	0.16073	0.61257	0.22127	-0.025
Mof_C 	C 	0.98073	0.54851	0.01612	0.099
Mof_N 	N 	0.99514	0.53954	0.98024	-0.144
Mof_C 	C 	0.02789	0.54565	0.98816	0.179
Mof_N 	N 	0.04452	0.5379	0.95403	-0.145
Mof_C 	C 	0.07698	0.54552	0.9652	0.101
Mof_N 	N 	0.09566	0.55904	0.00501	-0.146
Mof_C 	C 	0.0785	0.56601	0.03915	0.173
Mof_N 	N 	0.09434	0.57926	0.08163	-0.144
Mof_C 	C 	0.07541	0.58516	0.11302	0.091
Mof_N 	N 	0.04248	0.5804	0.10926	-0.143
Mof_C 	C 	0.02647	0.5672	0.06646	0.176
Mof_N 	N 	0.99421	0.56183	0.05879	-0.147
Mof_C 	C 	0.04437	0.55959	0.03176	-0.157
Mof_Zn	Zn	0.64556	0.49284	0.6931	1.169
Mof_I 	I 	0.67197	0.45405	0.69214	-0.372
Mof_N 	N 	0.68255	0.54373	0.6789	-0.281
Mof_C 	C 	0.71303	0.55882	0.70397	0.069
Mof_H 	H 	0.7158	0.5453	0.728	-0.018
Mof_C 	C 	0.73954	0.59192	0.69655	-0.124
Mof_H 	H 	0.7602	0.6017	0.7154	0.09
Mof_C 	C 	0.73572	0.61129	0.66044	0.065
Mof_C 	C 	0.70488	0.59688	0.63556	-0.131
Mof_H 	H 	0.7016	0.6098	0.6112	0.082
Mof_C 	C 	0.67842	0.56288	0.64658	0.077
Mof_H 	H 	0.6567	0.5533	0.6302	-0.021
Mof_N 	N 	0.94234	0.79538	0.80932	-0.286
Mof_C 	C 	0.94512	0.8108	0.76707	0.067
Mof_H 	H 	0.9646	0.8336	0.7618	-0.021
Mof_C 	C 	0.92122	0.7953	0.73146	-0.126
Mof_H 	H 	0.9243	0.8069	0.702	0.084
Mof_C 	C 	0.89233	0.76224	0.73896	0.064
Mof_C 	C 	0.89022	0.74532	0.78168	-0.127
Mof_H 	H 	0.8716	0.7221	0.7872	0.089
Mof_C 	C 	0.91507	0.76252	0.81525	0.074
Mof_H 	H 	0.9132	0.7509	0.8443	-0.019
Mof_N 	N 	0.8352	0.79362	0.42111	-0.295
Mof_C 	C 	0.8069	0.7641	0.4317	0.098
Mof_H 	H 	0.7885	0.7541	0.4091	-0.027
Mof_C 	C 	0.80237	0.7465	0.47366	-0.152
Mof_H 	H 	0.7813	0.7249	0.479	0.092
Mof_C 	C 	0.82709	0.75936	0.50684	0.08
Mof_C 	C 	0.8578	0.7898	0.4963	-0.138
Mof_H 	H 	0.8767	0.7995	0.5181	0.09
Mof_C 	C 	0.8605	0.8063	0.4525	0.081
Mof_H 	H 	0.8815	0.8274	0.4454	-0.025
Mof_C 	C 	0.76556	0.6474	0.65055	0.099
Mof_N 	N 	0.78894	0.66181	0.68643	-0.144
Mof_C 	C 	0.81558	0.69456	0.67851	0.179
Mof_N 	N 	0.83996	0.71119	0.71264	-0.145
Mof_C 	C 	0.8648	0.74365	0.70147	0.101
Mof_N 	N 	0.86996	0.76233	0.66166	-0.146
Mof_C 	C 	0.84583	0.74517	0.62752	0.173
Mof_N 	N 	0.84842	0.76101	0.58504	-0.144
Mof_C 	C 	0.82359	0.74208	0.55365	0.091
Mof_N 	N 	0.79542	0.70915	0.55741	-0.143
Mof_C 	C 	0.79261	0.69314	0.60021	0.176
Mof_N 	N 	0.76572	0.66088	0.60788	-0.147
Mof_C 	C 	0.81812	0.71104	0.63491	-0.157
Mof_Zn	Zn	0.31223	0.82617	0.02643	1.169
Mof_I 	I 	0.33864	0.78738	0.02547	-0.372
Mof_N 	N 	0.34922	0.87706	0.01223	-0.281
Mof_C 	C 	0.3797	0.89215	0.0373	0.069
Mof_H 	H 	0.38247	0.87863	0.06133	-0.018
Mof_C 	C 	0.40621	0.92525	0.02988	-0.124
Mof_H 	H 	0.42687	0.93503	0.04873	0.09
Mof_C 	C 	0.40239	0.94462	0.99377	0.065
Mof_C 	C 	0.37155	0.93021	0.96889	-0.131
Mof_H 	H 	0.36827	0.94313	0.94453	0.083
Mof_C 	C 	0.34509	0.89621	0.97991	0.078
Mof_H 	H 	0.32337	0.88663	0.96353	-0.021
Mof_N 	N 	0.60901	0.12871	0.14265	-0.286
Mof_C 	C 	0.61179	0.14413	0.1004	0.067
Mof_H 	H 	0.63127	0.16693	0.09513	-0.021
Mof_C 	C 	0.58789	0.12863	0.06479	-0.126
Mof_H 	H 	0.59097	0.14023	0.03533	0.084
Mof_C 	C 	0.559	0.09557	0.07229	0.064
Mof_C 	C 	0.55689	0.07865	0.11501	-0.127
Mof_H 	H 	0.53827	0.05543	0.12053	0.089
Mof_C 	C 	0.58174	0.09585	0.14858	0.074
Mof_H 	H 	0.57987	0.08423	0.17763	-0.019
Mof_N 	N 	0.50187	0.12695	0.75444	-0.295
Mof_C 	C 	0.47357	0.09743	0.76503	0.098
Mof_H 	H 	0.45517	0.08743	0.74243	-0.027
Mof_C 	C 	0.46904	0.07983	0.80699	-0.152
Mof_H 	H 	0.44797	0.05823	0.81233	0.092
Mof_C 	C 	0.49376	0.09269	0.84017	0.08
Mof_C 	C 	0.52447	0.12313	0.82963	-0.138
Mof_H 	H 	0.54337	0.13283	0.85143	0.09
Mof_C 	C 	0.52717	0.13963	0.78583	0.081
Mof_H 	H 	0.54817	0.16073	0.77873	-0.025
Mof_C 	C 	0.43223	0.98073	0.98388	0.099
Mof_N 	N 	0.45561	0.99514	0.01976	-0.144
Mof_C 	C 	0.48225	0.02789	0.01184	0.179
Mof_N 	N 	0.50663	0.04452	0.04597	-0.145
Mof_C 	C 	0.53147	0.07698	0.0348	0.101
Mof_N 	N 	0.53663	0.09566	0.99499	-0.146
Mof_C 	C 	0.5125	0.0785	0.96085	0.173
Mof_N 	N 	0.51509	0.09434	0.91837	-0.144
Mof_C 	C 	0.49026	0.07541	0.88698	0.091
Mof_N 	N 	0.46209	0.04248	0.89074	-0.143
Mof_C 	C 	0.45928	0.02647	0.93354	0.176
Mof_N 	N 	0.43239	0.99421	0.94121	-0.147
Mof_C 	C 	0.48479	0.04437	0.96824	-0.157
Mof_Zn	Zn	0.9789	0.1595	0.35977	1.169
Mof_I 	I 	0.00531	0.12071	0.35881	-0.372
Mof_N 	N 	0.01588	0.2104	0.34557	-0.281
Mof_C 	C 	0.04636	0.22549	0.37064	0.069
Mof_H 	H 	0.04913	0.21197	0.39467	-0.018
Mof_C 	C 	0.07287	0.25859	0.36322	-0.124
Mof_H 	H 	0.09353	0.26837	0.38207	0.09
Mof_C 	C 	0.06905	0.27796	0.32711	0.065
Mof_C 	C 	0.03821	0.26355	0.30223	-0.131
Mof_H 	H 	0.03493	0.27647	0.27787	0.082
Mof_C 	C 	0.01175	0.22955	0.31325	0.077
Mof_H 	H 	0.99003	0.21997	0.29687	-0.021
Mof_N 	N 	0.27567	0.46205	0.47599	-0.286
Mof_C 	C 	0.27845	0.47747	0.43374	0.067
Mof_H 	H 	0.29793	0.50027	0.42847	-0.021
Mof_C 	C 	0.25455	0.46197	0.39813	-0.126
Mof_H 	H 	0.25763	0.47357	0.36867	0.084
Mof_C 	C 	0.22566	0.42891	0.40563	0.064
Mof_C 	C 	0.22355	0.41199	0.44835	-0.127
Mof_H 	H 	0.20493	0.38877	0.45387	0.089
Mof_C 	C 	0.2484	0.42919	0.48192	0.074
Mof_H 	H 	0.24653	0.41757	0.51097	-0.019
Mof_N 	N 	0.16853	0.46029	0.08778	-0.295
Mof_C 	C 	0.14023	0.43077	0.09837	0.098
Mof_H 	H 	0.12183	0.42077	0.07577	-0.027
Mof_C 	C 	0.1357	0.41317	0.14033	-0.152
Mof_H 	H 	0.11463	0.39157	0.14567	0.092
Mof_C 	C 	0.16042	0.42603	0.17351	0.08
Mof_C 	C 	0.19113	0.45647	0.16297	-0.138
Mof_H 	H 	0.21003	0.46617	0.18477	0.09
Mof_C 	C 	0.19383	0.47297	0.11917	0.081
Mof_H 	H 	0.21483	0.49407	0.11207	-0.025
Mof_C 	C 	0.09889	0.31407	0.31722	0.099
Mof_N 	N 	0.12227	0.32848	0.3531	-0.144
Mof_C 	C 	0.14891	0.36123	0.34518	0.179
Mof_N 	N 	0.17329	0.37786	0.37931	-0.145
Mof_C 	C 	0.19813	0.41032	0.36814	0.101
Mof_N 	N 	0.20329	0.429	0.32833	-0.146
Mof_C 	C 	0.17916	0.41184	0.29419	0.173
Mof_N 	N 	0.18175	0.42768	0.25171	-0.144
Mof_C 	C 	0.15692	0.40875	0.22032	0.091
Mof_N 	N 	0.12875	0.37582	0.22408	-0.143
Mof_C 	C 	0.12594	0.35981	0.26688	0.176
Mof_N 	N 	0.09905	0.32755	0.27455	-0.147
Mof_C 	C 	0.15145	0.37771	0.30158	-0.157
Mof_Zn	Zn	0.84727	0.35444	0.6931	1.169
Mof_I 	I 	0.78207	0.32803	0.69214	-0.372
Mof_N 	N 	0.86118	0.31745	0.6789	-0.281
Mof_C 	C 	0.84579	0.28697	0.70397	0.069
Mof_H 	H 	0.8295	0.2842	0.728	-0.018
Mof_C 	C 	0.85238	0.26046	0.69655	-0.124
Mof_H 	H 	0.8415	0.2398	0.7154	0.09
Mof_C 	C 	0.87557	0.26428	0.66044	0.065
Mof_C 	C 	0.892	0.29512	0.63556	-0.131
Mof_H 	H 	0.9082	0.2984	0.6112	0.082
Mof_C 	C 	0.88446	0.32158	0.64658	0.077
Mof_H 	H 	0.8966	0.3433	0.6302	-0.021
Mof_N 	N 	0.85304	0.05766	0.80932	-0.286
Mof_C 	C 	0.86568	0.05488	0.76707	0.067
Mof_H 	H 	0.869	0.0354	0.7618	-0.021
Mof_C 	C 	0.87408	0.07878	0.73146	-0.126
Mof_H 	H 	0.8826	0.0757	0.702	0.084
Mof_C 	C 	0.86991	0.10767	0.73896	0.064
Mof_C 	C 	0.8551	0.10978	0.78168	-0.127
Mof_H 	H 	0.8505	0.1284	0.7872	0.089
Mof_C 	C 	0.84745	0.08493	0.81525	0.074
Mof_H 	H 	0.8377	0.0868	0.8443	-0.019
Mof_N 	N 	0.95842	0.1648	0.42111	-0.295
Mof_C 	C 	0.9572	0.1931	0.4317	0.098
Mof_H 	H 	0.9656	0.2115	0.4091	-0.027
Mof_C 	C 	0.94413	0.19763	0.47366	-0.152
Mof_H 	H 	0.9436	0.2187	0.479	0.092
Mof_C 	C 	0.93227	0.17291	0.50684	0.08
Mof_C 	C 	0.932	0.1422	0.4963	-0.138
Mof_H 	H 	0.9228	0.1233	0.5181	0.09
Mof_C 	C 	0.9458	0.1395	0.4525	0.081
Mof_H 	H 	0.9459	0.1185	0.4454	-0.025
Mof_C 	C 	0.88184	0.23444	0.65055	0.099
Mof_N 	N 	0.87287	0.21106	0.68643	-0.144
Mof_C 	C 	0.87898	0.18442	0.67851	0.179
Mof_N 	N 	0.87123	0.16004	0.71264	-0.145
Mof_C 	C 	0.87885	0.1352	0.70147	0.101
Mof_N 	N 	0.89237	0.13004	0.66166	-0.146
Mof_C 	C 	0.89934	0.15417	0.62752	0.173
Mof_N 	N 	0.91259	0.15158	0.58504	-0.144
Mof_C 	C 	0.91849	0.17641	0.55365	0.091
Mof_N 	N 	0.91373	0.20458	0.55741	-0.143
Mof_C 	C 	0.90053	0.20739	0.60021	0.176
Mof_N 	N 	0.89516	0.23428	0.60788	-0.147
Mof_C 	C 	0.89292	0.18188	0.63491	-0.157
Mof_Zn	Zn	0.51394	0.68777	0.02643	1.169
Mof_I 	I 	0.44874	0.66136	0.02547	-0.372
Mof_N 	N 	0.52785	0.65078	0.01223	-0.281
Mof_C 	C 	0.51246	0.6203	0.0373	0.069
Mof_H 	H 	0.49617	0.61753	0.06133	-0.018
Mof_C 	C 	0.51905	0.59379	0.02988	-0.124
Mof_H 	H 	0.50817	0.57313	0.04873	0.09
Mof_C 	C 	0.54224	0.59761	0.99377	0.065
Mof_C 	C 	0.55867	0.62845	0.96889	-0.131
Mof_H 	H 	0.57487	0.63173	0.94453	0.082
Mof_C 	C 	0.55113	0.65491	0.97991	0.077
Mof_H 	H 	0.56327	0.67663	0.96353	-0.021
Mof_N 	N 	0.51971	0.39099	0.14265	-0.286
Mof_C 	C 	0.53235	0.38821	0.1004	0.067
Mof_H 	H 	0.53567	0.36873	0.09513	-0.021
Mof_C 	C 	0.54075	0.41211	0.06479	-0.126
Mof_H 	H 	0.54927	0.40903	0.03533	0.084
Mof_C 	C 	0.53658	0.441	0.07229	0.064
Mof_C 	C 	0.52177	0.44311	0.11501	-0.127
Mof_H 	H 	0.51717	0.46173	0.12053	0.089
Mof_C 	C 	0.51412	0.41826	0.14858	0.074
Mof_H 	H 	0.50437	0.42013	0.17763	-0.019
Mof_N 	N 	0.62509	0.49813	0.75444	-0.295
Mof_C 	C 	0.62387	0.52643	0.76503	0.098
Mof_H 	H 	0.63227	0.54483	0.74243	-0.027
Mof_C 	C 	0.6108	0.53096	0.80699	-0.152
Mof_H 	H 	0.61027	0.55203	0.81233	0.092
Mof_C 	C 	0.59894	0.50624	0.84017	0.08
Mof_C 	C 	0.59867	0.47553	0.82963	-0.138
Mof_H 	H 	0.58947	0.45663	0.85143	0.09
Mof_C 	C 	0.61247	0.47283	0.78583	0.081
Mof_H 	H 	0.61257	0.45183	0.77873	-0.025
Mof_C 	C 	0.54851	0.56777	0.98388	0.099
Mof_N 	N 	0.53954	0.54439	0.01976	-0.144
Mof_C 	C 	0.54565	0.51775	0.01184	0.179
Mof_N 	N 	0.5379	0.49337	0.04597	-0.145
Mof_C 	C 	0.54552	0.46853	0.0348	0.101
Mof_N 	N 	0.55904	0.46337	0.99499	-0.146
Mof_C 	C 	0.56601	0.4875	0.96085	0.173
Mof_N 	N 	0.57926	0.48491	0.91837	-0.144
Mof_C 	C 	0.58516	0.50974	0.88698	0.091
Mof_N 	N 	0.5804	0.53791	0.89074	-0.143
Mof_C 	C 	0.5672	0.54072	0.93354	0.176
Mof_N 	N 	0.56183	0.56761	0.94121	-0.147
Mof_C 	C 	0.55959	0.51521	0.96824	-0.157
Mof_Zn	Zn	0.18061	0.0211	0.35977	1.169
Mof_I 	I 	0.11541	0.99469	0.35881	-0.372
Mof_N 	N 	0.19451	0.98412	0.34557	-0.281
Mof_C 	C 	0.17912	0.95364	0.37064	0.069
Mof_H 	H 	0.16283	0.95087	0.39467	-0.018
Mof_C 	C 	0.18571	0.92713	0.36322	-0.124
Mof_H 	H 	0.17483	0.90647	0.38207	0.09
Mof_C 	C 	0.2089	0.93095	0.32711	0.065
Mof_C 	C 	0.22533	0.96179	0.30223	-0.131
Mof_H 	H 	0.24153	0.96507	0.27787	0.082
Mof_C 	C 	0.21779	0.98825	0.31325	0.077
Mof_H 	H 	0.22993	0.00997	0.29687	-0.021
Mof_N 	N 	0.18637	0.72433	0.47599	-0.286
Mof_C 	C 	0.19901	0.72155	0.43374	0.067
Mof_H 	H 	0.20233	0.70207	0.42847	-0.021
Mof_C 	C 	0.20741	0.74545	0.39813	-0.126
Mof_H 	H 	0.21593	0.74237	0.36867	0.084
Mof_C 	C 	0.20324	0.77434	0.40563	0.064
Mof_C 	C 	0.18843	0.77645	0.44835	-0.127
Mof_H 	H 	0.18383	0.79507	0.45387	0.089
Mof_C 	C 	0.18078	0.7516	0.48192	0.074
Mof_H 	H 	0.17103	0.75347	0.51097	-0.019
Mof_N 	N 	0.29175	0.83147	0.08778	-0.295
Mof_C 	C 	0.29053	0.85977	0.09837	0.098
Mof_H 	H 	0.29893	0.87817	0.07577	-0.027
Mof_C 	C 	0.27746	0.8643	0.14033	-0.152
Mof_H 	H 	0.27693	0.88537	0.14567	0.092
Mof_C 	C 	0.2656	0.83958	0.17351	0.08
Mof_C 	C 	0.26533	0.80887	0.16297	-0.138
Mof_H 	H 	0.25613	0.78997	0.18477	0.09
Mof_C 	C 	0.27913	0.80617	0.11917	0.081
Mof_H 	H 	0.27923	0.78517	0.11207	-0.025
Mof_C 	C 	0.21517	0.90111	0.31722	0.099
Mof_N 	N 	0.2062	0.87773	0.3531	-0.144
Mof_C 	C 	0.21231	0.85109	0.34518	0.179
Mof_N 	N 	0.20456	0.82671	0.37931	-0.145
Mof_C 	C 	0.21218	0.80187	0.36814	0.101
Mof_N 	N 	0.2257	0.79671	0.32833	-0.146
Mof_C 	C 	0.23267	0.82084	0.29419	0.173
Mof_N 	N 	0.24592	0.81825	0.25171	-0.144
Mof_C 	C 	0.25182	0.84308	0.22032	0.091
Mof_N 	N 	0.24706	0.87125	0.22408	-0.143
Mof_C 	C 	0.23386	0.87406	0.26688	0.176
Mof_N 	N 	0.22849	0.90095	0.27455	-0.147
Mof_C 	C 	0.22625	0.84855	0.30158	-0.157
Mof_Zn	Zn	0.50716	0.15273	0.6931	1.169
Mof_I 	I 	0.54595	0.21793	0.69214	-0.372
Mof_N 	N 	0.45627	0.13882	0.6789	-0.281
Mof_C 	C 	0.44118	0.15421	0.70397	0.069
Mof_H 	H 	0.4547	0.1705	0.728	-0.018
Mof_C 	C 	0.40808	0.14762	0.69655	-0.124
Mof_H 	H 	0.3983	0.1585	0.7154	0.09
Mof_C 	C 	0.38871	0.12443	0.66044	0.065
Mof_C 	C 	0.40312	0.108	0.63556	-0.131
Mof_H 	H 	0.3902	0.0918	0.6112	0.082
Mof_C 	C 	0.43712	0.11554	0.64658	0.077
Mof_H 	H 	0.4467	0.1034	0.6302	-0.021
Mof_N 	N 	0.20462	0.14696	0.80932	-0.286
Mof_C 	C 	0.1892	0.13432	0.76707	0.067
Mof_H 	H 	0.1664	0.131	0.7618	-0.021
Mof_C 	C 	0.2047	0.12592	0.73146	-0.126
Mof_H 	H 	0.1931	0.1174	0.702	0.084
Mof_C 	C 	0.23776	0.13009	0.73896	0.064
Mof_C 	C 	0.25468	0.1449	0.78168	-0.127
Mof_H 	H 	0.2779	0.1495	0.7872	0.089
Mof_C 	C 	0.23748	0.15255	0.81525	0.074
Mof_H 	H 	0.2491	0.1623	0.8443	-0.019
Mof_N 	N 	0.20638	0.04158	0.42111	-0.295
Mof_C 	C 	0.2359	0.0428	0.4317	0.098
Mof_H 	H 	0.2459	0.0344	0.4091	-0.027
Mof_C 	C 	0.2535	0.05587	0.47366	-0.152
Mof_H 	H 	0.2751	0.0564	0.479	0.092
Mof_C 	C 	0.24064	0.06773	0.50684	0.08
Mof_C 	C 	0.2102	0.068	0.4963	-0.138
Mof_H 	H 	0.2005	0.0772	0.5181	0.09
Mof_C 	C 	0.1937	0.0542	0.4525	0.081
Mof_H 	H 	0.1726	0.0541	0.4454	-0.025
Mof_C 	C 	0.3526	0.11816	0.65055	0.099
Mof_N 	N 	0.33819	0.12713	0.68643	-0.144
Mof_C 	C 	0.30544	0.12102	0.67851	0.179
Mof_N 	N 	0.28881	0.12877	0.71264	-0.145
Mof_C 	C 	0.25635	0.12115	0.70147	0.101
Mof_N 	N 	0.23767	0.10763	0.66166	-0.146
Mof_C 	C 	0.25483	0.10066	0.62752	0.173
Mof_N 	N 	0.23899	0.08741	0.58504	-0.144
Mof_C 	C 	0.25792	0.08151	0.55365	0.091
Mof_N 	N 	0.29085	0.08627	0.55741	-0.143
Mof_C 	C 	0.30686	0.09947	0.60021	0.176
Mof_N 	N 	0.33912	0.10484	0.60788	-0.147
Mof_C 	C 	0.28896	0.10708	0.63491	-0.157
Mof_Zn	Zn	0.17383	0.48606	0.02643	1.169
Mof_I 	I 	0.21262	0.55126	0.02547	-0.372
Mof_N 	N 	0.12294	0.47215	0.01223	-0.281
Mof_C 	C 	0.10785	0.48754	0.0373	0.069
Mof_H 	H 	0.12137	0.50383	0.06133	-0.018
Mof_C 	C 	0.07475	0.48095	0.02988	-0.124
Mof_H 	H 	0.06497	0.49183	0.04873	0.09
Mof_C 	C 	0.05538	0.45776	0.99377	0.065
Mof_C 	C 	0.06979	0.44133	0.96889	-0.131
Mof_H 	H 	0.05687	0.42513	0.94453	0.083
Mof_C 	C 	0.10379	0.44887	0.97991	0.078
Mof_H 	H 	0.11337	0.43673	0.96353	-0.021
Mof_N 	N 	0.87129	0.48029	0.14265	-0.286
Mof_C 	C 	0.85587	0.46765	0.1004	0.067
Mof_H 	H 	0.83307	0.46433	0.09513	-0.021
Mof_C 	C 	0.87137	0.45925	0.06479	-0.126
Mof_H 	H 	0.85977	0.45073	0.03533	0.084
Mof_C 	C 	0.90443	0.46342	0.07229	0.064
Mof_C 	C 	0.92135	0.47823	0.11501	-0.127
Mof_H 	H 	0.94457	0.48283	0.12053	0.089
Mof_C 	C 	0.90415	0.48588	0.14858	0.074
Mof_H 	H 	0.91577	0.49563	0.17763	-0.019
Mof_N 	N 	0.87305	0.37491	0.75444	-0.295
Mof_C 	C 	0.90257	0.37613	0.76503	0.098
Mof_H 	H 	0.91257	0.36773	0.74243	-0.027
Mof_C 	C 	0.92017	0.3892	0.80699	-0.152
Mof_H 	H 	0.94177	0.38973	0.81233	0.092
Mof_C 	C 	0.90731	0.40106	0.84017	0.08
Mof_C 	C 	0.87687	0.40133	0.82963	-0.138
Mof_H 	H 	0.86717	0.41053	0.85143	0.09
Mof_C 	C 	0.86037	0.38753	0.78583	0.081
Mof_H 	H 	0.83927	0.38743	0.77873	-0.025
Mof_C 	C 	0.01927	0.45149	0.98388	0.099
Mof_N 	N 	0.00486	0.46046	0.01976	-0.144
Mof_C 	C 	0.97211	0.45435	0.01184	0.179
Mof_N 	N 	0.95548	0.4621	0.04597	-0.145
Mof_C 	C 	0.92302	0.45448	0.0348	0.101
Mof_N 	N 	0.90434	0.44096	0.99499	-0.146
Mof_C 	C 	0.9215	0.43399	0.96085	0.173
Mof_N 	N 	0.90566	0.42074	0.91837	-0.144
Mof_C 	C 	0.92459	0.41484	0.88698	0.091
Mof_N 	N 	0.95752	0.4196	0.89074	-0.143
Mof_C 	C 	0.97353	0.4328	0.93354	0.176
Mof_N 	N 	0.00579	0.43817	0.94121	-0.147
Mof_C 	C 	0.95563	0.44041	0.96824	-0.157
Mof_Zn	Zn	0.8405	0.81939	0.35977	1.169
Mof_I 	I 	0.87929	0.88459	0.35881	-0.372
Mof_N 	N 	0.7896	0.80549	0.34557	-0.281
Mof_C 	C 	0.77451	0.82088	0.37064	0.069
Mof_H 	H 	0.78803	0.83717	0.39467	-0.018
Mof_C 	C 	0.74141	0.81429	0.36322	-0.124
Mof_H 	H 	0.73163	0.82517	0.38207	0.09
Mof_C 	C 	0.72204	0.7911	0.32711	0.065
Mof_C 	C 	0.73645	0.77467	0.30223	-0.131
Mof_H 	H 	0.72353	0.75847	0.27787	0.082
Mof_C 	C 	0.77045	0.78221	0.31325	0.077
Mof_H 	H 	0.78003	0.77007	0.29687	-0.021
Mof_N 	N 	0.53795	0.81363	0.47599	-0.286
Mof_C 	C 	0.52253	0.80099	0.43374	0.067
Mof_H 	H 	0.49973	0.79767	0.42847	-0.021
Mof_C 	C 	0.53803	0.79259	0.39813	-0.126
Mof_H 	H 	0.52643	0.78407	0.36867	0.084
Mof_C 	C 	0.57109	0.79676	0.40563	0.064
Mof_C 	C 	0.58801	0.81157	0.44835	-0.127
Mof_H 	H 	0.61123	0.81617	0.45387	0.089
Mof_C 	C 	0.57081	0.81922	0.48192	0.074
Mof_H 	H 	0.58243	0.82897	0.51097	-0.019
Mof_N 	N 	0.53971	0.70825	0.08778	-0.295
Mof_C 	C 	0.56923	0.70947	0.09837	0.098
Mof_H 	H 	0.57923	0.70107	0.07577	-0.027
Mof_C 	C 	0.58683	0.72254	0.14033	-0.152
Mof_H 	H 	0.60843	0.72307	0.14567	0.092
Mof_C 	C 	0.57397	0.7344	0.17351	0.08
Mof_C 	C 	0.54353	0.73467	0.16297	-0.138
Mof_H 	H 	0.53383	0.74387	0.18477	0.09
Mof_C 	C 	0.52703	0.72087	0.11917	0.081
Mof_H 	H 	0.50593	0.72077	0.11207	-0.025
Mof_C 	C 	0.68593	0.78483	0.31722	0.099
Mof_N 	N 	0.67152	0.7938	0.3531	-0.144
Mof_C 	C 	0.63877	0.78769	0.34518	0.179
Mof_N 	N 	0.62214	0.79544	0.37931	-0.145
Mof_C 	C 	0.58968	0.78782	0.36814	0.101
Mof_N 	N 	0.571	0.7743	0.32833	-0.146
Mof_C 	C 	0.58816	0.76733	0.29419	0.173
Mof_N 	N 	0.57232	0.75408	0.25171	-0.144
Mof_C 	C 	0.59125	0.74818	0.22032	0.091
Mof_N 	N 	0.62418	0.75294	0.22408	-0.143
Mof_C 	C 	0.64019	0.76614	0.26688	0.176
Mof_N 	N 	0.67245	0.77151	0.27455	-0.147
Mof_C 	C 	0.62229	0.77375	0.30158	-0.157
Mof_Zn	Zn	0.50716	0.35444	0.1931	1.169
Mof_I 	I 	0.54595	0.32803	0.19214	-0.372
Mof_N 	N 	0.45627	0.31745	0.1789	-0.281
Mof_C 	C 	0.44118	0.28697	0.20397	0.069
Mof_H 	H 	0.4547	0.2842	0.228	-0.018
Mof_C 	C 	0.40808	0.26046	0.19655	-0.124
Mof_H 	H 	0.3983	0.2398	0.2154	0.09
Mof_C 	C 	0.38871	0.26428	0.16044	0.065
Mof_C 	C 	0.40312	0.29512	0.13556	-0.131
Mof_H 	H 	0.3902	0.2984	0.1112	0.082
Mof_C 	C 	0.43712	0.32158	0.14658	0.077
Mof_H 	H 	0.4467	0.3433	0.1302	-0.021
Mof_N 	N 	0.20462	0.05766	0.30932	-0.286
Mof_C 	C 	0.1892	0.05488	0.26707	0.067
Mof_H 	H 	0.1664	0.0354	0.2618	-0.021
Mof_C 	C 	0.2047	0.07878	0.23146	-0.126
Mof_H 	H 	0.1931	0.0757	0.202	0.084
Mof_C 	C 	0.23776	0.10767	0.23896	0.064
Mof_C 	C 	0.25468	0.10978	0.28168	-0.127
Mof_H 	H 	0.2779	0.1284	0.2872	0.089
Mof_C 	C 	0.23748	0.08493	0.31525	0.074
Mof_H 	H 	0.2491	0.0868	0.3443	-0.019
Mof_N 	N 	0.20638	0.1648	0.92111	-0.295
Mof_C 	C 	0.2359	0.1931	0.9317	0.098
Mof_H 	H 	0.2459	0.2115	0.9091	-0.027
Mof_C 	C 	0.2535	0.19763	0.97366	-0.152
Mof_H 	H 	0.2751	0.2187	0.979	0.092
Mof_C 	C 	0.24064	0.17291	0.00684	0.08
Mof_C 	C 	0.2102	0.1422	0.9963	-0.138
Mof_H 	H 	0.2005	0.1233	0.0181	0.09
Mof_C 	C 	0.1937	0.1395	0.9525	0.081
Mof_H 	H 	0.1726	0.1185	0.9454	-0.025
Mof_C 	C 	0.3526	0.23444	0.15055	0.099
Mof_N 	N 	0.33819	0.21106	0.18643	-0.144
Mof_C 	C 	0.30544	0.18442	0.17851	0.179
Mof_N 	N 	0.28881	0.16004	0.21264	-0.145
Mof_C 	C 	0.25635	0.1352	0.20147	0.101
Mof_N 	N 	0.23767	0.13004	0.16166	-0.146
Mof_C 	C 	0.25483	0.15417	0.12752	0.173
Mof_N 	N 	0.23899	0.15158	0.08504	-0.144
Mof_C 	C 	0.25792	0.17641	0.05365	0.091
Mof_N 	N 	0.29085	0.20458	0.05741	-0.143
Mof_C 	C 	0.30686	0.20739	0.10021	0.176
Mof_N 	N 	0.33912	0.23428	0.10788	-0.147
Mof_C 	C 	0.28896	0.18188	0.13491	-0.157
Mof_Zn	Zn	0.17383	0.68777	0.52643	1.169
Mof_I 	I 	0.21262	0.66136	0.52547	-0.372
Mof_N 	N 	0.12294	0.65078	0.51223	-0.281
Mof_C 	C 	0.10785	0.6203	0.5373	0.069
Mof_H 	H 	0.12137	0.61753	0.56133	-0.018
Mof_C 	C 	0.07475	0.59379	0.52988	-0.124
Mof_H 	H 	0.06497	0.57313	0.54873	0.09
Mof_C 	C 	0.05538	0.59761	0.49377	0.065
Mof_C 	C 	0.06979	0.62845	0.46889	-0.131
Mof_H 	H 	0.05687	0.63173	0.44453	0.082
Mof_C 	C 	0.10379	0.65491	0.47991	0.077
Mof_H 	H 	0.11337	0.67663	0.46353	-0.021
Mof_N 	N 	0.87129	0.39099	0.64265	-0.286
Mof_C 	C 	0.85587	0.38821	0.6004	0.067
Mof_H 	H 	0.83307	0.36873	0.59513	-0.021
Mof_C 	C 	0.87137	0.41211	0.56479	-0.126
Mof_H 	H 	0.85977	0.40903	0.53533	0.084
Mof_C 	C 	0.90443	0.441	0.57229	0.064
Mof_C 	C 	0.92135	0.44311	0.61501	-0.127
Mof_H 	H 	0.94457	0.46173	0.62053	0.089
Mof_C 	C 	0.90415	0.41826	0.64858	0.074
Mof_H 	H 	0.91577	0.42013	0.67763	-0.019
Mof_N 	N 	0.87305	0.49813	0.25444	-0.295
Mof_C 	C 	0.90257	0.52643	0.26503	0.098
Mof_H 	H 	0.91257	0.54483	0.24243	-0.027
Mof_C 	C 	0.92017	0.53096	0.30699	-0.152
Mof_H 	H 	0.94177	0.55203	0.31233	0.092
Mof_C 	C 	0.90731	0.50624	0.34017	0.08
Mof_C 	C 	0.87687	0.47553	0.32963	-0.138
Mof_H 	H 	0.86717	0.45663	0.35143	0.09
Mof_C 	C 	0.86037	0.47283	0.28583	0.081
Mof_H 	H 	0.83927	0.45183	0.27873	-0.025
Mof_C 	C 	0.01927	0.56777	0.48388	0.099
Mof_N 	N 	0.00486	0.54439	0.51976	-0.144
Mof_C 	C 	0.97211	0.51775	0.51184	0.179
Mof_N 	N 	0.95548	0.49337	0.54597	-0.145
Mof_C 	C 	0.92302	0.46853	0.5348	0.101
Mof_N 	N 	0.90434	0.46337	0.49499	-0.146
Mof_C 	C 	0.9215	0.4875	0.46085	0.173
Mof_N 	N 	0.90566	0.48491	0.41837	-0.144
Mof_C 	C 	0.92459	0.50974	0.38698	0.091
Mof_N 	N 	0.95752	0.53791	0.39074	-0.143
Mof_C 	C 	0.97353	0.54072	0.43354	0.176
Mof_N 	N 	0.00579	0.56761	0.44121	-0.147
Mof_C 	C 	0.95563	0.51521	0.46824	-0.157
Mof_Zn	Zn	0.8405	0.0211	0.85977	1.169
Mof_I 	I 	0.87929	0.99469	0.85881	-0.372
Mof_N 	N 	0.7896	0.98412	0.84557	-0.281
Mof_C 	C 	0.77451	0.95364	0.87064	0.069
Mof_H 	H 	0.78803	0.95087	0.89467	-0.018
Mof_C 	C 	0.74141	0.92713	0.86322	-0.124
Mof_H 	H 	0.73163	0.90647	0.88207	0.09
Mof_C 	C 	0.72204	0.93095	0.82711	0.065
Mof_C 	C 	0.73645	0.96179	0.80223	-0.131
Mof_H 	H 	0.72353	0.96507	0.77787	0.082
Mof_C 	C 	0.77045	0.98825	0.81325	0.078
Mof_H 	H 	0.78003	0.00997	0.79687	-0.021
Mof_N 	N 	0.53795	0.72433	0.97599	-0.286
Mof_C 	C 	0.52253	0.72155	0.93374	0.067
Mof_H 	H 	0.49973	0.70207	0.92847	-0.021
Mof_C 	C 	0.53803	0.74545	0.89813	-0.126
Mof_H 	H 	0.52643	0.74237	0.86867	0.084
Mof_C 	C 	0.57109	0.77434	0.90563	0.064
Mof_C 	C 	0.58801	0.77645	0.94835	-0.127
Mof_H 	H 	0.61123	0.79507	0.95387	0.089
Mof_C 	C 	0.57081	0.7516	0.98192	0.074
Mof_H 	H 	0.58243	0.75347	0.01097	-0.019
Mof_N 	N 	0.53971	0.83147	0.58778	-0.295
Mof_C 	C 	0.56923	0.85977	0.59837	0.098
Mof_H 	H 	0.57923	0.87817	0.57577	-0.027
Mof_C 	C 	0.58683	0.8643	0.64033	-0.152
Mof_H 	H 	0.60843	0.88537	0.64567	0.092
Mof_C 	C 	0.57397	0.83958	0.67351	0.08
Mof_C 	C 	0.54353	0.80887	0.66297	-0.138
Mof_H 	H 	0.53383	0.78997	0.68477	0.09
Mof_C 	C 	0.52703	0.80617	0.61917	0.081
Mof_H 	H 	0.50593	0.78517	0.61207	-0.025
Mof_C 	C 	0.68593	0.90111	0.81722	0.099
Mof_N 	N 	0.67152	0.87773	0.8531	-0.144
Mof_C 	C 	0.63877	0.85109	0.84518	0.179
Mof_N 	N 	0.62214	0.82671	0.87931	-0.145
Mof_C 	C 	0.58968	0.80187	0.86814	0.101
Mof_N 	N 	0.571	0.79671	0.82833	-0.146
Mof_C 	C 	0.58816	0.82084	0.79419	0.173
Mof_N 	N 	0.57232	0.81825	0.75171	-0.144
Mof_C 	C 	0.59125	0.84308	0.72032	0.091
Mof_N 	N 	0.62418	0.87125	0.72408	-0.143
Mof_C 	C 	0.64019	0.87406	0.76688	0.176
Mof_N 	N 	0.67245	0.90095	0.77455	-0.147
Mof_C 	C 	0.62229	0.84855	0.80158	-0.157
Mof_Zn	Zn	0.64556	0.15273	0.1931	1.169
Mof_I 	I 	0.67197	0.21793	0.19214	-0.372
Mof_N 	N 	0.68255	0.13882	0.1789	-0.281
Mof_C 	C 	0.71303	0.15421	0.20397	0.069
Mof_H 	H 	0.7158	0.1705	0.228	-0.018
Mof_C 	C 	0.73954	0.14762	0.19655	-0.124
Mof_H 	H 	0.7602	0.1585	0.2154	0.09
Mof_C 	C 	0.73572	0.12443	0.16044	0.065
Mof_C 	C 	0.70488	0.108	0.13556	-0.131
Mof_H 	H 	0.7016	0.0918	0.1112	0.082
Mof_C 	C 	0.67842	0.11554	0.14658	0.077
Mof_H 	H 	0.6567	0.1034	0.1302	-0.021
Mof_N 	N 	0.94234	0.14696	0.30932	-0.286
Mof_C 	C 	0.94512	0.13432	0.26707	0.067
Mof_H 	H 	0.9646	0.131	0.2618	-0.021
Mof_C 	C 	0.92122	0.12592	0.23146	-0.126
Mof_H 	H 	0.9243	0.1174	0.202	0.084
Mof_C 	C 	0.89233	0.13009	0.23896	0.064
Mof_C 	C 	0.89022	0.1449	0.28168	-0.127
Mof_H 	H 	0.8716	0.1495	0.2872	0.089
Mof_C 	C 	0.91507	0.15255	0.31525	0.074
Mof_H 	H 	0.9132	0.1623	0.3443	-0.019
Mof_N 	N 	0.8352	0.04158	0.92111	-0.295
Mof_C 	C 	0.8069	0.0428	0.9317	0.098
Mof_H 	H 	0.7885	0.0344	0.9091	-0.027
Mof_C 	C 	0.80237	0.05587	0.97366	-0.152
Mof_H 	H 	0.7813	0.0564	0.979	0.092
Mof_C 	C 	0.82709	0.06773	0.00684	0.08
Mof_C 	C 	0.8578	0.068	0.9963	-0.138
Mof_H 	H 	0.8767	0.0772	0.0181	0.09
Mof_C 	C 	0.8605	0.0542	0.9525	0.081
Mof_H 	H 	0.8815	0.0541	0.9454	-0.025
Mof_C 	C 	0.76556	0.11816	0.15055	0.099
Mof_N 	N 	0.78894	0.12713	0.18643	-0.144
Mof_C 	C 	0.81558	0.12102	0.17851	0.179
Mof_N 	N 	0.83996	0.12877	0.21264	-0.145
Mof_C 	C 	0.8648	0.12115	0.20147	0.101
Mof_N 	N 	0.86996	0.10763	0.16166	-0.146
Mof_C 	C 	0.84583	0.10066	0.12752	0.173
Mof_N 	N 	0.84842	0.08741	0.08504	-0.144
Mof_C 	C 	0.82359	0.08151	0.05365	0.091
Mof_N 	N 	0.79542	0.08627	0.05741	-0.143
Mof_C 	C 	0.79261	0.09947	0.10021	0.176
Mof_N 	N 	0.76572	0.10484	0.10788	-0.147
Mof_C 	C 	0.81812	0.10708	0.13491	-0.157
Mof_Zn	Zn	0.31223	0.48606	0.52643	1.169
Mof_I 	I 	0.33864	0.55126	0.52547	-0.372
Mof_N 	N 	0.34922	0.47215	0.51223	-0.281
Mof_C 	C 	0.3797	0.48754	0.5373	0.069
Mof_H 	H 	0.38247	0.50383	0.56133	-0.018
Mof_C 	C 	0.40621	0.48095	0.52988	-0.124
Mof_H 	H 	0.42687	0.49183	0.54873	0.09
Mof_C 	C 	0.40239	0.45776	0.49377	0.065
Mof_C 	C 	0.37155	0.44133	0.46889	-0.131
Mof_H 	H 	0.36827	0.42513	0.44453	0.082
Mof_C 	C 	0.34509	0.44887	0.47991	0.077
Mof_H 	H 	0.32337	0.43673	0.46353	-0.021
Mof_N 	N 	0.60901	0.48029	0.64265	-0.286
Mof_C 	C 	0.61179	0.46765	0.6004	0.067
Mof_H 	H 	0.63127	0.46433	0.59513	-0.021
Mof_C 	C 	0.58789	0.45925	0.56479	-0.126
Mof_H 	H 	0.59097	0.45073	0.53533	0.084
Mof_C 	C 	0.559	0.46342	0.57229	0.064
Mof_C 	C 	0.55689	0.47823	0.61501	-0.127
Mof_H 	H 	0.53827	0.48283	0.62053	0.089
Mof_C 	C 	0.58174	0.48588	0.64858	0.074
Mof_H 	H 	0.57987	0.49563	0.67763	-0.019
Mof_N 	N 	0.50187	0.37491	0.25444	-0.295
Mof_C 	C 	0.47357	0.37613	0.26503	0.098
Mof_H 	H 	0.45517	0.36773	0.24243	-0.027
Mof_C 	C 	0.46904	0.3892	0.30699	-0.152
Mof_H 	H 	0.44797	0.38973	0.31233	0.092
Mof_C 	C 	0.49376	0.40106	0.34017	0.08
Mof_C 	C 	0.52447	0.40133	0.32963	-0.138
Mof_H 	H 	0.54337	0.41053	0.35143	0.09
Mof_C 	C 	0.52717	0.38753	0.28583	0.081
Mof_H 	H 	0.54817	0.38743	0.27873	-0.025
Mof_C 	C 	0.43223	0.45149	0.48388	0.099
Mof_N 	N 	0.45561	0.46046	0.51976	-0.144
Mof_C 	C 	0.48225	0.45435	0.51184	0.179
Mof_N 	N 	0.50663	0.4621	0.54597	-0.145
Mof_C 	C 	0.53147	0.45448	0.5348	0.101
Mof_N 	N 	0.53663	0.44096	0.49499	-0.146
Mof_C 	C 	0.5125	0.43399	0.46085	0.173
Mof_N 	N 	0.51509	0.42074	0.41837	-0.144
Mof_C 	C 	0.49026	0.41484	0.38698	0.091
Mof_N 	N 	0.46209	0.4196	0.39074	-0.143
Mof_C 	C 	0.45928	0.4328	0.43354	0.176
Mof_N 	N 	0.43239	0.43817	0.44121	-0.147
Mof_C 	C 	0.48479	0.44041	0.46824	-0.157
Mof_Zn	Zn	0.9789	0.81939	0.85977	1.169
Mof_I 	I 	0.00531	0.88459	0.85881	-0.372
Mof_N 	N 	0.01588	0.80549	0.84557	-0.281
Mof_C 	C 	0.04636	0.82088	0.87064	0.069
Mof_H 	H 	0.04913	0.83717	0.89467	-0.018
Mof_C 	C 	0.07287	0.81429	0.86322	-0.124
Mof_H 	H 	0.09353	0.82517	0.88207	0.09
Mof_C 	C 	0.06905	0.7911	0.82711	0.065
Mof_C 	C 	0.03821	0.77467	0.80223	-0.131
Mof_H 	H 	0.03493	0.75847	0.77787	0.082
Mof_C 	C 	0.01175	0.78221	0.81325	0.078
Mof_H 	H 	0.99003	0.77007	0.79687	-0.021
Mof_N 	N 	0.27567	0.81363	0.97599	-0.286
Mof_C 	C 	0.27845	0.80099	0.93374	0.067
Mof_H 	H 	0.29793	0.79767	0.92847	-0.021
Mof_C 	C 	0.25455	0.79259	0.89813	-0.126
Mof_H 	H 	0.25763	0.78407	0.86867	0.084
Mof_C 	C 	0.22566	0.79676	0.90563	0.064
Mof_C 	C 	0.22355	0.81157	0.94835	-0.127
Mof_H 	H 	0.20493	0.81617	0.95387	0.089
Mof_C 	C 	0.2484	0.81922	0.98192	0.074
Mof_H 	H 	0.24653	0.82897	0.01097	-0.019
Mof_N 	N 	0.16853	0.70825	0.58778	-0.295
Mof_C 	C 	0.14023	0.70947	0.59837	0.098
Mof_H 	H 	0.12183	0.70107	0.57577	-0.027
Mof_C 	C 	0.1357	0.72254	0.64033	-0.152
Mof_H 	H 	0.11463	0.72307	0.64567	0.092
Mof_C 	C 	0.16042	0.7344	0.67351	0.08
Mof_C 	C 	0.19113	0.73467	0.66297	-0.138
Mof_H 	H 	0.21003	0.74387	0.68477	0.09
Mof_C 	C 	0.19383	0.72087	0.61917	0.081
Mof_H 	H 	0.21483	0.72077	0.61207	-0.025
Mof_C 	C 	0.09889	0.78483	0.81722	0.099
Mof_N 	N 	0.12227	0.7938	0.8531	-0.144
Mof_C 	C 	0.14891	0.78769	0.84518	0.179
Mof_N 	N 	0.17329	0.79544	0.87931	-0.145
Mof_C 	C 	0.19813	0.78782	0.86814	0.101
Mof_N 	N 	0.20329	0.7743	0.82833	-0.146
Mof_C 	C 	0.17916	0.76733	0.79419	0.173
Mof_N 	N 	0.18175	0.75408	0.75171	-0.144
Mof_C 	C 	0.15692	0.74818	0.72032	0.091
Mof_N 	N 	0.12875	0.75294	0.72408	-0.143
Mof_C 	C 	0.12594	0.76614	0.76688	0.176
Mof_N 	N 	0.09905	0.77151	0.77455	-0.147
Mof_C 	C 	0.15145	0.77375	0.80158	-0.157
Mof_Zn	Zn	0.84727	0.49284	0.1931	1.169
Mof_I 	I 	0.78207	0.45405	0.19214	-0.372
Mof_N 	N 	0.86118	0.54373	0.1789	-0.281
Mof_C 	C 	0.84579	0.55882	0.20397	0.069
Mof_H 	H 	0.8295	0.5453	0.228	-0.018
Mof_C 	C 	0.85238	0.59192	0.19655	-0.124
Mof_H 	H 	0.8415	0.6017	0.2154	0.09
Mof_C 	C 	0.87557	0.61129	0.16044	0.065
Mof_C 	C 	0.892	0.59688	0.13556	-0.131
Mof_H 	H 	0.9082	0.6098	0.1112	0.082
Mof_C 	C 	0.88446	0.56288	0.14658	0.077
Mof_H 	H 	0.8966	0.5533	0.1302	-0.021
Mof_N 	N 	0.85304	0.79538	0.30932	-0.286
Mof_C 	C 	0.86568	0.8108	0.26707	0.067
Mof_H 	H 	0.869	0.8336	0.2618	-0.021
Mof_C 	C 	0.87408	0.7953	0.23146	-0.126
Mof_H 	H 	0.8826	0.8069	0.202	0.084
Mof_C 	C 	0.86991	0.76224	0.23896	0.064
Mof_C 	C 	0.8551	0.74532	0.28168	-0.127
Mof_H 	H 	0.8505	0.7221	0.2872	0.089
Mof_C 	C 	0.84745	0.76252	0.31525	0.074
Mof_H 	H 	0.8377	0.7509	0.3443	-0.019
Mof_N 	N 	0.95842	0.79362	0.92111	-0.295
Mof_C 	C 	0.9572	0.7641	0.9317	0.098
Mof_H 	H 	0.9656	0.7541	0.9091	-0.027
Mof_C 	C 	0.94413	0.7465	0.97366	-0.152
Mof_H 	H 	0.9436	0.7249	0.979	0.092
Mof_C 	C 	0.93227	0.75936	0.00684	0.08
Mof_C 	C 	0.932	0.7898	0.9963	-0.138
Mof_H 	H 	0.9228	0.7995	0.0181	0.09
Mof_C 	C 	0.9458	0.8063	0.9525	0.081
Mof_H 	H 	0.9459	0.8274	0.9454	-0.025
Mof_C 	C 	0.88184	0.6474	0.15055	0.099
Mof_N 	N 	0.87287	0.66181	0.18643	-0.144
Mof_C 	C 	0.87898	0.69456	0.17851	0.179
Mof_N 	N 	0.87123	0.71119	0.21264	-0.145
Mof_C 	C 	0.87885	0.74365	0.20147	0.101
Mof_N 	N 	0.89237	0.76233	0.16166	-0.146
Mof_C 	C 	0.89934	0.74517	0.12752	0.173
Mof_N 	N 	0.91259	0.76101	0.08504	-0.144
Mof_C 	C 	0.91849	0.74208	0.05365	0.091
Mof_N 	N 	0.91373	0.70915	0.05741	-0.143
Mof_C 	C 	0.90053	0.69314	0.10021	0.176
Mof_N 	N 	0.89516	0.66088	0.10788	-0.147
Mof_C 	C 	0.89292	0.71104	0.13491	-0.157
Mof_Zn	Zn	0.51394	0.82617	0.52643	1.169
Mof_I 	I 	0.44874	0.78738	0.52547	-0.372
Mof_N 	N 	0.52785	0.87706	0.51223	-0.281
Mof_C 	C 	0.51246	0.89215	0.5373	0.069
Mof_H 	H 	0.49617	0.87863	0.56133	-0.018
Mof_C 	C 	0.51905	0.92525	0.52988	-0.124
Mof_H 	H 	0.50817	0.93503	0.54873	0.09
Mof_C 	C 	0.54224	0.94462	0.49377	0.065
Mof_C 	C 	0.55867	0.93021	0.46889	-0.131
Mof_H 	H 	0.57487	0.94313	0.44453	0.082
Mof_C 	C 	0.55113	0.89621	0.47991	0.077
Mof_H 	H 	0.56327	0.88663	0.46353	-0.021
Mof_N 	N 	0.51971	0.12871	0.64265	-0.286
Mof_C 	C 	0.53235	0.14413	0.6004	0.067
Mof_H 	H 	0.53567	0.16693	0.59513	-0.021
Mof_C 	C 	0.54075	0.12863	0.56479	-0.126
Mof_H 	H 	0.54927	0.14023	0.53533	0.084
Mof_C 	C 	0.53658	0.09557	0.57229	0.064
Mof_C 	C 	0.52177	0.07865	0.61501	-0.127
Mof_H 	H 	0.51717	0.05543	0.62053	0.089
Mof_C 	C 	0.51412	0.09585	0.64858	0.074
Mof_H 	H 	0.50437	0.08423	0.67763	-0.019
Mof_N 	N 	0.62509	0.12695	0.25444	-0.295
Mof_C 	C 	0.62387	0.09743	0.26503	0.098
Mof_H 	H 	0.63227	0.08743	0.24243	-0.027
Mof_C 	C 	0.6108	0.07983	0.30699	-0.152
Mof_H 	H 	0.61027	0.05823	0.31233	0.092
Mof_C 	C 	0.59894	0.09269	0.34017	0.08
Mof_C 	C 	0.59867	0.12313	0.32963	-0.138
Mof_H 	H 	0.58947	0.13283	0.35143	0.09
Mof_C 	C 	0.61247	0.13963	0.28583	0.081
Mof_H 	H 	0.61257	0.16073	0.27873	-0.025
Mof_C 	C 	0.54851	0.98073	0.48388	0.099
Mof_N 	N 	0.53954	0.99514	0.51976	-0.144
Mof_C 	C 	0.54565	0.02789	0.51184	0.179
Mof_N 	N 	0.5379	0.04452	0.54597	-0.145
Mof_C 	C 	0.54552	0.07698	0.5348	0.101
Mof_N 	N 	0.55904	0.09566	0.49499	-0.146
Mof_C 	C 	0.56601	0.0785	0.46085	0.173
Mof_N 	N 	0.57926	0.09434	0.41837	-0.144
Mof_C 	C 	0.58516	0.07541	0.38698	0.091
Mof_N 	N 	0.5804	0.04248	0.39074	-0.143
Mof_C 	C 	0.5672	0.02647	0.43354	0.176
Mof_N 	N 	0.56183	0.99421	0.44121	-0.147
Mof_C 	C 	0.55959	0.04437	0.46824	-0.157
Mof_Zn	Zn	0.18061	0.1595	0.85977	1.169
Mof_I 	I 	0.11541	0.12071	0.85881	-0.372
Mof_N 	N 	0.19451	0.2104	0.84557	-0.281
Mof_C 	C 	0.17912	0.22549	0.87064	0.069
Mof_H 	H 	0.16283	0.21197	0.89467	-0.018
Mof_C 	C 	0.18571	0.25859	0.86322	-0.124
Mof_H 	H 	0.17483	0.26837	0.88207	0.09
Mof_C 	C 	0.2089	0.27796	0.82711	0.065
Mof_C 	C 	0.22533	0.26355	0.80223	-0.131
Mof_H 	H 	0.24153	0.27647	0.77787	0.082
Mof_C 	C 	0.21779	0.22955	0.81325	0.077
Mof_H 	H 	0.22993	0.21997	0.79687	-0.021
Mof_N 	N 	0.18637	0.46205	0.97599	-0.286
Mof_C 	C 	0.19901	0.47747	0.93374	0.067
Mof_H 	H 	0.20233	0.50027	0.92847	-0.021
Mof_C 	C 	0.20741	0.46197	0.89813	-0.126
Mof_H 	H 	0.21593	0.47357	0.86867	0.084
Mof_C 	C 	0.20324	0.42891	0.90563	0.064
Mof_C 	C 	0.18843	0.41199	0.94835	-0.127
Mof_H 	H 	0.18383	0.38877	0.95387	0.089
Mof_C 	C 	0.18078	0.42919	0.98192	0.074
Mof_H 	H 	0.17103	0.41757	0.01097	-0.019
Mof_N 	N 	0.29175	0.46029	0.58778	-0.295
Mof_C 	C 	0.29053	0.43077	0.59837	0.098
Mof_H 	H 	0.29893	0.42077	0.57577	-0.027
Mof_C 	C 	0.27746	0.41317	0.64033	-0.152
Mof_H 	H 	0.27693	0.39157	0.64567	0.092
Mof_C 	C 	0.2656	0.42603	0.67351	0.08
Mof_C 	C 	0.26533	0.45647	0.66297	-0.138
Mof_H 	H 	0.25613	0.46617	0.68477	0.09
Mof_C 	C 	0.27913	0.47297	0.61917	0.081
Mof_H 	H 	0.27923	0.49407	0.61207	-0.025
Mof_C 	C 	0.21517	0.31407	0.81722	0.099
Mof_N 	N 	0.2062	0.32848	0.8531	-0.144
Mof_C 	C 	0.21231	0.36123	0.84518	0.179
Mof_N 	N 	0.20456	0.37786	0.87931	-0.145
Mof_C 	C 	0.21218	0.41032	0.86814	0.101
Mof_N 	N 	0.2257	0.429	0.82833	-0.146
Mof_C 	C 	0.23267	0.41184	0.79419	0.173
Mof_N 	N 	0.24592	0.42768	0.75171	-0.144
Mof_C 	C 	0.25182	0.40875	0.72032	0.091
Mof_N 	N 	0.24706	0.37582	0.72408	-0.143
Mof_C 	C 	0.23386	0.35981	0.76688	0.176
Mof_N 	N 	0.22849	0.32755	0.77455	-0.147
Mof_C 	C 	0.22625	0.37771	0.80158	-0.157
_end
