data_functionalizedCrystal
_audit_creation_method	'EQeq! by Chris Wilmer'
_symmetry_space_group_name_H-M	'P1'
_symmetry_Int_Tables_number	1
_symmetry_cell_setting	triclinic
loop_
_symmetry_equiv_pos_as_xyz
  x,y,z
_cell_length_a	32.485
_cell_length_b	29.089
_cell_length_c	17.629
_cell_angle_alpha	90
_cell_angle_beta	104.347
_cell_angle_gamma	90
loop_
_atom_site_label
_atom_site_type_symbol
_atom_site_fract_x
_atom_site_fract_y
_atom_site_fract_z
_atom_site_charge
Mof_Yb	Yb	0.01464	0.22814	0.54257	1.572
Mof_O 	O 	0.0358	0.2075	0.6644	-0.541
Mof_O 	O 	0.04629	0.24657	0.773	-0.575
Mof_O 	O 	0.46409	0.1819	0.1304	-0.568
Mof_O 	O 	0.4529	0.2349	0.0381	-0.577
Mof_O 	O 	0.0813	0.7768	0.0167	-0.429
Mof_O 	O 	0.0472	0.8399	0.0139	-0.447
Mof_O 	O 	0.4549	0.7931	0.9174	-0.521
Mof_O 	O 	0.44548	0.8297	0.8018	-0.537
Mof_C 	C 	0.2454	0.0413	0.8972	0.026
Mof_C 	C 	0.2078	0.0633	0.8613	-0.091
Mof_H 	H 	0.1838	0.0473	0.8345	0.057
Mof_C 	C 	0.2084	0.1137	0.8684	0.005
Mof_C 	C 	0.2444	0.1366	0.9019	-0.078
Mof_H 	H 	0.2441	0.1685	0.9021	0.054
Mof_C 	C 	0.2817	0.1139	0.9357	-0.004
Mof_C 	C 	0.2819	0.0659	0.9329	-0.085
Mof_H 	H 	0.3068	0.0501	0.9554	0.057
Mof_C 	C 	0.1673	0.1385	0.8293	0.097
Mof_C 	C 	0.1552	0.1753	0.869	-0.191
Mof_H 	H 	0.1723	0.1836	0.9176	0.092
Mof_C 	C 	0.119	0.1995	0.8392	0.136
Mof_H 	H 	0.1113	0.2239	0.867	-0.013
Mof_C 	C 	0.0941	0.1874	0.7677	-0.244
Mof_C 	C 	0.1041	0.1508	0.7246	0.126
Mof_H 	H 	0.0867	0.1432	0.6759	-0.011
Mof_C 	C 	0.1413	0.1258	0.7574	-0.18
Mof_H 	H 	0.1485	0.1007	0.7308	0.089
Mof_C 	C 	0.0556	0.2171	0.7372	0.566
Mof_C 	C 	0.3221	0.1405	0.9716	0.134
Mof_C 	C 	0.3496	0.1207	0.0373	-0.24
Mof_H 	H 	0.3423	0.0936	0.0587	0.11
Mof_C 	C 	0.3871	0.1418	0.0692	0.201
Mof_H 	H 	0.405	0.1293	0.1139	-0.04
Mof_C 	C 	0.399	0.1796	0.0384	-0.272
Mof_C 	C 	0.3713	0.2005	0.9695	0.135
Mof_H 	H 	0.3789	0.2272	0.9475	-0.025
Mof_C 	C 	0.3325	0.1779	0.938	-0.211
Mof_H 	H 	0.314	0.1895	0.8931	0.098
Mof_C 	C 	0.441	0.2022	0.0679	0.564
Mof_C 	C 	0.2476	0.9905	0.9031	0.039
Mof_C 	C 	0.2837	0.966	0.8943	-0.105
Mof_H 	H 	0.3055	0.9821	0.8808	0.064
Mof_C 	C 	0.2876	0.9193	0.905	0.026
Mof_C 	C 	0.2533	0.895	0.9221	-0.103
Mof_H 	H 	0.2549	0.8632	0.9274	0.06
Mof_C 	C 	0.2178	0.9176	0.9311	0.035
Mof_C 	C 	0.2148	0.9656	0.9231	-0.109
Mof_H 	H 	0.1911	0.9809	0.9311	0.064
Mof_C 	C 	0.1825	0.8916	0.9507	0.036
Mof_C 	C 	0.1745	0.8485	0.9275	-0.002
Mof_H 	H 	0.1906	0.8348	0.8969	0.02
Mof_C 	C 	0.1425	0.8231	0.9479	-0.048
Mof_H 	H 	0.1387	0.7921	0.9353	0.041
Mof_C 	C 	0.1245	0.8899	0.0091	0.028
Mof_H 	H 	0.107	0.9045	0.0361	0.018
Mof_C 	C 	0.1571	0.9149	0.9934	-0.072
Mof_H 	H 	0.1622	0.9452	0.0097	0.047
Mof_C 	C 	0.1159	0.8459	0.9884	-0.105
Mof_C 	C 	0.0795	0.8191	0.006	0.335
Mof_C 	C 	0.3253	0.8951	0.8943	0.069
Mof_C 	C 	0.3414	0.856	0.9382	-0.141
Mof_H 	H 	0.3269	0.8455	0.9743	0.074
Mof_C 	C 	0.3768	0.8319	0.9319	0.079
Mof_H 	H 	0.3868	0.807	0.9641	0.012
Mof_C 	C 	0.3979	0.847	0.8733	-0.194
Mof_C 	C 	0.3814	0.8845	0.8286	0.104
Mof_H 	H 	0.3942	0.8942	0.7896	-0.003
Mof_C 	C 	0.3467	0.9082	0.8396	-0.159
Mof_H 	H 	0.3373	0.9339	0.8089	0.081
Mof_C 	C 	0.4358	0.8217	0.863	0.506
Mof_C 	C 	0.1869	0.8499	0.9876	-0.104
Mof_H 	H 	0.2133	0.8358	0.9968	0.058
Mof_C 	C 	0.155	0.8269	0.0124	0.05
Mof_H 	H 	0.1602	0.8005	0.0431	0.016
Mof_C 	C 	0.1089	0.8888	0.9532	-0.017
Mof_H 	H 	0.0843	0.9052	0.9528	0.029
Mof_C 	C 	0.1385	0.9063	0.9195	-0.055
Mof_H 	H 	0.1313	0.9269	0.878	0.038
Mof_Yb	Yb	0.51464	0.72814	0.54257	1.608
Mof_O 	O 	0.5358	0.7075	0.6644	-0.541
Mof_O 	O 	0.54629	0.74657	0.773	-0.577
Mof_O 	O 	0.96409	0.6819	0.1304	-0.544
Mof_O 	O 	0.9529	0.7349	0.0381	-0.557
Mof_O 	O 	0.5813	0.2768	0.0167	-0.43
Mof_O 	O 	0.5472	0.3399	0.0139	-0.444
Mof_O 	O 	0.9549	0.2931	0.9174	-0.517
Mof_O 	O 	0.94548	0.3297	0.8018	-0.522
Mof_C 	C 	0.7454	0.5413	0.8972	0.028
Mof_C 	C 	0.7078	0.5633	0.8613	-0.092
Mof_H 	H 	0.6838	0.5473	0.8345	0.058
Mof_C 	C 	0.7084	0.6137	0.8684	0.007
Mof_C 	C 	0.7444	0.6366	0.9019	-0.08
Mof_H 	H 	0.7441	0.6685	0.9021	0.055
Mof_C 	C 	0.7817	0.6139	0.9357	0
Mof_C 	C 	0.7819	0.5659	0.9329	-0.088
Mof_H 	H 	0.8068	0.5501	0.9554	0.059
Mof_C 	C 	0.6673	0.6385	0.8293	0.098
Mof_C 	C 	0.6552	0.6753	0.869	-0.191
Mof_H 	H 	0.6723	0.6836	0.9176	0.093
Mof_C 	C 	0.619	0.6995	0.8392	0.138
Mof_H 	H 	0.6113	0.7239	0.867	-0.013
Mof_C 	C 	0.5941	0.6874	0.7677	-0.245
Mof_C 	C 	0.6041	0.6508	0.7246	0.128
Mof_H 	H 	0.5867	0.6432	0.6759	-0.01
Mof_C 	C 	0.6413	0.6258	0.7574	-0.18
Mof_H 	H 	0.6485	0.6007	0.7308	0.09
Mof_C 	C 	0.5556	0.7171	0.7372	0.572
Mof_C 	C 	0.8221	0.6405	0.9716	0.126
Mof_C 	C 	0.8496	0.6207	0.0373	-0.228
Mof_H 	H 	0.8423	0.5936	0.0587	0.107
Mof_C 	C 	0.8871	0.6418	0.0692	0.19
Mof_H 	H 	0.905	0.6293	0.1139	-0.033
Mof_C 	C 	0.899	0.6796	0.0384	-0.258
Mof_C 	C 	0.8713	0.7005	0.9695	0.125
Mof_H 	H 	0.8789	0.7272	0.9475	-0.019
Mof_C 	C 	0.8325	0.6779	0.938	-0.202
Mof_H 	H 	0.814	0.6895	0.8931	0.096
Mof_C 	C 	0.941	0.7022	0.0679	0.552
Mof_C 	C 	0.7476	0.4905	0.9031	0.039
Mof_C 	C 	0.7837	0.466	0.8943	-0.105
Mof_H 	H 	0.8055	0.4821	0.8808	0.064
Mof_C 	C 	0.7876	0.4193	0.905	0.026
Mof_C 	C 	0.7533	0.395	0.9221	-0.103
Mof_H 	H 	0.7549	0.3632	0.9274	0.06
Mof_C 	C 	0.7178	0.4176	0.9311	0.035
Mof_C 	C 	0.7148	0.4656	0.9231	-0.109
Mof_H 	H 	0.6911	0.4809	0.9311	0.064
Mof_C 	C 	0.6825	0.3916	0.9507	0.038
Mof_C 	C 	0.6745	0.3485	0.9275	-0.021
Mof_H 	H 	0.6906	0.3348	0.8969	0.028
Mof_C 	C 	0.6425	0.3231	0.9479	-0.033
Mof_H 	H 	0.6387	0.2921	0.9353	0.037
Mof_C 	C 	0.6245	0.3899	0.0091	0.005
Mof_H 	H 	0.607	0.4045	0.0361	0.027
Mof_C 	C 	0.6571	0.4149	0.9934	-0.061
Mof_H 	H 	0.6622	0.4452	0.0097	0.044
Mof_C 	C 	0.6159	0.3459	0.9884	-0.104
Mof_C 	C 	0.5795	0.3191	0.006	0.335
Mof_C 	C 	0.8253	0.3951	0.8943	0.069
Mof_C 	C 	0.8414	0.356	0.9382	-0.14
Mof_H 	H 	0.8269	0.3455	0.9743	0.074
Mof_C 	C 	0.8768	0.3319	0.9319	0.078
Mof_H 	H 	0.8868	0.307	0.9641	0.013
Mof_C 	C 	0.8979	0.347	0.8733	-0.191
Mof_C 	C 	0.8814	0.3845	0.8286	0.103
Mof_H 	H 	0.8942	0.3942	0.7896	-0
Mof_C 	C 	0.8467	0.4082	0.8396	-0.156
Mof_H 	H 	0.8373	0.4339	0.8089	0.082
Mof_C 	C 	0.9358	0.3217	0.863	0.504
Mof_C 	C 	0.6869	0.3499	0.9876	-0.087
Mof_H 	H 	0.7133	0.3358	0.9968	0.052
Mof_C 	C 	0.655	0.3269	0.0124	0.036
Mof_H 	H 	0.6602	0.3005	0.0431	0.022
Mof_C 	C 	0.6089	0.3888	0.9532	0.007
Mof_H 	H 	0.5843	0.4052	0.9528	0.023
Mof_C 	C 	0.6385	0.4063	0.9195	-0.069
Mof_H 	H 	0.6313	0.4269	0.878	0.045
Mof_Yb	Yb	0.98536	0.22814	0.95743	1.642
Mof_O 	O 	0.9642	0.2075	0.8356	-0.538
Mof_O 	O 	0.95371	0.24657	0.727	-0.561
Mof_O 	O 	0.53591	0.1819	0.3696	-0.567
Mof_O 	O 	0.5471	0.2349	0.4619	-0.576
Mof_O 	O 	0.9187	0.7768	0.4833	-0.432
Mof_O 	O 	0.9528	0.8399	0.4861	-0.442
Mof_O 	O 	0.5451	0.7931	0.5826	-0.52
Mof_O 	O 	0.55452	0.8297	0.6982	-0.536
Mof_C 	C 	0.7546	0.0413	0.6028	0.027
Mof_C 	C 	0.7922	0.0633	0.6387	-0.092
Mof_H 	H 	0.8162	0.0473	0.6655	0.059
Mof_C 	C 	0.7916	0.1137	0.6316	0.007
Mof_C 	C 	0.7556	0.1366	0.5981	-0.079
Mof_H 	H 	0.7559	0.1685	0.5979	0.054
Mof_C 	C 	0.7183	0.1139	0.5643	-0.002
Mof_C 	C 	0.7181	0.0659	0.5671	-0.086
Mof_H 	H 	0.6932	0.0501	0.5446	0.057
Mof_C 	C 	0.8327	0.1385	0.6707	0.098
Mof_C 	C 	0.8448	0.1753	0.631	-0.189
Mof_H 	H 	0.8277	0.1836	0.5824	0.093
Mof_C 	C 	0.881	0.1995	0.6608	0.137
Mof_H 	H 	0.8887	0.2239	0.633	-0.011
Mof_C 	C 	0.9059	0.1874	0.7323	-0.241
Mof_C 	C 	0.8959	0.1508	0.7754	0.127
Mof_H 	H 	0.9133	0.1432	0.8241	-0.009
Mof_C 	C 	0.8587	0.1258	0.7426	-0.179
Mof_H 	H 	0.8515	0.1007	0.7692	0.09
Mof_C 	C 	0.9444	0.2171	0.7628	0.569
Mof_C 	C 	0.6779	0.1405	0.5284	0.131
Mof_C 	C 	0.6504	0.1207	0.4627	-0.237
Mof_H 	H 	0.6577	0.0936	0.4413	0.109
Mof_C 	C 	0.6129	0.1418	0.4308	0.199
Mof_H 	H 	0.595	0.1293	0.3861	-0.04
Mof_C 	C 	0.601	0.1796	0.4616	-0.269
Mof_C 	C 	0.6287	0.2005	0.5305	0.132
Mof_H 	H 	0.6211	0.2272	0.5525	-0.024
Mof_C 	C 	0.6675	0.1779	0.562	-0.209
Mof_H 	H 	0.686	0.1895	0.6069	0.097
Mof_C 	C 	0.559	0.2022	0.4321	0.563
Mof_C 	C 	0.7524	0.9905	0.5969	0.039
Mof_C 	C 	0.7163	0.966	0.6057	-0.105
Mof_H 	H 	0.6945	0.9821	0.6192	0.063
Mof_C 	C 	0.7124	0.9193	0.595	0.025
Mof_C 	C 	0.7467	0.895	0.5779	-0.103
Mof_H 	H 	0.7451	0.8632	0.5726	0.06
Mof_C 	C 	0.7822	0.9176	0.5689	0.035
Mof_C 	C 	0.7852	0.9656	0.5769	-0.109
Mof_H 	H 	0.8089	0.9809	0.5689	0.065
Mof_C 	C 	0.8175	0.8916	0.5493	0.039
Mof_C 	C 	0.8255	0.8485	0.5725	-0.025
Mof_H 	H 	0.8094	0.8348	0.6031	0.03
Mof_C 	C 	0.8575	0.8231	0.5521	-0.03
Mof_H 	H 	0.8613	0.7921	0.5647	0.037
Mof_C 	C 	0.8755	0.8899	0.4909	0
Mof_H 	H 	0.893	0.9045	0.4639	0.03
Mof_C 	C 	0.8429	0.9149	0.5066	-0.059
Mof_H 	H 	0.8378	0.9452	0.4903	0.045
Mof_C 	C 	0.8841	0.8459	0.5116	-0.103
Mof_C 	C 	0.9205	0.8191	0.494	0.336
Mof_C 	C 	0.6747	0.8951	0.6057	0.07
Mof_C 	C 	0.6586	0.856	0.5618	-0.142
Mof_H 	H 	0.6731	0.8455	0.5257	0.074
Mof_C 	C 	0.6232	0.8319	0.5681	0.079
Mof_H 	H 	0.6132	0.807	0.5359	0.012
Mof_C 	C 	0.6021	0.847	0.6267	-0.195
Mof_C 	C 	0.6186	0.8845	0.6714	0.104
Mof_H 	H 	0.6058	0.8942	0.7104	-0.003
Mof_C 	C 	0.6533	0.9082	0.6604	-0.159
Mof_H 	H 	0.6627	0.9339	0.6911	0.081
Mof_C 	C 	0.5642	0.8217	0.637	0.506
Mof_C 	C 	0.8131	0.8499	0.5124	-0.083
Mof_H 	H 	0.7867	0.8358	0.5032	0.051
Mof_C 	C 	0.845	0.8269	0.4876	0.032
Mof_H 	H 	0.8398	0.8005	0.4569	0.023
Mof_C 	C 	0.8911	0.8888	0.5468	0.012
Mof_H 	H 	0.9157	0.9052	0.5472	0.025
Mof_C 	C 	0.8615	0.9063	0.5805	-0.07
Mof_H 	H 	0.8687	0.9269	0.622	0.048
Mof_Yb	Yb	0.48536	0.72814	0.95743	1.608
Mof_O 	O 	0.4642	0.7075	0.8356	-0.541
Mof_O 	O 	0.45371	0.74657	0.727	-0.577
Mof_O 	O 	0.03591	0.6819	0.3696	-0.568
Mof_O 	O 	0.0471	0.7349	0.4619	-0.591
Mof_O 	O 	0.4187	0.2768	0.4833	-0.43
Mof_O 	O 	0.4528	0.3399	0.4861	-0.444
Mof_O 	O 	0.0451	0.2931	0.5826	-0.52
Mof_O 	O 	0.05452	0.3297	0.6982	-0.532
Mof_C 	C 	0.2546	0.5413	0.6028	0.026
Mof_C 	C 	0.2922	0.5633	0.6387	-0.091
Mof_H 	H 	0.3162	0.5473	0.6655	0.058
Mof_C 	C 	0.2916	0.6137	0.6316	0.005
Mof_C 	C 	0.2556	0.6366	0.5981	-0.078
Mof_H 	H 	0.2559	0.6685	0.5979	0.054
Mof_C 	C 	0.2183	0.6139	0.5643	-0.004
Mof_C 	C 	0.2181	0.5659	0.5671	-0.085
Mof_H 	H 	0.1932	0.5501	0.5446	0.056
Mof_C 	C 	0.3327	0.6385	0.6707	0.099
Mof_C 	C 	0.3448	0.6753	0.631	-0.192
Mof_H 	H 	0.3277	0.6836	0.5824	0.093
Mof_C 	C 	0.381	0.6995	0.6608	0.139
Mof_H 	H 	0.3887	0.7239	0.633	-0.013
Mof_C 	C 	0.4059	0.6874	0.7323	-0.245
Mof_C 	C 	0.3959	0.6508	0.7754	0.129
Mof_H 	H 	0.4133	0.6432	0.8241	-0.01
Mof_C 	C 	0.3587	0.6258	0.7426	-0.181
Mof_H 	H 	0.3515	0.6007	0.7692	0.09
Mof_C 	C 	0.4444	0.7171	0.7628	0.572
Mof_C 	C 	0.1779	0.6405	0.5284	0.133
Mof_C 	C 	0.1504	0.6207	0.4627	-0.239
Mof_H 	H 	0.1577	0.5936	0.4413	0.109
Mof_C 	C 	0.1129	0.6418	0.4308	0.2
Mof_H 	H 	0.095	0.6293	0.3861	-0.041
Mof_C 	C 	0.101	0.6796	0.4616	-0.273
Mof_C 	C 	0.1287	0.7005	0.5305	0.134
Mof_H 	H 	0.1211	0.7272	0.5525	-0.027
Mof_C 	C 	0.1675	0.6779	0.562	-0.211
Mof_H 	H 	0.186	0.6895	0.6069	0.097
Mof_C 	C 	0.059	0.7022	0.4321	0.564
Mof_C 	C 	0.2524	0.4905	0.5969	0.039
Mof_C 	C 	0.2163	0.466	0.6057	-0.105
Mof_H 	H 	0.1945	0.4821	0.6192	0.063
Mof_C 	C 	0.2124	0.4193	0.595	0.025
Mof_C 	C 	0.2467	0.395	0.5779	-0.103
Mof_H 	H 	0.2451	0.3632	0.5726	0.059
Mof_C 	C 	0.2822	0.4176	0.5689	0.034
Mof_C 	C 	0.2852	0.4656	0.5769	-0.108
Mof_H 	H 	0.3089	0.4809	0.5689	0.064
Mof_C 	C 	0.3175	0.3916	0.5493	0.039
Mof_C 	C 	0.3255	0.3485	0.5725	-0.032
Mof_H 	H 	0.3094	0.3348	0.6031	0.031
Mof_C 	C 	0.3575	0.3231	0.5521	-0.026
Mof_H 	H 	0.3613	0.2921	0.5647	0.034
Mof_C 	C 	0.3755	0.3899	0.4909	-0.008
Mof_H 	H 	0.393	0.4045	0.4639	0.032
Mof_C 	C 	0.3429	0.4149	0.5066	-0.054
Mof_H 	H 	0.3378	0.4452	0.4903	0.042
Mof_C 	C 	0.3841	0.3459	0.5116	-0.104
Mof_C 	C 	0.4205	0.3191	0.494	0.336
Mof_C 	C 	0.1747	0.3951	0.6057	0.069
Mof_C 	C 	0.1586	0.356	0.5618	-0.141
Mof_H 	H 	0.1731	0.3455	0.5257	0.073
Mof_C 	C 	0.1232	0.3319	0.5681	0.077
Mof_H 	H 	0.1132	0.307	0.5359	0.012
Mof_C 	C 	0.1021	0.347	0.6267	-0.194
Mof_C 	C 	0.1186	0.3845	0.6714	0.103
Mof_H 	H 	0.1058	0.3942	0.7104	-0.004
Mof_C 	C 	0.1533	0.4082	0.6604	-0.159
Mof_H 	H 	0.1627	0.4339	0.6911	0.08
Mof_C 	C 	0.0642	0.3217	0.637	0.5
Mof_C 	C 	0.3131	0.3499	0.5124	-0.077
Mof_H 	H 	0.2867	0.3358	0.5032	0.049
Mof_C 	C 	0.345	0.3269	0.4876	0.028
Mof_H 	H 	0.3398	0.3005	0.4569	0.025
Mof_C 	C 	0.3911	0.3888	0.5468	0.021
Mof_H 	H 	0.4157	0.4052	0.5472	0.019
Mof_C 	C 	0.3615	0.4063	0.5805	-0.078
Mof_H 	H 	0.3687	0.4269	0.622	0.048
Mof_Yb	Yb	0.98536	0.77186	0.45743	1.644
Mof_O 	O 	0.9642	0.7925	0.3356	-0.537
Mof_O 	O 	0.95371	0.75343	0.227	-0.561
Mof_O 	O 	0.53591	0.8181	0.8696	-0.567
Mof_O 	O 	0.5471	0.7651	0.9619	-0.576
Mof_O 	O 	0.9187	0.2232	0.9833	-0.432
Mof_O 	O 	0.9528	0.1601	0.9861	-0.442
Mof_O 	O 	0.5451	0.2069	0.0826	-0.52
Mof_O 	O 	0.55452	0.1703	0.1982	-0.536
Mof_C 	C 	0.7546	0.9587	0.1028	0.027
Mof_C 	C 	0.7922	0.9367	0.1387	-0.092
Mof_H 	H 	0.8162	0.9527	0.1655	0.059
Mof_C 	C 	0.7916	0.8863	0.1316	0.007
Mof_C 	C 	0.7556	0.8634	0.0981	-0.079
Mof_H 	H 	0.7559	0.8315	0.0979	0.054
Mof_C 	C 	0.7183	0.8861	0.0643	-0.002
Mof_C 	C 	0.7181	0.9341	0.0671	-0.086
Mof_H 	H 	0.6932	0.9499	0.0446	0.057
Mof_C 	C 	0.8327	0.8615	0.1707	0.098
Mof_C 	C 	0.8448	0.8247	0.131	-0.189
Mof_H 	H 	0.8277	0.8164	0.0824	0.093
Mof_C 	C 	0.881	0.8005	0.1608	0.137
Mof_H 	H 	0.8887	0.7761	0.133	-0.011
Mof_C 	C 	0.9059	0.8126	0.2323	-0.241
Mof_C 	C 	0.8959	0.8492	0.2754	0.127
Mof_H 	H 	0.9133	0.8568	0.3241	-0.008
Mof_C 	C 	0.8587	0.8742	0.2426	-0.178
Mof_H 	H 	0.8515	0.8993	0.2692	0.09
Mof_C 	C 	0.9444	0.7829	0.2628	0.569
Mof_C 	C 	0.6779	0.8595	0.0284	0.13
Mof_C 	C 	0.6504	0.8793	0.9627	-0.235
Mof_H 	H 	0.6577	0.9064	0.9413	0.109
Mof_C 	C 	0.6129	0.8582	0.9308	0.197
Mof_H 	H 	0.595	0.8707	0.8861	-0.039
Mof_C 	C 	0.601	0.8204	0.9616	-0.268
Mof_C 	C 	0.6287	0.7995	0.0305	0.13
Mof_H 	H 	0.6211	0.7728	0.0525	-0.023
Mof_C 	C 	0.6675	0.8221	0.062	-0.208
Mof_H 	H 	0.686	0.8105	0.1069	0.097
Mof_C 	C 	0.559	0.7978	0.9321	0.562
Mof_C 	C 	0.7524	0.0095	0.0969	0.04
Mof_C 	C 	0.7163	0.034	0.1057	-0.105
Mof_H 	H 	0.6945	0.0179	0.1192	0.064
Mof_C 	C 	0.7124	0.0807	0.095	0.026
Mof_C 	C 	0.7467	0.105	0.0779	-0.103
Mof_H 	H 	0.7451	0.1368	0.0726	0.06
Mof_C 	C 	0.7822	0.0824	0.0689	0.036
Mof_C 	C 	0.7852	0.0344	0.0769	-0.109
Mof_H 	H 	0.8089	0.0191	0.0689	0.065
Mof_C 	C 	0.8175	0.1084	0.0493	0.036
Mof_C 	C 	0.8255	0.1515	0.0725	-0.005
Mof_H 	H 	0.8094	0.1652	0.1031	0.023
Mof_C 	C 	0.8575	0.1769	0.0521	-0.044
Mof_H 	H 	0.8613	0.2079	0.0647	0.042
Mof_C 	C 	0.8755	0.1101	0.9909	0.024
Mof_H 	H 	0.893	0.0955	0.9639	0.022
Mof_C 	C 	0.8429	0.0851	0.0066	-0.072
Mof_H 	H 	0.8378	0.0548	0.9903	0.049
Mof_C 	C 	0.8841	0.1541	0.0116	-0.102
Mof_C 	C 	0.9205	0.1809	0.994	0.336
Mof_C 	C 	0.6747	0.1049	0.1057	0.069
Mof_C 	C 	0.6586	0.144	0.0618	-0.141
Mof_H 	H 	0.6731	0.1545	0.0257	0.074
Mof_C 	C 	0.6232	0.1681	0.0681	0.079
Mof_H 	H 	0.6132	0.193	0.0359	0.012
Mof_C 	C 	0.6021	0.153	0.1267	-0.194
Mof_C 	C 	0.6186	0.1155	0.1714	0.104
Mof_H 	H 	0.6058	0.1058	0.2104	-0.003
Mof_C 	C 	0.6533	0.0918	0.1604	-0.159
Mof_H 	H 	0.6627	0.0661	0.1911	0.081
Mof_C 	C 	0.5642	0.1783	0.137	0.506
Mof_C 	C 	0.8131	0.1501	0.0124	-0.101
Mof_H 	H 	0.7867	0.1642	0.0032	0.057
Mof_C 	C 	0.845	0.1731	0.9876	0.046
Mof_H 	H 	0.8398	0.1995	0.9569	0.018
Mof_C 	C 	0.8911	0.1112	0.0468	-0.014
Mof_H 	H 	0.9157	0.0948	0.0472	0.034
Mof_C 	C 	0.8615	0.0937	0.0805	-0.054
Mof_H 	H 	0.8687	0.0731	0.122	0.042
Mof_Yb	Yb	0.48536	0.27186	0.45743	1.608
Mof_O 	O 	0.4642	0.2925	0.3356	-0.541
Mof_O 	O 	0.45371	0.25343	0.227	-0.577
Mof_O 	O 	0.03591	0.3181	0.8696	-0.567
Mof_O 	O 	0.0471	0.2651	0.9619	-0.59
Mof_O 	O 	0.4187	0.7232	0.9833	-0.43
Mof_O 	O 	0.4528	0.6601	0.9861	-0.444
Mof_O 	O 	0.0451	0.7069	0.0826	-0.52
Mof_O 	O 	0.05452	0.6703	0.1982	-0.532
Mof_C 	C 	0.2546	0.4587	0.1028	0.027
Mof_C 	C 	0.2922	0.4367	0.1387	-0.091
Mof_H 	H 	0.3162	0.4527	0.1655	0.058
Mof_C 	C 	0.2916	0.3863	0.1316	0.006
Mof_C 	C 	0.2556	0.3634	0.0981	-0.079
Mof_H 	H 	0.2559	0.3315	0.0979	0.054
Mof_C 	C 	0.2183	0.3861	0.0643	-0.003
Mof_C 	C 	0.2181	0.4341	0.0671	-0.086
Mof_H 	H 	0.1932	0.4499	0.0446	0.056
Mof_C 	C 	0.3327	0.3615	0.1707	0.098
Mof_C 	C 	0.3448	0.3247	0.131	-0.192
Mof_H 	H 	0.3277	0.3164	0.0824	0.093
Mof_C 	C 	0.381	0.3005	0.1608	0.139
Mof_H 	H 	0.3887	0.2761	0.133	-0.013
Mof_C 	C 	0.4059	0.3126	0.2323	-0.245
Mof_C 	C 	0.3959	0.3492	0.2754	0.128
Mof_H 	H 	0.4133	0.3568	0.3241	-0.01
Mof_C 	C 	0.3587	0.3742	0.2426	-0.181
Mof_H 	H 	0.3515	0.3993	0.2692	0.09
Mof_C 	C 	0.4444	0.2829	0.2628	0.572
Mof_C 	C 	0.1779	0.3595	0.0284	0.13
Mof_C 	C 	0.1504	0.3793	0.9627	-0.236
Mof_H 	H 	0.1577	0.4064	0.9413	0.108
Mof_C 	C 	0.1129	0.3582	0.9308	0.198
Mof_H 	H 	0.095	0.3707	0.8861	-0.04
Mof_C 	C 	0.101	0.3204	0.9616	-0.27
Mof_C 	C 	0.1287	0.2995	0.0305	0.131
Mof_H 	H 	0.1211	0.2728	0.0525	-0.026
Mof_C 	C 	0.1675	0.3221	0.062	-0.209
Mof_H 	H 	0.186	0.3105	0.1069	0.096
Mof_C 	C 	0.059	0.2978	0.9321	0.563
Mof_C 	C 	0.2524	0.5095	0.0969	0.038
Mof_C 	C 	0.2163	0.534	0.1057	-0.104
Mof_H 	H 	0.1945	0.5179	0.1192	0.062
Mof_C 	C 	0.2124	0.5807	0.095	0.024
Mof_C 	C 	0.2467	0.605	0.0779	-0.102
Mof_H 	H 	0.2451	0.6368	0.0726	0.059
Mof_C 	C 	0.2822	0.5824	0.0689	0.032
Mof_C 	C 	0.2852	0.5344	0.0769	-0.108
Mof_H 	H 	0.3089	0.5191	0.0689	0.063
Mof_C 	C 	0.3175	0.6084	0.0493	0.043
Mof_C 	C 	0.3255	0.6515	0.0725	-0.064
Mof_H 	H 	0.3094	0.6652	0.1031	0.043
Mof_C 	C 	0.3575	0.6769	0.0521	-0.003
Mof_H 	H 	0.3613	0.7079	0.0647	0.026
Mof_C 	C 	0.3755	0.6101	0.9909	-0.046
Mof_H 	H 	0.393	0.5955	0.9639	0.045
Mof_C 	C 	0.3429	0.5851	0.0066	-0.033
Mof_H 	H 	0.3378	0.5548	0.9903	0.036
Mof_C 	C 	0.3841	0.6541	0.0116	-0.104
Mof_C 	C 	0.4205	0.6809	0.994	0.336
Mof_C 	C 	0.1747	0.6049	0.1057	0.069
Mof_C 	C 	0.1586	0.644	0.0618	-0.142
Mof_H 	H 	0.1731	0.6545	0.0257	0.073
Mof_C 	C 	0.1232	0.6681	0.0681	0.077
Mof_H 	H 	0.1132	0.693	0.0359	0.011
Mof_C 	C 	0.1021	0.653	0.1267	-0.194
Mof_C 	C 	0.1186	0.6155	0.1714	0.103
Mof_H 	H 	0.1058	0.6058	0.2104	-0.004
Mof_C 	C 	0.1533	0.5918	0.1604	-0.159
Mof_H 	H 	0.1627	0.5661	0.1911	0.08
Mof_C 	C 	0.0642	0.6783	0.137	0.5
Mof_C 	C 	0.3131	0.6501	0.0124	-0.048
Mof_H 	H 	0.2867	0.6642	0.0032	0.039
Mof_C 	C 	0.345	0.6731	0.9876	0.005
Mof_H 	H 	0.3398	0.6995	0.9569	0.033
Mof_C 	C 	0.3911	0.6112	0.0468	0.061
Mof_H 	H 	0.4157	0.5948	0.0472	0.005
Mof_C 	C 	0.3615	0.5937	0.0805	-0.103
Mof_H 	H 	0.3687	0.5731	0.122	0.057
Mof_Yb	Yb	0.01464	0.77186	0.04257	1.573
Mof_O 	O 	0.0358	0.7925	0.1644	-0.541
Mof_O 	O 	0.04629	0.75343	0.273	-0.574
Mof_O 	O 	0.46409	0.8181	0.6304	-0.567
Mof_O 	O 	0.4529	0.7651	0.5381	-0.576
Mof_O 	O 	0.0813	0.2232	0.5167	-0.428
Mof_O 	O 	0.0472	0.1601	0.5139	-0.446
Mof_O 	O 	0.4549	0.2069	0.4174	-0.52
Mof_O 	O 	0.44548	0.1703	0.3018	-0.536
Mof_C 	C 	0.2454	0.9587	0.3972	0.026
Mof_C 	C 	0.2078	0.9367	0.3613	-0.091
Mof_H 	H 	0.1838	0.9527	0.3345	0.057
Mof_C 	C 	0.2084	0.8863	0.3684	0.006
Mof_C 	C 	0.2444	0.8634	0.4019	-0.078
Mof_H 	H 	0.2441	0.8315	0.4021	0.054
Mof_C 	C 	0.2817	0.8861	0.4357	-0.003
Mof_C 	C 	0.2819	0.9341	0.4329	-0.086
Mof_H 	H 	0.3068	0.9499	0.4554	0.057
Mof_C 	C 	0.1673	0.8615	0.3293	0.097
Mof_C 	C 	0.1552	0.8247	0.369	-0.191
Mof_H 	H 	0.1723	0.8164	0.4176	0.092
Mof_C 	C 	0.119	0.8005	0.3392	0.136
Mof_H 	H 	0.1113	0.7761	0.367	-0.013
Mof_C 	C 	0.0941	0.8126	0.2677	-0.244
Mof_C 	C 	0.1041	0.8492	0.2246	0.126
Mof_H 	H 	0.0867	0.8568	0.1759	-0.011
Mof_C 	C 	0.1413	0.8742	0.2574	-0.18
Mof_H 	H 	0.1485	0.8993	0.2308	0.089
Mof_C 	C 	0.0556	0.7829	0.2372	0.566
Mof_C 	C 	0.3221	0.8595	0.4716	0.132
Mof_C 	C 	0.3496	0.8793	0.5373	-0.237
Mof_H 	H 	0.3423	0.9064	0.5587	0.109
Mof_C 	C 	0.3871	0.8582	0.5692	0.199
Mof_H 	H 	0.405	0.8707	0.6139	-0.04
Mof_C 	C 	0.399	0.8204	0.5384	-0.269
Mof_C 	C 	0.3713	0.7995	0.4695	0.132
Mof_H 	H 	0.3789	0.7728	0.4475	-0.024
Mof_C 	C 	0.3325	0.8221	0.438	-0.209
Mof_H 	H 	0.314	0.8105	0.3931	0.097
Mof_C 	C 	0.441	0.7978	0.5679	0.563
Mof_C 	C 	0.2476	0.0095	0.4031	0.038
Mof_C 	C 	0.2837	0.034	0.3943	-0.104
Mof_H 	H 	0.3055	0.0179	0.3808	0.063
Mof_C 	C 	0.2876	0.0807	0.405	0.025
Mof_C 	C 	0.2533	0.105	0.4221	-0.102
Mof_H 	H 	0.2549	0.1368	0.4274	0.059
Mof_C 	C 	0.2178	0.0824	0.4311	0.033
Mof_C 	C 	0.2148	0.0344	0.4231	-0.108
Mof_H 	H 	0.1911	0.0191	0.4311	0.063
Mof_C 	C 	0.1825	0.1084	0.4507	0.04
Mof_C 	C 	0.1745	0.1515	0.4275	-0.039
Mof_H 	H 	0.1906	0.1652	0.3969	0.033
Mof_C 	C 	0.1425	0.1769	0.4479	-0.022
Mof_H 	H 	0.1387	0.2079	0.4353	0.031
Mof_C 	C 	0.1245	0.1101	0.5091	-0.016
Mof_H 	H 	0.107	0.0955	0.5361	0.033
Mof_C 	C 	0.1571	0.0851	0.4934	-0.049
Mof_H 	H 	0.1622	0.0548	0.5097	0.04
Mof_C 	C 	0.1159	0.1541	0.4884	-0.105
Mof_C 	C 	0.0795	0.1809	0.506	0.335
Mof_C 	C 	0.3253	0.1049	0.3943	0.07
Mof_C 	C 	0.3414	0.144	0.4382	-0.142
Mof_H 	H 	0.3269	0.1545	0.4743	0.074
Mof_C 	C 	0.3768	0.1681	0.4319	0.079
Mof_H 	H 	0.3868	0.193	0.4641	0.012
Mof_C 	C 	0.3979	0.153	0.3733	-0.195
Mof_C 	C 	0.3814	0.1155	0.3286	0.104
Mof_H 	H 	0.3942	0.1058	0.2896	-0.003
Mof_C 	C 	0.3467	0.0918	0.3396	-0.159
Mof_H 	H 	0.3373	0.0661	0.3089	0.081
Mof_C 	C 	0.4358	0.1783	0.363	0.506
Mof_C 	C 	0.1869	0.1501	0.4876	-0.071
Mof_H 	H 	0.2133	0.1642	0.4968	0.047
Mof_C 	C 	0.155	0.1731	0.5124	0.024
Mof_H 	H 	0.1602	0.1995	0.5431	0.026
Mof_C 	C 	0.1089	0.1112	0.4532	0.03
Mof_H 	H 	0.0843	0.0948	0.4528	0.013
Mof_C 	C 	0.1385	0.0937	0.4195	-0.084
Mof_H 	H 	0.1313	0.0731	0.378	0.049
Mof_Yb	Yb	0.51464	0.27186	0.04257	1.608
Mof_O 	O 	0.5358	0.2925	0.1644	-0.541
Mof_O 	O 	0.54629	0.25343	0.273	-0.577
Mof_O 	O 	0.96409	0.3181	0.6304	-0.545
Mof_O 	O 	0.9529	0.2651	0.5381	-0.557
Mof_O 	O 	0.5813	0.7232	0.5167	-0.43
Mof_O 	O 	0.5472	0.6601	0.5139	-0.444
Mof_O 	O 	0.9549	0.7069	0.4174	-0.517
Mof_O 	O 	0.94548	0.6703	0.3018	-0.521
Mof_C 	C 	0.7454	0.4587	0.3972	0.028
Mof_C 	C 	0.7078	0.4367	0.3613	-0.092
Mof_H 	H 	0.6838	0.4527	0.3345	0.058
Mof_C 	C 	0.7084	0.3863	0.3684	0.007
Mof_C 	C 	0.7444	0.3634	0.4019	-0.08
Mof_H 	H 	0.7441	0.3315	0.4021	0.055
Mof_C 	C 	0.7817	0.3861	0.4357	0
Mof_C 	C 	0.7819	0.4341	0.4329	-0.087
Mof_H 	H 	0.8068	0.4499	0.4554	0.059
Mof_C 	C 	0.6673	0.3615	0.3293	0.098
Mof_C 	C 	0.6552	0.3247	0.369	-0.191
Mof_H 	H 	0.6723	0.3164	0.4176	0.093
Mof_C 	C 	0.619	0.3005	0.3392	0.139
Mof_H 	H 	0.6113	0.2761	0.367	-0.013
Mof_C 	C 	0.5941	0.3126	0.2677	-0.245
Mof_C 	C 	0.6041	0.3492	0.2246	0.128
Mof_H 	H 	0.5867	0.3568	0.1759	-0.01
Mof_C 	C 	0.6413	0.3742	0.2574	-0.18
Mof_H 	H 	0.6485	0.3993	0.2308	0.09
Mof_C 	C 	0.5556	0.2829	0.2372	0.572
Mof_C 	C 	0.8221	0.3595	0.4716	0.127
Mof_C 	C 	0.8496	0.3793	0.5373	-0.23
Mof_H 	H 	0.8423	0.4064	0.5587	0.108
Mof_C 	C 	0.8871	0.3582	0.5692	0.191
Mof_H 	H 	0.905	0.3707	0.6139	-0.034
Mof_C 	C 	0.899	0.3204	0.5384	-0.259
Mof_C 	C 	0.8713	0.2995	0.4695	0.127
Mof_H 	H 	0.8789	0.2728	0.4475	-0.019
Mof_C 	C 	0.8325	0.3221	0.438	-0.203
Mof_H 	H 	0.814	0.3105	0.3931	0.096
Mof_C 	C 	0.941	0.2978	0.5679	0.553
Mof_C 	C 	0.7476	0.5095	0.4031	0.039
Mof_C 	C 	0.7837	0.534	0.3943	-0.105
Mof_H 	H 	0.8055	0.5179	0.3808	0.064
Mof_C 	C 	0.7876	0.5807	0.405	0.026
Mof_C 	C 	0.7533	0.605	0.4221	-0.103
Mof_H 	H 	0.7549	0.6368	0.4274	0.059
Mof_C 	C 	0.7178	0.5824	0.4311	0.034
Mof_C 	C 	0.7148	0.5344	0.4231	-0.108
Mof_H 	H 	0.6911	0.5191	0.4311	0.064
Mof_C 	C 	0.6825	0.6084	0.4507	0.039
Mof_C 	C 	0.6745	0.6515	0.4275	-0.032
Mof_H 	H 	0.6906	0.6652	0.3969	0.031
Mof_C 	C 	0.6425	0.6769	0.4479	-0.026
Mof_H 	H 	0.6387	0.7079	0.4353	0.034
Mof_C 	C 	0.6245	0.6101	0.5091	-0.008
Mof_H 	H 	0.607	0.5955	0.5361	0.032
Mof_C 	C 	0.6571	0.5851	0.4934	-0.053
Mof_H 	H 	0.6622	0.5548	0.5097	0.042
Mof_C 	C 	0.6159	0.6541	0.4884	-0.104
Mof_C 	C 	0.5795	0.6809	0.506	0.336
Mof_C 	C 	0.8253	0.6049	0.3943	0.069
Mof_C 	C 	0.8414	0.644	0.4382	-0.14
Mof_H 	H 	0.8269	0.6545	0.4743	0.074
Mof_C 	C 	0.8768	0.6681	0.4319	0.078
Mof_H 	H 	0.8868	0.693	0.4641	0.013
Mof_C 	C 	0.8979	0.653	0.3733	-0.191
Mof_C 	C 	0.8814	0.6155	0.3286	0.103
Mof_H 	H 	0.8942	0.6058	0.2896	-0
Mof_C 	C 	0.8467	0.5918	0.3396	-0.156
Mof_H 	H 	0.8373	0.5661	0.3089	0.082
Mof_C 	C 	0.9358	0.6783	0.363	0.504
Mof_C 	C 	0.6869	0.6501	0.4876	-0.077
Mof_H 	H 	0.7133	0.6642	0.4968	0.049
Mof_C 	C 	0.655	0.6731	0.5124	0.028
Mof_H 	H 	0.6602	0.6995	0.5431	0.025
Mof_C 	C 	0.6089	0.6112	0.4532	0.021
Mof_H 	H 	0.5843	0.5948	0.4528	0.018
Mof_C 	C 	0.6385	0.5937	0.4195	-0.078
Mof_H 	H 	0.6313	0.5731	0.378	0.048
Mof_Yb	Yb	1.40884e-17	0.30699	0.75	1.912
Mof_Yb	Yb	0.5	0.80699	0.75	1.972
Mof_Yb	Yb	7.04419e-18	0.69301	0.25	1.91
Mof_Yb	Yb	0.5	0.19301	0.25	1.972
_end
