data_functionalizedCrystal
_audit_creation_method	'EQeq! by Chris Wilmer'
_symmetry_space_group_name_H-M	'P1'
_symmetry_Int_Tables_number	1
_symmetry_cell_setting	triclinic
loop_
_symmetry_equiv_pos_as_xyz
  x,y,z
_cell_length_a	9.361
_cell_length_b	12.713
_cell_length_c	12.755
_cell_angle_alpha	111.843
_cell_angle_beta	105.938
_cell_angle_gamma	97.104
loop_
_atom_site_label
_atom_site_type_symbol
_atom_site_fract_x
_atom_site_fract_y
_atom_site_fract_z
_atom_site_charge
Mof_Cd	Cd	0.01485	0.39669	0.57774	0.458
Mof_Cd	Cd	0.98515	0.60331	0.42226	0.458
Mof_H 	H 	0.6252	0.3526	0.4471	0.036
Mof_H 	H 	0.444	0.1765	0.2802	0.04
Mof_H 	H 	0.8649	0.1349	0.3396	0.011
Mof_H 	H 	0.3881	0.9564	0.2026	0.07
Mof_H 	H 	0.2909	0.7732	0.0405	0.067
Mof_H 	H 	0.6652	0.8291	0.9529	0.07
Mof_H 	H 	0.7595	0.0109	0.1148	0.065
Mof_H 	H 	0.1819	0.6575	0.8238	0.015
Mof_H 	H 	0.5951	0.6048	0.8537	0.045
Mof_H 	H 	0.4067	0.4394	0.6792	0.036
Mof_H 	H 	0.064	0.0611	0.6339	0.111
Mof_H 	H 	0.2294	0.1412	0.7141	0.099
Mof_H 	H 	0.4179	0.2386	0.6886	0.093
Mof_H 	H 	0.2252	0.8534	0.4071	0.085
Mof_H 	H 	0.675	0.2836	0.7061	0.031
Mof_H 	H 	0.6984	0.6712	0.6403	0.105
Mof_H 	H 	0.8494	0.7378	0.6377	0.118
Mof_H 	H 	0.8352	0.9027	0.6941	0.103
Mof_H 	H 	0.9158	0.1055	0.786	0.023
Mof_H 	H 	0.029	0.2042	0.9903	0.08
Mof_H 	H 	0.3748	0.6474	0.5529	0.035
Mof_H 	H 	0.556	0.8235	0.7198	0.039
Mof_H 	H 	0.1351	0.8651	0.6604	0.01
Mof_H 	H 	0.6119	0.0436	0.7974	0.069
Mof_H 	H 	0.7091	0.2268	0.9595	0.067
Mof_H 	H 	0.3348	0.1709	0.0471	0.07
Mof_H 	H 	0.2405	0.9891	0.8852	0.065
Mof_H 	H 	0.8181	0.3425	0.1762	0.015
Mof_H 	H 	0.4049	0.3952	0.1463	0.045
Mof_H 	H 	0.5933	0.5606	0.3208	0.036
Mof_H 	H 	0.936	0.9389	0.3661	0.111
Mof_H 	H 	0.7706	0.8588	0.2859	0.099
Mof_H 	H 	0.5821	0.7614	0.3114	0.093
Mof_H 	H 	0.7748	0.1466	0.5929	0.085
Mof_H 	H 	0.325	0.7164	0.2939	0.031
Mof_H 	H 	0.3016	0.3288	0.3597	0.105
Mof_H 	H 	0.1506	0.2622	0.3623	0.118
Mof_H 	H 	0.1648	0.0973	0.3059	0.103
Mof_H 	H 	0.0842	0.8945	0.214	0.023
Mof_H 	H 	0.971	0.7958	0.0097	0.08
Mof_C 	C 	0.6508	0.2852	0.4044	0.019
Mof_C 	C 	0.55	0.1893	0.3114	0
Mof_C 	C 	0.7825	0.1678	0.3462	0.113
Mof_C 	C 	0.5791	0.0015	0.1717	0.091
Mof_C 	C 	0.4426	0.9306	0.1511	-0.076
Mof_C 	C 	0.3843	0.821	0.0547	-0.073
Mof_C 	C 	0.4691	0.7841	0.9798	0.09
Mof_C 	C 	0.6087	0.855	0.0028	-0.075
Mof_C 	C 	0.665	0.9636	0.099	-0.071
Mof_C 	C 	0.2607	0.6232	0.8092	0.105
Mof_C 	C 	0.4894	0.5956	0.8268	0.001
Mof_C 	C 	0.3847	0.5042	0.7306	0.01
Mof_C 	C 	0.1069	0.2092	0.6072	0.339
Mof_C 	C 	0.1533	0.1085	0.6337	-0.181
Mof_C 	C 	0.3671	0.0729	0.5686	0.137
Mof_C 	C 	0.4578	0.1819	0.6436	-0.15
Mof_C 	C 	0.4214	0.9855	0.4937	-0.008
Mof_C 	C 	0.3276	0.8726	0.414	-0.083
Mof_C 	C 	0.6125	0.2091	0.6533	0.033
Mof_C 	C 	0.8668	0.5835	0.6489	0.366
Mof_C 	C 	0.8096	0.6924	0.6747	-0.21
Mof_C 	C 	0.905	0.8815	0.8463	0.133
Mof_C 	C 	0.8823	0.9422	0.7773	-0.165
Mof_C 	C 	0.9305	0.0637	0.8328	0.041
Mof_C 	C 	0.999	0.1228	0.9549	-0.088
Mof_C 	C 	0.9751	0.9382	0.9722	-0.012
Mof_C 	C 	0.3492	0.7148	0.5956	0.019
Mof_C 	C 	0.45	0.8107	0.6886	0
Mof_C 	C 	0.2175	0.8322	0.6538	0.113
Mof_C 	C 	0.4209	0.9985	0.8283	0.091
Mof_C 	C 	0.5574	0.0694	0.8489	-0.076
Mof_C 	C 	0.6157	0.179	0.9453	-0.073
Mof_C 	C 	0.5309	0.2159	0.0202	0.09
Mof_C 	C 	0.3913	0.145	0.9972	-0.075
Mof_C 	C 	0.335	0.0364	0.901	-0.071
Mof_C 	C 	0.7393	0.3768	0.1908	0.105
Mof_C 	C 	0.5106	0.4044	0.1732	0.001
Mof_C 	C 	0.6153	0.4958	0.2694	0.01
Mof_C 	C 	0.8931	0.7908	0.3928	0.339
Mof_C 	C 	0.8467	0.8915	0.3663	-0.181
Mof_C 	C 	0.6329	0.9271	0.4314	0.137
Mof_C 	C 	0.5422	0.8181	0.3564	-0.15
Mof_C 	C 	0.5786	0.0145	0.5063	-0.008
Mof_C 	C 	0.6724	0.1274	0.586	-0.083
Mof_C 	C 	0.3875	0.7909	0.3467	0.033
Mof_C 	C 	0.1332	0.4165	0.3511	0.366
Mof_C 	C 	0.1904	0.3076	0.3253	-0.21
Mof_C 	C 	0.095	0.1185	0.1537	0.133
Mof_C 	C 	0.1177	0.0578	0.2227	-0.165
Mof_C 	C 	0.0695	0.9363	0.1672	0.041
Mof_C 	C 	0.001	0.8772	0.0451	-0.088
Mof_C 	C 	0.0249	0.0618	0.0278	-0.012
Mof_N 	N 	0.7957	0.2697	0.4272	-0.143
Mof_N 	N 	0.6374	0.1143	0.2724	-0.136
Mof_N 	N 	0.4106	0.6728	0.8778	-0.135
Mof_N 	N 	0.2383	0.5217	0.72	-0.135
Mof_N 	N 	0.2043	0.7303	0.5728	-0.143
Mof_N 	N 	0.3626	0.8857	0.7276	-0.136
Mof_N 	N 	0.5894	0.3272	0.1222	-0.135
Mof_N 	N 	0.7617	0.4783	0.28	-0.135
Mof_O 	O 	0.1229	0.222	0.5195	-0.288
Mof_O 	O 	0.051	0.2744	0.6776	-0.288
Mof_O 	O 	0.8957	0.5454	0.5538	-0.316
Mof_O 	O 	0.8873	0.5348	0.717	-0.273
Mof_O 	O 	0.8576	0.7612	0.8014	-0.165
Mof_O 	O 	0.2137	0.0346	0.553	-0.166
Mof_O 	O 	0.8771	0.778	0.4805	-0.288
Mof_O 	O 	0.949	0.7256	0.3224	-0.288
Mof_O 	O 	0.1043	0.4546	0.4462	-0.316
Mof_O 	O 	0.1127	0.4652	0.283	-0.273
Mof_O 	O 	0.1424	0.2388	0.1986	-0.165
Mof_O 	O 	0.7863	0.9654	0.447	-0.166
_end
