# CIF file generated by openbabel 3.1.0, see https://openbabel.org
data_I
_chemical_name_common 'image0'
_cell_length_a 16.8014
_cell_length_b 14.173
_cell_length_c 33.1813
_cell_angle_alpha 90
_cell_angle_beta 96.641
_cell_angle_gamma 90
_space_group_name_H-M_alt 'P 1'
_space_group_name_Hall 'P 1'
loop_
    _symmetry_equiv_pos_as_xyz
    x,y,z
loop_
    _atom_site_label
    _atom_site_type_symbol
    _atom_site_fract_x
    _atom_site_fract_y
    _atom_site_fract_z
    _atom_site_occupancy
    Co1      Co       0.00688    0.09479    0.41734    1.000
    Co2      Co       0.92549    0.07049    0.50288    1.000
    Co3      Co       0.91897    0.95850    0.33322    1.000
    Co4      Co       0.09000    0.06817    0.33554    1.000
    C1       C        0.18820    0.13680    0.26390    1.000
    C2       C        0.18690    0.11180    0.22380    1.000
    C3       C        0.23720    0.15120    0.19630    1.000
    H1       H        0.23480    0.13390    0.16920    1.000
    C4       C        0.29070    0.21870    0.21470    1.000
    H2       H        0.32460    0.25040    0.19900    1.000
    C5       C        0.29410    0.24000    0.25700    1.000
    C6       C        0.24280    0.20070    0.28160    1.000
    H3       H        0.24500    0.21650    0.30890    1.000
    C7       C        0.35990    0.30900    0.27390    1.000
    C8       C        0.31590    0.39770    0.40410    1.000
    C9       C        0.31640    0.41950    0.44440    1.000
    C10      C        0.26740    0.38010    0.46990    1.000
    H4       H        0.27050    0.39610    0.49720    1.000
    C11      C        0.21240    0.31410    0.45220    1.000
    H5       H        0.17570    0.28760    0.46780    1.000
    C12      C        0.21080    0.28690    0.41200    1.000
    C13      C        0.26050    0.32800    0.38810    1.000
    H6       H        0.25850    0.31040    0.36100    1.000
    C14      C        0.14840    0.21530    0.39490    1.000
    C15      C        0.19660    0.91680    0.39140    1.000
    C16      C        0.19890    0.88980    0.43160    1.000
    C17      C        0.30630    0.81480    0.38410    1.000
    H7       H        0.34410    0.78890    0.36900    1.000
    C18      C        0.30810    0.79200    0.42680    1.000
    C19      C        0.25190    0.82750    0.44920    1.000
    H8       H        0.25040    0.80890    0.47590    1.000
    C20      C        0.24970    0.87360    0.36640    1.000
    H9       H        0.24540    0.88560    0.33860    1.000
    C21      C        0.37130    0.72200    0.44430    1.000
    N1       N        0.12940    0.08150    0.28000    1.000
    N2       N        0.09440    0.03070    0.24950    1.000
    N3       N        0.12540    0.04780    0.21540    1.000
    N4       N        0.37230    0.45100    0.38750    1.000
    N5       N        0.40560    0.50360    0.41840    1.000
    N6       N        0.37380    0.49150    0.45340    1.000
    N7       N        0.13740    0.97850    0.38120    1.000
    N8       N        0.10170    0.98970    0.41500    1.000
    N9       N        0.13670    0.94110    0.44650    1.000
    O1       O        0.02370    0.94060    0.31170    1.000
    O2       O        0.98540    0.08630    0.35560    1.000
    O3       O        0.02930    0.06880    0.47760    1.000
    O4       O        0.35370    0.34640    0.30800    1.000
    O5       O        0.41430    0.32620    0.25200    1.000
    O6       O        0.15320    0.18300    0.36030    1.000
    O7       O        0.09830    0.19400    0.41830    1.000
    O8       O        0.36550    0.68760    0.47850    1.000
    O9       O        0.42770    0.70720    0.42270    1.000
    H10      H        0.06900    0.10300    0.49500    1.000
    H11      H        0.02700    0.87700    0.32200    1.000
    H12      H        0.95600    0.14300    0.34700    1.000
    Co5      Co       0.50688    0.59479    0.41734    1.000
    Co6      Co       0.42549    0.57049    0.50288    1.000
    Co7      Co       0.41897    0.45850    0.33322    1.000
    Co8      Co       0.59000    0.56817    0.33554    1.000
    C22      C        0.68820    0.63680    0.26390    1.000
    C23      C        0.68690    0.61180    0.22380    1.000
    C24      C        0.73720    0.65120    0.19630    1.000
    H13      H        0.73480    0.63390    0.16920    1.000
    C25      C        0.79070    0.71870    0.21470    1.000
    H14      H        0.82460    0.75040    0.19900    1.000
    C26      C        0.79410    0.74000    0.25700    1.000
    C27      C        0.74280    0.70070    0.28160    1.000
    H15      H        0.74500    0.71650    0.30890    1.000
    C28      C        0.85990    0.80900    0.27390    1.000
    C29      C        0.81590    0.89770    0.40410    1.000
    C30      C        0.81640    0.91950    0.44440    1.000
    C31      C        0.76740    0.88010    0.46990    1.000
    H16      H        0.77050    0.89610    0.49720    1.000
    C32      C        0.71240    0.81410    0.45220    1.000
    H17      H        0.67570    0.78760    0.46780    1.000
    C33      C        0.71080    0.78690    0.41200    1.000
    C34      C        0.76050    0.82800    0.38810    1.000
    H18      H        0.75850    0.81040    0.36100    1.000
    C35      C        0.64840    0.71530    0.39490    1.000
    C36      C        0.69660    0.41680    0.39140    1.000
    C37      C        0.69890    0.38980    0.43160    1.000
    C38      C        0.80630    0.31480    0.38410    1.000
    H19      H        0.84410    0.28890    0.36900    1.000
    C39      C        0.80810    0.29200    0.42680    1.000
    C40      C        0.75190    0.32750    0.44920    1.000
    H20      H        0.75040    0.30890    0.47590    1.000
    C41      C        0.74970    0.37360    0.36640    1.000
    H21      H        0.74540    0.38560    0.33860    1.000
    C42      C        0.87130    0.22200    0.44430    1.000
    N10      N        0.62940    0.58150    0.28000    1.000
    N11      N        0.59440    0.53070    0.24950    1.000
    N12      N        0.62540    0.54780    0.21540    1.000
    N13      N        0.87230    0.95100    0.38750    1.000
    N14      N        0.90560    0.00360    0.41840    1.000
    N15      N        0.87380    0.99150    0.45340    1.000
    N16      N        0.63740    0.47850    0.38120    1.000
    N17      N        0.60170    0.48970    0.41500    1.000
    N18      N        0.63670    0.44110    0.44650    1.000
    O10      O        0.52370    0.44060    0.31170    1.000
    O11      O        0.48540    0.58630    0.35560    1.000
    O12      O        0.52930    0.56880    0.47760    1.000
    O13      O        0.85370    0.84640    0.30800    1.000
    O14      O        0.91430    0.82620    0.25200    1.000
    O15      O        0.65320    0.68300    0.36030    1.000
    O16      O        0.59830    0.69400    0.41830    1.000
    O17      O        0.86550    0.18760    0.47850    1.000
    O18      O        0.92770    0.20720    0.42270    1.000
    H22      H        0.56900    0.60300    0.49500    1.000
    H23      H        0.52700    0.37700    0.32200    1.000
    H24      H        0.45600    0.64300    0.34700    1.000
    Co9      Co       0.99312    0.09479    0.08266    1.000
    Co10     Co       0.07451    0.07049    0.99712    1.000
    Co11     Co       0.08103    0.95850    0.16678    1.000
    Co12     Co       0.91000    0.06817    0.16446    1.000
    C43      C        0.81180    0.13680    0.23610    1.000
    C44      C        0.81310    0.11180    0.27620    1.000
    C45      C        0.76280    0.15120    0.30370    1.000
    H25      H        0.76520    0.13390    0.33080    1.000
    C46      C        0.70930    0.21870    0.28530    1.000
    H26      H        0.67540    0.25040    0.30100    1.000
    C47      C        0.70590    0.24000    0.24300    1.000
    C48      C        0.75720    0.20070    0.21840    1.000
    H27      H        0.75500    0.21650    0.19110    1.000
    C49      C        0.64010    0.30900    0.22610    1.000
    C50      C        0.68410    0.39770    0.09590    1.000
    C51      C        0.68360    0.41950    0.05560    1.000
    C52      C        0.73260    0.38010    0.03010    1.000
    H28      H        0.72950    0.39610    0.00280    1.000
    C53      C        0.78760    0.31410    0.04780    1.000
    H29      H        0.82430    0.28760    0.03220    1.000
    C54      C        0.78920    0.28690    0.08800    1.000
    C55      C        0.73950    0.32800    0.11190    1.000
    H30      H        0.74150    0.31040    0.13900    1.000
    C56      C        0.85160    0.21530    0.10510    1.000
    C57      C        0.80340    0.91680    0.10860    1.000
    C58      C        0.80110    0.88980    0.06840    1.000
    C59      C        0.69370    0.81480    0.11590    1.000
    H31      H        0.65590    0.78890    0.13100    1.000
    C60      C        0.69190    0.79200    0.07320    1.000
    C61      C        0.74810    0.82750    0.05080    1.000
    H32      H        0.74960    0.80890    0.02410    1.000
    C62      C        0.75030    0.87360    0.13360    1.000
    H33      H        0.75460    0.88560    0.16140    1.000
    C63      C        0.62870    0.72200    0.05570    1.000
    N19      N        0.87060    0.08150    0.22000    1.000
    N20      N        0.90560    0.03070    0.25050    1.000
    N21      N        0.87460    0.04780    0.28460    1.000
    N22      N        0.62770    0.45100    0.11250    1.000
    N23      N        0.59440    0.50360    0.08160    1.000
    N24      N        0.62620    0.49150    0.04660    1.000
    N25      N        0.86260    0.97850    0.11880    1.000
    N26      N        0.89830    0.98970    0.08500    1.000
    N27      N        0.86330    0.94110    0.05350    1.000
    O19      O        0.97630    0.94060    0.18830    1.000
    O20      O        0.01460    0.08630    0.14440    1.000
    O21      O        0.97070    0.06880    0.02240    1.000
    O22      O        0.64630    0.34640    0.19200    1.000
    O23      O        0.58570    0.32620    0.24800    1.000
    O24      O        0.84680    0.18300    0.13970    1.000
    O25      O        0.90170    0.19400    0.08170    1.000
    O26      O        0.63450    0.68760    0.02150    1.000
    O27      O        0.57230    0.70720    0.07730    1.000
    H34      H        0.93100    0.10300    0.00500    1.000
    H35      H        0.97300    0.87700    0.17800    1.000
    H36      H        0.04400    0.14300    0.15300    1.000
    Co13     Co       0.49312    0.59479    0.08266    1.000
    Co14     Co       0.57451    0.57049    0.99712    1.000
    Co15     Co       0.58103    0.45850    0.16678    1.000
    Co16     Co       0.41000    0.56817    0.16446    1.000
    C64      C        0.31180    0.63680    0.23610    1.000
    C65      C        0.31310    0.61180    0.27620    1.000
    C66      C        0.26280    0.65120    0.30370    1.000
    H37      H        0.26520    0.63390    0.33080    1.000
    C67      C        0.20930    0.71870    0.28530    1.000
    H38      H        0.17540    0.75040    0.30100    1.000
    C68      C        0.20590    0.74000    0.24300    1.000
    C69      C        0.25720    0.70070    0.21840    1.000
    H39      H        0.25500    0.71650    0.19110    1.000
    C70      C        0.14010    0.80900    0.22610    1.000
    C71      C        0.18410    0.89770    0.09590    1.000
    C72      C        0.18360    0.91950    0.05560    1.000
    C73      C        0.23260    0.88010    0.03010    1.000
    H40      H        0.22950    0.89610    0.00280    1.000
    C74      C        0.28760    0.81410    0.04780    1.000
    H41      H        0.32430    0.78760    0.03220    1.000
    C75      C        0.28920    0.78690    0.08800    1.000
    C76      C        0.23950    0.82800    0.11190    1.000
    H42      H        0.24150    0.81040    0.13900    1.000
    C77      C        0.35160    0.71530    0.10510    1.000
    C78      C        0.30340    0.41680    0.10860    1.000
    C79      C        0.30110    0.38980    0.06840    1.000
    C80      C        0.19370    0.31480    0.11590    1.000
    H43      H        0.15590    0.28890    0.13100    1.000
    C81      C        0.19190    0.29200    0.07320    1.000
    C82      C        0.24810    0.32750    0.05080    1.000
    H44      H        0.24960    0.30890    0.02410    1.000
    C83      C        0.25030    0.37360    0.13360    1.000
    H45      H        0.25460    0.38560    0.16140    1.000
    C84      C        0.12870    0.22200    0.05570    1.000
    N28      N        0.37060    0.58150    0.22000    1.000
    N29      N        0.40560    0.53070    0.25050    1.000
    N30      N        0.37460    0.54780    0.28460    1.000
    N31      N        0.12770    0.95100    0.11250    1.000
    N32      N        0.09440    0.00360    0.08160    1.000
    N33      N        0.12620    0.99150    0.04660    1.000
    N34      N        0.36260    0.47850    0.11880    1.000
    N35      N        0.39830    0.48970    0.08500    1.000
    N36      N        0.36330    0.44110    0.05350    1.000
    O28      O        0.47630    0.44060    0.18830    1.000
    O29      O        0.51460    0.58630    0.14440    1.000
    O30      O        0.47070    0.56880    0.02240    1.000
    O31      O        0.14630    0.84640    0.19200    1.000
    O32      O        0.08570    0.82620    0.24800    1.000
    O33      O        0.34680    0.68300    0.13970    1.000
    O34      O        0.40170    0.69400    0.08170    1.000
    O35      O        0.13450    0.18760    0.02150    1.000
    O36      O        0.07230    0.20720    0.07730    1.000
    H46      H        0.43100    0.60300    0.00500    1.000
    H47      H        0.47300    0.37700    0.17800    1.000
    H48      H        0.54400    0.64300    0.15300    1.000
    Co17     Co       0.99312    0.90521    0.58266    1.000
    Co18     Co       0.07451    0.92951    0.49712    1.000
    Co19     Co       0.08103    0.04150    0.66678    1.000
    Co20     Co       0.91000    0.93183    0.66446    1.000
    C85      C        0.81180    0.86320    0.73610    1.000
    C86      C        0.81310    0.88820    0.77620    1.000
    C87      C        0.76280    0.84880    0.80370    1.000
    H49      H        0.76520    0.86610    0.83080    1.000
    C88      C        0.70930    0.78130    0.78530    1.000
    H50      H        0.67540    0.74960    0.80100    1.000
    C89      C        0.70590    0.76000    0.74300    1.000
    C90      C        0.75720    0.79930    0.71840    1.000
    H51      H        0.75500    0.78350    0.69110    1.000
    C91      C        0.64010    0.69100    0.72610    1.000
    C92      C        0.68410    0.60230    0.59590    1.000
    C93      C        0.68360    0.58050    0.55560    1.000
    C94      C        0.73260    0.61990    0.53010    1.000
    H52      H        0.72950    0.60390    0.50280    1.000
    C95      C        0.78760    0.68590    0.54780    1.000
    H53      H        0.82430    0.71240    0.53220    1.000
    C96      C        0.78920    0.71310    0.58800    1.000
    C97      C        0.73950    0.67200    0.61190    1.000
    H54      H        0.74150    0.68960    0.63900    1.000
    C98      C        0.85160    0.78470    0.60510    1.000
    C99      C        0.80340    0.08320    0.60860    1.000
    C100     C        0.80110    0.11020    0.56840    1.000
    C101     C        0.69370    0.18520    0.61590    1.000
    H55      H        0.65590    0.21110    0.63100    1.000
    C102     C        0.69190    0.20800    0.57320    1.000
    C103     C        0.74810    0.17250    0.55080    1.000
    H56      H        0.74960    0.19110    0.52410    1.000
    C104     C        0.75030    0.12640    0.63360    1.000
    H57      H        0.75460    0.11440    0.66140    1.000
    C105     C        0.62870    0.27800    0.55570    1.000
    N37      N        0.87060    0.91850    0.72000    1.000
    N38      N        0.90560    0.96930    0.75050    1.000
    N39      N        0.87460    0.95220    0.78460    1.000
    N40      N        0.62770    0.54900    0.61250    1.000
    N41      N        0.59440    0.49640    0.58160    1.000
    N42      N        0.62620    0.50850    0.54660    1.000
    N43      N        0.86260    0.02150    0.61880    1.000
    N44      N        0.89830    0.01030    0.58500    1.000
    N45      N        0.86330    0.05890    0.55350    1.000
    O37      O        0.97630    0.05940    0.68830    1.000
    O38      O        0.01460    0.91370    0.64440    1.000
    O39      O        0.97070    0.93120    0.52240    1.000
    O40      O        0.64630    0.65360    0.69200    1.000
    O41      O        0.58570    0.67380    0.74800    1.000
    O42      O        0.84680    0.81700    0.63970    1.000
    O43      O        0.90170    0.80600    0.58170    1.000
    O44      O        0.63450    0.31240    0.52150    1.000
    O45      O        0.57230    0.29280    0.57730    1.000
    H58      H        0.93100    0.89700    0.50500    1.000
    H59      H        0.97300    0.12300    0.67800    1.000
    H60      H        0.04400    0.85700    0.65300    1.000
    Co21     Co       0.49312    0.40521    0.58266    1.000
    Co22     Co       0.57451    0.42951    0.49712    1.000
    Co23     Co       0.58103    0.54150    0.66678    1.000
    Co24     Co       0.41000    0.43183    0.66446    1.000
    C106     C        0.31180    0.36320    0.73610    1.000
    C107     C        0.31310    0.38820    0.77620    1.000
    C108     C        0.26280    0.34880    0.80370    1.000
    H61      H        0.26520    0.36610    0.83080    1.000
    C109     C        0.20930    0.28130    0.78530    1.000
    H62      H        0.17540    0.24960    0.80100    1.000
    C110     C        0.20590    0.26000    0.74300    1.000
    C111     C        0.25720    0.29930    0.71840    1.000
    H63      H        0.25500    0.28350    0.69110    1.000
    C112     C        0.14010    0.19100    0.72610    1.000
    C113     C        0.18410    0.10230    0.59590    1.000
    C114     C        0.18360    0.08050    0.55560    1.000
    C115     C        0.23260    0.11990    0.53010    1.000
    H64      H        0.22950    0.10390    0.50280    1.000
    C116     C        0.28760    0.18590    0.54780    1.000
    H65      H        0.32430    0.21240    0.53220    1.000
    C117     C        0.28920    0.21310    0.58800    1.000
    C118     C        0.23950    0.17200    0.61190    1.000
    H66      H        0.24150    0.18960    0.63900    1.000
    C119     C        0.35160    0.28470    0.60510    1.000
    C120     C        0.30340    0.58320    0.60860    1.000
    C121     C        0.30110    0.61020    0.56840    1.000
    C122     C        0.19370    0.68520    0.61590    1.000
    H67      H        0.15590    0.71110    0.63100    1.000
    C123     C        0.19190    0.70800    0.57320    1.000
    C124     C        0.24810    0.67250    0.55080    1.000
    H68      H        0.24960    0.69110    0.52410    1.000
    C125     C        0.25030    0.62640    0.63360    1.000
    H69      H        0.25460    0.61440    0.66140    1.000
    C126     C        0.12870    0.77800    0.55570    1.000
    N46      N        0.37060    0.41850    0.72000    1.000
    N47      N        0.40560    0.46930    0.75050    1.000
    N48      N        0.37460    0.45220    0.78460    1.000
    N49      N        0.12770    0.04900    0.61250    1.000
    N50      N        0.09440    0.99640    0.58160    1.000
    N51      N        0.12620    0.00850    0.54660    1.000
    N52      N        0.36260    0.52150    0.61880    1.000
    N53      N        0.39830    0.51030    0.58500    1.000
    N54      N        0.36330    0.55890    0.55350    1.000
    O46      O        0.47630    0.55940    0.68830    1.000
    O47      O        0.51460    0.41370    0.64440    1.000
    O48      O        0.47070    0.43120    0.52240    1.000
    O49      O        0.14630    0.15360    0.69200    1.000
    O50      O        0.08570    0.17380    0.74800    1.000
    O51      O        0.34680    0.31700    0.63970    1.000
    O52      O        0.40170    0.30600    0.58170    1.000
    O53      O        0.13450    0.81240    0.52150    1.000
    O54      O        0.07230    0.79280    0.57730    1.000
    H70      H        0.43100    0.39700    0.50500    1.000
    H71      H        0.47300    0.62300    0.67800    1.000
    H72      H        0.54400    0.35700    0.65300    1.000
    Co25     Co       0.00688    0.90521    0.91734    1.000
    Co26     Co       0.92549    0.92951    0.00288    1.000
    Co27     Co       0.91897    0.04150    0.83322    1.000
    Co28     Co       0.09000    0.93183    0.83554    1.000
    C127     C        0.18820    0.86320    0.76390    1.000
    C128     C        0.18690    0.88820    0.72380    1.000
    C129     C        0.23720    0.84880    0.69630    1.000
    H73      H        0.23480    0.86610    0.66920    1.000
    C130     C        0.29070    0.78130    0.71470    1.000
    H74      H        0.32460    0.74960    0.69900    1.000
    C131     C        0.29410    0.76000    0.75700    1.000
    C132     C        0.24280    0.79930    0.78160    1.000
    H75      H        0.24500    0.78350    0.80890    1.000
    C133     C        0.35990    0.69100    0.77390    1.000
    C134     C        0.31590    0.60230    0.90410    1.000
    C135     C        0.31640    0.58050    0.94440    1.000
    C136     C        0.26740    0.61990    0.96990    1.000
    H76      H        0.27050    0.60390    0.99720    1.000
    C137     C        0.21240    0.68590    0.95220    1.000
    H77      H        0.17570    0.71240    0.96780    1.000
    C138     C        0.21080    0.71310    0.91200    1.000
    C139     C        0.26050    0.67200    0.88810    1.000
    H78      H        0.25850    0.68960    0.86100    1.000
    C140     C        0.14840    0.78470    0.89490    1.000
    C141     C        0.19660    0.08320    0.89140    1.000
    C142     C        0.19890    0.11020    0.93160    1.000
    C143     C        0.30630    0.18520    0.88410    1.000
    H79      H        0.34410    0.21110    0.86900    1.000
    C144     C        0.30810    0.20800    0.92680    1.000
    C145     C        0.25190    0.17250    0.94920    1.000
    H80      H        0.25040    0.19110    0.97590    1.000
    C146     C        0.24970    0.12640    0.86640    1.000
    H81      H        0.24540    0.11440    0.83860    1.000
    C147     C        0.37130    0.27800    0.94430    1.000
    N55      N        0.12940    0.91850    0.78000    1.000
    N56      N        0.09440    0.96930    0.74950    1.000
    N57      N        0.12540    0.95220    0.71540    1.000
    N58      N        0.37230    0.54900    0.88750    1.000
    N59      N        0.40560    0.49640    0.91840    1.000
    N60      N        0.37380    0.50850    0.95340    1.000
    N61      N        0.13740    0.02150    0.88120    1.000
    N62      N        0.10170    0.01030    0.91500    1.000
    N63      N        0.13670    0.05890    0.94650    1.000
    O55      O        0.02370    0.05940    0.81170    1.000
    O56      O        0.98540    0.91370    0.85560    1.000
    O57      O        0.02930    0.93120    0.97760    1.000
    O58      O        0.35370    0.65360    0.80800    1.000
    O59      O        0.41430    0.67380    0.75200    1.000
    O60      O        0.15320    0.81700    0.86030    1.000
    O61      O        0.09830    0.80600    0.91830    1.000
    O62      O        0.36550    0.31240    0.97850    1.000
    O63      O        0.42770    0.29280    0.92270    1.000
    H82      H        0.06900    0.89700    0.99500    1.000
    H83      H        0.02700    0.12300    0.82200    1.000
    H84      H        0.95600    0.85700    0.84700    1.000
    Co29     Co       0.50688    0.40521    0.91734    1.000
    Co30     Co       0.42549    0.42951    0.00288    1.000
    Co31     Co       0.41897    0.54150    0.83322    1.000
    Co32     Co       0.59000    0.43183    0.83554    1.000
    C148     C        0.68820    0.36320    0.76390    1.000
    C149     C        0.68690    0.38820    0.72380    1.000
    C150     C        0.73720    0.34880    0.69630    1.000
    H85      H        0.73480    0.36610    0.66920    1.000
    C151     C        0.79070    0.28130    0.71470    1.000
    H86      H        0.82460    0.24960    0.69900    1.000
    C152     C        0.79410    0.26000    0.75700    1.000
    C153     C        0.74280    0.29930    0.78160    1.000
    H87      H        0.74500    0.28350    0.80890    1.000
    C154     C        0.85990    0.19100    0.77390    1.000
    C155     C        0.81590    0.10230    0.90410    1.000
    C156     C        0.81640    0.08050    0.94440    1.000
    C157     C        0.76740    0.11990    0.96990    1.000
    H88      H        0.77050    0.10390    0.99720    1.000
    C158     C        0.71240    0.18590    0.95220    1.000
    H89      H        0.67570    0.21240    0.96780    1.000
    C159     C        0.71080    0.21310    0.91200    1.000
    C160     C        0.76050    0.17200    0.88810    1.000
    H90      H        0.75850    0.18960    0.86100    1.000
    C161     C        0.64840    0.28470    0.89490    1.000
    C162     C        0.69660    0.58320    0.89140    1.000
    C163     C        0.69890    0.61020    0.93160    1.000
    C164     C        0.80630    0.68520    0.88410    1.000
    H91      H        0.84410    0.71110    0.86900    1.000
    C165     C        0.80810    0.70800    0.92680    1.000
    C166     C        0.75190    0.67250    0.94920    1.000
    H92      H        0.75040    0.69110    0.97590    1.000
    C167     C        0.74970    0.62640    0.86640    1.000
    H93      H        0.74540    0.61440    0.83860    1.000
    C168     C        0.87130    0.77800    0.94430    1.000
    N64      N        0.62940    0.41850    0.78000    1.000
    N65      N        0.59440    0.46930    0.74950    1.000
    N66      N        0.62540    0.45220    0.71540    1.000
    N67      N        0.87230    0.04900    0.88750    1.000
    N68      N        0.90560    0.99640    0.91840    1.000
    N69      N        0.87380    0.00850    0.95340    1.000
    N70      N        0.63740    0.52150    0.88120    1.000
    N71      N        0.60170    0.51030    0.91500    1.000
    N72      N        0.63670    0.55890    0.94650    1.000
    O64      O        0.52370    0.55940    0.81170    1.000
    O65      O        0.48540    0.41370    0.85560    1.000
    O66      O        0.52930    0.43120    0.97760    1.000
    O67      O        0.85370    0.15360    0.80800    1.000
    O68      O        0.91430    0.17380    0.75200    1.000
    O69      O        0.65320    0.31700    0.86030    1.000
    O70      O        0.59830    0.30600    0.91830    1.000
    O71      O        0.86550    0.81240    0.97850    1.000
    O72      O        0.92770    0.79280    0.92270    1.000
    H94      H        0.56900    0.39700    0.99500    1.000
    H95      H        0.52700    0.62300    0.82200    1.000
    H96      H        0.45600    0.35700    0.84700    1.000
    Co33     Co       0.00000    0.92944    0.25000    1.000
    Co34     Co       0.50000    0.42944    0.25000    1.000
    Co35     Co       0.00000    0.07056    0.75000    1.000
    Co36     Co       0.50000    0.57056    0.75000    1.000
