data_functionalizedCrystal
_audit_creation_method	'EQeq! by Chris Wilmer'
_symmetry_space_group_name_H-M	'P1'
_symmetry_Int_Tables_number	1
_symmetry_cell_setting	triclinic
loop_
_symmetry_equiv_pos_as_xyz
  x,y,z
_cell_length_a	24.3226
_cell_length_b	18.4617
_cell_length_c	8.8768
_cell_angle_alpha	90
_cell_angle_beta	108.493
_cell_angle_gamma	90
loop_
_atom_site_label
_atom_site_type_symbol
_atom_site_fract_x
_atom_site_fract_y
_atom_site_fract_z
_atom_site_charge
Mof_O 	O 	0.4639	0.7835	0.9291	-0.748
Mof_N 	N 	0.4394	0.7022	0.6244	-0.243
Mof_N 	N 	0.5626	0.8607	0.8747	-0.254
Mof_C 	C 	0.4137	0.656	0.695	0.091
Mof_C 	C 	0.4202	0.7051	0.4649	0.086
Mof_Cr	Cr	0.55656	0.79404	0.4166	1.424
Mof_C 	C 	0.3677	0.6129	0.6123	-0.171
Mof_H 	H 	0.42751	0.65245	0.80759	-0.034
Mof_H 	H 	0.43828	0.73776	0.41242	-0.053
Mof_C 	C 	0.3754	0.6625	0.3745	-0.164
Mof_H 	H 	0.3504	0.5805	0.66718	0.077
Mof_C 	C 	0.3467	0.6175	0.445	0.085
Mof_H 	H 	0.3644	0.6646	0.2619	0.04
Mof_C 	C 	0.2959	0.5742	0.35	-0.031
Mof_C 	C 	0.2951	0.4994	0.3776	-0.144
Mof_C 	C 	0.2493	0.606	0.2358	0.055
Mof_H 	H 	0.32675	0.47825	0.45781	0.067
Mof_C 	C 	0.2497	0.4549	0.2916	0.164
Mof_C 	C 	0.2036	0.5615	0.15	-0.045
Mof_C 	C 	0.2435	0.688	0.2067	-0.345
Mof_C 	C 	0.2036	0.4875	0.1742	-0.106
Mof_C 	C 	0.2517	0.3758	0.3237	-0.484
Mof_H 	H 	0.17135	0.58278	0.07226	-0.007
Mof_H 	H 	0.25325	0.7134	0.30879	0.107
Mof_H 	H 	0.20353	0.69959	0.14317	0.068
Mof_H 	H 	0.26996	0.70347	0.14955	0.089
Mof_C 	C 	0.1547	0.444	0.0744	0.107
Mof_H 	H 	0.21504	0.36044	0.33743	0.133
Mof_H 	H 	0.28371	0.36527	0.42075	0.138
Mof_H 	H 	0.25772	0.34966	0.23418	0.148
Mof_C 	C 	0.0971	0.4558	0.072	-0.201
Mof_C 	C 	0.1638	0.3919	0.9734	-0.19
Mof_C 	C 	0.0527	0.4125	0.9695	0.064
Mof_H 	H 	0.08828	0.49184	0.13731	0.053
Mof_C 	C 	0.1189	0.353	0.8766	0.082
Mof_H 	H 	0.20205	0.38306	0.97133	0.085
Mof_H 	H 	0.01395	0.42049	0.96762	-0.069
Mof_H 	H 	0.127	0.31871	0.80662	-0.041
Mof_O 	O 	0.9639	0.2835	0.9291	-0.745
Mof_N 	N 	0.9394	0.2022	0.6244	-0.239
Mof_N 	N 	0.0626	0.3607	0.8747	-0.256
Mof_C 	C 	0.9137	0.156	0.695	0.092
Mof_C 	C 	0.9202	0.2051	0.4649	0.087
Mof_Cr	Cr	0.05656	0.29404	0.4166	1.419
Mof_C 	C 	0.8677	0.1129	0.6123	-0.169
Mof_H 	H 	0.92751	0.15245	0.80759	-0.032
Mof_H 	H 	0.93828	0.23776	0.41242	-0.049
Mof_C 	C 	0.8754	0.1625	0.3745	-0.163
Mof_H 	H 	0.8504	0.0805	0.66718	0.077
Mof_C 	C 	0.8467	0.1175	0.445	0.084
Mof_H 	H 	0.8644	0.1646	0.2619	0.039
Mof_C 	C 	0.7959	0.0742	0.35	-0.029
Mof_C 	C 	0.7951	0.9994	0.3776	-0.146
Mof_C 	C 	0.7493	0.106	0.2358	0.054
Mof_H 	H 	0.82675	0.97825	0.45781	0.068
Mof_C 	C 	0.7497	0.9549	0.2916	0.165
Mof_C 	C 	0.7036	0.0615	0.15	-0.043
Mof_C 	C 	0.7435	0.188	0.2067	-0.343
Mof_C 	C 	0.7036	0.9875	0.1742	-0.107
Mof_C 	C 	0.7517	0.8758	0.3237	-0.485
Mof_H 	H 	0.67135	0.08278	0.07226	-0.008
Mof_H 	H 	0.75325	0.2134	0.30879	0.106
Mof_H 	H 	0.70353	0.19959	0.14317	0.067
Mof_H 	H 	0.76996	0.20347	0.14955	0.088
Mof_C 	C 	0.6547	0.944	0.0744	0.106
Mof_H 	H 	0.71504	0.86044	0.33743	0.133
Mof_H 	H 	0.78371	0.86527	0.42075	0.138
Mof_H 	H 	0.75772	0.84966	0.23418	0.148
Mof_C 	C 	0.5971	0.9558	0.072	-0.202
Mof_C 	C 	0.6638	0.8919	0.9734	-0.188
Mof_C 	C 	0.5527	0.9125	0.9695	0.067
Mof_H 	H 	0.58828	0.99184	0.13731	0.055
Mof_C 	C 	0.6189	0.853	0.8766	0.081
Mof_H 	H 	0.70205	0.88306	0.97133	0.084
Mof_H 	H 	0.51395	0.92049	0.96762	-0.064
Mof_H 	H 	0.627	0.81871	0.80662	-0.041
Mof_O 	O 	0.5361	0.7835	0.5709	-0.748
Mof_N 	N 	0.5606	0.7022	0.8756	-0.243
Mof_N 	N 	0.4374	0.8607	0.6253	-0.254
Mof_C 	C 	0.5863	0.656	0.805	0.091
Mof_C 	C 	0.5798	0.7051	0.0351	0.086
Mof_Cr	Cr	0.44344	0.79404	0.0834	1.424
Mof_C 	C 	0.6323	0.6129	0.8877	-0.17
Mof_H 	H 	0.57249	0.65245	0.69241	-0.034
Mof_H 	H 	0.56172	0.73776	0.08758	-0.053
Mof_C 	C 	0.6246	0.6625	0.1255	-0.164
Mof_H 	H 	0.6496	0.5805	0.83282	0.077
Mof_C 	C 	0.6533	0.6175	0.055	0.084
Mof_H 	H 	0.6356	0.6646	0.2381	0.039
Mof_C 	C 	0.7041	0.5742	0.15	-0.03
Mof_C 	C 	0.7049	0.4994	0.1224	-0.144
Mof_C 	C 	0.7507	0.606	0.2642	0.054
Mof_H 	H 	0.67325	0.47825	0.04219	0.067
Mof_C 	C 	0.7503	0.4549	0.2084	0.163
Mof_C 	C 	0.7964	0.5615	0.35	-0.044
Mof_C 	C 	0.7565	0.688	0.2933	-0.343
Mof_C 	C 	0.7964	0.4875	0.3258	-0.106
Mof_C 	C 	0.7483	0.3758	0.1763	-0.484
Mof_H 	H 	0.82865	0.58278	0.42774	-0.008
Mof_H 	H 	0.74675	0.7134	0.19121	0.106
Mof_H 	H 	0.79647	0.69959	0.35683	0.067
Mof_H 	H 	0.73004	0.70347	0.35045	0.088
Mof_C 	C 	0.8453	0.444	0.4256	0.106
Mof_H 	H 	0.78496	0.36044	0.16257	0.133
Mof_H 	H 	0.71629	0.36527	0.07925	0.138
Mof_H 	H 	0.74228	0.34966	0.26582	0.148
Mof_C 	C 	0.9029	0.4558	0.428	-0.2
Mof_C 	C 	0.8362	0.3919	0.5266	-0.189
Mof_C 	C 	0.9473	0.4125	0.5305	0.067
Mof_H 	H 	0.91172	0.49184	0.36269	0.056
Mof_C 	C 	0.8811	0.353	0.6234	0.082
Mof_H 	H 	0.79795	0.38306	0.52867	0.084
Mof_H 	H 	0.98605	0.42049	0.53238	-0.057
Mof_H 	H 	0.873	0.31871	0.69338	-0.041
Mof_O 	O 	0.0361	0.2835	0.5709	-0.752
Mof_N 	N 	0.0606	0.2022	0.8756	-0.247
Mof_N 	N 	0.9374	0.3607	0.6253	-0.25
Mof_C 	C 	0.0863	0.156	0.805	0.091
Mof_C 	C 	0.0798	0.2051	0.0351	0.088
Mof_Cr	Cr	0.94344	0.29404	0.0834	1.448
Mof_C 	C 	0.1323	0.1129	0.8877	-0.174
Mof_H 	H 	0.07249	0.15245	0.69241	-0.037
Mof_H 	H 	0.06172	0.23776	0.08758	-0.056
Mof_C 	C 	0.1246	0.1625	0.1255	-0.167
Mof_H 	H 	0.1496	0.0805	0.83282	0.078
Mof_C 	C 	0.1533	0.1175	0.055	0.087
Mof_H 	H 	0.1356	0.1646	0.2381	0.04
Mof_C 	C 	0.2041	0.0742	0.15	-0.031
Mof_C 	C 	0.2049	0.9994	0.1224	-0.145
Mof_C 	C 	0.2507	0.106	0.2642	0.055
Mof_H 	H 	0.17325	0.97825	0.04219	0.067
Mof_C 	C 	0.2503	0.9549	0.2084	0.164
Mof_C 	C 	0.2964	0.0615	0.35	-0.044
Mof_C 	C 	0.2565	0.188	0.2933	-0.345
Mof_C 	C 	0.2964	0.9875	0.3258	-0.106
Mof_C 	C 	0.2483	0.8758	0.1763	-0.485
Mof_H 	H 	0.32865	0.08278	0.42774	-0.007
Mof_H 	H 	0.24675	0.2134	0.19121	0.107
Mof_H 	H 	0.29647	0.19959	0.35683	0.068
Mof_H 	H 	0.23004	0.20347	0.35045	0.089
Mof_C 	C 	0.3453	0.944	0.4256	0.106
Mof_H 	H 	0.28496	0.86044	0.16257	0.133
Mof_H 	H 	0.21629	0.86527	0.07925	0.138
Mof_H 	H 	0.24228	0.84966	0.26582	0.148
Mof_C 	C 	0.4029	0.9558	0.428	-0.201
Mof_C 	C 	0.3362	0.8919	0.5266	-0.189
Mof_C 	C 	0.4473	0.9125	0.5305	0.066
Mof_H 	H 	0.41172	0.99184	0.36269	0.055
Mof_C 	C 	0.3811	0.853	0.6234	0.082
Mof_H 	H 	0.29795	0.88306	0.52867	0.085
Mof_H 	H 	0.48605	0.92049	0.53238	-0.064
Mof_H 	H 	0.373	0.81871	0.69338	-0.041
Mof_Co	Co	0.5	0.78312	0.75	1.169
Mof_Co	Co	-1.50372e-17	0.28312	0.75	1.162
Mof_O 	O 	0.5	0.7625	0.25	-0.852
Mof_O 	O 	3.75931e-18	0.2625	0.25	-0.865
Mof_O 	O 	0.5361	0.2165	0.0709	-0.748
Mof_N 	N 	0.5606	0.2978	0.3756	-0.243
Mof_N 	N 	0.4374	0.1393	0.1253	-0.254
Mof_C 	C 	0.5863	0.344	0.305	0.091
Mof_C 	C 	0.5798	0.2949	0.5351	0.086
Mof_Cr	Cr	0.44344	0.20596	0.5834	1.424
Mof_C 	C 	0.6323	0.3871	0.3877	-0.171
Mof_H 	H 	0.57249	0.34755	0.19241	-0.034
Mof_H 	H 	0.56172	0.26224	0.58758	-0.053
Mof_C 	C 	0.6246	0.3375	0.6255	-0.164
Mof_H 	H 	0.6496	0.4195	0.33282	0.077
Mof_C 	C 	0.6533	0.3825	0.555	0.085
Mof_H 	H 	0.6356	0.3354	0.7381	0.04
Mof_C 	C 	0.7041	0.4258	0.65	-0.03
Mof_C 	C 	0.7049	0.5006	0.6224	-0.144
Mof_C 	C 	0.7507	0.394	0.7642	0.055
Mof_H 	H 	0.67325	0.52175	0.54219	0.067
Mof_C 	C 	0.7503	0.5451	0.7084	0.163
Mof_C 	C 	0.7964	0.4385	0.85	-0.044
Mof_C 	C 	0.7565	0.312	0.7933	-0.344
Mof_C 	C 	0.7964	0.5125	0.8258	-0.106
Mof_C 	C 	0.7483	0.6242	0.6763	-0.484
Mof_H 	H 	0.82865	0.41722	0.92774	-0.007
Mof_H 	H 	0.74675	0.2866	0.69121	0.106
Mof_H 	H 	0.79647	0.30041	0.85683	0.067
Mof_H 	H 	0.73004	0.29653	0.85045	0.089
Mof_C 	C 	0.8453	0.556	0.9256	0.106
Mof_H 	H 	0.78496	0.63956	0.66257	0.133
Mof_H 	H 	0.71629	0.63473	0.57925	0.138
Mof_H 	H 	0.74228	0.65034	0.76582	0.148
Mof_C 	C 	0.9029	0.5442	0.928	-0.199
Mof_C 	C 	0.8362	0.6081	0.0266	-0.19
Mof_C 	C 	0.9473	0.5875	0.0305	0.066
Mof_H 	H 	0.91172	0.50816	0.86269	0.056
Mof_C 	C 	0.8811	0.647	0.1234	0.082
Mof_H 	H 	0.79795	0.61694	0.02867	0.084
Mof_H 	H 	0.98605	0.57951	0.03238	-0.057
Mof_H 	H 	0.873	0.68129	0.19338	-0.041
Mof_O 	O 	0.0361	0.7165	0.0709	-0.751
Mof_N 	N 	0.0606	0.7978	0.3756	-0.245
Mof_N 	N 	0.9374	0.6393	0.1253	-0.25
Mof_C 	C 	0.0863	0.844	0.305	0.09
Mof_C 	C 	0.0798	0.7949	0.5351	0.085
Mof_Cr	Cr	0.94344	0.70596	0.5834	1.45
Mof_C 	C 	0.1323	0.8871	0.3877	-0.171
Mof_H 	H 	0.07249	0.84755	0.19241	-0.036
Mof_H 	H 	0.06172	0.76224	0.58758	-0.055
Mof_C 	C 	0.1246	0.8375	0.6255	-0.165
Mof_H 	H 	0.1496	0.9195	0.33282	0.077
Mof_C 	C 	0.1533	0.8825	0.555	0.085
Mof_H 	H 	0.1356	0.8354	0.7381	0.039
Mof_C 	C 	0.2041	0.9258	0.65	-0.031
Mof_C 	C 	0.2049	0.0006	0.6224	-0.145
Mof_C 	C 	0.2507	0.894	0.7642	0.055
Mof_H 	H 	0.17325	0.02175	0.54219	0.066
Mof_C 	C 	0.2503	0.0451	0.7084	0.163
Mof_C 	C 	0.2964	0.9385	0.85	-0.044
Mof_C 	C 	0.2565	0.812	0.7933	-0.344
Mof_C 	C 	0.2964	0.0125	0.8258	-0.106
Mof_C 	C 	0.2483	0.1242	0.6763	-0.484
Mof_H 	H 	0.32865	0.91722	0.92774	-0.007
Mof_H 	H 	0.24675	0.7866	0.69121	0.107
Mof_H 	H 	0.29647	0.80041	0.85683	0.068
Mof_H 	H 	0.23004	0.79653	0.85045	0.089
Mof_C 	C 	0.3453	0.056	0.9256	0.105
Mof_H 	H 	0.28496	0.13956	0.66257	0.133
Mof_H 	H 	0.21629	0.13473	0.57925	0.138
Mof_H 	H 	0.24228	0.15034	0.76582	0.148
Mof_C 	C 	0.4029	0.0442	0.928	-0.202
Mof_C 	C 	0.3362	0.1081	0.0266	-0.188
Mof_C 	C 	0.4473	0.0875	0.0305	0.067
Mof_H 	H 	0.41172	0.00816	0.86269	0.055
Mof_C 	C 	0.3811	0.147	0.1234	0.081
Mof_H 	H 	0.29795	0.11694	0.02867	0.084
Mof_H 	H 	0.48605	0.07951	0.03238	-0.064
Mof_H 	H 	0.373	0.18129	0.19338	-0.04
Mof_O 	O 	0.4639	0.2165	0.4291	-0.748
Mof_N 	N 	0.4394	0.2978	0.1244	-0.243
Mof_N 	N 	0.5626	0.1393	0.3747	-0.254
Mof_C 	C 	0.4137	0.344	0.195	0.091
Mof_C 	C 	0.4202	0.2949	0.9649	0.086
Mof_Cr	Cr	0.55656	0.20596	0.9166	1.424
Mof_C 	C 	0.3677	0.3871	0.1123	-0.17
Mof_H 	H 	0.42751	0.34755	0.30759	-0.034
Mof_H 	H 	0.43828	0.26224	0.91242	-0.053
Mof_C 	C 	0.3754	0.3375	0.8745	-0.164
Mof_H 	H 	0.3504	0.4195	0.16718	0.077
Mof_C 	C 	0.3467	0.3825	0.945	0.084
Mof_H 	H 	0.3644	0.3354	0.7619	0.039
Mof_C 	C 	0.2959	0.4258	0.85	-0.03
Mof_C 	C 	0.2951	0.5006	0.8776	-0.144
Mof_C 	C 	0.2493	0.394	0.7358	0.055
Mof_H 	H 	0.32675	0.52175	0.95781	0.067
Mof_C 	C 	0.2497	0.5451	0.7916	0.164
Mof_C 	C 	0.2036	0.4385	0.65	-0.045
Mof_C 	C 	0.2435	0.312	0.7067	-0.344
Mof_C 	C 	0.2036	0.5125	0.6742	-0.106
Mof_C 	C 	0.2517	0.6242	0.8237	-0.484
Mof_H 	H 	0.17135	0.41722	0.57226	-0.008
Mof_H 	H 	0.25325	0.2866	0.80879	0.107
Mof_H 	H 	0.20353	0.30041	0.64317	0.068
Mof_H 	H 	0.26996	0.29653	0.64955	0.089
Mof_C 	C 	0.1547	0.556	0.5744	0.106
Mof_H 	H 	0.21504	0.63956	0.83743	0.133
Mof_H 	H 	0.28371	0.63473	0.92075	0.138
Mof_H 	H 	0.25772	0.65034	0.73418	0.148
Mof_C 	C 	0.0971	0.5442	0.572	-0.202
Mof_C 	C 	0.1638	0.6081	0.4734	-0.189
Mof_C 	C 	0.0527	0.5875	0.4695	0.066
Mof_H 	H 	0.08828	0.50816	0.63731	0.053
Mof_C 	C 	0.1189	0.647	0.3766	0.081
Mof_H 	H 	0.20205	0.61694	0.47133	0.085
Mof_H 	H 	0.01395	0.57951	0.46762	-0.069
Mof_H 	H 	0.127	0.68129	0.30662	-0.041
Mof_O 	O 	0.9639	0.7165	0.4291	-0.746
Mof_N 	N 	0.9394	0.7978	0.1244	-0.24
Mof_N 	N 	0.0626	0.6393	0.3747	-0.256
Mof_C 	C 	0.9137	0.844	0.195	0.092
Mof_C 	C 	0.9202	0.7949	0.9649	0.088
Mof_Cr	Cr	0.05656	0.70596	0.9166	1.417
Mof_C 	C 	0.8677	0.8871	0.1123	-0.171
Mof_H 	H 	0.92751	0.84755	0.30759	-0.032
Mof_H 	H 	0.93828	0.76224	0.91242	-0.05
Mof_C 	C 	0.8754	0.8375	0.8745	-0.164
Mof_H 	H 	0.8504	0.9195	0.16718	0.078
Mof_C 	C 	0.8467	0.8825	0.945	0.086
Mof_H 	H 	0.8644	0.8354	0.7619	0.04
Mof_C 	C 	0.7959	0.9258	0.85	-0.029
Mof_C 	C 	0.7951	0.0006	0.8776	-0.145
Mof_C 	C 	0.7493	0.894	0.7358	0.054
Mof_H 	H 	0.82675	0.02175	0.95781	0.068
Mof_C 	C 	0.7497	0.0451	0.7916	0.164
Mof_C 	C 	0.7036	0.9385	0.65	-0.044
Mof_C 	C 	0.7435	0.812	0.7067	-0.344
Mof_C 	C 	0.7036	0.0125	0.6742	-0.107
Mof_C 	C 	0.7517	0.1242	0.8237	-0.485
Mof_H 	H 	0.67135	0.91722	0.57226	-0.008
Mof_H 	H 	0.75325	0.7866	0.80879	0.107
Mof_H 	H 	0.70353	0.80041	0.64317	0.067
Mof_H 	H 	0.76996	0.79653	0.64955	0.088
Mof_C 	C 	0.6547	0.056	0.5744	0.106
Mof_H 	H 	0.71504	0.13956	0.83743	0.133
Mof_H 	H 	0.78371	0.13473	0.92075	0.139
Mof_H 	H 	0.75772	0.15034	0.73418	0.148
Mof_C 	C 	0.5971	0.0442	0.572	-0.201
Mof_C 	C 	0.6638	0.1081	0.4734	-0.189
Mof_C 	C 	0.5527	0.0875	0.4695	0.066
Mof_H 	H 	0.58828	0.00816	0.63731	0.055
Mof_C 	C 	0.6189	0.147	0.3766	0.082
Mof_H 	H 	0.70205	0.11694	0.47133	0.085
Mof_H 	H 	0.51395	0.07951	0.46762	-0.064
Mof_H 	H 	0.627	0.18129	0.30662	-0.041
Mof_Co	Co	0.5	0.21688	0.25	1.169
Mof_Co	Co	-3.75931e-18	0.71688	0.25	1.163
Mof_O 	O 	0.5	0.2375	0.75	-0.852
Mof_O 	O 	-1.50372e-17	0.7375	0.75	-0.865
_end
