data_functionalizedCrystal
_audit_creation_method	'EQeq! by Chris Wilmer'
_symmetry_space_group_name_H-M	'P1'
_symmetry_Int_Tables_number	1
_symmetry_cell_setting	triclinic
loop_
_symmetry_equiv_pos_as_xyz
  x,y,z
_cell_length_a	8.7167
_cell_length_b	9.752
_cell_length_c	13.8642
_cell_angle_alpha	84.03
_cell_angle_beta	79.446
_cell_angle_gamma	73.029
loop_
_atom_site_label
_atom_site_type_symbol
_atom_site_fract_x
_atom_site_fract_y
_atom_site_fract_z
_atom_site_charge
Mof_C 	C 	0.0078	0.6311	0.9202	0.067
Mof_H 	H 	0.9941	0.6973	0.9688	0.016
Mof_C 	C 	0.8691	0.6199	0.8887	-0.125
Mof_C 	C 	0.8921	0.5273	0.814	0.062
Mof_H 	H 	0.8016	0.5202	0.7878	0.006
Mof_C 	C 	0.0473	0.4456	0.778	-0.15
Mof_C 	C 	0.1773	0.4608	0.8171	0.093
Mof_H 	H 	0.2835	0.4028	0.7941	-0.013
Mof_C 	C 	0.075	0.3462	0.6962	0.35
Mof_C 	C 	0.9298	0.9351	0.1077	0.061
Mof_H 	H 	0.9479	0.8696	0.058	0.016
Mof_C 	C 	0.0634	0.9425	0.1462	-0.104
Mof_C 	C 	0.0332	0.0373	0.2211	0.054
Mof_H 	H 	0.1197	0.0439	0.2516	0.001
Mof_C 	C 	0.8755	0.1219	0.2506	-0.152
Mof_C 	C 	0.7521	0.1075	0.2056	0.066
Mof_H 	H 	0.645	0.1665	0.2251	-0.029
Mof_C 	C 	0.8306	0.2195	0.335	0.356
Mof_Co	Co	0.36193	0.58415	0.93975	1.129
Mof_Co	Co	0.5772	0.97889	0.08848	1.135
Mof_Co	Co	0.93989	0.27548	0.52239	1.053
Mof_N 	N 	0.1591	0.5541	0.886	-0.241
Mof_N 	N 	0.7762	0.0147	0.1363	-0.24
Mof_O 	O 	0.5831	0.8221	0.87347	-0.436
Mof_O 	O 	0.7043	0.785	0.03276	-0.424
Mof_O 	O 	0.5793	0.6023	0.98241	-0.548
Mof_O 	O 	0.9637	0.3755	0.64387	-0.484
Mof_O 	O 	0.2027	0.2441	0.68421	-0.328
Mof_O 	O 	0.3303	0.742	0.19089	-0.299
Mof_O 	O 	0.2336	0.7362	0.02807	-0.433
Mof_O 	O 	0.368	0.9265	0.05397	-0.508
Mof_O 	O 	0.7124	0.3287	0.33533	-0.338
Mof_O 	O 	0.9161	0.176	0.403	-0.494
Mof_P 	P 	0.6701	0.71806	0.94862	0.44
Mof_P 	P 	0.26487	0.82752	0.10086	0.44
Mof_C 	C 	0.9922	0.3689	0.0798	0.068
Mof_H 	H 	0.0059	0.3027	0.0312	0.017
Mof_C 	C 	0.1309	0.3801	0.1113	-0.125
Mof_C 	C 	0.1079	0.4727	0.186	0.062
Mof_H 	H 	0.1984	0.4798	0.2122	0.006
Mof_C 	C 	0.9527	0.5544	0.222	-0.15
Mof_C 	C 	0.8227	0.5392	0.1829	0.093
Mof_H 	H 	0.7165	0.5972	0.2059	-0.013
Mof_C 	C 	0.925	0.6538	0.3038	0.35
Mof_C 	C 	0.0702	0.0649	0.8923	0.061
Mof_H 	H 	0.0521	0.1304	0.942	0.016
Mof_C 	C 	0.9366	0.0575	0.8538	-0.104
Mof_C 	C 	0.9668	0.9627	0.7789	0.054
Mof_H 	H 	0.8803	0.9561	0.7484	0.001
Mof_C 	C 	0.1245	0.8781	0.7494	-0.152
Mof_C 	C 	0.2479	0.8925	0.7944	0.066
Mof_H 	H 	0.355	0.8335	0.7749	-0.029
Mof_C 	C 	0.1694	0.7805	0.665	0.356
Mof_Co	Co	0.63807	0.41585	0.06025	1.129
Mof_Co	Co	0.4228	0.02111	0.91152	1.135
Mof_Co	Co	0.06011	0.72452	0.47761	1.053
Mof_N 	N 	0.8409	0.4459	0.114	-0.241
Mof_N 	N 	0.2238	0.9853	0.8637	-0.24
Mof_O 	O 	0.4169	0.1779	0.12653	-0.436
Mof_O 	O 	0.2957	0.215	0.96724	-0.424
Mof_O 	O 	0.4207	0.3977	0.01759	-0.548
Mof_O 	O 	0.0363	0.6245	0.35613	-0.484
Mof_O 	O 	0.7973	0.7559	0.31579	-0.328
Mof_O 	O 	0.6697	0.258	0.80911	-0.299
Mof_O 	O 	0.7664	0.2638	0.97193	-0.433
Mof_O 	O 	0.632	0.0735	0.94603	-0.508
Mof_O 	O 	0.2876	0.6713	0.66467	-0.338
Mof_O 	O 	0.0839	0.824	0.597	-0.494
Mof_P 	P 	0.3299	0.28194	0.05138	0.44
Mof_P 	P 	0.73513	0.17248	0.89914	0.44
_end
