data_functionalizedCrystal
_audit_creation_method	'EQeq! by Chris Wilmer'
_symmetry_space_group_name_H-M	'P1'
_symmetry_Int_Tables_number	1
_symmetry_cell_setting	triclinic
loop_
_symmetry_equiv_pos_as_xyz
  x,y,z
_cell_length_a	10.7647
_cell_length_b	10.7647
_cell_length_c	26.7578
_cell_angle_alpha	90
_cell_angle_beta	90
_cell_angle_gamma	120
loop_
_atom_site_label
_atom_site_type_symbol
_atom_site_fract_x
_atom_site_fract_y
_atom_site_fract_z
_atom_site_charge
Mof_Ni	Ni	0.21877	0.05108	0.86668	1.104
Mof_Ni	Ni	0.83231	0.78123	0.20001	1.098
Mof_Ni	Ni	0.94892	0.16769	0.53335	1.1
Mof_Ni	Ni	0.16769	0.94892	0.13332	1.099
Mof_Ni	Ni	0.05108	0.21877	0.79999	1.103
Mof_Ni	Ni	0.78123	0.83231	0.46665	1.098
Mof_H 	H 	0.015	0.4672	0.8289	0.027
Mof_H 	H 	0.3044	0.817	0.757	0.043
Mof_H 	H 	0.2058	0.4252	0.7116	0.015
Mof_H 	H 	0.5214	0.8729	0.7236	0.105
Mof_H 	H 	0.6868	0.9772	0.6609	0.005
Mof_H 	H 	0.446	0.6452	0.571	0.028
Mof_H 	H 	0.2784	0.539	0.634	0.088
Mof_H 	H 	0.4522	0.985	0.16223	0.02
Mof_H 	H 	0.5126	0.6956	0.09033	0.044
Mof_H 	H 	0.2194	0.7942	0.04493	0.015
Mof_H 	H 	0.3515	0.4786	0.05693	0.109
Mof_H 	H 	0.2904	0.3132	0.99423	0.011
Mof_H 	H 	0.1992	0.554	0.90433	0.027
Mof_H 	H 	0.2606	0.7216	0.96733	0.086
Mof_H 	H 	0.5328	0.5478	0.49557	0.025
Mof_H 	H 	0.183	0.4874	0.42367	0.048
Mof_H 	H 	0.5748	0.7806	0.37827	0.012
Mof_H 	H 	0.1271	0.6485	0.39027	0.113
Mof_H 	H 	0.0228	0.7096	0.32757	0.012
Mof_H 	H 	0.3548	0.8008	0.23767	0.025
Mof_H 	H 	0.461	0.7394	0.30067	0.087
Mof_H 	H 	0.5478	0.5328	0.1711	0.025
Mof_H 	H 	0.4874	0.183	0.243	0.048
Mof_H 	H 	0.7806	0.5748	0.2884	0.012
Mof_H 	H 	0.6485	0.1271	0.2764	0.113
Mof_H 	H 	0.7096	0.0228	0.3391	0.012
Mof_H 	H 	0.8008	0.3548	0.429	0.025
Mof_H 	H 	0.7394	0.461	0.366	0.087
Mof_H 	H 	0.4672	0.015	0.83777	0.027
Mof_H 	H 	0.817	0.3044	0.90967	0.043
Mof_H 	H 	0.4252	0.2058	0.95507	0.015
Mof_H 	H 	0.8729	0.5214	0.94307	0.105
Mof_H 	H 	0.9772	0.6868	0.00577	0.004
Mof_H 	H 	0.6452	0.446	0.09567	0.028
Mof_H 	H 	0.539	0.2784	0.03267	0.088
Mof_H 	H 	0.985	0.4522	0.50443	0.02
Mof_H 	H 	0.6956	0.5126	0.57633	0.044
Mof_H 	H 	0.7942	0.2194	0.62173	0.015
Mof_H 	H 	0.4786	0.3515	0.60973	0.109
Mof_H 	H 	0.3132	0.2904	0.67243	0.011
Mof_H 	H 	0.554	0.1992	0.76233	0.027
Mof_H 	H 	0.7216	0.2606	0.69933	0.086
Mof_C 	C 	0.0812	0.5088	0.80309	0.072
Mof_C 	C 	0.1531	0.6557	0.7986	-0.103
Mof_C 	C 	0.2521	0.7177	0.76023	0.021
Mof_C 	C 	0.2732	0.6319	0.72667	-0.058
Mof_C 	C 	0.194	0.4842	0.73419	0.042
Mof_C 	C 	0.3799	0.695	0.68532	0.11
Mof_C 	C 	0.505	0.8271	0.69281	-0.166
Mof_C 	C 	0.604	0.8898	0.65508	0.091
Mof_C 	C 	0.583	0.8256	0.60863	-0.147
Mof_C 	C 	0.4605	0.6919	0.60152	0.077
Mof_C 	C 	0.3598	0.6277	0.63945	-0.151
Mof_C 	C 	0.1308	0.749	0.83603	0.351
Mof_C 	C 	0.689	0.89807	0.56698	0.391
Mof_C 	C 	0.4276	0.9188	0.13642	0.072
Mof_C 	C 	0.5026	0.8469	0.13193	-0.106
Mof_C 	C 	0.4656	0.7479	0.09356	0.021
Mof_C 	C 	0.3587	0.7268	0.06	-0.058
Mof_C 	C 	0.2902	0.806	0.06752	0.042
Mof_C 	C 	0.3151	0.6201	0.01865	0.112
Mof_C 	C 	0.3221	0.495	0.02614	-0.165
Mof_C 	C 	0.2858	0.396	0.98841	0.094
Mof_C 	C 	0.2426	0.417	0.94196	-0.149
Mof_C 	C 	0.2314	0.5395	0.93485	0.08
Mof_C 	C 	0.2679	0.6402	0.97278	-0.153
Mof_C 	C 	0.6182	0.8692	0.16936	0.352
Mof_C 	C 	0.20907	0.311	0.90031	0.408
Mof_C 	C 	0.4912	0.5724	0.46976	0.071
Mof_C 	C 	0.3443	0.4974	0.46527	-0.101
Mof_C 	C 	0.2823	0.5344	0.4269	0.02
Mof_C 	C 	0.3681	0.6413	0.39334	-0.059
Mof_C 	C 	0.5158	0.7098	0.40086	0.042
Mof_C 	C 	0.305	0.6849	0.35199	0.114
Mof_C 	C 	0.1729	0.6779	0.35948	-0.17
Mof_C 	C 	0.1102	0.7142	0.32175	0.101
Mof_C 	C 	0.1744	0.7574	0.2753	-0.157
Mof_C 	C 	0.3081	0.7686	0.26819	0.085
Mof_C 	C 	0.3723	0.7321	0.30612	-0.156
Mof_C 	C 	0.251	0.3818	0.5027	0.351
Mof_C 	C 	0.10193	0.79093	0.23365	0.427
Mof_C 	C 	0.5724	0.4912	0.19691	0.071
Mof_C 	C 	0.4974	0.3443	0.2014	-0.101
Mof_C 	C 	0.5344	0.2823	0.23977	0.02
Mof_C 	C 	0.6413	0.3681	0.27333	-0.058
Mof_C 	C 	0.7098	0.5158	0.26581	0.042
Mof_C 	C 	0.6849	0.305	0.31468	0.114
Mof_C 	C 	0.6779	0.1729	0.30719	-0.17
Mof_C 	C 	0.7142	0.1102	0.34492	0.101
Mof_C 	C 	0.7574	0.1744	0.39137	-0.157
Mof_C 	C 	0.7686	0.3081	0.39848	0.085
Mof_C 	C 	0.7321	0.3723	0.36055	-0.156
Mof_C 	C 	0.3818	0.251	0.16397	0.35
Mof_C 	C 	0.79093	0.10193	0.43302	0.427
Mof_C 	C 	0.5088	0.0812	0.86358	0.072
Mof_C 	C 	0.6557	0.1531	0.86807	-0.103
Mof_C 	C 	0.7177	0.2521	0.90644	0.02
Mof_C 	C 	0.6319	0.2732	0.94	-0.058
Mof_C 	C 	0.4842	0.194	0.93248	0.042
Mof_C 	C 	0.695	0.3799	0.98135	0.109
Mof_C 	C 	0.8271	0.505	0.97386	-0.166
Mof_C 	C 	0.8898	0.604	0.01159	0.091
Mof_C 	C 	0.8256	0.583	0.05804	-0.147
Mof_C 	C 	0.6919	0.4605	0.06515	0.077
Mof_C 	C 	0.6277	0.3598	0.02722	-0.151
Mof_C 	C 	0.749	0.1308	0.83064	0.351
Mof_C 	C 	0.89807	0.689	0.09969	0.39
Mof_C 	C 	0.9188	0.4276	0.53024	0.072
Mof_C 	C 	0.8469	0.5026	0.53473	-0.106
Mof_C 	C 	0.7479	0.4656	0.5731	0.021
Mof_C 	C 	0.7268	0.3587	0.60666	-0.058
Mof_C 	C 	0.806	0.2902	0.59914	0.042
Mof_C 	C 	0.6201	0.3151	0.64801	0.112
Mof_C 	C 	0.495	0.3221	0.64052	-0.166
Mof_C 	C 	0.396	0.2858	0.67825	0.095
Mof_C 	C 	0.417	0.2426	0.7247	-0.149
Mof_C 	C 	0.5395	0.2314	0.73181	0.08
Mof_C 	C 	0.6402	0.2679	0.69388	-0.152
Mof_C 	C 	0.8692	0.6182	0.4973	0.352
Mof_C 	C 	0.311	0.20907	0.76635	0.408
Mof_N 	N 	0.10158	0.4221	0.77219	-0.213
Mof_N 	N 	0.32052	0.89842	0.10552	-0.216
Mof_N 	N 	0.5779	0.67948	0.43886	-0.215
Mof_N 	N 	0.67948	0.5779	0.22781	-0.215
Mof_N 	N 	0.4221	0.10158	0.89448	-0.213
Mof_N 	N 	0.89842	0.32052	0.56114	-0.216
Mof_O 	O 	0.0527	0.68716	0.87253	-0.288
Mof_O 	O 	0.19686	0.88012	0.82663	-0.41
Mof_O 	O 	0.79576	0.01674	0.57711	-0.434
Mof_O 	O 	0.66159	0.83424	0.52546	-0.416
Mof_O 	O 	0.63446	0.9473	0.20586	-0.297
Mof_O 	O 	0.68326	0.80314	0.15996	-0.408
Mof_O 	O 	0.22098	0.20424	0.91044	-0.446
Mof_O 	O 	0.17265	0.33841	0.85879	-0.417
Mof_O 	O 	0.31284	0.36554	0.5392	-0.287
Mof_O 	O 	0.11988	0.31674	0.4933	-0.397
Mof_O 	O 	0.98326	0.77902	0.24378	-0.466
Mof_O 	O 	0.16576	0.82735	0.19213	-0.421
Mof_O 	O 	0.36554	0.31284	0.12747	-0.287
Mof_O 	O 	0.31674	0.11988	0.17337	-0.397
Mof_O 	O 	0.77902	0.98326	0.42289	-0.466
Mof_O 	O 	0.82735	0.16576	0.47454	-0.421
Mof_O 	O 	0.68716	0.0527	0.79414	-0.288
Mof_O 	O 	0.88012	0.19686	0.84004	-0.41
Mof_O 	O 	0.01674	0.79576	0.08956	-0.434
Mof_O 	O 	0.83424	0.66159	0.14121	-0.416
Mof_O 	O 	0.9473	0.63446	0.4608	-0.297
Mof_O 	O 	0.80314	0.68326	0.5067	-0.408
Mof_O 	O 	0.20424	0.22098	0.75622	-0.445
Mof_O 	O 	0.33841	0.17265	0.80787	-0.417
Mof_O 	O 	0.02371	0.02371	0.83333	-0.372
Mof_O 	O 	-5.07361e-17	0.97629	0.16667	-0.376
Mof_O 	O 	0.97629	-1.88016e-32	0.5	-0.376
_end
