# CIF file generated by openbabel 3.1.0, see https://openbabel.org
data_I
_chemical_name_common 'image0'
_cell_length_a 22.176
_cell_length_b 9.636
_cell_length_c 11.2931
_cell_angle_alpha 90
_cell_angle_beta 90
_cell_angle_gamma 90
_space_group_name_H-M_alt 'P 1'
_space_group_name_Hall 'P 1'
loop_
    _symmetry_equiv_pos_as_xyz
    x,y,z
loop_
    _atom_site_label
    _atom_site_type_symbol
    _atom_site_fract_x
    _atom_site_fract_y
    _atom_site_fract_z
    _atom_site_occupancy
    F1       F        0.56251    0.35390    0.56017    1.000
    F2       F        0.44515    0.36117    0.56326    1.000
    N1       N        0.70031    0.11800    0.90020    1.000
    N2       N        0.30517    0.10980    0.89020    1.000
    C1       C        0.53495    0.30220    0.65670    1.000
    C2       C        0.47272    0.30430    0.65780    1.000
    C3       C        0.33719    0.17160    0.82910    1.000
    C4       C        0.66994    0.17750    0.83430    1.000
    F3       F        0.93749    0.64610    0.56017    1.000
    F4       F        0.05485    0.63883    0.56326    1.000
    N3       N        0.79969    0.88200    0.90020    1.000
    N4       N        0.19483    0.89020    0.89020    1.000
    C5       C        0.96505    0.69780    0.65670    1.000
    C6       C        0.02728    0.69570    0.65780    1.000
    C7       C        0.16281    0.82840    0.82910    1.000
    C8       C        0.83006    0.82250    0.83430    1.000
    F5       F        0.93749    0.85390    0.93983    1.000
    F6       F        0.05485    0.86117    0.93674    1.000
    N5       N        0.79969    0.61800    0.59980    1.000
    N6       N        0.19483    0.60980    0.60980    1.000
    C9       C        0.96505    0.80220    0.84330    1.000
    C10      C        0.02728    0.80430    0.84220    1.000
    C11      C        0.16281    0.67160    0.67090    1.000
    C12      C        0.83006    0.67750    0.66570    1.000
    F7       F        0.56251    0.14610    0.93983    1.000
    F8       F        0.44515    0.13883    0.93674    1.000
    N7       N        0.70031    0.38200    0.59980    1.000
    N8       N        0.30517    0.39020    0.60980    1.000
    C13      C        0.53495    0.19780    0.84330    1.000
    C14      C        0.47272    0.19570    0.84220    1.000
    C15      C        0.33719    0.32840    0.67090    1.000
    C16      C        0.66994    0.32250    0.66570    1.000
    F9       F        0.43749    0.64610    0.43983    1.000
    F10      F        0.55485    0.63883    0.43674    1.000
    N9       N        0.29969    0.88200    0.09980    1.000
    N10      N        0.69483    0.89020    0.10980    1.000
    C17      C        0.46505    0.69780    0.34330    1.000
    C18      C        0.52728    0.69570    0.34220    1.000
    C19      C        0.66281    0.82840    0.17090    1.000
    C20      C        0.33006    0.82250    0.16570    1.000
    F11      F        0.06251    0.35390    0.43983    1.000
    F12      F        0.94515    0.36117    0.43674    1.000
    N11      N        0.20031    0.11800    0.09980    1.000
    N12      N        0.80517    0.10980    0.10980    1.000
    C21      C        0.03495    0.30220    0.34330    1.000
    C22      C        0.97272    0.30430    0.34220    1.000
    C23      C        0.83719    0.17160    0.17090    1.000
    C24      C        0.16994    0.17750    0.16570    1.000
    F13      F        0.06251    0.14610    0.06017    1.000
    F14      F        0.94515    0.13883    0.06326    1.000
    N13      N        0.20031    0.38200    0.40020    1.000
    N14      N        0.80517    0.39020    0.39020    1.000
    C25      C        0.03495    0.19780    0.15670    1.000
    C26      C        0.97272    0.19570    0.15780    1.000
    C27      C        0.83719    0.32840    0.32910    1.000
    C28      C        0.16994    0.32250    0.33430    1.000
    F15      F        0.43749    0.85390    0.06017    1.000
    F16      F        0.55485    0.86117    0.06326    1.000
    N15      N        0.29969    0.61800    0.40020    1.000
    N16      N        0.69483    0.60980    0.39020    1.000
    C29      C        0.46505    0.80220    0.15670    1.000
    C30      C        0.52728    0.80430    0.15780    1.000
    C31      C        0.66281    0.67160    0.32910    1.000
    C32      C        0.33006    0.67750    0.33430    1.000
    Cu1      Cu       0.25000    0.00000    0.99140    1.000
    Cu2      Cu       0.25000    0.50000    0.50860    1.000
    Cu3      Cu       0.75000    0.00000    0.00860    1.000
    Cu4      Cu       0.75000    0.50000    0.49140    1.000
    C33      C        0.63583    0.25000    0.75000    1.000
    C34      C        0.43775    0.25000    0.75000    1.000
    C35      C        0.37190    0.25000    0.75000    1.000
    C36      C        0.56982    0.25000    0.75000    1.000
    C37      C        0.86417    0.75000    0.75000    1.000
    C38      C        0.06225    0.75000    0.75000    1.000
    C39      C        0.12810    0.75000    0.75000    1.000
    C40      C        0.93018    0.75000    0.75000    1.000
    C41      C        0.36417    0.75000    0.25000    1.000
    C42      C        0.56225    0.75000    0.25000    1.000
    C43      C        0.62810    0.75000    0.25000    1.000
    C44      C        0.43018    0.75000    0.25000    1.000
    C45      C        0.13583    0.25000    0.25000    1.000
    C46      C        0.93775    0.25000    0.25000    1.000
    C47      C        0.87190    0.25000    0.25000    1.000
    C48      C        0.06982    0.25000    0.25000    1.000
