data_functionalizedCrystal
_audit_creation_method	'EQeq! by Chris Wilmer'
_symmetry_space_group_name_H-M	'P1'
_symmetry_Int_Tables_number	1
_symmetry_cell_setting	triclinic
loop_
_symmetry_equiv_pos_as_xyz
  x,y,z
_cell_length_a	51.363
_cell_length_b	51.363
_cell_length_c	51.363
_cell_angle_alpha	90
_cell_angle_beta	90
_cell_angle_gamma	90
loop_
_atom_site_label
_atom_site_type_symbol
_atom_site_fract_x
_atom_site_fract_y
_atom_site_fract_z
_atom_site_charge
Mof_Al	Al	0.1338	0.3299	0.2805	5.573
Mof_Al	Al	0.0384	0.3558	0.3112	4.904
Mof_Al	Al	0.0953	0.3616	0.2224	7.192
Mof_P 	P 	0.0888	0.3704	0.2811	1.391
Mof_P 	P 	0.1347	0.3162	0.2208	1.381
Mof_P 	P 	0.046	0.3517	0.1883	1.101
Mof_O 	O 	0.0809	0.3739	0.2504	-2
Mof_O 	O 	0.1141	0.3873	0.287	-2.41
Mof_O 	O 	0.1017	0.3409	0.2813	-1.821
Mof_O 	O 	0.0659	0.3712	0.2988	-1.485
Mof_O 	O 	0.1351	0.3093	0.2532	-1.488
Mof_O 	O 	0.1346	0.2971	0.1996	-1.591
Mof_O 	O 	0.1573	0.3365	0.2181	-2.011
Mof_O 	O 	0.0283	0.3368	0.2859	-1.627
Mof_O 	O 	0.0554	0.3304	0.1678	-1.462
Mof_O 	O 	0.0266	0.382	0.33	-1.505
Mof_O 	O 	0.1065	0.3295	0.2171	-2.051
Mof_O 	O 	0.0734	0.3661	0.1996	-1.974
Mof_O 	O 	0.0305	0.3413	0.2117	-1.557
Mof_O 	O 	0.0279	0.3725	0.1783	-1.123
Mof_Al	Al	0.1338	0.8299	0.7805	5.573
Mof_Al	Al	0.0384	0.8558	0.8112	4.905
Mof_Al	Al	0.0953	0.8616	0.7224	7.191
Mof_P 	P 	0.0888	0.8704	0.7811	1.391
Mof_P 	P 	0.1347	0.8162	0.7208	1.381
Mof_P 	P 	0.046	0.8517	0.6883	1.101
Mof_O 	O 	0.0809	0.8739	0.7504	-2
Mof_O 	O 	0.1141	0.8873	0.787	-2.409
Mof_O 	O 	0.1017	0.8409	0.7813	-1.821
Mof_O 	O 	0.0659	0.8712	0.7988	-1.485
Mof_O 	O 	0.1351	0.8093	0.7532	-1.488
Mof_O 	O 	0.1346	0.7971	0.6996	-1.591
Mof_O 	O 	0.1573	0.8365	0.7181	-2.011
Mof_O 	O 	0.0283	0.8368	0.7859	-1.627
Mof_O 	O 	0.0554	0.8304	0.6678	-1.462
Mof_O 	O 	0.0266	0.882	0.83	-1.505
Mof_O 	O 	0.1065	0.8295	0.7171	-2.051
Mof_O 	O 	0.0734	0.8661	0.6996	-1.973
Mof_O 	O 	0.0305	0.8413	0.7117	-1.557
Mof_O 	O 	0.0279	0.8725	0.6783	-1.123
Mof_Al	Al	0.6338	0.3299	0.7805	5.573
Mof_Al	Al	0.5384	0.3558	0.8112	4.909
Mof_Al	Al	0.5953	0.3616	0.7224	7.192
Mof_P 	P 	0.5888	0.3704	0.7811	1.392
Mof_P 	P 	0.6347	0.3162	0.7208	1.381
Mof_P 	P 	0.546	0.3517	0.6883	1.102
Mof_O 	O 	0.5809	0.3739	0.7504	-2
Mof_O 	O 	0.6141	0.3873	0.787	-2.41
Mof_O 	O 	0.6017	0.3409	0.7813	-1.821
Mof_O 	O 	0.5659	0.3712	0.7988	-1.486
Mof_O 	O 	0.6351	0.3093	0.7532	-1.488
Mof_O 	O 	0.6346	0.2971	0.6996	-1.591
Mof_O 	O 	0.6573	0.3365	0.7181	-2.011
Mof_O 	O 	0.5283	0.3368	0.7859	-1.629
Mof_O 	O 	0.5554	0.3304	0.6678	-1.463
Mof_O 	O 	0.5266	0.382	0.83	-1.506
Mof_O 	O 	0.6065	0.3295	0.7171	-2.051
Mof_O 	O 	0.5734	0.3661	0.6996	-1.974
Mof_O 	O 	0.5305	0.3413	0.7117	-1.561
Mof_O 	O 	0.5279	0.3725	0.6783	-1.126
Mof_Al	Al	0.6338	0.8299	0.2805	5.573
Mof_Al	Al	0.5384	0.8558	0.3112	4.909
Mof_Al	Al	0.5953	0.8616	0.2224	7.193
Mof_P 	P 	0.5888	0.8704	0.2811	1.392
Mof_P 	P 	0.6347	0.8162	0.2208	1.381
Mof_P 	P 	0.546	0.8517	0.1883	1.102
Mof_O 	O 	0.5809	0.8739	0.2504	-2
Mof_O 	O 	0.6141	0.8873	0.287	-2.409
Mof_O 	O 	0.6017	0.8409	0.2813	-1.821
Mof_O 	O 	0.5659	0.8712	0.2988	-1.486
Mof_O 	O 	0.6351	0.8093	0.2532	-1.488
Mof_O 	O 	0.6346	0.7971	0.1996	-1.591
Mof_O 	O 	0.6573	0.8365	0.2181	-2.011
Mof_O 	O 	0.5283	0.8368	0.2859	-1.629
Mof_O 	O 	0.5554	0.8304	0.1678	-1.463
Mof_O 	O 	0.5266	0.882	0.33	-1.506
Mof_O 	O 	0.6065	0.8295	0.2171	-2.051
Mof_O 	O 	0.5734	0.8661	0.1996	-1.974
Mof_O 	O 	0.5305	0.8413	0.2117	-1.561
Mof_O 	O 	0.5279	0.8725	0.1783	-1.126
Mof_Al	Al	0.8662	0.6701	0.2805	5.573
Mof_Al	Al	0.9616	0.6442	0.3112	4.914
Mof_Al	Al	0.9047	0.6384	0.2224	7.193
Mof_P 	P 	0.9112	0.6296	0.2811	1.392
Mof_P 	P 	0.8653	0.6838	0.2208	1.381
Mof_P 	P 	0.954	0.6483	0.1883	1.101
Mof_O 	O 	0.9191	0.6261	0.2504	-1.999
Mof_O 	O 	0.8859	0.6127	0.287	-2.409
Mof_O 	O 	0.8983	0.6591	0.2813	-1.82
Mof_O 	O 	0.9341	0.6288	0.2988	-1.485
Mof_O 	O 	0.8649	0.6907	0.2532	-1.487
Mof_O 	O 	0.8654	0.7029	0.1996	-1.59
Mof_O 	O 	0.8427	0.6635	0.2181	-2.01
Mof_O 	O 	0.9717	0.6632	0.2859	-1.624
Mof_O 	O 	0.9446	0.6696	0.1678	-1.462
Mof_O 	O 	0.9734	0.618	0.33	-1.502
Mof_O 	O 	0.8935	0.6705	0.2171	-2.05
Mof_O 	O 	0.9266	0.6339	0.1996	-1.972
Mof_O 	O 	0.9695	0.6587	0.2117	-1.553
Mof_O 	O 	0.9721	0.6275	0.1783	-1.118
Mof_Al	Al	0.8662	0.1701	0.7805	5.575
Mof_Al	Al	0.9616	0.1442	0.8112	4.915
Mof_Al	Al	0.9047	0.1384	0.7224	7.193
Mof_P 	P 	0.9112	0.1296	0.7811	1.393
Mof_P 	P 	0.8653	0.1838	0.7208	1.382
Mof_P 	P 	0.954	0.1483	0.6883	1.102
Mof_O 	O 	0.9191	0.1261	0.7504	-1.998
Mof_O 	O 	0.8859	0.1127	0.787	-2.408
Mof_O 	O 	0.8983	0.1591	0.7813	-1.82
Mof_O 	O 	0.9341	0.1288	0.7988	-1.485
Mof_O 	O 	0.8649	0.1907	0.7532	-1.487
Mof_O 	O 	0.8654	0.2029	0.6996	-1.59
Mof_O 	O 	0.8427	0.1635	0.7181	-2.01
Mof_O 	O 	0.9717	0.1632	0.7859	-1.624
Mof_O 	O 	0.9446	0.1696	0.6678	-1.462
Mof_O 	O 	0.9734	0.118	0.83	-1.502
Mof_O 	O 	0.8935	0.1705	0.7171	-2.05
Mof_O 	O 	0.9266	0.1339	0.6996	-1.972
Mof_O 	O 	0.9695	0.1587	0.7117	-1.553
Mof_O 	O 	0.9721	0.1275	0.6783	-1.118
Mof_Al	Al	0.3662	0.6701	0.7805	5.574
Mof_Al	Al	0.4616	0.6442	0.8112	4.91
Mof_Al	Al	0.4047	0.6384	0.7224	7.193
Mof_P 	P 	0.4112	0.6296	0.7811	1.393
Mof_P 	P 	0.3653	0.6838	0.7208	1.382
Mof_P 	P 	0.454	0.6483	0.6883	1.103
Mof_O 	O 	0.4191	0.6261	0.7504	-1.999
Mof_O 	O 	0.3859	0.6127	0.787	-2.409
Mof_O 	O 	0.3983	0.6591	0.7813	-1.82
Mof_O 	O 	0.4341	0.6288	0.7988	-1.485
Mof_O 	O 	0.3649	0.6907	0.7532	-1.487
Mof_O 	O 	0.3654	0.7029	0.6996	-1.59
Mof_O 	O 	0.3427	0.6635	0.7181	-2.01
Mof_O 	O 	0.4717	0.6632	0.7859	-1.628
Mof_O 	O 	0.4446	0.6696	0.6678	-1.462
Mof_O 	O 	0.4734	0.618	0.83	-1.505
Mof_O 	O 	0.3935	0.6705	0.7171	-2.05
Mof_O 	O 	0.4266	0.6339	0.6996	-1.973
Mof_O 	O 	0.4695	0.6587	0.7117	-1.56
Mof_O 	O 	0.4721	0.6275	0.6783	-1.125
Mof_Al	Al	0.3662	0.1701	0.2805	5.574
Mof_Al	Al	0.4616	0.1442	0.3112	4.91
Mof_Al	Al	0.4047	0.1384	0.2224	7.194
Mof_P 	P 	0.4112	0.1296	0.2811	1.393
Mof_P 	P 	0.3653	0.1838	0.2208	1.382
Mof_P 	P 	0.454	0.1483	0.1883	1.103
Mof_O 	O 	0.4191	0.1261	0.2504	-1.999
Mof_O 	O 	0.3859	0.1127	0.287	-2.408
Mof_O 	O 	0.3983	0.1591	0.2813	-1.82
Mof_O 	O 	0.4341	0.1288	0.2988	-1.485
Mof_O 	O 	0.3649	0.1907	0.2532	-1.487
Mof_O 	O 	0.3654	0.2029	0.1996	-1.59
Mof_O 	O 	0.3427	0.1635	0.2181	-2.01
Mof_O 	O 	0.4717	0.1632	0.2859	-1.628
Mof_O 	O 	0.4446	0.1696	0.1678	-1.462
Mof_O 	O 	0.4734	0.118	0.33	-1.505
Mof_O 	O 	0.3935	0.1705	0.2171	-2.05
Mof_O 	O 	0.4266	0.1339	0.1996	-1.973
Mof_O 	O 	0.4695	0.1587	0.2117	-1.56
Mof_O 	O 	0.4721	0.1275	0.1783	-1.125
Mof_Al	Al	0.8662	0.3299	0.7195	5.574
Mof_Al	Al	0.9616	0.3558	0.6888	4.915
Mof_Al	Al	0.9047	0.3616	0.7776	7.193
Mof_P 	P 	0.9112	0.3704	0.7189	1.393
Mof_P 	P 	0.8653	0.3162	0.7792	1.382
Mof_P 	P 	0.954	0.3517	0.8117	1.102
Mof_O 	O 	0.9191	0.3739	0.7496	-1.998
Mof_O 	O 	0.8859	0.3873	0.713	-2.409
Mof_O 	O 	0.8983	0.3409	0.7187	-1.82
Mof_O 	O 	0.9341	0.3712	0.7012	-1.485
Mof_O 	O 	0.8649	0.3093	0.7468	-1.487
Mof_O 	O 	0.8654	0.2971	0.8004	-1.59
Mof_O 	O 	0.8427	0.3365	0.7819	-2.01
Mof_O 	O 	0.9717	0.3368	0.7141	-1.624
Mof_O 	O 	0.9446	0.3304	0.8322	-1.462
Mof_O 	O 	0.9734	0.382	0.67	-1.502
Mof_O 	O 	0.8935	0.3295	0.7829	-2.05
Mof_O 	O 	0.9266	0.3661	0.8004	-1.972
Mof_O 	O 	0.9695	0.3413	0.7883	-1.553
Mof_O 	O 	0.9721	0.3725	0.8217	-1.118
Mof_Al	Al	0.8662	0.8299	0.2195	5.574
Mof_Al	Al	0.9616	0.8558	0.1888	4.915
Mof_Al	Al	0.9047	0.8616	0.2776	7.194
Mof_P 	P 	0.9112	0.8704	0.2189	1.393
Mof_P 	P 	0.8653	0.8162	0.2792	1.382
Mof_P 	P 	0.954	0.8517	0.3117	1.102
Mof_O 	O 	0.9191	0.8739	0.2496	-1.998
Mof_O 	O 	0.8859	0.8873	0.213	-2.408
Mof_O 	O 	0.8983	0.8409	0.2187	-1.82
Mof_O 	O 	0.9341	0.8712	0.2012	-1.485
Mof_O 	O 	0.8649	0.8093	0.2468	-1.487
Mof_O 	O 	0.8654	0.7971	0.3004	-1.59
Mof_O 	O 	0.8427	0.8365	0.2819	-2.01
Mof_O 	O 	0.9717	0.8368	0.2141	-1.624
Mof_O 	O 	0.9446	0.8304	0.3322	-1.462
Mof_O 	O 	0.9734	0.882	0.17	-1.501
Mof_O 	O 	0.8935	0.8295	0.2829	-2.05
Mof_O 	O 	0.9266	0.8661	0.3004	-1.972
Mof_O 	O 	0.9695	0.8413	0.2883	-1.553
Mof_O 	O 	0.9721	0.8725	0.3217	-1.118
Mof_Al	Al	0.3662	0.3299	0.2195	5.574
Mof_Al	Al	0.4616	0.3558	0.1888	4.91
Mof_Al	Al	0.4047	0.3616	0.2776	7.194
Mof_P 	P 	0.4112	0.3704	0.2189	1.393
Mof_P 	P 	0.3653	0.3162	0.2792	1.382
Mof_P 	P 	0.454	0.3517	0.3117	1.103
Mof_O 	O 	0.4191	0.3739	0.2496	-1.999
Mof_O 	O 	0.3859	0.3873	0.213	-2.409
Mof_O 	O 	0.3983	0.3409	0.2187	-1.82
Mof_O 	O 	0.4341	0.3712	0.2012	-1.485
Mof_O 	O 	0.3649	0.3093	0.2468	-1.487
Mof_O 	O 	0.3654	0.2971	0.3004	-1.59
Mof_O 	O 	0.3427	0.3365	0.2819	-2.01
Mof_O 	O 	0.4717	0.3368	0.2141	-1.628
Mof_O 	O 	0.4446	0.3304	0.3322	-1.462
Mof_O 	O 	0.4734	0.382	0.17	-1.505
Mof_O 	O 	0.3935	0.3295	0.2829	-2.05
Mof_O 	O 	0.4266	0.3661	0.3004	-1.973
Mof_O 	O 	0.4695	0.3413	0.2883	-1.56
Mof_O 	O 	0.4721	0.3725	0.3217	-1.125
Mof_Al	Al	0.3662	0.8299	0.7195	5.574
Mof_Al	Al	0.4616	0.8558	0.6888	4.91
Mof_Al	Al	0.4047	0.8616	0.7776	7.193
Mof_P 	P 	0.4112	0.8704	0.7189	1.393
Mof_P 	P 	0.3653	0.8162	0.7792	1.382
Mof_P 	P 	0.454	0.8517	0.8117	1.103
Mof_O 	O 	0.4191	0.8739	0.7496	-1.999
Mof_O 	O 	0.3859	0.8873	0.713	-2.408
Mof_O 	O 	0.3983	0.8409	0.7187	-1.82
Mof_O 	O 	0.4341	0.8712	0.7012	-1.485
Mof_O 	O 	0.3649	0.8093	0.7468	-1.487
Mof_O 	O 	0.3654	0.7971	0.8004	-1.59
Mof_O 	O 	0.3427	0.8365	0.7819	-2.01
Mof_O 	O 	0.4717	0.8368	0.7141	-1.628
Mof_O 	O 	0.4446	0.8304	0.8322	-1.462
Mof_O 	O 	0.4734	0.882	0.67	-1.505
Mof_O 	O 	0.3935	0.8295	0.7829	-2.05
Mof_O 	O 	0.4266	0.8661	0.8004	-1.973
Mof_O 	O 	0.4695	0.8413	0.7883	-1.56
Mof_O 	O 	0.4721	0.8725	0.8217	-1.125
Mof_Al	Al	0.1338	0.6701	0.7195	5.574
Mof_Al	Al	0.0384	0.6442	0.6888	4.905
Mof_Al	Al	0.0953	0.6384	0.7776	7.192
Mof_P 	P 	0.0888	0.6296	0.7189	1.392
Mof_P 	P 	0.1347	0.6838	0.7792	1.382
Mof_P 	P 	0.046	0.6483	0.8117	1.102
Mof_O 	O 	0.0809	0.6261	0.7496	-1.999
Mof_O 	O 	0.1141	0.6127	0.713	-2.409
Mof_O 	O 	0.1017	0.6591	0.7187	-1.82
Mof_O 	O 	0.0659	0.6288	0.7012	-1.484
Mof_O 	O 	0.1351	0.6907	0.7468	-1.487
Mof_O 	O 	0.1346	0.7029	0.8004	-1.59
Mof_O 	O 	0.1573	0.6635	0.7819	-2.01
Mof_O 	O 	0.0283	0.6632	0.7141	-1.626
Mof_O 	O 	0.0554	0.6696	0.8322	-1.461
Mof_O 	O 	0.0266	0.618	0.67	-1.504
Mof_O 	O 	0.1065	0.6705	0.7829	-2.05
Mof_O 	O 	0.0734	0.6339	0.8004	-1.973
Mof_O 	O 	0.0305	0.6587	0.7883	-1.556
Mof_O 	O 	0.0279	0.6275	0.8217	-1.122
Mof_Al	Al	0.1338	0.1701	0.2195	5.574
Mof_Al	Al	0.0384	0.1442	0.1888	4.905
Mof_Al	Al	0.0953	0.1384	0.2776	7.192
Mof_P 	P 	0.0888	0.1296	0.2189	1.392
Mof_P 	P 	0.1347	0.1838	0.2792	1.382
Mof_P 	P 	0.046	0.1483	0.3117	1.102
Mof_O 	O 	0.0809	0.1261	0.2496	-1.999
Mof_O 	O 	0.1141	0.1127	0.213	-2.408
Mof_O 	O 	0.1017	0.1591	0.2187	-1.82
Mof_O 	O 	0.0659	0.1288	0.2012	-1.484
Mof_O 	O 	0.1351	0.1907	0.2468	-1.487
Mof_O 	O 	0.1346	0.2029	0.3004	-1.59
Mof_O 	O 	0.1573	0.1635	0.2819	-2.01
Mof_O 	O 	0.0283	0.1632	0.2141	-1.626
Mof_O 	O 	0.0554	0.1696	0.3322	-1.461
Mof_O 	O 	0.0266	0.118	0.17	-1.504
Mof_O 	O 	0.1065	0.1705	0.2829	-2.05
Mof_O 	O 	0.0734	0.1339	0.3004	-1.973
Mof_O 	O 	0.0305	0.1587	0.2883	-1.556
Mof_O 	O 	0.0279	0.1275	0.3217	-1.122
Mof_Al	Al	0.6338	0.6701	0.2195	5.574
Mof_Al	Al	0.5384	0.6442	0.1888	4.91
Mof_Al	Al	0.5953	0.6384	0.2776	7.193
Mof_P 	P 	0.5888	0.6296	0.2189	1.393
Mof_P 	P 	0.6347	0.6838	0.2792	1.382
Mof_P 	P 	0.546	0.6483	0.3117	1.103
Mof_O 	O 	0.5809	0.6261	0.2496	-1.999
Mof_O 	O 	0.6141	0.6127	0.213	-2.409
Mof_O 	O 	0.6017	0.6591	0.2187	-1.82
Mof_O 	O 	0.5659	0.6288	0.2012	-1.485
Mof_O 	O 	0.6351	0.6907	0.2468	-1.487
Mof_O 	O 	0.6346	0.7029	0.3004	-1.59
Mof_O 	O 	0.6573	0.6635	0.2819	-2.01
Mof_O 	O 	0.5283	0.6632	0.2141	-1.628
Mof_O 	O 	0.5554	0.6696	0.3322	-1.462
Mof_O 	O 	0.5266	0.618	0.17	-1.505
Mof_O 	O 	0.6065	0.6705	0.2829	-2.05
Mof_O 	O 	0.5734	0.6339	0.3004	-1.973
Mof_O 	O 	0.5305	0.6587	0.2883	-1.56
Mof_O 	O 	0.5279	0.6275	0.3217	-1.125
Mof_Al	Al	0.6338	0.1701	0.7195	5.574
Mof_Al	Al	0.5384	0.1442	0.6888	4.91
Mof_Al	Al	0.5953	0.1384	0.7776	7.193
Mof_P 	P 	0.5888	0.1296	0.7189	1.393
Mof_P 	P 	0.6347	0.1838	0.7792	1.382
Mof_P 	P 	0.546	0.1483	0.8117	1.103
Mof_O 	O 	0.5809	0.1261	0.7496	-1.999
Mof_O 	O 	0.6141	0.1127	0.713	-2.408
Mof_O 	O 	0.6017	0.1591	0.7187	-1.82
Mof_O 	O 	0.5659	0.1288	0.7012	-1.485
Mof_O 	O 	0.6351	0.1907	0.7468	-1.487
Mof_O 	O 	0.6346	0.2029	0.8004	-1.59
Mof_O 	O 	0.6573	0.1635	0.7819	-2.01
Mof_O 	O 	0.5283	0.1632	0.7141	-1.628
Mof_O 	O 	0.5554	0.1696	0.8322	-1.462
Mof_O 	O 	0.5266	0.118	0.67	-1.505
Mof_O 	O 	0.6065	0.1705	0.7829	-2.05
Mof_O 	O 	0.5734	0.1339	0.8004	-1.973
Mof_O 	O 	0.5305	0.1587	0.7883	-1.56
Mof_O 	O 	0.5279	0.1275	0.8217	-1.125
Mof_Al	Al	0.2805	0.1338	0.3299	5.574
Mof_Al	Al	0.3112	0.0384	0.3558	4.905
Mof_Al	Al	0.2224	0.0953	0.3616	7.193
Mof_P 	P 	0.2811	0.0888	0.3704	1.392
Mof_P 	P 	0.2208	0.1347	0.3162	1.382
Mof_P 	P 	0.1883	0.046	0.3517	1.102
Mof_O 	O 	0.2504	0.0809	0.3739	-1.999
Mof_O 	O 	0.287	0.1141	0.3873	-2.409
Mof_O 	O 	0.2813	0.1017	0.3409	-1.82
Mof_O 	O 	0.2988	0.0659	0.3712	-1.484
Mof_O 	O 	0.2532	0.1351	0.3093	-1.487
Mof_O 	O 	0.1996	0.1346	0.2971	-1.59
Mof_O 	O 	0.2181	0.1573	0.3365	-2.01
Mof_O 	O 	0.2859	0.0283	0.3368	-1.626
Mof_O 	O 	0.1678	0.0554	0.3304	-1.461
Mof_O 	O 	0.33	0.0266	0.382	-1.504
Mof_O 	O 	0.2171	0.1065	0.3295	-2.05
Mof_O 	O 	0.1996	0.0734	0.3661	-1.973
Mof_O 	O 	0.2117	0.0305	0.3413	-1.556
Mof_O 	O 	0.1783	0.0279	0.3725	-1.122
Mof_Al	Al	0.2805	0.6338	0.8299	5.574
Mof_Al	Al	0.3112	0.5384	0.8558	4.91
Mof_Al	Al	0.2224	0.5953	0.8616	7.194
Mof_P 	P 	0.2811	0.5888	0.8704	1.393
Mof_P 	P 	0.2208	0.6347	0.8162	1.382
Mof_P 	P 	0.1883	0.546	0.8517	1.103
Mof_O 	O 	0.2504	0.5809	0.8739	-1.999
Mof_O 	O 	0.287	0.6141	0.8873	-2.408
Mof_O 	O 	0.2813	0.6017	0.8409	-1.82
Mof_O 	O 	0.2988	0.5659	0.8712	-1.485
Mof_O 	O 	0.2532	0.6351	0.8093	-1.487
Mof_O 	O 	0.1996	0.6346	0.7971	-1.59
Mof_O 	O 	0.2181	0.6573	0.8365	-2.01
Mof_O 	O 	0.2859	0.5283	0.8368	-1.628
Mof_O 	O 	0.1678	0.5554	0.8304	-1.462
Mof_O 	O 	0.33	0.5266	0.882	-1.505
Mof_O 	O 	0.2171	0.6065	0.8295	-2.05
Mof_O 	O 	0.1996	0.5734	0.8661	-1.973
Mof_O 	O 	0.2117	0.5305	0.8413	-1.56
Mof_O 	O 	0.1783	0.5279	0.8725	-1.125
Mof_Al	Al	0.7805	0.1338	0.8299	5.574
Mof_Al	Al	0.8112	0.0384	0.8558	4.906
Mof_Al	Al	0.7224	0.0953	0.8616	7.192
Mof_P 	P 	0.7811	0.0888	0.8704	1.392
Mof_P 	P 	0.7208	0.1347	0.8162	1.382
Mof_P 	P 	0.6883	0.046	0.8517	1.102
Mof_O 	O 	0.7504	0.0809	0.8739	-1.999
Mof_O 	O 	0.787	0.1141	0.8873	-2.408
Mof_O 	O 	0.7813	0.1017	0.8409	-1.82
Mof_O 	O 	0.7988	0.0659	0.8712	-1.484
Mof_O 	O 	0.7532	0.1351	0.8093	-1.487
Mof_O 	O 	0.6996	0.1346	0.7971	-1.59
Mof_O 	O 	0.7181	0.1573	0.8365	-2.01
Mof_O 	O 	0.7859	0.0283	0.8368	-1.626
Mof_O 	O 	0.6678	0.0554	0.8304	-1.461
Mof_O 	O 	0.83	0.0266	0.882	-1.504
Mof_O 	O 	0.7171	0.1065	0.8295	-2.05
Mof_O 	O 	0.6996	0.0734	0.8661	-1.972
Mof_O 	O 	0.7117	0.0305	0.8413	-1.556
Mof_O 	O 	0.6783	0.0279	0.8725	-1.122
Mof_Al	Al	0.7805	0.6338	0.3299	5.574
Mof_Al	Al	0.8112	0.5384	0.3558	4.91
Mof_Al	Al	0.7224	0.5953	0.3616	7.193
Mof_P 	P 	0.7811	0.5888	0.3704	1.393
Mof_P 	P 	0.7208	0.6347	0.3162	1.382
Mof_P 	P 	0.6883	0.546	0.3517	1.103
Mof_O 	O 	0.7504	0.5809	0.3739	-1.999
Mof_O 	O 	0.787	0.6141	0.3873	-2.409
Mof_O 	O 	0.7813	0.6017	0.3409	-1.82
Mof_O 	O 	0.7988	0.5659	0.3712	-1.485
Mof_O 	O 	0.7532	0.6351	0.3093	-1.487
Mof_O 	O 	0.6996	0.6346	0.2971	-1.59
Mof_O 	O 	0.7181	0.6573	0.3365	-2.01
Mof_O 	O 	0.7859	0.5283	0.3368	-1.628
Mof_O 	O 	0.6678	0.5554	0.3304	-1.462
Mof_O 	O 	0.83	0.5266	0.382	-1.505
Mof_O 	O 	0.7171	0.6065	0.3295	-2.05
Mof_O 	O 	0.6996	0.5734	0.3661	-1.973
Mof_O 	O 	0.7117	0.5305	0.3413	-1.56
Mof_O 	O 	0.6783	0.5279	0.3725	-1.125
Mof_Al	Al	0.2805	0.8662	0.6701	5.574
Mof_Al	Al	0.3112	0.9616	0.6442	4.915
Mof_Al	Al	0.2224	0.9047	0.6384	7.194
Mof_P 	P 	0.2811	0.9112	0.6296	1.393
Mof_P 	P 	0.2208	0.8653	0.6838	1.382
Mof_P 	P 	0.1883	0.954	0.6483	1.102
Mof_O 	O 	0.2504	0.9191	0.6261	-1.998
Mof_O 	O 	0.287	0.8859	0.6127	-2.409
Mof_O 	O 	0.2813	0.8983	0.6591	-1.82
Mof_O 	O 	0.2988	0.9341	0.6288	-1.485
Mof_O 	O 	0.2532	0.8649	0.6907	-1.487
Mof_O 	O 	0.1996	0.8654	0.7029	-1.59
Mof_O 	O 	0.2181	0.8427	0.6635	-2.01
Mof_O 	O 	0.2859	0.9717	0.6632	-1.624
Mof_O 	O 	0.1678	0.9446	0.6696	-1.462
Mof_O 	O 	0.33	0.9734	0.618	-1.502
Mof_O 	O 	0.2171	0.8935	0.6705	-2.05
Mof_O 	O 	0.1996	0.9266	0.6339	-1.972
Mof_O 	O 	0.2117	0.9695	0.6587	-1.553
Mof_O 	O 	0.1783	0.9721	0.6275	-1.118
Mof_Al	Al	0.2805	0.3662	0.1701	5.574
Mof_Al	Al	0.3112	0.4616	0.1442	4.91
Mof_Al	Al	0.2224	0.4047	0.1384	7.194
Mof_P 	P 	0.2811	0.4112	0.1296	1.393
Mof_P 	P 	0.2208	0.3653	0.1838	1.382
Mof_P 	P 	0.1883	0.454	0.1483	1.103
Mof_O 	O 	0.2504	0.4191	0.1261	-1.999
Mof_O 	O 	0.287	0.3859	0.1127	-2.408
Mof_O 	O 	0.2813	0.3983	0.1591	-1.82
Mof_O 	O 	0.2988	0.4341	0.1288	-1.485
Mof_O 	O 	0.2532	0.3649	0.1907	-1.487
Mof_O 	O 	0.1996	0.3654	0.2029	-1.59
Mof_O 	O 	0.2181	0.3427	0.1635	-2.01
Mof_O 	O 	0.2859	0.4717	0.1632	-1.628
Mof_O 	O 	0.1678	0.4446	0.1696	-1.462
Mof_O 	O 	0.33	0.4734	0.118	-1.505
Mof_O 	O 	0.2171	0.3935	0.1705	-2.05
Mof_O 	O 	0.1996	0.4266	0.1339	-1.973
Mof_O 	O 	0.2117	0.4695	0.1587	-1.56
Mof_O 	O 	0.1783	0.4721	0.1275	-1.125
Mof_Al	Al	0.7805	0.8662	0.1701	5.575
Mof_Al	Al	0.8112	0.9616	0.1442	4.915
Mof_Al	Al	0.7224	0.9047	0.1384	7.193
Mof_P 	P 	0.7811	0.9112	0.1296	1.393
Mof_P 	P 	0.7208	0.8653	0.1838	1.382
Mof_P 	P 	0.6883	0.954	0.1483	1.102
Mof_O 	O 	0.7504	0.9191	0.1261	-1.998
Mof_O 	O 	0.787	0.8859	0.1127	-2.408
Mof_O 	O 	0.7813	0.8983	0.1591	-1.82
Mof_O 	O 	0.7988	0.9341	0.1288	-1.485
Mof_O 	O 	0.7532	0.8649	0.1907	-1.487
Mof_O 	O 	0.6996	0.8654	0.2029	-1.59
Mof_O 	O 	0.7181	0.8427	0.1635	-2.01
Mof_O 	O 	0.7859	0.9717	0.1632	-1.624
Mof_O 	O 	0.6678	0.9446	0.1696	-1.462
Mof_O 	O 	0.83	0.9734	0.118	-1.502
Mof_O 	O 	0.7171	0.8935	0.1705	-2.05
Mof_O 	O 	0.6996	0.9266	0.1339	-1.972
Mof_O 	O 	0.7117	0.9695	0.1587	-1.553
Mof_O 	O 	0.6783	0.9721	0.1275	-1.118
Mof_Al	Al	0.7805	0.3662	0.6701	5.574
Mof_Al	Al	0.8112	0.4616	0.6442	4.91
Mof_Al	Al	0.7224	0.4047	0.6384	7.193
Mof_P 	P 	0.7811	0.4112	0.6296	1.393
Mof_P 	P 	0.7208	0.3653	0.6838	1.382
Mof_P 	P 	0.6883	0.454	0.6483	1.103
Mof_O 	O 	0.7504	0.4191	0.6261	-1.999
Mof_O 	O 	0.787	0.3859	0.6127	-2.409
Mof_O 	O 	0.7813	0.3983	0.6591	-1.82
Mof_O 	O 	0.7988	0.4341	0.6288	-1.485
Mof_O 	O 	0.7532	0.3649	0.6907	-1.487
Mof_O 	O 	0.6996	0.3654	0.7029	-1.59
Mof_O 	O 	0.7181	0.3427	0.6635	-2.01
Mof_O 	O 	0.7859	0.4717	0.6632	-1.628
Mof_O 	O 	0.6678	0.4446	0.6696	-1.462
Mof_O 	O 	0.83	0.4734	0.618	-1.505
Mof_O 	O 	0.7171	0.3935	0.6705	-2.05
Mof_O 	O 	0.6996	0.4266	0.6339	-1.973
Mof_O 	O 	0.7117	0.4695	0.6587	-1.56
Mof_O 	O 	0.6783	0.4721	0.6275	-1.125
Mof_Al	Al	0.7195	0.8662	0.3299	5.574
Mof_Al	Al	0.6888	0.9616	0.3558	4.915
Mof_Al	Al	0.7776	0.9047	0.3616	7.193
Mof_P 	P 	0.7189	0.9112	0.3704	1.393
Mof_P 	P 	0.7792	0.8653	0.3162	1.382
Mof_P 	P 	0.8117	0.954	0.3517	1.102
Mof_O 	O 	0.7496	0.9191	0.3739	-1.998
Mof_O 	O 	0.713	0.8859	0.3873	-2.409
Mof_O 	O 	0.7187	0.8983	0.3409	-1.82
Mof_O 	O 	0.7012	0.9341	0.3712	-1.485
Mof_O 	O 	0.7468	0.8649	0.3093	-1.487
Mof_O 	O 	0.8004	0.8654	0.2971	-1.59
Mof_O 	O 	0.7819	0.8427	0.3365	-2.01
Mof_O 	O 	0.7141	0.9717	0.3368	-1.624
Mof_O 	O 	0.8322	0.9446	0.3304	-1.462
Mof_O 	O 	0.67	0.9734	0.382	-1.502
Mof_O 	O 	0.7829	0.8935	0.3295	-2.05
Mof_O 	O 	0.8004	0.9266	0.3661	-1.972
Mof_O 	O 	0.7883	0.9695	0.3413	-1.553
Mof_O 	O 	0.8217	0.9721	0.3725	-1.118
Mof_Al	Al	0.7195	0.3662	0.8299	5.574
Mof_Al	Al	0.6888	0.4616	0.8558	4.91
Mof_Al	Al	0.7776	0.4047	0.8616	7.193
Mof_P 	P 	0.7189	0.4112	0.8704	1.393
Mof_P 	P 	0.7792	0.3653	0.8162	1.382
Mof_P 	P 	0.8117	0.454	0.8517	1.103
Mof_O 	O 	0.7496	0.4191	0.8739	-1.999
Mof_O 	O 	0.713	0.3859	0.8873	-2.408
Mof_O 	O 	0.7187	0.3983	0.8409	-1.82
Mof_O 	O 	0.7012	0.4341	0.8712	-1.485
Mof_O 	O 	0.7468	0.3649	0.8093	-1.487
Mof_O 	O 	0.8004	0.3654	0.7971	-1.59
Mof_O 	O 	0.7819	0.3427	0.8365	-2.01
Mof_O 	O 	0.7141	0.4717	0.8368	-1.628
Mof_O 	O 	0.8322	0.4446	0.8304	-1.462
Mof_O 	O 	0.67	0.4734	0.882	-1.505
Mof_O 	O 	0.7829	0.3935	0.8295	-2.05
Mof_O 	O 	0.8004	0.4266	0.8661	-1.973
Mof_O 	O 	0.7883	0.4695	0.8413	-1.56
Mof_O 	O 	0.8217	0.4721	0.8725	-1.125
Mof_Al	Al	0.2195	0.8662	0.8299	5.574
Mof_Al	Al	0.1888	0.9616	0.8558	4.915
Mof_Al	Al	0.2776	0.9047	0.8616	7.194
Mof_P 	P 	0.2189	0.9112	0.8704	1.393
Mof_P 	P 	0.2792	0.8653	0.8162	1.382
Mof_P 	P 	0.3117	0.954	0.8517	1.102
Mof_O 	O 	0.2496	0.9191	0.8739	-1.998
Mof_O 	O 	0.213	0.8859	0.8873	-2.408
Mof_O 	O 	0.2187	0.8983	0.8409	-1.82
Mof_O 	O 	0.2012	0.9341	0.8712	-1.485
Mof_O 	O 	0.2468	0.8649	0.8093	-1.487
Mof_O 	O 	0.3004	0.8654	0.7971	-1.59
Mof_O 	O 	0.2819	0.8427	0.8365	-2.01
Mof_O 	O 	0.2141	0.9717	0.8368	-1.624
Mof_O 	O 	0.3322	0.9446	0.8304	-1.462
Mof_O 	O 	0.17	0.9734	0.882	-1.501
Mof_O 	O 	0.2829	0.8935	0.8295	-2.05
Mof_O 	O 	0.3004	0.9266	0.8661	-1.972
Mof_O 	O 	0.2883	0.9695	0.8413	-1.553
Mof_O 	O 	0.3217	0.9721	0.8725	-1.118
Mof_Al	Al	0.2195	0.3662	0.3299	5.574
Mof_Al	Al	0.1888	0.4616	0.3558	4.91
Mof_Al	Al	0.2776	0.4047	0.3616	7.194
Mof_P 	P 	0.2189	0.4112	0.3704	1.393
Mof_P 	P 	0.2792	0.3653	0.3162	1.382
Mof_P 	P 	0.3117	0.454	0.3517	1.103
Mof_O 	O 	0.2496	0.4191	0.3739	-1.999
Mof_O 	O 	0.213	0.3859	0.3873	-2.409
Mof_O 	O 	0.2187	0.3983	0.3409	-1.82
Mof_O 	O 	0.2012	0.4341	0.3712	-1.485
Mof_O 	O 	0.2468	0.3649	0.3093	-1.487
Mof_O 	O 	0.3004	0.3654	0.2971	-1.59
Mof_O 	O 	0.2819	0.3427	0.3365	-2.01
Mof_O 	O 	0.2141	0.4717	0.3368	-1.628
Mof_O 	O 	0.3322	0.4446	0.3304	-1.462
Mof_O 	O 	0.17	0.4734	0.382	-1.505
Mof_O 	O 	0.2829	0.3935	0.3295	-2.05
Mof_O 	O 	0.3004	0.4266	0.3661	-1.973
Mof_O 	O 	0.2883	0.4695	0.3413	-1.56
Mof_O 	O 	0.3217	0.4721	0.3725	-1.125
Mof_Al	Al	0.7195	0.1338	0.6701	5.574
Mof_Al	Al	0.6888	0.0384	0.6442	4.905
Mof_Al	Al	0.7776	0.0953	0.6384	7.192
Mof_P 	P 	0.7189	0.0888	0.6296	1.392
Mof_P 	P 	0.7792	0.1347	0.6838	1.382
Mof_P 	P 	0.8117	0.046	0.6483	1.102
Mof_O 	O 	0.7496	0.0809	0.6261	-1.999
Mof_O 	O 	0.713	0.1141	0.6127	-2.409
Mof_O 	O 	0.7187	0.1017	0.6591	-1.82
Mof_O 	O 	0.7012	0.0659	0.6288	-1.484
Mof_O 	O 	0.7468	0.1351	0.6907	-1.487
Mof_O 	O 	0.8004	0.1346	0.7029	-1.59
Mof_O 	O 	0.7819	0.1573	0.6635	-2.01
Mof_O 	O 	0.7141	0.0283	0.6632	-1.626
Mof_O 	O 	0.8322	0.0554	0.6696	-1.461
Mof_O 	O 	0.67	0.0266	0.618	-1.504
Mof_O 	O 	0.7829	0.1065	0.6705	-2.05
Mof_O 	O 	0.8004	0.0734	0.6339	-1.973
Mof_O 	O 	0.7883	0.0305	0.6587	-1.556
Mof_O 	O 	0.8217	0.0279	0.6275	-1.122
Mof_Al	Al	0.7195	0.6338	0.1701	5.574
Mof_Al	Al	0.6888	0.5384	0.1442	4.91
Mof_Al	Al	0.7776	0.5953	0.1384	7.193
Mof_P 	P 	0.7189	0.5888	0.1296	1.393
Mof_P 	P 	0.7792	0.6347	0.1838	1.382
Mof_P 	P 	0.8117	0.546	0.1483	1.103
Mof_O 	O 	0.7496	0.5809	0.1261	-1.999
Mof_O 	O 	0.713	0.6141	0.1127	-2.408
Mof_O 	O 	0.7187	0.6017	0.1591	-1.82
Mof_O 	O 	0.7012	0.5659	0.1288	-1.485
Mof_O 	O 	0.7468	0.6351	0.1907	-1.487
Mof_O 	O 	0.8004	0.6346	0.2029	-1.59
Mof_O 	O 	0.7819	0.6573	0.1635	-2.01
Mof_O 	O 	0.7141	0.5283	0.1632	-1.628
Mof_O 	O 	0.8322	0.5554	0.1696	-1.462
Mof_O 	O 	0.67	0.5266	0.118	-1.505
Mof_O 	O 	0.7829	0.6065	0.1705	-2.05
Mof_O 	O 	0.8004	0.5734	0.1339	-1.973
Mof_O 	O 	0.7883	0.5305	0.1587	-1.56
Mof_O 	O 	0.8217	0.5279	0.1275	-1.125
Mof_Al	Al	0.2195	0.1338	0.1701	5.574
Mof_Al	Al	0.1888	0.0384	0.1442	4.905
Mof_Al	Al	0.2776	0.0953	0.1384	7.192
Mof_P 	P 	0.2189	0.0888	0.1296	1.392
Mof_P 	P 	0.2792	0.1347	0.1838	1.382
Mof_P 	P 	0.3117	0.046	0.1483	1.102
Mof_O 	O 	0.2496	0.0809	0.1261	-1.999
Mof_O 	O 	0.213	0.1141	0.1127	-2.408
Mof_O 	O 	0.2187	0.1017	0.1591	-1.82
Mof_O 	O 	0.2012	0.0659	0.1288	-1.484
Mof_O 	O 	0.2468	0.1351	0.1907	-1.487
Mof_O 	O 	0.3004	0.1346	0.2029	-1.59
Mof_O 	O 	0.2819	0.1573	0.1635	-2.01
Mof_O 	O 	0.2141	0.0283	0.1632	-1.626
Mof_O 	O 	0.3322	0.0554	0.1696	-1.461
Mof_O 	O 	0.17	0.0266	0.118	-1.504
Mof_O 	O 	0.2829	0.1065	0.1705	-2.05
Mof_O 	O 	0.3004	0.0734	0.1339	-1.973
Mof_O 	O 	0.2883	0.0305	0.1587	-1.556
Mof_O 	O 	0.3217	0.0279	0.1275	-1.122
Mof_Al	Al	0.2195	0.6338	0.6701	5.574
Mof_Al	Al	0.1888	0.5384	0.6442	4.91
Mof_Al	Al	0.2776	0.5953	0.6384	7.193
Mof_P 	P 	0.2189	0.5888	0.6296	1.393
Mof_P 	P 	0.2792	0.6347	0.6838	1.382
Mof_P 	P 	0.3117	0.546	0.6483	1.103
Mof_O 	O 	0.2496	0.5809	0.6261	-1.999
Mof_O 	O 	0.213	0.6141	0.6127	-2.409
Mof_O 	O 	0.2187	0.6017	0.6591	-1.82
Mof_O 	O 	0.2012	0.5659	0.6288	-1.485
Mof_O 	O 	0.2468	0.6351	0.6907	-1.487
Mof_O 	O 	0.3004	0.6346	0.7029	-1.59
Mof_O 	O 	0.2819	0.6573	0.6635	-2.01
Mof_O 	O 	0.2141	0.5283	0.6632	-1.628
Mof_O 	O 	0.3322	0.5554	0.6696	-1.462
Mof_O 	O 	0.17	0.5266	0.618	-1.505
Mof_O 	O 	0.2829	0.6065	0.6705	-2.05
Mof_O 	O 	0.3004	0.5734	0.6339	-1.973
Mof_O 	O 	0.2883	0.5305	0.6587	-1.56
Mof_O 	O 	0.3217	0.5279	0.6275	-1.125
Mof_Al	Al	0.3299	0.2805	0.1338	5.574
Mof_Al	Al	0.3558	0.3112	0.0384	4.905
Mof_Al	Al	0.3616	0.2224	0.0953	7.193
Mof_P 	P 	0.3704	0.2811	0.0888	1.392
Mof_P 	P 	0.3162	0.2208	0.1347	1.382
Mof_P 	P 	0.3517	0.1883	0.046	1.102
Mof_O 	O 	0.3739	0.2504	0.0809	-1.999
Mof_O 	O 	0.3873	0.287	0.1141	-2.409
Mof_O 	O 	0.3409	0.2813	0.1017	-1.82
Mof_O 	O 	0.3712	0.2988	0.0659	-1.484
Mof_O 	O 	0.3093	0.2532	0.1351	-1.487
Mof_O 	O 	0.2971	0.1996	0.1346	-1.59
Mof_O 	O 	0.3365	0.2181	0.1573	-2.01
Mof_O 	O 	0.3368	0.2859	0.0283	-1.626
Mof_O 	O 	0.3304	0.1678	0.0554	-1.461
Mof_O 	O 	0.382	0.33	0.0266	-1.504
Mof_O 	O 	0.3295	0.2171	0.1065	-2.05
Mof_O 	O 	0.3661	0.1996	0.0734	-1.973
Mof_O 	O 	0.3413	0.2117	0.0305	-1.556
Mof_O 	O 	0.3725	0.1783	0.0279	-1.122
Mof_Al	Al	0.3299	0.7805	0.6338	5.574
Mof_Al	Al	0.3558	0.8112	0.5384	4.91
Mof_Al	Al	0.3616	0.7224	0.5953	7.193
Mof_P 	P 	0.3704	0.7811	0.5888	1.393
Mof_P 	P 	0.3162	0.7208	0.6347	1.382
Mof_P 	P 	0.3517	0.6883	0.546	1.103
Mof_O 	O 	0.3739	0.7504	0.5809	-1.999
Mof_O 	O 	0.3873	0.787	0.6141	-2.409
Mof_O 	O 	0.3409	0.7813	0.6017	-1.82
Mof_O 	O 	0.3712	0.7988	0.5659	-1.485
Mof_O 	O 	0.3093	0.7532	0.6351	-1.487
Mof_O 	O 	0.2971	0.6996	0.6346	-1.59
Mof_O 	O 	0.3365	0.7181	0.6573	-2.01
Mof_O 	O 	0.3368	0.7859	0.5283	-1.628
Mof_O 	O 	0.3304	0.6678	0.5554	-1.462
Mof_O 	O 	0.382	0.83	0.5266	-1.505
Mof_O 	O 	0.3295	0.7171	0.6065	-2.05
Mof_O 	O 	0.3661	0.6996	0.5734	-1.973
Mof_O 	O 	0.3413	0.7117	0.5305	-1.56
Mof_O 	O 	0.3725	0.6783	0.5279	-1.125
Mof_Al	Al	0.8299	0.2805	0.6338	5.574
Mof_Al	Al	0.8558	0.3112	0.5384	4.91
Mof_Al	Al	0.8616	0.2224	0.5953	7.194
Mof_P 	P 	0.8704	0.2811	0.5888	1.393
Mof_P 	P 	0.8162	0.2208	0.6347	1.382
Mof_P 	P 	0.8517	0.1883	0.546	1.103
Mof_O 	O 	0.8739	0.2504	0.5809	-1.999
Mof_O 	O 	0.8873	0.287	0.6141	-2.408
Mof_O 	O 	0.8409	0.2813	0.6017	-1.82
Mof_O 	O 	0.8712	0.2988	0.5659	-1.485
Mof_O 	O 	0.8093	0.2532	0.6351	-1.487
Mof_O 	O 	0.7971	0.1996	0.6346	-1.59
Mof_O 	O 	0.8365	0.2181	0.6573	-2.01
Mof_O 	O 	0.8368	0.2859	0.5283	-1.628
Mof_O 	O 	0.8304	0.1678	0.5554	-1.462
Mof_O 	O 	0.882	0.33	0.5266	-1.505
Mof_O 	O 	0.8295	0.2171	0.6065	-2.05
Mof_O 	O 	0.8661	0.1996	0.5734	-1.973
Mof_O 	O 	0.8413	0.2117	0.5305	-1.56
Mof_O 	O 	0.8725	0.1783	0.5279	-1.125
Mof_Al	Al	0.8299	0.7805	0.1338	5.574
Mof_Al	Al	0.8558	0.8112	0.0384	4.906
Mof_Al	Al	0.8616	0.7224	0.0953	7.192
Mof_P 	P 	0.8704	0.7811	0.0888	1.392
Mof_P 	P 	0.8162	0.7208	0.1347	1.382
Mof_P 	P 	0.8517	0.6883	0.046	1.102
Mof_O 	O 	0.8739	0.7504	0.0809	-1.999
Mof_O 	O 	0.8873	0.787	0.1141	-2.408
Mof_O 	O 	0.8409	0.7813	0.1017	-1.82
Mof_O 	O 	0.8712	0.7988	0.0659	-1.484
Mof_O 	O 	0.8093	0.7532	0.1351	-1.487
Mof_O 	O 	0.7971	0.6996	0.1346	-1.59
Mof_O 	O 	0.8365	0.7181	0.1573	-2.01
Mof_O 	O 	0.8368	0.7859	0.0283	-1.626
Mof_O 	O 	0.8304	0.6678	0.0554	-1.461
Mof_O 	O 	0.882	0.83	0.0266	-1.504
Mof_O 	O 	0.8295	0.7171	0.1065	-2.05
Mof_O 	O 	0.8661	0.6996	0.0734	-1.972
Mof_O 	O 	0.8413	0.7117	0.0305	-1.556
Mof_O 	O 	0.8725	0.6783	0.0279	-1.122
Mof_Al	Al	0.6701	0.2805	0.8662	5.574
Mof_Al	Al	0.6442	0.3112	0.9616	4.915
Mof_Al	Al	0.6384	0.2224	0.9047	7.194
Mof_P 	P 	0.6296	0.2811	0.9112	1.393
Mof_P 	P 	0.6838	0.2208	0.8653	1.382
Mof_P 	P 	0.6483	0.1883	0.954	1.102
Mof_O 	O 	0.6261	0.2504	0.9191	-1.998
Mof_O 	O 	0.6127	0.287	0.8859	-2.409
Mof_O 	O 	0.6591	0.2813	0.8983	-1.82
Mof_O 	O 	0.6288	0.2988	0.9341	-1.485
Mof_O 	O 	0.6907	0.2532	0.8649	-1.487
Mof_O 	O 	0.7029	0.1996	0.8654	-1.59
Mof_O 	O 	0.6635	0.2181	0.8427	-2.01
Mof_O 	O 	0.6632	0.2859	0.9717	-1.624
Mof_O 	O 	0.6696	0.1678	0.9446	-1.462
Mof_O 	O 	0.618	0.33	0.9734	-1.502
Mof_O 	O 	0.6705	0.2171	0.8935	-2.05
Mof_O 	O 	0.6339	0.1996	0.9266	-1.972
Mof_O 	O 	0.6587	0.2117	0.9695	-1.553
Mof_O 	O 	0.6275	0.1783	0.9721	-1.118
Mof_Al	Al	0.6701	0.7805	0.3662	5.574
Mof_Al	Al	0.6442	0.8112	0.4616	4.91
Mof_Al	Al	0.6384	0.7224	0.4047	7.193
Mof_P 	P 	0.6296	0.7811	0.4112	1.393
Mof_P 	P 	0.6838	0.7208	0.3653	1.382
Mof_P 	P 	0.6483	0.6883	0.454	1.103
Mof_O 	O 	0.6261	0.7504	0.4191	-1.999
Mof_O 	O 	0.6127	0.787	0.3859	-2.409
Mof_O 	O 	0.6591	0.7813	0.3983	-1.82
Mof_O 	O 	0.6288	0.7988	0.4341	-1.485
Mof_O 	O 	0.6907	0.7532	0.3649	-1.487
Mof_O 	O 	0.7029	0.6996	0.3654	-1.59
Mof_O 	O 	0.6635	0.7181	0.3427	-2.01
Mof_O 	O 	0.6632	0.7859	0.4717	-1.628
Mof_O 	O 	0.6696	0.6678	0.4446	-1.462
Mof_O 	O 	0.618	0.83	0.4734	-1.505
Mof_O 	O 	0.6705	0.7171	0.3935	-2.05
Mof_O 	O 	0.6339	0.6996	0.4266	-1.973
Mof_O 	O 	0.6587	0.7117	0.4695	-1.56
Mof_O 	O 	0.6275	0.6783	0.4721	-1.125
Mof_Al	Al	0.1701	0.2805	0.3662	5.574
Mof_Al	Al	0.1442	0.3112	0.4616	4.91
Mof_Al	Al	0.1384	0.2224	0.4047	7.194
Mof_P 	P 	0.1296	0.2811	0.4112	1.393
Mof_P 	P 	0.1838	0.2208	0.3653	1.382
Mof_P 	P 	0.1483	0.1883	0.454	1.103
Mof_O 	O 	0.1261	0.2504	0.4191	-1.999
Mof_O 	O 	0.1127	0.287	0.3859	-2.408
Mof_O 	O 	0.1591	0.2813	0.3983	-1.82
Mof_O 	O 	0.1288	0.2988	0.4341	-1.485
Mof_O 	O 	0.1907	0.2532	0.3649	-1.487
Mof_O 	O 	0.2029	0.1996	0.3654	-1.59
Mof_O 	O 	0.1635	0.2181	0.3427	-2.01
Mof_O 	O 	0.1632	0.2859	0.4717	-1.628
Mof_O 	O 	0.1696	0.1678	0.4446	-1.462
Mof_O 	O 	0.118	0.33	0.4734	-1.505
Mof_O 	O 	0.1705	0.2171	0.3935	-2.05
Mof_O 	O 	0.1339	0.1996	0.4266	-1.973
Mof_O 	O 	0.1587	0.2117	0.4695	-1.56
Mof_O 	O 	0.1275	0.1783	0.4721	-1.125
Mof_Al	Al	0.1701	0.7805	0.8662	5.575
Mof_Al	Al	0.1442	0.8112	0.9616	4.915
Mof_Al	Al	0.1384	0.7224	0.9047	7.193
Mof_P 	P 	0.1296	0.7811	0.9112	1.393
Mof_P 	P 	0.1838	0.7208	0.8653	1.382
Mof_P 	P 	0.1483	0.6883	0.954	1.102
Mof_O 	O 	0.1261	0.7504	0.9191	-1.998
Mof_O 	O 	0.1127	0.787	0.8859	-2.408
Mof_O 	O 	0.1591	0.7813	0.8983	-1.82
Mof_O 	O 	0.1288	0.7988	0.9341	-1.485
Mof_O 	O 	0.1907	0.7532	0.8649	-1.487
Mof_O 	O 	0.2029	0.6996	0.8654	-1.59
Mof_O 	O 	0.1635	0.7181	0.8427	-2.01
Mof_O 	O 	0.1632	0.7859	0.9717	-1.624
Mof_O 	O 	0.1696	0.6678	0.9446	-1.462
Mof_O 	O 	0.118	0.83	0.9734	-1.502
Mof_O 	O 	0.1705	0.7171	0.8935	-2.05
Mof_O 	O 	0.1339	0.6996	0.9266	-1.972
Mof_O 	O 	0.1587	0.7117	0.9695	-1.553
Mof_O 	O 	0.1275	0.6783	0.9721	-1.118
Mof_Al	Al	0.3299	0.7195	0.8662	5.574
Mof_Al	Al	0.3558	0.6888	0.9616	4.915
Mof_Al	Al	0.3616	0.7776	0.9047	7.193
Mof_P 	P 	0.3704	0.7189	0.9112	1.393
Mof_P 	P 	0.3162	0.7792	0.8653	1.382
Mof_P 	P 	0.3517	0.8117	0.954	1.102
Mof_O 	O 	0.3739	0.7496	0.9191	-1.998
Mof_O 	O 	0.3873	0.713	0.8859	-2.409
Mof_O 	O 	0.3409	0.7187	0.8983	-1.82
Mof_O 	O 	0.3712	0.7012	0.9341	-1.485
Mof_O 	O 	0.3093	0.7468	0.8649	-1.487
Mof_O 	O 	0.2971	0.8004	0.8654	-1.59
Mof_O 	O 	0.3365	0.7819	0.8427	-2.01
Mof_O 	O 	0.3368	0.7141	0.9717	-1.624
Mof_O 	O 	0.3304	0.8322	0.9446	-1.462
Mof_O 	O 	0.382	0.67	0.9734	-1.502
Mof_O 	O 	0.3295	0.7829	0.8935	-2.05
Mof_O 	O 	0.3661	0.8004	0.9266	-1.972
Mof_O 	O 	0.3413	0.7883	0.9695	-1.553
Mof_O 	O 	0.3725	0.8217	0.9721	-1.118
Mof_Al	Al	0.3299	0.2195	0.3662	5.574
Mof_Al	Al	0.3558	0.1888	0.4616	4.91
Mof_Al	Al	0.3616	0.2776	0.4047	7.194
Mof_P 	P 	0.3704	0.2189	0.4112	1.393
Mof_P 	P 	0.3162	0.2792	0.3653	1.382
Mof_P 	P 	0.3517	0.3117	0.454	1.103
Mof_O 	O 	0.3739	0.2496	0.4191	-1.999
Mof_O 	O 	0.3873	0.213	0.3859	-2.409
Mof_O 	O 	0.3409	0.2187	0.3983	-1.82
Mof_O 	O 	0.3712	0.2012	0.4341	-1.485
Mof_O 	O 	0.3093	0.2468	0.3649	-1.487
Mof_O 	O 	0.2971	0.3004	0.3654	-1.59
Mof_O 	O 	0.3365	0.2819	0.3427	-2.01
Mof_O 	O 	0.3368	0.2141	0.4717	-1.628
Mof_O 	O 	0.3304	0.3322	0.4446	-1.462
Mof_O 	O 	0.382	0.17	0.4734	-1.505
Mof_O 	O 	0.3295	0.2829	0.3935	-2.05
Mof_O 	O 	0.3661	0.3004	0.4266	-1.973
Mof_O 	O 	0.3413	0.2883	0.4695	-1.56
Mof_O 	O 	0.3725	0.3217	0.4721	-1.125
Mof_Al	Al	0.8299	0.7195	0.3662	5.574
Mof_Al	Al	0.8558	0.6888	0.4616	4.91
Mof_Al	Al	0.8616	0.7776	0.4047	7.193
Mof_P 	P 	0.8704	0.7189	0.4112	1.393
Mof_P 	P 	0.8162	0.7792	0.3653	1.382
Mof_P 	P 	0.8517	0.8117	0.454	1.103
Mof_O 	O 	0.8739	0.7496	0.4191	-1.999
Mof_O 	O 	0.8873	0.713	0.3859	-2.408
Mof_O 	O 	0.8409	0.7187	0.3983	-1.82
Mof_O 	O 	0.8712	0.7012	0.4341	-1.485
Mof_O 	O 	0.8093	0.7468	0.3649	-1.487
Mof_O 	O 	0.7971	0.8004	0.3654	-1.59
Mof_O 	O 	0.8365	0.7819	0.3427	-2.01
Mof_O 	O 	0.8368	0.7141	0.4717	-1.628
Mof_O 	O 	0.8304	0.8322	0.4446	-1.462
Mof_O 	O 	0.882	0.67	0.4734	-1.505
Mof_O 	O 	0.8295	0.7829	0.3935	-2.05
Mof_O 	O 	0.8661	0.8004	0.4266	-1.973
Mof_O 	O 	0.8413	0.7883	0.4695	-1.56
Mof_O 	O 	0.8725	0.8217	0.4721	-1.125
Mof_Al	Al	0.8299	0.2195	0.8662	5.574
Mof_Al	Al	0.8558	0.1888	0.9616	4.915
Mof_Al	Al	0.8616	0.2776	0.9047	7.194
Mof_P 	P 	0.8704	0.2189	0.9112	1.393
Mof_P 	P 	0.8162	0.2792	0.8653	1.382
Mof_P 	P 	0.8517	0.3117	0.954	1.102
Mof_O 	O 	0.8739	0.2496	0.9191	-1.998
Mof_O 	O 	0.8873	0.213	0.8859	-2.408
Mof_O 	O 	0.8409	0.2187	0.8983	-1.82
Mof_O 	O 	0.8712	0.2012	0.9341	-1.485
Mof_O 	O 	0.8093	0.2468	0.8649	-1.487
Mof_O 	O 	0.7971	0.3004	0.8654	-1.59
Mof_O 	O 	0.8365	0.2819	0.8427	-2.01
Mof_O 	O 	0.8368	0.2141	0.9717	-1.624
Mof_O 	O 	0.8304	0.3322	0.9446	-1.462
Mof_O 	O 	0.882	0.17	0.9734	-1.501
Mof_O 	O 	0.8295	0.2829	0.8935	-2.05
Mof_O 	O 	0.8661	0.3004	0.9266	-1.972
Mof_O 	O 	0.8413	0.2883	0.9695	-1.553
Mof_O 	O 	0.8725	0.3217	0.9721	-1.118
Mof_Al	Al	0.6701	0.7195	0.1338	5.574
Mof_Al	Al	0.6442	0.6888	0.0384	4.905
Mof_Al	Al	0.6384	0.7776	0.0953	7.192
Mof_P 	P 	0.6296	0.7189	0.0888	1.392
Mof_P 	P 	0.6838	0.7792	0.1347	1.382
Mof_P 	P 	0.6483	0.8117	0.046	1.102
Mof_O 	O 	0.6261	0.7496	0.0809	-1.999
Mof_O 	O 	0.6127	0.713	0.1141	-2.409
Mof_O 	O 	0.6591	0.7187	0.1017	-1.82
Mof_O 	O 	0.6288	0.7012	0.0659	-1.484
Mof_O 	O 	0.6907	0.7468	0.1351	-1.487
Mof_O 	O 	0.7029	0.8004	0.1346	-1.59
Mof_O 	O 	0.6635	0.7819	0.1573	-2.01
Mof_O 	O 	0.6632	0.7141	0.0283	-1.626
Mof_O 	O 	0.6696	0.8322	0.0554	-1.461
Mof_O 	O 	0.618	0.67	0.0266	-1.504
Mof_O 	O 	0.6705	0.7829	0.1065	-2.05
Mof_O 	O 	0.6339	0.8004	0.0734	-1.973
Mof_O 	O 	0.6587	0.7883	0.0305	-1.556
Mof_O 	O 	0.6275	0.8217	0.0279	-1.122
Mof_Al	Al	0.6701	0.2195	0.6338	5.574
Mof_Al	Al	0.6442	0.1888	0.5384	4.91
Mof_Al	Al	0.6384	0.2776	0.5953	7.193
Mof_P 	P 	0.6296	0.2189	0.5888	1.393
Mof_P 	P 	0.6838	0.2792	0.6347	1.382
Mof_P 	P 	0.6483	0.3117	0.546	1.103
Mof_O 	O 	0.6261	0.2496	0.5809	-1.999
Mof_O 	O 	0.6127	0.213	0.6141	-2.409
Mof_O 	O 	0.6591	0.2187	0.6017	-1.82
Mof_O 	O 	0.6288	0.2012	0.5659	-1.485
Mof_O 	O 	0.6907	0.2468	0.6351	-1.487
Mof_O 	O 	0.7029	0.3004	0.6346	-1.59
Mof_O 	O 	0.6635	0.2819	0.6573	-2.01
Mof_O 	O 	0.6632	0.2141	0.5283	-1.628
Mof_O 	O 	0.6696	0.3322	0.5554	-1.462
Mof_O 	O 	0.618	0.17	0.5266	-1.505
Mof_O 	O 	0.6705	0.2829	0.6065	-2.05
Mof_O 	O 	0.6339	0.3004	0.5734	-1.973
Mof_O 	O 	0.6587	0.2883	0.5305	-1.56
Mof_O 	O 	0.6275	0.3217	0.5279	-1.125
Mof_Al	Al	0.1701	0.7195	0.6338	5.574
Mof_Al	Al	0.1442	0.6888	0.5384	4.91
Mof_Al	Al	0.1384	0.7776	0.5953	7.193
Mof_P 	P 	0.1296	0.7189	0.5888	1.393
Mof_P 	P 	0.1838	0.7792	0.6347	1.382
Mof_P 	P 	0.1483	0.8117	0.546	1.103
Mof_O 	O 	0.1261	0.7496	0.5809	-1.999
Mof_O 	O 	0.1127	0.713	0.6141	-2.408
Mof_O 	O 	0.1591	0.7187	0.6017	-1.82
Mof_O 	O 	0.1288	0.7012	0.5659	-1.485
Mof_O 	O 	0.1907	0.7468	0.6351	-1.487
Mof_O 	O 	0.2029	0.8004	0.6346	-1.59
Mof_O 	O 	0.1635	0.7819	0.6573	-2.01
Mof_O 	O 	0.1632	0.7141	0.5283	-1.628
Mof_O 	O 	0.1696	0.8322	0.5554	-1.462
Mof_O 	O 	0.118	0.67	0.5266	-1.505
Mof_O 	O 	0.1705	0.7829	0.6065	-2.05
Mof_O 	O 	0.1339	0.8004	0.5734	-1.973
Mof_O 	O 	0.1587	0.7883	0.5305	-1.56
Mof_O 	O 	0.1275	0.8217	0.5279	-1.125
Mof_Al	Al	0.1701	0.2195	0.1338	5.574
Mof_Al	Al	0.1442	0.1888	0.0384	4.905
Mof_Al	Al	0.1384	0.2776	0.0953	7.192
Mof_P 	P 	0.1296	0.2189	0.0888	1.392
Mof_P 	P 	0.1838	0.2792	0.1347	1.382
Mof_P 	P 	0.1483	0.3117	0.046	1.102
Mof_O 	O 	0.1261	0.2496	0.0809	-1.999
Mof_O 	O 	0.1127	0.213	0.1141	-2.408
Mof_O 	O 	0.1591	0.2187	0.1017	-1.82
Mof_O 	O 	0.1288	0.2012	0.0659	-1.484
Mof_O 	O 	0.1907	0.2468	0.1351	-1.487
Mof_O 	O 	0.2029	0.3004	0.1346	-1.59
Mof_O 	O 	0.1635	0.2819	0.1573	-2.01
Mof_O 	O 	0.1632	0.2141	0.0283	-1.626
Mof_O 	O 	0.1696	0.3322	0.0554	-1.461
Mof_O 	O 	0.118	0.17	0.0266	-1.504
Mof_O 	O 	0.1705	0.2829	0.1065	-2.05
Mof_O 	O 	0.1339	0.3004	0.0734	-1.973
Mof_O 	O 	0.1587	0.2883	0.0305	-1.556
Mof_O 	O 	0.1275	0.3217	0.0279	-1.122
Mof_Al	Al	0.8299	0.6338	0.2195	5.574
Mof_Al	Al	0.8558	0.5384	0.1888	4.91
Mof_Al	Al	0.8616	0.5953	0.2776	7.194
Mof_P 	P 	0.8704	0.5888	0.2189	1.393
Mof_P 	P 	0.8162	0.6347	0.2792	1.382
Mof_P 	P 	0.8517	0.546	0.3117	1.103
Mof_O 	O 	0.8739	0.5809	0.2496	-1.999
Mof_O 	O 	0.8873	0.6141	0.213	-2.409
Mof_O 	O 	0.8409	0.6017	0.2187	-1.82
Mof_O 	O 	0.8712	0.5659	0.2012	-1.485
Mof_O 	O 	0.8093	0.6351	0.2468	-1.487
Mof_O 	O 	0.7971	0.6346	0.3004	-1.59
Mof_O 	O 	0.8365	0.6573	0.2819	-2.01
Mof_O 	O 	0.8368	0.5283	0.2141	-1.628
Mof_O 	O 	0.8304	0.5554	0.3322	-1.462
Mof_O 	O 	0.882	0.5266	0.17	-1.505
Mof_O 	O 	0.8295	0.6065	0.2829	-2.05
Mof_O 	O 	0.8661	0.5734	0.3004	-1.973
Mof_O 	O 	0.8413	0.5305	0.2883	-1.56
Mof_O 	O 	0.8725	0.5279	0.3217	-1.125
Mof_Al	Al	0.8299	0.1338	0.7195	5.574
Mof_Al	Al	0.8558	0.0384	0.6888	4.906
Mof_Al	Al	0.8616	0.0953	0.7776	7.192
Mof_P 	P 	0.8704	0.0888	0.7189	1.392
Mof_P 	P 	0.8162	0.1347	0.7792	1.382
Mof_P 	P 	0.8517	0.046	0.8117	1.102
Mof_O 	O 	0.8739	0.0809	0.7496	-1.999
Mof_O 	O 	0.8873	0.1141	0.713	-2.408
Mof_O 	O 	0.8409	0.1017	0.7187	-1.82
Mof_O 	O 	0.8712	0.0659	0.7012	-1.484
Mof_O 	O 	0.8093	0.1351	0.7468	-1.487
Mof_O 	O 	0.7971	0.1346	0.8004	-1.59
Mof_O 	O 	0.8365	0.1573	0.7819	-2.01
Mof_O 	O 	0.8368	0.0283	0.7141	-1.626
Mof_O 	O 	0.8304	0.0554	0.8322	-1.461
Mof_O 	O 	0.882	0.0266	0.67	-1.504
Mof_O 	O 	0.8295	0.1065	0.7829	-2.05
Mof_O 	O 	0.8661	0.0734	0.8004	-1.972
Mof_O 	O 	0.8413	0.0305	0.7883	-1.556
Mof_O 	O 	0.8725	0.0279	0.8217	-1.122
Mof_Al	Al	0.3299	0.6338	0.7195	5.574
Mof_Al	Al	0.3558	0.5384	0.6888	4.91
Mof_Al	Al	0.3616	0.5953	0.7776	7.193
Mof_P 	P 	0.3704	0.5888	0.7189	1.393
Mof_P 	P 	0.3162	0.6347	0.7792	1.382
Mof_P 	P 	0.3517	0.546	0.8117	1.103
Mof_O 	O 	0.3739	0.5809	0.7496	-1.999
Mof_O 	O 	0.3873	0.6141	0.713	-2.409
Mof_O 	O 	0.3409	0.6017	0.7187	-1.82
Mof_O 	O 	0.3712	0.5659	0.7012	-1.485
Mof_O 	O 	0.3093	0.6351	0.7468	-1.487
Mof_O 	O 	0.2971	0.6346	0.8004	-1.59
Mof_O 	O 	0.3365	0.6573	0.7819	-2.01
Mof_O 	O 	0.3368	0.5283	0.7141	-1.628
Mof_O 	O 	0.3304	0.5554	0.8322	-1.462
Mof_O 	O 	0.382	0.5266	0.67	-1.505
Mof_O 	O 	0.3295	0.6065	0.7829	-2.05
Mof_O 	O 	0.3661	0.5734	0.8004	-1.973
Mof_O 	O 	0.3413	0.5305	0.7883	-1.56
Mof_O 	O 	0.3725	0.5279	0.8217	-1.125
Mof_Al	Al	0.3299	0.1338	0.2195	5.574
Mof_Al	Al	0.3558	0.0384	0.1888	4.905
Mof_Al	Al	0.3616	0.0953	0.2776	7.192
Mof_P 	P 	0.3704	0.0888	0.2189	1.392
Mof_P 	P 	0.3162	0.1347	0.2792	1.382
Mof_P 	P 	0.3517	0.046	0.3117	1.102
Mof_O 	O 	0.3739	0.0809	0.2496	-1.999
Mof_O 	O 	0.3873	0.1141	0.213	-2.409
Mof_O 	O 	0.3409	0.1017	0.2187	-1.82
Mof_O 	O 	0.3712	0.0659	0.2012	-1.484
Mof_O 	O 	0.3093	0.1351	0.2468	-1.487
Mof_O 	O 	0.2971	0.1346	0.3004	-1.59
Mof_O 	O 	0.3365	0.1573	0.2819	-2.01
Mof_O 	O 	0.3368	0.0283	0.2141	-1.626
Mof_O 	O 	0.3304	0.0554	0.3322	-1.461
Mof_O 	O 	0.382	0.0266	0.17	-1.504
Mof_O 	O 	0.3295	0.1065	0.2829	-2.05
Mof_O 	O 	0.3661	0.0734	0.3004	-1.973
Mof_O 	O 	0.3413	0.0305	0.2883	-1.556
Mof_O 	O 	0.3725	0.0279	0.3217	-1.122
Mof_Al	Al	0.1701	0.3662	0.2195	5.574
Mof_Al	Al	0.1442	0.4616	0.1888	4.91
Mof_Al	Al	0.1384	0.4047	0.2776	7.193
Mof_P 	P 	0.1296	0.4112	0.2189	1.393
Mof_P 	P 	0.1838	0.3653	0.2792	1.382
Mof_P 	P 	0.1483	0.454	0.3117	1.103
Mof_O 	O 	0.1261	0.4191	0.2496	-1.999
Mof_O 	O 	0.1127	0.3859	0.213	-2.408
Mof_O 	O 	0.1591	0.3983	0.2187	-1.82
Mof_O 	O 	0.1288	0.4341	0.2012	-1.485
Mof_O 	O 	0.1907	0.3649	0.2468	-1.487
Mof_O 	O 	0.2029	0.3654	0.3004	-1.59
Mof_O 	O 	0.1635	0.3427	0.2819	-2.01
Mof_O 	O 	0.1632	0.4717	0.2141	-1.628
Mof_O 	O 	0.1696	0.4446	0.3322	-1.462
Mof_O 	O 	0.118	0.4734	0.17	-1.505
Mof_O 	O 	0.1705	0.3935	0.2829	-2.05
Mof_O 	O 	0.1339	0.4266	0.3004	-1.973
Mof_O 	O 	0.1587	0.4695	0.2883	-1.56
Mof_O 	O 	0.1275	0.4721	0.3217	-1.125
Mof_Al	Al	0.1701	0.8662	0.7195	5.574
Mof_Al	Al	0.1442	0.9616	0.6888	4.915
Mof_Al	Al	0.1384	0.9047	0.7776	7.193
Mof_P 	P 	0.1296	0.9112	0.7189	1.393
Mof_P 	P 	0.1838	0.8653	0.7792	1.382
Mof_P 	P 	0.1483	0.954	0.8117	1.102
Mof_O 	O 	0.1261	0.9191	0.7496	-1.998
Mof_O 	O 	0.1127	0.8859	0.713	-2.408
Mof_O 	O 	0.1591	0.8983	0.7187	-1.82
Mof_O 	O 	0.1288	0.9341	0.7012	-1.486
Mof_O 	O 	0.1907	0.8649	0.7468	-1.487
Mof_O 	O 	0.2029	0.8654	0.8004	-1.59
Mof_O 	O 	0.1635	0.8427	0.7819	-2.01
Mof_O 	O 	0.1632	0.9717	0.7141	-1.624
Mof_O 	O 	0.1696	0.9446	0.8322	-1.462
Mof_O 	O 	0.118	0.9734	0.67	-1.502
Mof_O 	O 	0.1705	0.8935	0.7829	-2.05
Mof_O 	O 	0.1339	0.9266	0.8004	-1.972
Mof_O 	O 	0.1587	0.9695	0.7883	-1.553
Mof_O 	O 	0.1275	0.9721	0.8217	-1.118
Mof_Al	Al	0.6701	0.3662	0.7195	5.574
Mof_Al	Al	0.6442	0.4616	0.6888	4.91
Mof_Al	Al	0.6384	0.4047	0.7776	7.193
Mof_P 	P 	0.6296	0.4112	0.7189	1.393
Mof_P 	P 	0.6838	0.3653	0.7792	1.382
Mof_P 	P 	0.6483	0.454	0.8117	1.103
Mof_O 	O 	0.6261	0.4191	0.7496	-1.999
Mof_O 	O 	0.6127	0.3859	0.713	-2.409
Mof_O 	O 	0.6591	0.3983	0.7187	-1.82
Mof_O 	O 	0.6288	0.4341	0.7012	-1.485
Mof_O 	O 	0.6907	0.3649	0.7468	-1.487
Mof_O 	O 	0.7029	0.3654	0.8004	-1.59
Mof_O 	O 	0.6635	0.3427	0.7819	-2.01
Mof_O 	O 	0.6632	0.4717	0.7141	-1.628
Mof_O 	O 	0.6696	0.4446	0.8322	-1.462
Mof_O 	O 	0.618	0.4734	0.67	-1.505
Mof_O 	O 	0.6705	0.3935	0.7829	-2.05
Mof_O 	O 	0.6339	0.4266	0.8004	-1.973
Mof_O 	O 	0.6587	0.4695	0.7883	-1.56
Mof_O 	O 	0.6275	0.4721	0.8217	-1.125
Mof_Al	Al	0.6701	0.8662	0.2195	5.574
Mof_Al	Al	0.6442	0.9616	0.1888	4.915
Mof_Al	Al	0.6384	0.9047	0.2776	7.193
Mof_P 	P 	0.6296	0.9112	0.2189	1.393
Mof_P 	P 	0.6838	0.8653	0.2792	1.382
Mof_P 	P 	0.6483	0.954	0.3117	1.102
Mof_O 	O 	0.6261	0.9191	0.2496	-1.998
Mof_O 	O 	0.6127	0.8859	0.213	-2.409
Mof_O 	O 	0.6591	0.8983	0.2187	-1.82
Mof_O 	O 	0.6288	0.9341	0.2012	-1.486
Mof_O 	O 	0.6907	0.8649	0.2468	-1.487
Mof_O 	O 	0.7029	0.8654	0.3004	-1.59
Mof_O 	O 	0.6635	0.8427	0.2819	-2.01
Mof_O 	O 	0.6632	0.9717	0.2141	-1.624
Mof_O 	O 	0.6696	0.9446	0.3322	-1.462
Mof_O 	O 	0.618	0.9734	0.17	-1.502
Mof_O 	O 	0.6705	0.8935	0.2829	-2.05
Mof_O 	O 	0.6339	0.9266	0.3004	-1.972
Mof_O 	O 	0.6587	0.9695	0.2883	-1.553
Mof_O 	O 	0.6275	0.9721	0.3217	-1.118
Mof_Al	Al	0.8299	0.3662	0.7805	5.574
Mof_Al	Al	0.8558	0.4616	0.8112	4.91
Mof_Al	Al	0.8616	0.4047	0.7224	7.193
Mof_P 	P 	0.8704	0.4112	0.7811	1.393
Mof_P 	P 	0.8162	0.3653	0.7208	1.382
Mof_P 	P 	0.8517	0.454	0.6883	1.103
Mof_O 	O 	0.8739	0.4191	0.7504	-1.999
Mof_O 	O 	0.8873	0.3859	0.787	-2.408
Mof_O 	O 	0.8409	0.3983	0.7813	-1.82
Mof_O 	O 	0.8712	0.4341	0.7988	-1.485
Mof_O 	O 	0.8093	0.3649	0.7532	-1.487
Mof_O 	O 	0.7971	0.3654	0.6996	-1.59
Mof_O 	O 	0.8365	0.3427	0.7181	-2.01
Mof_O 	O 	0.8368	0.4717	0.7859	-1.628
Mof_O 	O 	0.8304	0.4446	0.6678	-1.462
Mof_O 	O 	0.882	0.4734	0.83	-1.505
Mof_O 	O 	0.8295	0.3935	0.7171	-2.05
Mof_O 	O 	0.8661	0.4266	0.6996	-1.973
Mof_O 	O 	0.8413	0.4695	0.7117	-1.56
Mof_O 	O 	0.8725	0.4721	0.6783	-1.125
Mof_Al	Al	0.8299	0.8662	0.2805	5.574
Mof_Al	Al	0.8558	0.9616	0.3112	4.915
Mof_Al	Al	0.8616	0.9047	0.2224	7.194
Mof_P 	P 	0.8704	0.9112	0.2811	1.393
Mof_P 	P 	0.8162	0.8653	0.2208	1.382
Mof_P 	P 	0.8517	0.954	0.1883	1.102
Mof_O 	O 	0.8739	0.9191	0.2504	-1.998
Mof_O 	O 	0.8873	0.8859	0.287	-2.408
Mof_O 	O 	0.8409	0.8983	0.2813	-1.82
Mof_O 	O 	0.8712	0.9341	0.2988	-1.485
Mof_O 	O 	0.8093	0.8649	0.2532	-1.487
Mof_O 	O 	0.7971	0.8654	0.1996	-1.59
Mof_O 	O 	0.8365	0.8427	0.2181	-2.01
Mof_O 	O 	0.8368	0.9717	0.2859	-1.624
Mof_O 	O 	0.8304	0.9446	0.1678	-1.462
Mof_O 	O 	0.882	0.9734	0.33	-1.501
Mof_O 	O 	0.8295	0.8935	0.2171	-2.05
Mof_O 	O 	0.8661	0.9266	0.1996	-1.972
Mof_O 	O 	0.8413	0.9695	0.2117	-1.553
Mof_O 	O 	0.8725	0.9721	0.1783	-1.118
Mof_Al	Al	0.3299	0.3662	0.2805	5.574
Mof_Al	Al	0.3558	0.4616	0.3112	4.91
Mof_Al	Al	0.3616	0.4047	0.2224	7.194
Mof_P 	P 	0.3704	0.4112	0.2811	1.393
Mof_P 	P 	0.3162	0.3653	0.2208	1.382
Mof_P 	P 	0.3517	0.454	0.1883	1.103
Mof_O 	O 	0.3739	0.4191	0.2504	-1.999
Mof_O 	O 	0.3873	0.3859	0.287	-2.409
Mof_O 	O 	0.3409	0.3983	0.2813	-1.82
Mof_O 	O 	0.3712	0.4341	0.2988	-1.485
Mof_O 	O 	0.3093	0.3649	0.2532	-1.487
Mof_O 	O 	0.2971	0.3654	0.1996	-1.59
Mof_O 	O 	0.3365	0.3427	0.2181	-2.01
Mof_O 	O 	0.3368	0.4717	0.2859	-1.628
Mof_O 	O 	0.3304	0.4446	0.1678	-1.462
Mof_O 	O 	0.382	0.4734	0.33	-1.505
Mof_O 	O 	0.3295	0.3935	0.2171	-2.05
Mof_O 	O 	0.3661	0.4266	0.1996	-1.973
Mof_O 	O 	0.3413	0.4695	0.2117	-1.56
Mof_O 	O 	0.3725	0.4721	0.1783	-1.125
Mof_Al	Al	0.3299	0.8662	0.7805	5.574
Mof_Al	Al	0.3558	0.9616	0.8112	4.915
Mof_Al	Al	0.3616	0.9047	0.7224	7.193
Mof_P 	P 	0.3704	0.9112	0.7811	1.393
Mof_P 	P 	0.3162	0.8653	0.7208	1.382
Mof_P 	P 	0.3517	0.954	0.6883	1.102
Mof_O 	O 	0.3739	0.9191	0.7504	-1.998
Mof_O 	O 	0.3873	0.8859	0.787	-2.409
Mof_O 	O 	0.3409	0.8983	0.7813	-1.82
Mof_O 	O 	0.3712	0.9341	0.7988	-1.485
Mof_O 	O 	0.3093	0.8649	0.7532	-1.487
Mof_O 	O 	0.2971	0.8654	0.6996	-1.59
Mof_O 	O 	0.3365	0.8427	0.7181	-2.01
Mof_O 	O 	0.3368	0.9717	0.7859	-1.624
Mof_O 	O 	0.3304	0.9446	0.6678	-1.462
Mof_O 	O 	0.382	0.9734	0.83	-1.502
Mof_O 	O 	0.3295	0.8935	0.7171	-2.05
Mof_O 	O 	0.3661	0.9266	0.6996	-1.972
Mof_O 	O 	0.3413	0.9695	0.7117	-1.553
Mof_O 	O 	0.3725	0.9721	0.6783	-1.118
Mof_Al	Al	0.1701	0.6338	0.7805	5.574
Mof_Al	Al	0.1442	0.5384	0.8112	4.91
Mof_Al	Al	0.1384	0.5953	0.7224	7.193
Mof_P 	P 	0.1296	0.5888	0.7811	1.393
Mof_P 	P 	0.1838	0.6347	0.7208	1.382
Mof_P 	P 	0.1483	0.546	0.6883	1.103
Mof_O 	O 	0.1261	0.5809	0.7504	-1.999
Mof_O 	O 	0.1127	0.6141	0.787	-2.408
Mof_O 	O 	0.1591	0.6017	0.7813	-1.82
Mof_O 	O 	0.1288	0.5659	0.7988	-1.485
Mof_O 	O 	0.1907	0.6351	0.7532	-1.487
Mof_O 	O 	0.2029	0.6346	0.6996	-1.59
Mof_O 	O 	0.1635	0.6573	0.7181	-2.01
Mof_O 	O 	0.1632	0.5283	0.7859	-1.628
Mof_O 	O 	0.1696	0.5554	0.6678	-1.462
Mof_O 	O 	0.118	0.5266	0.83	-1.505
Mof_O 	O 	0.1705	0.6065	0.7171	-2.05
Mof_O 	O 	0.1339	0.5734	0.6996	-1.973
Mof_O 	O 	0.1587	0.5305	0.7117	-1.56
Mof_O 	O 	0.1275	0.5279	0.6783	-1.125
Mof_Al	Al	0.1701	0.1338	0.2805	5.574
Mof_Al	Al	0.1442	0.0384	0.3112	4.905
Mof_Al	Al	0.1384	0.0953	0.2224	7.192
Mof_P 	P 	0.1296	0.0888	0.2811	1.392
Mof_P 	P 	0.1838	0.1347	0.2208	1.382
Mof_P 	P 	0.1483	0.046	0.1883	1.102
Mof_O 	O 	0.1261	0.0809	0.2504	-1.999
Mof_O 	O 	0.1127	0.1141	0.287	-2.408
Mof_O 	O 	0.1591	0.1017	0.2813	-1.82
Mof_O 	O 	0.1288	0.0659	0.2988	-1.484
Mof_O 	O 	0.1907	0.1351	0.2532	-1.487
Mof_O 	O 	0.2029	0.1346	0.1996	-1.59
Mof_O 	O 	0.1635	0.1573	0.2181	-2.01
Mof_O 	O 	0.1632	0.0283	0.2859	-1.626
Mof_O 	O 	0.1696	0.0554	0.1678	-1.461
Mof_O 	O 	0.118	0.0266	0.33	-1.504
Mof_O 	O 	0.1705	0.1065	0.2171	-2.05
Mof_O 	O 	0.1339	0.0734	0.1996	-1.973
Mof_O 	O 	0.1587	0.0305	0.2117	-1.556
Mof_O 	O 	0.1275	0.0279	0.1783	-1.122
Mof_Al	Al	0.6701	0.6338	0.2805	5.574
Mof_Al	Al	0.6442	0.5384	0.3112	4.91
Mof_Al	Al	0.6384	0.5953	0.2224	7.193
Mof_P 	P 	0.6296	0.5888	0.2811	1.393
Mof_P 	P 	0.6838	0.6347	0.2208	1.382
Mof_P 	P 	0.6483	0.546	0.1883	1.103
Mof_O 	O 	0.6261	0.5809	0.2504	-1.999
Mof_O 	O 	0.6127	0.6141	0.287	-2.409
Mof_O 	O 	0.6591	0.6017	0.2813	-1.82
Mof_O 	O 	0.6288	0.5659	0.2988	-1.485
Mof_O 	O 	0.6907	0.6351	0.2532	-1.487
Mof_O 	O 	0.7029	0.6346	0.1996	-1.59
Mof_O 	O 	0.6635	0.6573	0.2181	-2.01
Mof_O 	O 	0.6632	0.5283	0.2859	-1.628
Mof_O 	O 	0.6696	0.5554	0.1678	-1.462
Mof_O 	O 	0.618	0.5266	0.33	-1.505
Mof_O 	O 	0.6705	0.6065	0.2171	-2.05
Mof_O 	O 	0.6339	0.5734	0.1996	-1.973
Mof_O 	O 	0.6587	0.5305	0.2117	-1.56
Mof_O 	O 	0.6275	0.5279	0.1783	-1.125
Mof_Al	Al	0.6701	0.1338	0.7805	5.574
Mof_Al	Al	0.6442	0.0384	0.8112	4.905
Mof_Al	Al	0.6384	0.0953	0.7224	7.192
Mof_P 	P 	0.6296	0.0888	0.7811	1.392
Mof_P 	P 	0.6838	0.1347	0.7208	1.382
Mof_P 	P 	0.6483	0.046	0.6883	1.102
Mof_O 	O 	0.6261	0.0809	0.7504	-1.999
Mof_O 	O 	0.6127	0.1141	0.787	-2.409
Mof_O 	O 	0.6591	0.1017	0.7813	-1.82
Mof_O 	O 	0.6288	0.0659	0.7988	-1.484
Mof_O 	O 	0.6907	0.1351	0.7532	-1.487
Mof_O 	O 	0.7029	0.1346	0.6996	-1.59
Mof_O 	O 	0.6635	0.1573	0.7181	-2.01
Mof_O 	O 	0.6632	0.0283	0.7859	-1.626
Mof_O 	O 	0.6696	0.0554	0.6678	-1.461
Mof_O 	O 	0.618	0.0266	0.83	-1.504
Mof_O 	O 	0.6705	0.1065	0.7171	-2.05
Mof_O 	O 	0.6339	0.0734	0.6996	-1.973
Mof_O 	O 	0.6587	0.0305	0.7117	-1.556
Mof_O 	O 	0.6275	0.0279	0.6783	-1.122
Mof_Al	Al	0.6338	0.7805	0.1701	5.574
Mof_Al	Al	0.5384	0.8112	0.1442	4.91
Mof_Al	Al	0.5953	0.7224	0.1384	7.193
Mof_P 	P 	0.5888	0.7811	0.1296	1.393
Mof_P 	P 	0.6347	0.7208	0.1838	1.382
Mof_P 	P 	0.546	0.6883	0.1483	1.103
Mof_O 	O 	0.5809	0.7504	0.1261	-1.999
Mof_O 	O 	0.6141	0.787	0.1127	-2.408
Mof_O 	O 	0.6017	0.7813	0.1591	-1.82
Mof_O 	O 	0.5659	0.7988	0.1288	-1.485
Mof_O 	O 	0.6351	0.7532	0.1907	-1.487
Mof_O 	O 	0.6346	0.6996	0.2029	-1.59
Mof_O 	O 	0.6573	0.7181	0.1635	-2.01
Mof_O 	O 	0.5283	0.7859	0.1632	-1.628
Mof_O 	O 	0.5554	0.6678	0.1696	-1.462
Mof_O 	O 	0.5266	0.83	0.118	-1.505
Mof_O 	O 	0.6065	0.7171	0.1705	-2.05
Mof_O 	O 	0.5734	0.6996	0.1339	-1.973
Mof_O 	O 	0.5305	0.7117	0.1587	-1.56
Mof_O 	O 	0.5279	0.6783	0.1275	-1.125
Mof_Al	Al	0.6338	0.2805	0.6701	5.574
Mof_Al	Al	0.5384	0.3112	0.6442	4.91
Mof_Al	Al	0.5953	0.2224	0.6384	7.193
Mof_P 	P 	0.5888	0.2811	0.6296	1.393
Mof_P 	P 	0.6347	0.2208	0.6838	1.382
Mof_P 	P 	0.546	0.1883	0.6483	1.103
Mof_O 	O 	0.5809	0.2504	0.6261	-1.999
Mof_O 	O 	0.6141	0.287	0.6127	-2.409
Mof_O 	O 	0.6017	0.2813	0.6591	-1.82
Mof_O 	O 	0.5659	0.2988	0.6288	-1.485
Mof_O 	O 	0.6351	0.2532	0.6907	-1.487
Mof_O 	O 	0.6346	0.1996	0.7029	-1.59
Mof_O 	O 	0.6573	0.2181	0.6635	-2.01
Mof_O 	O 	0.5283	0.2859	0.6632	-1.628
Mof_O 	O 	0.5554	0.1678	0.6696	-1.462
Mof_O 	O 	0.5266	0.33	0.618	-1.505
Mof_O 	O 	0.6065	0.2171	0.6705	-2.05
Mof_O 	O 	0.5734	0.1996	0.6339	-1.973
Mof_O 	O 	0.5305	0.2117	0.6587	-1.56
Mof_O 	O 	0.5279	0.1783	0.6275	-1.125
Mof_Al	Al	0.1338	0.7805	0.6701	5.574
Mof_Al	Al	0.0384	0.8112	0.6442	4.905
Mof_Al	Al	0.0953	0.7224	0.6384	7.192
Mof_P 	P 	0.0888	0.7811	0.6296	1.392
Mof_P 	P 	0.1347	0.7208	0.6838	1.382
Mof_P 	P 	0.046	0.6883	0.6483	1.102
Mof_O 	O 	0.0809	0.7504	0.6261	-1.999
Mof_O 	O 	0.1141	0.787	0.6127	-2.409
Mof_O 	O 	0.1017	0.7813	0.6591	-1.82
Mof_O 	O 	0.0659	0.7988	0.6288	-1.484
Mof_O 	O 	0.1351	0.7532	0.6907	-1.487
Mof_O 	O 	0.1346	0.6996	0.7029	-1.59
Mof_O 	O 	0.1573	0.7181	0.6635	-2.01
Mof_O 	O 	0.0283	0.7859	0.6632	-1.626
Mof_O 	O 	0.0554	0.6678	0.6696	-1.461
Mof_O 	O 	0.0266	0.83	0.618	-1.504
Mof_O 	O 	0.1065	0.7171	0.6705	-2.05
Mof_O 	O 	0.0734	0.6996	0.6339	-1.973
Mof_O 	O 	0.0305	0.7117	0.6587	-1.556
Mof_O 	O 	0.0279	0.6783	0.6275	-1.122
Mof_Al	Al	0.1338	0.2805	0.1701	5.574
Mof_Al	Al	0.0384	0.3112	0.1442	4.905
Mof_Al	Al	0.0953	0.2224	0.1384	7.192
Mof_P 	P 	0.0888	0.2811	0.1296	1.392
Mof_P 	P 	0.1347	0.2208	0.1838	1.382
Mof_P 	P 	0.046	0.1883	0.1483	1.102
Mof_O 	O 	0.0809	0.2504	0.1261	-1.999
Mof_O 	O 	0.1141	0.287	0.1127	-2.408
Mof_O 	O 	0.1017	0.2813	0.1591	-1.82
Mof_O 	O 	0.0659	0.2988	0.1288	-1.484
Mof_O 	O 	0.1351	0.2532	0.1907	-1.487
Mof_O 	O 	0.1346	0.1996	0.2029	-1.59
Mof_O 	O 	0.1573	0.2181	0.1635	-2.01
Mof_O 	O 	0.0283	0.2859	0.1632	-1.626
Mof_O 	O 	0.0554	0.1678	0.1696	-1.461
Mof_O 	O 	0.0266	0.33	0.118	-1.504
Mof_O 	O 	0.1065	0.2171	0.1705	-2.05
Mof_O 	O 	0.0734	0.1996	0.1339	-1.973
Mof_O 	O 	0.0305	0.2117	0.1587	-1.556
Mof_O 	O 	0.0279	0.1783	0.1275	-1.122
Mof_Al	Al	0.3662	0.7805	0.8299	5.574
Mof_Al	Al	0.4616	0.8112	0.8558	4.91
Mof_Al	Al	0.4047	0.7224	0.8616	7.193
Mof_P 	P 	0.4112	0.7811	0.8704	1.393
Mof_P 	P 	0.3653	0.7208	0.8162	1.382
Mof_P 	P 	0.454	0.6883	0.8517	1.103
Mof_O 	O 	0.4191	0.7504	0.8739	-1.999
Mof_O 	O 	0.3859	0.787	0.8873	-2.408
Mof_O 	O 	0.3983	0.7813	0.8409	-1.82
Mof_O 	O 	0.4341	0.7988	0.8712	-1.485
Mof_O 	O 	0.3649	0.7532	0.8093	-1.487
Mof_O 	O 	0.3654	0.6996	0.7971	-1.59
Mof_O 	O 	0.3427	0.7181	0.8365	-2.01
Mof_O 	O 	0.4717	0.7859	0.8368	-1.628
Mof_O 	O 	0.4446	0.6678	0.8304	-1.462
Mof_O 	O 	0.4734	0.83	0.882	-1.505
Mof_O 	O 	0.3935	0.7171	0.8295	-2.05
Mof_O 	O 	0.4266	0.6996	0.8661	-1.973
Mof_O 	O 	0.4695	0.7117	0.8413	-1.56
Mof_O 	O 	0.4721	0.6783	0.8725	-1.125
Mof_Al	Al	0.3662	0.2805	0.3299	5.574
Mof_Al	Al	0.4616	0.3112	0.3558	4.91
Mof_Al	Al	0.4047	0.2224	0.3616	7.194
Mof_P 	P 	0.4112	0.2811	0.3704	1.393
Mof_P 	P 	0.3653	0.2208	0.3162	1.382
Mof_P 	P 	0.454	0.1883	0.3517	1.103
Mof_O 	O 	0.4191	0.2504	0.3739	-1.999
Mof_O 	O 	0.3859	0.287	0.3873	-2.409
Mof_O 	O 	0.3983	0.2813	0.3409	-1.82
Mof_O 	O 	0.4341	0.2988	0.3712	-1.485
Mof_O 	O 	0.3649	0.2532	0.3093	-1.487
Mof_O 	O 	0.3654	0.1996	0.2971	-1.59
Mof_O 	O 	0.3427	0.2181	0.3365	-2.01
Mof_O 	O 	0.4717	0.2859	0.3368	-1.628
Mof_O 	O 	0.4446	0.1678	0.3304	-1.462
Mof_O 	O 	0.4734	0.33	0.382	-1.505
Mof_O 	O 	0.3935	0.2171	0.3295	-2.05
Mof_O 	O 	0.4266	0.1996	0.3661	-1.973
Mof_O 	O 	0.4695	0.2117	0.3413	-1.56
Mof_O 	O 	0.4721	0.1783	0.3725	-1.125
Mof_Al	Al	0.8662	0.7805	0.3299	5.574
Mof_Al	Al	0.9616	0.8112	0.3558	4.915
Mof_Al	Al	0.9047	0.7224	0.3616	7.193
Mof_P 	P 	0.9112	0.7811	0.3704	1.393
Mof_P 	P 	0.8653	0.7208	0.3162	1.382
Mof_P 	P 	0.954	0.6883	0.3517	1.102
Mof_O 	O 	0.9191	0.7504	0.3739	-1.998
Mof_O 	O 	0.8859	0.787	0.3873	-2.409
Mof_O 	O 	0.8983	0.7813	0.3409	-1.82
Mof_O 	O 	0.9341	0.7988	0.3712	-1.485
Mof_O 	O 	0.8649	0.7532	0.3093	-1.487
Mof_O 	O 	0.8654	0.6996	0.2971	-1.59
Mof_O 	O 	0.8427	0.7181	0.3365	-2.01
Mof_O 	O 	0.9717	0.7859	0.3368	-1.624
Mof_O 	O 	0.9446	0.6678	0.3304	-1.462
Mof_O 	O 	0.9734	0.83	0.382	-1.502
Mof_O 	O 	0.8935	0.7171	0.3295	-2.05
Mof_O 	O 	0.9266	0.6996	0.3661	-1.972
Mof_O 	O 	0.9695	0.7117	0.3413	-1.553
Mof_O 	O 	0.9721	0.6783	0.3725	-1.118
Mof_Al	Al	0.8662	0.2805	0.8299	5.574
Mof_Al	Al	0.9616	0.3112	0.8558	4.915
Mof_Al	Al	0.9047	0.2224	0.8616	7.194
Mof_P 	P 	0.9112	0.2811	0.8704	1.393
Mof_P 	P 	0.8653	0.2208	0.8162	1.382
Mof_P 	P 	0.954	0.1883	0.8517	1.102
Mof_O 	O 	0.9191	0.2504	0.8739	-1.998
Mof_O 	O 	0.8859	0.287	0.8873	-2.408
Mof_O 	O 	0.8983	0.2813	0.8409	-1.82
Mof_O 	O 	0.9341	0.2988	0.8712	-1.485
Mof_O 	O 	0.8649	0.2532	0.8093	-1.487
Mof_O 	O 	0.8654	0.1996	0.7971	-1.59
Mof_O 	O 	0.8427	0.2181	0.8365	-2.01
Mof_O 	O 	0.9717	0.2859	0.8368	-1.624
Mof_O 	O 	0.9446	0.1678	0.8304	-1.462
Mof_O 	O 	0.9734	0.33	0.882	-1.501
Mof_O 	O 	0.8935	0.2171	0.8295	-2.05
Mof_O 	O 	0.9266	0.1996	0.8661	-1.972
Mof_O 	O 	0.9695	0.2117	0.8413	-1.553
Mof_O 	O 	0.9721	0.1783	0.8725	-1.118
Mof_Al	Al	0.3662	0.2195	0.1701	5.574
Mof_Al	Al	0.4616	0.1888	0.1442	4.91
Mof_Al	Al	0.4047	0.2776	0.1384	7.193
Mof_P 	P 	0.4112	0.2189	0.1296	1.393
Mof_P 	P 	0.3653	0.2792	0.1838	1.382
Mof_P 	P 	0.454	0.3117	0.1483	1.103
Mof_O 	O 	0.4191	0.2496	0.1261	-1.999
Mof_O 	O 	0.3859	0.213	0.1127	-2.408
Mof_O 	O 	0.3983	0.2187	0.1591	-1.82
Mof_O 	O 	0.4341	0.2012	0.1288	-1.485
Mof_O 	O 	0.3649	0.2468	0.1907	-1.487
Mof_O 	O 	0.3654	0.3004	0.2029	-1.59
Mof_O 	O 	0.3427	0.2819	0.1635	-2.01
Mof_O 	O 	0.4717	0.2141	0.1632	-1.628
Mof_O 	O 	0.4446	0.3322	0.1696	-1.462
Mof_O 	O 	0.4734	0.17	0.118	-1.505
Mof_O 	O 	0.3935	0.2829	0.1705	-2.05
Mof_O 	O 	0.4266	0.3004	0.1339	-1.973
Mof_O 	O 	0.4695	0.2883	0.1587	-1.56
Mof_O 	O 	0.4721	0.3217	0.1275	-1.125
Mof_Al	Al	0.3662	0.7195	0.6701	5.574
Mof_Al	Al	0.4616	0.6888	0.6442	4.91
Mof_Al	Al	0.4047	0.7776	0.6384	7.193
Mof_P 	P 	0.4112	0.7189	0.6296	1.393
Mof_P 	P 	0.3653	0.7792	0.6838	1.382
Mof_P 	P 	0.454	0.8117	0.6483	1.103
Mof_O 	O 	0.4191	0.7496	0.6261	-1.999
Mof_O 	O 	0.3859	0.713	0.6127	-2.409
Mof_O 	O 	0.3983	0.7187	0.6591	-1.82
Mof_O 	O 	0.4341	0.7012	0.6288	-1.485
Mof_O 	O 	0.3649	0.7468	0.6907	-1.487
Mof_O 	O 	0.3654	0.8004	0.7029	-1.59
Mof_O 	O 	0.3427	0.7819	0.6635	-2.01
Mof_O 	O 	0.4717	0.7141	0.6632	-1.628
Mof_O 	O 	0.4446	0.8322	0.6696	-1.462
Mof_O 	O 	0.4734	0.67	0.618	-1.505
Mof_O 	O 	0.3935	0.7829	0.6705	-2.05
Mof_O 	O 	0.4266	0.8004	0.6339	-1.973
Mof_O 	O 	0.4695	0.7883	0.6587	-1.56
Mof_O 	O 	0.4721	0.8217	0.6275	-1.125
Mof_Al	Al	0.8662	0.2195	0.6701	5.574
Mof_Al	Al	0.9616	0.1888	0.6442	4.915
Mof_Al	Al	0.9047	0.2776	0.6384	7.193
Mof_P 	P 	0.9112	0.2189	0.6296	1.393
Mof_P 	P 	0.8653	0.2792	0.6838	1.382
Mof_P 	P 	0.954	0.3117	0.6483	1.102
Mof_O 	O 	0.9191	0.2496	0.6261	-1.998
Mof_O 	O 	0.8859	0.213	0.6127	-2.409
Mof_O 	O 	0.8983	0.2187	0.6591	-1.82
Mof_O 	O 	0.9341	0.2012	0.6288	-1.486
Mof_O 	O 	0.8649	0.2468	0.6907	-1.487
Mof_O 	O 	0.8654	0.3004	0.7029	-1.59
Mof_O 	O 	0.8427	0.2819	0.6635	-2.01
Mof_O 	O 	0.9717	0.2141	0.6632	-1.624
Mof_O 	O 	0.9446	0.3322	0.6696	-1.462
Mof_O 	O 	0.9734	0.17	0.618	-1.502
Mof_O 	O 	0.8935	0.2829	0.6705	-2.05
Mof_O 	O 	0.9266	0.3004	0.6339	-1.972
Mof_O 	O 	0.9695	0.2883	0.6587	-1.553
Mof_O 	O 	0.9721	0.3217	0.6275	-1.118
Mof_Al	Al	0.8662	0.7195	0.1701	5.574
Mof_Al	Al	0.9616	0.6888	0.1442	4.915
Mof_Al	Al	0.9047	0.7776	0.1384	7.193
Mof_P 	P 	0.9112	0.7189	0.1296	1.393
Mof_P 	P 	0.8653	0.7792	0.1838	1.382
Mof_P 	P 	0.954	0.8117	0.1483	1.102
Mof_O 	O 	0.9191	0.7496	0.1261	-1.998
Mof_O 	O 	0.8859	0.713	0.1127	-2.408
Mof_O 	O 	0.8983	0.7187	0.1591	-1.82
Mof_O 	O 	0.9341	0.7012	0.1288	-1.486
Mof_O 	O 	0.8649	0.7468	0.1907	-1.487
Mof_O 	O 	0.8654	0.8004	0.2029	-1.59
Mof_O 	O 	0.8427	0.7819	0.1635	-2.01
Mof_O 	O 	0.9717	0.7141	0.1632	-1.624
Mof_O 	O 	0.9446	0.8322	0.1696	-1.462
Mof_O 	O 	0.9734	0.67	0.118	-1.502
Mof_O 	O 	0.8935	0.7829	0.1705	-2.05
Mof_O 	O 	0.9266	0.8004	0.1339	-1.972
Mof_O 	O 	0.9695	0.7883	0.1587	-1.553
Mof_O 	O 	0.9721	0.8217	0.1275	-1.118
Mof_Al	Al	0.6338	0.2195	0.8299	5.574
Mof_Al	Al	0.5384	0.1888	0.8558	4.91
Mof_Al	Al	0.5953	0.2776	0.8616	7.194
Mof_P 	P 	0.5888	0.2189	0.8704	1.393
Mof_P 	P 	0.6347	0.2792	0.8162	1.382
Mof_P 	P 	0.546	0.3117	0.8517	1.103
Mof_O 	O 	0.5809	0.2496	0.8739	-1.999
Mof_O 	O 	0.6141	0.213	0.8873	-2.409
Mof_O 	O 	0.6017	0.2187	0.8409	-1.82
Mof_O 	O 	0.5659	0.2012	0.8712	-1.485
Mof_O 	O 	0.6351	0.2468	0.8093	-1.487
Mof_O 	O 	0.6346	0.3004	0.7971	-1.59
Mof_O 	O 	0.6573	0.2819	0.8365	-2.01
Mof_O 	O 	0.5283	0.2141	0.8368	-1.628
Mof_O 	O 	0.5554	0.3322	0.8304	-1.462
Mof_O 	O 	0.5266	0.17	0.882	-1.505
Mof_O 	O 	0.6065	0.2829	0.8295	-2.05
Mof_O 	O 	0.5734	0.3004	0.8661	-1.973
Mof_O 	O 	0.5305	0.2883	0.8413	-1.56
Mof_O 	O 	0.5279	0.3217	0.8725	-1.125
Mof_Al	Al	0.6338	0.7195	0.3299	5.574
Mof_Al	Al	0.5384	0.6888	0.3558	4.91
Mof_Al	Al	0.5953	0.7776	0.3616	7.193
Mof_P 	P 	0.5888	0.7189	0.3704	1.393
Mof_P 	P 	0.6347	0.7792	0.3162	1.382
Mof_P 	P 	0.546	0.8117	0.3517	1.103
Mof_O 	O 	0.5809	0.7496	0.3739	-1.999
Mof_O 	O 	0.6141	0.713	0.3873	-2.409
Mof_O 	O 	0.6017	0.7187	0.3409	-1.82
Mof_O 	O 	0.5659	0.7012	0.3712	-1.485
Mof_O 	O 	0.6351	0.7468	0.3093	-1.487
Mof_O 	O 	0.6346	0.8004	0.2971	-1.59
Mof_O 	O 	0.6573	0.7819	0.3365	-2.01
Mof_O 	O 	0.5283	0.7141	0.3368	-1.628
Mof_O 	O 	0.5554	0.8322	0.3304	-1.462
Mof_O 	O 	0.5266	0.67	0.382	-1.505
Mof_O 	O 	0.6065	0.7829	0.3295	-2.05
Mof_O 	O 	0.5734	0.8004	0.3661	-1.973
Mof_O 	O 	0.5305	0.7883	0.3413	-1.56
Mof_O 	O 	0.5279	0.8217	0.3725	-1.125
Mof_Al	Al	0.1338	0.2195	0.3299	5.574
Mof_Al	Al	0.0384	0.1888	0.3558	4.905
Mof_Al	Al	0.0953	0.2776	0.3616	7.192
Mof_P 	P 	0.0888	0.2189	0.3704	1.392
Mof_P 	P 	0.1347	0.2792	0.3162	1.382
Mof_P 	P 	0.046	0.3117	0.3517	1.102
Mof_O 	O 	0.0809	0.2496	0.3739	-1.999
Mof_O 	O 	0.1141	0.213	0.3873	-2.409
Mof_O 	O 	0.1017	0.2187	0.3409	-1.82
Mof_O 	O 	0.0659	0.2012	0.3712	-1.484
Mof_O 	O 	0.1351	0.2468	0.3093	-1.487
Mof_O 	O 	0.1346	0.3004	0.2971	-1.59
Mof_O 	O 	0.1573	0.2819	0.3365	-2.01
Mof_O 	O 	0.0283	0.2141	0.3368	-1.626
Mof_O 	O 	0.0554	0.3322	0.3304	-1.461
Mof_O 	O 	0.0266	0.17	0.382	-1.504
Mof_O 	O 	0.1065	0.2829	0.3295	-2.05
Mof_O 	O 	0.0734	0.3004	0.3661	-1.973
Mof_O 	O 	0.0305	0.2883	0.3413	-1.556
Mof_O 	O 	0.0279	0.3217	0.3725	-1.122
Mof_Al	Al	0.1338	0.7195	0.8299	5.574
Mof_Al	Al	0.0384	0.6888	0.8558	4.906
Mof_Al	Al	0.0953	0.7776	0.8616	7.192
Mof_P 	P 	0.0888	0.7189	0.8704	1.392
Mof_P 	P 	0.1347	0.7792	0.8162	1.382
Mof_P 	P 	0.046	0.8117	0.8517	1.102
Mof_O 	O 	0.0809	0.7496	0.8739	-1.999
Mof_O 	O 	0.1141	0.713	0.8873	-2.408
Mof_O 	O 	0.1017	0.7187	0.8409	-1.82
Mof_O 	O 	0.0659	0.7012	0.8712	-1.484
Mof_O 	O 	0.1351	0.7468	0.8093	-1.487
Mof_O 	O 	0.1346	0.8004	0.7971	-1.59
Mof_O 	O 	0.1573	0.7819	0.8365	-2.01
Mof_O 	O 	0.0283	0.7141	0.8368	-1.626
Mof_O 	O 	0.0554	0.8322	0.8304	-1.461
Mof_O 	O 	0.0266	0.67	0.882	-1.504
Mof_O 	O 	0.1065	0.7829	0.8295	-2.05
Mof_O 	O 	0.0734	0.8004	0.8661	-1.972
Mof_O 	O 	0.0305	0.7883	0.8413	-1.556
Mof_O 	O 	0.0279	0.8217	0.8725	-1.122
Mof_Al	Al	0.7805	0.8299	0.3662	5.574
Mof_Al	Al	0.8112	0.8558	0.4616	4.91
Mof_Al	Al	0.7224	0.8616	0.4047	7.193
Mof_P 	P 	0.7811	0.8704	0.4112	1.393
Mof_P 	P 	0.7208	0.8162	0.3653	1.382
Mof_P 	P 	0.6883	0.8517	0.454	1.103
Mof_O 	O 	0.7504	0.8739	0.4191	-1.999
Mof_O 	O 	0.787	0.8873	0.3859	-2.408
Mof_O 	O 	0.7813	0.8409	0.3983	-1.82
Mof_O 	O 	0.7988	0.8712	0.4341	-1.485
Mof_O 	O 	0.7532	0.8093	0.3649	-1.487
Mof_O 	O 	0.6996	0.7971	0.3654	-1.59
Mof_O 	O 	0.7181	0.8365	0.3427	-2.01
Mof_O 	O 	0.7859	0.8368	0.4717	-1.628
Mof_O 	O 	0.6678	0.8304	0.4446	-1.462
Mof_O 	O 	0.83	0.882	0.4734	-1.505
Mof_O 	O 	0.7171	0.8295	0.3935	-2.05
Mof_O 	O 	0.6996	0.8661	0.4266	-1.973
Mof_O 	O 	0.7117	0.8413	0.4695	-1.56
Mof_O 	O 	0.6783	0.8725	0.4721	-1.125
Mof_Al	Al	0.7805	0.3299	0.8662	5.574
Mof_Al	Al	0.8112	0.3558	0.9616	4.915
Mof_Al	Al	0.7224	0.3616	0.9047	7.193
Mof_P 	P 	0.7811	0.3704	0.9112	1.393
Mof_P 	P 	0.7208	0.3162	0.8653	1.382
Mof_P 	P 	0.6883	0.3517	0.954	1.102
Mof_O 	O 	0.7504	0.3739	0.9191	-1.998
Mof_O 	O 	0.787	0.3873	0.8859	-2.409
Mof_O 	O 	0.7813	0.3409	0.8983	-1.82
Mof_O 	O 	0.7988	0.3712	0.9341	-1.485
Mof_O 	O 	0.7532	0.3093	0.8649	-1.487
Mof_O 	O 	0.6996	0.2971	0.8654	-1.59
Mof_O 	O 	0.7181	0.3365	0.8427	-2.01
Mof_O 	O 	0.7859	0.3368	0.9717	-1.624
Mof_O 	O 	0.6678	0.3304	0.9446	-1.462
Mof_O 	O 	0.83	0.382	0.9734	-1.502
Mof_O 	O 	0.7171	0.3295	0.8935	-2.05
Mof_O 	O 	0.6996	0.3661	0.9266	-1.972
Mof_O 	O 	0.7117	0.3413	0.9695	-1.553
Mof_O 	O 	0.6783	0.3725	0.9721	-1.118
Mof_Al	Al	0.2805	0.8299	0.8662	5.574
Mof_Al	Al	0.3112	0.8558	0.9616	4.915
Mof_Al	Al	0.2224	0.8616	0.9047	7.194
Mof_P 	P 	0.2811	0.8704	0.9112	1.393
Mof_P 	P 	0.2208	0.8162	0.8653	1.382
Mof_P 	P 	0.1883	0.8517	0.954	1.102
Mof_O 	O 	0.2504	0.8739	0.9191	-1.998
Mof_O 	O 	0.287	0.8873	0.8859	-2.408
Mof_O 	O 	0.2813	0.8409	0.8983	-1.82
Mof_O 	O 	0.2988	0.8712	0.9341	-1.485
Mof_O 	O 	0.2532	0.8093	0.8649	-1.487
Mof_O 	O 	0.1996	0.7971	0.8654	-1.59
Mof_O 	O 	0.2181	0.8365	0.8427	-2.01
Mof_O 	O 	0.2859	0.8368	0.9717	-1.624
Mof_O 	O 	0.1678	0.8304	0.9446	-1.462
Mof_O 	O 	0.33	0.882	0.9734	-1.501
Mof_O 	O 	0.2171	0.8295	0.8935	-2.05
Mof_O 	O 	0.1996	0.8661	0.9266	-1.972
Mof_O 	O 	0.2117	0.8413	0.9695	-1.553
Mof_O 	O 	0.1783	0.8725	0.9721	-1.118
Mof_Al	Al	0.2805	0.3299	0.3662	5.574
Mof_Al	Al	0.3112	0.3558	0.4616	4.91
Mof_Al	Al	0.2224	0.3616	0.4047	7.194
Mof_P 	P 	0.2811	0.3704	0.4112	1.393
Mof_P 	P 	0.2208	0.3162	0.3653	1.382
Mof_P 	P 	0.1883	0.3517	0.454	1.103
Mof_O 	O 	0.2504	0.3739	0.4191	-1.999
Mof_O 	O 	0.287	0.3873	0.3859	-2.409
Mof_O 	O 	0.2813	0.3409	0.3983	-1.82
Mof_O 	O 	0.2988	0.3712	0.4341	-1.485
Mof_O 	O 	0.2532	0.3093	0.3649	-1.487
Mof_O 	O 	0.1996	0.2971	0.3654	-1.59
Mof_O 	O 	0.2181	0.3365	0.3427	-2.01
Mof_O 	O 	0.2859	0.3368	0.4717	-1.628
Mof_O 	O 	0.1678	0.3304	0.4446	-1.462
Mof_O 	O 	0.33	0.382	0.4734	-1.505
Mof_O 	O 	0.2171	0.3295	0.3935	-2.05
Mof_O 	O 	0.1996	0.3661	0.4266	-1.973
Mof_O 	O 	0.2117	0.3413	0.4695	-1.56
Mof_O 	O 	0.1783	0.3725	0.4721	-1.125
Mof_Al	Al	0.7805	0.1701	0.6338	5.574
Mof_Al	Al	0.8112	0.1442	0.5384	4.91
Mof_Al	Al	0.7224	0.1384	0.5953	7.193
Mof_P 	P 	0.7811	0.1296	0.5888	1.393
Mof_P 	P 	0.7208	0.1838	0.6347	1.382
Mof_P 	P 	0.6883	0.1483	0.546	1.103
Mof_O 	O 	0.7504	0.1261	0.5809	-1.999
Mof_O 	O 	0.787	0.1127	0.6141	-2.408
Mof_O 	O 	0.7813	0.1591	0.6017	-1.82
Mof_O 	O 	0.7988	0.1288	0.5659	-1.485
Mof_O 	O 	0.7532	0.1907	0.6351	-1.487
Mof_O 	O 	0.6996	0.2029	0.6346	-1.59
Mof_O 	O 	0.7181	0.1635	0.6573	-2.01
Mof_O 	O 	0.7859	0.1632	0.5283	-1.628
Mof_O 	O 	0.6678	0.1696	0.5554	-1.462
Mof_O 	O 	0.83	0.118	0.5266	-1.505
Mof_O 	O 	0.7171	0.1705	0.6065	-2.05
Mof_O 	O 	0.6996	0.1339	0.5734	-1.973
Mof_O 	O 	0.7117	0.1587	0.5305	-1.56
Mof_O 	O 	0.6783	0.1275	0.5279	-1.125
Mof_Al	Al	0.7805	0.6701	0.1338	5.574
Mof_Al	Al	0.8112	0.6442	0.0384	4.905
Mof_Al	Al	0.7224	0.6384	0.0953	7.192
Mof_P 	P 	0.7811	0.6296	0.0888	1.392
Mof_P 	P 	0.7208	0.6838	0.1347	1.382
Mof_P 	P 	0.6883	0.6483	0.046	1.102
Mof_O 	O 	0.7504	0.6261	0.0809	-1.999
Mof_O 	O 	0.787	0.6127	0.1141	-2.409
Mof_O 	O 	0.7813	0.6591	0.1017	-1.82
Mof_O 	O 	0.7988	0.6288	0.0659	-1.484
Mof_O 	O 	0.7532	0.6907	0.1351	-1.487
Mof_O 	O 	0.6996	0.7029	0.1346	-1.59
Mof_O 	O 	0.7181	0.6635	0.1573	-2.01
Mof_O 	O 	0.7859	0.6632	0.0283	-1.626
Mof_O 	O 	0.6678	0.6696	0.0554	-1.461
Mof_O 	O 	0.83	0.618	0.0266	-1.504
Mof_O 	O 	0.7171	0.6705	0.1065	-2.05
Mof_O 	O 	0.6996	0.6339	0.0734	-1.973
Mof_O 	O 	0.7117	0.6587	0.0305	-1.556
Mof_O 	O 	0.6783	0.6275	0.0279	-1.122
Mof_Al	Al	0.2805	0.1701	0.1338	5.574
Mof_Al	Al	0.3112	0.1442	0.0384	4.905
Mof_Al	Al	0.2224	0.1384	0.0953	7.192
Mof_P 	P 	0.2811	0.1296	0.0888	1.392
Mof_P 	P 	0.2208	0.1838	0.1347	1.382
Mof_P 	P 	0.1883	0.1483	0.046	1.102
Mof_O 	O 	0.2504	0.1261	0.0809	-1.999
Mof_O 	O 	0.287	0.1127	0.1141	-2.408
Mof_O 	O 	0.2813	0.1591	0.1017	-1.82
Mof_O 	O 	0.2988	0.1288	0.0659	-1.484
Mof_O 	O 	0.2532	0.1907	0.1351	-1.487
Mof_O 	O 	0.1996	0.2029	0.1346	-1.59
Mof_O 	O 	0.2181	0.1635	0.1573	-2.01
Mof_O 	O 	0.2859	0.1632	0.0283	-1.626
Mof_O 	O 	0.1678	0.1696	0.0554	-1.461
Mof_O 	O 	0.33	0.118	0.0266	-1.504
Mof_O 	O 	0.2171	0.1705	0.1065	-2.05
Mof_O 	O 	0.1996	0.1339	0.0734	-1.973
Mof_O 	O 	0.2117	0.1587	0.0305	-1.556
Mof_O 	O 	0.1783	0.1275	0.0279	-1.122
Mof_Al	Al	0.2805	0.6701	0.6338	5.574
Mof_Al	Al	0.3112	0.6442	0.5384	4.91
Mof_Al	Al	0.2224	0.6384	0.5953	7.193
Mof_P 	P 	0.2811	0.6296	0.5888	1.393
Mof_P 	P 	0.2208	0.6838	0.6347	1.382
Mof_P 	P 	0.1883	0.6483	0.546	1.103
Mof_O 	O 	0.2504	0.6261	0.5809	-1.999
Mof_O 	O 	0.287	0.6127	0.6141	-2.409
Mof_O 	O 	0.2813	0.6591	0.6017	-1.82
Mof_O 	O 	0.2988	0.6288	0.5659	-1.485
Mof_O 	O 	0.2532	0.6907	0.6351	-1.487
Mof_O 	O 	0.1996	0.7029	0.6346	-1.59
Mof_O 	O 	0.2181	0.6635	0.6573	-2.01
Mof_O 	O 	0.2859	0.6632	0.5283	-1.628
Mof_O 	O 	0.1678	0.6696	0.5554	-1.462
Mof_O 	O 	0.33	0.618	0.5266	-1.505
Mof_O 	O 	0.2171	0.6705	0.6065	-2.05
Mof_O 	O 	0.1996	0.6339	0.5734	-1.973
Mof_O 	O 	0.2117	0.6587	0.5305	-1.56
Mof_O 	O 	0.1783	0.6275	0.5279	-1.125
Mof_Al	Al	0.2195	0.8299	0.6338	5.574
Mof_Al	Al	0.1888	0.8558	0.5384	4.91
Mof_Al	Al	0.2776	0.8616	0.5953	7.194
Mof_P 	P 	0.2189	0.8704	0.5888	1.393
Mof_P 	P 	0.2792	0.8162	0.6347	1.382
Mof_P 	P 	0.3117	0.8517	0.546	1.103
Mof_O 	O 	0.2496	0.8739	0.5809	-1.999
Mof_O 	O 	0.213	0.8873	0.6141	-2.409
Mof_O 	O 	0.2187	0.8409	0.6017	-1.82
Mof_O 	O 	0.2012	0.8712	0.5659	-1.485
Mof_O 	O 	0.2468	0.8093	0.6351	-1.487
Mof_O 	O 	0.3004	0.7971	0.6346	-1.59
Mof_O 	O 	0.2819	0.8365	0.6573	-2.01
Mof_O 	O 	0.2141	0.8368	0.5283	-1.628
Mof_O 	O 	0.3322	0.8304	0.5554	-1.462
Mof_O 	O 	0.17	0.882	0.5266	-1.505
Mof_O 	O 	0.2829	0.8295	0.6065	-2.05
Mof_O 	O 	0.3004	0.8661	0.5734	-1.973
Mof_O 	O 	0.2883	0.8413	0.5305	-1.56
Mof_O 	O 	0.3217	0.8725	0.5279	-1.125
Mof_Al	Al	0.2195	0.3299	0.1338	5.574
Mof_Al	Al	0.1888	0.3558	0.0384	4.905
Mof_Al	Al	0.2776	0.3616	0.0953	7.192
Mof_P 	P 	0.2189	0.3704	0.0888	1.392
Mof_P 	P 	0.2792	0.3162	0.1347	1.382
Mof_P 	P 	0.3117	0.3517	0.046	1.102
Mof_O 	O 	0.2496	0.3739	0.0809	-1.999
Mof_O 	O 	0.213	0.3873	0.1141	-2.409
Mof_O 	O 	0.2187	0.3409	0.1017	-1.82
Mof_O 	O 	0.2012	0.3712	0.0659	-1.484
Mof_O 	O 	0.2468	0.3093	0.1351	-1.487
Mof_O 	O 	0.3004	0.2971	0.1346	-1.59
Mof_O 	O 	0.2819	0.3365	0.1573	-2.01
Mof_O 	O 	0.2141	0.3368	0.0283	-1.626
Mof_O 	O 	0.3322	0.3304	0.0554	-1.461
Mof_O 	O 	0.17	0.382	0.0266	-1.504
Mof_O 	O 	0.2829	0.3295	0.1065	-2.05
Mof_O 	O 	0.3004	0.3661	0.0734	-1.973
Mof_O 	O 	0.2883	0.3413	0.0305	-1.556
Mof_O 	O 	0.3217	0.3725	0.0279	-1.122
Mof_Al	Al	0.7195	0.8299	0.1338	5.574
Mof_Al	Al	0.6888	0.8558	0.0384	4.906
Mof_Al	Al	0.7776	0.8616	0.0953	7.192
Mof_P 	P 	0.7189	0.8704	0.0888	1.392
Mof_P 	P 	0.7792	0.8162	0.1347	1.382
Mof_P 	P 	0.8117	0.8517	0.046	1.102
Mof_O 	O 	0.7496	0.8739	0.0809	-1.999
Mof_O 	O 	0.713	0.8873	0.1141	-2.408
Mof_O 	O 	0.7187	0.8409	0.1017	-1.82
Mof_O 	O 	0.7012	0.8712	0.0659	-1.484
Mof_O 	O 	0.7468	0.8093	0.1351	-1.487
Mof_O 	O 	0.8004	0.7971	0.1346	-1.59
Mof_O 	O 	0.7819	0.8365	0.1573	-2.01
Mof_O 	O 	0.7141	0.8368	0.0283	-1.626
Mof_O 	O 	0.8322	0.8304	0.0554	-1.461
Mof_O 	O 	0.67	0.882	0.0266	-1.504
Mof_O 	O 	0.7829	0.8295	0.1065	-2.05
Mof_O 	O 	0.8004	0.8661	0.0734	-1.972
Mof_O 	O 	0.7883	0.8413	0.0305	-1.556
Mof_O 	O 	0.8217	0.8725	0.0279	-1.122
Mof_Al	Al	0.7195	0.3299	0.6338	5.574
Mof_Al	Al	0.6888	0.3558	0.5384	4.91
Mof_Al	Al	0.7776	0.3616	0.5953	7.193
Mof_P 	P 	0.7189	0.3704	0.5888	1.393
Mof_P 	P 	0.7792	0.3162	0.6347	1.382
Mof_P 	P 	0.8117	0.3517	0.546	1.103
Mof_O 	O 	0.7496	0.3739	0.5809	-1.999
Mof_O 	O 	0.713	0.3873	0.6141	-2.409
Mof_O 	O 	0.7187	0.3409	0.6017	-1.82
Mof_O 	O 	0.7012	0.3712	0.5659	-1.485
Mof_O 	O 	0.7468	0.3093	0.6351	-1.487
Mof_O 	O 	0.8004	0.2971	0.6346	-1.59
Mof_O 	O 	0.7819	0.3365	0.6573	-2.01
Mof_O 	O 	0.7141	0.3368	0.5283	-1.628
Mof_O 	O 	0.8322	0.3304	0.5554	-1.462
Mof_O 	O 	0.67	0.382	0.5266	-1.505
Mof_O 	O 	0.7829	0.3295	0.6065	-2.05
Mof_O 	O 	0.8004	0.3661	0.5734	-1.973
Mof_O 	O 	0.7883	0.3413	0.5305	-1.56
Mof_O 	O 	0.8217	0.3725	0.5279	-1.125
Mof_Al	Al	0.2195	0.1701	0.3662	5.574
Mof_Al	Al	0.1888	0.1442	0.4616	4.91
Mof_Al	Al	0.2776	0.1384	0.4047	7.193
Mof_P 	P 	0.2189	0.1296	0.4112	1.393
Mof_P 	P 	0.2792	0.1838	0.3653	1.382
Mof_P 	P 	0.3117	0.1483	0.454	1.103
Mof_O 	O 	0.2496	0.1261	0.4191	-1.999
Mof_O 	O 	0.213	0.1127	0.3859	-2.408
Mof_O 	O 	0.2187	0.1591	0.3983	-1.82
Mof_O 	O 	0.2012	0.1288	0.4341	-1.485
Mof_O 	O 	0.2468	0.1907	0.3649	-1.487
Mof_O 	O 	0.3004	0.2029	0.3654	-1.59
Mof_O 	O 	0.2819	0.1635	0.3427	-2.01
Mof_O 	O 	0.2141	0.1632	0.4717	-1.628
Mof_O 	O 	0.3322	0.1696	0.4446	-1.462
Mof_O 	O 	0.17	0.118	0.4734	-1.505
Mof_O 	O 	0.2829	0.1705	0.3935	-2.05
Mof_O 	O 	0.3004	0.1339	0.4266	-1.973
Mof_O 	O 	0.2883	0.1587	0.4695	-1.56
Mof_O 	O 	0.3217	0.1275	0.4721	-1.125
Mof_Al	Al	0.2195	0.6701	0.8662	5.574
Mof_Al	Al	0.1888	0.6442	0.9616	4.915
Mof_Al	Al	0.2776	0.6384	0.9047	7.193
Mof_P 	P 	0.2189	0.6296	0.9112	1.393
Mof_P 	P 	0.2792	0.6838	0.8653	1.382
Mof_P 	P 	0.3117	0.6483	0.954	1.102
Mof_O 	O 	0.2496	0.6261	0.9191	-1.998
Mof_O 	O 	0.213	0.6127	0.8859	-2.409
Mof_O 	O 	0.2187	0.6591	0.8983	-1.82
Mof_O 	O 	0.2012	0.6288	0.9341	-1.486
Mof_O 	O 	0.2468	0.6907	0.8649	-1.487
Mof_O 	O 	0.3004	0.7029	0.8654	-1.59
Mof_O 	O 	0.2819	0.6635	0.8427	-2.01
Mof_O 	O 	0.2141	0.6632	0.9717	-1.624
Mof_O 	O 	0.3322	0.6696	0.9446	-1.462
Mof_O 	O 	0.17	0.618	0.9734	-1.502
Mof_O 	O 	0.2829	0.6705	0.8935	-2.05
Mof_O 	O 	0.3004	0.6339	0.9266	-1.972
Mof_O 	O 	0.2883	0.6587	0.9695	-1.553
Mof_O 	O 	0.3217	0.6275	0.9721	-1.118
Mof_Al	Al	0.7195	0.1701	0.8662	5.574
Mof_Al	Al	0.6888	0.1442	0.9616	4.915
Mof_Al	Al	0.7776	0.1384	0.9047	7.193
Mof_P 	P 	0.7189	0.1296	0.9112	1.393
Mof_P 	P 	0.7792	0.1838	0.8653	1.382
Mof_P 	P 	0.8117	0.1483	0.954	1.102
Mof_O 	O 	0.7496	0.1261	0.9191	-1.998
Mof_O 	O 	0.713	0.1127	0.8859	-2.408
Mof_O 	O 	0.7187	0.1591	0.8983	-1.82
Mof_O 	O 	0.7012	0.1288	0.9341	-1.486
Mof_O 	O 	0.7468	0.1907	0.8649	-1.487
Mof_O 	O 	0.8004	0.2029	0.8654	-1.59
Mof_O 	O 	0.7819	0.1635	0.8427	-2.01
Mof_O 	O 	0.7141	0.1632	0.9717	-1.624
Mof_O 	O 	0.8322	0.1696	0.9446	-1.462
Mof_O 	O 	0.67	0.118	0.9734	-1.502
Mof_O 	O 	0.7829	0.1705	0.8935	-2.05
Mof_O 	O 	0.8004	0.1339	0.9266	-1.972
Mof_O 	O 	0.7883	0.1587	0.9695	-1.553
Mof_O 	O 	0.8217	0.1275	0.9721	-1.118
Mof_Al	Al	0.7195	0.6701	0.3662	5.574
Mof_Al	Al	0.6888	0.6442	0.4616	4.91
Mof_Al	Al	0.7776	0.6384	0.4047	7.193
Mof_P 	P 	0.7189	0.6296	0.4112	1.393
Mof_P 	P 	0.7792	0.6838	0.3653	1.382
Mof_P 	P 	0.8117	0.6483	0.454	1.103
Mof_O 	O 	0.7496	0.6261	0.4191	-1.999
Mof_O 	O 	0.713	0.6127	0.3859	-2.409
Mof_O 	O 	0.7187	0.6591	0.3983	-1.82
Mof_O 	O 	0.7012	0.6288	0.4341	-1.485
Mof_O 	O 	0.7468	0.6907	0.3649	-1.487
Mof_O 	O 	0.8004	0.7029	0.3654	-1.59
Mof_O 	O 	0.7819	0.6635	0.3427	-2.01
Mof_O 	O 	0.7141	0.6632	0.4717	-1.628
Mof_O 	O 	0.8322	0.6696	0.4446	-1.462
Mof_O 	O 	0.67	0.618	0.4734	-1.505
Mof_O 	O 	0.7829	0.6705	0.3935	-2.05
Mof_O 	O 	0.8004	0.6339	0.4266	-1.973
Mof_O 	O 	0.7883	0.6587	0.4695	-1.56
Mof_O 	O 	0.8217	0.6275	0.4721	-1.125
Mof_Al	Al	0.8662	0.6701	0.7195	5.574
Mof_Al	Al	0.9616	0.6442	0.6888	4.915
Mof_Al	Al	0.9047	0.6384	0.7776	7.193
Mof_P 	P 	0.9112	0.6296	0.7189	1.393
Mof_P 	P 	0.8653	0.6838	0.7792	1.382
Mof_P 	P 	0.954	0.6483	0.8117	1.102
Mof_O 	O 	0.9191	0.6261	0.7496	-1.998
Mof_O 	O 	0.8859	0.6127	0.713	-2.409
Mof_O 	O 	0.8983	0.6591	0.7187	-1.82
Mof_O 	O 	0.9341	0.6288	0.7012	-1.485
Mof_O 	O 	0.8649	0.6907	0.7468	-1.487
Mof_O 	O 	0.8654	0.7029	0.8004	-1.59
Mof_O 	O 	0.8427	0.6635	0.7819	-2.01
Mof_O 	O 	0.9717	0.6632	0.7141	-1.624
Mof_O 	O 	0.9446	0.6696	0.8322	-1.462
Mof_O 	O 	0.9734	0.618	0.67	-1.502
Mof_O 	O 	0.8935	0.6705	0.7829	-2.05
Mof_O 	O 	0.9266	0.6339	0.8004	-1.972
Mof_O 	O 	0.9695	0.6587	0.7883	-1.553
Mof_O 	O 	0.9721	0.6275	0.8217	-1.118
Mof_Al	Al	0.8662	0.1701	0.2195	5.575
Mof_Al	Al	0.9616	0.1442	0.1888	4.915
Mof_Al	Al	0.9047	0.1384	0.2776	7.194
Mof_P 	P 	0.9112	0.1296	0.2189	1.393
Mof_P 	P 	0.8653	0.1838	0.2792	1.382
Mof_P 	P 	0.954	0.1483	0.3117	1.102
Mof_O 	O 	0.9191	0.1261	0.2496	-1.998
Mof_O 	O 	0.8859	0.1127	0.213	-2.408
Mof_O 	O 	0.8983	0.1591	0.2187	-1.82
Mof_O 	O 	0.9341	0.1288	0.2012	-1.486
Mof_O 	O 	0.8649	0.1907	0.2468	-1.487
Mof_O 	O 	0.8654	0.2029	0.3004	-1.59
Mof_O 	O 	0.8427	0.1635	0.2819	-2.01
Mof_O 	O 	0.9717	0.1632	0.2141	-1.624
Mof_O 	O 	0.9446	0.1696	0.3322	-1.462
Mof_O 	O 	0.9734	0.118	0.17	-1.502
Mof_O 	O 	0.8935	0.1705	0.2829	-2.05
Mof_O 	O 	0.9266	0.1339	0.3004	-1.972
Mof_O 	O 	0.9695	0.1587	0.2883	-1.553
Mof_O 	O 	0.9721	0.1275	0.3217	-1.118
Mof_Al	Al	0.3662	0.6701	0.2195	5.574
Mof_Al	Al	0.4616	0.6442	0.1888	4.91
Mof_Al	Al	0.4047	0.6384	0.2776	7.193
Mof_P 	P 	0.4112	0.6296	0.2189	1.393
Mof_P 	P 	0.3653	0.6838	0.2792	1.382
Mof_P 	P 	0.454	0.6483	0.3117	1.103
Mof_O 	O 	0.4191	0.6261	0.2496	-1.999
Mof_O 	O 	0.3859	0.6127	0.213	-2.409
Mof_O 	O 	0.3983	0.6591	0.2187	-1.82
Mof_O 	O 	0.4341	0.6288	0.2012	-1.485
Mof_O 	O 	0.3649	0.6907	0.2468	-1.487
Mof_O 	O 	0.3654	0.7029	0.3004	-1.59
Mof_O 	O 	0.3427	0.6635	0.2819	-2.01
Mof_O 	O 	0.4717	0.6632	0.2141	-1.628
Mof_O 	O 	0.4446	0.6696	0.3322	-1.462
Mof_O 	O 	0.4734	0.618	0.17	-1.505
Mof_O 	O 	0.3935	0.6705	0.2829	-2.05
Mof_O 	O 	0.4266	0.6339	0.3004	-1.973
Mof_O 	O 	0.4695	0.6587	0.2883	-1.56
Mof_O 	O 	0.4721	0.6275	0.3217	-1.125
Mof_Al	Al	0.3662	0.1701	0.7195	5.574
Mof_Al	Al	0.4616	0.1442	0.6888	4.91
Mof_Al	Al	0.4047	0.1384	0.7776	7.193
Mof_P 	P 	0.4112	0.1296	0.7189	1.393
Mof_P 	P 	0.3653	0.1838	0.7792	1.382
Mof_P 	P 	0.454	0.1483	0.8117	1.103
Mof_O 	O 	0.4191	0.1261	0.7496	-1.999
Mof_O 	O 	0.3859	0.1127	0.713	-2.408
Mof_O 	O 	0.3983	0.1591	0.7187	-1.82
Mof_O 	O 	0.4341	0.1288	0.7012	-1.485
Mof_O 	O 	0.3649	0.1907	0.7468	-1.487
Mof_O 	O 	0.3654	0.2029	0.8004	-1.59
Mof_O 	O 	0.3427	0.1635	0.7819	-2.01
Mof_O 	O 	0.4717	0.1632	0.7141	-1.628
Mof_O 	O 	0.4446	0.1696	0.8322	-1.462
Mof_O 	O 	0.4734	0.118	0.67	-1.505
Mof_O 	O 	0.3935	0.1705	0.7829	-2.05
Mof_O 	O 	0.4266	0.1339	0.8004	-1.973
Mof_O 	O 	0.4695	0.1587	0.7883	-1.56
Mof_O 	O 	0.4721	0.1275	0.8217	-1.125
Mof_Al	Al	0.1338	0.3299	0.7195	5.574
Mof_Al	Al	0.0384	0.3558	0.6888	4.905
Mof_Al	Al	0.0953	0.3616	0.7776	7.192
Mof_P 	P 	0.0888	0.3704	0.7189	1.392
Mof_P 	P 	0.1347	0.3162	0.7792	1.382
Mof_P 	P 	0.046	0.3517	0.8117	1.102
Mof_O 	O 	0.0809	0.3739	0.7496	-1.999
Mof_O 	O 	0.1141	0.3873	0.713	-2.409
Mof_O 	O 	0.1017	0.3409	0.7187	-1.82
Mof_O 	O 	0.0659	0.3712	0.7012	-1.484
Mof_O 	O 	0.1351	0.3093	0.7468	-1.487
Mof_O 	O 	0.1346	0.2971	0.8004	-1.59
Mof_O 	O 	0.1573	0.3365	0.7819	-2.01
Mof_O 	O 	0.0283	0.3368	0.7141	-1.626
Mof_O 	O 	0.0554	0.3304	0.8322	-1.461
Mof_O 	O 	0.0266	0.382	0.67	-1.504
Mof_O 	O 	0.1065	0.3295	0.7829	-2.05
Mof_O 	O 	0.0734	0.3661	0.8004	-1.973
Mof_O 	O 	0.0305	0.3413	0.7883	-1.556
Mof_O 	O 	0.0279	0.3725	0.8217	-1.122
Mof_Al	Al	0.1338	0.8299	0.2195	5.574
Mof_Al	Al	0.0384	0.8558	0.1888	4.906
Mof_Al	Al	0.0953	0.8616	0.2776	7.193
Mof_P 	P 	0.0888	0.8704	0.2189	1.393
Mof_P 	P 	0.1347	0.8162	0.2792	1.382
Mof_P 	P 	0.046	0.8517	0.3117	1.102
Mof_O 	O 	0.0809	0.8739	0.2496	-1.999
Mof_O 	O 	0.1141	0.8873	0.213	-2.408
Mof_O 	O 	0.1017	0.8409	0.2187	-1.82
Mof_O 	O 	0.0659	0.8712	0.2012	-1.484
Mof_O 	O 	0.1351	0.8093	0.2468	-1.487
Mof_O 	O 	0.1346	0.7971	0.3004	-1.59
Mof_O 	O 	0.1573	0.8365	0.2819	-2.01
Mof_O 	O 	0.0283	0.8368	0.2141	-1.626
Mof_O 	O 	0.0554	0.8304	0.3322	-1.461
Mof_O 	O 	0.0266	0.882	0.17	-1.504
Mof_O 	O 	0.1065	0.8295	0.2829	-2.05
Mof_O 	O 	0.0734	0.8661	0.3004	-1.972
Mof_O 	O 	0.0305	0.8413	0.2883	-1.556
Mof_O 	O 	0.0279	0.8725	0.3217	-1.122
Mof_Al	Al	0.6338	0.3299	0.2195	5.574
Mof_Al	Al	0.5384	0.3558	0.1888	4.91
Mof_Al	Al	0.5953	0.3616	0.2776	7.193
Mof_P 	P 	0.5888	0.3704	0.2189	1.393
Mof_P 	P 	0.6347	0.3162	0.2792	1.382
Mof_P 	P 	0.546	0.3517	0.3117	1.103
Mof_O 	O 	0.5809	0.3739	0.2496	-1.999
Mof_O 	O 	0.6141	0.3873	0.213	-2.409
Mof_O 	O 	0.6017	0.3409	0.2187	-1.82
Mof_O 	O 	0.5659	0.3712	0.2012	-1.485
Mof_O 	O 	0.6351	0.3093	0.2468	-1.487
Mof_O 	O 	0.6346	0.2971	0.3004	-1.59
Mof_O 	O 	0.6573	0.3365	0.2819	-2.01
Mof_O 	O 	0.5283	0.3368	0.2141	-1.628
Mof_O 	O 	0.5554	0.3304	0.3322	-1.462
Mof_O 	O 	0.5266	0.382	0.17	-1.505
Mof_O 	O 	0.6065	0.3295	0.2829	-2.05
Mof_O 	O 	0.5734	0.3661	0.3004	-1.973
Mof_O 	O 	0.5305	0.3413	0.2883	-1.56
Mof_O 	O 	0.5279	0.3725	0.3217	-1.125
Mof_Al	Al	0.6338	0.8299	0.7195	5.574
Mof_Al	Al	0.5384	0.8558	0.6888	4.91
Mof_Al	Al	0.5953	0.8616	0.7776	7.193
Mof_P 	P 	0.5888	0.8704	0.7189	1.393
Mof_P 	P 	0.6347	0.8162	0.7792	1.382
Mof_P 	P 	0.546	0.8517	0.8117	1.103
Mof_O 	O 	0.5809	0.8739	0.7496	-1.999
Mof_O 	O 	0.6141	0.8873	0.713	-2.408
Mof_O 	O 	0.6017	0.8409	0.7187	-1.82
Mof_O 	O 	0.5659	0.8712	0.7012	-1.485
Mof_O 	O 	0.6351	0.8093	0.7468	-1.487
Mof_O 	O 	0.6346	0.7971	0.8004	-1.59
Mof_O 	O 	0.6573	0.8365	0.7819	-2.01
Mof_O 	O 	0.5283	0.8368	0.7141	-1.628
Mof_O 	O 	0.5554	0.8304	0.8322	-1.462
Mof_O 	O 	0.5266	0.882	0.67	-1.505
Mof_O 	O 	0.6065	0.8295	0.7829	-2.05
Mof_O 	O 	0.5734	0.8661	0.8004	-1.973
Mof_O 	O 	0.5305	0.8413	0.7883	-1.56
Mof_O 	O 	0.5279	0.8725	0.8217	-1.125
Mof_Al	Al	0.1338	0.6701	0.2805	5.574
Mof_Al	Al	0.0384	0.6442	0.3112	4.905
Mof_Al	Al	0.0953	0.6384	0.2224	7.192
Mof_P 	P 	0.0888	0.6296	0.2811	1.392
Mof_P 	P 	0.1347	0.6838	0.2208	1.382
Mof_P 	P 	0.046	0.6483	0.1883	1.102
Mof_O 	O 	0.0809	0.6261	0.2504	-1.999
Mof_O 	O 	0.1141	0.6127	0.287	-2.409
Mof_O 	O 	0.1017	0.6591	0.2813	-1.82
Mof_O 	O 	0.0659	0.6288	0.2988	-1.484
Mof_O 	O 	0.1351	0.6907	0.2532	-1.487
Mof_O 	O 	0.1346	0.7029	0.1996	-1.59
Mof_O 	O 	0.1573	0.6635	0.2181	-2.01
Mof_O 	O 	0.0283	0.6632	0.2859	-1.626
Mof_O 	O 	0.0554	0.6696	0.1678	-1.461
Mof_O 	O 	0.0266	0.618	0.33	-1.504
Mof_O 	O 	0.1065	0.6705	0.2171	-2.05
Mof_O 	O 	0.0734	0.6339	0.1996	-1.973
Mof_O 	O 	0.0305	0.6587	0.2117	-1.556
Mof_O 	O 	0.0279	0.6275	0.1783	-1.122
Mof_Al	Al	0.1338	0.1701	0.7805	5.574
Mof_Al	Al	0.0384	0.1442	0.8112	4.905
Mof_Al	Al	0.0953	0.1384	0.7224	7.192
Mof_P 	P 	0.0888	0.1296	0.7811	1.392
Mof_P 	P 	0.1347	0.1838	0.7208	1.382
Mof_P 	P 	0.046	0.1483	0.6883	1.102
Mof_O 	O 	0.0809	0.1261	0.7504	-1.999
Mof_O 	O 	0.1141	0.1127	0.787	-2.408
Mof_O 	O 	0.1017	0.1591	0.7813	-1.82
Mof_O 	O 	0.0659	0.1288	0.7988	-1.484
Mof_O 	O 	0.1351	0.1907	0.7532	-1.487
Mof_O 	O 	0.1346	0.2029	0.6996	-1.59
Mof_O 	O 	0.1573	0.1635	0.7181	-2.01
Mof_O 	O 	0.0283	0.1632	0.7859	-1.626
Mof_O 	O 	0.0554	0.1696	0.6678	-1.461
Mof_O 	O 	0.0266	0.118	0.83	-1.504
Mof_O 	O 	0.1065	0.1705	0.7171	-2.05
Mof_O 	O 	0.0734	0.1339	0.6996	-1.973
Mof_O 	O 	0.0305	0.1587	0.7117	-1.556
Mof_O 	O 	0.0279	0.1275	0.6783	-1.122
Mof_Al	Al	0.6338	0.6701	0.7805	5.574
Mof_Al	Al	0.5384	0.6442	0.8112	4.91
Mof_Al	Al	0.5953	0.6384	0.7224	7.193
Mof_P 	P 	0.5888	0.6296	0.7811	1.393
Mof_P 	P 	0.6347	0.6838	0.7208	1.382
Mof_P 	P 	0.546	0.6483	0.6883	1.103
Mof_O 	O 	0.5809	0.6261	0.7504	-1.999
Mof_O 	O 	0.6141	0.6127	0.787	-2.409
Mof_O 	O 	0.6017	0.6591	0.7813	-1.82
Mof_O 	O 	0.5659	0.6288	0.7988	-1.485
Mof_O 	O 	0.6351	0.6907	0.7532	-1.487
Mof_O 	O 	0.6346	0.7029	0.6996	-1.59
Mof_O 	O 	0.6573	0.6635	0.7181	-2.01
Mof_O 	O 	0.5283	0.6632	0.7859	-1.628
Mof_O 	O 	0.5554	0.6696	0.6678	-1.462
Mof_O 	O 	0.5266	0.618	0.83	-1.505
Mof_O 	O 	0.6065	0.6705	0.7171	-2.05
Mof_O 	O 	0.5734	0.6339	0.6996	-1.973
Mof_O 	O 	0.5305	0.6587	0.7117	-1.56
Mof_O 	O 	0.5279	0.6275	0.6783	-1.125
Mof_Al	Al	0.6338	0.1701	0.2805	5.574
Mof_Al	Al	0.5384	0.1442	0.3112	4.91
Mof_Al	Al	0.5953	0.1384	0.2224	7.193
Mof_P 	P 	0.5888	0.1296	0.2811	1.393
Mof_P 	P 	0.6347	0.1838	0.2208	1.382
Mof_P 	P 	0.546	0.1483	0.1883	1.103
Mof_O 	O 	0.5809	0.1261	0.2504	-1.999
Mof_O 	O 	0.6141	0.1127	0.287	-2.408
Mof_O 	O 	0.6017	0.1591	0.2813	-1.82
Mof_O 	O 	0.5659	0.1288	0.2988	-1.485
Mof_O 	O 	0.6351	0.1907	0.2532	-1.487
Mof_O 	O 	0.6346	0.2029	0.1996	-1.59
Mof_O 	O 	0.6573	0.1635	0.2181	-2.01
Mof_O 	O 	0.5283	0.1632	0.2859	-1.628
Mof_O 	O 	0.5554	0.1696	0.1678	-1.462
Mof_O 	O 	0.5266	0.118	0.33	-1.505
Mof_O 	O 	0.6065	0.1705	0.2171	-2.05
Mof_O 	O 	0.5734	0.1339	0.1996	-1.973
Mof_O 	O 	0.5305	0.1587	0.2117	-1.56
Mof_O 	O 	0.5279	0.1275	0.1783	-1.125
Mof_Al	Al	0.8662	0.3299	0.2805	5.574
Mof_Al	Al	0.9616	0.3558	0.3112	4.915
Mof_Al	Al	0.9047	0.3616	0.2224	7.194
Mof_P 	P 	0.9112	0.3704	0.2811	1.393
Mof_P 	P 	0.8653	0.3162	0.2208	1.382
Mof_P 	P 	0.954	0.3517	0.1883	1.102
Mof_O 	O 	0.9191	0.3739	0.2504	-1.998
Mof_O 	O 	0.8859	0.3873	0.287	-2.409
Mof_O 	O 	0.8983	0.3409	0.2813	-1.82
Mof_O 	O 	0.9341	0.3712	0.2988	-1.485
Mof_O 	O 	0.8649	0.3093	0.2532	-1.487
Mof_O 	O 	0.8654	0.2971	0.1996	-1.59
Mof_O 	O 	0.8427	0.3365	0.2181	-2.01
Mof_O 	O 	0.9717	0.3368	0.2859	-1.624
Mof_O 	O 	0.9446	0.3304	0.1678	-1.462
Mof_O 	O 	0.9734	0.382	0.33	-1.502
Mof_O 	O 	0.8935	0.3295	0.2171	-2.05
Mof_O 	O 	0.9266	0.3661	0.1996	-1.972
Mof_O 	O 	0.9695	0.3413	0.2117	-1.553
Mof_O 	O 	0.9721	0.3725	0.1783	-1.118
Mof_Al	Al	0.8662	0.8299	0.7805	5.574
Mof_Al	Al	0.9616	0.8558	0.8112	4.915
Mof_Al	Al	0.9047	0.8616	0.7224	7.193
Mof_P 	P 	0.9112	0.8704	0.7811	1.393
Mof_P 	P 	0.8653	0.8162	0.7208	1.382
Mof_P 	P 	0.954	0.8517	0.6883	1.102
Mof_O 	O 	0.9191	0.8739	0.7504	-1.998
Mof_O 	O 	0.8859	0.8873	0.787	-2.408
Mof_O 	O 	0.8983	0.8409	0.7813	-1.82
Mof_O 	O 	0.9341	0.8712	0.7988	-1.485
Mof_O 	O 	0.8649	0.8093	0.7532	-1.487
Mof_O 	O 	0.8654	0.7971	0.6996	-1.59
Mof_O 	O 	0.8427	0.8365	0.7181	-2.01
Mof_O 	O 	0.9717	0.8368	0.7859	-1.624
Mof_O 	O 	0.9446	0.8304	0.6678	-1.462
Mof_O 	O 	0.9734	0.882	0.83	-1.501
Mof_O 	O 	0.8935	0.8295	0.7171	-2.05
Mof_O 	O 	0.9266	0.8661	0.6996	-1.972
Mof_O 	O 	0.9695	0.8413	0.7117	-1.553
Mof_O 	O 	0.9721	0.8725	0.6783	-1.118
Mof_Al	Al	0.3662	0.3299	0.7805	5.574
Mof_Al	Al	0.4616	0.3558	0.8112	4.91
Mof_Al	Al	0.4047	0.3616	0.7224	7.193
Mof_P 	P 	0.4112	0.3704	0.7811	1.393
Mof_P 	P 	0.3653	0.3162	0.7208	1.382
Mof_P 	P 	0.454	0.3517	0.6883	1.103
Mof_O 	O 	0.4191	0.3739	0.7504	-1.999
Mof_O 	O 	0.3859	0.3873	0.787	-2.409
Mof_O 	O 	0.3983	0.3409	0.7813	-1.82
Mof_O 	O 	0.4341	0.3712	0.7988	-1.485
Mof_O 	O 	0.3649	0.3093	0.7532	-1.487
Mof_O 	O 	0.3654	0.2971	0.6996	-1.59
Mof_O 	O 	0.3427	0.3365	0.7181	-2.01
Mof_O 	O 	0.4717	0.3368	0.7859	-1.628
Mof_O 	O 	0.4446	0.3304	0.6678	-1.462
Mof_O 	O 	0.4734	0.382	0.83	-1.505
Mof_O 	O 	0.3935	0.3295	0.7171	-2.05
Mof_O 	O 	0.4266	0.3661	0.6996	-1.973
Mof_O 	O 	0.4695	0.3413	0.7117	-1.56
Mof_O 	O 	0.4721	0.3725	0.6783	-1.125
Mof_Al	Al	0.3662	0.8299	0.2805	5.574
Mof_Al	Al	0.4616	0.8558	0.3112	4.91
Mof_Al	Al	0.4047	0.8616	0.2224	7.194
Mof_P 	P 	0.4112	0.8704	0.2811	1.393
Mof_P 	P 	0.3653	0.8162	0.2208	1.382
Mof_P 	P 	0.454	0.8517	0.1883	1.103
Mof_O 	O 	0.4191	0.8739	0.2504	-1.999
Mof_O 	O 	0.3859	0.8873	0.287	-2.409
Mof_O 	O 	0.3983	0.8409	0.2813	-1.82
Mof_O 	O 	0.4341	0.8712	0.2988	-1.485
Mof_O 	O 	0.3649	0.8093	0.2532	-1.487
Mof_O 	O 	0.3654	0.7971	0.1996	-1.59
Mof_O 	O 	0.3427	0.8365	0.2181	-2.01
Mof_O 	O 	0.4717	0.8368	0.2859	-1.628
Mof_O 	O 	0.4446	0.8304	0.1678	-1.462
Mof_O 	O 	0.4734	0.882	0.33	-1.505
Mof_O 	O 	0.3935	0.8295	0.2171	-2.05
Mof_O 	O 	0.4266	0.8661	0.1996	-1.973
Mof_O 	O 	0.4695	0.8413	0.2117	-1.56
Mof_O 	O 	0.4721	0.8725	0.1783	-1.125
Mof_Al	Al	0.7195	0.8662	0.6701	5.574
Mof_Al	Al	0.6888	0.9616	0.6442	4.915
Mof_Al	Al	0.7776	0.9047	0.6384	7.193
Mof_P 	P 	0.7189	0.9112	0.6296	1.393
Mof_P 	P 	0.7792	0.8653	0.6838	1.382
Mof_P 	P 	0.8117	0.954	0.6483	1.102
Mof_O 	O 	0.7496	0.9191	0.6261	-1.998
Mof_O 	O 	0.713	0.8859	0.6127	-2.409
Mof_O 	O 	0.7187	0.8983	0.6591	-1.82
Mof_O 	O 	0.7012	0.9341	0.6288	-1.485
Mof_O 	O 	0.7468	0.8649	0.6907	-1.487
Mof_O 	O 	0.8004	0.8654	0.7029	-1.59
Mof_O 	O 	0.7819	0.8427	0.6635	-2.01
Mof_O 	O 	0.7141	0.9717	0.6632	-1.624
Mof_O 	O 	0.8322	0.9446	0.6696	-1.462
Mof_O 	O 	0.67	0.9734	0.618	-1.502
Mof_O 	O 	0.7829	0.8935	0.6705	-2.05
Mof_O 	O 	0.8004	0.9266	0.6339	-1.972
Mof_O 	O 	0.7883	0.9695	0.6587	-1.553
Mof_O 	O 	0.8217	0.9721	0.6275	-1.118
Mof_Al	Al	0.7195	0.3662	0.1701	5.574
Mof_Al	Al	0.6888	0.4616	0.1442	4.91
Mof_Al	Al	0.7776	0.4047	0.1384	7.193
Mof_P 	P 	0.7189	0.4112	0.1296	1.393
Mof_P 	P 	0.7792	0.3653	0.1838	1.382
Mof_P 	P 	0.8117	0.454	0.1483	1.103
Mof_O 	O 	0.7496	0.4191	0.1261	-1.999
Mof_O 	O 	0.713	0.3859	0.1127	-2.408
Mof_O 	O 	0.7187	0.3983	0.1591	-1.82
Mof_O 	O 	0.7012	0.4341	0.1288	-1.485
Mof_O 	O 	0.7468	0.3649	0.1907	-1.487
Mof_O 	O 	0.8004	0.3654	0.2029	-1.59
Mof_O 	O 	0.7819	0.3427	0.1635	-2.01
Mof_O 	O 	0.7141	0.4717	0.1632	-1.628
Mof_O 	O 	0.8322	0.4446	0.1696	-1.462
Mof_O 	O 	0.67	0.4734	0.118	-1.505
Mof_O 	O 	0.7829	0.3935	0.1705	-2.05
Mof_O 	O 	0.8004	0.4266	0.1339	-1.973
Mof_O 	O 	0.7883	0.4695	0.1587	-1.56
Mof_O 	O 	0.8217	0.4721	0.1275	-1.125
Mof_Al	Al	0.2195	0.8662	0.1701	5.575
Mof_Al	Al	0.1888	0.9616	0.1442	4.915
Mof_Al	Al	0.2776	0.9047	0.1384	7.194
Mof_P 	P 	0.2189	0.9112	0.1296	1.393
Mof_P 	P 	0.2792	0.8653	0.1838	1.382
Mof_P 	P 	0.3117	0.954	0.1483	1.102
Mof_O 	O 	0.2496	0.9191	0.1261	-1.998
Mof_O 	O 	0.213	0.8859	0.1127	-2.408
Mof_O 	O 	0.2187	0.8983	0.1591	-1.82
Mof_O 	O 	0.2012	0.9341	0.1288	-1.486
Mof_O 	O 	0.2468	0.8649	0.1907	-1.487
Mof_O 	O 	0.3004	0.8654	0.2029	-1.59
Mof_O 	O 	0.2819	0.8427	0.1635	-2.01
Mof_O 	O 	0.2141	0.9717	0.1632	-1.624
Mof_O 	O 	0.3322	0.9446	0.1696	-1.462
Mof_O 	O 	0.17	0.9734	0.118	-1.502
Mof_O 	O 	0.2829	0.8935	0.1705	-2.05
Mof_O 	O 	0.3004	0.9266	0.1339	-1.972
Mof_O 	O 	0.2883	0.9695	0.1587	-1.553
Mof_O 	O 	0.3217	0.9721	0.1275	-1.118
Mof_Al	Al	0.2195	0.3662	0.6701	5.574
Mof_Al	Al	0.1888	0.4616	0.6442	4.91
Mof_Al	Al	0.2776	0.4047	0.6384	7.193
Mof_P 	P 	0.2189	0.4112	0.6296	1.393
Mof_P 	P 	0.2792	0.3653	0.6838	1.382
Mof_P 	P 	0.3117	0.454	0.6483	1.103
Mof_O 	O 	0.2496	0.4191	0.6261	-1.999
Mof_O 	O 	0.213	0.3859	0.6127	-2.409
Mof_O 	O 	0.2187	0.3983	0.6591	-1.82
Mof_O 	O 	0.2012	0.4341	0.6288	-1.485
Mof_O 	O 	0.2468	0.3649	0.6907	-1.487
Mof_O 	O 	0.3004	0.3654	0.7029	-1.59
Mof_O 	O 	0.2819	0.3427	0.6635	-2.01
Mof_O 	O 	0.2141	0.4717	0.6632	-1.628
Mof_O 	O 	0.3322	0.4446	0.6696	-1.462
Mof_O 	O 	0.17	0.4734	0.618	-1.505
Mof_O 	O 	0.2829	0.3935	0.6705	-2.05
Mof_O 	O 	0.3004	0.4266	0.6339	-1.973
Mof_O 	O 	0.2883	0.4695	0.6587	-1.56
Mof_O 	O 	0.3217	0.4721	0.6275	-1.125
Mof_Al	Al	0.7195	0.1338	0.3299	5.574
Mof_Al	Al	0.6888	0.0384	0.3558	4.905
Mof_Al	Al	0.7776	0.0953	0.3616	7.192
Mof_P 	P 	0.7189	0.0888	0.3704	1.392
Mof_P 	P 	0.7792	0.1347	0.3162	1.382
Mof_P 	P 	0.8117	0.046	0.3517	1.102
Mof_O 	O 	0.7496	0.0809	0.3739	-1.999
Mof_O 	O 	0.713	0.1141	0.3873	-2.409
Mof_O 	O 	0.7187	0.1017	0.3409	-1.82
Mof_O 	O 	0.7012	0.0659	0.3712	-1.484
Mof_O 	O 	0.7468	0.1351	0.3093	-1.487
Mof_O 	O 	0.8004	0.1346	0.2971	-1.59
Mof_O 	O 	0.7819	0.1573	0.3365	-2.01
Mof_O 	O 	0.7141	0.0283	0.3368	-1.626
Mof_O 	O 	0.8322	0.0554	0.3304	-1.461
Mof_O 	O 	0.67	0.0266	0.382	-1.504
Mof_O 	O 	0.7829	0.1065	0.3295	-2.05
Mof_O 	O 	0.8004	0.0734	0.3661	-1.973
Mof_O 	O 	0.7883	0.0305	0.3413	-1.556
Mof_O 	O 	0.8217	0.0279	0.3725	-1.122
Mof_Al	Al	0.7195	0.6338	0.8299	5.574
Mof_Al	Al	0.6888	0.5384	0.8558	4.91
Mof_Al	Al	0.7776	0.5953	0.8616	7.193
Mof_P 	P 	0.7189	0.5888	0.8704	1.393
Mof_P 	P 	0.7792	0.6347	0.8162	1.382
Mof_P 	P 	0.8117	0.546	0.8517	1.103
Mof_O 	O 	0.7496	0.5809	0.8739	-1.999
Mof_O 	O 	0.713	0.6141	0.8873	-2.408
Mof_O 	O 	0.7187	0.6017	0.8409	-1.82
Mof_O 	O 	0.7012	0.5659	0.8712	-1.485
Mof_O 	O 	0.7468	0.6351	0.8093	-1.487
Mof_O 	O 	0.8004	0.6346	0.7971	-1.59
Mof_O 	O 	0.7819	0.6573	0.8365	-2.01
Mof_O 	O 	0.7141	0.5283	0.8368	-1.628
Mof_O 	O 	0.8322	0.5554	0.8304	-1.462
Mof_O 	O 	0.67	0.5266	0.882	-1.505
Mof_O 	O 	0.7829	0.6065	0.8295	-2.05
Mof_O 	O 	0.8004	0.5734	0.8661	-1.973
Mof_O 	O 	0.7883	0.5305	0.8413	-1.56
Mof_O 	O 	0.8217	0.5279	0.8725	-1.125
Mof_Al	Al	0.2195	0.1338	0.8299	5.574
Mof_Al	Al	0.1888	0.0384	0.8558	4.906
Mof_Al	Al	0.2776	0.0953	0.8616	7.193
Mof_P 	P 	0.2189	0.0888	0.8704	1.393
Mof_P 	P 	0.2792	0.1347	0.8162	1.382
Mof_P 	P 	0.3117	0.046	0.8517	1.102
Mof_O 	O 	0.2496	0.0809	0.8739	-1.999
Mof_O 	O 	0.213	0.1141	0.8873	-2.408
Mof_O 	O 	0.2187	0.1017	0.8409	-1.82
Mof_O 	O 	0.2012	0.0659	0.8712	-1.484
Mof_O 	O 	0.2468	0.1351	0.8093	-1.487
Mof_O 	O 	0.3004	0.1346	0.7971	-1.59
Mof_O 	O 	0.2819	0.1573	0.8365	-2.01
Mof_O 	O 	0.2141	0.0283	0.8368	-1.626
Mof_O 	O 	0.3322	0.0554	0.8304	-1.461
Mof_O 	O 	0.17	0.0266	0.882	-1.504
Mof_O 	O 	0.2829	0.1065	0.8295	-2.05
Mof_O 	O 	0.3004	0.0734	0.8661	-1.972
Mof_O 	O 	0.2883	0.0305	0.8413	-1.556
Mof_O 	O 	0.3217	0.0279	0.8725	-1.122
Mof_Al	Al	0.2195	0.6338	0.3299	5.574
Mof_Al	Al	0.1888	0.5384	0.3558	4.91
Mof_Al	Al	0.2776	0.5953	0.3616	7.193
Mof_P 	P 	0.2189	0.5888	0.3704	1.393
Mof_P 	P 	0.2792	0.6347	0.3162	1.382
Mof_P 	P 	0.3117	0.546	0.3517	1.103
Mof_O 	O 	0.2496	0.5809	0.3739	-1.999
Mof_O 	O 	0.213	0.6141	0.3873	-2.409
Mof_O 	O 	0.2187	0.6017	0.3409	-1.82
Mof_O 	O 	0.2012	0.5659	0.3712	-1.485
Mof_O 	O 	0.2468	0.6351	0.3093	-1.487
Mof_O 	O 	0.3004	0.6346	0.2971	-1.59
Mof_O 	O 	0.2819	0.6573	0.3365	-2.01
Mof_O 	O 	0.2141	0.5283	0.3368	-1.628
Mof_O 	O 	0.3322	0.5554	0.3304	-1.462
Mof_O 	O 	0.17	0.5266	0.382	-1.505
Mof_O 	O 	0.2829	0.6065	0.3295	-2.05
Mof_O 	O 	0.3004	0.5734	0.3661	-1.973
Mof_O 	O 	0.2883	0.5305	0.3413	-1.56
Mof_O 	O 	0.3217	0.5279	0.3725	-1.125
Mof_Al	Al	0.2805	0.1338	0.6701	5.574
Mof_Al	Al	0.3112	0.0384	0.6442	4.905
Mof_Al	Al	0.2224	0.0953	0.6384	7.192
Mof_P 	P 	0.2811	0.0888	0.6296	1.392
Mof_P 	P 	0.2208	0.1347	0.6838	1.382
Mof_P 	P 	0.1883	0.046	0.6483	1.102
Mof_O 	O 	0.2504	0.0809	0.6261	-1.999
Mof_O 	O 	0.287	0.1141	0.6127	-2.409
Mof_O 	O 	0.2813	0.1017	0.6591	-1.82
Mof_O 	O 	0.2988	0.0659	0.6288	-1.484
Mof_O 	O 	0.2532	0.1351	0.6907	-1.487
Mof_O 	O 	0.1996	0.1346	0.7029	-1.59
Mof_O 	O 	0.2181	0.1573	0.6635	-2.01
Mof_O 	O 	0.2859	0.0283	0.6632	-1.626
Mof_O 	O 	0.1678	0.0554	0.6696	-1.461
Mof_O 	O 	0.33	0.0266	0.618	-1.504
Mof_O 	O 	0.2171	0.1065	0.6705	-2.05
Mof_O 	O 	0.1996	0.0734	0.6339	-1.973
Mof_O 	O 	0.2117	0.0305	0.6587	-1.556
Mof_O 	O 	0.1783	0.0279	0.6275	-1.122
Mof_Al	Al	0.2805	0.6338	0.1701	5.574
Mof_Al	Al	0.3112	0.5384	0.1442	4.91
Mof_Al	Al	0.2224	0.5953	0.1384	7.193
Mof_P 	P 	0.2811	0.5888	0.1296	1.393
Mof_P 	P 	0.2208	0.6347	0.1838	1.382
Mof_P 	P 	0.1883	0.546	0.1483	1.103
Mof_O 	O 	0.2504	0.5809	0.1261	-1.999
Mof_O 	O 	0.287	0.6141	0.1127	-2.408
Mof_O 	O 	0.2813	0.6017	0.1591	-1.82
Mof_O 	O 	0.2988	0.5659	0.1288	-1.485
Mof_O 	O 	0.2532	0.6351	0.1907	-1.487
Mof_O 	O 	0.1996	0.6346	0.2029	-1.59
Mof_O 	O 	0.2181	0.6573	0.1635	-2.01
Mof_O 	O 	0.2859	0.5283	0.1632	-1.628
Mof_O 	O 	0.1678	0.5554	0.1696	-1.462
Mof_O 	O 	0.33	0.5266	0.118	-1.505
Mof_O 	O 	0.2171	0.6065	0.1705	-2.05
Mof_O 	O 	0.1996	0.5734	0.1339	-1.973
Mof_O 	O 	0.2117	0.5305	0.1587	-1.56
Mof_O 	O 	0.1783	0.5279	0.1275	-1.125
Mof_Al	Al	0.7805	0.1338	0.1701	5.574
Mof_Al	Al	0.8112	0.0384	0.1442	4.905
Mof_Al	Al	0.7224	0.0953	0.1384	7.192
Mof_P 	P 	0.7811	0.0888	0.1296	1.392
Mof_P 	P 	0.7208	0.1347	0.1838	1.382
Mof_P 	P 	0.6883	0.046	0.1483	1.102
Mof_O 	O 	0.7504	0.0809	0.1261	-1.999
Mof_O 	O 	0.787	0.1141	0.1127	-2.408
Mof_O 	O 	0.7813	0.1017	0.1591	-1.82
Mof_O 	O 	0.7988	0.0659	0.1288	-1.484
Mof_O 	O 	0.7532	0.1351	0.1907	-1.487
Mof_O 	O 	0.6996	0.1346	0.2029	-1.59
Mof_O 	O 	0.7181	0.1573	0.1635	-2.01
Mof_O 	O 	0.7859	0.0283	0.1632	-1.626
Mof_O 	O 	0.6678	0.0554	0.1696	-1.461
Mof_O 	O 	0.83	0.0266	0.118	-1.504
Mof_O 	O 	0.7171	0.1065	0.1705	-2.05
Mof_O 	O 	0.6996	0.0734	0.1339	-1.973
Mof_O 	O 	0.7117	0.0305	0.1587	-1.556
Mof_O 	O 	0.6783	0.0279	0.1275	-1.122
Mof_Al	Al	0.7805	0.6338	0.6701	5.574
Mof_Al	Al	0.8112	0.5384	0.6442	4.91
Mof_Al	Al	0.7224	0.5953	0.6384	7.193
Mof_P 	P 	0.7811	0.5888	0.6296	1.393
Mof_P 	P 	0.7208	0.6347	0.6838	1.382
Mof_P 	P 	0.6883	0.546	0.6483	1.103
Mof_O 	O 	0.7504	0.5809	0.6261	-1.999
Mof_O 	O 	0.787	0.6141	0.6127	-2.409
Mof_O 	O 	0.7813	0.6017	0.6591	-1.82
Mof_O 	O 	0.7988	0.5659	0.6288	-1.485
Mof_O 	O 	0.7532	0.6351	0.6907	-1.487
Mof_O 	O 	0.6996	0.6346	0.7029	-1.59
Mof_O 	O 	0.7181	0.6573	0.6635	-2.01
Mof_O 	O 	0.7859	0.5283	0.6632	-1.628
Mof_O 	O 	0.6678	0.5554	0.6696	-1.462
Mof_O 	O 	0.83	0.5266	0.618	-1.505
Mof_O 	O 	0.7171	0.6065	0.6705	-2.05
Mof_O 	O 	0.6996	0.5734	0.6339	-1.973
Mof_O 	O 	0.7117	0.5305	0.6587	-1.56
Mof_O 	O 	0.6783	0.5279	0.6275	-1.125
Mof_Al	Al	0.2805	0.8662	0.3299	5.574
Mof_Al	Al	0.3112	0.9616	0.3558	4.915
Mof_Al	Al	0.2224	0.9047	0.3616	7.194
Mof_P 	P 	0.2811	0.9112	0.3704	1.393
Mof_P 	P 	0.2208	0.8653	0.3162	1.382
Mof_P 	P 	0.1883	0.954	0.3517	1.102
Mof_O 	O 	0.2504	0.9191	0.3739	-1.998
Mof_O 	O 	0.287	0.8859	0.3873	-2.409
Mof_O 	O 	0.2813	0.8983	0.3409	-1.82
Mof_O 	O 	0.2988	0.9341	0.3712	-1.485
Mof_O 	O 	0.2532	0.8649	0.3093	-1.487
Mof_O 	O 	0.1996	0.8654	0.2971	-1.59
Mof_O 	O 	0.2181	0.8427	0.3365	-2.01
Mof_O 	O 	0.2859	0.9717	0.3368	-1.624
Mof_O 	O 	0.1678	0.9446	0.3304	-1.462
Mof_O 	O 	0.33	0.9734	0.382	-1.502
Mof_O 	O 	0.2171	0.8935	0.3295	-2.05
Mof_O 	O 	0.1996	0.9266	0.3661	-1.972
Mof_O 	O 	0.2117	0.9695	0.3413	-1.553
Mof_O 	O 	0.1783	0.9721	0.3725	-1.118
Mof_Al	Al	0.2805	0.3662	0.8299	5.574
Mof_Al	Al	0.3112	0.4616	0.8558	4.91
Mof_Al	Al	0.2224	0.4047	0.8616	7.194
Mof_P 	P 	0.2811	0.4112	0.8704	1.393
Mof_P 	P 	0.2208	0.3653	0.8162	1.382
Mof_P 	P 	0.1883	0.454	0.8517	1.103
Mof_O 	O 	0.2504	0.4191	0.8739	-1.999
Mof_O 	O 	0.287	0.3859	0.8873	-2.409
Mof_O 	O 	0.2813	0.3983	0.8409	-1.82
Mof_O 	O 	0.2988	0.4341	0.8712	-1.485
Mof_O 	O 	0.2532	0.3649	0.8093	-1.487
Mof_O 	O 	0.1996	0.3654	0.7971	-1.59
Mof_O 	O 	0.2181	0.3427	0.8365	-2.01
Mof_O 	O 	0.2859	0.4717	0.8368	-1.628
Mof_O 	O 	0.1678	0.4446	0.8304	-1.462
Mof_O 	O 	0.33	0.4734	0.882	-1.505
Mof_O 	O 	0.2171	0.3935	0.8295	-2.05
Mof_O 	O 	0.1996	0.4266	0.8661	-1.973
Mof_O 	O 	0.2117	0.4695	0.8413	-1.56
Mof_O 	O 	0.1783	0.4721	0.8725	-1.125
Mof_Al	Al	0.7805	0.8662	0.8299	5.574
Mof_Al	Al	0.8112	0.9616	0.8558	4.915
Mof_Al	Al	0.7224	0.9047	0.8616	7.193
Mof_P 	P 	0.7811	0.9112	0.8704	1.393
Mof_P 	P 	0.7208	0.8653	0.8162	1.382
Mof_P 	P 	0.6883	0.954	0.8517	1.102
Mof_O 	O 	0.7504	0.9191	0.8739	-1.998
Mof_O 	O 	0.787	0.8859	0.8873	-2.408
Mof_O 	O 	0.7813	0.8983	0.8409	-1.82
Mof_O 	O 	0.7988	0.9341	0.8712	-1.485
Mof_O 	O 	0.7532	0.8649	0.8093	-1.487
Mof_O 	O 	0.6996	0.8654	0.7971	-1.59
Mof_O 	O 	0.7181	0.8427	0.8365	-2.01
Mof_O 	O 	0.7859	0.9717	0.8368	-1.624
Mof_O 	O 	0.6678	0.9446	0.8304	-1.462
Mof_O 	O 	0.83	0.9734	0.882	-1.501
Mof_O 	O 	0.7171	0.8935	0.8295	-2.05
Mof_O 	O 	0.6996	0.9266	0.8661	-1.972
Mof_O 	O 	0.7117	0.9695	0.8413	-1.553
Mof_O 	O 	0.6783	0.9721	0.8725	-1.118
Mof_Al	Al	0.7805	0.3662	0.3299	5.574
Mof_Al	Al	0.8112	0.4616	0.3558	4.91
Mof_Al	Al	0.7224	0.4047	0.3616	7.193
Mof_P 	P 	0.7811	0.4112	0.3704	1.393
Mof_P 	P 	0.7208	0.3653	0.3162	1.382
Mof_P 	P 	0.6883	0.454	0.3517	1.103
Mof_O 	O 	0.7504	0.4191	0.3739	-1.999
Mof_O 	O 	0.787	0.3859	0.3873	-2.409
Mof_O 	O 	0.7813	0.3983	0.3409	-1.82
Mof_O 	O 	0.7988	0.4341	0.3712	-1.485
Mof_O 	O 	0.7532	0.3649	0.3093	-1.487
Mof_O 	O 	0.6996	0.3654	0.2971	-1.59
Mof_O 	O 	0.7181	0.3427	0.3365	-2.01
Mof_O 	O 	0.7859	0.4717	0.3368	-1.628
Mof_O 	O 	0.6678	0.4446	0.3304	-1.462
Mof_O 	O 	0.83	0.4734	0.382	-1.505
Mof_O 	O 	0.7171	0.3935	0.3295	-2.05
Mof_O 	O 	0.6996	0.4266	0.3661	-1.973
Mof_O 	O 	0.7117	0.4695	0.3413	-1.56
Mof_O 	O 	0.6783	0.4721	0.3725	-1.125
Mof_Al	Al	0.6701	0.7195	0.8662	5.574
Mof_Al	Al	0.6442	0.6888	0.9616	4.915
Mof_Al	Al	0.6384	0.7776	0.9047	7.193
Mof_P 	P 	0.6296	0.7189	0.9112	1.393
Mof_P 	P 	0.6838	0.7792	0.8653	1.382
Mof_P 	P 	0.6483	0.8117	0.954	1.102
Mof_O 	O 	0.6261	0.7496	0.9191	-1.998
Mof_O 	O 	0.6127	0.713	0.8859	-2.409
Mof_O 	O 	0.6591	0.7187	0.8983	-1.82
Mof_O 	O 	0.6288	0.7012	0.9341	-1.485
Mof_O 	O 	0.6907	0.7468	0.8649	-1.487
Mof_O 	O 	0.7029	0.8004	0.8654	-1.59
Mof_O 	O 	0.6635	0.7819	0.8427	-2.01
Mof_O 	O 	0.6632	0.7141	0.9717	-1.624
Mof_O 	O 	0.6696	0.8322	0.9446	-1.462
Mof_O 	O 	0.618	0.67	0.9734	-1.502
Mof_O 	O 	0.6705	0.7829	0.8935	-2.05
Mof_O 	O 	0.6339	0.8004	0.9266	-1.972
Mof_O 	O 	0.6587	0.7883	0.9695	-1.553
Mof_O 	O 	0.6275	0.8217	0.9721	-1.118
Mof_Al	Al	0.6701	0.2195	0.3662	5.574
Mof_Al	Al	0.6442	0.1888	0.4616	4.91
Mof_Al	Al	0.6384	0.2776	0.4047	7.193
Mof_P 	P 	0.6296	0.2189	0.4112	1.393
Mof_P 	P 	0.6838	0.2792	0.3653	1.382
Mof_P 	P 	0.6483	0.3117	0.454	1.103
Mof_O 	O 	0.6261	0.2496	0.4191	-1.999
Mof_O 	O 	0.6127	0.213	0.3859	-2.409
Mof_O 	O 	0.6591	0.2187	0.3983	-1.82
Mof_O 	O 	0.6288	0.2012	0.4341	-1.485
Mof_O 	O 	0.6907	0.2468	0.3649	-1.487
Mof_O 	O 	0.7029	0.3004	0.3654	-1.59
Mof_O 	O 	0.6635	0.2819	0.3427	-2.01
Mof_O 	O 	0.6632	0.2141	0.4717	-1.628
Mof_O 	O 	0.6696	0.3322	0.4446	-1.462
Mof_O 	O 	0.618	0.17	0.4734	-1.505
Mof_O 	O 	0.6705	0.2829	0.3935	-2.05
Mof_O 	O 	0.6339	0.3004	0.4266	-1.973
Mof_O 	O 	0.6587	0.2883	0.4695	-1.56
Mof_O 	O 	0.6275	0.3217	0.4721	-1.125
Mof_Al	Al	0.1701	0.7195	0.3662	5.574
Mof_Al	Al	0.1442	0.6888	0.4616	4.91
Mof_Al	Al	0.1384	0.7776	0.4047	7.193
Mof_P 	P 	0.1296	0.7189	0.4112	1.393
Mof_P 	P 	0.1838	0.7792	0.3653	1.382
Mof_P 	P 	0.1483	0.8117	0.454	1.103
Mof_O 	O 	0.1261	0.7496	0.4191	-1.999
Mof_O 	O 	0.1127	0.713	0.3859	-2.408
Mof_O 	O 	0.1591	0.7187	0.3983	-1.82
Mof_O 	O 	0.1288	0.7012	0.4341	-1.485
Mof_O 	O 	0.1907	0.7468	0.3649	-1.487
Mof_O 	O 	0.2029	0.8004	0.3654	-1.59
Mof_O 	O 	0.1635	0.7819	0.3427	-2.01
Mof_O 	O 	0.1632	0.7141	0.4717	-1.628
Mof_O 	O 	0.1696	0.8322	0.4446	-1.462
Mof_O 	O 	0.118	0.67	0.4734	-1.505
Mof_O 	O 	0.1705	0.7829	0.3935	-2.05
Mof_O 	O 	0.1339	0.8004	0.4266	-1.973
Mof_O 	O 	0.1587	0.7883	0.4695	-1.56
Mof_O 	O 	0.1275	0.8217	0.4721	-1.125
Mof_Al	Al	0.1701	0.2195	0.8662	5.575
Mof_Al	Al	0.1442	0.1888	0.9616	4.915
Mof_Al	Al	0.1384	0.2776	0.9047	7.194
Mof_P 	P 	0.1296	0.2189	0.9112	1.393
Mof_P 	P 	0.1838	0.2792	0.8653	1.382
Mof_P 	P 	0.1483	0.3117	0.954	1.102
Mof_O 	O 	0.1261	0.2496	0.9191	-1.998
Mof_O 	O 	0.1127	0.213	0.8859	-2.408
Mof_O 	O 	0.1591	0.2187	0.8983	-1.82
Mof_O 	O 	0.1288	0.2012	0.9341	-1.486
Mof_O 	O 	0.1907	0.2468	0.8649	-1.487
Mof_O 	O 	0.2029	0.3004	0.8654	-1.59
Mof_O 	O 	0.1635	0.2819	0.8427	-2.01
Mof_O 	O 	0.1632	0.2141	0.9717	-1.624
Mof_O 	O 	0.1696	0.3322	0.9446	-1.462
Mof_O 	O 	0.118	0.17	0.9734	-1.502
Mof_O 	O 	0.1705	0.2829	0.8935	-2.05
Mof_O 	O 	0.1339	0.3004	0.9266	-1.972
Mof_O 	O 	0.1587	0.2883	0.9695	-1.553
Mof_O 	O 	0.1275	0.3217	0.9721	-1.118
Mof_Al	Al	0.3299	0.7195	0.1338	5.574
Mof_Al	Al	0.3558	0.6888	0.0384	4.905
Mof_Al	Al	0.3616	0.7776	0.0953	7.192
Mof_P 	P 	0.3704	0.7189	0.0888	1.392
Mof_P 	P 	0.3162	0.7792	0.1347	1.382
Mof_P 	P 	0.3517	0.8117	0.046	1.102
Mof_O 	O 	0.3739	0.7496	0.0809	-1.999
Mof_O 	O 	0.3873	0.713	0.1141	-2.409
Mof_O 	O 	0.3409	0.7187	0.1017	-1.82
Mof_O 	O 	0.3712	0.7012	0.0659	-1.484
Mof_O 	O 	0.3093	0.7468	0.1351	-1.487
Mof_O 	O 	0.2971	0.8004	0.1346	-1.59
Mof_O 	O 	0.3365	0.7819	0.1573	-2.01
Mof_O 	O 	0.3368	0.7141	0.0283	-1.626
Mof_O 	O 	0.3304	0.8322	0.0554	-1.461
Mof_O 	O 	0.382	0.67	0.0266	-1.504
Mof_O 	O 	0.3295	0.7829	0.1065	-2.05
Mof_O 	O 	0.3661	0.8004	0.0734	-1.973
Mof_O 	O 	0.3413	0.7883	0.0305	-1.556
Mof_O 	O 	0.3725	0.8217	0.0279	-1.122
Mof_Al	Al	0.3299	0.2195	0.6338	5.574
Mof_Al	Al	0.3558	0.1888	0.5384	4.91
Mof_Al	Al	0.3616	0.2776	0.5953	7.193
Mof_P 	P 	0.3704	0.2189	0.5888	1.393
Mof_P 	P 	0.3162	0.2792	0.6347	1.382
Mof_P 	P 	0.3517	0.3117	0.546	1.103
Mof_O 	O 	0.3739	0.2496	0.5809	-1.999
Mof_O 	O 	0.3873	0.213	0.6141	-2.409
Mof_O 	O 	0.3409	0.2187	0.6017	-1.82
Mof_O 	O 	0.3712	0.2012	0.5659	-1.485
Mof_O 	O 	0.3093	0.2468	0.6351	-1.487
Mof_O 	O 	0.2971	0.3004	0.6346	-1.59
Mof_O 	O 	0.3365	0.2819	0.6573	-2.01
Mof_O 	O 	0.3368	0.2141	0.5283	-1.628
Mof_O 	O 	0.3304	0.3322	0.5554	-1.462
Mof_O 	O 	0.382	0.17	0.5266	-1.505
Mof_O 	O 	0.3295	0.2829	0.6065	-2.05
Mof_O 	O 	0.3661	0.3004	0.5734	-1.973
Mof_O 	O 	0.3413	0.2883	0.5305	-1.56
Mof_O 	O 	0.3725	0.3217	0.5279	-1.125
Mof_Al	Al	0.8299	0.7195	0.6338	5.574
Mof_Al	Al	0.8558	0.6888	0.5384	4.91
Mof_Al	Al	0.8616	0.7776	0.5953	7.193
Mof_P 	P 	0.8704	0.7189	0.5888	1.393
Mof_P 	P 	0.8162	0.7792	0.6347	1.382
Mof_P 	P 	0.8517	0.8117	0.546	1.103
Mof_O 	O 	0.8739	0.7496	0.5809	-1.999
Mof_O 	O 	0.8873	0.713	0.6141	-2.408
Mof_O 	O 	0.8409	0.7187	0.6017	-1.82
Mof_O 	O 	0.8712	0.7012	0.5659	-1.485
Mof_O 	O 	0.8093	0.7468	0.6351	-1.487
Mof_O 	O 	0.7971	0.8004	0.6346	-1.59
Mof_O 	O 	0.8365	0.7819	0.6573	-2.01
Mof_O 	O 	0.8368	0.7141	0.5283	-1.628
Mof_O 	O 	0.8304	0.8322	0.5554	-1.462
Mof_O 	O 	0.882	0.67	0.5266	-1.505
Mof_O 	O 	0.8295	0.7829	0.6065	-2.05
Mof_O 	O 	0.8661	0.8004	0.5734	-1.973
Mof_O 	O 	0.8413	0.7883	0.5305	-1.56
Mof_O 	O 	0.8725	0.8217	0.5279	-1.125
Mof_Al	Al	0.8299	0.2195	0.1338	5.574
Mof_Al	Al	0.8558	0.1888	0.0384	4.906
Mof_Al	Al	0.8616	0.2776	0.0953	7.193
Mof_P 	P 	0.8704	0.2189	0.0888	1.393
Mof_P 	P 	0.8162	0.2792	0.1347	1.382
Mof_P 	P 	0.8517	0.3117	0.046	1.102
Mof_O 	O 	0.8739	0.2496	0.0809	-1.999
Mof_O 	O 	0.8873	0.213	0.1141	-2.408
Mof_O 	O 	0.8409	0.2187	0.1017	-1.82
Mof_O 	O 	0.8712	0.2012	0.0659	-1.484
Mof_O 	O 	0.8093	0.2468	0.1351	-1.487
Mof_O 	O 	0.7971	0.3004	0.1346	-1.59
Mof_O 	O 	0.8365	0.2819	0.1573	-2.01
Mof_O 	O 	0.8368	0.2141	0.0283	-1.626
Mof_O 	O 	0.8304	0.3322	0.0554	-1.461
Mof_O 	O 	0.882	0.17	0.0266	-1.504
Mof_O 	O 	0.8295	0.2829	0.1065	-2.05
Mof_O 	O 	0.8661	0.3004	0.0734	-1.972
Mof_O 	O 	0.8413	0.2883	0.0305	-1.556
Mof_O 	O 	0.8725	0.3217	0.0279	-1.122
Mof_Al	Al	0.6701	0.2805	0.1338	5.574
Mof_Al	Al	0.6442	0.3112	0.0384	4.905
Mof_Al	Al	0.6384	0.2224	0.0953	7.192
Mof_P 	P 	0.6296	0.2811	0.0888	1.392
Mof_P 	P 	0.6838	0.2208	0.1347	1.382
Mof_P 	P 	0.6483	0.1883	0.046	1.102
Mof_O 	O 	0.6261	0.2504	0.0809	-1.999
Mof_O 	O 	0.6127	0.287	0.1141	-2.409
Mof_O 	O 	0.6591	0.2813	0.1017	-1.82
Mof_O 	O 	0.6288	0.2988	0.0659	-1.484
Mof_O 	O 	0.6907	0.2532	0.1351	-1.487
Mof_O 	O 	0.7029	0.1996	0.1346	-1.59
Mof_O 	O 	0.6635	0.2181	0.1573	-2.01
Mof_O 	O 	0.6632	0.2859	0.0283	-1.626
Mof_O 	O 	0.6696	0.1678	0.0554	-1.461
Mof_O 	O 	0.618	0.33	0.0266	-1.504
Mof_O 	O 	0.6705	0.2171	0.1065	-2.05
Mof_O 	O 	0.6339	0.1996	0.0734	-1.973
Mof_O 	O 	0.6587	0.2117	0.0305	-1.556
Mof_O 	O 	0.6275	0.1783	0.0279	-1.122
Mof_Al	Al	0.6701	0.7805	0.6338	5.574
Mof_Al	Al	0.6442	0.8112	0.5384	4.91
Mof_Al	Al	0.6384	0.7224	0.5953	7.193
Mof_P 	P 	0.6296	0.7811	0.5888	1.393
Mof_P 	P 	0.6838	0.7208	0.6347	1.382
Mof_P 	P 	0.6483	0.6883	0.546	1.103
Mof_O 	O 	0.6261	0.7504	0.5809	-1.999
Mof_O 	O 	0.6127	0.787	0.6141	-2.409
Mof_O 	O 	0.6591	0.7813	0.6017	-1.82
Mof_O 	O 	0.6288	0.7988	0.5659	-1.485
Mof_O 	O 	0.6907	0.7532	0.6351	-1.487
Mof_O 	O 	0.7029	0.6996	0.6346	-1.59
Mof_O 	O 	0.6635	0.7181	0.6573	-2.01
Mof_O 	O 	0.6632	0.7859	0.5283	-1.628
Mof_O 	O 	0.6696	0.6678	0.5554	-1.462
Mof_O 	O 	0.618	0.83	0.5266	-1.505
Mof_O 	O 	0.6705	0.7171	0.6065	-2.05
Mof_O 	O 	0.6339	0.6996	0.5734	-1.973
Mof_O 	O 	0.6587	0.7117	0.5305	-1.56
Mof_O 	O 	0.6275	0.6783	0.5279	-1.125
Mof_Al	Al	0.1701	0.2805	0.6338	5.574
Mof_Al	Al	0.1442	0.3112	0.5384	4.91
Mof_Al	Al	0.1384	0.2224	0.5953	7.193
Mof_P 	P 	0.1296	0.2811	0.5888	1.393
Mof_P 	P 	0.1838	0.2208	0.6347	1.382
Mof_P 	P 	0.1483	0.1883	0.546	1.103
Mof_O 	O 	0.1261	0.2504	0.5809	-1.999
Mof_O 	O 	0.1127	0.287	0.6141	-2.408
Mof_O 	O 	0.1591	0.2813	0.6017	-1.82
Mof_O 	O 	0.1288	0.2988	0.5659	-1.485
Mof_O 	O 	0.1907	0.2532	0.6351	-1.487
Mof_O 	O 	0.2029	0.1996	0.6346	-1.59
Mof_O 	O 	0.1635	0.2181	0.6573	-2.01
Mof_O 	O 	0.1632	0.2859	0.5283	-1.628
Mof_O 	O 	0.1696	0.1678	0.5554	-1.462
Mof_O 	O 	0.118	0.33	0.5266	-1.505
Mof_O 	O 	0.1705	0.2171	0.6065	-2.05
Mof_O 	O 	0.1339	0.1996	0.5734	-1.973
Mof_O 	O 	0.1587	0.2117	0.5305	-1.56
Mof_O 	O 	0.1275	0.1783	0.5279	-1.125
Mof_Al	Al	0.1701	0.7805	0.1338	5.574
Mof_Al	Al	0.1442	0.8112	0.0384	4.905
Mof_Al	Al	0.1384	0.7224	0.0953	7.192
Mof_P 	P 	0.1296	0.7811	0.0888	1.392
Mof_P 	P 	0.1838	0.7208	0.1347	1.382
Mof_P 	P 	0.1483	0.6883	0.046	1.102
Mof_O 	O 	0.1261	0.7504	0.0809	-1.999
Mof_O 	O 	0.1127	0.787	0.1141	-2.408
Mof_O 	O 	0.1591	0.7813	0.1017	-1.82
Mof_O 	O 	0.1288	0.7988	0.0659	-1.484
Mof_O 	O 	0.1907	0.7532	0.1351	-1.487
Mof_O 	O 	0.2029	0.6996	0.1346	-1.59
Mof_O 	O 	0.1635	0.7181	0.1573	-2.01
Mof_O 	O 	0.1632	0.7859	0.0283	-1.626
Mof_O 	O 	0.1696	0.6678	0.0554	-1.461
Mof_O 	O 	0.118	0.83	0.0266	-1.504
Mof_O 	O 	0.1705	0.7171	0.1065	-2.05
Mof_O 	O 	0.1339	0.6996	0.0734	-1.973
Mof_O 	O 	0.1587	0.7117	0.0305	-1.556
Mof_O 	O 	0.1275	0.6783	0.0279	-1.122
Mof_Al	Al	0.3299	0.2805	0.8662	5.574
Mof_Al	Al	0.3558	0.3112	0.9616	4.915
Mof_Al	Al	0.3616	0.2224	0.9047	7.194
Mof_P 	P 	0.3704	0.2811	0.9112	1.393
Mof_P 	P 	0.3162	0.2208	0.8653	1.382
Mof_P 	P 	0.3517	0.1883	0.954	1.102
Mof_O 	O 	0.3739	0.2504	0.9191	-1.998
Mof_O 	O 	0.3873	0.287	0.8859	-2.409
Mof_O 	O 	0.3409	0.2813	0.8983	-1.82
Mof_O 	O 	0.3712	0.2988	0.9341	-1.485
Mof_O 	O 	0.3093	0.2532	0.8649	-1.487
Mof_O 	O 	0.2971	0.1996	0.8654	-1.59
Mof_O 	O 	0.3365	0.2181	0.8427	-2.01
Mof_O 	O 	0.3368	0.2859	0.9717	-1.624
Mof_O 	O 	0.3304	0.1678	0.9446	-1.462
Mof_O 	O 	0.382	0.33	0.9734	-1.502
Mof_O 	O 	0.3295	0.2171	0.8935	-2.05
Mof_O 	O 	0.3661	0.1996	0.9266	-1.972
Mof_O 	O 	0.3413	0.2117	0.9695	-1.553
Mof_O 	O 	0.3725	0.1783	0.9721	-1.118
Mof_Al	Al	0.3299	0.7805	0.3662	5.574
Mof_Al	Al	0.3558	0.8112	0.4616	4.91
Mof_Al	Al	0.3616	0.7224	0.4047	7.193
Mof_P 	P 	0.3704	0.7811	0.4112	1.393
Mof_P 	P 	0.3162	0.7208	0.3653	1.382
Mof_P 	P 	0.3517	0.6883	0.454	1.103
Mof_O 	O 	0.3739	0.7504	0.4191	-1.999
Mof_O 	O 	0.3873	0.787	0.3859	-2.409
Mof_O 	O 	0.3409	0.7813	0.3983	-1.82
Mof_O 	O 	0.3712	0.7988	0.4341	-1.485
Mof_O 	O 	0.3093	0.7532	0.3649	-1.487
Mof_O 	O 	0.2971	0.6996	0.3654	-1.59
Mof_O 	O 	0.3365	0.7181	0.3427	-2.01
Mof_O 	O 	0.3368	0.7859	0.4717	-1.628
Mof_O 	O 	0.3304	0.6678	0.4446	-1.462
Mof_O 	O 	0.382	0.83	0.4734	-1.505
Mof_O 	O 	0.3295	0.7171	0.3935	-2.05
Mof_O 	O 	0.3661	0.6996	0.4266	-1.973
Mof_O 	O 	0.3413	0.7117	0.4695	-1.56
Mof_O 	O 	0.3725	0.6783	0.4721	-1.125
Mof_Al	Al	0.8299	0.2805	0.3662	5.574
Mof_Al	Al	0.8558	0.3112	0.4616	4.91
Mof_Al	Al	0.8616	0.2224	0.4047	7.194
Mof_P 	P 	0.8704	0.2811	0.4112	1.393
Mof_P 	P 	0.8162	0.2208	0.3653	1.382
Mof_P 	P 	0.8517	0.1883	0.454	1.103
Mof_O 	O 	0.8739	0.2504	0.4191	-1.999
Mof_O 	O 	0.8873	0.287	0.3859	-2.409
Mof_O 	O 	0.8409	0.2813	0.3983	-1.82
Mof_O 	O 	0.8712	0.2988	0.4341	-1.485
Mof_O 	O 	0.8093	0.2532	0.3649	-1.487
Mof_O 	O 	0.7971	0.1996	0.3654	-1.59
Mof_O 	O 	0.8365	0.2181	0.3427	-2.01
Mof_O 	O 	0.8368	0.2859	0.4717	-1.628
Mof_O 	O 	0.8304	0.1678	0.4446	-1.462
Mof_O 	O 	0.882	0.33	0.4734	-1.505
Mof_O 	O 	0.8295	0.2171	0.3935	-2.05
Mof_O 	O 	0.8661	0.1996	0.4266	-1.973
Mof_O 	O 	0.8413	0.2117	0.4695	-1.56
Mof_O 	O 	0.8725	0.1783	0.4721	-1.125
Mof_Al	Al	0.8299	0.7805	0.8662	5.574
Mof_Al	Al	0.8558	0.8112	0.9616	4.915
Mof_Al	Al	0.8616	0.7224	0.9047	7.193
Mof_P 	P 	0.8704	0.7811	0.9112	1.393
Mof_P 	P 	0.8162	0.7208	0.8653	1.382
Mof_P 	P 	0.8517	0.6883	0.954	1.102
Mof_O 	O 	0.8739	0.7504	0.9191	-1.998
Mof_O 	O 	0.8873	0.787	0.8859	-2.408
Mof_O 	O 	0.8409	0.7813	0.8983	-1.82
Mof_O 	O 	0.8712	0.7988	0.9341	-1.485
Mof_O 	O 	0.8093	0.7532	0.8649	-1.487
Mof_O 	O 	0.7971	0.6996	0.8654	-1.59
Mof_O 	O 	0.8365	0.7181	0.8427	-2.01
Mof_O 	O 	0.8368	0.7859	0.9717	-1.624
Mof_O 	O 	0.8304	0.6678	0.9446	-1.462
Mof_O 	O 	0.882	0.83	0.9734	-1.501
Mof_O 	O 	0.8295	0.7171	0.8935	-2.05
Mof_O 	O 	0.8661	0.6996	0.9266	-1.972
Mof_O 	O 	0.8413	0.7117	0.9695	-1.553
Mof_O 	O 	0.8725	0.6783	0.9721	-1.118
Mof_Al	Al	0.1701	0.3662	0.7805	5.574
Mof_Al	Al	0.1442	0.4616	0.8112	4.91
Mof_Al	Al	0.1384	0.4047	0.7224	7.193
Mof_P 	P 	0.1296	0.4112	0.7811	1.393
Mof_P 	P 	0.1838	0.3653	0.7208	1.382
Mof_P 	P 	0.1483	0.454	0.6883	1.103
Mof_O 	O 	0.1261	0.4191	0.7504	-1.999
Mof_O 	O 	0.1127	0.3859	0.787	-2.408
Mof_O 	O 	0.1591	0.3983	0.7813	-1.82
Mof_O 	O 	0.1288	0.4341	0.7988	-1.485
Mof_O 	O 	0.1907	0.3649	0.7532	-1.487
Mof_O 	O 	0.2029	0.3654	0.6996	-1.59
Mof_O 	O 	0.1635	0.3427	0.7181	-2.01
Mof_O 	O 	0.1632	0.4717	0.7859	-1.628
Mof_O 	O 	0.1696	0.4446	0.6678	-1.462
Mof_O 	O 	0.118	0.4734	0.83	-1.505
Mof_O 	O 	0.1705	0.3935	0.7171	-2.05
Mof_O 	O 	0.1339	0.4266	0.6996	-1.973
Mof_O 	O 	0.1587	0.4695	0.7117	-1.56
Mof_O 	O 	0.1275	0.4721	0.6783	-1.125
Mof_Al	Al	0.1701	0.8662	0.2805	5.575
Mof_Al	Al	0.1442	0.9616	0.3112	4.915
Mof_Al	Al	0.1384	0.9047	0.2224	7.194
Mof_P 	P 	0.1296	0.9112	0.2811	1.393
Mof_P 	P 	0.1838	0.8653	0.2208	1.382
Mof_P 	P 	0.1483	0.954	0.1883	1.102
Mof_O 	O 	0.1261	0.9191	0.2504	-1.998
Mof_O 	O 	0.1127	0.8859	0.287	-2.408
Mof_O 	O 	0.1591	0.8983	0.2813	-1.82
Mof_O 	O 	0.1288	0.9341	0.2988	-1.486
Mof_O 	O 	0.1907	0.8649	0.2532	-1.487
Mof_O 	O 	0.2029	0.8654	0.1996	-1.59
Mof_O 	O 	0.1635	0.8427	0.2181	-2.01
Mof_O 	O 	0.1632	0.9717	0.2859	-1.624
Mof_O 	O 	0.1696	0.9446	0.1678	-1.462
Mof_O 	O 	0.118	0.9734	0.33	-1.502
Mof_O 	O 	0.1705	0.8935	0.2171	-2.05
Mof_O 	O 	0.1339	0.9266	0.1996	-1.972
Mof_O 	O 	0.1587	0.9695	0.2117	-1.553
Mof_O 	O 	0.1275	0.9721	0.1783	-1.118
Mof_Al	Al	0.6701	0.3662	0.2805	5.574
Mof_Al	Al	0.6442	0.4616	0.3112	4.91
Mof_Al	Al	0.6384	0.4047	0.2224	7.193
Mof_P 	P 	0.6296	0.4112	0.2811	1.393
Mof_P 	P 	0.6838	0.3653	0.2208	1.382
Mof_P 	P 	0.6483	0.454	0.1883	1.103
Mof_O 	O 	0.6261	0.4191	0.2504	-1.999
Mof_O 	O 	0.6127	0.3859	0.287	-2.409
Mof_O 	O 	0.6591	0.3983	0.2813	-1.82
Mof_O 	O 	0.6288	0.4341	0.2988	-1.485
Mof_O 	O 	0.6907	0.3649	0.2532	-1.487
Mof_O 	O 	0.7029	0.3654	0.1996	-1.59
Mof_O 	O 	0.6635	0.3427	0.2181	-2.01
Mof_O 	O 	0.6632	0.4717	0.2859	-1.628
Mof_O 	O 	0.6696	0.4446	0.1678	-1.462
Mof_O 	O 	0.618	0.4734	0.33	-1.505
Mof_O 	O 	0.6705	0.3935	0.2171	-2.05
Mof_O 	O 	0.6339	0.4266	0.1996	-1.973
Mof_O 	O 	0.6587	0.4695	0.2117	-1.56
Mof_O 	O 	0.6275	0.4721	0.1783	-1.125
Mof_Al	Al	0.6701	0.8662	0.7805	5.574
Mof_Al	Al	0.6442	0.9616	0.8112	4.915
Mof_Al	Al	0.6384	0.9047	0.7224	7.193
Mof_P 	P 	0.6296	0.9112	0.7811	1.393
Mof_P 	P 	0.6838	0.8653	0.7208	1.382
Mof_P 	P 	0.6483	0.954	0.6883	1.102
Mof_O 	O 	0.6261	0.9191	0.7504	-1.998
Mof_O 	O 	0.6127	0.8859	0.787	-2.409
Mof_O 	O 	0.6591	0.8983	0.7813	-1.82
Mof_O 	O 	0.6288	0.9341	0.7988	-1.485
Mof_O 	O 	0.6907	0.8649	0.7532	-1.487
Mof_O 	O 	0.7029	0.8654	0.6996	-1.59
Mof_O 	O 	0.6635	0.8427	0.7181	-2.01
Mof_O 	O 	0.6632	0.9717	0.7859	-1.624
Mof_O 	O 	0.6696	0.9446	0.6678	-1.462
Mof_O 	O 	0.618	0.9734	0.83	-1.502
Mof_O 	O 	0.6705	0.8935	0.7171	-2.05
Mof_O 	O 	0.6339	0.9266	0.6996	-1.972
Mof_O 	O 	0.6587	0.9695	0.7117	-1.553
Mof_O 	O 	0.6275	0.9721	0.6783	-1.118
Mof_Al	Al	0.8299	0.6338	0.7805	5.574
Mof_Al	Al	0.8558	0.5384	0.8112	4.91
Mof_Al	Al	0.8616	0.5953	0.7224	7.193
Mof_P 	P 	0.8704	0.5888	0.7811	1.393
Mof_P 	P 	0.8162	0.6347	0.7208	1.382
Mof_P 	P 	0.8517	0.546	0.6883	1.103
Mof_O 	O 	0.8739	0.5809	0.7504	-1.999
Mof_O 	O 	0.8873	0.6141	0.787	-2.408
Mof_O 	O 	0.8409	0.6017	0.7813	-1.82
Mof_O 	O 	0.8712	0.5659	0.7988	-1.485
Mof_O 	O 	0.8093	0.6351	0.7532	-1.487
Mof_O 	O 	0.7971	0.6346	0.6996	-1.59
Mof_O 	O 	0.8365	0.6573	0.7181	-2.01
Mof_O 	O 	0.8368	0.5283	0.7859	-1.628
Mof_O 	O 	0.8304	0.5554	0.6678	-1.462
Mof_O 	O 	0.882	0.5266	0.83	-1.505
Mof_O 	O 	0.8295	0.6065	0.7171	-2.05
Mof_O 	O 	0.8661	0.5734	0.6996	-1.973
Mof_O 	O 	0.8413	0.5305	0.7117	-1.56
Mof_O 	O 	0.8725	0.5279	0.6783	-1.125
Mof_Al	Al	0.8299	0.1338	0.2805	5.574
Mof_Al	Al	0.8558	0.0384	0.3112	4.906
Mof_Al	Al	0.8616	0.0953	0.2224	7.193
Mof_P 	P 	0.8704	0.0888	0.2811	1.393
Mof_P 	P 	0.8162	0.1347	0.2208	1.382
Mof_P 	P 	0.8517	0.046	0.1883	1.102
Mof_O 	O 	0.8739	0.0809	0.2504	-1.999
Mof_O 	O 	0.8873	0.1141	0.287	-2.408
Mof_O 	O 	0.8409	0.1017	0.2813	-1.82
Mof_O 	O 	0.8712	0.0659	0.2988	-1.484
Mof_O 	O 	0.8093	0.1351	0.2532	-1.487
Mof_O 	O 	0.7971	0.1346	0.1996	-1.59
Mof_O 	O 	0.8365	0.1573	0.2181	-2.01
Mof_O 	O 	0.8368	0.0283	0.2859	-1.626
Mof_O 	O 	0.8304	0.0554	0.1678	-1.461
Mof_O 	O 	0.882	0.0266	0.33	-1.504
Mof_O 	O 	0.8295	0.1065	0.2171	-2.05
Mof_O 	O 	0.8661	0.0734	0.1996	-1.972
Mof_O 	O 	0.8413	0.0305	0.2117	-1.556
Mof_O 	O 	0.8725	0.0279	0.1783	-1.122
Mof_Al	Al	0.3299	0.6338	0.2805	5.574
Mof_Al	Al	0.3558	0.5384	0.3112	4.91
Mof_Al	Al	0.3616	0.5953	0.2224	7.194
Mof_P 	P 	0.3704	0.5888	0.2811	1.393
Mof_P 	P 	0.3162	0.6347	0.2208	1.382
Mof_P 	P 	0.3517	0.546	0.1883	1.103
Mof_O 	O 	0.3739	0.5809	0.2504	-1.999
Mof_O 	O 	0.3873	0.6141	0.287	-2.409
Mof_O 	O 	0.3409	0.6017	0.2813	-1.82
Mof_O 	O 	0.3712	0.5659	0.2988	-1.485
Mof_O 	O 	0.3093	0.6351	0.2532	-1.487
Mof_O 	O 	0.2971	0.6346	0.1996	-1.59
Mof_O 	O 	0.3365	0.6573	0.2181	-2.01
Mof_O 	O 	0.3368	0.5283	0.2859	-1.628
Mof_O 	O 	0.3304	0.5554	0.1678	-1.462
Mof_O 	O 	0.382	0.5266	0.33	-1.505
Mof_O 	O 	0.3295	0.6065	0.2171	-2.05
Mof_O 	O 	0.3661	0.5734	0.1996	-1.973
Mof_O 	O 	0.3413	0.5305	0.2117	-1.56
Mof_O 	O 	0.3725	0.5279	0.1783	-1.125
Mof_Al	Al	0.3299	0.1338	0.7805	5.574
Mof_Al	Al	0.3558	0.0384	0.8112	4.905
Mof_Al	Al	0.3616	0.0953	0.7224	7.192
Mof_P 	P 	0.3704	0.0888	0.7811	1.392
Mof_P 	P 	0.3162	0.1347	0.7208	1.382
Mof_P 	P 	0.3517	0.046	0.6883	1.102
Mof_O 	O 	0.3739	0.0809	0.7504	-1.999
Mof_O 	O 	0.3873	0.1141	0.787	-2.409
Mof_O 	O 	0.3409	0.1017	0.7813	-1.82
Mof_O 	O 	0.3712	0.0659	0.7988	-1.484
Mof_O 	O 	0.3093	0.1351	0.7532	-1.487
Mof_O 	O 	0.2971	0.1346	0.6996	-1.59
Mof_O 	O 	0.3365	0.1573	0.7181	-2.01
Mof_O 	O 	0.3368	0.0283	0.7859	-1.626
Mof_O 	O 	0.3304	0.0554	0.6678	-1.461
Mof_O 	O 	0.382	0.0266	0.83	-1.504
Mof_O 	O 	0.3295	0.1065	0.7171	-2.05
Mof_O 	O 	0.3661	0.0734	0.6996	-1.973
Mof_O 	O 	0.3413	0.0305	0.7117	-1.556
Mof_O 	O 	0.3725	0.0279	0.6783	-1.122
Mof_Al	Al	0.1701	0.6338	0.2195	5.574
Mof_Al	Al	0.1442	0.5384	0.1888	4.91
Mof_Al	Al	0.1384	0.5953	0.2776	7.193
Mof_P 	P 	0.1296	0.5888	0.2189	1.393
Mof_P 	P 	0.1838	0.6347	0.2792	1.382
Mof_P 	P 	0.1483	0.546	0.3117	1.103
Mof_O 	O 	0.1261	0.5809	0.2496	-1.999
Mof_O 	O 	0.1127	0.6141	0.213	-2.408
Mof_O 	O 	0.1591	0.6017	0.2187	-1.82
Mof_O 	O 	0.1288	0.5659	0.2012	-1.485
Mof_O 	O 	0.1907	0.6351	0.2468	-1.487
Mof_O 	O 	0.2029	0.6346	0.3004	-1.59
Mof_O 	O 	0.1635	0.6573	0.2819	-2.01
Mof_O 	O 	0.1632	0.5283	0.2141	-1.628
Mof_O 	O 	0.1696	0.5554	0.3322	-1.462
Mof_O 	O 	0.118	0.5266	0.17	-1.505
Mof_O 	O 	0.1705	0.6065	0.2829	-2.05
Mof_O 	O 	0.1339	0.5734	0.3004	-1.973
Mof_O 	O 	0.1587	0.5305	0.2883	-1.56
Mof_O 	O 	0.1275	0.5279	0.3217	-1.125
Mof_Al	Al	0.1701	0.1338	0.7195	5.574
Mof_Al	Al	0.1442	0.0384	0.6888	4.905
Mof_Al	Al	0.1384	0.0953	0.7776	7.192
Mof_P 	P 	0.1296	0.0888	0.7189	1.392
Mof_P 	P 	0.1838	0.1347	0.7792	1.382
Mof_P 	P 	0.1483	0.046	0.8117	1.102
Mof_O 	O 	0.1261	0.0809	0.7496	-1.999
Mof_O 	O 	0.1127	0.1141	0.713	-2.408
Mof_O 	O 	0.1591	0.1017	0.7187	-1.82
Mof_O 	O 	0.1288	0.0659	0.7012	-1.484
Mof_O 	O 	0.1907	0.1351	0.7468	-1.487
Mof_O 	O 	0.2029	0.1346	0.8004	-1.59
Mof_O 	O 	0.1635	0.1573	0.7819	-2.01
Mof_O 	O 	0.1632	0.0283	0.7141	-1.626
Mof_O 	O 	0.1696	0.0554	0.8322	-1.461
Mof_O 	O 	0.118	0.0266	0.67	-1.504
Mof_O 	O 	0.1705	0.1065	0.7829	-2.05
Mof_O 	O 	0.1339	0.0734	0.8004	-1.973
Mof_O 	O 	0.1587	0.0305	0.7883	-1.556
Mof_O 	O 	0.1275	0.0279	0.8217	-1.122
Mof_Al	Al	0.6701	0.6338	0.7195	5.574
Mof_Al	Al	0.6442	0.5384	0.6888	4.91
Mof_Al	Al	0.6384	0.5953	0.7776	7.193
Mof_P 	P 	0.6296	0.5888	0.7189	1.393
Mof_P 	P 	0.6838	0.6347	0.7792	1.382
Mof_P 	P 	0.6483	0.546	0.8117	1.103
Mof_O 	O 	0.6261	0.5809	0.7496	-1.999
Mof_O 	O 	0.6127	0.6141	0.713	-2.409
Mof_O 	O 	0.6591	0.6017	0.7187	-1.82
Mof_O 	O 	0.6288	0.5659	0.7012	-1.485
Mof_O 	O 	0.6907	0.6351	0.7468	-1.487
Mof_O 	O 	0.7029	0.6346	0.8004	-1.59
Mof_O 	O 	0.6635	0.6573	0.7819	-2.01
Mof_O 	O 	0.6632	0.5283	0.7141	-1.628
Mof_O 	O 	0.6696	0.5554	0.8322	-1.462
Mof_O 	O 	0.618	0.5266	0.67	-1.505
Mof_O 	O 	0.6705	0.6065	0.7829	-2.05
Mof_O 	O 	0.6339	0.5734	0.8004	-1.973
Mof_O 	O 	0.6587	0.5305	0.7883	-1.56
Mof_O 	O 	0.6275	0.5279	0.8217	-1.125
Mof_Al	Al	0.6701	0.1338	0.2195	5.574
Mof_Al	Al	0.6442	0.0384	0.1888	4.905
Mof_Al	Al	0.6384	0.0953	0.2776	7.192
Mof_P 	P 	0.6296	0.0888	0.2189	1.392
Mof_P 	P 	0.6838	0.1347	0.2792	1.382
Mof_P 	P 	0.6483	0.046	0.3117	1.102
Mof_O 	O 	0.6261	0.0809	0.2496	-1.999
Mof_O 	O 	0.6127	0.1141	0.213	-2.409
Mof_O 	O 	0.6591	0.1017	0.2187	-1.82
Mof_O 	O 	0.6288	0.0659	0.2012	-1.484
Mof_O 	O 	0.6907	0.1351	0.2468	-1.487
Mof_O 	O 	0.7029	0.1346	0.3004	-1.59
Mof_O 	O 	0.6635	0.1573	0.2819	-2.01
Mof_O 	O 	0.6632	0.0283	0.2141	-1.626
Mof_O 	O 	0.6696	0.0554	0.3322	-1.461
Mof_O 	O 	0.618	0.0266	0.17	-1.504
Mof_O 	O 	0.6705	0.1065	0.2829	-2.05
Mof_O 	O 	0.6339	0.0734	0.3004	-1.973
Mof_O 	O 	0.6587	0.0305	0.2883	-1.556
Mof_O 	O 	0.6275	0.0279	0.3217	-1.122
Mof_Al	Al	0.8299	0.3662	0.2195	5.574
Mof_Al	Al	0.8558	0.4616	0.1888	4.91
Mof_Al	Al	0.8616	0.4047	0.2776	7.194
Mof_P 	P 	0.8704	0.4112	0.2189	1.393
Mof_P 	P 	0.8162	0.3653	0.2792	1.382
Mof_P 	P 	0.8517	0.454	0.3117	1.103
Mof_O 	O 	0.8739	0.4191	0.2496	-1.999
Mof_O 	O 	0.8873	0.3859	0.213	-2.409
Mof_O 	O 	0.8409	0.3983	0.2187	-1.82
Mof_O 	O 	0.8712	0.4341	0.2012	-1.485
Mof_O 	O 	0.8093	0.3649	0.2468	-1.487
Mof_O 	O 	0.7971	0.3654	0.3004	-1.59
Mof_O 	O 	0.8365	0.3427	0.2819	-2.01
Mof_O 	O 	0.8368	0.4717	0.2141	-1.628
Mof_O 	O 	0.8304	0.4446	0.3322	-1.462
Mof_O 	O 	0.882	0.4734	0.17	-1.505
Mof_O 	O 	0.8295	0.3935	0.2829	-2.05
Mof_O 	O 	0.8661	0.4266	0.3004	-1.973
Mof_O 	O 	0.8413	0.4695	0.2883	-1.56
Mof_O 	O 	0.8725	0.4721	0.3217	-1.125
Mof_Al	Al	0.8299	0.8662	0.7195	5.574
Mof_Al	Al	0.8558	0.9616	0.6888	4.915
Mof_Al	Al	0.8616	0.9047	0.7776	7.193
Mof_P 	P 	0.8704	0.9112	0.7189	1.393
Mof_P 	P 	0.8162	0.8653	0.7792	1.382
Mof_P 	P 	0.8517	0.954	0.8117	1.102
Mof_O 	O 	0.8739	0.9191	0.7496	-1.998
Mof_O 	O 	0.8873	0.8859	0.713	-2.408
Mof_O 	O 	0.8409	0.8983	0.7187	-1.82
Mof_O 	O 	0.8712	0.9341	0.7012	-1.485
Mof_O 	O 	0.8093	0.8649	0.7468	-1.487
Mof_O 	O 	0.7971	0.8654	0.8004	-1.59
Mof_O 	O 	0.8365	0.8427	0.7819	-2.01
Mof_O 	O 	0.8368	0.9717	0.7141	-1.624
Mof_O 	O 	0.8304	0.9446	0.8322	-1.462
Mof_O 	O 	0.882	0.9734	0.67	-1.501
Mof_O 	O 	0.8295	0.8935	0.7829	-2.05
Mof_O 	O 	0.8661	0.9266	0.8004	-1.972
Mof_O 	O 	0.8413	0.9695	0.7883	-1.553
Mof_O 	O 	0.8725	0.9721	0.8217	-1.118
Mof_Al	Al	0.3299	0.3662	0.7195	5.574
Mof_Al	Al	0.3558	0.4616	0.6888	4.91
Mof_Al	Al	0.3616	0.4047	0.7776	7.193
Mof_P 	P 	0.3704	0.4112	0.7189	1.393
Mof_P 	P 	0.3162	0.3653	0.7792	1.382
Mof_P 	P 	0.3517	0.454	0.8117	1.103
Mof_O 	O 	0.3739	0.4191	0.7496	-1.999
Mof_O 	O 	0.3873	0.3859	0.713	-2.409
Mof_O 	O 	0.3409	0.3983	0.7187	-1.82
Mof_O 	O 	0.3712	0.4341	0.7012	-1.485
Mof_O 	O 	0.3093	0.3649	0.7468	-1.487
Mof_O 	O 	0.2971	0.3654	0.8004	-1.59
Mof_O 	O 	0.3365	0.3427	0.7819	-2.01
Mof_O 	O 	0.3368	0.4717	0.7141	-1.628
Mof_O 	O 	0.3304	0.4446	0.8322	-1.462
Mof_O 	O 	0.382	0.4734	0.67	-1.505
Mof_O 	O 	0.3295	0.3935	0.7829	-2.05
Mof_O 	O 	0.3661	0.4266	0.8004	-1.973
Mof_O 	O 	0.3413	0.4695	0.7883	-1.56
Mof_O 	O 	0.3725	0.4721	0.8217	-1.125
Mof_Al	Al	0.3299	0.8662	0.2195	5.575
Mof_Al	Al	0.3558	0.9616	0.1888	4.915
Mof_Al	Al	0.3616	0.9047	0.2776	7.194
Mof_P 	P 	0.3704	0.9112	0.2189	1.393
Mof_P 	P 	0.3162	0.8653	0.2792	1.382
Mof_P 	P 	0.3517	0.954	0.3117	1.102
Mof_O 	O 	0.3739	0.9191	0.2496	-1.998
Mof_O 	O 	0.3873	0.8859	0.213	-2.409
Mof_O 	O 	0.3409	0.8983	0.2187	-1.82
Mof_O 	O 	0.3712	0.9341	0.2012	-1.486
Mof_O 	O 	0.3093	0.8649	0.2468	-1.487
Mof_O 	O 	0.2971	0.8654	0.3004	-1.59
Mof_O 	O 	0.3365	0.8427	0.2819	-2.01
Mof_O 	O 	0.3368	0.9717	0.2141	-1.624
Mof_O 	O 	0.3304	0.9446	0.3322	-1.462
Mof_O 	O 	0.382	0.9734	0.17	-1.502
Mof_O 	O 	0.3295	0.8935	0.2829	-2.05
Mof_O 	O 	0.3661	0.9266	0.3004	-1.972
Mof_O 	O 	0.3413	0.9695	0.2883	-1.553
Mof_O 	O 	0.3725	0.9721	0.3217	-1.118
Mof_Al	Al	0.3662	0.2195	0.8299	5.574
Mof_Al	Al	0.4616	0.1888	0.8558	4.91
Mof_Al	Al	0.4047	0.2776	0.8616	7.194
Mof_P 	P 	0.4112	0.2189	0.8704	1.393
Mof_P 	P 	0.3653	0.2792	0.8162	1.382
Mof_P 	P 	0.454	0.3117	0.8517	1.103
Mof_O 	O 	0.4191	0.2496	0.8739	-1.999
Mof_O 	O 	0.3859	0.213	0.8873	-2.409
Mof_O 	O 	0.3983	0.2187	0.8409	-1.82
Mof_O 	O 	0.4341	0.2012	0.8712	-1.485
Mof_O 	O 	0.3649	0.2468	0.8093	-1.487
Mof_O 	O 	0.3654	0.3004	0.7971	-1.59
Mof_O 	O 	0.3427	0.2819	0.8365	-2.01
Mof_O 	O 	0.4717	0.2141	0.8368	-1.628
Mof_O 	O 	0.4446	0.3322	0.8304	-1.462
Mof_O 	O 	0.4734	0.17	0.882	-1.505
Mof_O 	O 	0.3935	0.2829	0.8295	-2.05
Mof_O 	O 	0.4266	0.3004	0.8661	-1.973
Mof_O 	O 	0.4695	0.2883	0.8413	-1.56
Mof_O 	O 	0.4721	0.3217	0.8725	-1.125
Mof_Al	Al	0.3662	0.7195	0.3299	5.574
Mof_Al	Al	0.4616	0.6888	0.3558	4.91
Mof_Al	Al	0.4047	0.7776	0.3616	7.193
Mof_P 	P 	0.4112	0.7189	0.3704	1.393
Mof_P 	P 	0.3653	0.7792	0.3162	1.382
Mof_P 	P 	0.454	0.8117	0.3517	1.103
Mof_O 	O 	0.4191	0.7496	0.3739	-1.999
Mof_O 	O 	0.3859	0.713	0.3873	-2.409
Mof_O 	O 	0.3983	0.7187	0.3409	-1.82
Mof_O 	O 	0.4341	0.7012	0.3712	-1.485
Mof_O 	O 	0.3649	0.7468	0.3093	-1.487
Mof_O 	O 	0.3654	0.8004	0.2971	-1.59
Mof_O 	O 	0.3427	0.7819	0.3365	-2.01
Mof_O 	O 	0.4717	0.7141	0.3368	-1.628
Mof_O 	O 	0.4446	0.8322	0.3304	-1.462
Mof_O 	O 	0.4734	0.67	0.382	-1.505
Mof_O 	O 	0.3935	0.7829	0.3295	-2.05
Mof_O 	O 	0.4266	0.8004	0.3661	-1.973
Mof_O 	O 	0.4695	0.7883	0.3413	-1.56
Mof_O 	O 	0.4721	0.8217	0.3725	-1.125
Mof_Al	Al	0.8662	0.2195	0.3299	5.575
Mof_Al	Al	0.9616	0.1888	0.3558	4.915
Mof_Al	Al	0.9047	0.2776	0.3616	7.194
Mof_P 	P 	0.9112	0.2189	0.3704	1.393
Mof_P 	P 	0.8653	0.2792	0.3162	1.382
Mof_P 	P 	0.954	0.3117	0.3517	1.102
Mof_O 	O 	0.9191	0.2496	0.3739	-1.998
Mof_O 	O 	0.8859	0.213	0.3873	-2.409
Mof_O 	O 	0.8983	0.2187	0.3409	-1.82
Mof_O 	O 	0.9341	0.2012	0.3712	-1.486
Mof_O 	O 	0.8649	0.2468	0.3093	-1.487
Mof_O 	O 	0.8654	0.3004	0.2971	-1.59
Mof_O 	O 	0.8427	0.2819	0.3365	-2.01
Mof_O 	O 	0.9717	0.2141	0.3368	-1.624
Mof_O 	O 	0.9446	0.3322	0.3304	-1.462
Mof_O 	O 	0.9734	0.17	0.382	-1.502
Mof_O 	O 	0.8935	0.2829	0.3295	-2.05
Mof_O 	O 	0.9266	0.3004	0.3661	-1.972
Mof_O 	O 	0.9695	0.2883	0.3413	-1.553
Mof_O 	O 	0.9721	0.3217	0.3725	-1.118
Mof_Al	Al	0.8662	0.7195	0.8299	5.574
Mof_Al	Al	0.9616	0.6888	0.8558	4.915
Mof_Al	Al	0.9047	0.7776	0.8616	7.193
Mof_P 	P 	0.9112	0.7189	0.8704	1.393
Mof_P 	P 	0.8653	0.7792	0.8162	1.382
Mof_P 	P 	0.954	0.8117	0.8517	1.102
Mof_O 	O 	0.9191	0.7496	0.8739	-1.998
Mof_O 	O 	0.8859	0.713	0.8873	-2.408
Mof_O 	O 	0.8983	0.7187	0.8409	-1.82
Mof_O 	O 	0.9341	0.7012	0.8712	-1.485
Mof_O 	O 	0.8649	0.7468	0.8093	-1.487
Mof_O 	O 	0.8654	0.8004	0.7971	-1.59
Mof_O 	O 	0.8427	0.7819	0.8365	-2.01
Mof_O 	O 	0.9717	0.7141	0.8368	-1.624
Mof_O 	O 	0.9446	0.8322	0.8304	-1.462
Mof_O 	O 	0.9734	0.67	0.882	-1.501
Mof_O 	O 	0.8935	0.7829	0.8295	-2.05
Mof_O 	O 	0.9266	0.8004	0.8661	-1.972
Mof_O 	O 	0.9695	0.7883	0.8413	-1.553
Mof_O 	O 	0.9721	0.8217	0.8725	-1.118
Mof_Al	Al	0.6338	0.2195	0.1701	5.574
Mof_Al	Al	0.5384	0.1888	0.1442	4.91
Mof_Al	Al	0.5953	0.2776	0.1384	7.193
Mof_P 	P 	0.5888	0.2189	0.1296	1.393
Mof_P 	P 	0.6347	0.2792	0.1838	1.382
Mof_P 	P 	0.546	0.3117	0.1483	1.103
Mof_O 	O 	0.5809	0.2496	0.1261	-1.999
Mof_O 	O 	0.6141	0.213	0.1127	-2.408
Mof_O 	O 	0.6017	0.2187	0.1591	-1.82
Mof_O 	O 	0.5659	0.2012	0.1288	-1.485
Mof_O 	O 	0.6351	0.2468	0.1907	-1.487
Mof_O 	O 	0.6346	0.3004	0.2029	-1.59
Mof_O 	O 	0.6573	0.2819	0.1635	-2.01
Mof_O 	O 	0.5283	0.2141	0.1632	-1.628
Mof_O 	O 	0.5554	0.3322	0.1696	-1.462
Mof_O 	O 	0.5266	0.17	0.118	-1.505
Mof_O 	O 	0.6065	0.2829	0.1705	-2.05
Mof_O 	O 	0.5734	0.3004	0.1339	-1.973
Mof_O 	O 	0.5305	0.2883	0.1587	-1.56
Mof_O 	O 	0.5279	0.3217	0.1275	-1.125
Mof_Al	Al	0.6338	0.7195	0.6701	5.574
Mof_Al	Al	0.5384	0.6888	0.6442	4.91
Mof_Al	Al	0.5953	0.7776	0.6384	7.193
Mof_P 	P 	0.5888	0.7189	0.6296	1.393
Mof_P 	P 	0.6347	0.7792	0.6838	1.382
Mof_P 	P 	0.546	0.8117	0.6483	1.103
Mof_O 	O 	0.5809	0.7496	0.6261	-1.999
Mof_O 	O 	0.6141	0.713	0.6127	-2.409
Mof_O 	O 	0.6017	0.7187	0.6591	-1.82
Mof_O 	O 	0.5659	0.7012	0.6288	-1.485
Mof_O 	O 	0.6351	0.7468	0.6907	-1.487
Mof_O 	O 	0.6346	0.8004	0.7029	-1.59
Mof_O 	O 	0.6573	0.7819	0.6635	-2.01
Mof_O 	O 	0.5283	0.7141	0.6632	-1.628
Mof_O 	O 	0.5554	0.8322	0.6696	-1.462
Mof_O 	O 	0.5266	0.67	0.618	-1.505
Mof_O 	O 	0.6065	0.7829	0.6705	-2.05
Mof_O 	O 	0.5734	0.8004	0.6339	-1.973
Mof_O 	O 	0.5305	0.7883	0.6587	-1.56
Mof_O 	O 	0.5279	0.8217	0.6275	-1.125
Mof_Al	Al	0.1338	0.2195	0.6701	5.574
Mof_Al	Al	0.0384	0.1888	0.6442	4.905
Mof_Al	Al	0.0953	0.2776	0.6384	7.192
Mof_P 	P 	0.0888	0.2189	0.6296	1.392
Mof_P 	P 	0.1347	0.2792	0.6838	1.382
Mof_P 	P 	0.046	0.3117	0.6483	1.102
Mof_O 	O 	0.0809	0.2496	0.6261	-1.999
Mof_O 	O 	0.1141	0.213	0.6127	-2.409
Mof_O 	O 	0.1017	0.2187	0.6591	-1.82
Mof_O 	O 	0.0659	0.2012	0.6288	-1.484
Mof_O 	O 	0.1351	0.2468	0.6907	-1.487
Mof_O 	O 	0.1346	0.3004	0.7029	-1.59
Mof_O 	O 	0.1573	0.2819	0.6635	-2.01
Mof_O 	O 	0.0283	0.2141	0.6632	-1.626
Mof_O 	O 	0.0554	0.3322	0.6696	-1.461
Mof_O 	O 	0.0266	0.17	0.618	-1.504
Mof_O 	O 	0.1065	0.2829	0.6705	-2.05
Mof_O 	O 	0.0734	0.3004	0.6339	-1.973
Mof_O 	O 	0.0305	0.2883	0.6587	-1.556
Mof_O 	O 	0.0279	0.3217	0.6275	-1.122
Mof_Al	Al	0.1338	0.7195	0.1701	5.574
Mof_Al	Al	0.0384	0.6888	0.1442	4.905
Mof_Al	Al	0.0953	0.7776	0.1384	7.192
Mof_P 	P 	0.0888	0.7189	0.1296	1.392
Mof_P 	P 	0.1347	0.7792	0.1838	1.382
Mof_P 	P 	0.046	0.8117	0.1483	1.102
Mof_O 	O 	0.0809	0.7496	0.1261	-1.999
Mof_O 	O 	0.1141	0.713	0.1127	-2.408
Mof_O 	O 	0.1017	0.7187	0.1591	-1.82
Mof_O 	O 	0.0659	0.7012	0.1288	-1.484
Mof_O 	O 	0.1351	0.7468	0.1907	-1.487
Mof_O 	O 	0.1346	0.8004	0.2029	-1.59
Mof_O 	O 	0.1573	0.7819	0.1635	-2.01
Mof_O 	O 	0.0283	0.7141	0.1632	-1.626
Mof_O 	O 	0.0554	0.8322	0.1696	-1.461
Mof_O 	O 	0.0266	0.67	0.118	-1.504
Mof_O 	O 	0.1065	0.7829	0.1705	-2.05
Mof_O 	O 	0.0734	0.8004	0.1339	-1.973
Mof_O 	O 	0.0305	0.7883	0.1587	-1.556
Mof_O 	O 	0.0279	0.8217	0.1275	-1.122
Mof_Al	Al	0.6338	0.7805	0.8299	5.574
Mof_Al	Al	0.5384	0.8112	0.8558	4.91
Mof_Al	Al	0.5953	0.7224	0.8616	7.193
Mof_P 	P 	0.5888	0.7811	0.8704	1.393
Mof_P 	P 	0.6347	0.7208	0.8162	1.382
Mof_P 	P 	0.546	0.6883	0.8517	1.103
Mof_O 	O 	0.5809	0.7504	0.8739	-1.999
Mof_O 	O 	0.6141	0.787	0.8873	-2.408
Mof_O 	O 	0.6017	0.7813	0.8409	-1.82
Mof_O 	O 	0.5659	0.7988	0.8712	-1.485
Mof_O 	O 	0.6351	0.7532	0.8093	-1.487
Mof_O 	O 	0.6346	0.6996	0.7971	-1.59
Mof_O 	O 	0.6573	0.7181	0.8365	-2.01
Mof_O 	O 	0.5283	0.7859	0.8368	-1.628
Mof_O 	O 	0.5554	0.6678	0.8304	-1.462
Mof_O 	O 	0.5266	0.83	0.882	-1.505
Mof_O 	O 	0.6065	0.7171	0.8295	-2.05
Mof_O 	O 	0.5734	0.6996	0.8661	-1.973
Mof_O 	O 	0.5305	0.7117	0.8413	-1.56
Mof_O 	O 	0.5279	0.6783	0.8725	-1.125
Mof_Al	Al	0.6338	0.2805	0.3299	5.574
Mof_Al	Al	0.5384	0.3112	0.3558	4.91
Mof_Al	Al	0.5953	0.2224	0.3616	7.194
Mof_P 	P 	0.5888	0.2811	0.3704	1.393
Mof_P 	P 	0.6347	0.2208	0.3162	1.382
Mof_P 	P 	0.546	0.1883	0.3517	1.103
Mof_O 	O 	0.5809	0.2504	0.3739	-1.999
Mof_O 	O 	0.6141	0.287	0.3873	-2.409
Mof_O 	O 	0.6017	0.2813	0.3409	-1.82
Mof_O 	O 	0.5659	0.2988	0.3712	-1.485
Mof_O 	O 	0.6351	0.2532	0.3093	-1.487
Mof_O 	O 	0.6346	0.1996	0.2971	-1.59
Mof_O 	O 	0.6573	0.2181	0.3365	-2.01
Mof_O 	O 	0.5283	0.2859	0.3368	-1.628
Mof_O 	O 	0.5554	0.1678	0.3304	-1.462
Mof_O 	O 	0.5266	0.33	0.382	-1.505
Mof_O 	O 	0.6065	0.2171	0.3295	-2.05
Mof_O 	O 	0.5734	0.1996	0.3661	-1.973
Mof_O 	O 	0.5305	0.2117	0.3413	-1.56
Mof_O 	O 	0.5279	0.1783	0.3725	-1.125
Mof_Al	Al	0.1338	0.7805	0.3299	5.574
Mof_Al	Al	0.0384	0.8112	0.3558	4.905
Mof_Al	Al	0.0953	0.7224	0.3616	7.192
Mof_P 	P 	0.0888	0.7811	0.3704	1.392
Mof_P 	P 	0.1347	0.7208	0.3162	1.382
Mof_P 	P 	0.046	0.6883	0.3517	1.102
Mof_O 	O 	0.0809	0.7504	0.3739	-1.999
Mof_O 	O 	0.1141	0.787	0.3873	-2.409
Mof_O 	O 	0.1017	0.7813	0.3409	-1.82
Mof_O 	O 	0.0659	0.7988	0.3712	-1.484
Mof_O 	O 	0.1351	0.7532	0.3093	-1.487
Mof_O 	O 	0.1346	0.6996	0.2971	-1.59
Mof_O 	O 	0.1573	0.7181	0.3365	-2.01
Mof_O 	O 	0.0283	0.7859	0.3368	-1.626
Mof_O 	O 	0.0554	0.6678	0.3304	-1.461
Mof_O 	O 	0.0266	0.83	0.382	-1.504
Mof_O 	O 	0.1065	0.7171	0.3295	-2.05
Mof_O 	O 	0.0734	0.6996	0.3661	-1.973
Mof_O 	O 	0.0305	0.7117	0.3413	-1.556
Mof_O 	O 	0.0279	0.6783	0.3725	-1.122
Mof_Al	Al	0.1338	0.2805	0.8299	5.574
Mof_Al	Al	0.0384	0.3112	0.8558	4.906
Mof_Al	Al	0.0953	0.2224	0.8616	7.193
Mof_P 	P 	0.0888	0.2811	0.8704	1.393
Mof_P 	P 	0.1347	0.2208	0.8162	1.382
Mof_P 	P 	0.046	0.1883	0.8517	1.102
Mof_O 	O 	0.0809	0.2504	0.8739	-1.999
Mof_O 	O 	0.1141	0.287	0.8873	-2.408
Mof_O 	O 	0.1017	0.2813	0.8409	-1.82
Mof_O 	O 	0.0659	0.2988	0.8712	-1.484
Mof_O 	O 	0.1351	0.2532	0.8093	-1.487
Mof_O 	O 	0.1346	0.1996	0.7971	-1.59
Mof_O 	O 	0.1573	0.2181	0.8365	-2.01
Mof_O 	O 	0.0283	0.2859	0.8368	-1.626
Mof_O 	O 	0.0554	0.1678	0.8304	-1.461
Mof_O 	O 	0.0266	0.33	0.882	-1.504
Mof_O 	O 	0.1065	0.2171	0.8295	-2.05
Mof_O 	O 	0.0734	0.1996	0.8661	-1.972
Mof_O 	O 	0.0305	0.2117	0.8413	-1.556
Mof_O 	O 	0.0279	0.1783	0.8725	-1.122
Mof_Al	Al	0.3662	0.7805	0.1701	5.574
Mof_Al	Al	0.4616	0.8112	0.1442	4.91
Mof_Al	Al	0.4047	0.7224	0.1384	7.193
Mof_P 	P 	0.4112	0.7811	0.1296	1.393
Mof_P 	P 	0.3653	0.7208	0.1838	1.382
Mof_P 	P 	0.454	0.6883	0.1483	1.103
Mof_O 	O 	0.4191	0.7504	0.1261	-1.999
Mof_O 	O 	0.3859	0.787	0.1127	-2.408
Mof_O 	O 	0.3983	0.7813	0.1591	-1.82
Mof_O 	O 	0.4341	0.7988	0.1288	-1.485
Mof_O 	O 	0.3649	0.7532	0.1907	-1.487
Mof_O 	O 	0.3654	0.6996	0.2029	-1.59
Mof_O 	O 	0.3427	0.7181	0.1635	-2.01
Mof_O 	O 	0.4717	0.7859	0.1632	-1.628
Mof_O 	O 	0.4446	0.6678	0.1696	-1.462
Mof_O 	O 	0.4734	0.83	0.118	-1.505
Mof_O 	O 	0.3935	0.7171	0.1705	-2.05
Mof_O 	O 	0.4266	0.6996	0.1339	-1.973
Mof_O 	O 	0.4695	0.7117	0.1587	-1.56
Mof_O 	O 	0.4721	0.6783	0.1275	-1.125
Mof_Al	Al	0.3662	0.2805	0.6701	5.574
Mof_Al	Al	0.4616	0.3112	0.6442	4.91
Mof_Al	Al	0.4047	0.2224	0.6384	7.193
Mof_P 	P 	0.4112	0.2811	0.6296	1.393
Mof_P 	P 	0.3653	0.2208	0.6838	1.382
Mof_P 	P 	0.454	0.1883	0.6483	1.103
Mof_O 	O 	0.4191	0.2504	0.6261	-1.999
Mof_O 	O 	0.3859	0.287	0.6127	-2.409
Mof_O 	O 	0.3983	0.2813	0.6591	-1.82
Mof_O 	O 	0.4341	0.2988	0.6288	-1.485
Mof_O 	O 	0.3649	0.2532	0.6907	-1.487
Mof_O 	O 	0.3654	0.1996	0.7029	-1.59
Mof_O 	O 	0.3427	0.2181	0.6635	-2.01
Mof_O 	O 	0.4717	0.2859	0.6632	-1.628
Mof_O 	O 	0.4446	0.1678	0.6696	-1.462
Mof_O 	O 	0.4734	0.33	0.618	-1.505
Mof_O 	O 	0.3935	0.2171	0.6705	-2.05
Mof_O 	O 	0.4266	0.1996	0.6339	-1.973
Mof_O 	O 	0.4695	0.2117	0.6587	-1.56
Mof_O 	O 	0.4721	0.1783	0.6275	-1.125
Mof_Al	Al	0.8662	0.7805	0.6701	5.574
Mof_Al	Al	0.9616	0.8112	0.6442	4.915
Mof_Al	Al	0.9047	0.7224	0.6384	7.193
Mof_P 	P 	0.9112	0.7811	0.6296	1.393
Mof_P 	P 	0.8653	0.7208	0.6838	1.382
Mof_P 	P 	0.954	0.6883	0.6483	1.102
Mof_O 	O 	0.9191	0.7504	0.6261	-1.998
Mof_O 	O 	0.8859	0.787	0.6127	-2.409
Mof_O 	O 	0.8983	0.7813	0.6591	-1.82
Mof_O 	O 	0.9341	0.7988	0.6288	-1.485
Mof_O 	O 	0.8649	0.7532	0.6907	-1.487
Mof_O 	O 	0.8654	0.6996	0.7029	-1.59
Mof_O 	O 	0.8427	0.7181	0.6635	-2.01
Mof_O 	O 	0.9717	0.7859	0.6632	-1.624
Mof_O 	O 	0.9446	0.6678	0.6696	-1.462
Mof_O 	O 	0.9734	0.83	0.618	-1.502
Mof_O 	O 	0.8935	0.7171	0.6705	-2.05
Mof_O 	O 	0.9266	0.6996	0.6339	-1.972
Mof_O 	O 	0.9695	0.7117	0.6587	-1.553
Mof_O 	O 	0.9721	0.6783	0.6275	-1.118
Mof_Al	Al	0.8662	0.2805	0.1701	5.575
Mof_Al	Al	0.9616	0.3112	0.1442	4.915
Mof_Al	Al	0.9047	0.2224	0.1384	7.194
Mof_P 	P 	0.9112	0.2811	0.1296	1.393
Mof_P 	P 	0.8653	0.2208	0.1838	1.382
Mof_P 	P 	0.954	0.1883	0.1483	1.102
Mof_O 	O 	0.9191	0.2504	0.1261	-1.998
Mof_O 	O 	0.8859	0.287	0.1127	-2.408
Mof_O 	O 	0.8983	0.2813	0.1591	-1.82
Mof_O 	O 	0.9341	0.2988	0.1288	-1.486
Mof_O 	O 	0.8649	0.2532	0.1907	-1.487
Mof_O 	O 	0.8654	0.1996	0.2029	-1.59
Mof_O 	O 	0.8427	0.2181	0.1635	-2.01
Mof_O 	O 	0.9717	0.2859	0.1632	-1.624
Mof_O 	O 	0.9446	0.1678	0.1696	-1.462
Mof_O 	O 	0.9734	0.33	0.118	-1.502
Mof_O 	O 	0.8935	0.2171	0.1705	-2.05
Mof_O 	O 	0.9266	0.1996	0.1339	-1.972
Mof_O 	O 	0.9695	0.2117	0.1587	-1.553
Mof_O 	O 	0.9721	0.1783	0.1275	-1.118
Mof_Al	Al	0.2195	0.1701	0.6338	5.574
Mof_Al	Al	0.1888	0.1442	0.5384	4.91
Mof_Al	Al	0.2776	0.1384	0.5953	7.193
Mof_P 	P 	0.2189	0.1296	0.5888	1.393
Mof_P 	P 	0.2792	0.1838	0.6347	1.382
Mof_P 	P 	0.3117	0.1483	0.546	1.103
Mof_O 	O 	0.2496	0.1261	0.5809	-1.999
Mof_O 	O 	0.213	0.1127	0.6141	-2.408
Mof_O 	O 	0.2187	0.1591	0.6017	-1.82
Mof_O 	O 	0.2012	0.1288	0.5659	-1.485
Mof_O 	O 	0.2468	0.1907	0.6351	-1.487
Mof_O 	O 	0.3004	0.2029	0.6346	-1.59
Mof_O 	O 	0.2819	0.1635	0.6573	-2.01
Mof_O 	O 	0.2141	0.1632	0.5283	-1.628
Mof_O 	O 	0.3322	0.1696	0.5554	-1.462
Mof_O 	O 	0.17	0.118	0.5266	-1.505
Mof_O 	O 	0.2829	0.1705	0.6065	-2.05
Mof_O 	O 	0.3004	0.1339	0.5734	-1.973
Mof_O 	O 	0.2883	0.1587	0.5305	-1.56
Mof_O 	O 	0.3217	0.1275	0.5279	-1.125
Mof_Al	Al	0.2195	0.6701	0.1338	5.574
Mof_Al	Al	0.1888	0.6442	0.0384	4.905
Mof_Al	Al	0.2776	0.6384	0.0953	7.192
Mof_P 	P 	0.2189	0.6296	0.0888	1.392
Mof_P 	P 	0.2792	0.6838	0.1347	1.382
Mof_P 	P 	0.3117	0.6483	0.046	1.102
Mof_O 	O 	0.2496	0.6261	0.0809	-1.999
Mof_O 	O 	0.213	0.6127	0.1141	-2.409
Mof_O 	O 	0.2187	0.6591	0.1017	-1.82
Mof_O 	O 	0.2012	0.6288	0.0659	-1.484
Mof_O 	O 	0.2468	0.6907	0.1351	-1.487
Mof_O 	O 	0.3004	0.7029	0.1346	-1.59
Mof_O 	O 	0.2819	0.6635	0.1573	-2.01
Mof_O 	O 	0.2141	0.6632	0.0283	-1.626
Mof_O 	O 	0.3322	0.6696	0.0554	-1.461
Mof_O 	O 	0.17	0.618	0.0266	-1.504
Mof_O 	O 	0.2829	0.6705	0.1065	-2.05
Mof_O 	O 	0.3004	0.6339	0.0734	-1.973
Mof_O 	O 	0.2883	0.6587	0.0305	-1.556
Mof_O 	O 	0.3217	0.6275	0.0279	-1.122
Mof_Al	Al	0.7195	0.1701	0.1338	5.574
Mof_Al	Al	0.6888	0.1442	0.0384	4.905
Mof_Al	Al	0.7776	0.1384	0.0953	7.192
Mof_P 	P 	0.7189	0.1296	0.0888	1.392
Mof_P 	P 	0.7792	0.1838	0.1347	1.382
Mof_P 	P 	0.8117	0.1483	0.046	1.102
Mof_O 	O 	0.7496	0.1261	0.0809	-1.999
Mof_O 	O 	0.713	0.1127	0.1141	-2.408
Mof_O 	O 	0.7187	0.1591	0.1017	-1.82
Mof_O 	O 	0.7012	0.1288	0.0659	-1.484
Mof_O 	O 	0.7468	0.1907	0.1351	-1.487
Mof_O 	O 	0.8004	0.2029	0.1346	-1.59
Mof_O 	O 	0.7819	0.1635	0.1573	-2.01
Mof_O 	O 	0.7141	0.1632	0.0283	-1.626
Mof_O 	O 	0.8322	0.1696	0.0554	-1.461
Mof_O 	O 	0.67	0.118	0.0266	-1.504
Mof_O 	O 	0.7829	0.1705	0.1065	-2.05
Mof_O 	O 	0.8004	0.1339	0.0734	-1.973
Mof_O 	O 	0.7883	0.1587	0.0305	-1.556
Mof_O 	O 	0.8217	0.1275	0.0279	-1.122
Mof_Al	Al	0.7195	0.6701	0.6338	5.574
Mof_Al	Al	0.6888	0.6442	0.5384	4.91
Mof_Al	Al	0.7776	0.6384	0.5953	7.193
Mof_P 	P 	0.7189	0.6296	0.5888	1.393
Mof_P 	P 	0.7792	0.6838	0.6347	1.382
Mof_P 	P 	0.8117	0.6483	0.546	1.103
Mof_O 	O 	0.7496	0.6261	0.5809	-1.999
Mof_O 	O 	0.713	0.6127	0.6141	-2.409
Mof_O 	O 	0.7187	0.6591	0.6017	-1.82
Mof_O 	O 	0.7012	0.6288	0.5659	-1.485
Mof_O 	O 	0.7468	0.6907	0.6351	-1.487
Mof_O 	O 	0.8004	0.7029	0.6346	-1.59
Mof_O 	O 	0.7819	0.6635	0.6573	-2.01
Mof_O 	O 	0.7141	0.6632	0.5283	-1.628
Mof_O 	O 	0.8322	0.6696	0.5554	-1.462
Mof_O 	O 	0.67	0.618	0.5266	-1.505
Mof_O 	O 	0.7829	0.6705	0.6065	-2.05
Mof_O 	O 	0.8004	0.6339	0.5734	-1.973
Mof_O 	O 	0.7883	0.6587	0.5305	-1.56
Mof_O 	O 	0.8217	0.6275	0.5279	-1.125
Mof_Al	Al	0.2195	0.8299	0.3662	5.574
Mof_Al	Al	0.1888	0.8558	0.4616	4.91
Mof_Al	Al	0.2776	0.8616	0.4047	7.194
Mof_P 	P 	0.2189	0.8704	0.4112	1.393
Mof_P 	P 	0.2792	0.8162	0.3653	1.382
Mof_P 	P 	0.3117	0.8517	0.454	1.103
Mof_O 	O 	0.2496	0.8739	0.4191	-1.999
Mof_O 	O 	0.213	0.8873	0.3859	-2.409
Mof_O 	O 	0.2187	0.8409	0.3983	-1.82
Mof_O 	O 	0.2012	0.8712	0.4341	-1.485
Mof_O 	O 	0.2468	0.8093	0.3649	-1.487
Mof_O 	O 	0.3004	0.7971	0.3654	-1.59
Mof_O 	O 	0.2819	0.8365	0.3427	-2.01
Mof_O 	O 	0.2141	0.8368	0.4717	-1.628
Mof_O 	O 	0.3322	0.8304	0.4446	-1.462
Mof_O 	O 	0.17	0.882	0.4734	-1.505
Mof_O 	O 	0.2829	0.8295	0.3935	-2.05
Mof_O 	O 	0.3004	0.8661	0.4266	-1.973
Mof_O 	O 	0.2883	0.8413	0.4695	-1.56
Mof_O 	O 	0.3217	0.8725	0.4721	-1.125
Mof_Al	Al	0.2195	0.3299	0.8662	5.575
Mof_Al	Al	0.1888	0.3558	0.9616	4.915
Mof_Al	Al	0.2776	0.3616	0.9047	7.194
Mof_P 	P 	0.2189	0.3704	0.9112	1.393
Mof_P 	P 	0.2792	0.3162	0.8653	1.382
Mof_P 	P 	0.3117	0.3517	0.954	1.102
Mof_O 	O 	0.2496	0.3739	0.9191	-1.998
Mof_O 	O 	0.213	0.3873	0.8859	-2.409
Mof_O 	O 	0.2187	0.3409	0.8983	-1.82
Mof_O 	O 	0.2012	0.3712	0.9341	-1.486
Mof_O 	O 	0.2468	0.3093	0.8649	-1.487
Mof_O 	O 	0.3004	0.2971	0.8654	-1.59
Mof_O 	O 	0.2819	0.3365	0.8427	-2.01
Mof_O 	O 	0.2141	0.3368	0.9717	-1.624
Mof_O 	O 	0.3322	0.3304	0.9446	-1.462
Mof_O 	O 	0.17	0.382	0.9734	-1.502
Mof_O 	O 	0.2829	0.3295	0.8935	-2.05
Mof_O 	O 	0.3004	0.3661	0.9266	-1.972
Mof_O 	O 	0.2883	0.3413	0.9695	-1.553
Mof_O 	O 	0.3217	0.3725	0.9721	-1.118
Mof_Al	Al	0.7195	0.8299	0.8662	5.574
Mof_Al	Al	0.6888	0.8558	0.9616	4.915
Mof_Al	Al	0.7776	0.8616	0.9047	7.193
Mof_P 	P 	0.7189	0.8704	0.9112	1.393
Mof_P 	P 	0.7792	0.8162	0.8653	1.382
Mof_P 	P 	0.8117	0.8517	0.954	1.102
Mof_O 	O 	0.7496	0.8739	0.9191	-1.998
Mof_O 	O 	0.713	0.8873	0.8859	-2.408
Mof_O 	O 	0.7187	0.8409	0.8983	-1.82
Mof_O 	O 	0.7012	0.8712	0.9341	-1.485
Mof_O 	O 	0.7468	0.8093	0.8649	-1.487
Mof_O 	O 	0.8004	0.7971	0.8654	-1.59
Mof_O 	O 	0.7819	0.8365	0.8427	-2.01
Mof_O 	O 	0.7141	0.8368	0.9717	-1.624
Mof_O 	O 	0.8322	0.8304	0.9446	-1.462
Mof_O 	O 	0.67	0.882	0.9734	-1.501
Mof_O 	O 	0.7829	0.8295	0.8935	-2.05
Mof_O 	O 	0.8004	0.8661	0.9266	-1.972
Mof_O 	O 	0.7883	0.8413	0.9695	-1.553
Mof_O 	O 	0.8217	0.8725	0.9721	-1.118
Mof_Al	Al	0.7195	0.3299	0.3662	5.574
Mof_Al	Al	0.6888	0.3558	0.4616	4.91
Mof_Al	Al	0.7776	0.3616	0.4047	7.193
Mof_P 	P 	0.7189	0.3704	0.4112	1.393
Mof_P 	P 	0.7792	0.3162	0.3653	1.382
Mof_P 	P 	0.8117	0.3517	0.454	1.103
Mof_O 	O 	0.7496	0.3739	0.4191	-1.999
Mof_O 	O 	0.713	0.3873	0.3859	-2.409
Mof_O 	O 	0.7187	0.3409	0.3983	-1.82
Mof_O 	O 	0.7012	0.3712	0.4341	-1.485
Mof_O 	O 	0.7468	0.3093	0.3649	-1.487
Mof_O 	O 	0.8004	0.2971	0.3654	-1.59
Mof_O 	O 	0.7819	0.3365	0.3427	-2.01
Mof_O 	O 	0.7141	0.3368	0.4717	-1.628
Mof_O 	O 	0.8322	0.3304	0.4446	-1.462
Mof_O 	O 	0.67	0.382	0.4734	-1.505
Mof_O 	O 	0.7829	0.3295	0.3935	-2.05
Mof_O 	O 	0.8004	0.3661	0.4266	-1.973
Mof_O 	O 	0.7883	0.3413	0.4695	-1.56
Mof_O 	O 	0.8217	0.3725	0.4721	-1.125
Mof_Al	Al	0.7805	0.1701	0.3662	5.574
Mof_Al	Al	0.8112	0.1442	0.4616	4.91
Mof_Al	Al	0.7224	0.1384	0.4047	7.193
Mof_P 	P 	0.7811	0.1296	0.4112	1.393
Mof_P 	P 	0.7208	0.1838	0.3653	1.382
Mof_P 	P 	0.6883	0.1483	0.454	1.103
Mof_O 	O 	0.7504	0.1261	0.4191	-1.999
Mof_O 	O 	0.787	0.1127	0.3859	-2.408
Mof_O 	O 	0.7813	0.1591	0.3983	-1.82
Mof_O 	O 	0.7988	0.1288	0.4341	-1.485
Mof_O 	O 	0.7532	0.1907	0.3649	-1.487
Mof_O 	O 	0.6996	0.2029	0.3654	-1.59
Mof_O 	O 	0.7181	0.1635	0.3427	-2.01
Mof_O 	O 	0.7859	0.1632	0.4717	-1.628
Mof_O 	O 	0.6678	0.1696	0.4446	-1.462
Mof_O 	O 	0.83	0.118	0.4734	-1.505
Mof_O 	O 	0.7171	0.1705	0.3935	-2.05
Mof_O 	O 	0.6996	0.1339	0.4266	-1.973
Mof_O 	O 	0.7117	0.1587	0.4695	-1.56
Mof_O 	O 	0.6783	0.1275	0.4721	-1.125
Mof_Al	Al	0.7805	0.6701	0.8662	5.574
Mof_Al	Al	0.8112	0.6442	0.9616	4.915
Mof_Al	Al	0.7224	0.6384	0.9047	7.193
Mof_P 	P 	0.7811	0.6296	0.9112	1.393
Mof_P 	P 	0.7208	0.6838	0.8653	1.382
Mof_P 	P 	0.6883	0.6483	0.954	1.102
Mof_O 	O 	0.7504	0.6261	0.9191	-1.998
Mof_O 	O 	0.787	0.6127	0.8859	-2.409
Mof_O 	O 	0.7813	0.6591	0.8983	-1.82
Mof_O 	O 	0.7988	0.6288	0.9341	-1.485
Mof_O 	O 	0.7532	0.6907	0.8649	-1.487
Mof_O 	O 	0.6996	0.7029	0.8654	-1.59
Mof_O 	O 	0.7181	0.6635	0.8427	-2.01
Mof_O 	O 	0.7859	0.6632	0.9717	-1.624
Mof_O 	O 	0.6678	0.6696	0.9446	-1.462
Mof_O 	O 	0.83	0.618	0.9734	-1.502
Mof_O 	O 	0.7171	0.6705	0.8935	-2.05
Mof_O 	O 	0.6996	0.6339	0.9266	-1.972
Mof_O 	O 	0.7117	0.6587	0.9695	-1.553
Mof_O 	O 	0.6783	0.6275	0.9721	-1.118
Mof_Al	Al	0.2805	0.1701	0.8662	5.575
Mof_Al	Al	0.3112	0.1442	0.9616	4.915
Mof_Al	Al	0.2224	0.1384	0.9047	7.194
Mof_P 	P 	0.2811	0.1296	0.9112	1.393
Mof_P 	P 	0.2208	0.1838	0.8653	1.382
Mof_P 	P 	0.1883	0.1483	0.954	1.102
Mof_O 	O 	0.2504	0.1261	0.9191	-1.998
Mof_O 	O 	0.287	0.1127	0.8859	-2.408
Mof_O 	O 	0.2813	0.1591	0.8983	-1.82
Mof_O 	O 	0.2988	0.1288	0.9341	-1.486
Mof_O 	O 	0.2532	0.1907	0.8649	-1.487
Mof_O 	O 	0.1996	0.2029	0.8654	-1.59
Mof_O 	O 	0.2181	0.1635	0.8427	-2.01
Mof_O 	O 	0.2859	0.1632	0.9717	-1.624
Mof_O 	O 	0.1678	0.1696	0.9446	-1.462
Mof_O 	O 	0.33	0.118	0.9734	-1.502
Mof_O 	O 	0.2171	0.1705	0.8935	-2.05
Mof_O 	O 	0.1996	0.1339	0.9266	-1.972
Mof_O 	O 	0.2117	0.1587	0.9695	-1.553
Mof_O 	O 	0.1783	0.1275	0.9721	-1.118
Mof_Al	Al	0.2805	0.6701	0.3662	5.574
Mof_Al	Al	0.3112	0.6442	0.4616	4.91
Mof_Al	Al	0.2224	0.6384	0.4047	7.193
Mof_P 	P 	0.2811	0.6296	0.4112	1.393
Mof_P 	P 	0.2208	0.6838	0.3653	1.382
Mof_P 	P 	0.1883	0.6483	0.454	1.103
Mof_O 	O 	0.2504	0.6261	0.4191	-1.999
Mof_O 	O 	0.287	0.6127	0.3859	-2.409
Mof_O 	O 	0.2813	0.6591	0.3983	-1.82
Mof_O 	O 	0.2988	0.6288	0.4341	-1.485
Mof_O 	O 	0.2532	0.6907	0.3649	-1.487
Mof_O 	O 	0.1996	0.7029	0.3654	-1.59
Mof_O 	O 	0.2181	0.6635	0.3427	-2.01
Mof_O 	O 	0.2859	0.6632	0.4717	-1.628
Mof_O 	O 	0.1678	0.6696	0.4446	-1.462
Mof_O 	O 	0.33	0.618	0.4734	-1.505
Mof_O 	O 	0.2171	0.6705	0.3935	-2.05
Mof_O 	O 	0.1996	0.6339	0.4266	-1.973
Mof_O 	O 	0.2117	0.6587	0.4695	-1.56
Mof_O 	O 	0.1783	0.6275	0.4721	-1.125
Mof_Al	Al	0.7805	0.8299	0.6338	5.574
Mof_Al	Al	0.8112	0.8558	0.5384	4.91
Mof_Al	Al	0.7224	0.8616	0.5953	7.193
Mof_P 	P 	0.7811	0.8704	0.5888	1.393
Mof_P 	P 	0.7208	0.8162	0.6347	1.382
Mof_P 	P 	0.6883	0.8517	0.546	1.103
Mof_O 	O 	0.7504	0.8739	0.5809	-1.999
Mof_O 	O 	0.787	0.8873	0.6141	-2.408
Mof_O 	O 	0.7813	0.8409	0.6017	-1.82
Mof_O 	O 	0.7988	0.8712	0.5659	-1.485
Mof_O 	O 	0.7532	0.8093	0.6351	-1.487
Mof_O 	O 	0.6996	0.7971	0.6346	-1.59
Mof_O 	O 	0.7181	0.8365	0.6573	-2.01
Mof_O 	O 	0.7859	0.8368	0.5283	-1.628
Mof_O 	O 	0.6678	0.8304	0.5554	-1.462
Mof_O 	O 	0.83	0.882	0.5266	-1.505
Mof_O 	O 	0.7171	0.8295	0.6065	-2.05
Mof_O 	O 	0.6996	0.8661	0.5734	-1.973
Mof_O 	O 	0.7117	0.8413	0.5305	-1.56
Mof_O 	O 	0.6783	0.8725	0.5279	-1.125
Mof_Al	Al	0.7805	0.3299	0.1338	5.574
Mof_Al	Al	0.8112	0.3558	0.0384	4.905
Mof_Al	Al	0.7224	0.3616	0.0953	7.192
Mof_P 	P 	0.7811	0.3704	0.0888	1.392
Mof_P 	P 	0.7208	0.3162	0.1347	1.382
Mof_P 	P 	0.6883	0.3517	0.046	1.102
Mof_O 	O 	0.7504	0.3739	0.0809	-1.999
Mof_O 	O 	0.787	0.3873	0.1141	-2.409
Mof_O 	O 	0.7813	0.3409	0.1017	-1.82
Mof_O 	O 	0.7988	0.3712	0.0659	-1.484
Mof_O 	O 	0.7532	0.3093	0.1351	-1.487
Mof_O 	O 	0.6996	0.2971	0.1346	-1.59
Mof_O 	O 	0.7181	0.3365	0.1573	-2.01
Mof_O 	O 	0.7859	0.3368	0.0283	-1.626
Mof_O 	O 	0.6678	0.3304	0.0554	-1.461
Mof_O 	O 	0.83	0.382	0.0266	-1.504
Mof_O 	O 	0.7171	0.3295	0.1065	-2.05
Mof_O 	O 	0.6996	0.3661	0.0734	-1.973
Mof_O 	O 	0.7117	0.3413	0.0305	-1.556
Mof_O 	O 	0.6783	0.3725	0.0279	-1.122
Mof_Al	Al	0.2805	0.8299	0.1338	5.574
Mof_Al	Al	0.3112	0.8558	0.0384	4.906
Mof_Al	Al	0.2224	0.8616	0.0953	7.193
Mof_P 	P 	0.2811	0.8704	0.0888	1.393
Mof_P 	P 	0.2208	0.8162	0.1347	1.382
Mof_P 	P 	0.1883	0.8517	0.046	1.102
Mof_O 	O 	0.2504	0.8739	0.0809	-1.999
Mof_O 	O 	0.287	0.8873	0.1141	-2.408
Mof_O 	O 	0.2813	0.8409	0.1017	-1.82
Mof_O 	O 	0.2988	0.8712	0.0659	-1.484
Mof_O 	O 	0.2532	0.8093	0.1351	-1.487
Mof_O 	O 	0.1996	0.7971	0.1346	-1.59
Mof_O 	O 	0.2181	0.8365	0.1573	-2.01
Mof_O 	O 	0.2859	0.8368	0.0283	-1.626
Mof_O 	O 	0.1678	0.8304	0.0554	-1.461
Mof_O 	O 	0.33	0.882	0.0266	-1.504
Mof_O 	O 	0.2171	0.8295	0.1065	-2.05
Mof_O 	O 	0.1996	0.8661	0.0734	-1.972
Mof_O 	O 	0.2117	0.8413	0.0305	-1.556
Mof_O 	O 	0.1783	0.8725	0.0279	-1.122
Mof_Al	Al	0.2805	0.3299	0.6338	5.574
Mof_Al	Al	0.3112	0.3558	0.5384	4.91
Mof_Al	Al	0.2224	0.3616	0.5953	7.194
Mof_P 	P 	0.2811	0.3704	0.5888	1.393
Mof_P 	P 	0.2208	0.3162	0.6347	1.382
Mof_P 	P 	0.1883	0.3517	0.546	1.103
Mof_O 	O 	0.2504	0.3739	0.5809	-1.999
Mof_O 	O 	0.287	0.3873	0.6141	-2.409
Mof_O 	O 	0.2813	0.3409	0.6017	-1.82
Mof_O 	O 	0.2988	0.3712	0.5659	-1.485
Mof_O 	O 	0.2532	0.3093	0.6351	-1.487
Mof_O 	O 	0.1996	0.2971	0.6346	-1.59
Mof_O 	O 	0.2181	0.3365	0.6573	-2.01
Mof_O 	O 	0.2859	0.3368	0.5283	-1.628
Mof_O 	O 	0.1678	0.3304	0.5554	-1.462
Mof_O 	O 	0.33	0.382	0.5266	-1.505
Mof_O 	O 	0.2171	0.3295	0.6065	-2.05
Mof_O 	O 	0.1996	0.3661	0.5734	-1.973
Mof_O 	O 	0.2117	0.3413	0.5305	-1.56
Mof_O 	O 	0.1783	0.3725	0.5279	-1.125
Mof_Al	Al	2.30285e-33	0.3238	0.2167	5.254
Mof_Al	Al	5.94655e-34	0.3796	0.1586	2.567
Mof_P 	P 	4.02229e-33	0.3223	0.2778	1.056
Mof_P 	P 	1.02338e-32	0.39	0.3445	0.749
Mof_O 	O 	6.89201e-33	0.3211	0.2482	-1.678
Mof_O 	O 	4.07178e-33	0.2941	0.291	-1.529
Mof_O 	O 	1.3944e-33	0.3744	0.3719	-1.037
Mof_O 	O 	7.27708e-33	0.4202	0.3509	-0.32
Mof_Al	Al	8.64861e-33	0.8238	0.7167	5.253
Mof_Al	Al	2.46935e-33	0.8796	0.6586	2.57
Mof_P 	P 	-3.04513e-33	0.8223	0.7778	1.056
Mof_P 	P 	2.10506e-32	0.89	0.8445	0.749
Mof_O 	O 	8.76671e-33	0.8211	0.7482	-1.678
Mof_O 	O 	2.085e-32	0.7941	0.791	-1.53
Mof_O 	O 	2.71148e-32	0.8744	0.8719	-1.037
Mof_O 	O 	2.7036e-32	0.9202	0.8509	-0.318
Mof_Al	Al	0.5	0.3238	0.7167	5.272
Mof_Al	Al	0.5	0.3796	0.6586	2.582
Mof_P 	P 	0.5	0.3223	0.7778	1.061
Mof_P 	P 	0.5	0.39	0.8445	0.753
Mof_O 	O 	0.5	0.3211	0.7482	-1.682
Mof_O 	O 	0.5	0.2941	0.791	-1.533
Mof_O 	O 	0.5	0.3744	0.8719	-1.039
Mof_O 	O 	0.5	0.4202	0.8509	-0.318
Mof_Al	Al	0.5	0.8238	0.2167	5.272
Mof_Al	Al	0.5	0.8796	0.1586	2.584
Mof_P 	P 	0.5	0.8223	0.2778	1.061
Mof_P 	P 	0.5	0.89	0.3445	0.753
Mof_O 	O 	0.5	0.8211	0.2482	-1.682
Mof_O 	O 	0.5	0.7941	0.291	-1.533
Mof_O 	O 	0.5	0.8744	0.3719	-1.039
Mof_O 	O 	0.5	0.9202	0.3509	-0.317
Mof_Al	Al	8.26426e-33	0.6762	0.2167	5.254
Mof_Al	Al	5.94655e-34	0.6204	0.1586	2.567
Mof_P 	P 	-7.90054e-33	0.6777	0.2778	1.056
Mof_P 	P 	1.29167e-33	0.61	0.3445	0.749
Mof_O 	O 	-2.05011e-33	0.6789	0.2482	-1.678
Mof_O 	O 	7.05249e-33	0.7059	0.291	-1.529
Mof_O 	O 	7.35582e-33	0.6256	0.3719	-1.037
Mof_O 	O 	1.32385e-32	0.5798	0.3509	-0.32
Mof_Al	Al	2.68719e-33	0.1762	0.7167	5.253
Mof_Al	Al	2.46935e-33	0.1204	0.6586	2.567
Mof_P 	P 	2.91628e-33	0.1777	0.7778	1.056
Mof_P 	P 	9.12778e-33	0.11	0.8445	0.749
Mof_O 	O 	2.8053e-33	0.1789	0.7482	-1.678
Mof_O 	O 	1.48886e-32	0.2059	0.791	-1.529
Mof_O 	O 	9.23051e-33	0.1256	0.8719	-1.037
Mof_O 	O 	3.19036e-33	0.0798	0.8509	-0.32
Mof_Al	Al	0.5	0.6762	0.7167	5.272
Mof_Al	Al	0.5	0.6204	0.6586	2.582
Mof_P 	P 	0.5	0.6777	0.7778	1.061
Mof_P 	P 	0.5	0.61	0.8445	0.753
Mof_O 	O 	0.5	0.6789	0.7482	-1.682
Mof_O 	O 	0.5	0.7059	0.791	-1.533
Mof_O 	O 	0.5	0.6256	0.8719	-1.039
Mof_O 	O 	0.5	0.5798	0.8509	-0.318
Mof_Al	Al	0.5	0.1762	0.2167	5.272
Mof_Al	Al	0.5	0.1204	0.1586	2.581
Mof_P 	P 	0.5	0.1777	0.2778	1.061
Mof_P 	P 	0.5	0.11	0.3445	0.752
Mof_O 	O 	0.5	0.1789	0.2482	-1.682
Mof_O 	O 	0.5	0.2059	0.291	-1.533
Mof_O 	O 	0.5	0.1256	0.3719	-1.039
Mof_O 	O 	0.5	0.0798	0.3509	-0.319
Mof_Al	Al	-3.02451e-33	0.3238	0.7833	5.253
Mof_Al	Al	3.15474e-33	0.3796	0.8414	2.568
Mof_P 	P 	-3.2536e-33	0.3223	0.7222	1.056
Mof_P 	P 	-3.50368e-33	0.39	0.6555	0.749
Mof_O 	O 	8.78021e-33	0.3211	0.7518	-1.678
Mof_O 	O 	2.65832e-33	0.2941	0.709	-1.529
Mof_O 	O 	2.355e-33	0.3744	0.6281	-1.037
Mof_O 	O 	2.43374e-33	0.4202	0.6491	-0.32
Mof_Al	Al	-7.87992e-33	0.8238	0.2833	5.254
Mof_Al	Al	1.28004e-33	0.8796	0.3414	2.57
Mof_P 	P 	3.81382e-33	0.8223	0.2222	1.057
Mof_P 	P 	-3.88803e-33	0.89	0.1555	0.749
Mof_O 	O 	6.90551e-33	0.8211	0.2518	-1.678
Mof_O 	O 	8.23539e-33	0.7941	0.209	-1.529
Mof_O 	O 	-5.48112e-33	0.8744	0.1281	-1.037
Mof_O 	O 	1.24819e-32	0.9202	0.1491	-0.318
Mof_Al	Al	0.5	0.3238	0.2833	5.272
Mof_Al	Al	0.5	0.3796	0.3414	2.582
Mof_P 	P 	0.5	0.3223	0.2222	1.061
Mof_P 	P 	0.5	0.39	0.1555	0.752
Mof_O 	O 	0.5	0.3211	0.2518	-1.682
Mof_O 	O 	0.5	0.2941	0.209	-1.533
Mof_O 	O 	0.5	0.3744	0.1281	-1.039
Mof_O 	O 	0.5	0.4202	0.1491	-0.319
Mof_Al	Al	0.5	0.8238	0.7833	5.272
Mof_Al	Al	0.5	0.8796	0.8414	2.585
Mof_P 	P 	0.5	0.8223	0.7222	1.061
Mof_P 	P 	0.5	0.89	0.6555	0.753
Mof_O 	O 	0.5	0.8211	0.7518	-1.682
Mof_O 	O 	0.5	0.7941	0.709	-1.533
Mof_O 	O 	0.5	0.8744	0.6281	-1.039
Mof_O 	O 	0.5	0.9202	0.6491	-0.317
Mof_Al	Al	8.89832e-33	0.6762	0.7833	5.253
Mof_Al	Al	3.15474e-33	0.6204	0.8414	2.568
Mof_P 	P 	-3.2536e-33	0.6777	0.7222	1.056
Mof_P 	P 	2.45773e-33	0.61	0.6555	0.749
Mof_O 	O 	2.8188e-33	0.6789	0.7518	-1.678
Mof_O 	O 	-3.30309e-33	0.7059	0.709	-1.529
Mof_O 	O 	2.355e-33	0.6256	0.6281	-1.037
Mof_O 	O 	2.43374e-33	0.5798	0.6491	-0.32
Mof_Al	Al	-1.9185e-33	0.1762	0.2833	5.254
Mof_Al	Al	1.28004e-33	0.1204	0.3414	2.567
Mof_P 	P 	3.81382e-33	0.1777	0.2222	1.056
Mof_P 	P 	5.83032e-34	0.11	0.1555	0.749
Mof_O 	O 	9.44099e-34	0.1789	0.2518	-1.678
Mof_O 	O 	2.27398e-33	0.2059	0.209	-1.529
Mof_O 	O 	3.461e-33	0.1256	0.1281	-1.037
Mof_O 	O 	5.59035e-34	0.0798	0.1491	-0.32
Mof_Al	Al	0.5	0.6762	0.2833	5.272
Mof_Al	Al	0.5	0.6204	0.3414	2.582
Mof_P 	P 	0.5	0.6777	0.2222	1.061
Mof_P 	P 	0.5	0.61	0.1555	0.752
Mof_O 	O 	0.5	0.6789	0.2518	-1.682
Mof_O 	O 	0.5	0.7059	0.209	-1.533
Mof_O 	O 	0.5	0.6256	0.1281	-1.039
Mof_O 	O 	0.5	0.5798	0.1491	-0.319
Mof_Al	Al	0.5	0.1762	0.7833	5.272
Mof_Al	Al	0.5	0.1204	0.8414	2.582
Mof_P 	P 	0.5	0.1777	0.7222	1.061
Mof_P 	P 	0.5	0.11	0.6555	0.752
Mof_O 	O 	0.5	0.1789	0.7518	-1.682
Mof_O 	O 	0.5	0.2059	0.709	-1.533
Mof_O 	O 	0.5	0.1256	0.6281	-1.039
Mof_O 	O 	0.5	0.0798	0.6491	-0.319
Mof_Al	Al	0.2167	0	0.3238	5.254
Mof_Al	Al	0.1586	-2.98071e-33	0.3796	2.567
Mof_P 	P 	0.2778	-2.98071e-33	0.3223	1.056
Mof_P 	P 	0.3445	-5.96141e-33	0.39	0.749
Mof_O 	O 	0.2482	0	0.3211	-1.678
Mof_O 	O 	0.291	0	0.2941	-1.529
Mof_O 	O 	0.3719	0	0.3744	-1.037
Mof_O 	O 	0.3509	0	0.4202	-0.32
Mof_Al	Al	0.2167	0.5	0.8238	5.272
Mof_Al	Al	0.1586	0.5	0.8796	2.584
Mof_P 	P 	0.2778	0.5	0.8223	1.061
Mof_P 	P 	0.3445	0.5	0.89	0.753
Mof_O 	O 	0.2482	0.5	0.8211	-1.682
Mof_O 	O 	0.291	0.5	0.7941	-1.533
Mof_O 	O 	0.3719	0.5	0.8744	-1.039
Mof_O 	O 	0.3509	0.5	0.9202	-0.317
Mof_Al	Al	0.7167	-1.19228e-32	0.8238	5.253
Mof_Al	Al	0.6586	-1.19228e-32	0.8796	2.57
Mof_P 	P 	0.7778	-1.19228e-32	0.8223	1.056
Mof_P 	P 	0.8445	-1.19228e-32	0.89	0.749
Mof_O 	O 	0.7482	-5.96141e-33	0.8211	-1.678
Mof_O 	O 	0.791	0	0.7941	-1.53
Mof_O 	O 	0.8719	-5.96141e-33	0.8744	-1.037
Mof_O 	O 	0.8509	0	0.9202	-0.318
Mof_Al	Al	0.7167	0.5	0.3238	5.272
Mof_Al	Al	0.6586	0.5	0.3796	2.582
Mof_P 	P 	0.7778	0.5	0.3223	1.061
Mof_P 	P 	0.8445	0.5	0.39	0.753
Mof_O 	O 	0.7482	0.5	0.3211	-1.682
Mof_O 	O 	0.791	0.5	0.2941	-1.533
Mof_O 	O 	0.8719	0.5	0.3744	-1.039
Mof_O 	O 	0.8509	0.5	0.4202	-0.318
Mof_Al	Al	0.2167	5.96141e-33	0.6762	5.254
Mof_Al	Al	0.1586	0	0.6204	2.567
Mof_P 	P 	0.2778	0	0.6777	1.056
Mof_P 	P 	0.3445	0	0.61	0.749
Mof_O 	O 	0.2482	-5.96141e-33	0.6789	-1.678
Mof_O 	O 	0.291	0	0.7059	-1.529
Mof_O 	O 	0.3719	5.96141e-33	0.6256	-1.037
Mof_O 	O 	0.3509	-5.96141e-33	0.5798	-0.32
Mof_Al	Al	0.2167	0.5	0.1762	5.272
Mof_Al	Al	0.1586	0.5	0.1204	2.581
Mof_P 	P 	0.2778	0.5	0.1777	1.061
Mof_P 	P 	0.3445	0.5	0.11	0.752
Mof_O 	O 	0.2482	0.5	0.1789	-1.682
Mof_O 	O 	0.291	0.5	0.2059	-1.533
Mof_O 	O 	0.3719	0.5	0.1256	-1.039
Mof_O 	O 	0.3509	0.5	0.0798	-0.319
Mof_Al	Al	0.7167	-1.49035e-33	0.1762	5.253
Mof_Al	Al	0.6586	0	0.1204	2.567
Mof_P 	P 	0.7778	-1.49035e-33	0.1777	1.056
Mof_P 	P 	0.8445	-1.49035e-33	0.11	0.749
Mof_O 	O 	0.7482	-1.49035e-33	0.1789	-1.678
Mof_O 	O 	0.791	0	0.2059	-1.529
Mof_O 	O 	0.8719	0	0.1256	-1.037
Mof_O 	O 	0.8509	0	0.0798	-0.32
Mof_Al	Al	0.7167	0.5	0.6762	5.272
Mof_Al	Al	0.6586	0.5	0.6204	2.582
Mof_P 	P 	0.7778	0.5	0.6777	1.061
Mof_P 	P 	0.8445	0.5	0.61	0.753
Mof_O 	O 	0.7482	0.5	0.6789	-1.682
Mof_O 	O 	0.791	0.5	0.7059	-1.533
Mof_O 	O 	0.8719	0.5	0.6256	-1.039
Mof_O 	O 	0.8509	0.5	0.5798	-0.318
Mof_Al	Al	0.7833	0	0.3238	5.253
Mof_Al	Al	0.8414	-2.98071e-33	0.3796	2.568
Mof_P 	P 	0.7222	-2.98071e-33	0.3223	1.056
Mof_P 	P 	0.6555	-5.96141e-33	0.39	0.749
Mof_O 	O 	0.7518	0	0.3211	-1.678
Mof_O 	O 	0.709	0	0.2941	-1.529
Mof_O 	O 	0.6281	0	0.3744	-1.037
Mof_O 	O 	0.6491	0	0.4202	-0.32
Mof_Al	Al	0.7833	0.5	0.8238	5.272
Mof_Al	Al	0.8414	0.5	0.8796	2.585
Mof_P 	P 	0.7222	0.5	0.8223	1.061
Mof_P 	P 	0.6555	0.5	0.89	0.753
Mof_O 	O 	0.7518	0.5	0.8211	-1.682
Mof_O 	O 	0.709	0.5	0.7941	-1.533
Mof_O 	O 	0.6281	0.5	0.8744	-1.039
Mof_O 	O 	0.6491	0.5	0.9202	-0.317
Mof_Al	Al	0.2833	-1.19228e-32	0.8238	5.254
Mof_Al	Al	0.3414	-1.19228e-32	0.8796	2.57
Mof_P 	P 	0.2222	-1.19228e-32	0.8223	1.057
Mof_P 	P 	0.1555	-1.19228e-32	0.89	0.749
Mof_O 	O 	0.2518	-5.96141e-33	0.8211	-1.678
Mof_O 	O 	0.209	0	0.7941	-1.529
Mof_O 	O 	0.1281	-5.96141e-33	0.8744	-1.037
Mof_O 	O 	0.1491	0	0.9202	-0.318
Mof_Al	Al	0.2833	0.5	0.3238	5.272
Mof_Al	Al	0.3414	0.5	0.3796	2.582
Mof_P 	P 	0.2222	0.5	0.3223	1.061
Mof_P 	P 	0.1555	0.5	0.39	0.752
Mof_O 	O 	0.2518	0.5	0.3211	-1.682
Mof_O 	O 	0.209	0.5	0.2941	-1.533
Mof_O 	O 	0.1281	0.5	0.3744	-1.039
Mof_O 	O 	0.1491	0.5	0.4202	-0.319
Mof_Al	Al	0.7833	5.96141e-33	0.6762	5.253
Mof_Al	Al	0.8414	0	0.6204	2.568
Mof_P 	P 	0.7222	0	0.6777	1.056
Mof_P 	P 	0.6555	0	0.61	0.749
Mof_O 	O 	0.7518	-5.96141e-33	0.6789	-1.678
Mof_O 	O 	0.709	0	0.7059	-1.529
Mof_O 	O 	0.6281	5.96141e-33	0.6256	-1.037
Mof_O 	O 	0.6491	-5.96141e-33	0.5798	-0.32
Mof_Al	Al	0.7833	0.5	0.1762	5.272
Mof_Al	Al	0.8414	0.5	0.1204	2.582
Mof_P 	P 	0.7222	0.5	0.1777	1.061
Mof_P 	P 	0.6555	0.5	0.11	0.752
Mof_O 	O 	0.7518	0.5	0.1789	-1.682
Mof_O 	O 	0.709	0.5	0.2059	-1.533
Mof_O 	O 	0.6281	0.5	0.1256	-1.039
Mof_O 	O 	0.6491	0.5	0.0798	-0.319
Mof_Al	Al	0.2833	-1.49035e-33	0.1762	5.254
Mof_Al	Al	0.3414	0	0.1204	2.567
Mof_P 	P 	0.2222	-1.49035e-33	0.1777	1.056
Mof_P 	P 	0.1555	-1.49035e-33	0.11	0.749
Mof_O 	O 	0.2518	-1.49035e-33	0.1789	-1.678
Mof_O 	O 	0.209	0	0.2059	-1.529
Mof_O 	O 	0.1281	0	0.1256	-1.037
Mof_O 	O 	0.1491	0	0.0798	-0.32
Mof_Al	Al	0.2833	0.5	0.6762	5.272
Mof_Al	Al	0.3414	0.5	0.6204	2.582
Mof_P 	P 	0.2222	0.5	0.6777	1.061
Mof_P 	P 	0.1555	0.5	0.61	0.752
Mof_O 	O 	0.2518	0.5	0.6789	-1.682
Mof_O 	O 	0.209	0.5	0.7059	-1.533
Mof_O 	O 	0.1281	0.5	0.6256	-1.039
Mof_O 	O 	0.1491	0.5	0.5798	-0.319
Mof_Al	Al	0.3238	0.2167	-0	5.254
Mof_Al	Al	0.3796	0.1586	-0	2.567
Mof_P 	P 	0.3223	0.2778	-0	1.056
Mof_P 	P 	0.39	0.3445	-0	0.749
Mof_O 	O 	0.3211	0.2482	-0	-1.678
Mof_O 	O 	0.2941	0.291	-0	-1.529
Mof_O 	O 	0.3744	0.3719	-0	-1.037
Mof_O 	O 	0.4202	0.3509	-0	-0.32
Mof_Al	Al	0.3238	0.7167	0.5	5.272
Mof_Al	Al	0.3796	0.6586	0.5	2.582
Mof_P 	P 	0.3223	0.7778	0.5	1.061
Mof_P 	P 	0.39	0.8445	0.5	0.753
Mof_O 	O 	0.3211	0.7482	0.5	-1.682
Mof_O 	O 	0.2941	0.791	0.5	-1.533
Mof_O 	O 	0.3744	0.8719	0.5	-1.039
Mof_O 	O 	0.4202	0.8509	0.5	-0.318
Mof_Al	Al	0.8238	0.2167	0.5	5.272
Mof_Al	Al	0.8796	0.1586	0.5	2.584
Mof_P 	P 	0.8223	0.2778	0.5	1.061
Mof_P 	P 	0.89	0.3445	0.5	0.753
Mof_O 	O 	0.8211	0.2482	0.5	-1.682
Mof_O 	O 	0.7941	0.291	0.5	-1.533
Mof_O 	O 	0.8744	0.3719	0.5	-1.039
Mof_O 	O 	0.9202	0.3509	0.5	-0.317
Mof_Al	Al	0.8238	0.7167	-0	5.253
Mof_Al	Al	0.8796	0.6586	-0	2.57
Mof_P 	P 	0.8223	0.7778	-0	1.056
Mof_P 	P 	0.89	0.8445	-0	0.749
Mof_O 	O 	0.8211	0.7482	-0	-1.678
Mof_O 	O 	0.7941	0.791	-0	-1.53
Mof_O 	O 	0.8744	0.8719	-0	-1.037
Mof_O 	O 	0.9202	0.8509	-0	-0.318
Mof_Al	Al	0.6762	0.2167	-0	5.254
Mof_Al	Al	0.6204	0.1586	-0	2.567
Mof_P 	P 	0.6777	0.2778	-0	1.056
Mof_P 	P 	0.61	0.3445	-0	0.749
Mof_O 	O 	0.6789	0.2482	-0	-1.678
Mof_O 	O 	0.7059	0.291	-0	-1.529
Mof_O 	O 	0.6256	0.3719	-0	-1.037
Mof_O 	O 	0.5798	0.3509	-0	-0.32
Mof_Al	Al	0.6762	0.7167	0.5	5.272
Mof_Al	Al	0.6204	0.6586	0.5	2.582
Mof_P 	P 	0.6777	0.7778	0.5	1.061
Mof_P 	P 	0.61	0.8445	0.5	0.753
Mof_O 	O 	0.6789	0.7482	0.5	-1.682
Mof_O 	O 	0.7059	0.791	0.5	-1.533
Mof_O 	O 	0.6256	0.8719	0.5	-1.039
Mof_O 	O 	0.5798	0.8509	0.5	-0.318
Mof_Al	Al	0.1762	0.2167	0.5	5.272
Mof_Al	Al	0.1204	0.1586	0.5	2.581
Mof_P 	P 	0.1777	0.2778	0.5	1.061
Mof_P 	P 	0.11	0.3445	0.5	0.752
Mof_O 	O 	0.1789	0.2482	0.5	-1.682
Mof_O 	O 	0.2059	0.291	0.5	-1.533
Mof_O 	O 	0.1256	0.3719	0.5	-1.039
Mof_O 	O 	0.0798	0.3509	0.5	-0.319
Mof_Al	Al	0.1762	0.7167	-0	5.253
Mof_Al	Al	0.1204	0.6586	-0	2.567
Mof_P 	P 	0.1777	0.7778	-0	1.056
Mof_P 	P 	0.11	0.8445	-0	0.749
Mof_O 	O 	0.1789	0.7482	-0	-1.678
Mof_O 	O 	0.2059	0.791	-0	-1.529
Mof_O 	O 	0.1256	0.8719	-0	-1.037
Mof_O 	O 	0.0798	0.8509	-0	-0.32
Mof_Al	Al	0.3238	0.7833	-0	5.253
Mof_Al	Al	0.3796	0.8414	-0	2.568
Mof_P 	P 	0.3223	0.7222	-0	1.056
Mof_P 	P 	0.39	0.6555	-0	0.749
Mof_O 	O 	0.3211	0.7518	-0	-1.678
Mof_O 	O 	0.2941	0.709	-0	-1.529
Mof_O 	O 	0.3744	0.6281	-0	-1.037
Mof_O 	O 	0.4202	0.6491	-0	-0.32
Mof_Al	Al	0.3238	0.2833	0.5	5.272
Mof_Al	Al	0.3796	0.3414	0.5	2.582
Mof_P 	P 	0.3223	0.2222	0.5	1.061
Mof_P 	P 	0.39	0.1555	0.5	0.752
Mof_O 	O 	0.3211	0.2518	0.5	-1.682
Mof_O 	O 	0.2941	0.209	0.5	-1.533
Mof_O 	O 	0.3744	0.1281	0.5	-1.039
Mof_O 	O 	0.4202	0.1491	0.5	-0.319
Mof_Al	Al	0.8238	0.7833	0.5	5.272
Mof_Al	Al	0.8796	0.8414	0.5	2.585
Mof_P 	P 	0.8223	0.7222	0.5	1.061
Mof_P 	P 	0.89	0.6555	0.5	0.753
Mof_O 	O 	0.8211	0.7518	0.5	-1.682
Mof_O 	O 	0.7941	0.709	0.5	-1.533
Mof_O 	O 	0.8744	0.6281	0.5	-1.039
Mof_O 	O 	0.9202	0.6491	0.5	-0.317
Mof_Al	Al	0.8238	0.2833	-0	5.254
Mof_Al	Al	0.8796	0.3414	-0	2.57
Mof_P 	P 	0.8223	0.2222	-0	1.057
Mof_P 	P 	0.89	0.1555	-0	0.749
Mof_O 	O 	0.8211	0.2518	-0	-1.678
Mof_O 	O 	0.7941	0.209	-0	-1.529
Mof_O 	O 	0.8744	0.1281	-0	-1.037
Mof_O 	O 	0.9202	0.1491	-0	-0.318
Mof_Al	Al	0.6762	0.7833	-0	5.253
Mof_Al	Al	0.6204	0.8414	-0	2.568
Mof_P 	P 	0.6777	0.7222	-0	1.056
Mof_P 	P 	0.61	0.6555	-0	0.749
Mof_O 	O 	0.6789	0.7518	-0	-1.678
Mof_O 	O 	0.7059	0.709	-0	-1.529
Mof_O 	O 	0.6256	0.6281	-0	-1.037
Mof_O 	O 	0.5798	0.6491	-0	-0.32
Mof_Al	Al	0.6762	0.2833	0.5	5.272
Mof_Al	Al	0.6204	0.3414	0.5	2.582
Mof_P 	P 	0.6777	0.2222	0.5	1.061
Mof_P 	P 	0.61	0.1555	0.5	0.752
Mof_O 	O 	0.6789	0.2518	0.5	-1.682
Mof_O 	O 	0.7059	0.209	0.5	-1.533
Mof_O 	O 	0.6256	0.1281	0.5	-1.039
Mof_O 	O 	0.5798	0.1491	0.5	-0.319
Mof_Al	Al	0.1762	0.7833	0.5	5.272
Mof_Al	Al	0.1204	0.8414	0.5	2.582
Mof_P 	P 	0.1777	0.7222	0.5	1.061
Mof_P 	P 	0.11	0.6555	0.5	0.752
Mof_O 	O 	0.1789	0.7518	0.5	-1.682
Mof_O 	O 	0.2059	0.709	0.5	-1.533
Mof_O 	O 	0.1256	0.6281	0.5	-1.039
Mof_O 	O 	0.0798	0.6491	0.5	-0.319
Mof_Al	Al	0.1762	0.2833	-0	5.254
Mof_Al	Al	0.1204	0.3414	-0	2.567
Mof_P 	P 	0.1777	0.2222	-0	1.056
Mof_P 	P 	0.11	0.1555	-0	0.749
Mof_O 	O 	0.1789	0.2518	-0	-1.678
Mof_O 	O 	0.2059	0.209	-0	-1.529
Mof_O 	O 	0.1256	0.1281	-0	-1.037
Mof_O 	O 	0.0798	0.1491	-0	-0.32
Mof_Al	Al	0.8238	0.5	0.2833	5.272
Mof_Al	Al	0.8796	0.5	0.3414	2.584
Mof_P 	P 	0.8223	0.5	0.2222	1.061
Mof_P 	P 	0.89	0.5	0.1555	0.753
Mof_O 	O 	0.8211	0.5	0.2518	-1.682
Mof_O 	O 	0.7941	0.5	0.209	-1.533
Mof_O 	O 	0.8744	0.5	0.1281	-1.039
Mof_O 	O 	0.9202	0.5	0.1491	-0.317
Mof_Al	Al	0.8238	0	0.7833	5.253
Mof_Al	Al	0.8796	-1.19228e-32	0.8414	2.571
Mof_P 	P 	0.8223	-1.19228e-32	0.7222	1.056
Mof_P 	P 	0.89	-5.96141e-33	0.6555	0.749
Mof_O 	O 	0.8211	0	0.7518	-1.678
Mof_O 	O 	0.7941	0	0.709	-1.529
Mof_O 	O 	0.8744	-5.96141e-33	0.6281	-1.037
Mof_O 	O 	0.9202	-1.19228e-32	0.6491	-0.318
Mof_Al	Al	0.3238	0.5	0.7833	5.272
Mof_Al	Al	0.3796	0.5	0.8414	2.583
Mof_P 	P 	0.3223	0.5	0.7222	1.061
Mof_P 	P 	0.39	0.5	0.6555	0.752
Mof_O 	O 	0.3211	0.5	0.7518	-1.682
Mof_O 	O 	0.2941	0.5	0.709	-1.533
Mof_O 	O 	0.3744	0.5	0.6281	-1.039
Mof_O 	O 	0.4202	0.5	0.6491	-0.318
Mof_Al	Al	0.3238	-5.96141e-33	0.2833	5.254
Mof_Al	Al	0.3796	-2.98071e-33	0.3414	2.568
Mof_P 	P 	0.3223	0	0.2222	1.056
Mof_P 	P 	0.39	-1.49035e-33	0.1555	0.749
Mof_O 	O 	0.3211	-2.98071e-33	0.2518	-1.678
Mof_O 	O 	0.2941	-1.49035e-33	0.209	-1.529
Mof_O 	O 	0.3744	0	0.1281	-1.037
Mof_O 	O 	0.4202	0	0.1491	-0.32
Mof_Al	Al	0.1762	0.5	0.2833	5.272
Mof_Al	Al	0.1204	0.5	0.3414	2.581
Mof_P 	P 	0.1777	0.5	0.2222	1.061
Mof_P 	P 	0.11	0.5	0.1555	0.752
Mof_O 	O 	0.1789	0.5	0.2518	-1.682
Mof_O 	O 	0.2059	0.5	0.209	-1.533
Mof_O 	O 	0.1256	0.5	0.1281	-1.039
Mof_O 	O 	0.0798	0.5	0.1491	-0.319
Mof_Al	Al	0.1762	0	0.7833	5.253
Mof_Al	Al	0.1204	-1.19228e-32	0.8414	2.567
Mof_P 	P 	0.1777	-1.19228e-32	0.7222	1.056
Mof_P 	P 	0.11	-5.96141e-33	0.6555	0.749
Mof_O 	O 	0.1789	0	0.7518	-1.678
Mof_O 	O 	0.2059	0	0.709	-1.529
Mof_O 	O 	0.1256	-5.96141e-33	0.6281	-1.037
Mof_O 	O 	0.0798	-1.19228e-32	0.6491	-0.32
Mof_Al	Al	0.6762	0.5	0.7833	5.272
Mof_Al	Al	0.6204	0.5	0.8414	2.583
Mof_P 	P 	0.6777	0.5	0.7222	1.061
Mof_P 	P 	0.61	0.5	0.6555	0.752
Mof_O 	O 	0.6789	0.5	0.7518	-1.682
Mof_O 	O 	0.7059	0.5	0.709	-1.533
Mof_O 	O 	0.6256	0.5	0.6281	-1.039
Mof_O 	O 	0.5798	0.5	0.6491	-0.318
Mof_Al	Al	0.6762	-5.96141e-33	0.2833	5.253
Mof_Al	Al	0.6204	-2.98071e-33	0.3414	2.568
Mof_P 	P 	0.6777	0	0.2222	1.056
Mof_P 	P 	0.61	-1.49035e-33	0.1555	0.749
Mof_O 	O 	0.6789	-2.98071e-33	0.2518	-1.678
Mof_O 	O 	0.7059	-1.49035e-33	0.209	-1.529
Mof_O 	O 	0.6256	0	0.1281	-1.037
Mof_O 	O 	0.5798	0	0.1491	-0.32
Mof_Al	Al	0.8238	0.5	0.7167	5.272
Mof_Al	Al	0.8796	0.5	0.6586	2.584
Mof_P 	P 	0.8223	0.5	0.7778	1.061
Mof_P 	P 	0.89	0.5	0.8445	0.753
Mof_O 	O 	0.8211	0.5	0.7482	-1.682
Mof_O 	O 	0.7941	0.5	0.791	-1.533
Mof_O 	O 	0.8744	0.5	0.8719	-1.039
Mof_O 	O 	0.9202	0.5	0.8509	-0.316
Mof_Al	Al	0.8238	0	0.2167	5.254
Mof_Al	Al	0.8796	-1.49035e-33	0.1586	2.57
Mof_P 	P 	0.8223	-2.98071e-33	0.2778	1.057
Mof_P 	P 	0.89	0	0.3445	0.749
Mof_O 	O 	0.8211	0	0.2482	-1.678
Mof_O 	O 	0.7941	0	0.291	-1.529
Mof_O 	O 	0.8744	0	0.3719	-1.037
Mof_O 	O 	0.9202	-2.98071e-33	0.3509	-0.318
Mof_Al	Al	0.3238	0.5	0.2167	5.272
Mof_Al	Al	0.3796	0.5	0.1586	2.582
Mof_P 	P 	0.3223	0.5	0.2778	1.061
Mof_P 	P 	0.39	0.5	0.3445	0.752
Mof_O 	O 	0.3211	0.5	0.2482	-1.682
Mof_O 	O 	0.2941	0.5	0.291	-1.533
Mof_O 	O 	0.3744	0.5	0.3719	-1.039
Mof_O 	O 	0.4202	0.5	0.3509	-0.318
Mof_Al	Al	0.3238	-5.96141e-33	0.7167	5.253
Mof_Al	Al	0.3796	0	0.6586	2.567
Mof_P 	P 	0.3223	0	0.7778	1.056
Mof_P 	P 	0.39	5.96141e-33	0.8445	0.749
Mof_O 	O 	0.3211	0	0.7482	-1.678
Mof_O 	O 	0.2941	0	0.791	-1.53
Mof_O 	O 	0.3744	5.96141e-33	0.8719	-1.037
Mof_O 	O 	0.4202	0	0.8509	-0.319
Mof_Al	Al	0.1762	0.5	0.7167	5.272
Mof_Al	Al	0.1204	0.5	0.6586	2.581
Mof_P 	P 	0.1777	0.5	0.7778	1.061
Mof_P 	P 	0.11	0.5	0.8445	0.753
Mof_O 	O 	0.1789	0.5	0.7482	-1.682
Mof_O 	O 	0.2059	0.5	0.791	-1.533
Mof_O 	O 	0.1256	0.5	0.8719	-1.039
Mof_O 	O 	0.0798	0.5	0.8509	-0.318
Mof_Al	Al	0.1762	0	0.2167	5.254
Mof_Al	Al	0.1204	-1.49035e-33	0.1586	2.567
Mof_P 	P 	0.1777	-2.98071e-33	0.2778	1.056
Mof_P 	P 	0.11	0	0.3445	0.749
Mof_O 	O 	0.1789	0	0.2482	-1.678
Mof_O 	O 	0.2059	0	0.291	-1.529
Mof_O 	O 	0.1256	0	0.3719	-1.037
Mof_O 	O 	0.0798	-2.98071e-33	0.3509	-0.32
Mof_Al	Al	0.6762	0.5	0.2167	5.272
Mof_Al	Al	0.6204	0.5	0.1586	2.582
Mof_P 	P 	0.6777	0.5	0.2778	1.061
Mof_P 	P 	0.61	0.5	0.3445	0.752
Mof_O 	O 	0.6789	0.5	0.2482	-1.682
Mof_O 	O 	0.7059	0.5	0.291	-1.533
Mof_O 	O 	0.6256	0.5	0.3719	-1.039
Mof_O 	O 	0.5798	0.5	0.3509	-0.318
Mof_Al	Al	0.6762	-5.96141e-33	0.7167	5.253
Mof_Al	Al	0.6204	0	0.6586	2.567
Mof_P 	P 	0.6777	0	0.7778	1.056
Mof_P 	P 	0.61	5.96141e-33	0.8445	0.749
Mof_O 	O 	0.6789	0	0.7482	-1.678
Mof_O 	O 	0.7059	0	0.791	-1.529
Mof_O 	O 	0.6256	5.96141e-33	0.8719	-1.037
Mof_O 	O 	0.5798	0	0.8509	-0.319
Mof_Al	Al	0.5	0.7167	0.1762	5.272
Mof_Al	Al	0.5	0.6586	0.1204	2.581
Mof_P 	P 	0.5	0.7778	0.1777	1.061
Mof_P 	P 	0.5	0.8445	0.11	0.753
Mof_O 	O 	0.5	0.7482	0.1789	-1.682
Mof_O 	O 	0.5	0.791	0.2059	-1.533
Mof_O 	O 	0.5	0.8719	0.1256	-1.039
Mof_O 	O 	0.5	0.8509	0.0798	-0.318
Mof_Al	Al	0.5	0.2167	0.6762	5.272
Mof_Al	Al	0.5	0.1586	0.6204	2.582
Mof_P 	P 	0.5	0.2778	0.6777	1.061
Mof_P 	P 	0.5	0.3445	0.61	0.752
Mof_O 	O 	0.5	0.2482	0.6789	-1.682
Mof_O 	O 	0.5	0.291	0.7059	-1.533
Mof_O 	O 	0.5	0.3719	0.6256	-1.039
Mof_O 	O 	0.5	0.3509	0.5798	-0.318
Mof_Al	Al	1.44582e-32	0.7167	0.6762	5.253
Mof_Al	Al	2.32613e-33	0.6586	0.6204	2.567
Mof_P 	P 	-3.42045e-33	0.7778	0.6777	1.056
Mof_P 	P 	2.01714e-32	0.8445	0.61	0.749
Mof_O 	O 	-3.41595e-33	0.7482	0.6789	-1.678
Mof_O 	O 	2.64924e-32	0.791	0.7059	-1.529
Mof_O 	O 	8.30704e-33	0.8719	0.6256	-1.037
Mof_O 	O 	8.13532e-33	0.8509	0.5798	-0.319
Mof_Al	Al	6.60644e-34	0.2167	0.1762	5.254
Mof_Al	Al	4.51428e-34	0.1586	0.1204	2.567
Mof_P 	P 	3.64698e-33	0.2778	0.1777	1.056
Mof_P 	P 	4.88349e-33	0.3445	0.11	0.749
Mof_O 	O 	2.16112e-33	0.2482	0.1789	-1.678
Mof_O 	O 	-2.20871e-33	0.291	0.2059	-1.529
Mof_O 	O 	4.70925e-34	0.3719	0.1256	-1.037
Mof_O 	O 	1.04438e-33	0.3509	0.0798	-0.32
Mof_Al	Al	0.5	0.7167	0.8238	5.272
Mof_Al	Al	0.5	0.6586	0.8796	2.584
Mof_P 	P 	0.5	0.7778	0.8223	1.061
Mof_P 	P 	0.5	0.8445	0.89	0.753
Mof_O 	O 	0.5	0.7482	0.8211	-1.682
Mof_O 	O 	0.5	0.791	0.7941	-1.533
Mof_O 	O 	0.5	0.8719	0.8744	-1.039
Mof_O 	O 	0.5	0.8509	0.9202	-0.316
Mof_Al	Al	0.5	0.2167	0.3238	5.272
Mof_Al	Al	0.5	0.1586	0.3796	2.582
Mof_P 	P 	0.5	0.2778	0.3223	1.061
Mof_P 	P 	0.5	0.3445	0.39	0.752
Mof_O 	O 	0.5	0.2482	0.3211	-1.682
Mof_O 	O 	0.5	0.291	0.2941	-1.533
Mof_O 	O 	0.5	0.3719	0.3744	-1.039
Mof_O 	O 	0.5	0.3509	0.4202	-0.318
Mof_Al	Al	7.17547e-33	0.7167	0.3238	5.253
Mof_Al	Al	1.42327e-33	0.6586	0.3796	2.567
Mof_P 	P 	-4.75298e-33	0.7778	0.3223	1.056
Mof_P 	P 	1.63658e-32	0.8445	0.39	0.749
Mof_O 	O 	4.18464e-33	0.7482	0.3211	-1.678
Mof_O 	O 	1.60062e-32	0.791	0.2941	-1.53
Mof_O 	O 	1.9288e-32	0.8719	0.3744	-1.037
Mof_O 	O 	7.53691e-33	0.8509	0.4202	-0.319
Mof_Al	Al	3.08876e-33	0.2167	0.8238	5.254
Mof_Al	Al	-8.62486e-33	0.1586	0.8796	2.57
Mof_P 	P 	-8.8397e-33	0.2778	0.8223	1.057
Mof_P 	P 	1.52598e-32	0.3445	0.89	0.749
Mof_O 	O 	9.04005e-33	0.2482	0.8211	-1.678
Mof_O 	O 	1.49002e-32	0.291	0.7941	-1.529
Mof_O 	O 	9.23989e-33	0.3719	0.8744	-1.037
Mof_O 	O 	3.4502e-33	0.3509	0.9202	-0.318
Mof_Al	Al	0.5	0.2833	0.1762	5.272
Mof_Al	Al	0.5	0.3414	0.1204	2.581
Mof_P 	P 	0.5	0.2222	0.1777	1.061
Mof_P 	P 	0.5	0.1555	0.11	0.752
Mof_O 	O 	0.5	0.2518	0.1789	-1.682
Mof_O 	O 	0.5	0.209	0.2059	-1.533
Mof_O 	O 	0.5	0.1281	0.1256	-1.039
Mof_O 	O 	0.5	0.1491	0.0798	-0.319
Mof_Al	Al	0.5	0.7833	0.6762	5.272
Mof_Al	Al	0.5	0.8414	0.6204	2.583
Mof_P 	P 	0.5	0.7222	0.6777	1.061
Mof_P 	P 	0.5	0.6555	0.61	0.752
Mof_O 	O 	0.5	0.7518	0.6789	-1.682
Mof_O 	O 	0.5	0.709	0.7059	-1.533
Mof_O 	O 	0.5	0.6281	0.6256	-1.039
Mof_O 	O 	0.5	0.6491	0.5798	-0.318
Mof_Al	Al	8.49676e-33	0.2833	0.6762	5.253
Mof_Al	Al	2.32613e-33	0.3414	0.6204	2.568
Mof_P 	P 	2.54097e-33	0.2222	0.6777	1.056
Mof_P 	P 	-3.67428e-33	0.1555	0.61	0.749
Mof_O 	O 	-3.41595e-33	0.2518	0.6789	-1.678
Mof_O 	O 	2.6467e-33	0.209	0.7059	-1.529
Mof_O 	O 	2.34562e-33	0.1281	0.6256	-1.037
Mof_O 	O 	-3.78751e-33	0.1491	0.5798	-0.32
Mof_Al	Al	-3.81042e-33	0.7833	0.1762	5.253
Mof_Al	Al	-5.50999e-33	0.8414	0.1204	2.567
Mof_P 	P 	6.66268e-34	0.7222	0.1777	1.056
Mof_P 	P 	-1.07792e-33	0.6555	0.11	0.749
Mof_O 	O 	8.12253e-33	0.7518	0.1789	-1.678
Mof_O 	O 	-2.20871e-33	0.709	0.2059	-1.529
Mof_O 	O 	-5.49049e-33	0.6281	0.1256	-1.037
Mof_O 	O 	-4.91703e-33	0.6491	0.0798	-0.32
Mof_Al	Al	0.5	0.2833	0.8238	5.272
Mof_Al	Al	0.5	0.3414	0.8796	2.584
Mof_P 	P 	0.5	0.2222	0.8223	1.061
Mof_P 	P 	0.5	0.1555	0.89	0.753
Mof_O 	O 	0.5	0.2518	0.8211	-1.682
Mof_O 	O 	0.5	0.209	0.7941	-1.533
Mof_O 	O 	0.5	0.1281	0.8744	-1.039
Mof_O 	O 	0.5	0.1491	0.9202	-0.317
Mof_Al	Al	0.5	0.7833	0.3238	5.272
Mof_Al	Al	0.5	0.8414	0.3796	2.583
Mof_P 	P 	0.5	0.7222	0.3223	1.061
Mof_P 	P 	0.5	0.6555	0.39	0.752
Mof_O 	O 	0.5	0.7518	0.3211	-1.682
Mof_O 	O 	0.5	0.709	0.2941	-1.533
Mof_O 	O 	0.5	0.6281	0.3744	-1.039
Mof_O 	O 	0.5	0.6491	0.4202	-0.318
Mof_Al	Al	4.19476e-33	0.2833	0.3238	5.254
Mof_Al	Al	7.38469e-33	0.3414	0.3796	2.568
Mof_P 	P 	1.20843e-33	0.2222	0.3223	1.056
Mof_P 	P 	-1.51844e-33	0.1555	0.39	0.749
Mof_O 	O 	-1.77677e-33	0.2518	0.3211	-1.678
Mof_O 	O 	-1.87801e-33	0.209	0.2941	-1.529
Mof_O 	O 	7.36519e-33	0.1281	0.3744	-1.037
Mof_O 	O 	7.53691e-33	0.1491	0.4202	-0.32
Mof_Al	Al	3.08876e-33	0.7833	0.8238	5.253
Mof_Al	Al	3.29797e-33	0.8414	0.8796	2.571
Mof_P 	P 	-2.87828e-33	0.7222	0.8223	1.056
Mof_P 	P 	3.33697e-33	0.6555	0.89	0.749
Mof_O 	O 	1.50015e-32	0.7518	0.8211	-1.678
Mof_O 	O 	2.9774e-33	0.709	0.7941	-1.529
Mof_O 	O 	9.23989e-33	0.6281	0.8744	-1.037
Mof_O 	O 	3.4502e-33	0.6491	0.9202	-0.318
Mof_Al	Al	0.7167	0.8238	0.5	5.272
Mof_Al	Al	0.6586	0.8796	0.5	2.584
Mof_P 	P 	0.7778	0.8223	0.5	1.061
Mof_P 	P 	0.8445	0.89	0.5	0.753
Mof_O 	O 	0.7482	0.8211	0.5	-1.682
Mof_O 	O 	0.791	0.7941	0.5	-1.533
Mof_O 	O 	0.8719	0.8744	0.5	-1.039
Mof_O 	O 	0.8509	0.9202	0.5	-0.316
Mof_Al	Al	0.7167	0.3238	-0	5.253
Mof_Al	Al	0.6586	0.3796	-0	2.567
Mof_P 	P 	0.7778	0.3223	-0	1.056
Mof_P 	P 	0.8445	0.39	-0	0.749
Mof_O 	O 	0.7482	0.3211	-0	-1.678
Mof_O 	O 	0.791	0.2941	-0	-1.53
Mof_O 	O 	0.8719	0.3744	-0	-1.037
Mof_O 	O 	0.8509	0.4202	-0	-0.319
Mof_Al	Al	0.2167	0.8238	-0	5.254
Mof_Al	Al	0.1586	0.8796	-0	2.57
Mof_P 	P 	0.2778	0.8223	-0	1.057
Mof_P 	P 	0.3445	0.89	-0	0.749
Mof_O 	O 	0.2482	0.8211	-0	-1.678
Mof_O 	O 	0.291	0.7941	-0	-1.529
Mof_O 	O 	0.3719	0.8744	-0	-1.037
Mof_O 	O 	0.3509	0.9202	-0	-0.318
Mof_Al	Al	0.2167	0.3238	0.5	5.272
Mof_Al	Al	0.1586	0.3796	0.5	2.582
Mof_P 	P 	0.2778	0.3223	0.5	1.061
Mof_P 	P 	0.3445	0.39	0.5	0.752
Mof_O 	O 	0.2482	0.3211	0.5	-1.682
Mof_O 	O 	0.291	0.2941	0.5	-1.533
Mof_O 	O 	0.3719	0.3744	0.5	-1.039
Mof_O 	O 	0.3509	0.4202	0.5	-0.318
Mof_Al	Al	0.7167	0.1762	0.5	5.272
Mof_Al	Al	0.6586	0.1204	0.5	2.581
Mof_P 	P 	0.7778	0.1777	0.5	1.061
Mof_P 	P 	0.8445	0.11	0.5	0.753
Mof_O 	O 	0.7482	0.1789	0.5	-1.682
Mof_O 	O 	0.791	0.2059	0.5	-1.533
Mof_O 	O 	0.8719	0.1256	0.5	-1.039
Mof_O 	O 	0.8509	0.0798	0.5	-0.318
Mof_Al	Al	0.7167	0.6762	-0	5.253
Mof_Al	Al	0.6586	0.6204	-0	2.567
Mof_P 	P 	0.7778	0.6777	-0	1.056
Mof_P 	P 	0.8445	0.61	-0	0.749
Mof_O 	O 	0.7482	0.6789	-0	-1.678
Mof_O 	O 	0.791	0.7059	-0	-1.529
Mof_O 	O 	0.8719	0.6256	-0	-1.037
Mof_O 	O 	0.8509	0.5798	-0	-0.319
Mof_Al	Al	0.2167	0.1762	-0	5.254
Mof_Al	Al	0.1586	0.1204	-0	2.567
Mof_P 	P 	0.2778	0.1777	-0	1.056
Mof_P 	P 	0.3445	0.11	-0	0.749
Mof_O 	O 	0.2482	0.1789	-0	-1.678
Mof_O 	O 	0.291	0.2059	-0	-1.529
Mof_O 	O 	0.3719	0.1256	-0	-1.037
Mof_O 	O 	0.3509	0.0798	-0	-0.32
Mof_Al	Al	0.2167	0.6762	0.5	5.272
Mof_Al	Al	0.1586	0.6204	0.5	2.582
Mof_P 	P 	0.2778	0.6777	0.5	1.061
Mof_P 	P 	0.3445	0.61	0.5	0.752
Mof_O 	O 	0.2482	0.6789	0.5	-1.682
Mof_O 	O 	0.291	0.7059	0.5	-1.533
Mof_O 	O 	0.3719	0.6256	0.5	-1.039
Mof_O 	O 	0.3509	0.5798	0.5	-0.318
Mof_Al	Al	0.2833	0.8238	0.5	5.272
Mof_Al	Al	0.3414	0.8796	0.5	2.584
Mof_P 	P 	0.2222	0.8223	0.5	1.061
Mof_P 	P 	0.1555	0.89	0.5	0.753
Mof_O 	O 	0.2518	0.8211	0.5	-1.682
Mof_O 	O 	0.209	0.7941	0.5	-1.533
Mof_O 	O 	0.1281	0.8744	0.5	-1.039
Mof_O 	O 	0.1491	0.9202	0.5	-0.317
Mof_Al	Al	0.2833	0.3238	-0	5.254
Mof_Al	Al	0.3414	0.3796	-0	2.568
Mof_P 	P 	0.2222	0.3223	-0	1.056
Mof_P 	P 	0.1555	0.39	-0	0.749
Mof_O 	O 	0.2518	0.3211	-0	-1.678
Mof_O 	O 	0.209	0.2941	-0	-1.529
Mof_O 	O 	0.1281	0.3744	-0	-1.037
Mof_O 	O 	0.1491	0.4202	-0	-0.32
Mof_Al	Al	0.7833	0.8238	-0	5.253
Mof_Al	Al	0.8414	0.8796	-0	2.571
Mof_P 	P 	0.7222	0.8223	-0	1.056
Mof_P 	P 	0.6555	0.89	-0	0.749
Mof_O 	O 	0.7518	0.8211	-0	-1.678
Mof_O 	O 	0.709	0.7941	-0	-1.529
Mof_O 	O 	0.6281	0.8744	-0	-1.037
Mof_O 	O 	0.6491	0.9202	-0	-0.318
Mof_Al	Al	0.7833	0.3238	0.5	5.272
Mof_Al	Al	0.8414	0.3796	0.5	2.583
Mof_P 	P 	0.7222	0.3223	0.5	1.061
Mof_P 	P 	0.6555	0.39	0.5	0.752
Mof_O 	O 	0.7518	0.3211	0.5	-1.682
Mof_O 	O 	0.709	0.2941	0.5	-1.533
Mof_O 	O 	0.6281	0.3744	0.5	-1.039
Mof_O 	O 	0.6491	0.4202	0.5	-0.318
Mof_Al	Al	0.2833	0.1762	0.5	5.272
Mof_Al	Al	0.3414	0.1204	0.5	2.581
Mof_P 	P 	0.2222	0.1777	0.5	1.061
Mof_P 	P 	0.1555	0.11	0.5	0.752
Mof_O 	O 	0.2518	0.1789	0.5	-1.682
Mof_O 	O 	0.209	0.2059	0.5	-1.533
Mof_O 	O 	0.1281	0.1256	0.5	-1.039
Mof_O 	O 	0.1491	0.0798	0.5	-0.319
Mof_Al	Al	0.2833	0.6762	-0	5.253
Mof_Al	Al	0.3414	0.6204	-0	2.568
Mof_P 	P 	0.2222	0.6777	-0	1.056
Mof_P 	P 	0.1555	0.61	-0	0.749
Mof_O 	O 	0.2518	0.6789	-0	-1.678
Mof_O 	O 	0.209	0.7059	-0	-1.529
Mof_O 	O 	0.1281	0.6256	-0	-1.037
Mof_O 	O 	0.1491	0.5798	-0	-0.32
Mof_Al	Al	0.7833	0.1762	-0	5.253
Mof_Al	Al	0.8414	0.1204	-0	2.567
Mof_P 	P 	0.7222	0.1777	-0	1.056
Mof_P 	P 	0.6555	0.11	-0	0.749
Mof_O 	O 	0.7518	0.1789	-0	-1.678
Mof_O 	O 	0.709	0.2059	-0	-1.529
Mof_O 	O 	0.6281	0.1256	-0	-1.037
Mof_O 	O 	0.6491	0.0798	-0	-0.32
Mof_Al	Al	0.7833	0.6762	0.5	5.272
Mof_Al	Al	0.8414	0.6204	0.5	2.583
Mof_P 	P 	0.7222	0.6777	0.5	1.061
Mof_P 	P 	0.6555	0.61	0.5	0.752
Mof_O 	O 	0.7518	0.6789	0.5	-1.682
Mof_O 	O 	0.709	0.7059	0.5	-1.533
Mof_O 	O 	0.6281	0.6256	0.5	-1.039
Mof_O 	O 	0.6491	0.5798	0.5	-0.318
_end
