# CIF file generated by openbabel 3.1.0, see https://openbabel.org
data_I
_chemical_name_common 'image0'
_cell_length_a 29.7931
_cell_length_b 12.7929
_cell_length_c 13.7893
_cell_angle_alpha 90
_cell_angle_beta 95.185
_cell_angle_gamma 90
_space_group_name_H-M_alt 'P 1'
_space_group_name_Hall 'P 1'
loop_
    _symmetry_equiv_pos_as_xyz
    x,y,z
loop_
    _atom_site_label
    _atom_site_type_symbol
    _atom_site_fract_x
    _atom_site_fract_y
    _atom_site_fract_z
    _atom_site_occupancy
    C1       C        0.60320    0.23820    0.03710    1.000
    C2       C        0.55680    0.25820    0.06830    1.000
    C3       C        0.52670    0.17480    0.07550    1.000
    H1       H        0.53540    0.10670    0.06310    1.000
    C4       C        0.48350    0.19570    0.10160    1.000
    H2       H        0.46370    0.14070    0.10860    1.000
    C5       C        0.46990    0.29620    0.11700    1.000
    C6       C        0.49950    0.37730    0.11230    1.000
    H3       H        0.49060    0.44490    0.12620    1.000
    C7       C        0.54330    0.35860    0.08640    1.000
    H4       H        0.56320    0.41400    0.08150    1.000
    C8       C        0.42210    0.31130    0.13730    1.000
    H5       H        0.40500    0.24700    0.15400    1.000
    C9       C        0.25560    0.55730    0.05220    1.000
    C10      C        0.28530    0.48640    0.11200    1.000
    C11      C        0.33170    0.48100    0.10280    1.000
    H6       H        0.34460    0.52510    0.05970    1.000
    C12      C        0.35840    0.40970    0.15810    1.000
    C13      C        0.33980    0.34810    0.22640    1.000
    H7       H        0.35800    0.30180    0.26420    1.000
    C14      C        0.29370    0.35460    0.23920    1.000
    C15      C        0.26630    0.42150    0.17890    1.000
    H8       H        0.23540    0.42270    0.18340    1.000
    C16      C        0.27370    0.29180    0.31640    1.000
    C17      C        0.11240    0.52990    0.81930    1.000
    H9       H        0.08690    0.56340    0.83780    1.000
    C18      C        0.11280    0.45500    0.74740    1.000
    H10      H        0.08810    0.43200    0.70700    1.000
    C19      C        0.18010    0.47640    0.81380    1.000
    H11      H        0.21100    0.46760    0.82830    1.000
    N1       N        0.40480    0.40320    0.14300    1.000
    N2       N        0.15470    0.54690    0.85850    1.000
    N3       N        0.15520    0.42180    0.74680    1.000
    O1       O        0.61637    0.14650    0.02980    1.000
    O2       O        0.62710    0.31540    0.01730    1.000
    O3       O        0.21490    0.53600    0.03480    1.000
    O4       O        0.27173    0.64260    0.02230    1.000
    O5       O        0.29806    0.22650    0.36390    1.000
    O6       O        0.23290    0.31200    0.32930    1.000
    Eu1      Eu       0.18658    0.69945    0.96209    1.000
    C20      C        0.10320    0.73820    0.03710    1.000
    C21      C        0.05680    0.75820    0.06830    1.000
    C22      C        0.02670    0.67480    0.07550    1.000
    H12      H        0.03540    0.60670    0.06310    1.000
    C23      C        0.98350    0.69570    0.10160    1.000
    H13      H        0.96370    0.64070    0.10860    1.000
    C24      C        0.96990    0.79620    0.11700    1.000
    C25      C        0.99950    0.87730    0.11230    1.000
    H14      H        0.99060    0.94490    0.12620    1.000
    C26      C        0.04330    0.85860    0.08640    1.000
    H15      H        0.06320    0.91400    0.08150    1.000
    C27      C        0.92210    0.81130    0.13730    1.000
    H16      H        0.90500    0.74700    0.15400    1.000
    C28      C        0.75560    0.05730    0.05220    1.000
    C29      C        0.78530    0.98640    0.11200    1.000
    C30      C        0.83170    0.98100    0.10280    1.000
    H17      H        0.84460    0.02510    0.05970    1.000
    C31      C        0.85840    0.90970    0.15810    1.000
    C32      C        0.83980    0.84810    0.22640    1.000
    H18      H        0.85800    0.80180    0.26420    1.000
    C33      C        0.79370    0.85460    0.23920    1.000
    C34      C        0.76630    0.92150    0.17890    1.000
    H19      H        0.73540    0.92270    0.18340    1.000
    C35      C        0.77370    0.79180    0.31640    1.000
    C36      C        0.61240    0.02990    0.81930    1.000
    H20      H        0.58690    0.06340    0.83780    1.000
    C37      C        0.61280    0.95500    0.74740    1.000
    H21      H        0.58810    0.93200    0.70700    1.000
    C38      C        0.68010    0.97640    0.81380    1.000
    H22      H        0.71100    0.96760    0.82830    1.000
    N4       N        0.90480    0.90320    0.14300    1.000
    N5       N        0.65470    0.04690    0.85850    1.000
    N6       N        0.65520    0.92180    0.74680    1.000
    O7       O        0.11637    0.64650    0.02980    1.000
    O8       O        0.12710    0.81540    0.01730    1.000
    O9       O        0.71490    0.03600    0.03480    1.000
    O10      O        0.77173    0.14260    0.02230    1.000
    O11      O        0.79806    0.72650    0.36390    1.000
    O12      O        0.73290    0.81200    0.32930    1.000
    Eu2      Eu       0.68658    0.19945    0.96209    1.000
    C39      C        0.39680    0.23820    0.46290    1.000
    C40      C        0.44320    0.25820    0.43170    1.000
    C41      C        0.47330    0.17480    0.42450    1.000
    H23      H        0.46460    0.10670    0.43690    1.000
    C42      C        0.51650    0.19570    0.39840    1.000
    H24      H        0.53630    0.14070    0.39140    1.000
    C43      C        0.53010    0.29620    0.38300    1.000
    C44      C        0.50050    0.37730    0.38770    1.000
    H25      H        0.50940    0.44490    0.37380    1.000
    C45      C        0.45670    0.35860    0.41360    1.000
    H26      H        0.43680    0.41400    0.41850    1.000
    C46      C        0.57790    0.31130    0.36270    1.000
    H27      H        0.59500    0.24700    0.34600    1.000
    C47      C        0.74440    0.55730    0.44780    1.000
    C48      C        0.71470    0.48640    0.38800    1.000
    C49      C        0.66830    0.48100    0.39720    1.000
    H28      H        0.65540    0.52510    0.44030    1.000
    C50      C        0.64160    0.40970    0.34190    1.000
    C51      C        0.66020    0.34810    0.27360    1.000
    H29      H        0.64200    0.30180    0.23580    1.000
    C52      C        0.70630    0.35460    0.26080    1.000
    C53      C        0.73370    0.42150    0.32110    1.000
    H30      H        0.76460    0.42270    0.31660    1.000
    C54      C        0.72630    0.29180    0.18360    1.000
    C55      C        0.88760    0.52990    0.68070    1.000
    H31      H        0.91310    0.56340    0.66220    1.000
    C56      C        0.88720    0.45500    0.75260    1.000
    H32      H        0.91190    0.43200    0.79300    1.000
    C57      C        0.81990    0.47640    0.68620    1.000
    H33      H        0.78900    0.46760    0.67170    1.000
    N7       N        0.59520    0.40320    0.35700    1.000
    N8       N        0.84530    0.54690    0.64150    1.000
    N9       N        0.84480    0.42180    0.75320    1.000
    O13      O        0.38363    0.14650    0.47020    1.000
    O14      O        0.37290    0.31540    0.48270    1.000
    O15      O        0.78510    0.53600    0.46520    1.000
    O16      O        0.72827    0.64260    0.47770    1.000
    O17      O        0.70194    0.22650    0.13610    1.000
    O18      O        0.76710    0.31200    0.17070    1.000
    Eu3      Eu       0.81342    0.69945    0.53791    1.000
    C58      C        0.89680    0.73820    0.46290    1.000
    C59      C        0.94320    0.75820    0.43170    1.000
    C60      C        0.97330    0.67480    0.42450    1.000
    H34      H        0.96460    0.60670    0.43690    1.000
    C61      C        0.01650    0.69570    0.39840    1.000
    H35      H        0.03630    0.64070    0.39140    1.000
    C62      C        0.03010    0.79620    0.38300    1.000
    C63      C        0.00050    0.87730    0.38770    1.000
    H36      H        0.00940    0.94490    0.37380    1.000
    C64      C        0.95670    0.85860    0.41360    1.000
    H37      H        0.93680    0.91400    0.41850    1.000
    C65      C        0.07790    0.81130    0.36270    1.000
    H38      H        0.09500    0.74700    0.34600    1.000
    C66      C        0.24440    0.05730    0.44780    1.000
    C67      C        0.21470    0.98640    0.38800    1.000
    C68      C        0.16830    0.98100    0.39720    1.000
    H39      H        0.15540    0.02510    0.44030    1.000
    C69      C        0.14160    0.90970    0.34190    1.000
    C70      C        0.16020    0.84810    0.27360    1.000
    H40      H        0.14200    0.80180    0.23580    1.000
    C71      C        0.20630    0.85460    0.26080    1.000
    C72      C        0.23370    0.92150    0.32110    1.000
    H41      H        0.26460    0.92270    0.31660    1.000
    C73      C        0.22630    0.79180    0.18360    1.000
    C74      C        0.38760    0.02990    0.68070    1.000
    H42      H        0.41310    0.06340    0.66220    1.000
    C75      C        0.38720    0.95500    0.75260    1.000
    H43      H        0.41190    0.93200    0.79300    1.000
    C76      C        0.31990    0.97640    0.68620    1.000
    H44      H        0.28900    0.96760    0.67170    1.000
    N10      N        0.09520    0.90320    0.35700    1.000
    N11      N        0.34530    0.04690    0.64150    1.000
    N12      N        0.34480    0.92180    0.75320    1.000
    O19      O        0.88363    0.64650    0.47020    1.000
    O20      O        0.87290    0.81540    0.48270    1.000
    O21      O        0.28510    0.03600    0.46520    1.000
    O22      O        0.22827    0.14260    0.47770    1.000
    O23      O        0.20194    0.72650    0.13610    1.000
    O24      O        0.26710    0.81200    0.17070    1.000
    Eu4      Eu       0.31342    0.19945    0.53791    1.000
    C77      C        0.39680    0.76180    0.96290    1.000
    C78      C        0.44320    0.74180    0.93170    1.000
    C79      C        0.47330    0.82520    0.92450    1.000
    H45      H        0.46460    0.89330    0.93690    1.000
    C80      C        0.51650    0.80430    0.89840    1.000
    H46      H        0.53630    0.85930    0.89140    1.000
    C81      C        0.53010    0.70380    0.88300    1.000
    C82      C        0.50050    0.62270    0.88770    1.000
    H47      H        0.50940    0.55510    0.87380    1.000
    C83      C        0.45670    0.64140    0.91360    1.000
    H48      H        0.43680    0.58600    0.91850    1.000
    C84      C        0.57790    0.68870    0.86270    1.000
    H49      H        0.59500    0.75300    0.84600    1.000
    C85      C        0.74440    0.44270    0.94780    1.000
    C86      C        0.71470    0.51360    0.88800    1.000
    C87      C        0.66830    0.51900    0.89720    1.000
    H50      H        0.65540    0.47490    0.94030    1.000
    C88      C        0.64160    0.59030    0.84190    1.000
    C89      C        0.66020    0.65190    0.77360    1.000
    H51      H        0.64200    0.69820    0.73580    1.000
    C90      C        0.70630    0.64540    0.76080    1.000
    C91      C        0.73370    0.57850    0.82110    1.000
    H52      H        0.76460    0.57730    0.81660    1.000
    C92      C        0.72630    0.70820    0.68360    1.000
    C93      C        0.88760    0.47010    0.18070    1.000
    H53      H        0.91310    0.43660    0.16220    1.000
    C94      C        0.88720    0.54500    0.25260    1.000
    H54      H        0.91190    0.56800    0.29300    1.000
    C95      C        0.81990    0.52360    0.18620    1.000
    H55      H        0.78900    0.53240    0.17170    1.000
    N13      N        0.59520    0.59680    0.85700    1.000
    N14      N        0.84530    0.45310    0.14150    1.000
    N15      N        0.84480    0.57820    0.25320    1.000
    O25      O        0.38363    0.85350    0.97020    1.000
    O26      O        0.37290    0.68460    0.98270    1.000
    O27      O        0.78510    0.46400    0.96520    1.000
    O28      O        0.72827    0.35740    0.97770    1.000
    O29      O        0.70194    0.77350    0.63610    1.000
    O30      O        0.76710    0.68800    0.67070    1.000
    Eu5      Eu       0.81342    0.30055    0.03791    1.000
    C96      C        0.89680    0.26180    0.96290    1.000
    C97      C        0.94320    0.24180    0.93170    1.000
    C98      C        0.97330    0.32520    0.92450    1.000
    H56      H        0.96460    0.39330    0.93690    1.000
    C99      C        0.01650    0.30430    0.89840    1.000
    H57      H        0.03630    0.35930    0.89140    1.000
    C100     C        0.03010    0.20380    0.88300    1.000
    C101     C        0.00050    0.12270    0.88770    1.000
    H58      H        0.00940    0.05510    0.87380    1.000
    C102     C        0.95670    0.14140    0.91360    1.000
    H59      H        0.93680    0.08600    0.91850    1.000
    C103     C        0.07790    0.18870    0.86270    1.000
    H60      H        0.09500    0.25300    0.84600    1.000
    C104     C        0.24440    0.94270    0.94780    1.000
    C105     C        0.21470    0.01360    0.88800    1.000
    C106     C        0.16830    0.01900    0.89720    1.000
    H61      H        0.15540    0.97490    0.94030    1.000
    C107     C        0.14160    0.09030    0.84190    1.000
    C108     C        0.16020    0.15190    0.77360    1.000
    H62      H        0.14200    0.19820    0.73580    1.000
    C109     C        0.20630    0.14540    0.76080    1.000
    C110     C        0.23370    0.07850    0.82110    1.000
    H63      H        0.26460    0.07730    0.81660    1.000
    C111     C        0.22630    0.20820    0.68360    1.000
    C112     C        0.38760    0.97010    0.18070    1.000
    H64      H        0.41310    0.93660    0.16220    1.000
    C113     C        0.38720    0.04500    0.25260    1.000
    H65      H        0.41190    0.06800    0.29300    1.000
    C114     C        0.31990    0.02360    0.18620    1.000
    H66      H        0.28900    0.03240    0.17170    1.000
    N16      N        0.09520    0.09680    0.85700    1.000
    N17      N        0.34530    0.95310    0.14150    1.000
    N18      N        0.34480    0.07820    0.25320    1.000
    O31      O        0.88363    0.35350    0.97020    1.000
    O32      O        0.87290    0.18460    0.98270    1.000
    O33      O        0.28510    0.96400    0.96520    1.000
    O34      O        0.22827    0.85740    0.97770    1.000
    O35      O        0.20194    0.27350    0.63610    1.000
    O36      O        0.26710    0.18800    0.67070    1.000
    Eu6      Eu       0.31342    0.80055    0.03791    1.000
    C115     C        0.60320    0.76180    0.53710    1.000
    C116     C        0.55680    0.74180    0.56830    1.000
    C117     C        0.52670    0.82520    0.57550    1.000
    H67      H        0.53540    0.89330    0.56310    1.000
    C118     C        0.48350    0.80430    0.60160    1.000
    H68      H        0.46370    0.85930    0.60860    1.000
    C119     C        0.46990    0.70380    0.61700    1.000
    C120     C        0.49950    0.62270    0.61230    1.000
    H69      H        0.49060    0.55510    0.62620    1.000
    C121     C        0.54330    0.64140    0.58640    1.000
    H70      H        0.56320    0.58600    0.58150    1.000
    C122     C        0.42210    0.68870    0.63730    1.000
    H71      H        0.40500    0.75300    0.65400    1.000
    C123     C        0.25560    0.44270    0.55220    1.000
    C124     C        0.28530    0.51360    0.61200    1.000
    C125     C        0.33170    0.51900    0.60280    1.000
    H72      H        0.34460    0.47490    0.55970    1.000
    C126     C        0.35840    0.59030    0.65810    1.000
    C127     C        0.33980    0.65190    0.72640    1.000
    H73      H        0.35800    0.69820    0.76420    1.000
    C128     C        0.29370    0.64540    0.73920    1.000
    C129     C        0.26630    0.57850    0.67890    1.000
    H74      H        0.23540    0.57730    0.68340    1.000
    C130     C        0.27370    0.70820    0.81640    1.000
    C131     C        0.11240    0.47010    0.31930    1.000
    H75      H        0.08690    0.43660    0.33780    1.000
    C132     C        0.11280    0.54500    0.24740    1.000
    H76      H        0.08810    0.56800    0.20700    1.000
    C133     C        0.18010    0.52360    0.31380    1.000
    H77      H        0.21100    0.53240    0.32830    1.000
    N19      N        0.40480    0.59680    0.64300    1.000
    N20      N        0.15470    0.45310    0.35850    1.000
    N21      N        0.15520    0.57820    0.24680    1.000
    O37      O        0.61637    0.85350    0.52980    1.000
    O38      O        0.62710    0.68460    0.51730    1.000
    O39      O        0.21490    0.46400    0.53480    1.000
    O40      O        0.27173    0.35740    0.52230    1.000
    O41      O        0.29806    0.77350    0.86390    1.000
    O42      O        0.23290    0.68800    0.82930    1.000
    Eu7      Eu       0.18658    0.30055    0.46209    1.000
    C134     C        0.10320    0.26180    0.53710    1.000
    C135     C        0.05680    0.24180    0.56830    1.000
    C136     C        0.02670    0.32520    0.57550    1.000
    H78      H        0.03540    0.39330    0.56310    1.000
    C137     C        0.98350    0.30430    0.60160    1.000
    H79      H        0.96370    0.35930    0.60860    1.000
    C138     C        0.96990    0.20380    0.61700    1.000
    C139     C        0.99950    0.12270    0.61230    1.000
    H80      H        0.99060    0.05510    0.62620    1.000
    C140     C        0.04330    0.14140    0.58640    1.000
    H81      H        0.06320    0.08600    0.58150    1.000
    C141     C        0.92210    0.18870    0.63730    1.000
    H82      H        0.90500    0.25300    0.65400    1.000
    C142     C        0.75560    0.94270    0.55220    1.000
    C143     C        0.78530    0.01360    0.61200    1.000
    C144     C        0.83170    0.01900    0.60280    1.000
    H83      H        0.84460    0.97490    0.55970    1.000
    C145     C        0.85840    0.09030    0.65810    1.000
    C146     C        0.83980    0.15190    0.72640    1.000
    H84      H        0.85800    0.19820    0.76420    1.000
    C147     C        0.79370    0.14540    0.73920    1.000
    C148     C        0.76630    0.07850    0.67890    1.000
    H85      H        0.73540    0.07730    0.68340    1.000
    C149     C        0.77370    0.20820    0.81640    1.000
    C150     C        0.61240    0.97010    0.31930    1.000
    H86      H        0.58690    0.93660    0.33780    1.000
    C151     C        0.61280    0.04500    0.24740    1.000
    H87      H        0.58810    0.06800    0.20700    1.000
    C152     C        0.68010    0.02360    0.31380    1.000
    H88      H        0.71100    0.03240    0.32830    1.000
    N22      N        0.90480    0.09680    0.64300    1.000
    N23      N        0.65470    0.95310    0.35850    1.000
    N24      N        0.65520    0.07820    0.24680    1.000
    O43      O        0.11637    0.35350    0.52980    1.000
    O44      O        0.12710    0.18460    0.51730    1.000
    O45      O        0.71490    0.96400    0.53480    1.000
    O46      O        0.77173    0.85740    0.52230    1.000
    O47      O        0.79806    0.27350    0.86390    1.000
    O48      O        0.73290    0.18800    0.82930    1.000
    Eu8      Eu       0.68658    0.80055    0.46209    1.000
