data_functionalizedCrystal
_audit_creation_method	'EQeq! by Chris Wilmer'
_symmetry_space_group_name_H-M	'P1'
_symmetry_Int_Tables_number	1
_symmetry_cell_setting	triclinic
loop_
_symmetry_equiv_pos_as_xyz
  x,y,z
_cell_length_a	15.9827
_cell_length_b	16.3994
_cell_length_c	6.2418
_cell_angle_alpha	90
_cell_angle_beta	90
_cell_angle_gamma	90
loop_
_atom_site_label
_atom_site_type_symbol
_atom_site_fract_x
_atom_site_fract_y
_atom_site_fract_z
_atom_site_charge
Mof_Zn	Zn	0.89522	0.64911	0.95446	1.196
Mof_Zn	Zn	0.84513	0.59721	0.4554	1.217
Mof_O 	O 	0.9296	0.60448	0.2335	-0.512
Mof_O 	O 	0.2367	0.8474	0.3905	-0.437
Mof_O 	O 	0.2613	0.89156	0.0609	-0.363
Mof_O 	O 	0.89376	0.56608	0.7346	-0.577
Mof_O 	O 	0.6673	0.2505	0.8859	-0.492
Mof_O 	O 	0.6189	0.22806	0.5578	-0.434
Mof_N 	N 	0.01468	0.70583	0.9787	-0.311
Mof_N 	N 	0.79597	0.47756	0.4788	-0.223
Mof_C 	C 	0.011	0.6237	0.3012	-0.022
Mof_H 	H 	0.046	0.5756	0.2889	0.04
Mof_H 	H 	0.0096	0.6396	0.4509	0.013
Mof_C 	C 	0.0487	0.6922	0.1702	0.175
Mof_C 	C 	0.1161	0.7389	0.2446	-0.186
Mof_H 	H 	0.138	0.73	0.3806	0.113
Mof_C 	C 	0.1493	0.798	0.1141	0.161
Mof_C 	C 	0.1169	0.8086	0.9086	-0.284
Mof_H 	H 	0.141	0.8455	0.8137	0.123
Mof_C 	C 	0.0482	0.763	0.8502	0.132
Mof_H 	H 	0.0241	0.7721	0.7167	-0.017
Mof_C 	C 	0.2214	0.8503	0.1916	0.274
Mof_C 	C 	0.8801	0.485	0.8013	0.084
Mof_H 	H 	0.8638	0.4847	0.951	-0.054
Mof_H 	H 	0.9319	0.4545	0.7884	-0.015
Mof_C 	C 	0.8132	0.4439	0.6703	0.003
Mof_C 	C 	0.7715	0.3742	0.7402	-0.045
Mof_H 	H 	0.7834	0.3519	0.8736	0.039
Mof_C 	C 	0.7124	0.3389	0.6093	-0.051
Mof_C 	C 	0.6973	0.3718	0.4071	-0.056
Mof_H 	H 	0.6595	0.3473	0.3135	0.08
Mof_C 	C 	0.7399	0.4416	0.35	0.041
Mof_H 	H 	0.7293	0.4647	0.2167	0.038
Mof_C 	C 	0.6626	0.2661	0.6874	0.339
Mof_Zn	Zn	0.10478	0.35089	0.95446	1.197
Mof_Zn	Zn	0.15487	0.40279	0.4554	1.218
Mof_O 	O 	0.0704	0.39552	0.2335	-0.511
Mof_O 	O 	0.7633	0.1526	0.3905	-0.436
Mof_O 	O 	0.7387	0.10844	0.0609	-0.362
Mof_O 	O 	0.10624	0.43392	0.7346	-0.576
Mof_O 	O 	0.3327	0.7495	0.8859	-0.491
Mof_O 	O 	0.3811	0.77194	0.5578	-0.433
Mof_N 	N 	0.98532	0.29417	0.9787	-0.31
Mof_N 	N 	0.20403	0.52244	0.4788	-0.222
Mof_C 	C 	0.989	0.3763	0.3012	-0.021
Mof_H 	H 	0.954	0.4244	0.2889	0.041
Mof_H 	H 	0.9904	0.3604	0.4509	0.013
Mof_C 	C 	0.9513	0.3078	0.1702	0.175
Mof_C 	C 	0.8839	0.2611	0.2446	-0.186
Mof_H 	H 	0.862	0.27	0.3806	0.113
Mof_C 	C 	0.8507	0.202	0.1141	0.161
Mof_C 	C 	0.8831	0.1914	0.9086	-0.284
Mof_H 	H 	0.859	0.1545	0.8137	0.123
Mof_C 	C 	0.9518	0.237	0.8502	0.132
Mof_H 	H 	0.9759	0.2279	0.7167	-0.017
Mof_C 	C 	0.7786	0.1497	0.1916	0.274
Mof_C 	C 	0.1199	0.515	0.8013	0.084
Mof_H 	H 	0.1362	0.5153	0.951	-0.054
Mof_H 	H 	0.0681	0.5455	0.7884	-0.015
Mof_C 	C 	0.1868	0.5561	0.6703	0.003
Mof_C 	C 	0.2285	0.6258	0.7402	-0.045
Mof_H 	H 	0.2166	0.6481	0.8736	0.039
Mof_C 	C 	0.2876	0.6611	0.6093	-0.051
Mof_C 	C 	0.3027	0.6282	0.4071	-0.056
Mof_H 	H 	0.3405	0.6527	0.3135	0.08
Mof_C 	C 	0.2601	0.5584	0.35	0.041
Mof_H 	H 	0.2707	0.5353	0.2167	0.038
Mof_C 	C 	0.3374	0.7339	0.6874	0.339
Mof_Zn	Zn	0.39522	0.85089	0.95446	1.197
Mof_Zn	Zn	0.34513	0.90279	0.4554	1.218
Mof_O 	O 	0.4296	0.89552	0.2335	-0.511
Mof_O 	O 	0.7367	0.6526	0.3905	-0.436
Mof_O 	O 	0.7613	0.60844	0.0609	-0.362
Mof_O 	O 	0.39376	0.93392	0.7346	-0.576
Mof_O 	O 	0.1673	0.2495	0.8859	-0.491
Mof_O 	O 	0.1189	0.27194	0.5578	-0.433
Mof_N 	N 	0.51468	0.79417	0.9787	-0.31
Mof_N 	N 	0.29597	0.02244	0.4788	-0.222
Mof_C 	C 	0.511	0.8763	0.3012	-0.021
Mof_H 	H 	0.546	0.9244	0.2889	0.041
Mof_H 	H 	0.5096	0.8604	0.4509	0.013
Mof_C 	C 	0.5487	0.8078	0.1702	0.176
Mof_C 	C 	0.6161	0.7611	0.2446	-0.186
Mof_H 	H 	0.638	0.77	0.3806	0.113
Mof_C 	C 	0.6493	0.702	0.1141	0.163
Mof_C 	C 	0.6169	0.6914	0.9086	-0.285
Mof_H 	H 	0.641	0.6545	0.8137	0.124
Mof_C 	C 	0.5482	0.737	0.8502	0.133
Mof_H 	H 	0.5241	0.7279	0.7167	-0.017
Mof_C 	C 	0.7214	0.6497	0.1916	0.274
Mof_C 	C 	0.3801	0.015	0.8013	0.084
Mof_H 	H 	0.3638	0.0153	0.951	-0.054
Mof_H 	H 	0.4319	0.0455	0.7884	-0.015
Mof_C 	C 	0.3132	0.0561	0.6703	0.003
Mof_C 	C 	0.2715	0.1258	0.7402	-0.045
Mof_H 	H 	0.2834	0.1481	0.8736	0.039
Mof_C 	C 	0.2124	0.1611	0.6093	-0.051
Mof_C 	C 	0.1973	0.1282	0.4071	-0.056
Mof_H 	H 	0.1595	0.1527	0.3135	0.08
Mof_C 	C 	0.2399	0.0584	0.35	0.041
Mof_H 	H 	0.2293	0.0353	0.2167	0.038
Mof_C 	C 	0.1626	0.2339	0.6874	0.339
Mof_Zn	Zn	0.60478	0.14911	0.95446	1.197
Mof_Zn	Zn	0.65487	0.09721	0.4554	1.218
Mof_O 	O 	0.5704	0.10448	0.2335	-0.511
Mof_O 	O 	0.2633	0.3474	0.3905	-0.436
Mof_O 	O 	0.2387	0.39156	0.0609	-0.362
Mof_O 	O 	0.60624	0.06608	0.7346	-0.576
Mof_O 	O 	0.8327	0.7505	0.8859	-0.491
Mof_O 	O 	0.8811	0.72806	0.5578	-0.433
Mof_N 	N 	0.48532	0.20583	0.9787	-0.31
Mof_N 	N 	0.70403	0.97756	0.4788	-0.222
Mof_C 	C 	0.489	0.1237	0.3012	-0.021
Mof_H 	H 	0.454	0.0756	0.2889	0.041
Mof_H 	H 	0.4904	0.1396	0.4509	0.013
Mof_C 	C 	0.4513	0.1922	0.1702	0.176
Mof_C 	C 	0.3839	0.2389	0.2446	-0.186
Mof_H 	H 	0.362	0.23	0.3806	0.113
Mof_C 	C 	0.3507	0.298	0.1141	0.163
Mof_C 	C 	0.3831	0.3086	0.9086	-0.285
Mof_H 	H 	0.359	0.3455	0.8137	0.124
Mof_C 	C 	0.4518	0.263	0.8502	0.133
Mof_H 	H 	0.4759	0.2721	0.7167	-0.017
Mof_C 	C 	0.2786	0.3503	0.1916	0.274
Mof_C 	C 	0.6199	0.985	0.8013	0.084
Mof_H 	H 	0.6362	0.9847	0.951	-0.054
Mof_H 	H 	0.5681	0.9545	0.7884	-0.015
Mof_C 	C 	0.6868	0.9439	0.6703	0.003
Mof_C 	C 	0.7285	0.8742	0.7402	-0.045
Mof_H 	H 	0.7166	0.8519	0.8736	0.039
Mof_C 	C 	0.7876	0.8389	0.6093	-0.051
Mof_C 	C 	0.8027	0.8718	0.4071	-0.056
Mof_H 	H 	0.8405	0.8473	0.3135	0.08
Mof_C 	C 	0.7601	0.9416	0.35	0.041
Mof_H 	H 	0.7707	0.9647	0.2167	0.038
Mof_C 	C 	0.8374	0.7661	0.6874	0.339
_end
