# CIF file generated by openbabel 3.1.0, see https://openbabel.org
data_I
_chemical_name_common 'image0'
_cell_length_a 9.3359
_cell_length_b 11.2684
_cell_length_c 18.8508
_cell_angle_alpha 79.415
_cell_angle_beta 79.414
_cell_angle_gamma 66.27
_space_group_name_H-M_alt 'P 1'
_space_group_name_Hall 'P 1'
loop_
    _symmetry_equiv_pos_as_xyz
    x,y,z
loop_
    _atom_site_label
    _atom_site_type_symbol
    _atom_site_fract_x
    _atom_site_fract_y
    _atom_site_fract_z
    _atom_site_occupancy
    N1       N        0.99880    0.31640    0.49725    1.000
    O1       O        0.84730    0.58799    0.42149    1.000
    C1       C        0.86780    0.29790    0.49750    1.000
    C2       C        0.13100    0.21120    0.49700    1.000
    C3       C        0.87380    0.57930    0.35514    1.000
    H1       H        0.77350    0.37050    0.49690    1.000
    C4       C        0.86280    0.17650    0.49870    1.000
    H2       H        0.22510    0.22160    0.49640    1.000
    C5       C        0.13650    0.08700    0.49750    1.000
    C6       C        0.75750    0.68370    0.30725    1.000
    O2       O        0.99170    0.49600    0.32379    1.000
    H3       H        0.76680    0.16930    0.49930    1.000
    C7       C        0.99960    0.06640    0.49911    1.000
    H4       H        0.23290    0.01650    0.49670    1.000
    C8       C        0.80850    0.70140    0.23331    1.000
    C9       C        0.60980    0.76990    0.33441    1.000
    C10      C        0.71560    0.80250    0.18786    1.000
    H5       H        0.90620    0.64450    0.21440    1.000
    C11      C        0.51960    0.87180    0.28793    1.000
    C12      C        0.53980    0.75670    0.41323    1.000
    C13      C        0.57390    0.88820    0.21380    1.000
    O3       O        0.78480    0.82300    0.11635    1.000
    H6       H        0.42190    0.92990    0.30610    1.000
    O4       O        0.50050    0.66110    0.43562    1.000
    O5       O        0.51610    0.84700    0.44927    1.000
    H7       H        0.51330    0.95710    0.18290    1.000
    C14      C        0.71800    0.81870    0.05801    1.000
    C15      C        0.59800    0.77510    0.06265    1.000
    C16      C        0.78720    0.85610    0.99116    1.000
    C17      C        0.55340    0.76320    0.99816    1.000
    H8       H        0.54780    0.75400    0.10760    1.000
    C18      C        0.74290    0.84280    0.92821    1.000
    H9       H        0.86370    0.89030    0.98860    1.000
    C19      C        0.62610    0.79410    0.93101    1.000
    H10      H        0.47260    0.73380    0.00070    1.000
    H11      H        0.79150    0.86660    0.88340    1.000
    C20      C        0.59150    0.76930    0.86134    1.000
    O6       O        0.48150    0.72747    0.86606    1.000
    O7       O        0.67440    0.78830    0.80418    1.000
    Ni1      Ni       0.39383    0.68733    0.78361    1.000
    N2       N        0.56870    0.49160    0.78738    1.000
    N3       N        0.24940    0.61410    0.86419    1.000
    N4       N        0.21300    0.87850    0.78186    1.000
    C21      C        0.59780    0.41680    0.73554    1.000
    C22      C        0.66160    0.44020    0.84011    1.000
    C23      C        0.14250    0.57890    0.84791    1.000
    C24      C        0.26200    0.60000    0.93508    1.000
    H12      H        0.53100    0.44700    0.69960    1.000
    C25      C        0.72050    0.29760    0.73172    1.000
    H13      H        0.64210    0.48800    0.87850    1.000
    C26      C        0.78480    0.32040    0.84103    1.000
    H14      H        0.13370    0.58400    0.79900    1.000
    C27      C        0.04180    0.53470    0.89873    1.000
    H15      H        0.33840    0.62160    0.94880    1.000
    C28      C        0.16730    0.55500    0.98917    1.000
    H16      H        0.73710    0.25140    0.69280    1.000
    C29      C        0.81930    0.24600    0.78537    1.000
    H17      H        0.84500    0.28950    0.87960    1.000
    H18      H        0.96710    0.51280    0.88370    1.000
    C30      C        0.05330    0.52320    0.97174    1.000
    H19      H        0.18180    0.54640    0.03760    1.000
    C31      C        0.95470    0.11830    0.78386    1.000
    C32      C        0.03870    0.07250    0.71935    1.000
    C33      C        0.00560    0.04030    0.84783    1.000
    H20      H        0.01030    0.12160    0.67520    1.000
    C34      C        0.16490    0.95370    0.72056    1.000
    H21      H        0.95360    0.06640    0.89270    1.000
    C35      C        0.13340    0.92420    0.84393    1.000
    H22      H        0.21900    0.92470    0.67650    1.000
    H23      H        0.16660    0.87440    0.88730    1.000
    N5       N        0.00120    0.68360    0.50275    1.000
    O8       O        0.15270    0.41201    0.57851    1.000
    C36      C        0.13220    0.70210    0.50250    1.000
    C37      C        0.86900    0.78880    0.50300    1.000
    C38      C        0.12620    0.42070    0.64486    1.000
    H24      H        0.22650    0.62950    0.50310    1.000
    C39      C        0.13720    0.82350    0.50130    1.000
    H25      H        0.77490    0.77840    0.50360    1.000
    C40      C        0.86350    0.91300    0.50250    1.000
    C41      C        0.24250    0.31630    0.69275    1.000
    O9       O        0.00830    0.50400    0.67621    1.000
    H26      H        0.23320    0.83070    0.50070    1.000
    C42      C        0.00040    0.93360    0.50089    1.000
    H27      H        0.76710    0.98350    0.50330    1.000
    C43      C        0.19150    0.29860    0.76669    1.000
    C44      C        0.39020    0.23010    0.66559    1.000
    C45      C        0.28440    0.19750    0.81214    1.000
    H28      H        0.09380    0.35550    0.78560    1.000
    C46      C        0.48040    0.12820    0.71207    1.000
    C47      C        0.46020    0.24330    0.58677    1.000
    C48      C        0.42610    0.11180    0.78620    1.000
    O10      O        0.21520    0.17700    0.88365    1.000
    H29      H        0.57810    0.07010    0.69390    1.000
    O11      O        0.49950    0.33890    0.56438    1.000
    O12      O        0.48390    0.15300    0.55073    1.000
    H30      H        0.48670    0.04290    0.81710    1.000
    C49      C        0.28200    0.18130    0.94199    1.000
    C50      C        0.40200    0.22490    0.93735    1.000
    C51      C        0.21280    0.14390    0.00884    1.000
    C52      C        0.44660    0.23680    0.00184    1.000
    H31      H        0.45220    0.24600    0.89240    1.000
    C53      C        0.25710    0.15720    0.07179    1.000
    H32      H        0.13630    0.10970    0.01140    1.000
    C54      C        0.37390    0.20590    0.06899    1.000
    H33      H        0.52740    0.26620    0.99930    1.000
    H34      H        0.20850    0.13340    0.11660    1.000
    C55      C        0.40850    0.23070    0.13866    1.000
    O13      O        0.51850    0.27253    0.13394    1.000
    O14      O        0.32560    0.21170    0.19582    1.000
    Ni2      Ni       0.60617    0.31267    0.21639    1.000
    N6       N        0.43130    0.50840    0.21262    1.000
    N7       N        0.75060    0.38590    0.13581    1.000
    N8       N        0.78700    0.12150    0.21814    1.000
    C56      C        0.40220    0.58320    0.26446    1.000
    C57      C        0.33840    0.55980    0.15989    1.000
    C58      C        0.85750    0.42110    0.15209    1.000
    C59      C        0.73800    0.40000    0.06492    1.000
    H35      H        0.46900    0.55300    0.30040    1.000
    C60      C        0.27950    0.70240    0.26828    1.000
    H36      H        0.35790    0.51200    0.12150    1.000
    C61      C        0.21520    0.67960    0.15897    1.000
    H37      H        0.86630    0.41600    0.20100    1.000
    C62      C        0.95820    0.46530    0.10127    1.000
    H38      H        0.66160    0.37840    0.05120    1.000
    C63      C        0.83270    0.44500    0.01083    1.000
    H39      H        0.26290    0.74860    0.30720    1.000
    C64      C        0.18070    0.75400    0.21463    1.000
    H40      H        0.15500    0.71050    0.12040    1.000
    H41      H        0.03290    0.48720    0.11630    1.000
    C65      C        0.94670    0.47680    0.02826    1.000
    H42      H        0.81820    0.45360    0.96240    1.000
    C66      C        0.04530    0.88170    0.21614    1.000
    C67      C        0.96130    0.92750    0.28065    1.000
    C68      C        0.99440    0.95970    0.15217    1.000
    H43      H        0.98970    0.87840    0.32480    1.000
    C69      C        0.83510    0.04630    0.27944    1.000
    H44      H        0.04640    0.93360    0.10730    1.000
    C70      C        0.86660    0.07580    0.15607    1.000
    H45      H        0.78100    0.07530    0.32350    1.000
    H46      H        0.83340    0.12560    0.11270    1.000
    Ni3      Ni       0.00000    0.50000    0.50000    1.000
