# CIF file generated by openbabel 3.1.0, see https://openbabel.org
data_I
_chemical_name_common 'image0'
_cell_length_a 10.599
_cell_length_b 10.681
_cell_length_c 11.424
_cell_angle_alpha 82.67
_cell_angle_beta 74.14
_cell_angle_gamma 69.32
_space_group_name_H-M_alt 'P 1'
_space_group_name_Hall 'P 1'
loop_
    _symmetry_equiv_pos_as_xyz
    x,y,z
loop_
    _atom_site_label
    _atom_site_type_symbol
    _atom_site_fract_x
    _atom_site_fract_y
    _atom_site_fract_z
    _atom_site_occupancy
    Pr1      Pr       0.58905    0.59790    0.62865    1.000
    O1       O        0.39700    0.62390    0.40860    1.000
    O2       O        0.47090    0.75300    0.49100    1.000
    O3       O        0.26750    0.25440    0.44750    1.000
    O4       O        0.04080    0.32150    0.45520    1.000
    O5       O        0.87760    0.06020    0.26040    1.000
    O6       O        0.95660    0.84760    0.27470    1.000
    O7       O        0.00800    0.43960    0.66780    1.000
    O8       O        0.78110    0.48530    0.71640    1.000
    O9       O        0.53590    0.47780    0.15970    1.000
    O10      O        0.66170    0.38650    0.29270    1.000
    O11      O        0.17120    0.25130    0.15740    1.000
    O12      O        0.27050    0.23980    0.96710    1.000
    N1       N        0.96270    0.95630    0.28500    1.000
    N2       N        0.16760    0.26520    0.05100    1.000
    C1       C        0.28000    0.85830    0.40500    1.000
    C2       C        0.27580    0.98430    0.43140    1.000
    H1       H        0.34520    0.99130    0.46270    1.000
    C3       C        0.16920    0.09840    0.41140    1.000
    C4       C        0.06480    0.08830    0.36430    1.000
    H2       H        0.99100    0.16390    0.35270    1.000
    C5       C        0.07400    0.96380    0.33540    1.000
    C6       C        0.17780    0.84790    0.35550    1.000
    H3       H        0.17960    0.76500    0.33650    1.000
    C7       C        0.39100    0.73520    0.43570    1.000
    C8       C        0.16080    0.23510    0.44020    1.000
    C9       C        0.89900    0.41370    0.87390    1.000
    C10      C        0.77760    0.43810    0.96500    1.000
    H4       H        0.69210    0.47650    0.94540    1.000
    C11      C        0.78250    0.40550    0.08630    1.000
    C12      C        0.91090    0.34740    0.11540    1.000
    H5       H        0.91580    0.32470    0.19570    1.000
    C13      C        0.03070    0.32410    0.02220    1.000
    C14      C        0.02800    0.35530    0.90180    1.000
    H6       H        0.11010    0.33790    0.84080    1.000
    C15      C        0.89470    0.44950    0.74330    1.000
    C16      C        0.65070    0.42660    0.18540    1.000
    Pr2      Pr       0.41095    0.40210    0.37135    1.000
    O13      O        0.60300    0.37610    0.59140    1.000
    O14      O        0.52910    0.24700    0.50900    1.000
    O15      O        0.73250    0.74560    0.55250    1.000
    O16      O        0.95920    0.67850    0.54480    1.000
    O17      O        0.12240    0.93980    0.73960    1.000
    O18      O        0.04340    0.15240    0.72530    1.000
    O19      O        0.99200    0.56040    0.33220    1.000
    O20      O        0.21890    0.51470    0.28360    1.000
    O21      O        0.46410    0.52220    0.84030    1.000
    O22      O        0.33830    0.61350    0.70730    1.000
    O23      O        0.82880    0.74870    0.84260    1.000
    O24      O        0.72950    0.76020    0.03290    1.000
    N3       N        0.03730    0.04370    0.71500    1.000
    N4       N        0.83240    0.73480    0.94900    1.000
    C17      C        0.72000    0.14170    0.59500    1.000
    C18      C        0.72420    0.01570    0.56860    1.000
    H7       H        0.65480    0.00870    0.53730    1.000
    C19      C        0.83080    0.90160    0.58860    1.000
    C20      C        0.93520    0.91170    0.63570    1.000
    H8       H        0.00900    0.83610    0.64730    1.000
    C21      C        0.92600    0.03620    0.66460    1.000
    C22      C        0.82220    0.15210    0.64450    1.000
    H9       H        0.82040    0.23500    0.66350    1.000
    C23      C        0.60900    0.26480    0.56430    1.000
    C24      C        0.83920    0.76490    0.55980    1.000
    C25      C        0.10100    0.58630    0.12610    1.000
    C26      C        0.22240    0.56190    0.03500    1.000
    H10      H        0.30790    0.52350    0.05460    1.000
    C27      C        0.21750    0.59450    0.91370    1.000
    C28      C        0.08910    0.65260    0.88460    1.000
    H11      H        0.08420    0.67530    0.80430    1.000
    C29      C        0.96930    0.67590    0.97780    1.000
    C30      C        0.97200    0.64470    0.09820    1.000
    H12      H        0.88990    0.66210    0.15920    1.000
    C31      C        0.10530    0.55050    0.25670    1.000
    C32      C        0.34930    0.57340    0.81460    1.000
    Cu1      Cu       0.00000    0.50000    0.50000    1.000
