# CIF file generated by openbabel 3.1.0, see https://openbabel.org
data_I
_chemical_name_common 'image0'
_cell_length_a 16.7531
_cell_length_b 16.7531
_cell_length_c 10.8111
_cell_angle_alpha 90
_cell_angle_beta 90
_cell_angle_gamma 120
_space_group_name_H-M_alt 'P 1'
_space_group_name_Hall 'P 1'
loop_
    _symmetry_equiv_pos_as_xyz
    x,y,z
loop_
    _atom_site_label
    _atom_site_type_symbol
    _atom_site_fract_x
    _atom_site_fract_y
    _atom_site_fract_z
    _atom_site_occupancy
    C1       C        0.03490    0.36570    0.34060    1.000
    C2       C        0.10220    0.46870    0.32150    1.000
    H1       H        0.09140    0.48690    0.24090    1.000
    H2       H        0.09050    0.50340    0.38350    1.000
    C3       C        0.25770    0.57800    0.32630    1.000
    C4       C        0.24450    0.65190    0.32590    1.000
    H3       H        0.18490    0.64250    0.32540    1.000
    C5       C        0.84310    0.11560    0.06800    1.000
    H4       H        0.83410    0.06410    0.11200    1.000
    C6       C        0.86860    0.26410    0.06450    1.000
    H5       H        0.87750    0.31720    0.10400    1.000
    C7       C        0.85790    0.18860    0.13120    1.000
    O1       O        0.94994    0.34219    0.34250    1.000
    O2       O        0.06509    0.31579    0.35080    1.000
    O3       O        0.19030    0.48978    0.32910    1.000
    Cu1      Cu       0.85044    0.20332    0.31982    1.000
    H6       H        0.86080    0.18960    0.21070    1.000
    H7       H        0.82780    0.16160    0.45300    1.000
    H8       H        0.91920    0.22410    0.48040    1.000
    N1       N        0.81140    0.66930    0.13120    1.000
    C8       C        0.63430    0.66920    0.34060    1.000
    C9       C        0.53130    0.63350    0.32150    1.000
    H9       H        0.51310    0.60450    0.24090    1.000
    H10      H        0.49660    0.58710    0.38350    1.000
    C10      C        0.42200    0.67970    0.32630    1.000
    C11      C        0.34810    0.59260    0.32590    1.000
    H11      H        0.35750    0.54240    0.32540    1.000
    C12      C        0.88440    0.72750    0.06800    1.000
    H12      H        0.93590    0.77000    0.11200    1.000
    C13      C        0.73590    0.60450    0.06450    1.000
    H13      H        0.68280    0.56030    0.10400    1.000
    O4       O        0.65781    0.60775    0.34250    1.000
    O5       O        0.68421    0.74930    0.35080    1.000
    O6       O        0.51022    0.70052    0.32910    1.000
    Cu2      Cu       0.79668    0.64712    0.31982    1.000
    H14      H        0.81040    0.67120    0.21070    1.000
    H15      H        0.83840    0.66620    0.45300    1.000
    H16      H        0.77590    0.69510    0.48040    1.000
    N2       N        0.33070    0.14210    0.13120    1.000
    C14      C        0.33080    0.96510    0.34060    1.000
    C15      C        0.36650    0.89780    0.32150    1.000
    H17      H        0.39550    0.90860    0.24090    1.000
    H18      H        0.41290    0.90950    0.38350    1.000
    C16      C        0.32030    0.74230    0.32630    1.000
    C17      C        0.40740    0.75550    0.32590    1.000
    H19      H        0.45760    0.81510    0.32540    1.000
    C18      C        0.27250    0.15690    0.06800    1.000
    H20      H        0.23000    0.16590    0.11200    1.000
    C19      C        0.39550    0.13140    0.06450    1.000
    H21      H        0.43970    0.12250    0.10400    1.000
    O7       O        0.39225    0.05006    0.34250    1.000
    O8       O        0.25070    0.93491    0.35080    1.000
    O9       O        0.29948    0.80970    0.32910    1.000
    Cu3      Cu       0.35288    0.14956    0.31982    1.000
    H22      H        0.32880    0.13920    0.21070    1.000
    H23      H        0.33380    0.17220    0.45300    1.000
    H24      H        0.30490    0.08080    0.48040    1.000
    C20      C        0.96510    0.63430    0.34060    1.000
    C21      C        0.89780    0.53130    0.32150    1.000
    H25      H        0.90860    0.51310    0.24090    1.000
    H26      H        0.90950    0.49660    0.38350    1.000
    C22      C        0.74230    0.42200    0.32630    1.000
    C23      C        0.75550    0.34810    0.32590    1.000
    H27      H        0.81510    0.35750    0.32540    1.000
    C24      C        0.15690    0.88440    0.06800    1.000
    H28      H        0.16590    0.93590    0.11200    1.000
    C25      C        0.13140    0.73590    0.06450    1.000
    H29      H        0.12250    0.68280    0.10400    1.000
    C26      C        0.14210    0.81140    0.13120    1.000
    O10      O        0.05006    0.65781    0.34250    1.000
    O11      O        0.93491    0.68421    0.35080    1.000
    O12      O        0.80970    0.51022    0.32910    1.000
    Cu4      Cu       0.14956    0.79668    0.31982    1.000
    H30      H        0.13920    0.81040    0.21070    1.000
    H31      H        0.17220    0.83840    0.45300    1.000
    H32      H        0.08080    0.77590    0.48040    1.000
    N3       N        0.18860    0.33070    0.13120    1.000
    C27      C        0.36570    0.33080    0.34060    1.000
    C28      C        0.46870    0.36650    0.32150    1.000
    H33      H        0.48690    0.39550    0.24090    1.000
    H34      H        0.50340    0.41290    0.38350    1.000
    C29      C        0.57800    0.32030    0.32630    1.000
    C30      C        0.65190    0.40740    0.32590    1.000
    H35      H        0.64250    0.45760    0.32540    1.000
    C31      C        0.11560    0.27250    0.06800    1.000
    H36      H        0.06410    0.23000    0.11200    1.000
    C32      C        0.26410    0.39550    0.06450    1.000
    H37      H        0.31720    0.43970    0.10400    1.000
    O13      O        0.34219    0.39225    0.34250    1.000
    O14      O        0.31579    0.25070    0.35080    1.000
    O15      O        0.48978    0.29948    0.32910    1.000
    Cu5      Cu       0.20332    0.35288    0.31982    1.000
    H38      H        0.18960    0.32880    0.21070    1.000
    H39      H        0.16160    0.33380    0.45300    1.000
    H40      H        0.22410    0.30490    0.48040    1.000
    N4       N        0.66930    0.85790    0.13120    1.000
    C33      C        0.66920    0.03490    0.34060    1.000
    C34      C        0.63350    0.10220    0.32150    1.000
    H41      H        0.60450    0.09140    0.24090    1.000
    H42      H        0.58710    0.09050    0.38350    1.000
    C35      C        0.67970    0.25770    0.32630    1.000
    C36      C        0.59260    0.24450    0.32590    1.000
    H43      H        0.54240    0.18490    0.32540    1.000
    C37      C        0.72750    0.84310    0.06800    1.000
    H44      H        0.77000    0.83410    0.11200    1.000
    C38      C        0.60450    0.86860    0.06450    1.000
    H45      H        0.56030    0.87750    0.10400    1.000
    O16      O        0.60775    0.94994    0.34250    1.000
    O17      O        0.74930    0.06509    0.35080    1.000
    O18      O        0.70052    0.19030    0.32910    1.000
    Cu6      Cu       0.64712    0.85044    0.31982    1.000
    H46      H        0.67120    0.86080    0.21070    1.000
    H47      H        0.66620    0.82780    0.45300    1.000
    H48      H        0.69510    0.91920    0.48040    1.000
    C39      C        0.96510    0.63430    0.65940    1.000
    C40      C        0.89780    0.53130    0.67850    1.000
    H49      H        0.90860    0.51310    0.75910    1.000
    H50      H        0.90950    0.49660    0.61650    1.000
    C41      C        0.74230    0.42200    0.67370    1.000
    C42      C        0.75550    0.34810    0.67410    1.000
    H51      H        0.81510    0.35750    0.67460    1.000
    C43      C        0.15690    0.88440    0.93200    1.000
    H52      H        0.16590    0.93590    0.88800    1.000
    C44      C        0.13140    0.73590    0.93550    1.000
    H53      H        0.12250    0.68280    0.89600    1.000
    C45      C        0.14210    0.81140    0.86880    1.000
    O19      O        0.05006    0.65781    0.65750    1.000
    O20      O        0.93491    0.68421    0.64920    1.000
    O21      O        0.80970    0.51022    0.67090    1.000
    Cu7      Cu       0.14956    0.79668    0.68018    1.000
    H54      H        0.13920    0.81040    0.78930    1.000
    H55      H        0.17220    0.83840    0.54700    1.000
    H56      H        0.08080    0.77590    0.51960    1.000
    N5       N        0.18860    0.33070    0.86880    1.000
    C46      C        0.36570    0.33080    0.65940    1.000
    C47      C        0.46870    0.36650    0.67850    1.000
    H57      H        0.48690    0.39550    0.75910    1.000
    H58      H        0.50340    0.41290    0.61650    1.000
    C48      C        0.57800    0.32030    0.67370    1.000
    C49      C        0.65190    0.40740    0.67410    1.000
    H59      H        0.64250    0.45760    0.67460    1.000
    C50      C        0.11560    0.27250    0.93200    1.000
    H60      H        0.06410    0.23000    0.88800    1.000
    C51      C        0.26410    0.39550    0.93550    1.000
    H61      H        0.31720    0.43970    0.89600    1.000
    O22      O        0.34219    0.39225    0.65750    1.000
    O23      O        0.31579    0.25070    0.64920    1.000
    O24      O        0.48978    0.29948    0.67090    1.000
    Cu8      Cu       0.20332    0.35288    0.68018    1.000
    H62      H        0.18960    0.32880    0.78930    1.000
    H63      H        0.16160    0.33380    0.54700    1.000
    H64      H        0.22410    0.30490    0.51960    1.000
    N6       N        0.66930    0.85790    0.86880    1.000
    C52      C        0.66920    0.03490    0.65940    1.000
    C53      C        0.63350    0.10220    0.67850    1.000
    H65      H        0.60450    0.09140    0.75910    1.000
    H66      H        0.58710    0.09050    0.61650    1.000
    C54      C        0.67970    0.25770    0.67370    1.000
    C55      C        0.59260    0.24450    0.67410    1.000
    H67      H        0.54240    0.18490    0.67460    1.000
    C56      C        0.72750    0.84310    0.93200    1.000
    H68      H        0.77000    0.83410    0.88800    1.000
    C57      C        0.60450    0.86860    0.93550    1.000
    H69      H        0.56030    0.87750    0.89600    1.000
    O25      O        0.60775    0.94994    0.65750    1.000
    O26      O        0.74930    0.06509    0.64920    1.000
    O27      O        0.70052    0.19030    0.67090    1.000
    Cu9      Cu       0.64712    0.85044    0.68018    1.000
    H70      H        0.67120    0.86080    0.78930    1.000
    H71      H        0.66620    0.82780    0.54700    1.000
    H72      H        0.69510    0.91920    0.51960    1.000
    C58      C        0.03490    0.36570    0.65940    1.000
    C59      C        0.10220    0.46870    0.67850    1.000
    H73      H        0.09140    0.48690    0.75910    1.000
    H74      H        0.09050    0.50340    0.61650    1.000
    C60      C        0.25770    0.57800    0.67370    1.000
    C61      C        0.24450    0.65190    0.67410    1.000
    H75      H        0.18490    0.64250    0.67460    1.000
    C62      C        0.84310    0.11560    0.93200    1.000
    H76      H        0.83410    0.06410    0.88800    1.000
    C63      C        0.86860    0.26410    0.93550    1.000
    H77      H        0.87750    0.31720    0.89600    1.000
    C64      C        0.85790    0.18860    0.86880    1.000
    O28      O        0.94994    0.34219    0.65750    1.000
    O29      O        0.06509    0.31579    0.64920    1.000
    O30      O        0.19030    0.48978    0.67090    1.000
    Cu10     Cu       0.85044    0.20332    0.68018    1.000
    H78      H        0.86080    0.18960    0.78930    1.000
    H79      H        0.82780    0.16160    0.54700    1.000
    H80      H        0.91920    0.22410    0.51960    1.000
    N7       N        0.81140    0.66930    0.86880    1.000
    C65      C        0.63430    0.66920    0.65940    1.000
    C66      C        0.53130    0.63350    0.67850    1.000
    H81      H        0.51310    0.60450    0.75910    1.000
    H82      H        0.49660    0.58710    0.61650    1.000
    C67      C        0.42200    0.67970    0.67370    1.000
    C68      C        0.34810    0.59260    0.67410    1.000
    H83      H        0.35750    0.54240    0.67460    1.000
    C69      C        0.88440    0.72750    0.93200    1.000
    H84      H        0.93590    0.77000    0.88800    1.000
    C70      C        0.73590    0.60450    0.93550    1.000
    H85      H        0.68280    0.56030    0.89600    1.000
    O31      O        0.65781    0.60775    0.65750    1.000
    O32      O        0.68421    0.74930    0.64920    1.000
    O33      O        0.51022    0.70052    0.67090    1.000
    Cu11     Cu       0.79668    0.64712    0.68018    1.000
    H86      H        0.81040    0.67120    0.78930    1.000
    H87      H        0.83840    0.66620    0.54700    1.000
    H88      H        0.77590    0.69510    0.51960    1.000
    N8       N        0.33070    0.14210    0.86880    1.000
    C71      C        0.33080    0.96510    0.65940    1.000
    C72      C        0.36650    0.89780    0.67850    1.000
    H89      H        0.39550    0.90860    0.75910    1.000
    H90      H        0.41290    0.90950    0.61650    1.000
    C73      C        0.32030    0.74230    0.67370    1.000
    C74      C        0.40740    0.75550    0.67410    1.000
    H91      H        0.45760    0.81510    0.67460    1.000
    C75      C        0.27250    0.15690    0.93200    1.000
    H92      H        0.23000    0.16590    0.88800    1.000
    C76      C        0.39550    0.13140    0.93550    1.000
    H93      H        0.43970    0.12250    0.89600    1.000
    O34      O        0.39225    0.05006    0.65750    1.000
    O35      O        0.25070    0.93491    0.64920    1.000
    O36      O        0.29948    0.80970    0.67090    1.000
    Cu12     Cu       0.35288    0.14956    0.68018    1.000
    H94      H        0.32880    0.13920    0.78930    1.000
    H95      H        0.33380    0.17220    0.54700    1.000
    H96      H        0.30490    0.08080    0.51960    1.000
    O37      O        0.86350    0.20580    0.50000    1.000
    O38      O        0.79420    0.65770    0.50000    1.000
    O39      O        0.34230    0.13650    0.50000    1.000
    O40      O        0.13650    0.79420    0.50000    1.000
    O41      O        0.20580    0.34230    0.50000    1.000
    O42      O        0.65770    0.86350    0.50000    1.000
