data_functionalizedCrystal
_audit_creation_method	'EQeq! by Chris Wilmer'
_symmetry_space_group_name_H-M	'P1'
_symmetry_Int_Tables_number	1
_symmetry_cell_setting	triclinic
loop_
_symmetry_equiv_pos_as_xyz
  x,y,z
_cell_length_a	26.3215
_cell_length_b	26.3215
_cell_length_c	26.3215
_cell_angle_alpha	109.471
_cell_angle_beta	109.471
_cell_angle_gamma	109.471
loop_
_atom_site_label
_atom_site_type_symbol
_atom_site_fract_x
_atom_site_fract_y
_atom_site_fract_z
_atom_site_charge
Mof_Cu	Cu	0.26143	0.32248	0.19943	0.845
Mof_Cu	Cu	0.62305	0.062	0.30057	0.845
Mof_Cu	Cu	0.87695	0.17752	0.43895	0.845
Mof_Cu	Cu	0.23857	0.438	0.06105	0.845
Mof_Cu	Cu	0.93895	0.87695	0.67752	0.845
Mof_Cu	Cu	0.56105	0.23857	0.938	0.845
Mof_Cu	Cu	0.69943	0.26143	0.82248	0.845
Mof_Cu	Cu	0.80057	0.62305	0.562	0.845
Mof_Cu	Cu	0.062	0.80057	0.12305	0.845
Mof_Cu	Cu	0.32248	0.69943	0.76143	0.845
Mof_Cu	Cu	0.438	0.56105	0.73857	0.845
Mof_Cu	Cu	0.17752	0.93895	0.37695	0.845
Mof_Cu	Cu	0.562	0.12305	0.80057	0.845
Mof_Cu	Cu	0.82248	0.76143	0.69943	0.845
Mof_Cu	Cu	0.938	0.73857	0.56105	0.845
Mof_Cu	Cu	0.67752	0.37695	0.93895	0.844
Mof_Cu	Cu	0.76143	0.19943	0.32248	0.844
Mof_Cu	Cu	0.12305	0.30057	0.062	0.844
Mof_Cu	Cu	0.37695	0.43895	0.17752	0.844
Mof_Cu	Cu	0.73857	0.06105	0.438	0.844
Mof_Cu	Cu	0.43895	0.67752	0.87695	0.844
Mof_Cu	Cu	0.06105	0.938	0.23857	0.844
Mof_Cu	Cu	0.19943	0.82248	0.26143	0.844
Mof_Cu	Cu	0.30057	0.562	0.62305	0.844
Mof_Cu	Cu	0.25	0.28739	0.03739	0.841
Mof_Cu	Cu	0.75	0.21261	0.46261	0.841
Mof_Cu	Cu	0.96261	0.75	0.71261	0.841
Mof_Cu	Cu	0.53739	0.25	0.78739	0.841
Mof_Cu	Cu	0.21261	0.96261	0.25	0.841
Mof_Cu	Cu	0.28739	0.53739	0.75	0.841
Mof_Cu	Cu	0.71261	0.25	0.96261	0.841
Mof_Cu	Cu	0.78739	0.75	0.53739	0.841
Mof_Cu	Cu	0.75	0.03739	0.28739	0.841
Mof_Cu	Cu	0.25	0.46261	0.21261	0.841
Mof_Cu	Cu	0.46261	0.71261	0.75	0.841
Mof_Cu	Cu	0.03739	0.78739	0.25	0.841
Mof_H 	H 	0.398	0.4203	0.3241	-0.015
Mof_H 	H 	0.2495	0.3158	0.3153	0.03
Mof_H 	H 	0.3246	0.385	0.424	0.037
Mof_H 	H 	0.4919	0.4628	0.4023	0.151
Mof_H 	H 	0.2927	0.3604	0.9699	-0.017
Mof_H 	H 	0.3194	0.2292	0.9904	0.016
Mof_H 	H 	0.3516	0.2453	0.9165	0.039
Mof_H 	H 	0.3177	0.3993	0.9176	0.15
Mof_H 	H 	0.5962	0.0739	0.1759	-0.016
Mof_H 	H 	0.5005	0.9342	0.1847	0.03
Mof_H 	H 	0.461	0.9006	0.076	0.036
Mof_H 	H 	0.5605	0.0896	0.0977	0.151
Mof_H 	H 	0.8905	0.3228	0.5301	-0.017
Mof_H 	H 	0.7388	0.329	0.5096	0.016
Mof_H 	H 	0.8288	0.4351	0.5835	0.039
Mof_H 	H 	0.9817	0.4001	0.5824	0.15
Mof_H 	H 	0.9038	0.0797	0.4777	-0.015
Mof_H 	H 	0.9995	0.1842	0.4337	0.03
Mof_H 	H 	0.039	0.115	0.4396	0.036
Mof_H 	H 	0.9395	0.0372	0.5291	0.151
Mof_H 	H 	0.6095	0.1396	0.4323	-0.017
Mof_H 	H 	0.7612	0.2708	0.5902	0.016
Mof_H 	H 	0.6712	0.2547	0.6063	0.039
Mof_H 	H 	0.5183	0.1007	0.4184	0.15
Mof_H 	H 	0.102	0.4261	0.0223	-0.015
Mof_H 	H 	0.2505	0.5658	0.0663	0.03
Mof_H 	H 	0.1754	0.5994	0.0604	0.036
Mof_H 	H 	0.0081	0.4104	0.9709	0.151
Mof_H 	H 	0.2073	0.1772	0.0677	-0.017
Mof_H 	H 	0.1806	0.171	0.9098	0.016
Mof_H 	H 	0.1484	0.0649	0.8937	0.039
Mof_H 	H 	0.1823	0.0999	0.0816	0.15
Mof_H 	H 	0.9777	0.9038	0.5797	-0.015
Mof_H 	H 	0.9337	0.9995	0.6842	0.029
Mof_H 	H 	0.9396	0.039	0.615	0.037
Mof_H 	H 	0.0291	0.9395	0.5372	0.151
Mof_H 	H 	0.9323	0.6095	0.6396	-0.017
Mof_H 	H 	0.0902	0.7612	0.7708	0.016
Mof_H 	H 	0.1063	0.6712	0.7547	0.039
Mof_H 	H 	0.9184	0.5183	0.6007	0.15
Mof_H 	H 	0.5223	0.102	0.9261	-0.015
Mof_H 	H 	0.5663	0.2505	0.0658	0.03
Mof_H 	H 	0.5604	0.1754	0.0994	0.037
Mof_H 	H 	0.4709	0.0081	0.9104	0.151
Mof_H 	H 	0.5677	0.2073	0.6772	-0.017
Mof_H 	H 	0.4098	0.1806	0.671	0.016
Mof_H 	H 	0.3937	0.1484	0.5649	0.039
Mof_H 	H 	0.5816	0.1823	0.5999	0.15
Mof_H 	H 	0.8241	0.398	0.9203	-0.015
Mof_H 	H 	0.8153	0.2495	0.8158	0.03
Mof_H 	H 	0.924	0.3246	0.885	0.036
Mof_H 	H 	0.9023	0.4919	0.9628	0.151
Mof_H 	H 	0.4699	0.2927	0.8604	-0.017
Mof_H 	H 	0.4904	0.3194	0.7292	0.016
Mof_H 	H 	0.4165	0.3516	0.7453	0.039
Mof_H 	H 	0.4176	0.3177	0.8993	0.15
Mof_H 	H 	0.6759	0.5962	0.5739	-0.015
Mof_H 	H 	0.6847	0.5005	0.4342	0.03
Mof_H 	H 	0.576	0.461	0.4006	0.037
Mof_H 	H 	0.5977	0.5605	0.5896	0.151
Mof_H 	H 	0.0301	0.8905	0.8228	-0.017
Mof_H 	H 	0.0096	0.7388	0.829	0.016
Mof_H 	H 	0.0835	0.8288	0.9351	0.039
Mof_H 	H 	0.0824	0.9817	0.9001	0.15
Mof_H 	H 	0.0739	0.6759	0.0962	-0.015
Mof_H 	H 	0.9342	0.6847	0.0005	0.03
Mof_H 	H 	0.9006	0.576	0.961	0.036
Mof_H 	H 	0.0896	0.5977	0.0605	0.151
Mof_H 	H 	0.3228	0.0301	0.3905	-0.017
Mof_H 	H 	0.329	0.0096	0.2388	0.016
Mof_H 	H 	0.4351	0.0835	0.3288	0.039
Mof_H 	H 	0.4001	0.0824	0.4817	0.15
Mof_H 	H 	0.4203	0.8241	0.898	-0.015
Mof_H 	H 	0.3158	0.8153	0.7495	0.03
Mof_H 	H 	0.385	0.924	0.8246	0.036
Mof_H 	H 	0.4628	0.9023	0.9919	0.151
Mof_H 	H 	0.3604	0.4699	0.7927	-0.017
Mof_H 	H 	0.2292	0.4904	0.8194	0.016
Mof_H 	H 	0.2453	0.4165	0.8516	0.039
Mof_H 	H 	0.3993	0.4176	0.8177	0.15
Mof_H 	H 	0.4261	0.5223	0.602	-0.015
Mof_H 	H 	0.5658	0.5663	0.7505	0.03
Mof_H 	H 	0.5994	0.5604	0.6754	0.037
Mof_H 	H 	0.4104	0.4709	0.5081	0.151
Mof_H 	H 	0.1772	0.5677	0.7073	-0.017
Mof_H 	H 	0.171	0.4098	0.6806	0.016
Mof_H 	H 	0.0649	0.3937	0.6484	0.039
Mof_H 	H 	0.0999	0.5816	0.6823	0.15
Mof_H 	H 	0.0797	0.9777	0.4038	-0.016
Mof_H 	H 	0.1842	0.9337	0.4995	0.03
Mof_H 	H 	0.115	0.9396	0.539	0.036
Mof_H 	H 	0.0372	0.0291	0.4395	0.151
Mof_H 	H 	0.1396	0.9323	0.1095	-0.017
Mof_H 	H 	0.2708	0.0902	0.2612	0.016
Mof_H 	H 	0.2547	0.1063	0.1712	0.039
Mof_H 	H 	0.1007	0.9184	0.0183	0.15
Mof_H 	H 	0.5739	0.0962	0.6759	-0.015
Mof_H 	H 	0.4342	0.0005	0.6847	0.029
Mof_H 	H 	0.4006	0.961	0.576	0.037
Mof_H 	H 	0.5896	0.0605	0.5977	0.151
Mof_H 	H 	0.8228	0.3905	0.0301	-0.017
Mof_H 	H 	0.829	0.2388	0.0096	0.016
Mof_H 	H 	0.9351	0.3288	0.0835	0.039
Mof_H 	H 	0.9001	0.4817	0.0824	0.15
Mof_H 	H 	0.9203	0.898	0.8241	-0.015
Mof_H 	H 	0.8158	0.7495	0.8153	0.03
Mof_H 	H 	0.885	0.8246	0.924	0.037
Mof_H 	H 	0.9628	0.9919	0.9023	0.151
Mof_H 	H 	0.8604	0.7927	0.4699	-0.017
Mof_H 	H 	0.7292	0.8194	0.4904	0.016
Mof_H 	H 	0.7453	0.8516	0.4165	0.039
Mof_H 	H 	0.8993	0.8177	0.4176	0.15
Mof_H 	H 	0.9261	0.602	0.5223	-0.015
Mof_H 	H 	0.0658	0.7505	0.5663	0.03
Mof_H 	H 	0.0994	0.6754	0.5604	0.037
Mof_H 	H 	0.9104	0.5081	0.4709	0.151
Mof_H 	H 	0.6772	0.7073	0.5677	-0.017
Mof_H 	H 	0.671	0.6806	0.4098	0.016
Mof_H 	H 	0.5649	0.6484	0.3937	0.039
Mof_H 	H 	0.5999	0.6823	0.5816	0.15
Mof_H 	H 	0.5797	0.4038	0.9777	-0.015
Mof_H 	H 	0.6842	0.4995	0.9337	0.03
Mof_H 	H 	0.615	0.539	0.9396	0.037
Mof_H 	H 	0.5372	0.4395	0.0291	0.151
Mof_H 	H 	0.6396	0.1095	0.9323	-0.017
Mof_H 	H 	0.7708	0.2612	0.0902	0.016
Mof_H 	H 	0.7547	0.1712	0.1063	0.039
Mof_H 	H 	0.6007	0.0183	0.9184	0.15
Mof_H 	H 	0.898	0.3241	0.4203	-0.015
Mof_H 	H 	0.7495	0.3153	0.3158	0.03
Mof_H 	H 	0.8246	0.424	0.385	0.037
Mof_H 	H 	0.9919	0.4023	0.4628	0.151
Mof_H 	H 	0.7927	0.9699	0.3604	-0.017
Mof_H 	H 	0.8194	0.9904	0.2292	0.016
Mof_H 	H 	0.8516	0.9165	0.2453	0.039
Mof_H 	H 	0.8177	0.9176	0.3993	0.15
Mof_H 	H 	0.0962	0.1759	0.0739	-0.016
Mof_H 	H 	0.0005	0.1847	0.9342	0.03
Mof_H 	H 	0.961	0.076	0.9006	0.036
Mof_H 	H 	0.0605	0.0977	0.0896	0.151
Mof_H 	H 	0.3905	0.5301	0.3228	-0.017
Mof_H 	H 	0.2388	0.5096	0.329	0.016
Mof_H 	H 	0.3288	0.5835	0.4351	0.039
Mof_H 	H 	0.4817	0.5824	0.4001	0.15
Mof_H 	H 	0.4038	0.4777	0.0797	-0.015
Mof_H 	H 	0.4995	0.4337	0.1842	0.03
Mof_H 	H 	0.539	0.4396	0.115	0.037
Mof_H 	H 	0.4395	0.5291	0.0372	0.151
Mof_H 	H 	0.1095	0.4323	0.1396	-0.017
Mof_H 	H 	0.2612	0.5902	0.2708	0.016
Mof_H 	H 	0.1712	0.6063	0.2547	0.039
Mof_H 	H 	0.0183	0.4184	0.1007	0.15
Mof_H 	H 	0.602	0.0223	0.4261	-0.015
Mof_H 	H 	0.7505	0.0663	0.5658	0.03
Mof_H 	H 	0.6754	0.0604	0.5994	0.037
Mof_H 	H 	0.5081	0.9709	0.4104	0.151
Mof_H 	H 	0.7073	0.0677	0.1772	-0.017
Mof_H 	H 	0.6806	0.9098	0.171	0.016
Mof_H 	H 	0.6484	0.8937	0.0649	0.039
Mof_H 	H 	0.6823	0.0816	0.0999	0.15
Mof_H 	H 	0.4777	0.5797	0.9038	-0.015
Mof_H 	H 	0.4337	0.6842	0.9995	0.029
Mof_H 	H 	0.4396	0.615	0.039	0.037
Mof_H 	H 	0.5291	0.5372	0.9395	0.151
Mof_H 	H 	0.4323	0.6396	0.6095	-0.017
Mof_H 	H 	0.5902	0.7708	0.7612	0.016
Mof_H 	H 	0.6063	0.7547	0.6712	0.039
Mof_H 	H 	0.4184	0.6007	0.5183	0.15
Mof_H 	H 	0.0223	0.9261	0.102	-0.015
Mof_H 	H 	0.0663	0.0658	0.2505	0.03
Mof_H 	H 	0.0604	0.0994	0.1754	0.037
Mof_H 	H 	0.9709	0.9104	0.0081	0.151
Mof_H 	H 	0.0677	0.6772	0.2073	-0.017
Mof_H 	H 	0.9098	0.671	0.1806	0.016
Mof_H 	H 	0.8937	0.5649	0.1484	0.039
Mof_H 	H 	0.0816	0.5999	0.1823	0.15
Mof_H 	H 	0.3241	0.9203	0.398	-0.015
Mof_H 	H 	0.3153	0.8158	0.2495	0.03
Mof_H 	H 	0.424	0.885	0.3246	0.037
Mof_H 	H 	0.4023	0.9628	0.4919	0.151
Mof_H 	H 	0.9699	0.8604	0.2927	-0.017
Mof_H 	H 	0.9904	0.7292	0.3194	0.016
Mof_H 	H 	0.9165	0.7453	0.3516	0.039
Mof_H 	H 	0.9176	0.8993	0.3177	0.15
Mof_H 	H 	0.1759	0.5739	0.5962	-0.015
Mof_H 	H 	0.1847	0.4342	0.5005	0.03
Mof_H 	H 	0.076	0.4006	0.461	0.037
Mof_H 	H 	0.0977	0.5896	0.5605	0.151
Mof_H 	H 	0.5301	0.8228	0.8905	-0.017
Mof_H 	H 	0.5096	0.829	0.7388	0.016
Mof_H 	H 	0.5835	0.9351	0.8288	0.039
Mof_H 	H 	0.5824	0.9001	0.9817	0.15
Mof_W 	W 	0.25	0.375	0.125	0.145
Mof_W 	W 	0.75	0.125	0.375	0.145
Mof_W 	W 	0.875	0.75	0.625	0.145
Mof_W 	W 	0.625	0.25	0.875	0.145
Mof_W 	W 	0.125	0.875	0.25	0.145
Mof_W 	W 	0.375	0.625	0.75	0.145
Mof_C 	C 	0.3693	0.4041	0.3356	0.124
Mof_C 	C 	0.2888	0.3481	0.3309	0.005
Mof_C 	C 	0.3299	0.3835	0.3904	0.002
Mof_C 	C 	0.4422	0.4635	0.4469	0.248
Mof_C 	C 	0.4951	0.4782	0.4413	-0.294
Mof_C 	C 	0.3013	0.3281	0.9634	0.112
Mof_C 	C 	0.3155	0.2553	0.9746	0.011
Mof_C 	C 	0.3352	0.2659	0.9361	0.01
Mof_C 	C 	0.3486	0.338	0.8986	0.222
Mof_C 	C 	0.3322	0.3817	0.8929	-0.27
Mof_C 	C 	0.5685	0.0337	0.1644	0.124
Mof_C 	C 	0.5172	0.9579	0.1691	0.004
Mof_C 	C 	0.4931	0.9395	0.1096	0.002
Mof_C 	C 	0.5166	0.9953	0.0531	0.247
Mof_C 	C 	0.5369	0.0538	0.0587	-0.293
Mof_C 	C 	0.8647	0.3379	0.5366	0.112
Mof_C 	C 	0.7807	0.3409	0.5254	0.011
Mof_C 	C 	0.8298	0.3991	0.5639	0.01
Mof_C 	C 	0.9394	0.45	0.6014	0.222
Mof_C 	C 	0.9888	0.4393	0.6071	-0.27
Mof_C 	C 	0.9315	0.0959	0.4652	0.124
Mof_C 	C 	0.9828	0.1519	0.4407	0.004
Mof_C 	C 	0.0069	0.1165	0.4464	0.002
Mof_C 	C 	0.9834	0.0365	0.4787	0.247
Mof_C 	C 	0.9631	0.0218	0.5169	-0.294
Mof_C 	C 	0.6353	0.1719	0.4732	0.112
Mof_C 	C 	0.7193	0.2447	0.5602	0.011
Mof_C 	C 	0.6702	0.2341	0.5693	0.01
Mof_C 	C 	0.5606	0.162	0.5106	0.222
Mof_C 	C 	0.5112	0.1183	0.4505	-0.27
Mof_C 	C 	0.1307	0.4663	0.0348	0.124
Mof_C 	C 	0.2112	0.5421	0.0593	0.005
Mof_C 	C 	0.1701	0.5605	0.0536	0.002
Mof_C 	C 	0.0578	0.5047	0.0213	0.248
Mof_C 	C 	0.0049	0.4462	0.9831	-0.295
Mof_C 	C 	0.1987	0.1621	0.0268	0.113
Mof_C 	C 	0.1845	0.1591	0.9398	0.011
Mof_C 	C 	0.1648	0.1009	0.9307	0.011
Mof_C 	C 	0.1514	0.05	0.9894	0.222
Mof_C 	C 	0.1678	0.0607	0.0495	-0.27
Mof_C 	C 	0.9652	0.9315	0.5959	0.124
Mof_C 	C 	0.9407	0.9828	0.6519	0.005
Mof_C 	C 	0.9464	0.0069	0.6165	0.001
Mof_C 	C 	0.9787	0.9834	0.5365	0.248
Mof_C 	C 	0.0169	0.9631	0.5218	-0.294
Mof_C 	C 	0.9732	0.6353	0.6719	0.113
Mof_C 	C 	0.0602	0.7193	0.7447	0.011
Mof_C 	C 	0.0693	0.6702	0.7341	0.011
Mof_C 	C 	0.0106	0.5606	0.662	0.222
Mof_C 	C 	0.9505	0.5112	0.6183	-0.27
Mof_C 	C 	0.5348	0.1307	0.9663	0.124
Mof_C 	C 	0.5593	0.2112	0.0421	0.005
Mof_C 	C 	0.5536	0.1701	0.0605	0.002
Mof_C 	C 	0.5213	0.0578	0.0047	0.248
Mof_C 	C 	0.4831	0.0049	0.9462	-0.294
Mof_C 	C 	0.5268	0.1987	0.6621	0.112
Mof_C 	C 	0.4398	0.1845	0.6591	0.011
Mof_C 	C 	0.4307	0.1648	0.6009	0.01
Mof_C 	C 	0.4894	0.1514	0.55	0.222
Mof_C 	C 	0.5495	0.1678	0.5607	-0.27
Mof_C 	C 	0.8356	0.3693	0.9041	0.124
Mof_C 	C 	0.8309	0.2888	0.8481	0.005
Mof_C 	C 	0.8904	0.3299	0.8835	0.002
Mof_C 	C 	0.9469	0.4422	0.9635	0.248
Mof_C 	C 	0.9413	0.4951	0.9782	-0.294
Mof_C 	C 	0.4634	0.3013	0.8281	0.112
Mof_C 	C 	0.4746	0.3155	0.7553	0.011
Mof_C 	C 	0.4361	0.3352	0.7659	0.01
Mof_C 	C 	0.3986	0.3486	0.838	0.222
Mof_C 	C 	0.3929	0.3322	0.8817	-0.27
Mof_C 	C 	0.6644	0.5685	0.5337	0.124
Mof_C 	C 	0.6691	0.5172	0.4579	0.005
Mof_C 	C 	0.6096	0.4931	0.4395	0.002
Mof_C 	C 	0.5531	0.5166	0.4953	0.248
Mof_C 	C 	0.5587	0.5369	0.5538	-0.294
Mof_C 	C 	0.0366	0.8647	0.8379	0.112
Mof_C 	C 	0.0254	0.7807	0.8409	0.011
Mof_C 	C 	0.0639	0.8298	0.8991	0.01
Mof_C 	C 	0.1014	0.9394	0.95	0.223
Mof_C 	C 	0.1071	0.9888	0.9393	-0.27
Mof_C 	C 	0.0337	0.6644	0.0685	0.124
Mof_C 	C 	0.9579	0.6691	0.0172	0.004
Mof_C 	C 	0.9395	0.6096	0.9931	0.002
Mof_C 	C 	0.9953	0.5531	0.0166	0.247
Mof_C 	C 	0.0538	0.5587	0.0369	-0.294
Mof_C 	C 	0.3379	0.0366	0.3647	0.112
Mof_C 	C 	0.3409	0.0254	0.2807	0.011
Mof_C 	C 	0.3991	0.0639	0.3298	0.01
Mof_C 	C 	0.45	0.1014	0.4394	0.222
Mof_C 	C 	0.4393	0.1071	0.4888	-0.27
Mof_C 	C 	0.4041	0.8356	0.8693	0.124
Mof_C 	C 	0.3481	0.8309	0.7888	0.005
Mof_C 	C 	0.3835	0.8904	0.8299	0.002
Mof_C 	C 	0.4635	0.9469	0.9422	0.248
Mof_C 	C 	0.4782	0.9413	0.9951	-0.294
Mof_C 	C 	0.3281	0.4634	0.8013	0.112
Mof_C 	C 	0.2553	0.4746	0.8155	0.011
Mof_C 	C 	0.2659	0.4361	0.8352	0.01
Mof_C 	C 	0.338	0.3986	0.8486	0.222
Mof_C 	C 	0.3817	0.3929	0.8322	-0.27
Mof_C 	C 	0.4663	0.5348	0.6307	0.124
Mof_C 	C 	0.5421	0.5593	0.7112	0.005
Mof_C 	C 	0.5605	0.5536	0.6701	0.002
Mof_C 	C 	0.5047	0.5213	0.5578	0.248
Mof_C 	C 	0.4462	0.4831	0.5049	-0.294
Mof_C 	C 	0.1621	0.5268	0.6987	0.112
Mof_C 	C 	0.1591	0.4398	0.6845	0.011
Mof_C 	C 	0.1009	0.4307	0.6648	0.01
Mof_C 	C 	0.05	0.4894	0.6514	0.222
Mof_C 	C 	0.0607	0.5495	0.6678	-0.27
Mof_C 	C 	0.0959	0.9652	0.4315	0.124
Mof_C 	C 	0.1519	0.9407	0.4828	0.005
Mof_C 	C 	0.1165	0.9464	0.5069	0.002
Mof_C 	C 	0.0365	0.9787	0.4834	0.247
Mof_C 	C 	0.0218	0.0169	0.4631	-0.293
Mof_C 	C 	0.1719	0.9732	0.1353	0.112
Mof_C 	C 	0.2447	0.0602	0.2193	0.012
Mof_C 	C 	0.2341	0.0693	0.1702	0.01
Mof_C 	C 	0.162	0.0106	0.0606	0.223
Mof_C 	C 	0.1183	0.9505	0.0112	-0.271
Mof_C 	C 	0.5337	0.0685	0.6644	0.124
Mof_C 	C 	0.4579	0.0172	0.6691	0.005
Mof_C 	C 	0.4395	0.9931	0.6096	0.001
Mof_C 	C 	0.4953	0.0166	0.5531	0.248
Mof_C 	C 	0.5538	0.0369	0.5587	-0.294
Mof_C 	C 	0.8379	0.3647	0.0366	0.112
Mof_C 	C 	0.8409	0.2807	0.0254	0.011
Mof_C 	C 	0.8991	0.3298	0.0639	0.01
Mof_C 	C 	0.95	0.4394	0.1014	0.222
Mof_C 	C 	0.9393	0.4888	0.1071	-0.27
Mof_C 	C 	0.9041	0.8693	0.8356	0.124
Mof_C 	C 	0.8481	0.7888	0.8309	0.005
Mof_C 	C 	0.8835	0.8299	0.8904	0.002
Mof_C 	C 	0.9635	0.9422	0.9469	0.248
Mof_C 	C 	0.9782	0.9951	0.9413	-0.294
Mof_C 	C 	0.8281	0.8013	0.4634	0.112
Mof_C 	C 	0.7553	0.8155	0.4746	0.011
Mof_C 	C 	0.7659	0.8352	0.4361	0.01
Mof_C 	C 	0.838	0.8486	0.3986	0.222
Mof_C 	C 	0.8817	0.8322	0.3929	-0.27
Mof_C 	C 	0.9663	0.6307	0.5348	0.124
Mof_C 	C 	0.0421	0.7112	0.5593	0.004
Mof_C 	C 	0.0605	0.6701	0.5536	0.002
Mof_C 	C 	0.0047	0.5578	0.5213	0.247
Mof_C 	C 	0.9462	0.5049	0.4831	-0.294
Mof_C 	C 	0.6621	0.6987	0.5268	0.112
Mof_C 	C 	0.6591	0.6845	0.4398	0.011
Mof_C 	C 	0.6009	0.6648	0.4307	0.01
Mof_C 	C 	0.55	0.6514	0.4894	0.222
Mof_C 	C 	0.5607	0.6678	0.5495	-0.27
Mof_C 	C 	0.5959	0.4315	0.9652	0.124
Mof_C 	C 	0.6519	0.4828	0.9407	0.005
Mof_C 	C 	0.6165	0.5069	0.9464	0.002
Mof_C 	C 	0.5365	0.4834	0.9787	0.248
Mof_C 	C 	0.5218	0.4631	0.0169	-0.294
Mof_C 	C 	0.6719	0.1353	0.9732	0.112
Mof_C 	C 	0.7447	0.2193	0.0602	0.012
Mof_C 	C 	0.7341	0.1702	0.0693	0.01
Mof_C 	C 	0.662	0.0606	0.0106	0.222
Mof_C 	C 	0.6183	0.0112	0.9505	-0.27
Mof_C 	C 	0.8693	0.3356	0.4041	0.124
Mof_C 	C 	0.7888	0.3309	0.3481	0.005
Mof_C 	C 	0.8299	0.3904	0.3835	0.002
Mof_C 	C 	0.9422	0.4469	0.4635	0.248
Mof_C 	C 	0.9951	0.4413	0.4782	-0.294
Mof_C 	C 	0.8013	0.9634	0.3281	0.112
Mof_C 	C 	0.8155	0.9746	0.2553	0.011
Mof_C 	C 	0.8352	0.9361	0.2659	0.01
Mof_C 	C 	0.8486	0.8986	0.338	0.222
Mof_C 	C 	0.8322	0.8929	0.3817	-0.27
Mof_C 	C 	0.0685	0.1644	0.0337	0.124
Mof_C 	C 	0.0172	0.1691	0.9579	0.004
Mof_C 	C 	0.9931	0.1096	0.9395	0.002
Mof_C 	C 	0.0166	0.0531	0.9953	0.247
Mof_C 	C 	0.0369	0.0587	0.0538	-0.294
Mof_C 	C 	0.3647	0.5366	0.3379	0.112
Mof_C 	C 	0.2807	0.5254	0.3409	0.011
Mof_C 	C 	0.3298	0.5639	0.3991	0.01
Mof_C 	C 	0.4394	0.6014	0.45	0.222
Mof_C 	C 	0.4888	0.6071	0.4393	-0.27
Mof_C 	C 	0.4315	0.4652	0.0959	0.124
Mof_C 	C 	0.4828	0.4407	0.1519	0.005
Mof_C 	C 	0.5069	0.4464	0.1165	0.002
Mof_C 	C 	0.4834	0.4787	0.0365	0.248
Mof_C 	C 	0.4631	0.5169	0.0218	-0.294
Mof_C 	C 	0.1353	0.4732	0.1719	0.112
Mof_C 	C 	0.2193	0.5602	0.2447	0.011
Mof_C 	C 	0.1702	0.5693	0.2341	0.01
Mof_C 	C 	0.0606	0.5106	0.162	0.222
Mof_C 	C 	0.0112	0.4505	0.1183	-0.27
Mof_C 	C 	0.6307	0.0348	0.4663	0.124
Mof_C 	C 	0.7112	0.0593	0.5421	0.005
Mof_C 	C 	0.6701	0.0536	0.5605	0.002
Mof_C 	C 	0.5578	0.0213	0.5047	0.248
Mof_C 	C 	0.5049	0.9831	0.4462	-0.294
Mof_C 	C 	0.6987	0.0268	0.1621	0.113
Mof_C 	C 	0.6845	0.9398	0.1591	0.011
Mof_C 	C 	0.6648	0.9307	0.1009	0.01
Mof_C 	C 	0.6514	0.9894	0.05	0.222
Mof_C 	C 	0.6678	0.0495	0.0607	-0.27
Mof_C 	C 	0.4652	0.5959	0.9315	0.124
Mof_C 	C 	0.4407	0.6519	0.9828	0.005
Mof_C 	C 	0.4464	0.6165	0.0069	0.001
Mof_C 	C 	0.4787	0.5365	0.9834	0.248
Mof_C 	C 	0.5169	0.5218	0.9631	-0.294
Mof_C 	C 	0.4732	0.6719	0.6353	0.112
Mof_C 	C 	0.5602	0.7447	0.7193	0.011
Mof_C 	C 	0.5693	0.7341	0.6702	0.01
Mof_C 	C 	0.5106	0.662	0.5606	0.222
Mof_C 	C 	0.4505	0.6183	0.5112	-0.27
Mof_C 	C 	0.0348	0.9663	0.1307	0.123
Mof_C 	C 	0.0593	0.0421	0.2112	0.005
Mof_C 	C 	0.0536	0.0605	0.1701	0.002
Mof_C 	C 	0.0213	0.0047	0.0578	0.248
Mof_C 	C 	0.9831	0.9462	0.0049	-0.295
Mof_C 	C 	0.0268	0.6621	0.1987	0.112
Mof_C 	C 	0.9398	0.6591	0.1845	0.012
Mof_C 	C 	0.9307	0.6009	0.1648	0.01
Mof_C 	C 	0.9894	0.55	0.1514	0.222
Mof_C 	C 	0.0495	0.5607	0.1678	-0.27
Mof_C 	C 	0.3356	0.9041	0.3693	0.124
Mof_C 	C 	0.3309	0.8481	0.2888	0.005
Mof_C 	C 	0.3904	0.8835	0.3299	0.002
Mof_C 	C 	0.4469	0.9635	0.4422	0.248
Mof_C 	C 	0.4413	0.9782	0.4951	-0.294
Mof_C 	C 	0.9634	0.8281	0.3013	0.112
Mof_C 	C 	0.9746	0.7553	0.3155	0.011
Mof_C 	C 	0.9361	0.7659	0.3352	0.01
Mof_C 	C 	0.8986	0.838	0.3486	0.222
Mof_C 	C 	0.8929	0.8817	0.3322	-0.27
Mof_C 	C 	0.1644	0.5337	0.5685	0.124
Mof_C 	C 	0.1691	0.4579	0.5172	0.005
Mof_C 	C 	0.1096	0.4395	0.4931	0.002
Mof_C 	C 	0.0531	0.4953	0.5166	0.248
Mof_C 	C 	0.0587	0.5538	0.5369	-0.294
Mof_C 	C 	0.5366	0.8379	0.8647	0.112
Mof_C 	C 	0.5254	0.8409	0.7807	0.011
Mof_C 	C 	0.5639	0.8991	0.8298	0.01
Mof_C 	C 	0.6014	0.95	0.9394	0.222
Mof_C 	C 	0.6071	0.9393	0.9888	-0.27
Mof_S 	S 	0.31108	0.33462	0.14252	-0.62
Mof_S 	S 	0.6921	0.16856	0.35748	-0.62
Mof_S 	S 	0.8079	0.16538	0.47646	-0.62
Mof_S 	S 	0.18892	0.33144	0.02354	-0.62
Mof_S 	S 	0.97646	0.8079	0.66538	-0.62
Mof_S 	S 	0.52354	0.18892	0.83144	-0.62
Mof_S 	S 	0.64252	0.31108	0.83462	-0.62
Mof_S 	S 	0.85748	0.6921	0.66856	-0.62
Mof_S 	S 	0.16856	0.85748	0.1921	-0.62
Mof_S 	S 	0.33462	0.64252	0.81108	-0.62
Mof_S 	S 	0.33144	0.52354	0.68892	-0.62
Mof_S 	S 	0.16538	0.97646	0.3079	-0.621
Mof_S 	S 	0.66856	0.1921	0.85748	-0.62
Mof_S 	S 	0.83462	0.81108	0.64252	-0.62
Mof_S 	S 	0.83144	0.68892	0.52354	-0.62
Mof_S 	S 	0.66538	0.3079	0.97646	-0.62
Mof_S 	S 	0.81108	0.14252	0.33462	-0.62
Mof_S 	S 	0.1921	0.35748	0.16856	-0.62
Mof_S 	S 	0.3079	0.47646	0.16538	-0.62
Mof_S 	S 	0.68892	0.02354	0.33144	-0.62
Mof_S 	S 	0.47646	0.66538	0.8079	-0.62
Mof_S 	S 	0.02354	0.83144	0.18892	-0.621
Mof_S 	S 	0.14252	0.83462	0.31108	-0.62
Mof_S 	S 	0.35748	0.66856	0.6921	-0.62
Mof_Br	Br	0.20612	0.2144	0.17386	-0.433
Mof_Br	Br	0.54054	0.03226	0.32614	-0.433
Mof_Br	Br	0.95946	0.2856	0.49172	-0.434
Mof_Br	Br	0.29388	0.46774	0.00828	-0.434
Mof_Br	Br	0.99172	0.95946	0.7856	-0.434
Mof_Br	Br	0.50828	0.29388	0.96774	-0.434
Mof_Br	Br	0.67386	0.20612	0.7144	-0.433
Mof_Br	Br	0.82614	0.54054	0.53226	-0.433
Mof_Br	Br	0.03226	0.82614	0.04054	-0.434
Mof_Br	Br	0.2144	0.67386	0.70612	-0.433
Mof_Br	Br	0.46774	0.50828	0.79388	-0.433
Mof_Br	Br	0.2856	0.99172	0.45946	-0.434
Mof_Br	Br	0.53226	0.04054	0.82614	-0.434
Mof_Br	Br	0.7144	0.70612	0.67386	-0.433
Mof_Br	Br	0.96774	0.79388	0.50828	-0.434
Mof_Br	Br	0.7856	0.45946	0.99172	-0.434
Mof_Br	Br	0.70612	0.17386	0.2144	-0.433
Mof_Br	Br	0.04054	0.32614	0.03226	-0.434
Mof_Br	Br	0.45946	0.49172	0.2856	-0.433
Mof_Br	Br	0.79388	0.00828	0.46774	-0.434
Mof_Br	Br	0.49172	0.7856	0.95946	-0.434
Mof_Br	Br	0.00828	0.96774	0.29388	-0.434
Mof_Br	Br	0.17386	0.7144	0.20612	-0.433
Mof_Br	Br	0.32614	0.53226	0.54054	-0.433
Mof_N 	N 	0.30989	0.36383	0.29394	-0.235
Mof_N 	N 	0.38515	0.41966	0.39149	-0.17
Mof_N 	N 	0.28978	0.28981	0.98531	-0.24
Mof_N 	N 	0.32638	0.31247	0.93163	-0.163
Mof_N 	N 	0.56989	0.01595	0.20606	-0.235
Mof_N 	N 	0.52817	0.99366	0.10851	-0.17
Mof_N 	N 	0.8045	0.30447	0.51469	-0.24
Mof_N 	N 	0.88084	0.39475	0.56837	-0.163
Mof_N 	N 	0.93011	0.13617	0.44606	-0.235
Mof_N 	N 	0.97183	0.08034	0.46549	-0.17
Mof_N 	N 	0.6955	0.21019	0.49997	-0.24
Mof_N 	N 	0.61916	0.18753	0.51391	-0.163
Mof_N 	N 	0.19011	0.48405	0.05394	-0.235
Mof_N 	N 	0.11485	0.50634	0.03451	-0.17
Mof_N 	N 	0.21022	0.19553	3e-05	-0.24
Mof_N 	N 	0.17362	0.10525	0.98609	-0.163
Mof_N 	N 	0.94606	0.93011	0.63617	-0.235
Mof_N 	N 	0.96549	0.97183	0.58034	-0.17
Mof_N 	N 	0.99997	0.6955	0.71019	-0.24
Mof_N 	N 	0.01391	0.61916	0.68753	-0.163
Mof_N 	N 	0.55394	0.19011	0.98405	-0.235
Mof_N 	N 	0.53451	0.11485	0.00634	-0.17
Mof_N 	N 	0.50003	0.21022	0.69553	-0.24
Mof_N 	N 	0.48609	0.17362	0.60525	-0.163
Mof_N 	N 	0.79394	0.30989	0.86383	-0.235
Mof_N 	N 	0.89149	0.38515	0.91966	-0.17
Mof_N 	N 	0.48531	0.28978	0.78981	-0.24
Mof_N 	N 	0.43163	0.32638	0.81247	-0.163
Mof_N 	N 	0.70606	0.56989	0.51595	-0.235
Mof_N 	N 	0.60851	0.52817	0.49366	-0.17
Mof_N 	N 	0.01469	0.8045	0.80447	-0.24
Mof_N 	N 	0.06837	0.88084	0.89475	-0.163
Mof_N 	N 	0.01595	0.70606	0.06989	-0.235
Mof_N 	N 	0.99366	0.60851	0.02817	-0.17
Mof_N 	N 	0.30447	0.01469	0.3045	-0.24
Mof_N 	N 	0.39475	0.06837	0.38084	-0.163
Mof_N 	N 	0.36383	0.79394	0.80989	-0.235
Mof_N 	N 	0.41966	0.89149	0.88515	-0.17
Mof_N 	N 	0.28981	0.48531	0.78978	-0.24
Mof_N 	N 	0.31247	0.43163	0.82638	-0.163
Mof_N 	N 	0.48405	0.55394	0.69011	-0.235
Mof_N 	N 	0.50634	0.53451	0.61485	-0.17
Mof_N 	N 	0.19553	0.50003	0.71022	-0.24
Mof_N 	N 	0.10525	0.48609	0.67362	-0.163
Mof_N 	N 	0.13617	0.94606	0.43011	-0.235
Mof_N 	N 	0.08034	0.96549	0.47183	-0.17
Mof_N 	N 	0.21019	0.99997	0.1955	-0.24
Mof_N 	N 	0.18753	0.01391	0.11916	-0.162
Mof_N 	N 	0.51595	0.06989	0.70606	-0.235
Mof_N 	N 	0.49366	0.02817	0.60851	-0.17
Mof_N 	N 	0.80447	0.3045	0.01469	-0.24
Mof_N 	N 	0.89475	0.38084	0.06837	-0.163
Mof_N 	N 	0.86383	0.80989	0.79394	-0.235
Mof_N 	N 	0.91966	0.88515	0.89149	-0.17
Mof_N 	N 	0.78981	0.78978	0.48531	-0.24
Mof_N 	N 	0.81247	0.82638	0.43163	-0.163
Mof_N 	N 	0.98405	0.69011	0.55394	-0.235
Mof_N 	N 	0.00634	0.61485	0.53451	-0.17
Mof_N 	N 	0.69553	0.71022	0.50003	-0.24
Mof_N 	N 	0.60525	0.67362	0.48609	-0.163
Mof_N 	N 	0.63617	0.43011	0.94606	-0.235
Mof_N 	N 	0.58034	0.47183	0.96549	-0.17
Mof_N 	N 	0.71019	0.1955	0.99997	-0.24
Mof_N 	N 	0.68753	0.11916	0.01391	-0.162
Mof_N 	N 	0.80989	0.29394	0.36383	-0.235
Mof_N 	N 	0.88515	0.39149	0.41966	-0.17
Mof_N 	N 	0.78978	0.98531	0.28981	-0.24
Mof_N 	N 	0.82638	0.93163	0.31247	-0.163
Mof_N 	N 	0.06989	0.20606	0.01595	-0.235
Mof_N 	N 	0.02817	0.10851	0.99366	-0.17
Mof_N 	N 	0.3045	0.51469	0.30447	-0.24
Mof_N 	N 	0.38084	0.56837	0.39475	-0.163
Mof_N 	N 	0.43011	0.44606	0.13617	-0.235
Mof_N 	N 	0.47183	0.46549	0.08034	-0.17
Mof_N 	N 	0.1955	0.49997	0.21019	-0.24
Mof_N 	N 	0.11916	0.51391	0.18753	-0.163
Mof_N 	N 	0.69011	0.05394	0.48405	-0.235
Mof_N 	N 	0.61485	0.03451	0.50634	-0.17
Mof_N 	N 	0.71022	3e-05	0.19553	-0.24
Mof_N 	N 	0.67362	0.98609	0.10525	-0.163
Mof_N 	N 	0.44606	0.63617	0.93011	-0.235
Mof_N 	N 	0.46549	0.58034	0.97183	-0.17
Mof_N 	N 	0.49997	0.71019	0.6955	-0.24
Mof_N 	N 	0.51391	0.68753	0.61916	-0.163
Mof_N 	N 	0.05394	0.98405	0.19011	-0.235
Mof_N 	N 	0.03451	0.00634	0.11485	-0.17
Mof_N 	N 	3e-05	0.69553	0.21022	-0.24
Mof_N 	N 	0.98609	0.60525	0.17362	-0.163
Mof_N 	N 	0.29394	0.86383	0.30989	-0.235
Mof_N 	N 	0.39149	0.91966	0.38515	-0.17
Mof_N 	N 	0.98531	0.78981	0.28978	-0.24
Mof_N 	N 	0.93163	0.81247	0.32638	-0.163
Mof_N 	N 	0.20606	0.51595	0.56989	-0.235
Mof_N 	N 	0.10851	0.49366	0.52817	-0.17
Mof_N 	N 	0.51469	0.80447	0.8045	-0.24
Mof_N 	N 	0.56837	0.89475	0.88084	-0.163
_end
