data_functionalizedCrystal
_audit_creation_method	'EQeq! by Chris Wilmer'
_symmetry_space_group_name_H-M	'P1'
_symmetry_Int_Tables_number	1
_symmetry_cell_setting	triclinic
loop_
_symmetry_equiv_pos_as_xyz
  x,y,z
_cell_length_a	27.7477
_cell_length_b	27.7477
_cell_length_c	3.7669
_cell_angle_alpha	90
_cell_angle_beta	90
_cell_angle_gamma	90
loop_
_atom_site_label
_atom_site_type_symbol
_atom_site_fract_x
_atom_site_fract_y
_atom_site_fract_z
_atom_site_charge
Mof_Zn	Zn	0.28308	0.21414	0.8689	1.209
Mof_O 	O 	0.2165	0.2548	0.898	-0.736
Mof_H 	H 	0.1938	0.2669	0.775	0.168
Mof_N 	N 	0.2597	0.1456	0.814	-0.273
Mof_C 	C 	0.2794	0.1084	0.969	0.113
Mof_H 	H 	0.309	0.1098	0.0838	0.01
Mof_N 	N 	0.2527	0.0674	0.948	-0.169
Mof_C 	C 	0.2143	0.1292	0.67	0.032
Mof_O 	O 	0.2778	0.8579	0.573	-0.503
Mof_C 	C 	0.1785	0.1524	0.48	-0.116
Mof_H 	H 	0.1813	0.1849	0.4233	0.044
Mof_O 	O 	0.3448	0.8768	0.645	-0.234
Mof_C 	C 	0.1383	0.1265	0.378	0.043
Mof_C 	C 	0.1014	0.1475	0.186	-0.083
Mof_H 	H 	0.1039	0.1799	0.1267	0.07
Mof_C 	C 	0.0609	0.1225	0.08	-0.027
Mof_H 	H 	0.0364	0.1373	0.952	0.034
Mof_C 	C 	0.0585	0.0742	0.172	-0.022
Mof_H 	H 	0.0318	0.056	0.1058	0.032
Mof_C 	C 	0.0955	0.0528	0.361	-0.093
Mof_H 	H 	0.0932	0.0203	0.4176	0.06
Mof_C 	C 	0.1359	0.0781	0.469	0.054
Mof_C 	C 	0.1715	0.0544	0.659	-0.142
Mof_H 	H 	0.1685	0.0219	0.7163	0.078
Mof_C 	C 	0.2116	0.0807	0.762	0.094
Mof_C 	C 	0.245	0.9444	0.312	0.15
Mof_H 	H 	0.2218	0.923	0.3954	-0.009
Mof_C 	C 	0.2932	0.9309	0.305	-0.206
Mof_C 	C 	0.3278	0.9629	0.18	0.163
Mof_H 	H 	0.3601	0.9538	0.1753	0.008
Mof_C 	C 	0.3142	0.0083	0.061	-0.24
Mof_H 	H 	0.3374	0.0297	0.9772	0.138
Mof_C 	C 	0.266	0.0218	0.068	0.211
Mof_C 	C 	0.2314	0.9899	0.193	-0.231
Mof_H 	H 	0.1991	0.9989	0.1973	0.112
Mof_C 	C 	0.3074	0.8812	0.435	0.555
Mof_O 	O 	0.3418	0.8626	0.239	-0.275
Mof_Zn	Zn	0.78308	0.71414	0.3689	1.205
Mof_O 	O 	0.7165	0.7548	0.398	-0.743
Mof_H 	H 	0.6938	0.7669	0.275	0.165
Mof_N 	N 	0.7597	0.6456	0.314	-0.272
Mof_C 	C 	0.7794	0.6084	0.469	0.098
Mof_H 	H 	0.809	0.6098	0.5838	0.02
Mof_N 	N 	0.7527	0.5674	0.448	-0.169
Mof_C 	C 	0.7143	0.6292	0.17	0.02
Mof_O 	O 	0.7778	0.3579	0.073	-0.486
Mof_C 	C 	0.6785	0.6524	0.98	-0.103
Mof_H 	H 	0.6813	0.6849	0.9233	0.041
Mof_O 	O 	0.8448	0.3768	0.145	-0.222
Mof_C 	C 	0.6383	0.6265	0.878	0.036
Mof_C 	C 	0.6014	0.6475	0.686	-0.08
Mof_H 	H 	0.6039	0.6799	0.6267	0.069
Mof_C 	C 	0.5609	0.6225	0.58	-0.03
Mof_H 	H 	0.5364	0.6373	0.452	0.032
Mof_C 	C 	0.5585	0.5742	0.672	-0.02
Mof_H 	H 	0.5318	0.556	0.6058	0.03
Mof_C 	C 	0.5955	0.5528	0.861	-0.098
Mof_H 	H 	0.5932	0.5203	0.9176	0.061
Mof_C 	C 	0.6359	0.5781	0.969	0.061
Mof_C 	C 	0.6715	0.5544	0.159	-0.149
Mof_H 	H 	0.6685	0.5219	0.2163	0.081
Mof_C 	C 	0.7116	0.5807	0.262	0.099
Mof_C 	C 	0.745	0.4444	0.812	0.141
Mof_H 	H 	0.7218	0.423	0.8954	-0.009
Mof_C 	C 	0.7932	0.4309	0.805	-0.196
Mof_C 	C 	0.8278	0.4629	0.68	0.152
Mof_H 	H 	0.8601	0.4538	0.6753	0.012
Mof_C 	C 	0.8142	0.5083	0.561	-0.227
Mof_H 	H 	0.8374	0.5297	0.4772	0.132
Mof_C 	C 	0.766	0.5218	0.568	0.208
Mof_C 	C 	0.7314	0.4899	0.693	-0.226
Mof_H 	H 	0.6991	0.4989	0.6973	0.11
Mof_C 	C 	0.8074	0.3812	0.935	0.528
Mof_O 	O 	0.8418	0.3626	0.739	-0.275
Mof_Zn	Zn	0.71692	0.78586	0.8689	1.208
Mof_O 	O 	0.7835	0.7452	0.898	-0.737
Mof_H 	H 	0.8062	0.7331	0.775	0.167
Mof_N 	N 	0.7403	0.8544	0.814	-0.274
Mof_C 	C 	0.7206	0.8916	0.969	0.112
Mof_H 	H 	0.691	0.8902	0.0838	0.009
Mof_N 	N 	0.7473	0.9326	0.948	-0.17
Mof_C 	C 	0.7857	0.8708	0.67	0.031
Mof_O 	O 	0.7222	0.1421	0.573	-0.504
Mof_C 	C 	0.8215	0.8476	0.48	-0.117
Mof_H 	H 	0.8187	0.8151	0.4233	0.043
Mof_O 	O 	0.6552	0.1232	0.645	-0.235
Mof_C 	C 	0.8617	0.8735	0.378	0.042
Mof_C 	C 	0.8986	0.8525	0.186	-0.084
Mof_H 	H 	0.8961	0.8201	0.1267	0.069
Mof_C 	C 	0.9391	0.8775	0.08	-0.028
Mof_H 	H 	0.9636	0.8627	0.952	0.033
Mof_C 	C 	0.9415	0.9258	0.172	-0.023
Mof_H 	H 	0.9682	0.944	0.1058	0.031
Mof_C 	C 	0.9045	0.9472	0.361	-0.094
Mof_H 	H 	0.9068	0.9797	0.4176	0.06
Mof_C 	C 	0.8641	0.9219	0.469	0.054
Mof_C 	C 	0.8285	0.9456	0.659	-0.142
Mof_H 	H 	0.8315	0.9781	0.7163	0.078
Mof_C 	C 	0.7884	0.9193	0.762	0.094
Mof_C 	C 	0.755	0.0556	0.312	0.15
Mof_H 	H 	0.7782	0.077	0.3954	-0.009
Mof_C 	C 	0.7068	0.0691	0.305	-0.206
Mof_C 	C 	0.6722	0.0371	0.18	0.163
Mof_H 	H 	0.6399	0.0462	0.1753	0.008
Mof_C 	C 	0.6858	0.9917	0.061	-0.24
Mof_H 	H 	0.6626	0.9703	0.9772	0.138
Mof_C 	C 	0.734	0.9782	0.068	0.211
Mof_C 	C 	0.7686	0.0101	0.193	-0.231
Mof_H 	H 	0.8009	0.0011	0.1973	0.112
Mof_C 	C 	0.6926	0.1188	0.435	0.555
Mof_O 	O 	0.6582	0.1374	0.239	-0.275
Mof_Zn	Zn	0.21692	0.28586	0.3689	1.205
Mof_O 	O 	0.2835	0.2452	0.398	-0.743
Mof_H 	H 	0.3062	0.2331	0.275	0.165
Mof_N 	N 	0.2403	0.3544	0.314	-0.272
Mof_C 	C 	0.2206	0.3916	0.469	0.098
Mof_H 	H 	0.191	0.3902	0.5838	0.02
Mof_N 	N 	0.2473	0.4326	0.448	-0.169
Mof_C 	C 	0.2857	0.3708	0.17	0.02
Mof_O 	O 	0.2222	0.6421	0.073	-0.486
Mof_C 	C 	0.3215	0.3476	0.98	-0.103
Mof_H 	H 	0.3187	0.3151	0.9233	0.041
Mof_O 	O 	0.1552	0.6232	0.145	-0.222
Mof_C 	C 	0.3617	0.3735	0.878	0.036
Mof_C 	C 	0.3986	0.3525	0.686	-0.08
Mof_H 	H 	0.3961	0.3201	0.6267	0.069
Mof_C 	C 	0.4391	0.3775	0.58	-0.03
Mof_H 	H 	0.4636	0.3627	0.452	0.032
Mof_C 	C 	0.4415	0.4258	0.672	-0.02
Mof_H 	H 	0.4682	0.444	0.6058	0.03
Mof_C 	C 	0.4045	0.4472	0.861	-0.098
Mof_H 	H 	0.4068	0.4797	0.9176	0.061
Mof_C 	C 	0.3641	0.4219	0.969	0.061
Mof_C 	C 	0.3285	0.4456	0.159	-0.149
Mof_H 	H 	0.3315	0.4781	0.2163	0.081
Mof_C 	C 	0.2884	0.4193	0.262	0.099
Mof_C 	C 	0.255	0.5556	0.812	0.141
Mof_H 	H 	0.2782	0.577	0.8954	-0.009
Mof_C 	C 	0.2068	0.5691	0.805	-0.196
Mof_C 	C 	0.1722	0.5371	0.68	0.152
Mof_H 	H 	0.1399	0.5462	0.6753	0.012
Mof_C 	C 	0.1858	0.4917	0.561	-0.227
Mof_H 	H 	0.1626	0.4703	0.4772	0.132
Mof_C 	C 	0.234	0.4782	0.568	0.208
Mof_C 	C 	0.2686	0.5101	0.693	-0.226
Mof_H 	H 	0.3009	0.5011	0.6973	0.11
Mof_C 	C 	0.1926	0.6188	0.935	0.528
Mof_O 	O 	0.1582	0.6374	0.739	-0.275
Mof_Zn	Zn	0.21414	0.71692	0.1311	1.208
Mof_O 	O 	0.2548	0.7835	0.102	-0.737
Mof_H 	H 	0.2669	0.8062	0.225	0.167
Mof_N 	N 	0.1456	0.7403	0.186	-0.274
Mof_C 	C 	0.1084	0.7206	0.031	0.112
Mof_H 	H 	0.1098	0.691	0.9162	0.009
Mof_N 	N 	0.0674	0.7473	0.052	-0.17
Mof_C 	C 	0.1292	0.7857	0.33	0.031
Mof_O 	O 	0.8579	0.7222	0.427	-0.504
Mof_C 	C 	0.1524	0.8215	0.52	-0.117
Mof_H 	H 	0.1849	0.8187	0.5767	0.043
Mof_O 	O 	0.8768	0.6552	0.355	-0.235
Mof_C 	C 	0.1265	0.8617	0.622	0.042
Mof_C 	C 	0.1475	0.8986	0.814	-0.084
Mof_H 	H 	0.1799	0.8961	0.8733	0.069
Mof_C 	C 	0.1225	0.9391	0.92	-0.028
Mof_H 	H 	0.1373	0.9636	0.048	0.033
Mof_C 	C 	0.0742	0.9415	0.828	-0.023
Mof_H 	H 	0.056	0.9682	0.8942	0.031
Mof_C 	C 	0.0528	0.9045	0.639	-0.094
Mof_H 	H 	0.0203	0.9068	0.5824	0.06
Mof_C 	C 	0.0781	0.8641	0.531	0.054
Mof_C 	C 	0.0544	0.8285	0.341	-0.142
Mof_H 	H 	0.0219	0.8315	0.2837	0.078
Mof_C 	C 	0.0807	0.7884	0.238	0.094
Mof_C 	C 	0.9444	0.755	0.688	0.15
Mof_H 	H 	0.923	0.7782	0.6046	-0.009
Mof_C 	C 	0.9309	0.7068	0.695	-0.206
Mof_C 	C 	0.9629	0.6722	0.82	0.163
Mof_H 	H 	0.9538	0.6399	0.8247	0.008
Mof_C 	C 	0.0083	0.6858	0.939	-0.24
Mof_H 	H 	0.0297	0.6626	0.0228	0.138
Mof_C 	C 	0.0218	0.734	0.932	0.211
Mof_C 	C 	0.9899	0.7686	0.807	-0.231
Mof_H 	H 	0.9989	0.8009	0.8027	0.112
Mof_C 	C 	0.8812	0.6926	0.565	0.555
Mof_O 	O 	0.8626	0.6582	0.761	-0.275
Mof_Zn	Zn	0.71414	0.21692	0.6311	1.205
Mof_O 	O 	0.7548	0.2835	0.602	-0.743
Mof_H 	H 	0.7669	0.3062	0.725	0.165
Mof_N 	N 	0.6456	0.2403	0.686	-0.272
Mof_C 	C 	0.6084	0.2206	0.531	0.098
Mof_H 	H 	0.6098	0.191	0.4162	0.02
Mof_N 	N 	0.5674	0.2473	0.552	-0.169
Mof_C 	C 	0.6292	0.2857	0.83	0.02
Mof_O 	O 	0.3579	0.2222	0.927	-0.486
Mof_C 	C 	0.6524	0.3215	0.02	-0.103
Mof_H 	H 	0.6849	0.3187	0.0767	0.041
Mof_O 	O 	0.3768	0.1552	0.855	-0.222
Mof_C 	C 	0.6265	0.3617	0.122	0.036
Mof_C 	C 	0.6475	0.3986	0.314	-0.08
Mof_H 	H 	0.6799	0.3961	0.3733	0.069
Mof_C 	C 	0.6225	0.4391	0.42	-0.03
Mof_H 	H 	0.6373	0.4636	0.548	0.032
Mof_C 	C 	0.5742	0.4415	0.328	-0.02
Mof_H 	H 	0.556	0.4682	0.3942	0.03
Mof_C 	C 	0.5528	0.4045	0.139	-0.098
Mof_H 	H 	0.5203	0.4068	0.0824	0.061
Mof_C 	C 	0.5781	0.3641	0.031	0.061
Mof_C 	C 	0.5544	0.3285	0.841	-0.149
Mof_H 	H 	0.5219	0.3315	0.7837	0.081
Mof_C 	C 	0.5807	0.2884	0.738	0.099
Mof_C 	C 	0.4444	0.255	0.188	0.141
Mof_H 	H 	0.423	0.2782	0.1046	-0.009
Mof_C 	C 	0.4309	0.2068	0.195	-0.196
Mof_C 	C 	0.4629	0.1722	0.32	0.152
Mof_H 	H 	0.4538	0.1399	0.3247	0.012
Mof_C 	C 	0.5083	0.1858	0.439	-0.227
Mof_H 	H 	0.5297	0.1626	0.5228	0.132
Mof_C 	C 	0.5218	0.234	0.432	0.208
Mof_C 	C 	0.4899	0.2686	0.307	-0.226
Mof_H 	H 	0.4989	0.3009	0.3027	0.11
Mof_C 	C 	0.3812	0.1926	0.065	0.528
Mof_O 	O 	0.3626	0.1582	0.261	-0.275
Mof_Zn	Zn	0.78586	0.28308	0.1311	1.208
Mof_O 	O 	0.7452	0.2165	0.102	-0.737
Mof_H 	H 	0.7331	0.1938	0.225	0.167
Mof_N 	N 	0.8544	0.2597	0.186	-0.274
Mof_C 	C 	0.8916	0.2794	0.031	0.112
Mof_H 	H 	0.8902	0.309	0.9162	0.009
Mof_N 	N 	0.9326	0.2527	0.052	-0.17
Mof_C 	C 	0.8708	0.2143	0.33	0.031
Mof_O 	O 	0.1421	0.2778	0.427	-0.504
Mof_C 	C 	0.8476	0.1785	0.52	-0.117
Mof_H 	H 	0.8151	0.1813	0.5767	0.043
Mof_O 	O 	0.1232	0.3448	0.355	-0.235
Mof_C 	C 	0.8735	0.1383	0.622	0.042
Mof_C 	C 	0.8525	0.1014	0.814	-0.084
Mof_H 	H 	0.8201	0.1039	0.8733	0.069
Mof_C 	C 	0.8775	0.0609	0.92	-0.028
Mof_H 	H 	0.8627	0.0364	0.048	0.033
Mof_C 	C 	0.9258	0.0585	0.828	-0.023
Mof_H 	H 	0.944	0.0318	0.8942	0.031
Mof_C 	C 	0.9472	0.0955	0.639	-0.094
Mof_H 	H 	0.9797	0.0932	0.5824	0.06
Mof_C 	C 	0.9219	0.1359	0.531	0.054
Mof_C 	C 	0.9456	0.1715	0.341	-0.142
Mof_H 	H 	0.9781	0.1685	0.2837	0.078
Mof_C 	C 	0.9193	0.2116	0.238	0.094
Mof_C 	C 	0.0556	0.245	0.688	0.15
Mof_H 	H 	0.077	0.2218	0.6046	-0.009
Mof_C 	C 	0.0691	0.2932	0.695	-0.206
Mof_C 	C 	0.0371	0.3278	0.82	0.163
Mof_H 	H 	0.0462	0.3601	0.8247	0.008
Mof_C 	C 	0.9917	0.3142	0.939	-0.24
Mof_H 	H 	0.9703	0.3374	0.0228	0.138
Mof_C 	C 	0.9782	0.266	0.932	0.211
Mof_C 	C 	0.0101	0.2314	0.807	-0.231
Mof_H 	H 	0.0011	0.1991	0.8027	0.112
Mof_C 	C 	0.1188	0.3074	0.565	0.555
Mof_O 	O 	0.1374	0.3418	0.761	-0.275
Mof_Zn	Zn	0.28586	0.78308	0.6311	1.205
Mof_O 	O 	0.2452	0.7165	0.602	-0.743
Mof_H 	H 	0.2331	0.6938	0.725	0.165
Mof_N 	N 	0.3544	0.7597	0.686	-0.272
Mof_C 	C 	0.3916	0.7794	0.531	0.098
Mof_H 	H 	0.3902	0.809	0.4162	0.02
Mof_N 	N 	0.4326	0.7527	0.552	-0.169
Mof_C 	C 	0.3708	0.7143	0.83	0.02
Mof_O 	O 	0.6421	0.7778	0.927	-0.486
Mof_C 	C 	0.3476	0.6785	0.02	-0.103
Mof_H 	H 	0.3151	0.6813	0.0767	0.041
Mof_O 	O 	0.6232	0.8448	0.855	-0.222
Mof_C 	C 	0.3735	0.6383	0.122	0.036
Mof_C 	C 	0.3525	0.6014	0.314	-0.08
Mof_H 	H 	0.3201	0.6039	0.3733	0.069
Mof_C 	C 	0.3775	0.5609	0.42	-0.03
Mof_H 	H 	0.3627	0.5364	0.548	0.032
Mof_C 	C 	0.4258	0.5585	0.328	-0.02
Mof_H 	H 	0.444	0.5318	0.3942	0.03
Mof_C 	C 	0.4472	0.5955	0.139	-0.098
Mof_H 	H 	0.4797	0.5932	0.0824	0.061
Mof_C 	C 	0.4219	0.6359	0.031	0.061
Mof_C 	C 	0.4456	0.6715	0.841	-0.149
Mof_H 	H 	0.4781	0.6685	0.7837	0.081
Mof_C 	C 	0.4193	0.7116	0.738	0.099
Mof_C 	C 	0.5556	0.745	0.188	0.141
Mof_H 	H 	0.577	0.7218	0.1046	-0.009
Mof_C 	C 	0.5691	0.7932	0.195	-0.196
Mof_C 	C 	0.5371	0.8278	0.32	0.152
Mof_H 	H 	0.5462	0.8601	0.3247	0.012
Mof_C 	C 	0.4917	0.8142	0.439	-0.227
Mof_H 	H 	0.4703	0.8374	0.5228	0.132
Mof_C 	C 	0.4782	0.766	0.432	0.208
Mof_C 	C 	0.5101	0.7314	0.307	-0.226
Mof_H 	H 	0.5011	0.6991	0.3027	0.11
Mof_C 	C 	0.6188	0.8074	0.065	0.528
Mof_O 	O 	0.6374	0.8418	0.261	-0.275
_end
