data_functionalizedCrystal
_audit_creation_method	'EQeq! by Chris Wilmer'
_symmetry_space_group_name_H-M	'P1'
_symmetry_Int_Tables_number	1
_symmetry_cell_setting	triclinic
loop_
_symmetry_equiv_pos_as_xyz
  x,y,z
_cell_length_a	14.7917
_cell_length_b	14.7917
_cell_length_c	16.8171
_cell_angle_alpha	102.257
_cell_angle_beta	102.257
_cell_angle_gamma	115.741
loop_
_atom_site_label
_atom_site_type_symbol
_atom_site_fract_x
_atom_site_fract_y
_atom_site_fract_z
_atom_site_charge
Mof_Zn	Zn	0.54128	0.93096	0.93109	1.22
Mof_Zn	Zn	0.06904	0.45872	0.56891	1.22
Mof_Zn	Zn	0.45872	0.06904	0.06891	1.22
Mof_Zn	Zn	0.93096	0.54128	0.43109	1.22
Mof_Zn	Zn	0.32908	0.67092	0.75	1.236
Mof_Zn	Zn	0.67092	0.32908	0.25	1.236
Mof_H 	H 	0.494	0.5446	0.8351	-0.007
Mof_H 	H 	0.5895	0.4593	0.8483	0.116
Mof_H 	H 	0.862	0.7378	0.9171	0.111
Mof_H 	H 	0.7623	0.8225	0.9011	-0.004
Mof_H 	H 	0.1255	0.6081	0.9112	0.005
Mof_H 	H 	0.9904	0.5764	0.968	0.112
Mof_H 	H 	0.8038	0.556	0.7458	0.113
Mof_H 	H 	0.9373	0.5825	0.6889	-0.014
Mof_H 	H 	0.6233	0.3347	0.0337	-0.004
Mof_H 	H 	0.7052	0.4942	0.0098	0.118
Mof_H 	H 	0.7995	0.3609	0.8354	0.117
Mof_H 	H 	0.7224	0.2036	0.8638	-0.006
Mof_H 	H 	0.4554	0.506	0.6649	-0.007
Mof_H 	H 	0.5407	0.4105	0.6517	0.116
Mof_H 	H 	0.2622	0.138	0.5829	0.111
Mof_H 	H 	0.1775	0.2377	0.5989	-0.004
Mof_H 	H 	0.3919	0.8745	0.5888	0.004
Mof_H 	H 	0.4236	0.0096	0.532	0.112
Mof_H 	H 	0.444	0.1962	0.7542	0.113
Mof_H 	H 	0.4175	0.0627	0.8111	-0.014
Mof_H 	H 	0.6653	0.3767	0.4663	-0.003
Mof_H 	H 	0.5058	0.2948	0.4902	0.118
Mof_H 	H 	0.6391	0.2005	0.6646	0.117
Mof_H 	H 	0.7964	0.2776	0.6362	-0.006
Mof_H 	H 	0.506	0.4554	0.1649	-0.007
Mof_H 	H 	0.4105	0.5407	0.1517	0.116
Mof_H 	H 	0.138	0.2622	0.0829	0.111
Mof_H 	H 	0.2377	0.1775	0.0989	-0.004
Mof_H 	H 	0.8745	0.3919	0.0888	0.005
Mof_H 	H 	0.0096	0.4236	0.032	0.112
Mof_H 	H 	0.1962	0.444	0.2542	0.113
Mof_H 	H 	0.0627	0.4175	0.3111	-0.014
Mof_H 	H 	0.3767	0.6653	0.9663	-0.004
Mof_H 	H 	0.2948	0.5058	0.9902	0.118
Mof_H 	H 	0.2005	0.6391	0.1646	0.117
Mof_H 	H 	0.2776	0.7964	0.1362	-0.006
Mof_H 	H 	0.5446	0.494	0.3351	-0.007
Mof_H 	H 	0.4593	0.5895	0.3483	0.116
Mof_H 	H 	0.7378	0.862	0.4171	0.111
Mof_H 	H 	0.8225	0.7623	0.4011	-0.004
Mof_H 	H 	0.6081	0.1255	0.4112	0.004
Mof_H 	H 	0.5764	0.9904	0.468	0.112
Mof_H 	H 	0.556	0.8038	0.2458	0.113
Mof_H 	H 	0.5825	0.9373	0.1889	-0.014
Mof_H 	H 	0.3347	0.6233	0.5337	-0.003
Mof_H 	H 	0.4942	0.7052	0.5098	0.118
Mof_H 	H 	0.3609	0.7995	0.3354	0.117
Mof_H 	H 	0.2036	0.7224	0.3638	-0.006
Mof_C 	C 	0.55271	0.74609	0.8612	0.42
Mof_C 	C 	0.61815	0.69285	0.8681	-0.203
Mof_C 	C 	0.56808	0.58372	0.8519	0.142
Mof_C 	C 	0.62511	0.53269	0.8599	-0.235
Mof_C 	C 	0.73624	0.58876	0.8853	0.188
Mof_C 	C 	0.78791	0.69869	0.9007	-0.221
Mof_C 	C 	0.72788	0.74952	0.8914	0.129
Mof_C 	C 	0.13059	0.60981	0.7546	0.406
Mof_C 	C 	0.04522	0.59658	0.7938	-0.194
Mof_C 	C 	0.06005	0.59595	0.8774	0.128
Mof_C 	C 	0.9796	0.5778	0.9119	-0.223
Mof_C 	C 	0.88254	0.56166	0.8624	0.186
Mof_C 	C 	0.86803	0.56497	0.7789	-0.228
Mof_C 	C 	0.94813	0.58147	0.7452	0.136
Mof_C 	C 	0.6061	0.1483	0.9635	0.478
Mof_C 	C 	0.6606	0.2516	0.949	-0.22
Mof_C 	C 	0.65778	0.33942	0.9933	0.151
Mof_C 	C 	0.7058	0.4348	0.9783	-0.236
Mof_C 	C 	0.75493	0.44187	0.9162	0.196
Mof_C 	C 	0.76294	0.35546	0.8745	-0.237
Mof_C 	C 	0.71637	0.26123	0.8913	0.146
Mof_C 	C 	0.25391	0.44729	0.6388	0.42
Mof_C 	C 	0.30715	0.38185	0.6319	-0.203
Mof_C 	C 	0.41628	0.43192	0.6481	0.142
Mof_C 	C 	0.46731	0.37489	0.6401	-0.235
Mof_C 	C 	0.41124	0.26376	0.6147	0.188
Mof_C 	C 	0.30131	0.21209	0.5993	-0.221
Mof_C 	C 	0.25048	0.27212	0.6086	0.129
Mof_C 	C 	0.39019	0.86941	0.7454	0.406
Mof_C 	C 	0.40342	0.95478	0.7062	-0.195
Mof_C 	C 	0.40405	0.93995	0.6226	0.129
Mof_C 	C 	0.4222	0.0204	0.5881	-0.224
Mof_C 	C 	0.43834	0.11746	0.6376	0.187
Mof_C 	C 	0.43503	0.13197	0.7211	-0.228
Mof_C 	C 	0.41853	0.05187	0.7548	0.136
Mof_C 	C 	0.8517	0.3939	0.5365	0.477
Mof_C 	C 	0.7484	0.3394	0.551	-0.219
Mof_C 	C 	0.66058	0.34222	0.5067	0.15
Mof_C 	C 	0.5652	0.2942	0.5217	-0.235
Mof_C 	C 	0.55813	0.24507	0.5838	0.196
Mof_C 	C 	0.64454	0.23706	0.6255	-0.237
Mof_C 	C 	0.73877	0.28363	0.6087	0.145
Mof_C 	C 	0.44729	0.25391	0.1388	0.42
Mof_C 	C 	0.38185	0.30715	0.1319	-0.203
Mof_C 	C 	0.43192	0.41628	0.1481	0.142
Mof_C 	C 	0.37489	0.46731	0.1401	-0.235
Mof_C 	C 	0.26376	0.41124	0.1147	0.188
Mof_C 	C 	0.21209	0.30131	0.0993	-0.221
Mof_C 	C 	0.27212	0.25048	0.1086	0.129
Mof_C 	C 	0.86941	0.39019	0.2454	0.406
Mof_C 	C 	0.95478	0.40342	0.2062	-0.194
Mof_C 	C 	0.93995	0.40405	0.1226	0.128
Mof_C 	C 	0.0204	0.4222	0.0881	-0.223
Mof_C 	C 	0.11746	0.43834	0.1376	0.186
Mof_C 	C 	0.13197	0.43503	0.2211	-0.228
Mof_C 	C 	0.05187	0.41853	0.2548	0.136
Mof_C 	C 	0.3939	0.8517	0.0365	0.478
Mof_C 	C 	0.3394	0.7484	0.051	-0.22
Mof_C 	C 	0.34222	0.66058	0.0067	0.151
Mof_C 	C 	0.2942	0.5652	0.0217	-0.236
Mof_C 	C 	0.24507	0.55813	0.0838	0.196
Mof_C 	C 	0.23706	0.64454	0.1255	-0.237
Mof_C 	C 	0.28363	0.73877	0.1087	0.146
Mof_C 	C 	0.74609	0.55271	0.3612	0.42
Mof_C 	C 	0.69285	0.61815	0.3681	-0.203
Mof_C 	C 	0.58372	0.56808	0.3519	0.142
Mof_C 	C 	0.53269	0.62511	0.3599	-0.235
Mof_C 	C 	0.58876	0.73624	0.3853	0.188
Mof_C 	C 	0.69869	0.78791	0.4007	-0.221
Mof_C 	C 	0.74952	0.72788	0.3914	0.129
Mof_C 	C 	0.60981	0.13059	0.2546	0.406
Mof_C 	C 	0.59658	0.04522	0.2938	-0.195
Mof_C 	C 	0.59595	0.06005	0.3774	0.129
Mof_C 	C 	0.5778	0.9796	0.4119	-0.224
Mof_C 	C 	0.56166	0.88254	0.3624	0.187
Mof_C 	C 	0.56497	0.86803	0.2789	-0.228
Mof_C 	C 	0.58147	0.94813	0.2452	0.136
Mof_C 	C 	0.1483	0.6061	0.4635	0.477
Mof_C 	C 	0.2516	0.6606	0.449	-0.219
Mof_C 	C 	0.33942	0.65778	0.4933	0.15
Mof_C 	C 	0.4348	0.7058	0.4783	-0.235
Mof_C 	C 	0.44187	0.75493	0.4162	0.196
Mof_C 	C 	0.35546	0.76294	0.3745	-0.237
Mof_C 	C 	0.26123	0.71637	0.3913	0.145
Mof_N 	N 	0.79714	0.53746	0.8964	-0.2
Mof_N 	N 	0.46254	0.20286	0.6036	-0.2
Mof_N 	N 	0.20286	0.46254	0.1036	-0.2
Mof_N 	N 	0.53746	0.79714	0.3964	-0.2
Mof_O 	O 	0.4529	0.6875	0.8374	-0.487
Mof_O 	O 	0.60056	0.84664	0.8819	-0.49
Mof_O 	O 	0.22097	0.63843	0.8053	-0.475
Mof_O 	O 	0.11026	0.59514	0.6753	-0.485
Mof_O 	O 	0.54813	0.14087	0.0084	-0.555
Mof_O 	O 	0.6168	0.0732	0.9258	-0.512
Mof_O 	O 	0.3125	0.5471	0.6626	-0.487
Mof_O 	O 	0.15336	0.39944	0.6181	-0.49
Mof_O 	O 	0.36157	0.77903	0.6947	-0.475
Mof_O 	O 	0.40486	0.88974	0.8247	-0.485
Mof_O 	O 	0.85913	0.45187	0.4916	-0.554
Mof_O 	O 	0.9268	0.3832	0.5742	-0.512
Mof_O 	O 	0.5471	0.3125	0.1626	-0.487
Mof_O 	O 	0.39944	0.15336	0.1181	-0.49
Mof_O 	O 	0.77903	0.36157	0.1947	-0.475
Mof_O 	O 	0.88974	0.40486	0.3247	-0.485
Mof_O 	O 	0.45187	0.85913	0.9916	-0.555
Mof_O 	O 	0.3832	0.9268	0.0742	-0.512
Mof_O 	O 	0.6875	0.4529	0.3374	-0.487
Mof_O 	O 	0.84664	0.60056	0.3819	-0.49
Mof_O 	O 	0.63843	0.22097	0.3053	-0.475
Mof_O 	O 	0.59514	0.11026	0.1753	-0.485
Mof_O 	O 	0.14087	0.54813	0.5084	-0.554
Mof_O 	O 	0.0732	0.6168	0.4258	-0.512
_end
