data_functionalizedCrystal
_audit_creation_method	'EQeq! by Chris Wilmer'
_symmetry_space_group_name_H-M	'P1'
_symmetry_Int_Tables_number	1
_symmetry_cell_setting	triclinic
loop_
_symmetry_equiv_pos_as_xyz
  x,y,z
_cell_length_a	10.9463
_cell_length_b	15.0463
_cell_length_c	15.0463
_cell_angle_alpha	65.6827
_cell_angle_beta	75.9658
_cell_angle_gamma	104.034
loop_
_atom_site_label
_atom_site_type_symbol
_atom_site_fract_x
_atom_site_fract_y
_atom_site_fract_z
_atom_site_charge
Mof_Fe	Fe	0.5	0.5	0.5	0.606
Mof_H 	H 	0.2295	0.3411	0.5364	0.108
Mof_H 	H 	0.4758	0.6889	0.2947	0.181
Mof_H 	H 	0.3469	0.709	0.2716	0.165
Mof_H 	H 	0.4431	0.6783	0.2007	0.16
Mof_H 	H 	0.031	0.2375	0.5324	0.216
Mof_H 	H 	0.0417	0.2725	0.4141	0.215
Mof_H 	H 	0.9498	0.307	0.4834	0.239
Mof_H 	H 	0.0268	0.7152	0.237	0.167
Mof_H 	H 	0.164	0.7182	0.2577	0.16
Mof_H 	H 	0.0191	0.6323	0.3494	0.165
Mof_H 	H 	0.1286	0.3692	0.1466	0.175
Mof_H 	H 	0.1187	0.3249	0.2658	0.169
Mof_H 	H 	0.2591	0.4124	0.1697	0.172
Mof_H 	H 	0.9916	0.6316	0.1339	0.136
Mof_H 	H 	0.7705	0.6589	0.4636	0.107
Mof_H 	H 	0.5242	0.3111	0.7053	0.183
Mof_H 	H 	0.6531	0.291	0.7284	0.168
Mof_H 	H 	0.5569	0.3217	0.7993	0.172
Mof_H 	H 	0.969	0.7625	0.4676	0.166
Mof_H 	H 	0.9583	0.7275	0.5859	0.163
Mof_H 	H 	0.0502	0.693	0.5166	0.134
Mof_H 	H 	0.9732	0.2848	0.763	0.209
Mof_H 	H 	0.836	0.2818	0.7423	0.183
Mof_H 	H 	0.9809	0.3677	0.6506	0.201
Mof_H 	H 	0.8714	0.6308	0.8534	0.208
Mof_H 	H 	0.8813	0.6751	0.7342	0.196
Mof_H 	H 	0.7409	0.5876	0.8303	0.194
Mof_H 	H 	0.0084	0.3684	0.8661	0.089
Mof_C 	C 	0.27501	0.34864	0.73831	0.055
Mof_C 	C 	0.31539	0.55226	0.34679	0.197
Mof_C 	C 	0.19975	0.4915	0.34075	-0.152
Mof_C 	C 	0.1528	0.39172	0.42802	0.246
Mof_C 	C 	0.40274	0.66695	0.27203	-0.54
Mof_C 	C 	0.03371	0.29389	0.46786	-0.707
Mof_C 	C 	0.08337	0.5969	0.23399	0.192
Mof_C 	C 	0.13992	0.52154	0.26018	-0.122
Mof_C 	C 	0.11615	0.47259	0.19974	0.183
Mof_C 	C 	0.07236	0.67203	0.27285	-0.545
Mof_C 	C 	0.15934	0.38747	0.19505	-0.543
Mof_C 	C 	0.72499	0.65136	0.26169	0.062
Mof_C 	C 	0.68461	0.44774	0.65321	0.192
Mof_C 	C 	0.80025	0.5085	0.65925	-0.112
Mof_C 	C 	0.8472	0.60828	0.57198	0.188
Mof_C 	C 	0.59726	0.33305	0.72797	-0.545
Mof_C 	C 	0.96629	0.70611	0.53214	-0.476
Mof_C 	C 	0.91663	0.4031	0.76601	0.228
Mof_C 	C 	0.86008	0.47846	0.73982	-0.14
Mof_C 	C 	0.88385	0.52741	0.80026	0.219
Mof_C 	C 	0.92764	0.32797	0.72715	-0.599
Mof_C 	C 	0.84066	0.61253	0.80495	-0.591
Mof_S 	S 	0.182	0.28038	0.86505	-0.102
Mof_S 	S 	0.818	0.71962	0.13495	-0.108
Mof_N 	N 	0.34346	0.39652	0.64813	-0.203
Mof_N 	N 	0.33886	0.49328	0.431	-0.164
Mof_N 	N 	0.23805	0.39567	0.47868	-0.212
Mof_N 	N 	0.04883	0.51429	0.14076	-0.163
Mof_N 	N 	0.032	0.5905	0.163	-0.227
Mof_N 	N 	0.65654	0.60348	0.35187	-0.204
Mof_N 	N 	0.66114	0.50672	0.569	-0.163
Mof_N 	N 	0.76195	0.60433	0.52132	-0.197
Mof_N 	N 	0.95117	0.48571	0.85924	-0.141
Mof_N 	N 	0.968	0.4095	0.837	-0.177
Mof_Fe	Fe	-2.81412e-17	0.5	-0	0.524
Mof_H 	H 	0.7659	0.5364	0.1225	0.105
Mof_H 	H 	0.7705	0.2947	0.0164	0.169
Mof_H 	H 	0.6185	0.2716	0.0194	0.149
Mof_H 	H 	0.6438	0.2007	0.121	0.152
Mof_H 	H 	0.5634	0.5324	0.2301	0.185
Mof_H 	H 	0.4558	0.4141	0.3134	0.185
Mof_H 	H 	0.4332	0.4834	0.2096	0.18
Mof_H 	H 	0.2638	0.237	0.0478	0.163
Mof_H 	H 	0.4217	0.2577	0.0241	0.149
Mof_H 	H 	0.3685	0.3494	0.0183	0.161
Mof_H 	H 	0.2752	0.1466	0.4842	0.186
Mof_H 	H 	0.3845	0.2658	0.4093	0.181
Mof_H 	H 	0.4288	0.1697	0.4179	0.177
Mof_H 	H 	0.1255	0.1339	0.2345	0.094
Mof_H 	H 	0.2341	0.4636	0.8775	0.114
Mof_H 	H 	0.2295	0.7053	0.9836	0.199
Mof_H 	H 	0.3815	0.7284	0.9806	0.183
Mof_H 	H 	0.3562	0.7993	0.879	0.18
Mof_H 	H 	0.4366	0.4676	0.7699	0.193
Mof_H 	H 	0.5442	0.5859	0.6866	0.188
Mof_H 	H 	0.5668	0.5166	0.7904	0.191
Mof_H 	H 	0.7362	0.763	0.9522	0.214
Mof_H 	H 	0.5783	0.7423	0.9759	0.194
Mof_H 	H 	0.6315	0.6506	0.9817	0.206
Mof_H 	H 	0.7248	0.8534	0.5158	0.196
Mof_H 	H 	0.6155	0.7342	0.5907	0.184
Mof_H 	H 	0.5712	0.8303	0.5821	0.187
Mof_H 	H 	0.8745	0.8661	0.7655	0.13
Mof_C 	C 	0.01332	0.73831	0.91305	0.017
Mof_C 	C 	0.66218	0.34679	0.10095	0.183
Mof_C 	C 	0.5405	0.34075	0.16775	-0.131
Mof_C 	C 	0.58082	0.42802	0.18026	0.209
Mof_C 	C 	0.67477	0.27203	0.06102	-0.518
Mof_C 	C 	0.50157	0.46786	0.23825	-0.581
Mof_C 	C 	0.31736	0.23399	0.16911	0.19
Mof_C 	C 	0.4001	0.26018	0.21828	-0.127
Mof_C 	C 	0.31589	0.19974	0.32767	0.195
Mof_C 	C 	0.34521	0.27285	0.05512	-0.532
Mof_C 	C 	0.35439	0.19505	0.41748	-0.56
Mof_C 	C 	0.98668	0.26169	0.08695	0.095
Mof_C 	C 	0.33782	0.65321	0.89905	0.206
Mof_C 	C 	0.4595	0.65925	0.83225	-0.131
Mof_C 	C 	0.41918	0.57198	0.81974	0.221
Mof_C 	C 	0.32523	0.72797	0.93898	-0.568
Mof_C 	C 	0.49843	0.53214	0.76175	-0.594
Mof_C 	C 	0.68264	0.76601	0.83089	0.23
Mof_C 	C 	0.5999	0.73982	0.78172	-0.136
Mof_C 	C 	0.68411	0.80026	0.67233	0.207
Mof_C 	C 	0.65479	0.72715	0.94488	-0.613
Mof_C 	C 	0.64561	0.80495	0.58252	-0.572
Mof_S 	S 	0.04705	0.86505	0.85457	-0.086
Mof_S 	S 	0.95295	0.13495	0.14543	-0.121
Mof_N 	N 	0.99159	0.64813	0.95535	-0.152
Mof_N 	N 	0.76986	0.431	0.07572	-0.158
Mof_N 	N 	0.71673	0.47868	0.12565	-0.204
Mof_N 	N 	0.18959	0.14076	0.34495	-0.163
Mof_N 	N 	0.195	0.163	0.2465	-0.199
Mof_N 	N 	0.00841	0.35187	0.04465	-0.233
Mof_N 	N 	0.23014	0.569	0.92428	-0.153
Mof_N 	N 	0.28327	0.52132	0.87435	-0.203
Mof_N 	N 	0.81041	0.85924	0.65505	-0.143
Mof_N 	N 	0.805	0.837	0.7535	-0.206
Mof_Fe	Fe	1.40706e-17	2.81412e-17	0.5	0.532
Mof_H 	H 	0.8884	0.1225	0.3411	0.11
Mof_H 	H 	0.7869	0.0164	0.6889	0.18
Mof_H 	H 	0.6379	0.0194	0.709	0.16
Mof_H 	H 	0.7648	0.121	0.6783	0.168
Mof_H 	H 	0.7935	0.2301	0.2375	0.192
Mof_H 	H 	0.7692	0.3134	0.2725	0.193
Mof_H 	H 	0.6428	0.2096	0.307	0.184
Mof_H 	H 	0.3116	0.0478	0.7152	0.177
Mof_H 	H 	0.4458	0.0241	0.7182	0.161
Mof_H 	H 	0.3868	0.0183	0.6323	0.169
Mof_H 	H 	0.7594	0.4842	0.3692	0.197
Mof_H 	H 	0.7938	0.4093	0.3249	0.192
Mof_H 	H 	0.8467	0.4179	0.4124	0.193
Mof_H 	H 	0.36	0.2345	0.6316	0.111
Mof_H 	H 	0.1116	0.8775	0.6589	0.108
Mof_H 	H 	0.2131	0.9836	0.3111	0.187
Mof_H 	H 	0.3621	0.9806	0.291	0.172
Mof_H 	H 	0.2352	0.879	0.3217	0.164
Mof_H 	H 	0.2065	0.7699	0.7625	0.191
Mof_H 	H 	0.2308	0.6866	0.7275	0.186
Mof_H 	H 	0.3572	0.7904	0.693	0.19
Mof_H 	H 	0.6884	0.9522	0.2848	0.199
Mof_H 	H 	0.5542	0.9759	0.2818	0.182
Mof_H 	H 	0.6132	0.9817	0.3677	0.197
Mof_H 	H 	0.2406	0.5158	0.6308	0.181
Mof_H 	H 	0.2062	0.5907	0.6751	0.173
Mof_H 	H 	0.1533	0.5821	0.5876	0.171
Mof_H 	H 	0.64	0.7655	0.3684	0.111
Mof_C 	C 	0.92637	0.91305	0.34864	0.066
Mof_C 	C 	0.76313	0.10095	0.55226	0.192
Mof_C 	C 	0.70825	0.16775	0.4915	-0.133
Mof_C 	C 	0.76108	0.18026	0.39172	0.217
Mof_C 	C 	0.73579	0.06102	0.66695	-0.538
Mof_C 	C 	0.73982	0.23825	0.29389	-0.592
Mof_C 	C 	0.48647	0.16911	0.5969	0.203
Mof_C 	C 	0.61838	0.21828	0.52154	-0.131
Mof_C 	C 	0.64356	0.32767	0.47259	0.205
Mof_C 	C 	0.40033	0.05512	0.67203	-0.553
Mof_C 	C 	0.77187	0.41748	0.38747	-0.58
Mof_C 	C 	0.07363	0.08695	0.65136	0.046
Mof_C 	C 	0.23687	0.89905	0.44774	0.197
Mof_C 	C 	0.29175	0.83225	0.5085	-0.131
Mof_C 	C 	0.23892	0.81974	0.60828	0.217
Mof_C 	C 	0.26421	0.93898	0.33305	-0.547
Mof_C 	C 	0.26018	0.76175	0.70611	-0.591
Mof_C 	C 	0.51353	0.83089	0.4031	0.216
Mof_C 	C 	0.38162	0.78172	0.47846	-0.132
Mof_C 	C 	0.35644	0.67233	0.52741	0.196
Mof_C 	C 	0.59967	0.94488	0.32797	-0.592
Mof_C 	C 	0.22813	0.58252	0.61253	-0.551
Mof_S 	S 	0.90162	0.85457	0.28038	-0.084
Mof_S 	S 	0.09838	0.14543	0.71962	-0.125
Mof_N 	N 	0.94694	0.95535	0.39652	-0.177
Mof_N 	N 	0.84558	0.07572	0.49328	-0.156
Mof_N 	N 	0.84238	0.12565	0.39567	-0.204
Mof_N 	N 	0.53454	0.34495	0.51429	-0.16
Mof_N 	N 	0.4415	0.2465	0.5905	-0.201
Mof_N 	N 	0.05306	0.04465	0.60348	-0.21
Mof_N 	N 	0.15442	0.92428	0.50672	-0.156
Mof_N 	N 	0.15762	0.87435	0.60433	-0.203
Mof_N 	N 	0.46546	0.65505	0.48571	-0.159
Mof_N 	N 	0.5585	0.7535	0.4095	-0.204
_end
