# CIF file generated by openbabel 3.1.0, see https://openbabel.org
data_I
_chemical_name_common 'image0'
_cell_length_a 11.6247
_cell_length_b 11.6247
_cell_length_c 11.6247
_cell_angle_alpha 90
_cell_angle_beta 90
_cell_angle_gamma 90
_space_group_name_H-M_alt 'P 1'
_space_group_name_Hall 'P 1'
loop_
    _symmetry_equiv_pos_as_xyz
    x,y,z
loop_
    _atom_site_label
    _atom_site_type_symbol
    _atom_site_fract_x
    _atom_site_fract_y
    _atom_site_fract_z
    _atom_site_occupancy
    Zn1      Zn       0.00000    0.00000    0.00000    1.000
    Zn2      Zn       0.00000    0.50000    0.50000    1.000
    Zn3      Zn       0.50000    0.00000    0.50000    1.000
    Zn4      Zn       0.50000    0.50000    0.00000    1.000
    Cu1      Cu       0.75000    0.75000    0.75000    1.000
    Cu2      Cu       0.25000    0.25000    0.75000    1.000
    Cu3      Cu       0.25000    0.75000    0.25000    1.000
    Cu4      Cu       0.75000    0.25000    0.25000    1.000
    C1       C        0.84750    0.84750    0.84750    1.000
    N1       N        0.90350    0.90350    0.90350    1.000
    C2       C        0.84750    0.34750    0.34750    1.000
    N2       N        0.90350    0.40350    0.40350    1.000
    C3       C        0.34750    0.84750    0.34750    1.000
    N3       N        0.40350    0.90350    0.40350    1.000
    C4       C        0.34750    0.34750    0.84750    1.000
    N4       N        0.40350    0.40350    0.90350    1.000
    C5       C        0.15250    0.15250    0.84750    1.000
    N5       N        0.09650    0.09650    0.90350    1.000
    C6       C        0.15250    0.65250    0.34750    1.000
    N6       N        0.09650    0.59650    0.40350    1.000
    C7       C        0.65250    0.15250    0.34750    1.000
    N7       N        0.59650    0.09650    0.40350    1.000
    C8       C        0.65250    0.65250    0.84750    1.000
    N8       N        0.59650    0.59650    0.90350    1.000
    C9       C        0.15250    0.84750    0.15250    1.000
    N9       N        0.09650    0.90350    0.09650    1.000
    C10      C        0.15250    0.34750    0.65250    1.000
    N10      N        0.09650    0.40350    0.59650    1.000
    C11      C        0.65250    0.84750    0.65250    1.000
    N11      N        0.59650    0.90350    0.59650    1.000
    C12      C        0.65250    0.34750    0.15250    1.000
    N12      N        0.59650    0.40350    0.09650    1.000
    C13      C        0.84750    0.15250    0.15250    1.000
    N13      N        0.90350    0.09650    0.09650    1.000
    C14      C        0.84750    0.65250    0.65250    1.000
    N14      N        0.90350    0.59650    0.59650    1.000
    C15      C        0.34750    0.15250    0.65250    1.000
    N15      N        0.40350    0.09650    0.59650    1.000
    C16      C        0.34750    0.65250    0.15250    1.000
    N16      N        0.40350    0.59650    0.09650    1.000
