data_functionalizedCrystal
_audit_creation_method	'EQeq! by Chris Wilmer'
_symmetry_space_group_name_H-M	'P1'
_symmetry_Int_Tables_number	1
_symmetry_cell_setting	triclinic
loop_
_symmetry_equiv_pos_as_xyz
  x,y,z
_cell_length_a	7.813
_cell_length_b	11.88
_cell_length_c	12.994
_cell_angle_alpha	93.092
_cell_angle_beta	93.938
_cell_angle_gamma	108.359
loop_
_atom_site_label
_atom_site_type_symbol
_atom_site_fract_x
_atom_site_fract_y
_atom_site_fract_z
_atom_site_charge
Mof_Nd	Nd	0.15004	0.77776	0.0319	2.47
Mof_Nd	Nd	0.15651	0.78215	0.53207	2.508
Mof_O 	O 	0.9847	0.7271	0.3578	-0.42
Mof_O 	O 	0.9823	0.7188	0.1868	-0.439
Mof_O 	O 	0.3412	0.8254	0.2036	-0.449
Mof_O 	O 	0.3446	0.8216	0.3765	-0.451
Mof_O 	O 	0.2117	0.6802	0.6906	-0.448
Mof_O 	O 	0.1992	0.6697	0.8615	-0.386
Mof_O 	O 	0.1085	0.8733	0.7009	-0.481
Mof_O 	O 	0.0813	0.8585	0.8695	-0.5
Mof_O 	O 	0.4688	0.8481	0.9897	-0.453
Mof_O 	O 	0.7011	0.9994	0.9493	-0.462
Mof_O 	O 	0.8848	0.852	0.5169	-0.437
Mof_O 	O 	0.778	0.0028	0.492	-0.499
Mof_O 	O 	0.8882	0.6038	0.9775	-0.465
Mof_O 	O 	0.7993	0.4087	0.9307	-0.451
Mof_O 	O 	0.2127	0.5956	0.4778	-0.458
Mof_O 	O 	0.1095	0.3974	0.4638	-0.439
Mof_C 	C 	0.0598	0.7456	0.2762	0.254
Mof_C 	C 	0.2685	0.8044	0.2862	0.278
Mof_C 	C 	0.1818	0.7143	0.7783	0.255
Mof_C 	C 	0.1184	0.8261	0.7841	0.308
Mof_C 	C 	0.5477	0.9551	0.9827	0.279
Mof_C 	C 	0.9026	0.9572	0.5025	0.297
Mof_C 	C 	0.909	0.5036	0.9736	0.293
Mof_C 	C 	0.0939	0.4978	0.4832	0.298
Mof_Nd	Nd	0.84996	0.22224	0.9681	2.469
Mof_Nd	Nd	0.84349	0.21785	0.46793	2.507
Mof_O 	O 	0.0153	0.2729	0.6422	-0.421
Mof_O 	O 	0.0177	0.2812	0.8132	-0.44
Mof_O 	O 	0.6588	0.1746	0.7964	-0.449
Mof_O 	O 	0.6554	0.1784	0.6235	-0.451
Mof_O 	O 	0.7883	0.3198	0.3094	-0.448
Mof_O 	O 	0.8008	0.3303	0.1385	-0.386
Mof_O 	O 	0.8915	0.1267	0.2991	-0.481
Mof_O 	O 	0.9187	0.1415	0.1305	-0.5
Mof_O 	O 	0.5312	0.1519	0.0103	-0.453
Mof_O 	O 	0.2989	0.0006	0.0507	-0.462
Mof_O 	O 	0.1152	0.148	0.4831	-0.437
Mof_O 	O 	0.222	0.9972	0.508	-0.499
Mof_O 	O 	0.1118	0.3962	0.0225	-0.465
Mof_O 	O 	0.2007	0.5913	0.0693	-0.451
Mof_O 	O 	0.7873	0.4044	0.5222	-0.458
Mof_O 	O 	0.8905	0.6026	0.5362	-0.439
Mof_C 	C 	0.9402	0.2544	0.7238	0.254
Mof_C 	C 	0.7315	0.1956	0.7138	0.278
Mof_C 	C 	0.8182	0.2857	0.2217	0.255
Mof_C 	C 	0.8816	0.1739	0.2159	0.308
Mof_C 	C 	0.4523	0.0449	0.0173	0.279
Mof_C 	C 	0.0974	0.0428	0.4975	0.297
Mof_C 	C 	0.091	0.4964	0.0264	0.293
Mof_C 	C 	0.9061	0.5022	0.5168	0.298
_end
