# CIF file generated by openbabel 3.1.0, see https://openbabel.org
data_I
_chemical_name_common 'image0'
_cell_length_a 9.1743
_cell_length_b 10.8488
_cell_length_c 11.3458
_cell_angle_alpha 113.479
_cell_angle_beta 98.726
_cell_angle_gamma 98.016
_space_group_name_H-M_alt 'P 1'
_space_group_name_Hall 'P 1'
loop_
    _symmetry_equiv_pos_as_xyz
    x,y,z
loop_
    _atom_site_label
    _atom_site_type_symbol
    _atom_site_fract_x
    _atom_site_fract_y
    _atom_site_fract_z
    _atom_site_occupancy
    Zn1      Zn       0.81965    0.38671    0.38601    1.000
    O1       O        0.75010    0.21810    0.40570    1.000
    O2       O        0.71540    0.40610    0.23620    1.000
    O3       O        0.55040    0.52270    0.33380    1.000
    O4       O        0.54480    0.30280    0.42980    1.000
    N1       N        0.97140    0.62890    0.64510    1.000
    C1       C        0.44450    0.56350    0.11100    1.000
    H1       H        0.40740    0.60600    0.18560    1.000
    C2       C        0.62110    0.21670    0.43260    1.000
    N2       N        0.72570    0.59070    0.60700    1.000
    C3       C        0.60780    0.47080    0.23860    1.000
    C4       C        0.60720    0.42230    0.00170    1.000
    H2       H        0.67920    0.37010    0.00310    1.000
    N3       N        0.84250    0.55130    0.55870    1.000
    C5       C        0.55770    0.10470    0.46730    1.000
    C6       C        0.55300    0.48550    0.11440    1.000
    C7       C        0.63210    0.99630    0.45410    1.000
    H3       H        0.72060    0.99400    0.42350    1.000
    C8       C        0.93330    0.71970    0.75040    1.000
    H4       H        0.00020    0.78730    0.82610    1.000
    C9       C        0.42780    0.10710    0.51280    1.000
    H5       H        0.37910    0.17890    0.52170    1.000
    C10      C        0.78230    0.69600    0.72720    1.000
    H6       H        0.72610    0.74390    0.78440    1.000
    Zn2      Zn       0.18035    0.61329    0.61399    1.000
    O5       O        0.24990    0.78190    0.59430    1.000
    O6       O        0.28460    0.59390    0.76380    1.000
    O7       O        0.44960    0.47730    0.66620    1.000
    O8       O        0.45520    0.69720    0.57020    1.000
    N4       N        0.02860    0.37110    0.35490    1.000
    C11      C        0.55550    0.43650    0.88900    1.000
    H7       H        0.59260    0.39400    0.81440    1.000
    C12      C        0.37890    0.78330    0.56740    1.000
    N5       N        0.27430    0.40930    0.39300    1.000
    C13      C        0.39220    0.52920    0.76140    1.000
    C14      C        0.39280    0.57770    0.99830    1.000
    H8       H        0.32080    0.62990    0.99690    1.000
    N6       N        0.15750    0.44870    0.44130    1.000
    C15      C        0.44230    0.89530    0.53270    1.000
    C16      C        0.44700    0.51450    0.88560    1.000
    C17      C        0.36790    0.00370    0.54590    1.000
    H9       H        0.27940    0.00600    0.57650    1.000
    C18      C        0.06670    0.28030    0.24960    1.000
    H10      H        0.99980    0.21270    0.17390    1.000
    C19      C        0.57220    0.89290    0.48720    1.000
    H11      H        0.62090    0.82110    0.47830    1.000
    C20      C        0.21770    0.30400    0.27280    1.000
    H12      H        0.27390    0.25610    0.21560    1.000
    Zn3      Zn       0.50000    0.50000    0.50000    1.000
