# CIF file generated by openbabel 3.1.0, see https://openbabel.org
data_I
_chemical_name_common 'image0'
_cell_length_a 12.4143
_cell_length_b 7.7166
_cell_length_c 18.327
_cell_angle_alpha 90
_cell_angle_beta 90
_cell_angle_gamma 90
_space_group_name_H-M_alt 'P 1'
_space_group_name_Hall 'P 1'
loop_
    _symmetry_equiv_pos_as_xyz
    x,y,z
loop_
    _atom_site_label
    _atom_site_type_symbol
    _atom_site_fract_x
    _atom_site_fract_y
    _atom_site_fract_z
    _atom_site_occupancy
    In1      In       0.43362    0.71118    0.30351    1.000
    In2      In       0.62305    0.28402    0.45164    1.000
    P1       P        0.36540    0.37060    0.40590    1.000
    H1       H        0.38200    0.22000    0.36600    1.000
    P2       P        0.19191    0.87170    0.35007    1.000
    H2       H        0.17100    0.72900    0.38400    1.000
    P3       P        0.44711    0.74860    0.12234    1.000
    H3       H        0.54100    0.70300    0.09800    1.000
    O1       O        0.35150    0.49620    0.34230    1.000
    O2       O        0.29030    0.86470    0.29990    1.000
    O3       O        0.46330    0.81410    0.41280    1.000
    O4       O        0.51800    0.96020    0.28360    1.000
    O5       O        0.09100    0.90360    0.30580    1.000
    O6       O        0.42630    0.64990    0.19280    1.000
    O7       O        0.46790    0.40280    0.44870    1.000
    O8       O        0.36920    0.68210    0.06400    1.000
    O9       O        0.26680    0.36780    0.45440    1.000
    O10      O        0.20530    0.99790    0.41310    1.000
    O11      O        0.53660    0.03560    0.47100    1.000
    O12      O        0.59240    0.18120    0.34160    1.000
    O13      O        0.44860    0.94410    0.13130    1.000
    C1       C        0.51090    0.95640    0.41470    1.000
    C2       C        0.54250    0.03890    0.34000    1.000
    In3      In       0.56638    0.28882    0.80351    1.000
    In4      In       0.37695    0.71598    0.95164    1.000
    P4       P        0.63460    0.62940    0.90590    1.000
    H4       H        0.61800    0.78000    0.86600    1.000
    P5       P        0.80809    0.12830    0.85007    1.000
    H5       H        0.82900    0.27100    0.88400    1.000
    P6       P        0.55289    0.25140    0.62234    1.000
    H6       H        0.45900    0.29700    0.59800    1.000
    O14      O        0.64850    0.50380    0.84230    1.000
    O15      O        0.70970    0.13530    0.79990    1.000
    O16      O        0.53670    0.18590    0.91280    1.000
    O17      O        0.48200    0.03980    0.78360    1.000
    O18      O        0.90900    0.09640    0.80580    1.000
    O19      O        0.57370    0.35010    0.69280    1.000
    O20      O        0.53210    0.59720    0.94870    1.000
    O21      O        0.63080    0.31790    0.56400    1.000
    O22      O        0.73320    0.63220    0.95440    1.000
    O23      O        0.79470    0.00210    0.91310    1.000
    O24      O        0.46340    0.96440    0.97100    1.000
    O25      O        0.40760    0.81880    0.84160    1.000
    O26      O        0.55140    0.05590    0.63130    1.000
    C3       C        0.48910    0.04360    0.91470    1.000
    C4       C        0.45750    0.96110    0.84000    1.000
    In5      In       0.93362    0.78882    0.30351    1.000
    In6      In       0.12305    0.21598    0.45164    1.000
    P7       P        0.86540    0.12940    0.40590    1.000
    H7       H        0.88200    0.28000    0.36600    1.000
    P8       P        0.69191    0.62830    0.35007    1.000
    H8       H        0.67100    0.77100    0.38400    1.000
    P9       P        0.94711    0.75140    0.12234    1.000
    H9       H        0.04100    0.79700    0.09800    1.000
    O27      O        0.85150    0.00380    0.34230    1.000
    O28      O        0.79030    0.63530    0.29990    1.000
    O29      O        0.96330    0.68590    0.41280    1.000
    O30      O        0.01800    0.53980    0.28360    1.000
    O31      O        0.59100    0.59640    0.30580    1.000
    O32      O        0.92630    0.85010    0.19280    1.000
    O33      O        0.96790    0.09720    0.44870    1.000
    O34      O        0.86920    0.81790    0.06400    1.000
    O35      O        0.76680    0.13220    0.45440    1.000
    O36      O        0.70530    0.50210    0.41310    1.000
    O37      O        0.03660    0.46440    0.47100    1.000
    O38      O        0.09240    0.31880    0.34160    1.000
    O39      O        0.94860    0.55590    0.13130    1.000
    C5       C        0.01090    0.54360    0.41470    1.000
    C6       C        0.04250    0.46110    0.34000    1.000
    In7      In       0.06638    0.21118    0.80351    1.000
    In8      In       0.87695    0.78402    0.95164    1.000
    P10      P        0.13460    0.87060    0.90590    1.000
    H10      H        0.11800    0.72000    0.86600    1.000
    P11      P        0.30809    0.37170    0.85007    1.000
    H11      H        0.32900    0.22900    0.88400    1.000
    P12      P        0.05289    0.24860    0.62234    1.000
    H12      H        0.95900    0.20300    0.59800    1.000
    O40      O        0.14850    0.99620    0.84230    1.000
    O41      O        0.20970    0.36470    0.79990    1.000
    O42      O        0.03670    0.31410    0.91280    1.000
    O43      O        0.98200    0.46020    0.78360    1.000
    O44      O        0.40900    0.40360    0.80580    1.000
    O45      O        0.07370    0.14990    0.69280    1.000
    O46      O        0.03210    0.90280    0.94870    1.000
    O47      O        0.13080    0.18210    0.56400    1.000
    O48      O        0.23320    0.86780    0.95440    1.000
    O49      O        0.29470    0.49790    0.91310    1.000
    O50      O        0.96340    0.53560    0.97100    1.000
    O51      O        0.90760    0.68120    0.84160    1.000
    O52      O        0.05140    0.44410    0.63130    1.000
    C7       C        0.98910    0.45640    0.91470    1.000
    C8       C        0.95750    0.53890    0.84000    1.000
