data_functionalizedCrystal
_audit_creation_method	'EQeq! by Chris Wilmer'
_symmetry_space_group_name_H-M	'P1'
_symmetry_Int_Tables_number	1
_symmetry_cell_setting	triclinic
loop_
_symmetry_equiv_pos_as_xyz
  x,y,z
_cell_length_a	13.617
_cell_length_b	14.3185
_cell_length_c	18.6289
_cell_angle_alpha	88.841
_cell_angle_beta	69.413
_cell_angle_gamma	79.69
loop_
_atom_site_label
_atom_site_type_symbol
_atom_site_fract_x
_atom_site_fract_y
_atom_site_fract_z
_atom_site_charge
Mof_Ni	Ni	0.20117	0.1936	0.4793	1.089
Mof_C 	C 	0.3026	0.9015	0.8008	-0.105
Mof_C 	C 	0.4044	0.9183	0.7628	0.016
Mof_H 	H 	0.4256	0.9697	0.7792	0.041
Mof_C 	C 	0.4758	0.861	0.701	-0.107
Mof_C 	C 	0.4398	0.7891	0.6745	-0.038
Mof_H 	H 	0.4868	0.7514	0.632	0.055
Mof_C 	C 	0.3358	0.7699	0.7087	0.016
Mof_C 	C 	0.2695	0.8284	0.7724	-0.048
Mof_H 	H 	0.2002	0.8182	0.797	0.029
Mof_C 	C 	0.2272	0.9657	0.8674	0.357
Mof_C 	C 	0.5858	0.8761	0.661	0.341
Mof_C 	C 	0.2874	0.7071	0.6699	-0.098
Mof_H 	H 	0.2268	0.6866	0.7082	0.027
Mof_H 	H 	0.2621	0.7435	0.6333	0.046
Mof_C 	C 	0.3728	0.5575	0.6865	-0.007
Mof_H 	H 	0.3017	0.5446	0.7133	0.014
Mof_H 	H 	0.3945	0.5872	0.7234	0.026
Mof_C 	C 	0.4473	0.4656	0.6569	-0.151
Mof_H 	H 	0.4172	0.4321	0.6274	0.078
Mof_H 	H 	0.4472	0.4282	0.7009	0.067
Mof_C 	C 	0.5634	0.4656	0.6076	-0.027
Mof_H 	H 	0.5653	0.5134	0.5697	0.046
Mof_H 	H 	0.5997	0.484	0.64	0.041
Mof_C 	C 	0.604	0.3563	0.5015	0.031
Mof_C 	C 	0.6668	0.4121	0.4317	-0.01
Mof_C 	C 	0.6281	0.3011	0.6221	-0.12
Mof_H 	H 	0.6512	0.2404	0.5935	0.068
Mof_H 	H 	0.5574	0.3015	0.6595	0.067
Mof_C 	C 	0.9999	0.2574	0.6255	0.397
Mof_C 	C 	0.6922	0.4063	0.8543	0.325
Mof_C 	C 	0.7337	0.3593	0.7767	-0.105
Mof_C 	C 	0.6638	0.349	0.7374	-0.049
Mof_H 	H 	0.5908	0.3699	0.7615	0.047
Mof_C 	C 	0.7024	0.3086	0.6642	0.036
Mof_C 	C 	0.8105	0.2771	0.6284	-0.038
Mof_H 	H 	0.8369	0.2485	0.5793	0.03
Mof_C 	C 	0.8813	0.2885	0.6665	-0.115
Mof_C 	C 	0.8411	0.3296	0.7379	0.028
Mof_H 	H 	0.8883	0.3382	0.762	0.036
Mof_C 	C 	0.7896	0.1219	0.869	-1.019
Mof_H 	H 	0.8112	0.1807	0.8503	0.332
Mof_H 	H 	0.7316	0.1339	0.9174	0.307
Mof_H 	H 	0.7669	0.0934	0.8328	0.314
Mof_C 	C 	0.9774	0.0317	0.8059	-1.056
Mof_H 	H 	0.0031	0.0893	0.788	0.329
Mof_H 	H 	0.9543	0.0061	0.7686	0.311
Mof_H 	H 	0.0338	0.9864	0.8133	0.342
Mof_C 	C 	0.8864	0.0526	0.8799	0.563
Mof_C 	C 	0.8452	0.9588	0.907	-0.529
Mof_H 	H 	0.7854	0.9749	0.9548	0.186
Mof_H 	H 	0.8162	0.9406	0.8698	0.156
Mof_C 	C 	0.9137	0.8717	0.9199	0.154
Mof_C 	C 	0.839	0.8019	0.9202	0.063
Mof_C 	C 	0.0055	0.8017	0.0072	-0.219
Mof_H 	H 	0.9697	0.7475	0.0162	0.084
Mof_H 	H 	0.0708	0.7855	0.963	0.101
Mof_C 	C 	0.0319	0.8217	0.075	-0.032
Mof_H 	H 	0.0821	0.7688	0.0826	0.012
Mof_H 	H 	0.9681	0.832	0.1206	0.032
Mof_C 	C 	0.492	0.7993	0.9248	-1.055
Mof_H 	H 	0.5617	0.81	0.9197	0.329
Mof_H 	H 	0.4424	0.8216	0.9749	0.329
Mof_H 	H 	0.4695	0.8329	0.8865	0.335
Mof_C 	C 	0.5739	0.6496	0.8341	-1.21
Mof_H 	H 	0.6442	0.6587	0.829	0.371
Mof_H 	H 	0.5523	0.6836	0.7956	0.383
Mof_H 	H 	0.5744	0.5831	0.8278	0.399
Mof_C 	C 	0.496	0.6867	0.9133	0.674
Mof_C 	C 	0.3824	0.6761	0.9226	-0.819
Mof_H 	H 	0.337	0.6963	0.975	0.265
Mof_H 	H 	0.3588	0.7205	0.8894	0.269
Mof_C 	C 	0.3629	0.5837	0.907	0.517
Mof_H 	H 	0.4175	0.5574	0.8582	-0.14
Mof_C 	C 	0.2503	0.5948	0.8984	-0.957
Mof_H 	H 	0.2379	0.5335	0.8879	0.308
Mof_H 	H 	0.2487	0.6352	0.857	0.302
Mof_H 	H 	0.1959	0.6225	0.9452	0.312
Mof_C 	C 	0.3535	0.4183	0.9554	0.002
Mof_H 	H 	0.406	0.3906	0.907	0.024
Mof_H 	H 	0.2829	0.4205	0.9534	0.023
Mof_C 	C 	0.3663	0.3584	0.0221	-0.151
Mof_H 	H 	0.3107	0.3835	0.07	0.051
Mof_H 	H 	0.361	0.2931	0.0136	0.039
Mof_C 	C 	0.153	0.4902	0.3886	-0.057
Mof_C 	C 	0.1403	0.3727	0.4028	0.251
Mof_C 	C 	0.1365	0.3065	0.3419	-1.124
Mof_H 	H 	0.103	0.3451	0.3104	0.334
Mof_H 	H 	0.2097	0.2827	0.3093	0.325
Mof_C 	C 	0.0857	0.2276	0.3615	1.35
Mof_C 	C 	0.9771	0.2576	0.4074	-2.161
Mof_H 	H 	0.9433	0.2032	0.4211	0.666
Mof_H 	H 	0.942	0.2991	0.3791	0.66
Mof_H 	H 	0.9721	0.2909	0.4531	0.68
Mof_C 	C 	0.083	0.1867	0.288	-1.761
Mof_H 	H 	0.0444	0.135	0.2996	0.514
Mof_H 	H 	0.1545	0.1639	0.2537	0.518
Mof_H 	H 	0.0481	0.2351	0.2641	0.515
Mof_C 	C 	0.1045	0.0638	0.4242	0.068
Mof_H 	H 	0.0333	0.0799	0.4624	-0.032
Mof_H 	H 	0.1004	0.0283	0.3819	-0.036
Mof_C 	C 	0.1732	0.0072	0.457	-0.254
Mof_H 	H 	0.1424	0.9525	0.4789	0.098
Mof_H 	H 	0.2412	0.9841	0.4168	0.121
Mof_C 	C 	0.2337	0.9198	0.5938	-0.061
Mof_C 	C 	0.2694	0.0098	0.5524	0.041
Mof_C 	C 	0.2739	0.0738	0.6126	-0.177
Mof_C 	C 	0.3285	0.1601	0.588	0.085
Mof_C 	C 	0.4394	0.1384	0.548	-0.03
Mof_C 	C 	0.2939	0.3186	0.5379	-0.069
Mof_H 	H 	0.364	0.3058	0.4981	0.053
Mof_H 	H 	0.2996	0.3507	0.5813	0.051
Mof_C 	C 	0.2174	0.3817	0.5083	-0.092
Mof_H 	H 	0.243	0.4403	0.4912	0.051
Mof_H 	H 	0.1478	0.3974	0.5484	0.038
Mof_N 	N 	0.3686	0.6217	0.6293	-0.101
Mof_N 	N 	0.6209	0.3766	0.5686	-0.098
Mof_O 	O 	0.1367	0.9416	0.9015	-0.408
Mof_O 	O 	0.2563	0.033	0.886	-0.334
Mof_O 	O 	0.6248	0.9307	0.6935	-0.301
Mof_O 	O 	0.639	0.8346	0.5993	-0.416
Mof_O 	O 	0.5957	0.4347	0.8877	-0.41
Mof_O 	O 	0.7605	0.4112	0.8855	-0.301
Mof_O 	O 	0.0372	0.2299	0.5585	-0.469
Mof_O 	O 	0.0533	0.2632	0.6674	-0.328
Mof_N 	N 	0.9358	0.8844	0.9902	-0.273
Mof_H 	H 	0.895	0.9	0.025	0.144
Mof_N 	N 	0.0804	0.9094	0.0595	-0.327
Mof_H 	H 	0.1506	0.8794	0.0423	0.077
Mof_N 	N 	0.3688	0.5139	0.9689	-0.301
Mof_H 	H 	0.306	0.532	0.007	0.096
Mof_N 	N 	0.4756	0.3628	0.0253	-0.373
Mof_H 	H 	0.5093	0.326	0.982	0.155
Mof_N 	N 	0.2102	0.3282	0.4422	-0.298
Mof_H 	H 	0.2719	0.324	0.402	0.104
Mof_N 	N 	0.1452	0.1523	0.3961	-0.454
Mof_H 	H 	0.2142	0.124	0.378	0.121
Mof_N 	N 	0.1915	0.0581	0.5161	-0.233
Mof_H 	H 	0.1246	0.0667	0.5504	0.088
Mof_N 	N 	0.2591	0.2325	0.5607	-0.252
Mof_H 	H 	0.191	0.255	0.59	0.105
Mof_C 	C 	0.334	0.197	0.6778	0.004
Mof_C 	C 	0.703	0.357	0.502	-0.018
Mof_C 	C 	0.88	0.771	0.924	-0.177
Mof_C 	C 	0.921	0.765	0.892	0.02
Mof_C 	C 	0.191	0.4523	0.3475	-0.056
Mof_C 	C 	0.319	0.219	0.667	0.006
Mof_C 	C 	0.317	0.042	0.625	0.114
Mof_C 	C 	0.374	0.199	0.637	-0.048
Mof_C 	C 	0.379	0.9609	0.4993	-0.006
Mof_Ni	Ni	0.79883	0.8064	0.5207	1.088
Mof_C 	C 	0.6974	0.0985	0.1992	-0.095
Mof_C 	C 	0.5956	0.0817	0.2372	0.005
Mof_H 	H 	0.5744	0.0303	0.2208	0.03
Mof_C 	C 	0.5242	0.139	0.299	-0.108
Mof_C 	C 	0.5602	0.2109	0.3255	-0.044
Mof_H 	H 	0.5132	0.2486	0.368	0.057
Mof_C 	C 	0.6642	0.2301	0.2913	0.024
Mof_C 	C 	0.7305	0.1716	0.2276	-0.061
Mof_H 	H 	0.7998	0.1818	0.203	0.036
Mof_C 	C 	0.7728	0.0343	0.1326	0.304
Mof_C 	C 	0.4142	0.1239	0.339	0.339
Mof_C 	C 	0.7126	0.2929	0.3301	-0.105
Mof_H 	H 	0.7732	0.3134	0.2918	0.033
Mof_H 	H 	0.7379	0.2565	0.3667	0.051
Mof_C 	C 	0.6272	0.4425	0.3135	-0.008
Mof_H 	H 	0.6983	0.4554	0.2867	0.016
Mof_H 	H 	0.6055	0.4128	0.2766	0.027
Mof_C 	C 	0.5527	0.5344	0.3431	-0.149
Mof_H 	H 	0.5828	0.5679	0.3726	0.078
Mof_H 	H 	0.5528	0.5718	0.2991	0.066
Mof_C 	C 	0.4366	0.5344	0.3924	-0.028
Mof_H 	H 	0.4347	0.4866	0.4303	0.047
Mof_H 	H 	0.4003	0.516	0.36	0.041
Mof_C 	C 	0.396	0.6437	0.4985	0.032
Mof_C 	C 	0.3332	0.5879	0.5683	-0.011
Mof_C 	C 	0.3719	0.6989	0.3779	-0.123
Mof_H 	H 	0.3488	0.7596	0.4065	0.068
Mof_H 	H 	0.4426	0.6985	0.3405	0.067
Mof_C 	C 	0.0001	0.7426	0.3745	0.323
Mof_C 	C 	0.3078	0.5937	0.1457	0.325
Mof_C 	C 	0.2663	0.6407	0.2233	-0.103
Mof_C 	C 	0.3362	0.651	0.2626	-0.054
Mof_H 	H 	0.4092	0.6301	0.2385	0.047
Mof_C 	C 	0.2976	0.6914	0.3358	0.041
Mof_C 	C 	0.1895	0.7229	0.3716	-0.051
Mof_H 	H 	0.1631	0.7515	0.4207	0.029
Mof_C 	C 	0.1187	0.7115	0.3335	-0.095
Mof_C 	C 	0.1589	0.6704	0.2621	0.015
Mof_H 	H 	0.1117	0.6618	0.238	0.033
Mof_C 	C 	0.2104	0.8781	0.131	-1.077
Mof_H 	H 	0.1888	0.8193	0.1497	0.342
Mof_H 	H 	0.2684	0.8661	0.0826	0.309
Mof_H 	H 	0.2331	0.9066	0.1672	0.334
Mof_C 	C 	0.0226	0.9683	0.1941	-1.229
Mof_H 	H 	0.9969	0.9107	0.212	0.405
Mof_H 	H 	0.0457	0.9939	0.2314	0.374
Mof_H 	H 	0.9662	0.0136	0.1867	0.389
Mof_C 	C 	0.1136	0.9474	0.1201	0.652
Mof_C 	C 	0.1548	0.0412	0.093	-0.61
Mof_H 	H 	0.2146	0.0251	0.0452	0.174
Mof_H 	H 	0.1838	0.0594	0.1302	0.168
Mof_C 	C 	0.0863	0.1283	0.0801	0.185
Mof_C 	C 	0.161	0.1981	0.0798	0.037
Mof_C 	C 	0.9945	0.1983	0.9928	0.188
Mof_H 	H 	0.0303	0.2525	0.9838	-0.027
Mof_H 	H 	0.9292	0.2145	0.037	-0.062
Mof_C 	C 	0.9681	0.1783	0.925	-0.179
Mof_H 	H 	0.9179	0.2312	0.9174	0.079
Mof_H 	H 	0.0319	0.168	0.8794	0.058
Mof_C 	C 	0.508	0.2007	0.0752	-0.984
Mof_H 	H 	0.4383	0.19	0.0803	0.295
Mof_H 	H 	0.5576	0.1784	0.0251	0.276
Mof_H 	H 	0.5305	0.1671	0.1135	0.306
Mof_C 	C 	0.4261	0.3504	0.1659	-1.17
Mof_H 	H 	0.3558	0.3413	0.171	0.359
Mof_H 	H 	0.4477	0.3164	0.2044	0.371
Mof_H 	H 	0.4256	0.4169	0.1722	0.387
Mof_C 	C 	0.504	0.3133	0.0867	0.637
Mof_C 	C 	0.6176	0.3239	0.0774	-0.776
Mof_H 	H 	0.663	0.3037	0.025	0.224
Mof_H 	H 	0.6412	0.2795	0.1106	0.252
Mof_C 	C 	0.6371	0.4163	0.093	0.479
Mof_H 	H 	0.5825	0.4426	0.1418	-0.127
Mof_C 	C 	0.7497	0.4052	0.1016	-0.913
Mof_H 	H 	0.7621	0.4665	0.1121	0.288
Mof_H 	H 	0.7513	0.3648	0.143	0.29
Mof_H 	H 	0.8041	0.3775	0.0548	0.281
Mof_C 	C 	0.6465	0.5817	0.0446	-0.121
Mof_H 	H 	0.594	0.6094	0.093	0.053
Mof_H 	H 	0.7171	0.5795	0.0466	0.036
Mof_C 	C 	0.6337	0.6416	0.9779	-0.027
Mof_H 	H 	0.6893	0.6165	0.93	0.022
Mof_H 	H 	0.639	0.7069	0.9864	0.029
Mof_C 	C 	0.847	0.5098	0.6114	-0.048
Mof_C 	C 	0.8597	0.6273	0.5972	0.275
Mof_C 	C 	0.8635	0.6935	0.6581	-1.202
Mof_H 	H 	0.897	0.6549	0.6896	0.362
Mof_H 	H 	0.7903	0.7173	0.6907	0.347
Mof_C 	C 	0.9143	0.7724	0.6385	1.468
Mof_C 	C 	0.0229	0.7424	0.5926	-2.336
Mof_H 	H 	0.0567	0.7968	0.5789	0.708
Mof_H 	H 	0.058	0.7009	0.6209	0.704
Mof_H 	H 	0.0279	0.7091	0.5469	0.722
Mof_C 	C 	0.917	0.8133	0.712	-1.899
Mof_H 	H 	0.9556	0.865	0.7004	0.568
Mof_H 	H 	0.8455	0.8361	0.7463	0.564
Mof_H 	H 	0.9519	0.7649	0.7359	0.563
Mof_C 	C 	0.8955	0.9362	0.5758	-0.064
Mof_H 	H 	0.9667	0.9201	0.5376	0.019
Mof_H 	H 	0.8996	0.9717	0.6181	0.021
Mof_C 	C 	0.8268	0.9928	0.543	-0.027
Mof_H 	H 	0.8576	0.0475	0.5211	0.014
Mof_H 	H 	0.7588	0.0159	0.5832	0.028
Mof_C 	C 	0.7663	0.0802	0.4062	-0.098
Mof_C 	C 	0.7306	0.9902	0.4476	0.128
Mof_C 	C 	0.7261	0.9262	0.3874	-0.3
Mof_C 	C 	0.6715	0.8399	0.412	0.113
Mof_C 	C 	0.5606	0.8616	0.452	-0.033
Mof_C 	C 	0.7061	0.6814	0.4621	-0.067
Mof_H 	H 	0.636	0.6942	0.5019	0.053
Mof_H 	H 	0.7004	0.6493	0.4187	0.05
Mof_C 	C 	0.7826	0.6183	0.4917	-0.095
Mof_H 	H 	0.757	0.5597	0.5088	0.053
Mof_H 	H 	0.8522	0.6026	0.4516	0.043
Mof_N 	N 	0.6314	0.3783	0.3707	-0.1
Mof_N 	N 	0.3791	0.6234	0.4314	-0.097
Mof_O 	O 	0.8633	0.0584	0.0985	-0.414
Mof_O 	O 	0.7437	0.967	0.114	-0.3
Mof_O 	O 	0.3752	0.0693	0.3065	-0.317
Mof_O 	O 	0.361	0.1654	0.4007	-0.419
Mof_O 	O 	0.4043	0.5653	0.1123	-0.423
Mof_O 	O 	0.2395	0.5888	0.1145	-0.319
Mof_O 	O 	0.9628	0.7701	0.4415	-0.43
Mof_O 	O 	0.9467	0.7368	0.3326	-0.289
Mof_N 	N 	0.0642	0.1156	0.0098	-0.5
Mof_H 	H 	0.105	0.1	0.975	0.29
Mof_N 	N 	0.9196	0.0906	0.9405	-0.294
Mof_H 	H 	0.8494	0.1206	0.9577	0.096
Mof_N 	N 	0.6312	0.4861	0.0311	-0.353
Mof_H 	H 	0.694	0.468	0.993	0.176
Mof_N 	N 	0.5244	0.6372	0.9747	-0.321
Mof_H 	H 	0.4907	0.674	0.018	0.074
Mof_N 	N 	0.7898	0.6718	0.5578	-0.301
Mof_H 	H 	0.7281	0.676	0.598	0.103
Mof_N 	N 	0.8548	0.8477	0.6039	-0.454
Mof_H 	H 	0.7858	0.876	0.622	0.127
Mof_N 	N 	0.8085	0.9419	0.4839	-0.269
Mof_H 	H 	0.8754	0.9333	0.4496	0.104
Mof_N 	N 	0.7409	0.7675	0.4393	-0.254
Mof_H 	H 	0.809	0.745	0.41	0.107
Mof_C 	C 	0.666	0.803	0.3222	0.009
Mof_C 	C 	0.297	0.643	0.498	-0.022
Mof_C 	C 	0.12	0.229	0.076	-0.183
Mof_C 	C 	0.079	0.235	0.108	0.005
Mof_C 	C 	0.809	0.5477	0.6525	-0.064
Mof_C 	C 	0.681	0.781	0.333	0.017
Mof_C 	C 	0.683	0.958	0.375	0.232
Mof_C 	C 	0.626	0.801	0.363	-0.071
Mof_C 	C 	0.621	0.0391	0.5007	-0.059
Mof_Ni	Ni	-0	0	-0	1.054
Mof_Ni	Ni	0.5	0.5	-0	1.077
_end
