data_functionalizedCrystal
_audit_creation_method	'EQeq! by Chris Wilmer'
_symmetry_space_group_name_H-M	'P1'
_symmetry_Int_Tables_number	1
_symmetry_cell_setting	triclinic
loop_
_symmetry_equiv_pos_as_xyz
  x,y,z
_cell_length_a	9.1657
_cell_length_b	15.5849
_cell_length_c	13.5302
_cell_angle_alpha	90
_cell_angle_beta	107.469
_cell_angle_gamma	90
loop_
_atom_site_label
_atom_site_type_symbol
_atom_site_fract_x
_atom_site_fract_y
_atom_site_fract_z
_atom_site_charge
Mof_Zn	Zn	0.37908	0.55185	0.24814	1.238
Mof_Zn	Zn	0.12668	0.74516	0.25215	1.239
Mof_O 	O 	0.0294	0.6402	0.1821	-0.468
Mof_O 	O 	0.19	0.5518	0.1351	-0.471
Mof_C 	C 	0.9293	0.5139	0.0924	-0.11
Mof_C 	C 	0.9371	0.453	0.0191	0.045
Mof_H 	H 	0.0259	0.4484	0.9984	0.059
Mof_C 	C 	0.8134	0.3987	0.9764	-0.08
Mof_C 	C 	0.6839	0.4048	0.0096	0.032
Mof_H 	H 	0.6016	0.367	0.9823	0.059
Mof_C 	C 	0.6742	0.4659	0.0826	-0.084
Mof_C 	C 	0.7984	0.5212	0.123	0.048
Mof_H 	H 	0.7929	0.5636	0.1712	0.059
Mof_C 	C 	0.0604	0.5739	0.1411	0.414
Mof_O 	O 	0.9375	0.3321	0.8642	-0.388
Mof_C 	C 	0.8166	0.3344	0.8949	0.305
Mof_O 	O 	0.7062	0.2869	0.8563	-0.329
Mof_O 	O 	0.4299	0.4194	0.0909	-0.257
Mof_C 	C 	0.5348	0.4736	0.1184	0.334
Mof_O 	O 	0.5369	0.5366	0.1788	-0.41
Mof_O 	O 	0.4774	0.6569	0.319	-0.459
Mof_O 	O 	0.3178	0.7461	0.3655	-0.467
Mof_C 	C 	0.5809	0.7803	0.4124	-0.115
Mof_C 	C 	0.5716	0.8421	0.4851	0.046
Mof_H 	H 	0.4831	0.8464	0.5063	0.059
Mof_C 	C 	0.6946	0.8973	0.5261	-0.08
Mof_C 	C 	0.8246	0.8915	0.4939	0.034
Mof_H 	H 	0.9061	0.9299	0.5205	0.058
Mof_C 	C 	0.8351	0.8295	0.4227	-0.087
Mof_C 	C 	0.7124	0.7737	0.3825	0.052
Mof_H 	H 	0.7191	0.7313	0.3347	0.057
Mof_C 	C 	0.4478	0.7242	0.3622	0.41
Mof_O 	O 	0.5694	0.9647	0.6381	-0.399
Mof_C 	C 	0.6885	0.9636	0.6065	0.308
Mof_O 	O 	0.7967	0.0135	0.6422	-0.321
Mof_O 	O 	0.0766	0.8757	0.4105	-0.266
Mof_C 	C 	0.9737	0.8232	0.385	0.339
Mof_O 	O 	0.9722	0.7586	0.3244	-0.407
Mof_Zn	Zn	0.62092	0.05185	0.75186	1.239
Mof_Zn	Zn	0.87332	0.24516	0.74785	1.239
Mof_O 	O 	0.9706	0.1402	0.8179	-0.468
Mof_O 	O 	0.81	0.0518	0.8649	-0.47
Mof_C 	C 	0.0707	0.0139	0.9076	-0.108
Mof_C 	C 	0.0629	0.953	0.9809	0.042
Mof_H 	H 	0.9741	0.9484	0.0016	0.06
Mof_C 	C 	0.1866	0.8987	0.0236	-0.08
Mof_C 	C 	0.3161	0.9048	0.9904	0.032
Mof_H 	H 	0.3984	0.867	0.0177	0.059
Mof_C 	C 	0.3258	0.9659	0.9174	-0.085
Mof_C 	C 	0.2016	0.0212	0.877	0.05
Mof_H 	H 	0.2071	0.0636	0.8288	0.059
Mof_C 	C 	0.9396	0.0739	0.8589	0.414
Mof_O 	O 	0.0625	0.8321	0.1358	-0.388
Mof_C 	C 	0.1834	0.8344	0.1051	0.305
Mof_O 	O 	0.2938	0.7869	0.1437	-0.329
Mof_O 	O 	0.5701	0.9194	0.9091	-0.257
Mof_C 	C 	0.4652	0.9736	0.8816	0.332
Mof_O 	O 	0.4631	0.0366	0.8212	-0.409
Mof_O 	O 	0.5226	0.1569	0.681	-0.459
Mof_O 	O 	0.6822	0.2461	0.6345	-0.467
Mof_C 	C 	0.4191	0.2803	0.5876	-0.115
Mof_C 	C 	0.4284	0.3421	0.5149	0.046
Mof_H 	H 	0.5169	0.3464	0.4937	0.059
Mof_C 	C 	0.3054	0.3973	0.4739	-0.08
Mof_C 	C 	0.1754	0.3915	0.5061	0.034
Mof_H 	H 	0.0939	0.4299	0.4795	0.058
Mof_C 	C 	0.1649	0.3295	0.5773	-0.087
Mof_C 	C 	0.2876	0.2737	0.6175	0.052
Mof_H 	H 	0.2809	0.2313	0.6653	0.057
Mof_C 	C 	0.5522	0.2242	0.6378	0.411
Mof_O 	O 	0.4306	0.4647	0.3619	-0.398
Mof_C 	C 	0.3115	0.4636	0.3935	0.31
Mof_O 	O 	0.2033	0.5135	0.3578	-0.323
Mof_O 	O 	0.9234	0.3757	0.5895	-0.265
Mof_C 	C 	0.0263	0.3232	0.615	0.339
Mof_O 	O 	0.0278	0.2586	0.6756	-0.406
_end
