# CIF file generated by openbabel 3.1.0, see https://openbabel.org
data_I
_chemical_name_common 'image0'
_cell_length_a 23.571
_cell_length_b 15.673
_cell_length_c 16.082
_cell_angle_alpha 90
_cell_angle_beta 124.154
_cell_angle_gamma 90
_space_group_name_H-M_alt 'P 1'
_space_group_name_Hall 'P 1'
loop_
    _symmetry_equiv_pos_as_xyz
    x,y,z
loop_
    _atom_site_label
    _atom_site_type_symbol
    _atom_site_fract_x
    _atom_site_fract_y
    _atom_site_fract_z
    _atom_site_occupancy
    Dy1      Dy       0.81048    0.67198    0.62354    1.000
    C1       C        0.13280    0.03950    0.32650    1.000
    C2       C        0.14360    0.95730    0.36270    1.000
    H1       H        0.17990    0.94600    0.43040    1.000
    C3       C        0.10240    0.89110    0.30250    1.000
    C4       C        0.04790    0.90690    0.20340    1.000
    C5       C        0.03440    0.99000    0.16750    1.000
    H2       H        0.99600    0.00190    0.10160    1.000
    C6       C        0.07700    0.05540    0.22780    1.000
    H3       H        0.06830    0.11190    0.20210    1.000
    C7       C        0.01940    0.81020    0.07350    1.000
    C8       C        0.08500    0.81060    0.09570    1.000
    H4       H        0.12160    0.83480    0.15680    1.000
    C9       C        0.09720    0.77530    0.02800    1.000
    C10      C        0.04350    0.74060    0.93790    1.000
    H5       H        0.05140    0.71830    0.89030    1.000
    C11      C        0.97770    0.73920    0.91840    1.000
    C12      C        0.96620    0.77340    0.98740    1.000
    H6       H        0.92180    0.77120    0.97500    1.000
    C13      C        0.17970    0.11080    0.39070    1.000
    C14      C        0.16930    0.77420    0.05530    1.000
    C15      C        0.91900    0.70380    0.82010    1.000
    N1       N        0.11770    0.80540    0.34480    1.000
    O1       O        0.17250    0.17970    0.34560    1.000
    O2       O        0.22210    0.09580    0.48210    1.000
    O3       O        0.15330    0.79950    0.43700    1.000
    O4       O        0.09490    0.74370    0.28880    1.000
    O5       O        0.21430    0.81260    0.13300    1.000
    O6       O        0.18250    0.73420    0.99950    1.000
    O7       O        0.92950    0.67900    0.75470    1.000
    O8       O        0.86050    0.70100    0.80430    1.000
    O9       O        0.00350    0.84390    0.13870    1.000
    Dy2      Dy       0.31048    0.17198    0.62354    1.000
    C16      C        0.63280    0.53950    0.32650    1.000
    C17      C        0.64360    0.45730    0.36270    1.000
    H7       H        0.67990    0.44600    0.43040    1.000
    C18      C        0.60240    0.39110    0.30250    1.000
    C19      C        0.54790    0.40690    0.20340    1.000
    C20      C        0.53440    0.49000    0.16750    1.000
    H8       H        0.49600    0.50190    0.10160    1.000
    C21      C        0.57700    0.55540    0.22780    1.000
    H9       H        0.56830    0.61190    0.20210    1.000
    C22      C        0.51940    0.31020    0.07350    1.000
    C23      C        0.58500    0.31060    0.09570    1.000
    H10      H        0.62160    0.33480    0.15680    1.000
    C24      C        0.59720    0.27530    0.02800    1.000
    C25      C        0.54350    0.24060    0.93790    1.000
    H11      H        0.55140    0.21830    0.89030    1.000
    C26      C        0.47770    0.23920    0.91840    1.000
    C27      C        0.46620    0.27340    0.98740    1.000
    H12      H        0.42180    0.27120    0.97500    1.000
    C28      C        0.67970    0.61080    0.39070    1.000
    C29      C        0.66930    0.27420    0.05530    1.000
    C30      C        0.41900    0.20380    0.82010    1.000
    N2       N        0.61770    0.30540    0.34480    1.000
    O10      O        0.67250    0.67970    0.34560    1.000
    O11      O        0.72210    0.59580    0.48210    1.000
    O12      O        0.65330    0.29950    0.43700    1.000
    O13      O        0.59490    0.24370    0.28880    1.000
    O14      O        0.71430    0.31260    0.13300    1.000
    O15      O        0.68250    0.23420    0.99950    1.000
    O16      O        0.42950    0.17900    0.75470    1.000
    O17      O        0.36050    0.20100    0.80430    1.000
    O18      O        0.50350    0.34390    0.13870    1.000
    Dy3      Dy       0.18952    0.67198    0.87646    1.000
    C31      C        0.86720    0.03950    0.17350    1.000
    C32      C        0.85640    0.95730    0.13730    1.000
    H13      H        0.82010    0.94600    0.06960    1.000
    C33      C        0.89760    0.89110    0.19750    1.000
    C34      C        0.95210    0.90690    0.29660    1.000
    C35      C        0.96560    0.99000    0.33250    1.000
    H14      H        0.00400    0.00190    0.39840    1.000
    C36      C        0.92300    0.05540    0.27220    1.000
    H15      H        0.93170    0.11190    0.29790    1.000
    C37      C        0.98060    0.81020    0.42650    1.000
    C38      C        0.91500    0.81060    0.40430    1.000
    H16      H        0.87840    0.83480    0.34320    1.000
    C39      C        0.90280    0.77530    0.47200    1.000
    C40      C        0.95650    0.74060    0.56210    1.000
    H17      H        0.94860    0.71830    0.60970    1.000
    C41      C        0.02230    0.73920    0.58160    1.000
    C42      C        0.03380    0.77340    0.51260    1.000
    H18      H        0.07820    0.77120    0.52500    1.000
    C43      C        0.82030    0.11080    0.10930    1.000
    C44      C        0.83070    0.77420    0.44470    1.000
    C45      C        0.08100    0.70380    0.67990    1.000
    N3       N        0.88230    0.80540    0.15520    1.000
    O19      O        0.82750    0.17970    0.15440    1.000
    O20      O        0.77790    0.09580    0.01790    1.000
    O21      O        0.84670    0.79950    0.06300    1.000
    O22      O        0.90510    0.74370    0.21120    1.000
    O23      O        0.78570    0.81260    0.36700    1.000
    O24      O        0.81750    0.73420    0.50050    1.000
    O25      O        0.07050    0.67900    0.74530    1.000
    O26      O        0.13950    0.70100    0.69570    1.000
    O27      O        0.99650    0.84390    0.36130    1.000
    Dy4      Dy       0.68952    0.17198    0.87646    1.000
    C46      C        0.36720    0.53950    0.17350    1.000
    C47      C        0.35640    0.45730    0.13730    1.000
    H19      H        0.32010    0.44600    0.06960    1.000
    C48      C        0.39760    0.39110    0.19750    1.000
    C49      C        0.45210    0.40690    0.29660    1.000
    C50      C        0.46560    0.49000    0.33250    1.000
    H20      H        0.50400    0.50190    0.39840    1.000
    C51      C        0.42300    0.55540    0.27220    1.000
    H21      H        0.43170    0.61190    0.29790    1.000
    C52      C        0.48060    0.31020    0.42650    1.000
    C53      C        0.41500    0.31060    0.40430    1.000
    H22      H        0.37840    0.33480    0.34320    1.000
    C54      C        0.40280    0.27530    0.47200    1.000
    C55      C        0.45650    0.24060    0.56210    1.000
    H23      H        0.44860    0.21830    0.60970    1.000
    C56      C        0.52230    0.23920    0.58160    1.000
    C57      C        0.53380    0.27340    0.51260    1.000
    H24      H        0.57820    0.27120    0.52500    1.000
    C58      C        0.32030    0.61080    0.10930    1.000
    C59      C        0.33070    0.27420    0.44470    1.000
    C60      C        0.58100    0.20380    0.67990    1.000
    N4       N        0.38230    0.30540    0.15520    1.000
    O28      O        0.32750    0.67970    0.15440    1.000
    O29      O        0.27790    0.59580    0.01790    1.000
    O30      O        0.34670    0.29950    0.06300    1.000
    O31      O        0.40510    0.24370    0.21120    1.000
    O32      O        0.28570    0.31260    0.36700    1.000
    O33      O        0.31750    0.23420    0.50050    1.000
    O34      O        0.57050    0.17900    0.74530    1.000
    O35      O        0.63950    0.20100    0.69570    1.000
    O36      O        0.49650    0.34390    0.36130    1.000
    Dy5      Dy       0.18952    0.32802    0.37646    1.000
    C61      C        0.86720    0.96050    0.67350    1.000
    C62      C        0.85640    0.04270    0.63730    1.000
    H25      H        0.82010    0.05400    0.56960    1.000
    C63      C        0.89760    0.10890    0.69750    1.000
    C64      C        0.95210    0.09310    0.79660    1.000
    C65      C        0.96560    0.01000    0.83250    1.000
    H26      H        0.00400    0.99810    0.89840    1.000
    C66      C        0.92300    0.94460    0.77220    1.000
    H27      H        0.93170    0.88810    0.79790    1.000
    C67      C        0.98060    0.18980    0.92650    1.000
    C68      C        0.91500    0.18940    0.90430    1.000
    H28      H        0.87840    0.16520    0.84320    1.000
    C69      C        0.90280    0.22470    0.97200    1.000
    C70      C        0.95650    0.25940    0.06210    1.000
    H29      H        0.94860    0.28170    0.10970    1.000
    C71      C        0.02230    0.26080    0.08160    1.000
    C72      C        0.03380    0.22660    0.01260    1.000
    H30      H        0.07820    0.22880    0.02500    1.000
    C73      C        0.82030    0.88920    0.60930    1.000
    C74      C        0.83070    0.22580    0.94470    1.000
    C75      C        0.08100    0.29620    0.17990    1.000
    N5       N        0.88230    0.19460    0.65520    1.000
    O37      O        0.82750    0.82030    0.65440    1.000
    O38      O        0.77790    0.90420    0.51790    1.000
    O39      O        0.84670    0.20050    0.56300    1.000
    O40      O        0.90510    0.25630    0.71120    1.000
    O41      O        0.78570    0.18740    0.86700    1.000
    O42      O        0.81750    0.26580    0.00050    1.000
    O43      O        0.07050    0.32100    0.24530    1.000
    O44      O        0.13950    0.29900    0.19570    1.000
    O45      O        0.99650    0.15610    0.86130    1.000
    Dy6      Dy       0.68952    0.82802    0.37646    1.000
    C76      C        0.36720    0.46050    0.67350    1.000
    C77      C        0.35640    0.54270    0.63730    1.000
    H31      H        0.32010    0.55400    0.56960    1.000
    C78      C        0.39760    0.60890    0.69750    1.000
    C79      C        0.45210    0.59310    0.79660    1.000
    C80      C        0.46560    0.51000    0.83250    1.000
    H32      H        0.50400    0.49810    0.89840    1.000
    C81      C        0.42300    0.44460    0.77220    1.000
    H33      H        0.43170    0.38810    0.79790    1.000
    C82      C        0.48060    0.68980    0.92650    1.000
    C83      C        0.41500    0.68940    0.90430    1.000
    H34      H        0.37840    0.66520    0.84320    1.000
    C84      C        0.40280    0.72470    0.97200    1.000
    C85      C        0.45650    0.75940    0.06210    1.000
    H35      H        0.44860    0.78170    0.10970    1.000
    C86      C        0.52230    0.76080    0.08160    1.000
    C87      C        0.53380    0.72660    0.01260    1.000
    H36      H        0.57820    0.72880    0.02500    1.000
    C88      C        0.32030    0.38920    0.60930    1.000
    C89      C        0.33070    0.72580    0.94470    1.000
    C90      C        0.58100    0.79620    0.17990    1.000
    N6       N        0.38230    0.69460    0.65520    1.000
    O46      O        0.32750    0.32030    0.65440    1.000
    O47      O        0.27790    0.40420    0.51790    1.000
    O48      O        0.34670    0.70050    0.56300    1.000
    O49      O        0.40510    0.75630    0.71120    1.000
    O50      O        0.28570    0.68740    0.86700    1.000
    O51      O        0.31750    0.76580    0.00050    1.000
    O52      O        0.57050    0.82100    0.24530    1.000
    O53      O        0.63950    0.79900    0.19570    1.000
    O54      O        0.49650    0.65610    0.86130    1.000
    Dy7      Dy       0.81048    0.32802    0.12354    1.000
    C91      C        0.13280    0.96050    0.82650    1.000
    C92      C        0.14360    0.04270    0.86270    1.000
    H37      H        0.17990    0.05400    0.93040    1.000
    C93      C        0.10240    0.10890    0.80250    1.000
    C94      C        0.04790    0.09310    0.70340    1.000
    C95      C        0.03440    0.01000    0.66750    1.000
    H38      H        0.99600    0.99810    0.60160    1.000
    C96      C        0.07700    0.94460    0.72780    1.000
    H39      H        0.06830    0.88810    0.70210    1.000
    C97      C        0.01940    0.18980    0.57350    1.000
    C98      C        0.08500    0.18940    0.59570    1.000
    H40      H        0.12160    0.16520    0.65680    1.000
    C99      C        0.09720    0.22470    0.52800    1.000
    C100     C        0.04350    0.25940    0.43790    1.000
    H41      H        0.05140    0.28170    0.39030    1.000
    C101     C        0.97770    0.26080    0.41840    1.000
    C102     C        0.96620    0.22660    0.48740    1.000
    H42      H        0.92180    0.22880    0.47500    1.000
    C103     C        0.17970    0.88920    0.89070    1.000
    C104     C        0.16930    0.22580    0.55530    1.000
    C105     C        0.91900    0.29620    0.32010    1.000
    N7       N        0.11770    0.19460    0.84480    1.000
    O55      O        0.17250    0.82030    0.84560    1.000
    O56      O        0.22210    0.90420    0.98210    1.000
    O57      O        0.15330    0.20050    0.93700    1.000
    O58      O        0.09490    0.25630    0.78880    1.000
    O59      O        0.21430    0.18740    0.63300    1.000
    O60      O        0.18250    0.26580    0.49950    1.000
    O61      O        0.92950    0.32100    0.25470    1.000
    O62      O        0.86050    0.29900    0.30430    1.000
    O63      O        0.00350    0.15610    0.63870    1.000
    Dy8      Dy       0.31048    0.82802    0.12354    1.000
    C106     C        0.63280    0.46050    0.82650    1.000
    C107     C        0.64360    0.54270    0.86270    1.000
    H43      H        0.67990    0.55400    0.93040    1.000
    C108     C        0.60240    0.60890    0.80250    1.000
    C109     C        0.54790    0.59310    0.70340    1.000
    C110     C        0.53440    0.51000    0.66750    1.000
    H44      H        0.49600    0.49810    0.60160    1.000
    C111     C        0.57700    0.44460    0.72780    1.000
    H45      H        0.56830    0.38810    0.70210    1.000
    C112     C        0.51940    0.68980    0.57350    1.000
    C113     C        0.58500    0.68940    0.59570    1.000
    H46      H        0.62160    0.66520    0.65680    1.000
    C114     C        0.59720    0.72470    0.52800    1.000
    C115     C        0.54350    0.75940    0.43790    1.000
    H47      H        0.55140    0.78170    0.39030    1.000
    C116     C        0.47770    0.76080    0.41840    1.000
    C117     C        0.46620    0.72660    0.48740    1.000
    H48      H        0.42180    0.72880    0.47500    1.000
    C118     C        0.67970    0.38920    0.89070    1.000
    C119     C        0.66930    0.72580    0.55530    1.000
    C120     C        0.41900    0.79620    0.32010    1.000
    N8       N        0.61770    0.69460    0.84480    1.000
    O64      O        0.67250    0.32030    0.84560    1.000
    O65      O        0.72210    0.40420    0.98210    1.000
    O66      O        0.65330    0.70050    0.93700    1.000
    O67      O        0.59490    0.75630    0.78880    1.000
    O68      O        0.71430    0.68740    0.63300    1.000
    O69      O        0.68250    0.76580    0.49950    1.000
    O70      O        0.42950    0.82100    0.25470    1.000
    O71      O        0.36050    0.79900    0.30430    1.000
    O72      O        0.50350    0.65610    0.63870    1.000
