data_functionalizedCrystal
_audit_creation_method	'EQeq! by Chris Wilmer'
_symmetry_space_group_name_H-M	'P1'
_symmetry_Int_Tables_number	1
_symmetry_cell_setting	triclinic
loop_
_symmetry_equiv_pos_as_xyz
  x,y,z
_cell_length_a	27.806
_cell_length_b	13.8091
_cell_length_c	45.1378
_cell_angle_alpha	90
_cell_angle_beta	90
_cell_angle_gamma	90
loop_
_atom_site_label
_atom_site_type_symbol
_atom_site_fract_x
_atom_site_fract_y
_atom_site_fract_z
_atom_site_charge
Mof_Zn	Zn	0.47652	0.12844	0.41532	1.163
Mof_Zn	Zn	0.7388	0.83092	0.18533	1.164
Mof_Zn	Zn	0.95148	0.14518	0.42169	1.163
Mof_I 	I 	0.49452	0.20158	0.46633	-0.39
Mof_I 	I 	0.43073	0.21682	0.37528	-0.372
Mof_I 	I 	0.69389	0.67095	0.19226	-0.371
Mof_I 	I 	0.82676	0.83229	0.1701	-0.372
Mof_I 	I 	0.94575	0.32757	0.42694	-0.386
Mof_I 	I 	0.01626	0.05227	0.39445	-0.364
Mof_C 	C 	0.6766	0.0471	0.35344	0.099
Mof_C 	C 	0.7198	0.0106	0.31267	0.101
Mof_C 	C 	0.7569	0.0502	0.35504	0.107
Mof_C 	C 	0.6293	0.06	0.3685	0.06
Mof_C 	C 	0.6265	0.0806	0.39786	-0.121
Mof_H 	H 	0.6551	0.0842	0.4093	0.082
Mof_C 	C 	0.5833	0.0964	0.41123	0.074
Mof_H 	H 	0.5826	0.112	0.4317	-0.008
Mof_C 	C 	0.5446	0.0677	0.3673	0.074
Mof_H 	H 	0.5155	0.0625	0.3564	-0.011
Mof_C 	C 	0.5866	0.0514	0.35276	-0.122
Mof_H 	H 	0.5867	0.0346	0.3323	0.082
Mof_C 	C 	0.7236	0.9775	0.28164	0.049
Mof_C 	C 	0.683	0.9405	0.26716	-0.115
Mof_H 	H 	0.6524	0.94	0.2764	0.08
Mof_C 	C 	0.6896	0.9038	0.23823	0.069
Mof_H 	H 	0.6626	0.8773	0.2283	-0.013
Mof_C 	C 	0.7692	0.9424	0.23828	0.061
Mof_H 	H 	0.7991	0.9447	0.2281	0.001
Mof_C 	C 	0.7669	0.9783	0.26678	-0.109
Mof_H 	H 	0.7949	0.0034	0.2761	0.078
Mof_C 	C 	0.8024	0.067	0.37145	0.046
Mof_C 	C 	0.8469	0.058	0.35748	-0.108
Mof_H 	H 	0.8484	0.0399	0.3372	0.077
Mof_C 	C 	0.8882	0.0753	0.37296	0.053
Mof_H 	H 	0.9182	0.0679	0.3632	-0.007
Mof_C 	C 	0.8454	0.1103	0.41546	0.071
Mof_H 	H 	0.8451	0.1292	0.4357	-0.016
Mof_C 	C 	0.802	0.0921	0.40169	-0.116
Mof_H 	H 	0.7727	0.0965	0.4123	0.078
Mof_C 	C 	0.3943	0.7068	0.4338	0.095
Mof_C 	C 	0.3988	0.5693	0.4602	0.096
Mof_C 	C 	0.3615	0.5717	0.41556	0.107
Mof_C 	C 	0.4085	0.8098	0.43015	0.054
Mof_C 	C 	0.4055	0.8556	0.40305	-0.128
Mof_H 	H 	0.3923	0.823	0.3864	0.097
Mof_C 	C 	0.4217	0.9477	0.40053	0.07
Mof_H 	H 	0.4181	0.9794	0.382	-0.005
Mof_C 	C 	0.4452	0.9529	0.44898	0.086
Mof_H 	H 	0.4589	0.9872	0.4651	-0.009
Mof_C 	C 	0.4293	0.8612	0.45412	-0.131
Mof_H 	H 	0.432	0.8326	0.4732	0.091
Mof_C 	C 	0.415	0.5154	0.48604	0.049
Mof_C 	C 	0.4395	0.5619	0.50894	-0.123
Mof_H 	H 	0.447	0.6288	0.5073	0.09
Mof_C 	C 	0.4526	0.5115	0.53385	0.074
Mof_H 	H 	0.4695	0.5447	0.5491	-0.013
Mof_C 	C 	0.4203	0.3708	0.51555	0.057
Mof_H 	H 	0.414	0.3036	0.5177	-0.003
Mof_C 	C 	0.406	0.4181	0.48932	-0.106
Mof_H 	H 	0.3902	0.383	0.474	0.074
Mof_C 	C 	0.338	0.5178	0.39165	0.057
Mof_C 	C 	0.3404	0.4174	0.3907	-0.109
Mof_H 	H 	0.357	0.3829	0.4058	0.082
Mof_C 	C 	0.3192	0.3687	0.3682	0.065
Mof_H 	H 	0.3206	0.3	0.3683	-0.006
Mof_C 	C 	0.2928	0.5088	0.34687	0.083
Mof_H 	H 	0.2755	0.5407	0.3316	-0.018
Mof_C 	C 	0.3126	0.5643	0.36838	-0.123
Mof_H 	H 	0.3095	0.6328	0.3679	0.079
Mof_N 	N 	0.676	0.021	0.32454	-0.138
Mof_N 	N 	0.7613	0.0253	0.32704	-0.141
Mof_N 	N 	0.7156	0.0631	0.36963	-0.141
Mof_N 	N 	0.5416	0.0905	0.39623	-0.27
Mof_N 	N 	0.7312	0.9045	0.22441	-0.275
Mof_N 	N 	0.8877	0.1026	0.40184	-0.269
Mof_N 	N 	0.4093	0.664	0.45851	-0.144
Mof_N 	N 	0.3742	0.5199	0.43948	-0.136
Mof_N 	N 	0.3697	0.6663	0.4118	-0.134
Mof_N 	N 	0.4428	0.9975	0.42312	-0.274
Mof_N 	N 	0.4427	0.4182	0.5376	-0.273
Mof_N 	N 	0.296	0.4133	0.3456	-0.277
Mof_Zn	Zn	0.02348	0.87156	0.91532	1.163
Mof_Zn	Zn	0.7612	0.16908	0.68533	1.165
Mof_Zn	Zn	0.54852	0.85482	0.92169	1.164
Mof_I 	I 	0.00548	0.79842	0.96633	-0.389
Mof_I 	I 	0.06927	0.78318	0.87528	-0.371
Mof_I 	I 	0.80611	0.32905	0.69226	-0.37
Mof_I 	I 	0.67324	0.16771	0.6701	-0.373
Mof_I 	I 	0.55425	0.67243	0.92694	-0.386
Mof_I 	I 	0.48374	0.94773	0.89445	-0.365
Mof_C 	C 	0.8234	0.9529	0.85344	0.099
Mof_C 	C 	0.7802	0.9894	0.81267	0.102
Mof_C 	C 	0.7431	0.9498	0.85504	0.108
Mof_C 	C 	0.8707	0.94	0.8685	0.06
Mof_C 	C 	0.8735	0.9194	0.89786	-0.121
Mof_H 	H 	0.8449	0.9158	0.9093	0.082
Mof_C 	C 	0.9167	0.9036	0.91123	0.074
Mof_H 	H 	0.9174	0.888	0.9317	-0.008
Mof_C 	C 	0.9554	0.9323	0.8673	0.075
Mof_H 	H 	0.9845	0.9375	0.8564	-0.011
Mof_C 	C 	0.9134	0.9486	0.85276	-0.122
Mof_H 	H 	0.9133	0.9654	0.8323	0.082
Mof_C 	C 	0.7764	0.0225	0.78164	0.049
Mof_C 	C 	0.817	0.0595	0.76716	-0.115
Mof_H 	H 	0.8476	0.06	0.7764	0.08
Mof_C 	C 	0.8104	0.0962	0.73823	0.069
Mof_H 	H 	0.8374	0.1227	0.7283	-0.014
Mof_C 	C 	0.7308	0.0576	0.73828	0.062
Mof_H 	H 	0.7009	0.0553	0.7281	0.001
Mof_C 	C 	0.7331	0.0217	0.76678	-0.111
Mof_H 	H 	0.7051	0.9966	0.7761	0.079
Mof_C 	C 	0.6976	0.933	0.87145	0.046
Mof_C 	C 	0.6531	0.942	0.85748	-0.108
Mof_H 	H 	0.6516	0.9601	0.8372	0.077
Mof_C 	C 	0.6118	0.9247	0.87296	0.053
Mof_H 	H 	0.5818	0.9321	0.8632	-0.007
Mof_C 	C 	0.6546	0.8897	0.91546	0.072
Mof_H 	H 	0.6549	0.8708	0.9357	-0.016
Mof_C 	C 	0.698	0.9079	0.90169	-0.116
Mof_H 	H 	0.7273	0.9035	0.9123	0.078
Mof_C 	C 	0.1057	0.2932	0.9338	0.095
Mof_C 	C 	0.1012	0.4307	0.9602	0.096
Mof_C 	C 	0.1385	0.4283	0.91556	0.107
Mof_C 	C 	0.0915	0.1902	0.93015	0.054
Mof_C 	C 	0.0945	0.1444	0.90305	-0.128
Mof_H 	H 	0.1077	0.177	0.8864	0.098
Mof_C 	C 	0.0783	0.0523	0.90053	0.07
Mof_H 	H 	0.0819	0.0206	0.882	-0.004
Mof_C 	C 	0.0548	0.0471	0.94898	0.086
Mof_H 	H 	0.0411	0.0128	0.9651	-0.009
Mof_C 	C 	0.0707	0.1388	0.95412	-0.131
Mof_H 	H 	0.068	0.1674	0.9732	0.091
Mof_C 	C 	0.085	0.4846	0.98604	0.049
Mof_C 	C 	0.0605	0.4381	0.00894	-0.123
Mof_H 	H 	0.053	0.3712	0.0073	0.09
Mof_C 	C 	0.0474	0.4885	0.03385	0.074
Mof_H 	H 	0.0305	0.4553	0.0491	-0.013
Mof_C 	C 	0.0797	0.6292	0.01555	0.057
Mof_H 	H 	0.086	0.6964	0.0177	-0.003
Mof_C 	C 	0.094	0.5819	0.98932	-0.106
Mof_H 	H 	0.1098	0.617	0.974	0.074
Mof_C 	C 	0.162	0.4822	0.89165	0.057
Mof_C 	C 	0.1596	0.5826	0.8907	-0.109
Mof_H 	H 	0.143	0.6171	0.9058	0.082
Mof_C 	C 	0.1808	0.6313	0.8682	0.065
Mof_H 	H 	0.1794	0.7	0.8683	-0.006
Mof_C 	C 	0.2072	0.4912	0.84687	0.083
Mof_H 	H 	0.2245	0.4593	0.8316	-0.018
Mof_C 	C 	0.1874	0.4357	0.86838	-0.123
Mof_H 	H 	0.1905	0.3672	0.8679	0.079
Mof_N 	N 	0.824	0.979	0.82454	-0.138
Mof_N 	N 	0.7387	0.9747	0.82704	-0.141
Mof_N 	N 	0.7844	0.9369	0.86963	-0.141
Mof_N 	N 	0.9584	0.9095	0.89623	-0.269
Mof_N 	N 	0.7688	0.0955	0.72441	-0.275
Mof_N 	N 	0.6123	0.8974	0.90184	-0.269
Mof_N 	N 	0.0907	0.336	0.95851	-0.144
Mof_N 	N 	0.1258	0.4801	0.93948	-0.136
Mof_N 	N 	0.1303	0.3337	0.9118	-0.134
Mof_N 	N 	0.0572	0.0025	0.92312	-0.274
Mof_N 	N 	0.0573	0.5818	0.0376	-0.273
Mof_N 	N 	0.204	0.5867	0.8456	-0.277
Mof_Zn	Zn	0.52348	0.62844	0.08468	1.164
Mof_Zn	Zn	0.2612	0.33092	0.31467	1.165
Mof_Zn	Zn	0.04852	0.64518	0.07831	1.164
Mof_I 	I 	0.50548	0.70158	0.03367	-0.388
Mof_I 	I 	0.56927	0.71682	0.12472	-0.37
Mof_I 	I 	0.30611	0.17095	0.30774	-0.371
Mof_I 	I 	0.17324	0.33229	0.3299	-0.373
Mof_I 	I 	0.05425	0.82757	0.07306	-0.386
Mof_I 	I 	0.98374	0.55227	0.10555	-0.364
Mof_C 	C 	0.3234	0.5471	0.14656	0.099
Mof_C 	C 	0.2802	0.5106	0.18733	0.102
Mof_C 	C 	0.2431	0.5502	0.14496	0.108
Mof_C 	C 	0.3707	0.56	0.1315	0.061
Mof_C 	C 	0.3735	0.5806	0.10214	-0.121
Mof_H 	H 	0.3449	0.5842	0.0907	0.082
Mof_C 	C 	0.4167	0.5964	0.08877	0.074
Mof_H 	H 	0.4174	0.612	0.0683	-0.008
Mof_C 	C 	0.4554	0.5677	0.1327	0.075
Mof_H 	H 	0.4845	0.5625	0.1436	-0.011
Mof_C 	C 	0.4134	0.5514	0.14724	-0.122
Mof_H 	H 	0.4133	0.5346	0.1677	0.082
Mof_C 	C 	0.2764	0.4775	0.21836	0.049
Mof_C 	C 	0.317	0.4405	0.23284	-0.115
Mof_H 	H 	0.3476	0.44	0.2236	0.08
Mof_C 	C 	0.3104	0.4038	0.26177	0.069
Mof_H 	H 	0.3374	0.3773	0.2717	-0.014
Mof_C 	C 	0.2308	0.4424	0.26172	0.062
Mof_H 	H 	0.2009	0.4447	0.2719	0.001
Mof_C 	C 	0.2331	0.4783	0.23322	-0.113
Mof_H 	H 	0.2051	0.5034	0.2239	0.081
Mof_C 	C 	0.1976	0.567	0.12855	0.046
Mof_C 	C 	0.1531	0.558	0.14252	-0.108
Mof_H 	H 	0.1516	0.5399	0.1628	0.077
Mof_C 	C 	0.1118	0.5753	0.12704	0.053
Mof_H 	H 	0.0818	0.5679	0.1368	-0.006
Mof_C 	C 	0.1546	0.6103	0.08454	0.072
Mof_H 	H 	0.1549	0.6292	0.0643	-0.016
Mof_C 	C 	0.198	0.5921	0.09831	-0.116
Mof_H 	H 	0.2273	0.5965	0.0877	0.078
Mof_C 	C 	0.6057	0.2068	0.0662	0.095
Mof_C 	C 	0.6012	0.0693	0.0398	0.096
Mof_C 	C 	0.6385	0.0717	0.08444	0.107
Mof_C 	C 	0.5915	0.3098	0.06985	0.054
Mof_C 	C 	0.5945	0.3556	0.09695	-0.128
Mof_H 	H 	0.6077	0.323	0.1136	0.097
Mof_C 	C 	0.5783	0.4477	0.09947	0.07
Mof_H 	H 	0.5819	0.4794	0.118	-0.005
Mof_C 	C 	0.5548	0.4529	0.05102	0.086
Mof_H 	H 	0.5411	0.4872	0.0349	-0.009
Mof_C 	C 	0.5707	0.3612	0.04588	-0.131
Mof_H 	H 	0.568	0.3326	0.0268	0.091
Mof_C 	C 	0.585	0.0154	0.01396	0.048
Mof_C 	C 	0.5605	0.0619	0.99106	-0.123
Mof_H 	H 	0.553	0.1288	0.9927	0.09
Mof_C 	C 	0.5474	0.0115	0.96615	0.074
Mof_H 	H 	0.5305	0.0447	0.9509	-0.013
Mof_C 	C 	0.5797	0.8708	0.98445	0.057
Mof_H 	H 	0.586	0.8036	0.9823	-0.002
Mof_C 	C 	0.594	0.9181	0.01068	-0.106
Mof_H 	H 	0.6098	0.883	0.026	0.074
Mof_C 	C 	0.662	0.0178	0.10835	0.055
Mof_C 	C 	0.6596	0.9174	0.1093	-0.106
Mof_H 	H 	0.643	0.8829	0.0942	0.082
Mof_C 	C 	0.6808	0.8687	0.1318	0.064
Mof_H 	H 	0.6794	0.8	0.1317	-0.006
Mof_C 	C 	0.7072	0.0088	0.15313	0.081
Mof_H 	H 	0.7245	0.0407	0.1684	-0.017
Mof_C 	C 	0.6874	0.0643	0.13162	-0.121
Mof_H 	H 	0.6905	0.1328	0.1321	0.078
Mof_N 	N 	0.324	0.521	0.17546	-0.138
Mof_N 	N 	0.2387	0.5253	0.17296	-0.141
Mof_N 	N 	0.2844	0.5631	0.13037	-0.141
Mof_N 	N 	0.4584	0.5905	0.10377	-0.27
Mof_N 	N 	0.2688	0.4045	0.27559	-0.276
Mof_N 	N 	0.1123	0.6026	0.09816	-0.269
Mof_N 	N 	0.5907	0.164	0.04149	-0.144
Mof_N 	N 	0.6258	0.0199	0.06052	-0.136
Mof_N 	N 	0.6303	0.1663	0.0882	-0.134
Mof_N 	N 	0.5572	0.4975	0.07688	-0.274
Mof_N 	N 	0.5573	0.9182	0.9624	-0.273
Mof_N 	N 	0.704	0.9133	0.1544	-0.275
Mof_Zn	Zn	0.97652	0.37156	0.58468	1.164
Mof_Zn	Zn	0.2388	0.66908	0.81467	1.165
Mof_Zn	Zn	0.45148	0.35482	0.57831	1.164
Mof_I 	I 	0.99452	0.29842	0.53367	-0.389
Mof_I 	I 	0.93073	0.28318	0.62472	-0.371
Mof_I 	I 	0.19389	0.82905	0.80774	-0.371
Mof_I 	I 	0.32676	0.66771	0.8299	-0.373
Mof_I 	I 	0.44575	0.17243	0.57306	-0.386
Mof_I 	I 	0.51626	0.44773	0.60555	-0.364
Mof_C 	C 	0.1766	0.4529	0.64656	0.099
Mof_C 	C 	0.2198	0.4894	0.68733	0.102
Mof_C 	C 	0.2569	0.4498	0.64496	0.108
Mof_C 	C 	0.1293	0.44	0.6315	0.061
Mof_C 	C 	0.1265	0.4194	0.60214	-0.121
Mof_H 	H 	0.1551	0.4158	0.5907	0.082
Mof_C 	C 	0.0833	0.4036	0.58877	0.074
Mof_H 	H 	0.0826	0.388	0.5683	-0.008
Mof_C 	C 	0.0446	0.4323	0.6327	0.075
Mof_H 	H 	0.0155	0.4375	0.6436	-0.011
Mof_C 	C 	0.0866	0.4486	0.64724	-0.122
Mof_H 	H 	0.0867	0.4654	0.6677	0.082
Mof_C 	C 	0.2236	0.5225	0.71836	0.049
Mof_C 	C 	0.183	0.5595	0.73284	-0.115
Mof_H 	H 	0.1524	0.56	0.7236	0.08
Mof_C 	C 	0.1896	0.5962	0.76177	0.069
Mof_H 	H 	0.1626	0.6227	0.7717	-0.014
Mof_C 	C 	0.2692	0.5576	0.76172	0.062
Mof_H 	H 	0.2991	0.5553	0.7719	0.001
Mof_C 	C 	0.2669	0.5217	0.73322	-0.113
Mof_H 	H 	0.2949	0.4966	0.7239	0.081
Mof_C 	C 	0.3024	0.433	0.62855	0.046
Mof_C 	C 	0.3469	0.442	0.64252	-0.108
Mof_H 	H 	0.3484	0.4601	0.6628	0.077
Mof_C 	C 	0.3882	0.4247	0.62704	0.053
Mof_H 	H 	0.4182	0.4321	0.6368	-0.006
Mof_C 	C 	0.3454	0.3897	0.58454	0.072
Mof_H 	H 	0.3451	0.3708	0.5643	-0.016
Mof_C 	C 	0.302	0.4079	0.59831	-0.116
Mof_H 	H 	0.2727	0.4035	0.5877	0.078
Mof_C 	C 	0.8943	0.7932	0.5662	0.095
Mof_C 	C 	0.8988	0.9307	0.5398	0.096
Mof_C 	C 	0.8615	0.9283	0.58444	0.107
Mof_C 	C 	0.9085	0.6902	0.56985	0.054
Mof_C 	C 	0.9055	0.6444	0.59695	-0.128
Mof_H 	H 	0.8923	0.677	0.6136	0.097
Mof_C 	C 	0.9217	0.5523	0.59947	0.07
Mof_H 	H 	0.9181	0.5206	0.618	-0.005
Mof_C 	C 	0.9452	0.5471	0.55102	0.086
Mof_H 	H 	0.9589	0.5128	0.5349	-0.009
Mof_C 	C 	0.9293	0.6388	0.54588	-0.131
Mof_H 	H 	0.932	0.6674	0.5268	0.091
Mof_C 	C 	0.915	0.9846	0.51396	0.05
Mof_C 	C 	0.9395	0.9381	0.49106	-0.124
Mof_H 	H 	0.947	0.8712	0.4927	0.09
Mof_C 	C 	0.9526	0.9885	0.46615	0.076
Mof_H 	H 	0.9695	0.9553	0.4509	-0.013
Mof_C 	C 	0.9203	0.1292	0.48445	0.058
Mof_H 	H 	0.914	0.1964	0.4823	-0.003
Mof_C 	C 	0.906	0.0819	0.51068	-0.108
Mof_H 	H 	0.8902	0.117	0.526	0.075
Mof_C 	C 	0.838	0.9822	0.60835	0.056
Mof_C 	C 	0.8404	0.0826	0.6093	-0.108
Mof_H 	H 	0.857	0.1171	0.5942	0.082
Mof_C 	C 	0.8192	0.1313	0.6318	0.065
Mof_H 	H 	0.8206	0.2	0.6317	-0.006
Mof_C 	C 	0.7928	0.9912	0.65313	0.082
Mof_H 	H 	0.7755	0.9593	0.6684	-0.017
Mof_C 	C 	0.8126	0.9357	0.63162	-0.122
Mof_H 	H 	0.8095	0.8672	0.6321	0.079
Mof_N 	N 	0.176	0.479	0.67546	-0.138
Mof_N 	N 	0.2613	0.4747	0.67296	-0.141
Mof_N 	N 	0.2156	0.4369	0.63037	-0.141
Mof_N 	N 	0.0416	0.4095	0.60377	-0.269
Mof_N 	N 	0.2312	0.5955	0.77559	-0.276
Mof_N 	N 	0.3877	0.3974	0.59816	-0.269
Mof_N 	N 	0.9093	0.836	0.54149	-0.144
Mof_N 	N 	0.8742	0.9801	0.56052	-0.136
Mof_N 	N 	0.8697	0.8337	0.5882	-0.134
Mof_N 	N 	0.9428	0.5025	0.57688	-0.274
Mof_N 	N 	0.9427	0.0818	0.4624	-0.274
Mof_N 	N 	0.796	0.0867	0.6544	-0.276
Mof_Zn	Zn	0.52348	0.87156	0.58468	1.164
Mof_Zn	Zn	0.2612	0.16908	0.81467	1.165
Mof_Zn	Zn	0.04852	0.85482	0.57831	1.164
Mof_I 	I 	0.50548	0.79842	0.53367	-0.389
Mof_I 	I 	0.56927	0.78318	0.62472	-0.371
Mof_I 	I 	0.30611	0.32905	0.80774	-0.37
Mof_I 	I 	0.17324	0.16771	0.8299	-0.372
Mof_I 	I 	0.05425	0.67243	0.57306	-0.386
Mof_I 	I 	0.98374	0.94773	0.60555	-0.364
Mof_C 	C 	0.3234	0.9529	0.64656	0.099
Mof_C 	C 	0.2802	0.9894	0.68733	0.101
Mof_C 	C 	0.2431	0.9498	0.64496	0.107
Mof_C 	C 	0.3707	0.94	0.6315	0.06
Mof_C 	C 	0.3735	0.9194	0.60214	-0.121
Mof_H 	H 	0.3449	0.9158	0.5907	0.082
Mof_C 	C 	0.4167	0.9036	0.58877	0.074
Mof_H 	H 	0.4174	0.888	0.5683	-0.008
Mof_C 	C 	0.4554	0.9323	0.6327	0.074
Mof_H 	H 	0.4845	0.9375	0.6436	-0.011
Mof_C 	C 	0.4134	0.9486	0.64724	-0.122
Mof_H 	H 	0.4133	0.9654	0.6677	0.082
Mof_C 	C 	0.2764	0.0225	0.71836	0.049
Mof_C 	C 	0.317	0.0595	0.73284	-0.115
Mof_H 	H 	0.3476	0.06	0.7236	0.08
Mof_C 	C 	0.3104	0.0962	0.76177	0.069
Mof_H 	H 	0.3374	0.1227	0.7717	-0.013
Mof_C 	C 	0.2308	0.0576	0.76172	0.061
Mof_H 	H 	0.2009	0.0553	0.7719	0.001
Mof_C 	C 	0.2331	0.0217	0.73322	-0.109
Mof_H 	H 	0.2051	0.9966	0.7239	0.078
Mof_C 	C 	0.1976	0.933	0.62855	0.046
Mof_C 	C 	0.1531	0.942	0.64252	-0.108
Mof_H 	H 	0.1516	0.9601	0.6628	0.077
Mof_C 	C 	0.1118	0.9247	0.62704	0.053
Mof_H 	H 	0.0818	0.9321	0.6368	-0.007
Mof_C 	C 	0.1546	0.8897	0.58454	0.071
Mof_H 	H 	0.1549	0.8708	0.5643	-0.016
Mof_C 	C 	0.198	0.9079	0.59831	-0.116
Mof_H 	H 	0.2273	0.9035	0.5877	0.078
Mof_C 	C 	0.6057	0.2932	0.5662	0.095
Mof_C 	C 	0.6012	0.4307	0.5398	0.096
Mof_C 	C 	0.6385	0.4283	0.58444	0.107
Mof_C 	C 	0.5915	0.1902	0.56985	0.054
Mof_C 	C 	0.5945	0.1444	0.59695	-0.128
Mof_H 	H 	0.6077	0.177	0.6136	0.097
Mof_C 	C 	0.5783	0.0523	0.59947	0.07
Mof_H 	H 	0.5819	0.0206	0.618	-0.005
Mof_C 	C 	0.5548	0.0471	0.55102	0.086
Mof_H 	H 	0.5411	0.0128	0.5349	-0.009
Mof_C 	C 	0.5707	0.1388	0.54588	-0.131
Mof_H 	H 	0.568	0.1674	0.5268	0.091
Mof_C 	C 	0.585	0.4846	0.51396	0.049
Mof_C 	C 	0.5605	0.4381	0.49106	-0.123
Mof_H 	H 	0.553	0.3712	0.4927	0.09
Mof_C 	C 	0.5474	0.4885	0.46615	0.074
Mof_H 	H 	0.5305	0.4553	0.4509	-0.013
Mof_C 	C 	0.5797	0.6292	0.48445	0.057
Mof_H 	H 	0.586	0.6964	0.4823	-0.003
Mof_C 	C 	0.594	0.5819	0.51068	-0.106
Mof_H 	H 	0.6098	0.617	0.526	0.074
Mof_C 	C 	0.662	0.4822	0.60835	0.057
Mof_C 	C 	0.6596	0.5826	0.6093	-0.109
Mof_H 	H 	0.643	0.6171	0.5942	0.082
Mof_C 	C 	0.6808	0.6313	0.6318	0.065
Mof_H 	H 	0.6794	0.7	0.6317	-0.006
Mof_C 	C 	0.7072	0.4912	0.65313	0.083
Mof_H 	H 	0.7245	0.4593	0.6684	-0.018
Mof_C 	C 	0.6874	0.4357	0.63162	-0.123
Mof_H 	H 	0.6905	0.3672	0.6321	0.079
Mof_N 	N 	0.324	0.979	0.67546	-0.138
Mof_N 	N 	0.2387	0.9747	0.67296	-0.141
Mof_N 	N 	0.2844	0.9369	0.63037	-0.141
Mof_N 	N 	0.4584	0.9095	0.60377	-0.27
Mof_N 	N 	0.2688	0.0955	0.77559	-0.275
Mof_N 	N 	0.1123	0.8974	0.59816	-0.269
Mof_N 	N 	0.5907	0.336	0.54149	-0.144
Mof_N 	N 	0.6258	0.4801	0.56052	-0.136
Mof_N 	N 	0.6303	0.3337	0.5882	-0.134
Mof_N 	N 	0.5572	0.0025	0.57688	-0.274
Mof_N 	N 	0.5573	0.5818	0.4624	-0.273
Mof_N 	N 	0.704	0.5867	0.6544	-0.277
Mof_Zn	Zn	0.97652	0.12844	0.08468	1.163
Mof_Zn	Zn	0.2388	0.83092	0.31467	1.165
Mof_Zn	Zn	0.45148	0.14518	0.07831	1.164
Mof_I 	I 	0.99452	0.20158	0.03367	-0.389
Mof_I 	I 	0.93073	0.21682	0.12472	-0.371
Mof_I 	I 	0.19389	0.67095	0.30774	-0.37
Mof_I 	I 	0.32676	0.83229	0.3299	-0.373
Mof_I 	I 	0.44575	0.32757	0.07306	-0.386
Mof_I 	I 	0.51626	0.05227	0.10555	-0.365
Mof_C 	C 	0.1766	0.0471	0.14656	0.099
Mof_C 	C 	0.2198	0.0106	0.18733	0.102
Mof_C 	C 	0.2569	0.0502	0.14496	0.108
Mof_C 	C 	0.1293	0.06	0.1315	0.06
Mof_C 	C 	0.1265	0.0806	0.10214	-0.121
Mof_H 	H 	0.1551	0.0842	0.0907	0.082
Mof_C 	C 	0.0833	0.0964	0.08877	0.074
Mof_H 	H 	0.0826	0.112	0.0683	-0.008
Mof_C 	C 	0.0446	0.0677	0.1327	0.075
Mof_H 	H 	0.0155	0.0625	0.1436	-0.011
Mof_C 	C 	0.0866	0.0514	0.14724	-0.122
Mof_H 	H 	0.0867	0.0346	0.1677	0.082
Mof_C 	C 	0.2236	0.9775	0.21836	0.049
Mof_C 	C 	0.183	0.9405	0.23284	-0.115
Mof_H 	H 	0.1524	0.94	0.2236	0.08
Mof_C 	C 	0.1896	0.9038	0.26177	0.069
Mof_H 	H 	0.1626	0.8773	0.2717	-0.014
Mof_C 	C 	0.2692	0.9424	0.26172	0.062
Mof_H 	H 	0.2991	0.9447	0.2719	0.001
Mof_C 	C 	0.2669	0.9783	0.23322	-0.111
Mof_H 	H 	0.2949	0.0034	0.2239	0.079
Mof_C 	C 	0.3024	0.067	0.12855	0.046
Mof_C 	C 	0.3469	0.058	0.14252	-0.108
Mof_H 	H 	0.3484	0.0399	0.1628	0.077
Mof_C 	C 	0.3882	0.0753	0.12704	0.053
Mof_H 	H 	0.4182	0.0679	0.1368	-0.007
Mof_C 	C 	0.3454	0.1103	0.08454	0.072
Mof_H 	H 	0.3451	0.1292	0.0643	-0.016
Mof_C 	C 	0.302	0.0921	0.09831	-0.116
Mof_H 	H 	0.2727	0.0965	0.0877	0.078
Mof_C 	C 	0.8943	0.7068	0.0662	0.095
Mof_C 	C 	0.8988	0.5693	0.0398	0.096
Mof_C 	C 	0.8615	0.5717	0.08444	0.107
Mof_C 	C 	0.9085	0.8098	0.06985	0.054
Mof_C 	C 	0.9055	0.8556	0.09695	-0.128
Mof_H 	H 	0.8923	0.823	0.1136	0.098
Mof_C 	C 	0.9217	0.9477	0.09947	0.07
Mof_H 	H 	0.9181	0.9794	0.118	-0.004
Mof_C 	C 	0.9452	0.9529	0.05102	0.086
Mof_H 	H 	0.9589	0.9872	0.0349	-0.009
Mof_C 	C 	0.9293	0.8612	0.04588	-0.131
Mof_H 	H 	0.932	0.8326	0.0268	0.091
Mof_C 	C 	0.915	0.5154	0.01396	0.049
Mof_C 	C 	0.9395	0.5619	0.99106	-0.123
Mof_H 	H 	0.947	0.6288	0.9927	0.09
Mof_C 	C 	0.9526	0.5115	0.96615	0.074
Mof_H 	H 	0.9695	0.5447	0.9509	-0.013
Mof_C 	C 	0.9203	0.3708	0.98445	0.057
Mof_H 	H 	0.914	0.3036	0.9823	-0.003
Mof_C 	C 	0.906	0.4181	0.01068	-0.106
Mof_H 	H 	0.8902	0.383	0.026	0.074
Mof_C 	C 	0.838	0.5178	0.10835	0.057
Mof_C 	C 	0.8404	0.4174	0.1093	-0.109
Mof_H 	H 	0.857	0.3829	0.0942	0.082
Mof_C 	C 	0.8192	0.3687	0.1318	0.065
Mof_H 	H 	0.8206	0.3	0.1317	-0.006
Mof_C 	C 	0.7928	0.5088	0.15313	0.083
Mof_H 	H 	0.7755	0.5407	0.1684	-0.018
Mof_C 	C 	0.8126	0.5643	0.13162	-0.123
Mof_H 	H 	0.8095	0.6328	0.1321	0.079
Mof_N 	N 	0.176	0.021	0.17546	-0.138
Mof_N 	N 	0.2613	0.0253	0.17296	-0.141
Mof_N 	N 	0.2156	0.0631	0.13037	-0.141
Mof_N 	N 	0.0416	0.0905	0.10377	-0.269
Mof_N 	N 	0.2312	0.9045	0.27559	-0.275
Mof_N 	N 	0.3877	0.1026	0.09816	-0.269
Mof_N 	N 	0.9093	0.664	0.04149	-0.144
Mof_N 	N 	0.8742	0.5199	0.06052	-0.136
Mof_N 	N 	0.8697	0.6663	0.0882	-0.134
Mof_N 	N 	0.9428	0.9975	0.07688	-0.274
Mof_N 	N 	0.9427	0.4182	0.9624	-0.273
Mof_N 	N 	0.796	0.4133	0.1544	-0.277
Mof_Zn	Zn	0.47652	0.37156	0.91532	1.164
Mof_Zn	Zn	0.7388	0.66908	0.68533	1.165
Mof_Zn	Zn	0.95148	0.35482	0.92169	1.164
Mof_I 	I 	0.49452	0.29842	0.96633	-0.388
Mof_I 	I 	0.43073	0.28318	0.87528	-0.37
Mof_I 	I 	0.69389	0.82905	0.69226	-0.371
Mof_I 	I 	0.82676	0.66771	0.6701	-0.373
Mof_I 	I 	0.94575	0.17243	0.92694	-0.386
Mof_I 	I 	0.01626	0.44773	0.89445	-0.364
Mof_C 	C 	0.6766	0.4529	0.85344	0.099
Mof_C 	C 	0.7198	0.4894	0.81267	0.102
Mof_C 	C 	0.7569	0.4498	0.85504	0.108
Mof_C 	C 	0.6293	0.44	0.8685	0.061
Mof_C 	C 	0.6265	0.4194	0.89786	-0.121
Mof_H 	H 	0.6551	0.4158	0.9093	0.082
Mof_C 	C 	0.5833	0.4036	0.91123	0.074
Mof_H 	H 	0.5826	0.388	0.9317	-0.008
Mof_C 	C 	0.5446	0.4323	0.8673	0.075
Mof_H 	H 	0.5155	0.4375	0.8564	-0.011
Mof_C 	C 	0.5866	0.4486	0.85276	-0.122
Mof_H 	H 	0.5867	0.4654	0.8323	0.082
Mof_C 	C 	0.7236	0.5225	0.78164	0.049
Mof_C 	C 	0.683	0.5595	0.76716	-0.115
Mof_H 	H 	0.6524	0.56	0.7764	0.08
Mof_C 	C 	0.6896	0.5962	0.73823	0.069
Mof_H 	H 	0.6626	0.6227	0.7283	-0.014
Mof_C 	C 	0.7692	0.5576	0.73828	0.062
Mof_H 	H 	0.7991	0.5553	0.7281	0.001
Mof_C 	C 	0.7669	0.5217	0.76678	-0.113
Mof_H 	H 	0.7949	0.4966	0.7761	0.081
Mof_C 	C 	0.8024	0.433	0.87145	0.046
Mof_C 	C 	0.8469	0.442	0.85748	-0.108
Mof_H 	H 	0.8484	0.4601	0.8372	0.077
Mof_C 	C 	0.8882	0.4247	0.87296	0.053
Mof_H 	H 	0.9182	0.4321	0.8632	-0.006
Mof_C 	C 	0.8454	0.3897	0.91546	0.072
Mof_H 	H 	0.8451	0.3708	0.9357	-0.016
Mof_C 	C 	0.802	0.4079	0.90169	-0.116
Mof_H 	H 	0.7727	0.4035	0.9123	0.078
Mof_C 	C 	0.3943	0.7932	0.9338	0.095
Mof_C 	C 	0.3988	0.9307	0.9602	0.096
Mof_C 	C 	0.3615	0.9283	0.91556	0.107
Mof_C 	C 	0.4085	0.6902	0.93015	0.054
Mof_C 	C 	0.4055	0.6444	0.90305	-0.128
Mof_H 	H 	0.3923	0.677	0.8864	0.097
Mof_C 	C 	0.4217	0.5523	0.90053	0.07
Mof_H 	H 	0.4181	0.5206	0.882	-0.005
Mof_C 	C 	0.4452	0.5471	0.94898	0.086
Mof_H 	H 	0.4589	0.5128	0.9651	-0.009
Mof_C 	C 	0.4293	0.6388	0.95412	-0.131
Mof_H 	H 	0.432	0.6674	0.9732	0.091
Mof_C 	C 	0.415	0.9846	0.98604	0.048
Mof_C 	C 	0.4395	0.9381	0.00894	-0.123
Mof_H 	H 	0.447	0.8712	0.0073	0.09
Mof_C 	C 	0.4526	0.9885	0.03385	0.074
Mof_H 	H 	0.4695	0.9553	0.0491	-0.013
Mof_C 	C 	0.4203	0.1292	0.01555	0.057
Mof_H 	H 	0.414	0.1964	0.0177	-0.002
Mof_C 	C 	0.406	0.0819	0.98932	-0.106
Mof_H 	H 	0.3902	0.117	0.974	0.074
Mof_C 	C 	0.338	0.9822	0.89165	0.055
Mof_C 	C 	0.3404	0.0826	0.8907	-0.106
Mof_H 	H 	0.357	0.1171	0.9058	0.082
Mof_C 	C 	0.3192	0.1313	0.8682	0.064
Mof_H 	H 	0.3206	0.2	0.8683	-0.006
Mof_C 	C 	0.2928	0.9912	0.84687	0.081
Mof_H 	H 	0.2755	0.9593	0.8316	-0.017
Mof_C 	C 	0.3126	0.9357	0.86838	-0.121
Mof_H 	H 	0.3095	0.8672	0.8679	0.078
Mof_N 	N 	0.676	0.479	0.82454	-0.138
Mof_N 	N 	0.7613	0.4747	0.82704	-0.141
Mof_N 	N 	0.7156	0.4369	0.86963	-0.141
Mof_N 	N 	0.5416	0.4095	0.89623	-0.27
Mof_N 	N 	0.7312	0.5955	0.72441	-0.276
Mof_N 	N 	0.8877	0.3974	0.90184	-0.269
Mof_N 	N 	0.4093	0.836	0.95851	-0.144
Mof_N 	N 	0.3742	0.9801	0.93948	-0.136
Mof_N 	N 	0.3697	0.8337	0.9118	-0.134
Mof_N 	N 	0.4428	0.5025	0.92312	-0.274
Mof_N 	N 	0.4427	0.0818	0.0376	-0.273
Mof_N 	N 	0.296	0.0867	0.8456	-0.275
Mof_Zn	Zn	0.02348	0.62844	0.41532	1.164
Mof_Zn	Zn	0.7612	0.33092	0.18533	1.165
Mof_Zn	Zn	0.54852	0.64518	0.42169	1.164
Mof_I 	I 	0.00548	0.70158	0.46633	-0.389
Mof_I 	I 	0.06927	0.71682	0.37528	-0.371
Mof_I 	I 	0.80611	0.17095	0.19226	-0.371
Mof_I 	I 	0.67324	0.33229	0.1701	-0.373
Mof_I 	I 	0.55425	0.82757	0.42694	-0.386
Mof_I 	I 	0.48374	0.55227	0.39445	-0.364
Mof_C 	C 	0.8234	0.5471	0.35344	0.099
Mof_C 	C 	0.7802	0.5106	0.31267	0.102
Mof_C 	C 	0.7431	0.5502	0.35504	0.108
Mof_C 	C 	0.8707	0.56	0.3685	0.061
Mof_C 	C 	0.8735	0.5806	0.39786	-0.121
Mof_H 	H 	0.8449	0.5842	0.4093	0.082
Mof_C 	C 	0.9167	0.5964	0.41123	0.074
Mof_H 	H 	0.9174	0.612	0.4317	-0.008
Mof_C 	C 	0.9554	0.5677	0.3673	0.075
Mof_H 	H 	0.9845	0.5625	0.3564	-0.011
Mof_C 	C 	0.9134	0.5514	0.35276	-0.122
Mof_H 	H 	0.9133	0.5346	0.3323	0.082
Mof_C 	C 	0.7764	0.4775	0.28164	0.049
Mof_C 	C 	0.817	0.4405	0.26716	-0.115
Mof_H 	H 	0.8476	0.44	0.2764	0.08
Mof_C 	C 	0.8104	0.4038	0.23823	0.069
Mof_H 	H 	0.8374	0.3773	0.2283	-0.014
Mof_C 	C 	0.7308	0.4424	0.23828	0.062
Mof_H 	H 	0.7009	0.4447	0.2281	0.001
Mof_C 	C 	0.7331	0.4783	0.26678	-0.113
Mof_H 	H 	0.7051	0.5034	0.2761	0.081
Mof_C 	C 	0.6976	0.567	0.37145	0.046
Mof_C 	C 	0.6531	0.558	0.35748	-0.108
Mof_H 	H 	0.6516	0.5399	0.3372	0.077
Mof_C 	C 	0.6118	0.5753	0.37296	0.053
Mof_H 	H 	0.5818	0.5679	0.3632	-0.006
Mof_C 	C 	0.6546	0.6103	0.41546	0.072
Mof_H 	H 	0.6549	0.6292	0.4357	-0.016
Mof_C 	C 	0.698	0.5921	0.40169	-0.116
Mof_H 	H 	0.7273	0.5965	0.4123	0.078
Mof_C 	C 	0.1057	0.2068	0.4338	0.095
Mof_C 	C 	0.1012	0.0693	0.4602	0.096
Mof_C 	C 	0.1385	0.0717	0.41556	0.107
Mof_C 	C 	0.0915	0.3098	0.43015	0.054
Mof_C 	C 	0.0945	0.3556	0.40305	-0.128
Mof_H 	H 	0.1077	0.323	0.3864	0.097
Mof_C 	C 	0.0783	0.4477	0.40053	0.07
Mof_H 	H 	0.0819	0.4794	0.382	-0.005
Mof_C 	C 	0.0548	0.4529	0.44898	0.086
Mof_H 	H 	0.0411	0.4872	0.4651	-0.009
Mof_C 	C 	0.0707	0.3612	0.45412	-0.131
Mof_H 	H 	0.068	0.3326	0.4732	0.091
Mof_C 	C 	0.085	0.0154	0.48604	0.05
Mof_C 	C 	0.0605	0.0619	0.50894	-0.124
Mof_H 	H 	0.053	0.1288	0.5073	0.09
Mof_C 	C 	0.0474	0.0115	0.53385	0.076
Mof_H 	H 	0.0305	0.0447	0.5491	-0.013
Mof_C 	C 	0.0797	0.8708	0.51555	0.058
Mof_H 	H 	0.086	0.8036	0.5177	-0.003
Mof_C 	C 	0.094	0.9181	0.48932	-0.108
Mof_H 	H 	0.1098	0.883	0.474	0.075
Mof_C 	C 	0.162	0.0178	0.39165	0.056
Mof_C 	C 	0.1596	0.9174	0.3907	-0.108
Mof_H 	H 	0.143	0.8829	0.4058	0.082
Mof_C 	C 	0.1808	0.8687	0.3682	0.065
Mof_H 	H 	0.1794	0.8	0.3683	-0.006
Mof_C 	C 	0.2072	0.0088	0.34687	0.082
Mof_H 	H 	0.2245	0.0407	0.3316	-0.017
Mof_C 	C 	0.1874	0.0643	0.36838	-0.122
Mof_H 	H 	0.1905	0.1328	0.3679	0.079
Mof_N 	N 	0.824	0.521	0.32454	-0.138
Mof_N 	N 	0.7387	0.5253	0.32704	-0.141
Mof_N 	N 	0.7844	0.5631	0.36963	-0.141
Mof_N 	N 	0.9584	0.5905	0.39623	-0.269
Mof_N 	N 	0.7688	0.4045	0.22441	-0.276
Mof_N 	N 	0.6123	0.6026	0.40184	-0.269
Mof_N 	N 	0.0907	0.164	0.45851	-0.144
Mof_N 	N 	0.1258	0.0199	0.43948	-0.136
Mof_N 	N 	0.1303	0.1663	0.4118	-0.134
Mof_N 	N 	0.0572	0.4975	0.42312	-0.274
Mof_N 	N 	0.0573	0.9182	0.5376	-0.274
Mof_N 	N 	0.204	0.9133	0.3456	-0.276
_end
