data_functionalizedCrystal
_audit_creation_method	'EQeq! by Chris Wilmer'
_symmetry_space_group_name_H-M	'P1'
_symmetry_Int_Tables_number	1
_symmetry_cell_setting	triclinic
loop_
_symmetry_equiv_pos_as_xyz
  x,y,z
_cell_length_a	25.3961
_cell_length_b	25.3961
_cell_length_c	25.3961
_cell_angle_alpha	90
_cell_angle_beta	90
_cell_angle_gamma	90
loop_
_atom_site_label
_atom_site_type_symbol
_atom_site_fract_x
_atom_site_fract_y
_atom_site_fract_z
_atom_site_charge
Mof_C 	C 	0.189	0.4234	0.2379	0.092
Mof_H 	H 	0.1864	0.4126	0.2737	-0.007
Mof_C 	C 	0.196	0.4243	0.1574	-0.009
Mof_H 	H 	0.201	0.4142	0.1217	0.034
Mof_C 	C 	0.1866	0.4723	0.1715	0.018
Mof_H 	H 	0.1824	0.5016	0.1487	0.021
Mof_C 	C 	0.177	0.5182	0.2536	0.092
Mof_C 	C 	0.1659	0.5659	0.2292	-0.078
Mof_H 	H 	0.1652	0.5681	0.1918	0.055
Mof_C 	C 	0.1559	0.6105	0.2593	-0.071
Mof_H 	H 	0.1483	0.6431	0.2426	0.057
Mof_C 	C 	0.1569	0.6073	0.314	0.077
Mof_C 	C 	0.168	0.5596	0.3384	-0.072
Mof_H 	H 	0.1687	0.5574	0.3758	0.055
Mof_C 	C 	0.178	0.515	0.3082	-0.079
Mof_H 	H 	0.1855	0.4824	0.3249	0.057
Mof_N 	N 	0.198	0.3893	0.1982	-0.15
Mof_N 	N 	0.1841	0.473	0.2229	-0.145
Mof_C 	C 	0.311	0.5766	0.7379	0.092
Mof_H 	H 	0.3136	0.5874	0.7737	-0.007
Mof_C 	C 	0.304	0.5757	0.6574	-0.009
Mof_H 	H 	0.299	0.5858	0.6217	0.034
Mof_C 	C 	0.3134	0.5277	0.6715	0.018
Mof_H 	H 	0.3176	0.4984	0.6487	0.021
Mof_C 	C 	0.323	0.4818	0.7536	0.092
Mof_C 	C 	0.3341	0.4341	0.7292	-0.078
Mof_H 	H 	0.3348	0.4319	0.6918	0.055
Mof_C 	C 	0.3441	0.3895	0.7593	-0.071
Mof_H 	H 	0.3517	0.3569	0.7426	0.057
Mof_C 	C 	0.3431	0.3927	0.814	0.077
Mof_C 	C 	0.332	0.4404	0.8384	-0.072
Mof_H 	H 	0.3313	0.4426	0.8758	0.055
Mof_C 	C 	0.322	0.485	0.8082	-0.079
Mof_H 	H 	0.3145	0.5176	0.8249	0.057
Mof_N 	N 	0.302	0.6107	0.6982	-0.15
Mof_N 	N 	0.3159	0.527	0.7229	-0.145
Mof_C 	C 	0.811	0.9234	0.2621	0.092
Mof_H 	H 	0.8136	0.9126	0.2263	-0.007
Mof_C 	C 	0.804	0.9243	0.3426	-0.009
Mof_H 	H 	0.799	0.9142	0.3783	0.034
Mof_C 	C 	0.8134	0.9723	0.3285	0.018
Mof_H 	H 	0.8176	0.0016	0.3513	0.021
Mof_C 	C 	0.823	0.0182	0.2464	0.092
Mof_C 	C 	0.8341	0.0659	0.2708	-0.078
Mof_H 	H 	0.8348	0.0681	0.3082	0.055
Mof_C 	C 	0.8441	0.1105	0.2407	-0.071
Mof_H 	H 	0.8517	0.1431	0.2574	0.057
Mof_C 	C 	0.8431	0.1073	0.186	0.077
Mof_C 	C 	0.832	0.0596	0.1616	-0.072
Mof_H 	H 	0.8313	0.0574	0.1242	0.055
Mof_C 	C 	0.822	0.015	0.1918	-0.079
Mof_H 	H 	0.8145	0.9824	0.1751	0.057
Mof_N 	N 	0.802	0.8893	0.3018	-0.15
Mof_N 	N 	0.8159	0.973	0.2771	-0.145
Mof_C 	C 	0.689	0.0766	0.7621	0.092
Mof_H 	H 	0.6864	0.0874	0.7263	-0.007
Mof_C 	C 	0.696	0.0757	0.8426	-0.009
Mof_H 	H 	0.701	0.0858	0.8783	0.034
Mof_C 	C 	0.6866	0.0277	0.8285	0.018
Mof_H 	H 	0.6824	0.9984	0.8513	0.021
Mof_C 	C 	0.677	0.9818	0.7464	0.092
Mof_C 	C 	0.6659	0.9341	0.7708	-0.078
Mof_H 	H 	0.6652	0.9319	0.8082	0.055
Mof_C 	C 	0.6559	0.8895	0.7407	-0.071
Mof_H 	H 	0.6483	0.8569	0.7574	0.058
Mof_C 	C 	0.6569	0.8927	0.686	0.078
Mof_C 	C 	0.668	0.9404	0.6616	-0.071
Mof_H 	H 	0.6687	0.9426	0.6242	0.056
Mof_C 	C 	0.678	0.985	0.6918	-0.078
Mof_H 	H 	0.6855	0.0176	0.6751	0.058
Mof_N 	N 	0.698	0.1107	0.8018	-0.149
Mof_N 	N 	0.6841	0.027	0.7771	-0.144
Mof_C 	C 	0.7379	0.189	0.9234	0.093
Mof_H 	H 	0.7737	0.1864	0.9126	-0.006
Mof_C 	C 	0.6574	0.196	0.9243	-0.008
Mof_H 	H 	0.6217	0.201	0.9142	0.035
Mof_C 	C 	0.6715	0.1866	0.9723	0.019
Mof_H 	H 	0.6487	0.1824	0.0016	0.022
Mof_C 	C 	0.7536	0.177	0.0182	0.093
Mof_C 	C 	0.7292	0.1659	0.0659	-0.077
Mof_H 	H 	0.6918	0.1652	0.0681	0.056
Mof_C 	C 	0.7593	0.1559	0.1105	-0.07
Mof_H 	H 	0.7426	0.1483	0.1431	0.058
Mof_C 	C 	0.814	0.1569	0.1073	0.078
Mof_C 	C 	0.8384	0.168	0.0596	-0.071
Mof_H 	H 	0.8758	0.1687	0.0574	0.056
Mof_C 	C 	0.8082	0.178	0.015	-0.078
Mof_H 	H 	0.8249	0.1855	0.9824	0.058
Mof_N 	N 	0.6982	0.198	0.8893	-0.149
Mof_N 	N 	0.7229	0.1841	0.973	-0.144
Mof_C 	C 	0.2379	0.311	0.0766	0.093
Mof_H 	H 	0.2737	0.3136	0.0874	-0.006
Mof_C 	C 	0.1574	0.304	0.0757	-0.008
Mof_H 	H 	0.1217	0.299	0.0858	0.035
Mof_C 	C 	0.1715	0.3134	0.0277	0.019
Mof_H 	H 	0.1487	0.3176	0.9984	0.022
Mof_C 	C 	0.2536	0.323	0.9818	0.093
Mof_C 	C 	0.2292	0.3341	0.9341	-0.077
Mof_H 	H 	0.1918	0.3348	0.9319	0.056
Mof_C 	C 	0.2593	0.3441	0.8895	-0.07
Mof_H 	H 	0.2426	0.3517	0.8569	0.058
Mof_C 	C 	0.314	0.3431	0.8927	0.078
Mof_C 	C 	0.3384	0.332	0.9404	-0.071
Mof_H 	H 	0.3758	0.3313	0.9426	0.056
Mof_C 	C 	0.3082	0.322	0.985	-0.078
Mof_H 	H 	0.3249	0.3145	0.0176	0.058
Mof_N 	N 	0.1982	0.302	0.1107	-0.149
Mof_N 	N 	0.2229	0.3159	0.027	-0.144
Mof_C 	C 	0.7621	0.811	0.4234	0.093
Mof_H 	H 	0.7263	0.8136	0.4126	-0.006
Mof_C 	C 	0.8426	0.804	0.4243	-0.008
Mof_H 	H 	0.8783	0.799	0.4142	0.035
Mof_C 	C 	0.8285	0.8134	0.4723	0.019
Mof_H 	H 	0.8513	0.8176	0.5016	0.022
Mof_C 	C 	0.7464	0.823	0.5182	0.093
Mof_C 	C 	0.7708	0.8341	0.5659	-0.077
Mof_H 	H 	0.8082	0.8348	0.5681	0.056
Mof_C 	C 	0.7407	0.8441	0.6105	-0.07
Mof_H 	H 	0.7574	0.8517	0.6431	0.058
Mof_C 	C 	0.686	0.8431	0.6073	0.078
Mof_C 	C 	0.6616	0.832	0.5596	-0.071
Mof_H 	H 	0.6242	0.8313	0.5574	0.056
Mof_C 	C 	0.6918	0.822	0.515	-0.078
Mof_H 	H 	0.6751	0.8145	0.4824	0.058
Mof_N 	N 	0.8018	0.802	0.3893	-0.149
Mof_N 	N 	0.7771	0.8159	0.473	-0.144
Mof_C 	C 	0.2621	0.689	0.5766	0.093
Mof_H 	H 	0.2263	0.6864	0.5874	-0.006
Mof_C 	C 	0.3426	0.696	0.5757	-0.008
Mof_H 	H 	0.3783	0.701	0.5858	0.035
Mof_C 	C 	0.3285	0.6866	0.5277	0.019
Mof_H 	H 	0.3513	0.6824	0.4984	0.022
Mof_C 	C 	0.2464	0.677	0.4818	0.093
Mof_C 	C 	0.2708	0.6659	0.4341	-0.077
Mof_H 	H 	0.3082	0.6652	0.4319	0.056
Mof_C 	C 	0.2407	0.6559	0.3895	-0.07
Mof_H 	H 	0.2574	0.6483	0.3569	0.058
Mof_C 	C 	0.186	0.6569	0.3927	0.078
Mof_C 	C 	0.1616	0.668	0.4404	-0.071
Mof_H 	H 	0.1242	0.6687	0.4426	0.056
Mof_C 	C 	0.1918	0.678	0.485	-0.078
Mof_H 	H 	0.1751	0.6855	0.5176	0.058
Mof_N 	N 	0.3018	0.698	0.6107	-0.149
Mof_N 	N 	0.2771	0.6841	0.527	-0.144
Mof_C 	C 	0.4234	0.7379	0.689	0.093
Mof_H 	H 	0.4126	0.7737	0.6864	-0.006
Mof_C 	C 	0.4243	0.6574	0.696	-0.008
Mof_H 	H 	0.4142	0.6217	0.701	0.035
Mof_C 	C 	0.4723	0.6715	0.6866	0.019
Mof_H 	H 	0.5016	0.6487	0.6824	0.022
Mof_C 	C 	0.5182	0.7536	0.677	0.093
Mof_C 	C 	0.5659	0.7292	0.6659	-0.077
Mof_H 	H 	0.5681	0.6918	0.6652	0.056
Mof_C 	C 	0.6105	0.7593	0.6559	-0.07
Mof_H 	H 	0.6431	0.7426	0.6483	0.058
Mof_C 	C 	0.6073	0.814	0.6569	0.078
Mof_C 	C 	0.5596	0.8384	0.668	-0.071
Mof_H 	H 	0.5574	0.8758	0.6687	0.056
Mof_C 	C 	0.515	0.8082	0.678	-0.078
Mof_H 	H 	0.4824	0.8249	0.6855	0.058
Mof_N 	N 	0.3893	0.6982	0.698	-0.149
Mof_N 	N 	0.473	0.7229	0.6841	-0.144
Mof_C 	C 	0.5766	0.2379	0.811	0.093
Mof_H 	H 	0.5874	0.2737	0.8136	-0.006
Mof_C 	C 	0.5757	0.1574	0.804	-0.008
Mof_H 	H 	0.5858	0.1217	0.799	0.035
Mof_C 	C 	0.5277	0.1715	0.8134	0.019
Mof_H 	H 	0.4984	0.1487	0.8176	0.022
Mof_C 	C 	0.4818	0.2536	0.823	0.093
Mof_C 	C 	0.4341	0.2292	0.8341	-0.077
Mof_H 	H 	0.4319	0.1918	0.8348	0.056
Mof_C 	C 	0.3895	0.2593	0.8441	-0.07
Mof_H 	H 	0.3569	0.2426	0.8517	0.058
Mof_C 	C 	0.3927	0.314	0.8431	0.078
Mof_C 	C 	0.4404	0.3384	0.832	-0.071
Mof_H 	H 	0.4426	0.3758	0.8313	0.056
Mof_C 	C 	0.485	0.3082	0.822	-0.078
Mof_H 	H 	0.5176	0.3249	0.8145	0.058
Mof_N 	N 	0.6107	0.1982	0.802	-0.149
Mof_N 	N 	0.527	0.2229	0.8159	-0.144
Mof_C 	C 	0.9234	0.7621	0.311	0.093
Mof_H 	H 	0.9126	0.7263	0.3136	-0.006
Mof_C 	C 	0.9243	0.8426	0.304	-0.008
Mof_H 	H 	0.9142	0.8783	0.299	0.035
Mof_C 	C 	0.9723	0.8285	0.3134	0.019
Mof_H 	H 	0.0016	0.8513	0.3176	0.022
Mof_C 	C 	0.0182	0.7464	0.323	0.093
Mof_C 	C 	0.0659	0.7708	0.3341	-0.077
Mof_H 	H 	0.0681	0.8082	0.3348	0.056
Mof_C 	C 	0.1105	0.7407	0.3441	-0.07
Mof_H 	H 	0.1431	0.7574	0.3517	0.058
Mof_C 	C 	0.1073	0.686	0.3431	0.078
Mof_C 	C 	0.0596	0.6616	0.332	-0.071
Mof_H 	H 	0.0574	0.6242	0.3313	0.056
Mof_C 	C 	0.015	0.6918	0.322	-0.078
Mof_H 	H 	0.9824	0.6751	0.3145	0.058
Mof_N 	N 	0.8893	0.8018	0.302	-0.149
Mof_N 	N 	0.973	0.7771	0.3159	-0.144
Mof_C 	C 	0.0766	0.2621	0.189	0.093
Mof_H 	H 	0.0874	0.2263	0.1864	-0.006
Mof_C 	C 	0.0757	0.3426	0.196	-0.008
Mof_H 	H 	0.0858	0.3783	0.201	0.035
Mof_C 	C 	0.0277	0.3285	0.1866	0.019
Mof_H 	H 	0.9984	0.3513	0.1824	0.022
Mof_C 	C 	0.9818	0.2464	0.177	0.093
Mof_C 	C 	0.9341	0.2708	0.1659	-0.077
Mof_H 	H 	0.9319	0.3082	0.1652	0.056
Mof_C 	C 	0.8895	0.2407	0.1559	-0.07
Mof_H 	H 	0.8569	0.2574	0.1483	0.058
Mof_C 	C 	0.8927	0.186	0.1569	0.078
Mof_C 	C 	0.9404	0.1616	0.168	-0.071
Mof_H 	H 	0.9426	0.1242	0.1687	0.056
Mof_C 	C 	0.985	0.1918	0.178	-0.078
Mof_H 	H 	0.0176	0.1751	0.1855	0.058
Mof_N 	N 	0.1107	0.3018	0.198	-0.149
Mof_N 	N 	0.027	0.2771	0.1841	-0.144
Mof_Cd	Cd	0.20011	0.29989	0.20011	0.253
Mof_Cd	Cd	0.79989	0.79989	0.29989	0.253
Mof_Cd	Cd	0.29989	0.70011	0.70011	0.253
Mof_Cd	Cd	0.70011	0.20011	0.79989	0.253
Mof_N 	N 	0.1553	0.6553	0.3447	-0.144
Mof_N 	N 	0.8447	0.1553	0.1553	-0.144
Mof_N 	N 	0.6553	0.8447	0.6553	-0.144
Mof_N 	N 	0.3447	0.3447	0.8447	-0.144
Mof_C 	C 	0.189	0.9234	0.7379	0.093
Mof_H 	H 	0.1864	0.9126	0.7737	-0.006
Mof_C 	C 	0.196	0.9243	0.6574	-0.008
Mof_H 	H 	0.201	0.9142	0.6217	0.035
Mof_C 	C 	0.1866	0.9723	0.6715	0.019
Mof_H 	H 	0.1824	0.0016	0.6487	0.022
Mof_C 	C 	0.177	0.0182	0.7536	0.093
Mof_C 	C 	0.1659	0.0659	0.7292	-0.077
Mof_H 	H 	0.1652	0.0681	0.6918	0.056
Mof_C 	C 	0.1559	0.1105	0.7593	-0.07
Mof_H 	H 	0.1483	0.1431	0.7426	0.058
Mof_C 	C 	0.1569	0.1073	0.814	0.078
Mof_C 	C 	0.168	0.0596	0.8384	-0.071
Mof_H 	H 	0.1687	0.0574	0.8758	0.056
Mof_C 	C 	0.178	0.015	0.8082	-0.078
Mof_H 	H 	0.1855	0.9824	0.8249	0.058
Mof_N 	N 	0.198	0.8893	0.6982	-0.149
Mof_N 	N 	0.1841	0.973	0.7229	-0.144
Mof_C 	C 	0.311	0.0766	0.2379	0.093
Mof_H 	H 	0.3136	0.0874	0.2737	-0.006
Mof_C 	C 	0.304	0.0757	0.1574	-0.008
Mof_H 	H 	0.299	0.0858	0.1217	0.035
Mof_C 	C 	0.3134	0.0277	0.1715	0.019
Mof_H 	H 	0.3176	0.9984	0.1487	0.022
Mof_C 	C 	0.323	0.9818	0.2536	0.093
Mof_C 	C 	0.3341	0.9341	0.2292	-0.077
Mof_H 	H 	0.3348	0.9319	0.1918	0.056
Mof_C 	C 	0.3441	0.8895	0.2593	-0.07
Mof_H 	H 	0.3517	0.8569	0.2426	0.058
Mof_C 	C 	0.3431	0.8927	0.314	0.078
Mof_C 	C 	0.332	0.9404	0.3384	-0.071
Mof_H 	H 	0.3313	0.9426	0.3758	0.056
Mof_C 	C 	0.322	0.985	0.3082	-0.078
Mof_H 	H 	0.3145	0.0176	0.3249	0.058
Mof_N 	N 	0.302	0.1107	0.1982	-0.149
Mof_N 	N 	0.3159	0.027	0.2229	-0.144
Mof_C 	C 	0.811	0.4234	0.7621	0.093
Mof_H 	H 	0.8136	0.4126	0.7263	-0.006
Mof_C 	C 	0.804	0.4243	0.8426	-0.008
Mof_H 	H 	0.799	0.4142	0.8783	0.035
Mof_C 	C 	0.8134	0.4723	0.8285	0.019
Mof_H 	H 	0.8176	0.5016	0.8513	0.022
Mof_C 	C 	0.823	0.5182	0.7464	0.093
Mof_C 	C 	0.8341	0.5659	0.7708	-0.077
Mof_H 	H 	0.8348	0.5681	0.8082	0.056
Mof_C 	C 	0.8441	0.6105	0.7407	-0.07
Mof_H 	H 	0.8517	0.6431	0.7574	0.058
Mof_C 	C 	0.8431	0.6073	0.686	0.078
Mof_C 	C 	0.832	0.5596	0.6616	-0.071
Mof_H 	H 	0.8313	0.5574	0.6242	0.056
Mof_C 	C 	0.822	0.515	0.6918	-0.078
Mof_H 	H 	0.8145	0.4824	0.6751	0.058
Mof_N 	N 	0.802	0.3893	0.8018	-0.149
Mof_N 	N 	0.8159	0.473	0.7771	-0.144
Mof_C 	C 	0.689	0.5766	0.2621	0.093
Mof_H 	H 	0.6864	0.5874	0.2263	-0.006
Mof_C 	C 	0.696	0.5757	0.3426	-0.008
Mof_H 	H 	0.701	0.5858	0.3783	0.035
Mof_C 	C 	0.6866	0.5277	0.3285	0.019
Mof_H 	H 	0.6824	0.4984	0.3513	0.022
Mof_C 	C 	0.677	0.4818	0.2464	0.093
Mof_C 	C 	0.6659	0.4341	0.2708	-0.077
Mof_H 	H 	0.6652	0.4319	0.3082	0.056
Mof_C 	C 	0.6559	0.3895	0.2407	-0.07
Mof_H 	H 	0.6483	0.3569	0.2574	0.058
Mof_C 	C 	0.6569	0.3927	0.186	0.078
Mof_C 	C 	0.668	0.4404	0.1616	-0.071
Mof_H 	H 	0.6687	0.4426	0.1242	0.056
Mof_C 	C 	0.678	0.485	0.1918	-0.078
Mof_H 	H 	0.6855	0.5176	0.1751	0.058
Mof_N 	N 	0.698	0.6107	0.3018	-0.149
Mof_N 	N 	0.6841	0.527	0.2771	-0.144
Mof_C 	C 	0.7379	0.689	0.4234	0.093
Mof_H 	H 	0.7737	0.6864	0.4126	-0.006
Mof_C 	C 	0.6574	0.696	0.4243	-0.008
Mof_H 	H 	0.6217	0.701	0.4142	0.035
Mof_C 	C 	0.6715	0.6866	0.4723	0.019
Mof_H 	H 	0.6487	0.6824	0.5016	0.022
Mof_C 	C 	0.7536	0.677	0.5182	0.093
Mof_C 	C 	0.7292	0.6659	0.5659	-0.077
Mof_H 	H 	0.6918	0.6652	0.5681	0.056
Mof_C 	C 	0.7593	0.6559	0.6105	-0.07
Mof_H 	H 	0.7426	0.6483	0.6431	0.058
Mof_C 	C 	0.814	0.6569	0.6073	0.078
Mof_C 	C 	0.8384	0.668	0.5596	-0.071
Mof_H 	H 	0.8758	0.6687	0.5574	0.056
Mof_C 	C 	0.8082	0.678	0.515	-0.078
Mof_H 	H 	0.8249	0.6855	0.4824	0.058
Mof_N 	N 	0.6982	0.698	0.3893	-0.149
Mof_N 	N 	0.7229	0.6841	0.473	-0.144
Mof_C 	C 	0.2379	0.811	0.5766	0.093
Mof_H 	H 	0.2737	0.8136	0.5874	-0.006
Mof_C 	C 	0.1574	0.804	0.5757	-0.008
Mof_H 	H 	0.1217	0.799	0.5858	0.035
Mof_C 	C 	0.1715	0.8134	0.5277	0.019
Mof_H 	H 	0.1487	0.8176	0.4984	0.022
Mof_C 	C 	0.2536	0.823	0.4818	0.093
Mof_C 	C 	0.2292	0.8341	0.4341	-0.077
Mof_H 	H 	0.1918	0.8348	0.4319	0.056
Mof_C 	C 	0.2593	0.8441	0.3895	-0.07
Mof_H 	H 	0.2426	0.8517	0.3569	0.058
Mof_C 	C 	0.314	0.8431	0.3927	0.078
Mof_C 	C 	0.3384	0.832	0.4404	-0.071
Mof_H 	H 	0.3758	0.8313	0.4426	0.056
Mof_C 	C 	0.3082	0.822	0.485	-0.078
Mof_H 	H 	0.3249	0.8145	0.5176	0.058
Mof_N 	N 	0.1982	0.802	0.6107	-0.149
Mof_N 	N 	0.2229	0.8159	0.527	-0.144
Mof_C 	C 	0.7621	0.311	0.9234	0.093
Mof_H 	H 	0.7263	0.3136	0.9126	-0.006
Mof_C 	C 	0.8426	0.304	0.9243	-0.008
Mof_H 	H 	0.8783	0.299	0.9142	0.035
Mof_C 	C 	0.8285	0.3134	0.9723	0.019
Mof_H 	H 	0.8513	0.3176	0.0016	0.022
Mof_C 	C 	0.7464	0.323	0.0182	0.093
Mof_C 	C 	0.7708	0.3341	0.0659	-0.077
Mof_H 	H 	0.8082	0.3348	0.0681	0.056
Mof_C 	C 	0.7407	0.3441	0.1105	-0.07
Mof_H 	H 	0.7574	0.3517	0.1431	0.058
Mof_C 	C 	0.686	0.3431	0.1073	0.078
Mof_C 	C 	0.6616	0.332	0.0596	-0.071
Mof_H 	H 	0.6242	0.3313	0.0574	0.056
Mof_C 	C 	0.6918	0.322	0.015	-0.078
Mof_H 	H 	0.6751	0.3145	0.9824	0.058
Mof_N 	N 	0.8018	0.302	0.8893	-0.149
Mof_N 	N 	0.7771	0.3159	0.973	-0.144
Mof_C 	C 	0.2621	0.189	0.0766	0.093
Mof_H 	H 	0.2263	0.1864	0.0874	-0.006
Mof_C 	C 	0.3426	0.196	0.0757	-0.008
Mof_H 	H 	0.3783	0.201	0.0858	0.035
Mof_C 	C 	0.3285	0.1866	0.0277	0.019
Mof_H 	H 	0.3513	0.1824	0.9984	0.022
Mof_C 	C 	0.2464	0.177	0.9818	0.093
Mof_C 	C 	0.2708	0.1659	0.9341	-0.077
Mof_H 	H 	0.3082	0.1652	0.9319	0.056
Mof_C 	C 	0.2407	0.1559	0.8895	-0.07
Mof_H 	H 	0.2574	0.1483	0.8569	0.058
Mof_C 	C 	0.186	0.1569	0.8927	0.078
Mof_C 	C 	0.1616	0.168	0.9404	-0.071
Mof_H 	H 	0.1242	0.1687	0.9426	0.056
Mof_C 	C 	0.1918	0.178	0.985	-0.078
Mof_H 	H 	0.1751	0.1855	0.0176	0.058
Mof_N 	N 	0.3018	0.198	0.1107	-0.149
Mof_N 	N 	0.2771	0.1841	0.027	-0.144
Mof_C 	C 	0.4234	0.2379	0.189	0.093
Mof_H 	H 	0.4126	0.2737	0.1864	-0.006
Mof_C 	C 	0.4243	0.1574	0.196	-0.008
Mof_H 	H 	0.4142	0.1217	0.201	0.035
Mof_C 	C 	0.4723	0.1715	0.1866	0.019
Mof_H 	H 	0.5016	0.1487	0.1824	0.022
Mof_C 	C 	0.5182	0.2536	0.177	0.093
Mof_C 	C 	0.5659	0.2292	0.1659	-0.077
Mof_H 	H 	0.5681	0.1918	0.1652	0.056
Mof_C 	C 	0.6105	0.2593	0.1559	-0.07
Mof_H 	H 	0.6431	0.2426	0.1483	0.058
Mof_C 	C 	0.6073	0.314	0.1569	0.078
Mof_C 	C 	0.5596	0.3384	0.168	-0.071
Mof_H 	H 	0.5574	0.3758	0.1687	0.056
Mof_C 	C 	0.515	0.3082	0.178	-0.078
Mof_H 	H 	0.4824	0.3249	0.1855	0.058
Mof_N 	N 	0.3893	0.1982	0.198	-0.149
Mof_N 	N 	0.473	0.2229	0.1841	-0.144
Mof_C 	C 	0.5766	0.7379	0.311	0.093
Mof_H 	H 	0.5874	0.7737	0.3136	-0.006
Mof_C 	C 	0.5757	0.6574	0.304	-0.008
Mof_H 	H 	0.5858	0.6217	0.299	0.035
Mof_C 	C 	0.5277	0.6715	0.3134	0.019
Mof_H 	H 	0.4984	0.6487	0.3176	0.022
Mof_C 	C 	0.4818	0.7536	0.323	0.093
Mof_C 	C 	0.4341	0.7292	0.3341	-0.077
Mof_H 	H 	0.4319	0.6918	0.3348	0.056
Mof_C 	C 	0.3895	0.7593	0.3441	-0.07
Mof_H 	H 	0.3569	0.7426	0.3517	0.058
Mof_C 	C 	0.3927	0.814	0.3431	0.078
Mof_C 	C 	0.4404	0.8384	0.332	-0.071
Mof_H 	H 	0.4426	0.8758	0.3313	0.056
Mof_C 	C 	0.485	0.8082	0.322	-0.078
Mof_H 	H 	0.5176	0.8249	0.3145	0.058
Mof_N 	N 	0.6107	0.6982	0.302	-0.149
Mof_N 	N 	0.527	0.7229	0.3159	-0.144
Mof_C 	C 	0.9234	0.2621	0.811	0.093
Mof_H 	H 	0.9126	0.2263	0.8136	-0.006
Mof_C 	C 	0.9243	0.3426	0.804	-0.008
Mof_H 	H 	0.9142	0.3783	0.799	0.035
Mof_C 	C 	0.9723	0.3285	0.8134	0.019
Mof_H 	H 	0.0016	0.3513	0.8176	0.022
Mof_C 	C 	0.0182	0.2464	0.823	0.093
Mof_C 	C 	0.0659	0.2708	0.8341	-0.077
Mof_H 	H 	0.0681	0.3082	0.8348	0.056
Mof_C 	C 	0.1105	0.2407	0.8441	-0.07
Mof_H 	H 	0.1431	0.2574	0.8517	0.058
Mof_C 	C 	0.1073	0.186	0.8431	0.078
Mof_C 	C 	0.0596	0.1616	0.832	-0.071
Mof_H 	H 	0.0574	0.1242	0.8313	0.056
Mof_C 	C 	0.015	0.1918	0.822	-0.078
Mof_H 	H 	0.9824	0.1751	0.8145	0.058
Mof_N 	N 	0.8893	0.3018	0.802	-0.149
Mof_N 	N 	0.973	0.2771	0.8159	-0.144
Mof_C 	C 	0.0766	0.7621	0.689	0.093
Mof_H 	H 	0.0874	0.7263	0.6864	-0.006
Mof_C 	C 	0.0757	0.8426	0.696	-0.008
Mof_H 	H 	0.0858	0.8783	0.701	0.035
Mof_C 	C 	0.0277	0.8285	0.6866	0.019
Mof_H 	H 	0.9984	0.8513	0.6824	0.022
Mof_C 	C 	0.9818	0.7464	0.677	0.093
Mof_C 	C 	0.9341	0.7708	0.6659	-0.077
Mof_H 	H 	0.9319	0.8082	0.6652	0.056
Mof_C 	C 	0.8895	0.7407	0.6559	-0.07
Mof_H 	H 	0.8569	0.7574	0.6483	0.058
Mof_C 	C 	0.8927	0.686	0.6569	0.078
Mof_C 	C 	0.9404	0.6616	0.668	-0.071
Mof_H 	H 	0.9426	0.6242	0.6687	0.056
Mof_C 	C 	0.985	0.6918	0.678	-0.078
Mof_H 	H 	0.0176	0.6751	0.6855	0.058
Mof_N 	N 	0.1107	0.8018	0.698	-0.149
Mof_N 	N 	0.027	0.7771	0.6841	-0.144
Mof_Cd	Cd	0.29989	0.20011	0.20011	0.253
Mof_Cd	Cd	0.79989	0.29989	0.79989	0.253
Mof_Cd	Cd	0.20011	0.79989	0.70011	0.253
Mof_Cd	Cd	0.70011	0.70011	0.29989	0.253
Mof_N 	N 	0.1553	0.1553	0.8447	-0.144
Mof_N 	N 	0.8447	0.6553	0.6553	-0.144
Mof_N 	N 	0.3447	0.8447	0.3447	-0.144
Mof_N 	N 	0.6553	0.3447	0.1553	-0.144
Mof_C 	C 	0.689	0.4234	0.7379	0.093
Mof_H 	H 	0.6864	0.4126	0.7737	-0.006
Mof_C 	C 	0.696	0.4243	0.6574	-0.008
Mof_H 	H 	0.701	0.4142	0.6217	0.035
Mof_C 	C 	0.6866	0.4723	0.6715	0.019
Mof_H 	H 	0.6824	0.5016	0.6487	0.022
Mof_C 	C 	0.677	0.5182	0.7536	0.093
Mof_C 	C 	0.6659	0.5659	0.7292	-0.077
Mof_H 	H 	0.6652	0.5681	0.6918	0.056
Mof_C 	C 	0.6559	0.6105	0.7593	-0.07
Mof_H 	H 	0.6483	0.6431	0.7426	0.058
Mof_C 	C 	0.6569	0.6073	0.814	0.078
Mof_C 	C 	0.668	0.5596	0.8384	-0.071
Mof_H 	H 	0.6687	0.5574	0.8758	0.056
Mof_C 	C 	0.678	0.515	0.8082	-0.078
Mof_H 	H 	0.6855	0.4824	0.8249	0.058
Mof_N 	N 	0.698	0.3893	0.6982	-0.149
Mof_N 	N 	0.6841	0.473	0.7229	-0.144
Mof_C 	C 	0.811	0.5766	0.2379	0.093
Mof_H 	H 	0.8136	0.5874	0.2737	-0.006
Mof_C 	C 	0.804	0.5757	0.1574	-0.008
Mof_H 	H 	0.799	0.5858	0.1217	0.035
Mof_C 	C 	0.8134	0.5277	0.1715	0.019
Mof_H 	H 	0.8176	0.4984	0.1487	0.022
Mof_C 	C 	0.823	0.4818	0.2536	0.093
Mof_C 	C 	0.8341	0.4341	0.2292	-0.077
Mof_H 	H 	0.8348	0.4319	0.1918	0.056
Mof_C 	C 	0.8441	0.3895	0.2593	-0.07
Mof_H 	H 	0.8517	0.3569	0.2426	0.058
Mof_C 	C 	0.8431	0.3927	0.314	0.078
Mof_C 	C 	0.832	0.4404	0.3384	-0.071
Mof_H 	H 	0.8313	0.4426	0.3758	0.056
Mof_C 	C 	0.822	0.485	0.3082	-0.078
Mof_H 	H 	0.8145	0.5176	0.3249	0.058
Mof_N 	N 	0.802	0.6107	0.1982	-0.149
Mof_N 	N 	0.8159	0.527	0.2229	-0.144
Mof_C 	C 	0.311	0.9234	0.7621	0.093
Mof_H 	H 	0.3136	0.9126	0.7263	-0.006
Mof_C 	C 	0.304	0.9243	0.8426	-0.008
Mof_H 	H 	0.299	0.9142	0.8783	0.035
Mof_C 	C 	0.3134	0.9723	0.8285	0.019
Mof_H 	H 	0.3176	0.0016	0.8513	0.022
Mof_C 	C 	0.323	0.0182	0.7464	0.093
Mof_C 	C 	0.3341	0.0659	0.7708	-0.077
Mof_H 	H 	0.3348	0.0681	0.8082	0.056
Mof_C 	C 	0.3441	0.1105	0.7407	-0.07
Mof_H 	H 	0.3517	0.1431	0.7574	0.058
Mof_C 	C 	0.3431	0.1073	0.686	0.078
Mof_C 	C 	0.332	0.0596	0.6616	-0.071
Mof_H 	H 	0.3313	0.0574	0.6242	0.056
Mof_C 	C 	0.322	0.015	0.6918	-0.078
Mof_H 	H 	0.3145	0.9824	0.6751	0.058
Mof_N 	N 	0.302	0.8893	0.8018	-0.149
Mof_N 	N 	0.3159	0.973	0.7771	-0.144
Mof_C 	C 	0.189	0.0766	0.2621	0.093
Mof_H 	H 	0.1864	0.0874	0.2263	-0.006
Mof_C 	C 	0.196	0.0757	0.3426	-0.008
Mof_H 	H 	0.201	0.0858	0.3783	0.035
Mof_C 	C 	0.1866	0.0277	0.3285	0.019
Mof_H 	H 	0.1824	0.9984	0.3513	0.022
Mof_C 	C 	0.177	0.9818	0.2464	0.093
Mof_C 	C 	0.1659	0.9341	0.2708	-0.077
Mof_H 	H 	0.1652	0.9319	0.3082	0.056
Mof_C 	C 	0.1559	0.8895	0.2407	-0.07
Mof_H 	H 	0.1483	0.8569	0.2574	0.058
Mof_C 	C 	0.1569	0.8927	0.186	0.078
Mof_C 	C 	0.168	0.9404	0.1616	-0.071
Mof_H 	H 	0.1687	0.9426	0.1242	0.056
Mof_C 	C 	0.178	0.985	0.1918	-0.078
Mof_H 	H 	0.1855	0.0176	0.1751	0.058
Mof_N 	N 	0.198	0.1107	0.3018	-0.149
Mof_N 	N 	0.1841	0.027	0.2771	-0.144
Mof_C 	C 	0.2379	0.189	0.4234	0.093
Mof_H 	H 	0.2737	0.1864	0.4126	-0.006
Mof_C 	C 	0.1574	0.196	0.4243	-0.008
Mof_H 	H 	0.1217	0.201	0.4142	0.035
Mof_C 	C 	0.1715	0.1866	0.4723	0.019
Mof_H 	H 	0.1487	0.1824	0.5016	0.022
Mof_C 	C 	0.2536	0.177	0.5182	0.093
Mof_C 	C 	0.2292	0.1659	0.5659	-0.077
Mof_H 	H 	0.1918	0.1652	0.5681	0.056
Mof_C 	C 	0.2593	0.1559	0.6105	-0.07
Mof_H 	H 	0.2426	0.1483	0.6431	0.058
Mof_C 	C 	0.314	0.1569	0.6073	0.078
Mof_C 	C 	0.3384	0.168	0.5596	-0.071
Mof_H 	H 	0.3758	0.1687	0.5574	0.056
Mof_C 	C 	0.3082	0.178	0.515	-0.078
Mof_H 	H 	0.3249	0.1855	0.4824	0.058
Mof_N 	N 	0.1982	0.198	0.3893	-0.149
Mof_N 	N 	0.2229	0.1841	0.473	-0.144
Mof_C 	C 	0.7379	0.311	0.5766	0.093
Mof_H 	H 	0.7737	0.3136	0.5874	-0.006
Mof_C 	C 	0.6574	0.304	0.5757	-0.008
Mof_H 	H 	0.6217	0.299	0.5858	0.035
Mof_C 	C 	0.6715	0.3134	0.5277	0.019
Mof_H 	H 	0.6487	0.3176	0.4984	0.022
Mof_C 	C 	0.7536	0.323	0.4818	0.093
Mof_C 	C 	0.7292	0.3341	0.4341	-0.077
Mof_H 	H 	0.6918	0.3348	0.4319	0.056
Mof_C 	C 	0.7593	0.3441	0.3895	-0.07
Mof_H 	H 	0.7426	0.3517	0.3569	0.058
Mof_C 	C 	0.814	0.3431	0.3927	0.078
Mof_C 	C 	0.8384	0.332	0.4404	-0.071
Mof_H 	H 	0.8758	0.3313	0.4426	0.056
Mof_C 	C 	0.8082	0.322	0.485	-0.078
Mof_H 	H 	0.8249	0.3145	0.5176	0.058
Mof_N 	N 	0.6982	0.302	0.6107	-0.149
Mof_N 	N 	0.7229	0.3159	0.527	-0.144
Mof_C 	C 	0.2621	0.811	0.9234	0.093
Mof_H 	H 	0.2263	0.8136	0.9126	-0.006
Mof_C 	C 	0.3426	0.804	0.9243	-0.008
Mof_H 	H 	0.3783	0.799	0.9142	0.035
Mof_C 	C 	0.3285	0.8134	0.9723	0.019
Mof_H 	H 	0.3513	0.8176	0.0016	0.022
Mof_C 	C 	0.2464	0.823	0.0182	0.093
Mof_C 	C 	0.2708	0.8341	0.0659	-0.077
Mof_H 	H 	0.3082	0.8348	0.0681	0.056
Mof_C 	C 	0.2407	0.8441	0.1105	-0.07
Mof_H 	H 	0.2574	0.8517	0.1431	0.058
Mof_C 	C 	0.186	0.8431	0.1073	0.078
Mof_C 	C 	0.1616	0.832	0.0596	-0.071
Mof_H 	H 	0.1242	0.8313	0.0574	0.056
Mof_C 	C 	0.1918	0.822	0.015	-0.078
Mof_H 	H 	0.1751	0.8145	0.9824	0.058
Mof_N 	N 	0.3018	0.802	0.8893	-0.149
Mof_N 	N 	0.2771	0.8159	0.973	-0.144
Mof_C 	C 	0.7621	0.689	0.0766	0.093
Mof_H 	H 	0.7263	0.6864	0.0874	-0.006
Mof_C 	C 	0.8426	0.696	0.0757	-0.008
Mof_H 	H 	0.8783	0.701	0.0858	0.035
Mof_C 	C 	0.8285	0.6866	0.0277	0.019
Mof_H 	H 	0.8513	0.6824	0.9984	0.022
Mof_C 	C 	0.7464	0.677	0.9818	0.093
Mof_C 	C 	0.7708	0.6659	0.9341	-0.077
Mof_H 	H 	0.8082	0.6652	0.9319	0.056
Mof_C 	C 	0.7407	0.6559	0.8895	-0.07
Mof_H 	H 	0.7574	0.6483	0.8569	0.058
Mof_C 	C 	0.686	0.6569	0.8927	0.078
Mof_C 	C 	0.6616	0.668	0.9404	-0.071
Mof_H 	H 	0.6242	0.6687	0.9426	0.056
Mof_C 	C 	0.6918	0.678	0.985	-0.078
Mof_H 	H 	0.6751	0.6855	0.0176	0.058
Mof_N 	N 	0.8018	0.698	0.1107	-0.149
Mof_N 	N 	0.7771	0.6841	0.027	-0.144
Mof_C 	C 	0.9234	0.7379	0.189	0.093
Mof_H 	H 	0.9126	0.7737	0.1864	-0.006
Mof_C 	C 	0.9243	0.6574	0.196	-0.008
Mof_H 	H 	0.9142	0.6217	0.201	0.035
Mof_C 	C 	0.9723	0.6715	0.1866	0.019
Mof_H 	H 	0.0016	0.6487	0.1824	0.022
Mof_C 	C 	0.0182	0.7536	0.177	0.093
Mof_C 	C 	0.0659	0.7292	0.1659	-0.077
Mof_H 	H 	0.0681	0.6918	0.1652	0.056
Mof_C 	C 	0.1105	0.7593	0.1559	-0.07
Mof_H 	H 	0.1431	0.7426	0.1483	0.058
Mof_C 	C 	0.1073	0.814	0.1569	0.078
Mof_C 	C 	0.0596	0.8384	0.168	-0.071
Mof_H 	H 	0.0574	0.8758	0.1687	0.056
Mof_C 	C 	0.015	0.8082	0.178	-0.078
Mof_H 	H 	0.9824	0.8249	0.1855	0.058
Mof_N 	N 	0.8893	0.6982	0.198	-0.149
Mof_N 	N 	0.973	0.7229	0.1841	-0.144
Mof_C 	C 	0.0766	0.2379	0.311	0.093
Mof_H 	H 	0.0874	0.2737	0.3136	-0.006
Mof_C 	C 	0.0757	0.1574	0.304	-0.008
Mof_H 	H 	0.0858	0.1217	0.299	0.035
Mof_C 	C 	0.0277	0.1715	0.3134	0.019
Mof_H 	H 	0.9984	0.1487	0.3176	0.022
Mof_C 	C 	0.9818	0.2536	0.323	0.093
Mof_C 	C 	0.9341	0.2292	0.3341	-0.077
Mof_H 	H 	0.9319	0.1918	0.3348	0.056
Mof_C 	C 	0.8895	0.2593	0.3441	-0.07
Mof_H 	H 	0.8569	0.2426	0.3517	0.058
Mof_C 	C 	0.8927	0.314	0.3431	0.078
Mof_C 	C 	0.9404	0.3384	0.332	-0.071
Mof_H 	H 	0.9426	0.3758	0.3313	0.056
Mof_C 	C 	0.985	0.3082	0.322	-0.078
Mof_H 	H 	0.0176	0.3249	0.3145	0.058
Mof_N 	N 	0.1107	0.1982	0.302	-0.149
Mof_N 	N 	0.027	0.2229	0.3159	-0.144
Mof_C 	C 	0.4234	0.7621	0.811	0.093
Mof_H 	H 	0.4126	0.7263	0.8136	-0.006
Mof_C 	C 	0.4243	0.8426	0.804	-0.008
Mof_H 	H 	0.4142	0.8783	0.799	0.035
Mof_C 	C 	0.4723	0.8285	0.8134	0.019
Mof_H 	H 	0.5016	0.8513	0.8176	0.022
Mof_C 	C 	0.5182	0.7464	0.823	0.093
Mof_C 	C 	0.5659	0.7708	0.8341	-0.077
Mof_H 	H 	0.5681	0.8082	0.8348	0.056
Mof_C 	C 	0.6105	0.7407	0.8441	-0.07
Mof_H 	H 	0.6431	0.7574	0.8517	0.058
Mof_C 	C 	0.6073	0.686	0.8431	0.078
Mof_C 	C 	0.5596	0.6616	0.832	-0.071
Mof_H 	H 	0.5574	0.6242	0.8313	0.056
Mof_C 	C 	0.515	0.6918	0.822	-0.078
Mof_H 	H 	0.4824	0.6751	0.8145	0.058
Mof_N 	N 	0.3893	0.8018	0.802	-0.149
Mof_N 	N 	0.473	0.7771	0.8159	-0.144
Mof_C 	C 	0.5766	0.2621	0.689	0.093
Mof_H 	H 	0.5874	0.2263	0.6864	-0.006
Mof_C 	C 	0.5757	0.3426	0.696	-0.008
Mof_H 	H 	0.5858	0.3783	0.701	0.035
Mof_C 	C 	0.5277	0.3285	0.6866	0.019
Mof_H 	H 	0.4984	0.3513	0.6824	0.022
Mof_C 	C 	0.4818	0.2464	0.677	0.093
Mof_C 	C 	0.4341	0.2708	0.6659	-0.077
Mof_H 	H 	0.4319	0.3082	0.6652	0.056
Mof_C 	C 	0.3895	0.2407	0.6559	-0.07
Mof_H 	H 	0.3569	0.2574	0.6483	0.058
Mof_C 	C 	0.3927	0.186	0.6569	0.078
Mof_C 	C 	0.4404	0.1616	0.668	-0.071
Mof_H 	H 	0.4426	0.1242	0.6687	0.056
Mof_C 	C 	0.485	0.1918	0.678	-0.078
Mof_H 	H 	0.5176	0.1751	0.6855	0.058
Mof_N 	N 	0.6107	0.3018	0.698	-0.149
Mof_N 	N 	0.527	0.2771	0.6841	-0.144
Mof_Cd	Cd	0.79989	0.70011	0.20011	0.253
Mof_Cd	Cd	0.20011	0.20011	0.29989	0.253
Mof_Cd	Cd	0.29989	0.79989	0.79989	0.253
Mof_Cd	Cd	0.70011	0.29989	0.70011	0.253
Mof_N 	N 	0.8447	0.3447	0.3447	-0.144
Mof_N 	N 	0.1553	0.8447	0.1553	-0.144
Mof_N 	N 	0.3447	0.1553	0.6553	-0.144
Mof_N 	N 	0.6553	0.6553	0.8447	-0.144
Mof_C 	C 	0.689	0.9234	0.2379	0.093
Mof_H 	H 	0.6864	0.9126	0.2737	-0.006
Mof_C 	C 	0.696	0.9243	0.1574	-0.008
Mof_H 	H 	0.701	0.9142	0.1217	0.035
Mof_C 	C 	0.6866	0.9723	0.1715	0.019
Mof_H 	H 	0.6824	0.0016	0.1487	0.022
Mof_C 	C 	0.677	0.0182	0.2536	0.093
Mof_C 	C 	0.6659	0.0659	0.2292	-0.077
Mof_H 	H 	0.6652	0.0681	0.1918	0.056
Mof_C 	C 	0.6559	0.1105	0.2593	-0.07
Mof_H 	H 	0.6483	0.1431	0.2426	0.058
Mof_C 	C 	0.6569	0.1073	0.314	0.078
Mof_C 	C 	0.668	0.0596	0.3384	-0.071
Mof_H 	H 	0.6687	0.0574	0.3758	0.056
Mof_C 	C 	0.678	0.015	0.3082	-0.078
Mof_H 	H 	0.6855	0.9824	0.3249	0.058
Mof_N 	N 	0.698	0.8893	0.1982	-0.149
Mof_N 	N 	0.6841	0.973	0.2229	-0.144
Mof_C 	C 	0.811	0.0766	0.7379	0.093
Mof_H 	H 	0.8136	0.0874	0.7737	-0.006
Mof_C 	C 	0.804	0.0757	0.6574	-0.008
Mof_H 	H 	0.799	0.0858	0.6217	0.035
Mof_C 	C 	0.8134	0.0277	0.6715	0.019
Mof_H 	H 	0.8176	0.9984	0.6487	0.022
Mof_C 	C 	0.823	0.9818	0.7536	0.093
Mof_C 	C 	0.8341	0.9341	0.7292	-0.077
Mof_H 	H 	0.8348	0.9319	0.6918	0.056
Mof_C 	C 	0.8441	0.8895	0.7593	-0.07
Mof_H 	H 	0.8517	0.8569	0.7426	0.058
Mof_C 	C 	0.8431	0.8927	0.814	0.078
Mof_C 	C 	0.832	0.9404	0.8384	-0.071
Mof_H 	H 	0.8313	0.9426	0.8758	0.056
Mof_C 	C 	0.822	0.985	0.8082	-0.078
Mof_H 	H 	0.8145	0.0176	0.8249	0.058
Mof_N 	N 	0.802	0.1107	0.6982	-0.149
Mof_N 	N 	0.8159	0.027	0.7229	-0.144
Mof_C 	C 	0.311	0.4234	0.2621	0.093
Mof_H 	H 	0.3136	0.4126	0.2263	-0.006
Mof_C 	C 	0.304	0.4243	0.3426	-0.008
Mof_H 	H 	0.299	0.4142	0.3783	0.035
Mof_C 	C 	0.3134	0.4723	0.3285	0.019
Mof_H 	H 	0.3176	0.5016	0.3513	0.022
Mof_C 	C 	0.323	0.5182	0.2464	0.093
Mof_C 	C 	0.3341	0.5659	0.2708	-0.077
Mof_H 	H 	0.3348	0.5681	0.3082	0.056
Mof_C 	C 	0.3441	0.6105	0.2407	-0.07
Mof_H 	H 	0.3517	0.6431	0.2574	0.058
Mof_C 	C 	0.3431	0.6073	0.186	0.078
Mof_C 	C 	0.332	0.5596	0.1616	-0.071
Mof_H 	H 	0.3313	0.5574	0.1242	0.056
Mof_C 	C 	0.322	0.515	0.1918	-0.078
Mof_H 	H 	0.3145	0.4824	0.1751	0.058
Mof_N 	N 	0.302	0.3893	0.3018	-0.149
Mof_N 	N 	0.3159	0.473	0.2771	-0.144
Mof_C 	C 	0.189	0.5766	0.7621	0.093
Mof_H 	H 	0.1864	0.5874	0.7263	-0.006
Mof_C 	C 	0.196	0.5757	0.8426	-0.008
Mof_H 	H 	0.201	0.5858	0.8783	0.035
Mof_C 	C 	0.1866	0.5277	0.8285	0.019
Mof_H 	H 	0.1824	0.4984	0.8513	0.022
Mof_C 	C 	0.177	0.4818	0.7464	0.093
Mof_C 	C 	0.1659	0.4341	0.7708	-0.077
Mof_H 	H 	0.1652	0.4319	0.8082	0.056
Mof_C 	C 	0.1559	0.3895	0.7407	-0.07
Mof_H 	H 	0.1483	0.3569	0.7574	0.058
Mof_C 	C 	0.1569	0.3927	0.686	0.078
Mof_C 	C 	0.168	0.4404	0.6616	-0.071
Mof_H 	H 	0.1687	0.4426	0.6242	0.056
Mof_C 	C 	0.178	0.485	0.6918	-0.078
Mof_H 	H 	0.1855	0.5176	0.6751	0.058
Mof_N 	N 	0.198	0.6107	0.8018	-0.149
Mof_N 	N 	0.1841	0.527	0.7771	-0.144
Mof_C 	C 	0.2379	0.689	0.9234	0.093
Mof_H 	H 	0.2737	0.6864	0.9126	-0.006
Mof_C 	C 	0.1574	0.696	0.9243	-0.008
Mof_H 	H 	0.1217	0.701	0.9142	0.035
Mof_C 	C 	0.1715	0.6866	0.9723	0.019
Mof_H 	H 	0.1487	0.6824	0.0016	0.022
Mof_C 	C 	0.2536	0.677	0.0182	0.093
Mof_C 	C 	0.2292	0.6659	0.0659	-0.077
Mof_H 	H 	0.1918	0.6652	0.0681	0.056
Mof_C 	C 	0.2593	0.6559	0.1105	-0.07
Mof_H 	H 	0.2426	0.6483	0.1431	0.058
Mof_C 	C 	0.314	0.6569	0.1073	0.078
Mof_C 	C 	0.3384	0.668	0.0596	-0.071
Mof_H 	H 	0.3758	0.6687	0.0574	0.056
Mof_C 	C 	0.3082	0.678	0.015	-0.078
Mof_H 	H 	0.3249	0.6855	0.9824	0.058
Mof_N 	N 	0.1982	0.698	0.8893	-0.149
Mof_N 	N 	0.2229	0.6841	0.973	-0.144
Mof_C 	C 	0.7379	0.811	0.0766	0.093
Mof_H 	H 	0.7737	0.8136	0.0874	-0.006
Mof_C 	C 	0.6574	0.804	0.0757	-0.008
Mof_H 	H 	0.6217	0.799	0.0858	0.035
Mof_C 	C 	0.6715	0.8134	0.0277	0.019
Mof_H 	H 	0.6487	0.8176	0.9984	0.022
Mof_C 	C 	0.7536	0.823	0.9818	0.093
Mof_C 	C 	0.7292	0.8341	0.9341	-0.077
Mof_H 	H 	0.6918	0.8348	0.9319	0.056
Mof_C 	C 	0.7593	0.8441	0.8895	-0.07
Mof_H 	H 	0.7426	0.8517	0.8569	0.058
Mof_C 	C 	0.814	0.8431	0.8927	0.078
Mof_C 	C 	0.8384	0.832	0.9404	-0.071
Mof_H 	H 	0.8758	0.8313	0.9426	0.056
Mof_C 	C 	0.8082	0.822	0.985	-0.078
Mof_H 	H 	0.8249	0.8145	0.0176	0.058
Mof_N 	N 	0.6982	0.802	0.1107	-0.149
Mof_N 	N 	0.7229	0.8159	0.027	-0.144
Mof_C 	C 	0.2621	0.311	0.4234	0.093
Mof_H 	H 	0.2263	0.3136	0.4126	-0.006
Mof_C 	C 	0.3426	0.304	0.4243	-0.008
Mof_H 	H 	0.3783	0.299	0.4142	0.035
Mof_C 	C 	0.3285	0.3134	0.4723	0.019
Mof_H 	H 	0.3513	0.3176	0.5016	0.022
Mof_C 	C 	0.2464	0.323	0.5182	0.093
Mof_C 	C 	0.2708	0.3341	0.5659	-0.077
Mof_H 	H 	0.3082	0.3348	0.5681	0.056
Mof_C 	C 	0.2407	0.3441	0.6105	-0.07
Mof_H 	H 	0.2574	0.3517	0.6431	0.058
Mof_C 	C 	0.186	0.3431	0.6073	0.078
Mof_C 	C 	0.1616	0.332	0.5596	-0.071
Mof_H 	H 	0.1242	0.3313	0.5574	0.056
Mof_C 	C 	0.1918	0.322	0.515	-0.078
Mof_H 	H 	0.1751	0.3145	0.4824	0.058
Mof_N 	N 	0.3018	0.302	0.3893	-0.149
Mof_N 	N 	0.2771	0.3159	0.473	-0.144
Mof_C 	C 	0.7621	0.189	0.5766	0.093
Mof_H 	H 	0.7263	0.1864	0.5874	-0.006
Mof_C 	C 	0.8426	0.196	0.5757	-0.008
Mof_H 	H 	0.8783	0.201	0.5858	0.035
Mof_C 	C 	0.8285	0.1866	0.5277	0.019
Mof_H 	H 	0.8513	0.1824	0.4984	0.022
Mof_C 	C 	0.7464	0.177	0.4818	0.093
Mof_C 	C 	0.7708	0.1659	0.4341	-0.077
Mof_H 	H 	0.8082	0.1652	0.4319	0.056
Mof_C 	C 	0.7407	0.1559	0.3895	-0.07
Mof_H 	H 	0.7574	0.1483	0.3569	0.058
Mof_C 	C 	0.686	0.1569	0.3927	0.078
Mof_C 	C 	0.6616	0.168	0.4404	-0.071
Mof_H 	H 	0.6242	0.1687	0.4426	0.056
Mof_C 	C 	0.6918	0.178	0.485	-0.078
Mof_H 	H 	0.6751	0.1855	0.5176	0.058
Mof_N 	N 	0.8018	0.198	0.6107	-0.149
Mof_N 	N 	0.7771	0.1841	0.527	-0.144
Mof_C 	C 	0.9234	0.2379	0.689	0.093
Mof_H 	H 	0.9126	0.2737	0.6864	-0.006
Mof_C 	C 	0.9243	0.1574	0.696	-0.008
Mof_H 	H 	0.9142	0.1217	0.701	0.035
Mof_C 	C 	0.9723	0.1715	0.6866	0.019
Mof_H 	H 	0.0016	0.1487	0.6824	0.022
Mof_C 	C 	0.0182	0.2536	0.677	0.093
Mof_C 	C 	0.0659	0.2292	0.6659	-0.077
Mof_H 	H 	0.0681	0.1918	0.6652	0.056
Mof_C 	C 	0.1105	0.2593	0.6559	-0.07
Mof_H 	H 	0.1431	0.2426	0.6483	0.058
Mof_C 	C 	0.1073	0.314	0.6569	0.078
Mof_C 	C 	0.0596	0.3384	0.668	-0.071
Mof_H 	H 	0.0574	0.3758	0.6687	0.056
Mof_C 	C 	0.015	0.3082	0.678	-0.078
Mof_H 	H 	0.9824	0.3249	0.6855	0.058
Mof_N 	N 	0.8893	0.1982	0.698	-0.149
Mof_N 	N 	0.973	0.2229	0.6841	-0.144
Mof_C 	C 	0.0766	0.7379	0.811	0.093
Mof_H 	H 	0.0874	0.7737	0.8136	-0.006
Mof_C 	C 	0.0757	0.6574	0.804	-0.008
Mof_H 	H 	0.0858	0.6217	0.799	0.035
Mof_C 	C 	0.0277	0.6715	0.8134	0.019
Mof_H 	H 	0.9984	0.6487	0.8176	0.022
Mof_C 	C 	0.9818	0.7536	0.823	0.093
Mof_C 	C 	0.9341	0.7292	0.8341	-0.077
Mof_H 	H 	0.9319	0.6918	0.8348	0.056
Mof_C 	C 	0.8895	0.7593	0.8441	-0.07
Mof_H 	H 	0.8569	0.7426	0.8517	0.058
Mof_C 	C 	0.8927	0.814	0.8431	0.078
Mof_C 	C 	0.9404	0.8384	0.832	-0.071
Mof_H 	H 	0.9426	0.8758	0.8313	0.056
Mof_C 	C 	0.985	0.8082	0.822	-0.078
Mof_H 	H 	0.0176	0.8249	0.8145	0.058
Mof_N 	N 	0.1107	0.6982	0.802	-0.149
Mof_N 	N 	0.027	0.7229	0.8159	-0.144
Mof_C 	C 	0.4234	0.2621	0.311	0.093
Mof_H 	H 	0.4126	0.2263	0.3136	-0.006
Mof_C 	C 	0.4243	0.3426	0.304	-0.008
Mof_H 	H 	0.4142	0.3783	0.299	0.035
Mof_C 	C 	0.4723	0.3285	0.3134	0.019
Mof_H 	H 	0.5016	0.3513	0.3176	0.022
Mof_C 	C 	0.5182	0.2464	0.323	0.093
Mof_C 	C 	0.5659	0.2708	0.3341	-0.077
Mof_H 	H 	0.5681	0.3082	0.3348	0.056
Mof_C 	C 	0.6105	0.2407	0.3441	-0.07
Mof_H 	H 	0.6431	0.2574	0.3517	0.058
Mof_C 	C 	0.6073	0.186	0.3431	0.078
Mof_C 	C 	0.5596	0.1616	0.332	-0.071
Mof_H 	H 	0.5574	0.1242	0.3313	0.056
Mof_C 	C 	0.515	0.1918	0.322	-0.078
Mof_H 	H 	0.4824	0.1751	0.3145	0.058
Mof_N 	N 	0.3893	0.3018	0.302	-0.149
Mof_N 	N 	0.473	0.2771	0.3159	-0.144
Mof_C 	C 	0.5766	0.7621	0.189	0.093
Mof_H 	H 	0.5874	0.7263	0.1864	-0.006
Mof_C 	C 	0.5757	0.8426	0.196	-0.008
Mof_H 	H 	0.5858	0.8783	0.201	0.035
Mof_C 	C 	0.5277	0.8285	0.1866	0.019
Mof_H 	H 	0.4984	0.8513	0.1824	0.022
Mof_C 	C 	0.4818	0.7464	0.177	0.093
Mof_C 	C 	0.4341	0.7708	0.1659	-0.077
Mof_H 	H 	0.4319	0.8082	0.1652	0.056
Mof_C 	C 	0.3895	0.7407	0.1559	-0.07
Mof_H 	H 	0.3569	0.7574	0.1483	0.058
Mof_C 	C 	0.3927	0.686	0.1569	0.078
Mof_C 	C 	0.4404	0.6616	0.168	-0.071
Mof_H 	H 	0.4426	0.6242	0.1687	0.056
Mof_C 	C 	0.485	0.6918	0.178	-0.078
Mof_H 	H 	0.5176	0.6751	0.1855	0.058
Mof_N 	N 	0.6107	0.8018	0.198	-0.149
Mof_N 	N 	0.527	0.7771	0.1841	-0.144
Mof_Cd	Cd	0.29989	0.29989	0.29989	0.253
Mof_Cd	Cd	0.20011	0.70011	0.79989	0.253
Mof_Cd	Cd	0.79989	0.20011	0.70011	0.253
Mof_Cd	Cd	0.70011	0.79989	0.20011	0.253
Mof_N 	N 	0.8447	0.8447	0.8447	-0.144
Mof_N 	N 	0.1553	0.3447	0.6553	-0.144
Mof_N 	N 	0.6553	0.1553	0.3447	-0.144
Mof_N 	N 	0.3447	0.6553	0.1553	-0.144
_end
