data_functionalizedCrystal
_audit_creation_method	'EQeq! by Chris Wilmer'
_symmetry_space_group_name_H-M	'P1'
_symmetry_Int_Tables_number	1
_symmetry_cell_setting	triclinic
loop_
_symmetry_equiv_pos_as_xyz
  x,y,z
_cell_length_a	21.944
_cell_length_b	21.944
_cell_length_c	9.58
_cell_angle_alpha	90
_cell_angle_beta	90
_cell_angle_gamma	90
loop_
_atom_site_label
_atom_site_type_symbol
_atom_site_fract_x
_atom_site_fract_y
_atom_site_fract_z
_atom_site_charge
Mof_O 	O 	0.8497	0.7467	0.3875	-0.442
Mof_O 	O 	0.17	0.7564	0.618	-0.413
Mof_C 	C 	0.0372	0.7136	0.602	0.026
Mof_C 	C 	0.0329	0.7949	0.412	0.113
Mof_C 	C 	0.9827	0.7139	0.606	0.05
Mof_C 	C 	0.9761	0.7897	0.427	0.131
Mof_Cl	Cl	0.072	0.843	0.278	-0.161
Mof_C 	C 	0.787	0.797	0.093	0.064
Mof_C 	C 	0.733	0.819	0.075	0.011
Mof_C 	C 	0.7761	0.6728	0.101	0.026
Mof_Cl	Cl	0.947	0.842	0.32	-0.183
Mof_O 	O 	0.1503	0.2533	0.3875	-0.442
Mof_O 	O 	0.83	0.2436	0.618	-0.413
Mof_C 	C 	0.9628	0.2864	0.602	0.026
Mof_C 	C 	0.9671	0.2051	0.412	0.113
Mof_C 	C 	0.0173	0.2861	0.606	0.05
Mof_C 	C 	0.0239	0.2103	0.427	0.132
Mof_Cl	Cl	0.928	0.157	0.278	-0.16
Mof_C 	C 	0.213	0.203	0.093	0.065
Mof_C 	C 	0.267	0.181	0.075	0.012
Mof_C 	C 	0.2239	0.3272	0.101	0.027
Mof_Cl	Cl	0.053	0.158	0.32	-0.182
Mof_O 	O 	0.2533	0.8497	0.3875	-0.441
Mof_O 	O 	0.2436	0.17	0.618	-0.412
Mof_C 	C 	0.2864	0.0372	0.602	0.027
Mof_C 	C 	0.2051	0.0329	0.412	0.114
Mof_C 	C 	0.2861	0.9827	0.606	0.051
Mof_C 	C 	0.2103	0.9761	0.427	0.132
Mof_Cl	Cl	0.157	0.072	0.278	-0.16
Mof_C 	C 	0.203	0.787	0.093	0.065
Mof_C 	C 	0.181	0.733	0.075	0.012
Mof_C 	C 	0.3272	0.7761	0.101	0.027
Mof_Cl	Cl	0.158	0.947	0.32	-0.182
Mof_O 	O 	0.7467	0.1503	0.3875	-0.441
Mof_O 	O 	0.7564	0.83	0.618	-0.412
Mof_C 	C 	0.7136	0.9628	0.602	0.027
Mof_C 	C 	0.7949	0.9671	0.412	0.114
Mof_C 	C 	0.7139	0.0173	0.606	0.051
Mof_C 	C 	0.7897	0.0239	0.427	0.132
Mof_Cl	Cl	0.843	0.928	0.278	-0.16
Mof_C 	C 	0.797	0.213	0.093	0.065
Mof_C 	C 	0.819	0.267	0.075	0.012
Mof_C 	C 	0.6728	0.2239	0.101	0.027
Mof_Cl	Cl	0.842	0.053	0.32	-0.182
Mof_O 	O 	0.6503	0.2467	0.6125	-0.441
Mof_O 	O 	0.33	0.2564	0.382	-0.412
Mof_C 	C 	0.4628	0.2136	0.398	0.027
Mof_C 	C 	0.4671	0.2949	0.588	0.114
Mof_C 	C 	0.5173	0.2139	0.394	0.051
Mof_C 	C 	0.5239	0.2897	0.573	0.132
Mof_Cl	Cl	0.428	0.343	0.722	-0.16
Mof_C 	C 	0.713	0.297	0.907	0.065
Mof_C 	C 	0.767	0.319	0.925	0.012
Mof_C 	C 	0.7239	0.1728	0.899	0.027
Mof_Cl	Cl	0.553	0.342	0.68	-0.182
Mof_O 	O 	0.3497	0.7533	0.6125	-0.441
Mof_O 	O 	0.67	0.7436	0.382	-0.412
Mof_C 	C 	0.5372	0.7864	0.398	0.027
Mof_C 	C 	0.5329	0.7051	0.588	0.114
Mof_C 	C 	0.4827	0.7861	0.394	0.051
Mof_C 	C 	0.4761	0.7103	0.573	0.132
Mof_Cl	Cl	0.572	0.657	0.722	-0.16
Mof_C 	C 	0.287	0.703	0.907	0.065
Mof_C 	C 	0.233	0.681	0.925	0.012
Mof_C 	C 	0.2761	0.8272	0.899	0.027
Mof_Cl	Cl	0.447	0.658	0.68	-0.182
Mof_O 	O 	0.2467	0.3497	0.6125	-0.441
Mof_O 	O 	0.2564	0.67	0.382	-0.412
Mof_C 	C 	0.2136	0.5372	0.398	0.027
Mof_C 	C 	0.2949	0.5329	0.588	0.114
Mof_C 	C 	0.2139	0.4827	0.394	0.051
Mof_C 	C 	0.2897	0.4761	0.573	0.132
Mof_Cl	Cl	0.343	0.572	0.722	-0.16
Mof_C 	C 	0.297	0.287	0.907	0.065
Mof_C 	C 	0.319	0.233	0.925	0.012
Mof_C 	C 	0.1728	0.2761	0.899	0.027
Mof_Cl	Cl	0.342	0.447	0.68	-0.182
Mof_O 	O 	0.7533	0.6503	0.6125	-0.441
Mof_O 	O 	0.7436	0.33	0.382	-0.412
Mof_C 	C 	0.7864	0.4628	0.398	0.027
Mof_C 	C 	0.7051	0.4671	0.588	0.114
Mof_C 	C 	0.7861	0.5173	0.394	0.051
Mof_C 	C 	0.7103	0.5239	0.573	0.132
Mof_Cl	Cl	0.657	0.428	0.722	-0.16
Mof_C 	C 	0.703	0.713	0.907	0.065
Mof_C 	C 	0.681	0.767	0.925	0.012
Mof_C 	C 	0.8272	0.7239	0.899	0.027
Mof_Cl	Cl	0.658	0.553	0.68	-0.182
Mof_O 	O 	0.1503	0.2533	0.6125	-0.441
Mof_O 	O 	0.83	0.2436	0.382	-0.412
Mof_C 	C 	0.9628	0.2864	0.398	0.027
Mof_C 	C 	0.9671	0.2051	0.588	0.114
Mof_C 	C 	0.0173	0.2861	0.394	0.051
Mof_C 	C 	0.0239	0.2103	0.573	0.132
Mof_Cl	Cl	0.928	0.157	0.722	-0.16
Mof_C 	C 	0.213	0.203	0.907	0.065
Mof_C 	C 	0.267	0.181	0.925	0.012
Mof_C 	C 	0.2239	0.3272	0.899	0.027
Mof_Cl	Cl	0.053	0.158	0.68	-0.182
Mof_O 	O 	0.8497	0.7467	0.6125	-0.441
Mof_O 	O 	0.17	0.7564	0.382	-0.412
Mof_C 	C 	0.0372	0.7136	0.398	0.027
Mof_C 	C 	0.0329	0.7949	0.588	0.114
Mof_C 	C 	0.9827	0.7139	0.394	0.051
Mof_C 	C 	0.9761	0.7897	0.573	0.132
Mof_Cl	Cl	0.072	0.843	0.722	-0.16
Mof_C 	C 	0.787	0.797	0.907	0.065
Mof_C 	C 	0.733	0.819	0.925	0.012
Mof_C 	C 	0.7761	0.6728	0.899	0.027
Mof_Cl	Cl	0.947	0.842	0.68	-0.182
Mof_O 	O 	0.7467	0.1503	0.6125	-0.441
Mof_O 	O 	0.7564	0.83	0.382	-0.412
Mof_C 	C 	0.7136	0.9628	0.398	0.027
Mof_C 	C 	0.7949	0.9671	0.588	0.114
Mof_C 	C 	0.7139	0.0173	0.394	0.051
Mof_C 	C 	0.7897	0.0239	0.573	0.132
Mof_Cl	Cl	0.843	0.928	0.722	-0.16
Mof_C 	C 	0.797	0.213	0.907	0.065
Mof_C 	C 	0.819	0.267	0.925	0.012
Mof_C 	C 	0.6728	0.2239	0.899	0.027
Mof_Cl	Cl	0.842	0.053	0.68	-0.182
Mof_O 	O 	0.2533	0.8497	0.6125	-0.441
Mof_O 	O 	0.2436	0.17	0.382	-0.412
Mof_C 	C 	0.2864	0.0372	0.398	0.027
Mof_C 	C 	0.2051	0.0329	0.588	0.114
Mof_C 	C 	0.2861	0.9827	0.394	0.051
Mof_C 	C 	0.2103	0.9761	0.573	0.132
Mof_Cl	Cl	0.157	0.072	0.722	-0.16
Mof_C 	C 	0.203	0.787	0.907	0.065
Mof_C 	C 	0.181	0.733	0.925	0.012
Mof_C 	C 	0.3272	0.7761	0.899	0.027
Mof_Cl	Cl	0.158	0.947	0.68	-0.182
Mof_O 	O 	0.3497	0.7533	0.3875	-0.441
Mof_O 	O 	0.67	0.7436	0.618	-0.412
Mof_C 	C 	0.5372	0.7864	0.602	0.027
Mof_C 	C 	0.5329	0.7051	0.412	0.114
Mof_C 	C 	0.4827	0.7861	0.606	0.051
Mof_C 	C 	0.4761	0.7103	0.427	0.132
Mof_Cl	Cl	0.572	0.657	0.278	-0.16
Mof_C 	C 	0.287	0.703	0.093	0.065
Mof_C 	C 	0.233	0.681	0.075	0.012
Mof_C 	C 	0.2761	0.8272	0.101	0.027
Mof_Cl	Cl	0.447	0.658	0.32	-0.182
Mof_O 	O 	0.6503	0.2467	0.3875	-0.441
Mof_O 	O 	0.33	0.2564	0.618	-0.412
Mof_C 	C 	0.4628	0.2136	0.602	0.027
Mof_C 	C 	0.4671	0.2949	0.412	0.114
Mof_C 	C 	0.5173	0.2139	0.606	0.051
Mof_C 	C 	0.5239	0.2897	0.427	0.132
Mof_Cl	Cl	0.428	0.343	0.278	-0.16
Mof_C 	C 	0.713	0.297	0.093	0.065
Mof_C 	C 	0.767	0.319	0.075	0.012
Mof_C 	C 	0.7239	0.1728	0.101	0.027
Mof_Cl	Cl	0.553	0.342	0.32	-0.182
Mof_O 	O 	0.7533	0.6503	0.3875	-0.441
Mof_O 	O 	0.7436	0.33	0.618	-0.412
Mof_C 	C 	0.7864	0.4628	0.602	0.027
Mof_C 	C 	0.7051	0.4671	0.412	0.114
Mof_C 	C 	0.7861	0.5173	0.606	0.051
Mof_C 	C 	0.7103	0.5239	0.427	0.132
Mof_Cl	Cl	0.657	0.428	0.278	-0.16
Mof_C 	C 	0.703	0.713	0.093	0.065
Mof_C 	C 	0.681	0.767	0.075	0.012
Mof_C 	C 	0.8272	0.7239	0.101	0.027
Mof_Cl	Cl	0.658	0.553	0.32	-0.182
Mof_O 	O 	0.2467	0.3497	0.3875	-0.441
Mof_O 	O 	0.2564	0.67	0.618	-0.412
Mof_C 	C 	0.2136	0.5372	0.602	0.027
Mof_C 	C 	0.2949	0.5329	0.412	0.114
Mof_C 	C 	0.2139	0.4827	0.606	0.051
Mof_C 	C 	0.2897	0.4761	0.427	0.132
Mof_Cl	Cl	0.343	0.572	0.278	-0.16
Mof_C 	C 	0.297	0.287	0.093	0.065
Mof_C 	C 	0.319	0.233	0.075	0.012
Mof_C 	C 	0.1728	0.2761	0.101	0.027
Mof_Cl	Cl	0.342	0.447	0.32	-0.182
Mof_Zn	Zn	0.75739	0.74261	0.349	1.225
Mof_N 	N 	0.7576	0.7424	0.13	-0.219
Mof_Zn	Zn	0.24261	0.25739	0.349	1.225
Mof_N 	N 	0.2424	0.2576	0.13	-0.219
Mof_Zn	Zn	0.25739	0.75739	0.349	1.225
Mof_N 	N 	0.2576	0.7576	0.13	-0.219
Mof_Zn	Zn	0.74261	0.24261	0.349	1.225
Mof_N 	N 	0.7424	0.2424	0.13	-0.219
Mof_Zn	Zn	0.74261	0.24261	0.651	1.225
Mof_N 	N 	0.7424	0.2424	0.87	-0.219
Mof_Zn	Zn	0.25739	0.75739	0.651	1.225
Mof_N 	N 	0.2576	0.7576	0.87	-0.219
Mof_Zn	Zn	0.24261	0.25739	0.651	1.225
Mof_N 	N 	0.2424	0.2576	0.87	-0.219
Mof_Zn	Zn	0.75739	0.74261	0.651	1.225
Mof_N 	N 	0.7576	0.7424	0.87	-0.219
Mof_C 	C 	0.1367	0.7595	0.5	0.39
Mof_C 	C 	0.8783	0.7553	0.5	0.507
Mof_C 	C 	0.9397	0.7505	0.5	-0.221
Mof_C 	C 	0.0748	0.7577	0.5	-0.146
Mof_C 	C 	0.8633	0.2405	0.5	0.39
Mof_C 	C 	0.1217	0.2447	0.5	0.507
Mof_C 	C 	0.0603	0.2495	0.5	-0.221
Mof_C 	C 	0.9252	0.2423	0.5	-0.146
Mof_C 	C 	0.2405	0.1367	0.5	0.39
Mof_C 	C 	0.2447	0.8783	0.5	0.507
Mof_C 	C 	0.2495	0.9397	0.5	-0.221
Mof_C 	C 	0.2423	0.0748	0.5	-0.146
Mof_C 	C 	0.7595	0.8633	0.5	0.39
Mof_C 	C 	0.7553	0.1217	0.5	0.507
Mof_C 	C 	0.7505	0.0603	0.5	-0.221
Mof_C 	C 	0.7577	0.9252	0.5	-0.146
Mof_C 	C 	0.3633	0.2595	0.5	0.39
Mof_C 	C 	0.6217	0.2553	0.5	0.507
Mof_C 	C 	0.5603	0.2505	0.5	-0.221
Mof_C 	C 	0.4252	0.2577	0.5	-0.146
Mof_C 	C 	0.6367	0.7405	0.5	0.39
Mof_C 	C 	0.3783	0.7447	0.5	0.507
Mof_C 	C 	0.4397	0.7495	0.5	-0.221
Mof_C 	C 	0.5748	0.7423	0.5	-0.146
Mof_C 	C 	0.2595	0.6367	0.5	0.39
Mof_C 	C 	0.2553	0.3783	0.5	0.507
Mof_C 	C 	0.2505	0.4397	0.5	-0.221
Mof_C 	C 	0.2577	0.5748	0.5	-0.146
Mof_C 	C 	0.7405	0.3633	0.5	0.39
Mof_C 	C 	0.7447	0.6217	0.5	0.507
Mof_C 	C 	0.7495	0.5603	0.5	-0.221
Mof_C 	C 	0.7423	0.4252	0.5	-0.146
_end
