data_functionalizedCrystal
_audit_creation_method	'EQeq! by Chris Wilmer'
_symmetry_space_group_name_H-M	'P1'
_symmetry_Int_Tables_number	1
_symmetry_cell_setting	triclinic
loop_
_symmetry_equiv_pos_as_xyz
  x,y,z
_cell_length_a	49.92
_cell_length_b	49.92
_cell_length_c	16.195
_cell_angle_alpha	90
_cell_angle_beta	90
_cell_angle_gamma	120
loop_
_atom_site_label
_atom_site_type_symbol
_atom_site_fract_x
_atom_site_fract_y
_atom_site_fract_z
_atom_site_charge
Mof_O 	O 	0.51681	0.08157	0.07241	-0.639
Mof_O 	O 	0.47708	0.04667	0.14781	-0.68
Mof_C 	C 	0.49728	0.07573	0.13295	0.503
Mof_C 	C 	0.49915	0.10284	0.18222	-0.144
Mof_C 	C 	0.47376	0.09887	0.2275	0.069
Mof_C 	C 	0.47545	0.12346	0.27218	-0.101
Mof_C 	C 	0.50223	0.15226	0.27269	0.061
Mof_C 	C 	0.52793	0.15597	0.22628	-0.101
Mof_C 	C 	0.52623	0.13139	0.18161	0.066
Mof_C 	C 	0.50336	0.17834	0.3215	-0.009
Mof_C 	C 	0.47618	0.17852	0.33902	-0.027
Mof_C 	C 	0.47722	0.20269	0.38425	-0.063
Mof_C 	C 	0.50541	0.2267	0.41202	0.036
Mof_C 	C 	0.53261	0.2265	0.39446	-0.062
Mof_C 	C 	0.53157	0.20233	0.34922	-0.027
Mof_H 	H 	0.45427	0.07834	0.22794	0.016
Mof_H 	H 	0.45718	0.1206	0.30475	0.065
Mof_H 	H 	0.54752	0.17642	0.22545	0.06
Mof_H 	H 	0.5445	0.13425	0.14903	0.031
Mof_H 	H 	0.45589	0.16126	0.31907	0.034
Mof_H 	H 	0.45766	0.20279	0.39681	0.046
Mof_H 	H 	0.55291	0.24375	0.41438	0.048
Mof_H 	H 	0.55112	0.2022	0.33662	0.04
Mof_F 	F 	0.49852	0.02672	0.39491	-0.258
Mof_O 	O 	0.91843	0.43524	0.07241	-0.64
Mof_O 	O 	0.95333	0.43041	0.14781	-0.676
Mof_C 	C 	0.92427	0.42155	0.13295	0.501
Mof_C 	C 	0.89716	0.39631	0.18222	-0.144
Mof_C 	C 	0.90113	0.37489	0.2275	0.068
Mof_C 	C 	0.87654	0.35199	0.27218	-0.101
Mof_C 	C 	0.84774	0.34997	0.27269	0.06
Mof_C 	C 	0.84403	0.37196	0.22628	-0.101
Mof_C 	C 	0.86861	0.39484	0.18161	0.065
Mof_C 	C 	0.82166	0.32502	0.3215	-0.01
Mof_C 	C 	0.82148	0.29766	0.33902	-0.028
Mof_C 	C 	0.79731	0.27453	0.38425	-0.063
Mof_C 	C 	0.7733	0.27871	0.41202	0.036
Mof_C 	C 	0.7735	0.30611	0.39446	-0.061
Mof_C 	C 	0.79767	0.32924	0.34922	-0.027
Mof_H 	H 	0.92166	0.37593	0.22794	0.018
Mof_H 	H 	0.8794	0.33658	0.30475	0.066
Mof_H 	H 	0.82358	0.3711	0.22545	0.06
Mof_H 	H 	0.86575	0.41025	0.14903	0.031
Mof_H 	H 	0.83874	0.29463	0.31907	0.035
Mof_H 	H 	0.79721	0.25487	0.39681	0.047
Mof_H 	H 	0.75625	0.30916	0.41438	0.048
Mof_H 	H 	0.7978	0.34892	0.33662	0.04
Mof_F 	F 	0.97328	0.4718	0.39491	-0.252
Mof_O 	O 	0.56476	0.48319	0.07241	-0.64
Mof_O 	O 	0.56959	0.52292	0.14781	-0.679
Mof_C 	C 	0.57845	0.50272	0.13295	0.501
Mof_C 	C 	0.60369	0.50085	0.18222	-0.144
Mof_C 	C 	0.62511	0.52624	0.2275	0.068
Mof_C 	C 	0.64801	0.52455	0.27218	-0.102
Mof_C 	C 	0.65003	0.49777	0.27269	0.06
Mof_C 	C 	0.62804	0.47207	0.22628	-0.102
Mof_C 	C 	0.60516	0.47377	0.18161	0.065
Mof_C 	C 	0.67498	0.49664	0.3215	-0.01
Mof_C 	C 	0.70234	0.52382	0.33902	-0.028
Mof_C 	C 	0.72547	0.52278	0.38425	-0.063
Mof_C 	C 	0.72129	0.49459	0.41202	0.036
Mof_C 	C 	0.69389	0.46739	0.39446	-0.062
Mof_C 	C 	0.67076	0.46843	0.34922	-0.027
Mof_H 	H 	0.62407	0.54573	0.22794	0.017
Mof_H 	H 	0.66342	0.54282	0.30475	0.065
Mof_H 	H 	0.6289	0.45248	0.22545	0.06
Mof_H 	H 	0.58975	0.4555	0.14903	0.031
Mof_H 	H 	0.70537	0.54411	0.31907	0.035
Mof_H 	H 	0.74513	0.54234	0.39681	0.047
Mof_H 	H 	0.69084	0.44709	0.41438	0.048
Mof_H 	H 	0.65108	0.44888	0.33662	0.04
Mof_F 	F 	0.5282	0.50148	0.39491	-0.258
Mof_O 	O 	0.48319	0.91843	0.07241	-0.64
Mof_O 	O 	0.52292	0.95333	0.14781	-0.676
Mof_C 	C 	0.50272	0.92427	0.13295	0.501
Mof_C 	C 	0.50085	0.89716	0.18222	-0.143
Mof_C 	C 	0.52624	0.90113	0.2275	0.068
Mof_C 	C 	0.52455	0.87654	0.27218	-0.101
Mof_C 	C 	0.49777	0.84774	0.27269	0.06
Mof_C 	C 	0.47207	0.84403	0.22628	-0.101
Mof_C 	C 	0.47377	0.86861	0.18161	0.065
Mof_C 	C 	0.49664	0.82166	0.3215	-0.01
Mof_C 	C 	0.52382	0.82148	0.33902	-0.028
Mof_C 	C 	0.52278	0.79731	0.38425	-0.063
Mof_C 	C 	0.49459	0.7733	0.41202	0.036
Mof_C 	C 	0.46739	0.7735	0.39446	-0.061
Mof_C 	C 	0.46843	0.79767	0.34922	-0.027
Mof_H 	H 	0.54573	0.92166	0.22794	0.018
Mof_H 	H 	0.54282	0.8794	0.30475	0.066
Mof_H 	H 	0.45248	0.82358	0.22545	0.06
Mof_H 	H 	0.4555	0.86575	0.14903	0.031
Mof_H 	H 	0.54411	0.83874	0.31907	0.035
Mof_H 	H 	0.54234	0.79721	0.39681	0.047
Mof_H 	H 	0.44709	0.75625	0.41438	0.048
Mof_H 	H 	0.44888	0.7978	0.33662	0.04
Mof_F 	F 	0.50148	0.97328	0.39491	-0.252
Mof_O 	O 	0.08157	0.56476	0.07241	-0.64
Mof_O 	O 	0.04667	0.56959	0.14781	-0.681
Mof_C 	C 	0.07573	0.57845	0.13295	0.502
Mof_C 	C 	0.10284	0.60369	0.18222	-0.145
Mof_C 	C 	0.09887	0.62511	0.2275	0.068
Mof_C 	C 	0.12346	0.64801	0.27218	-0.102
Mof_C 	C 	0.15226	0.65003	0.27269	0.06
Mof_C 	C 	0.15597	0.62804	0.22628	-0.102
Mof_C 	C 	0.13139	0.60516	0.18161	0.065
Mof_C 	C 	0.17834	0.67498	0.3215	-0.01
Mof_C 	C 	0.17852	0.70234	0.33902	-0.028
Mof_C 	C 	0.20269	0.72547	0.38425	-0.063
Mof_C 	C 	0.2267	0.72129	0.41202	0.036
Mof_C 	C 	0.2265	0.69389	0.39446	-0.062
Mof_C 	C 	0.20233	0.67076	0.34922	-0.027
Mof_H 	H 	0.07834	0.62407	0.22794	0.016
Mof_H 	H 	0.1206	0.66342	0.30475	0.065
Mof_H 	H 	0.17642	0.6289	0.22545	0.06
Mof_H 	H 	0.13425	0.58975	0.14903	0.031
Mof_H 	H 	0.16126	0.70537	0.31907	0.035
Mof_H 	H 	0.20279	0.74513	0.39681	0.047
Mof_H 	H 	0.24375	0.69084	0.41438	0.048
Mof_H 	H 	0.2022	0.65108	0.33662	0.04
Mof_F 	F 	0.02672	0.5282	0.39491	-0.258
Mof_O 	O 	0.43524	0.51681	0.07241	-0.64
Mof_O 	O 	0.43041	0.47708	0.14781	-0.68
Mof_C 	C 	0.42155	0.49728	0.13295	0.501
Mof_C 	C 	0.39631	0.49915	0.18222	-0.144
Mof_C 	C 	0.37489	0.47376	0.2275	0.068
Mof_C 	C 	0.35199	0.47545	0.27218	-0.102
Mof_C 	C 	0.34997	0.50223	0.27269	0.06
Mof_C 	C 	0.37196	0.52793	0.22628	-0.102
Mof_C 	C 	0.39484	0.52623	0.18161	0.065
Mof_C 	C 	0.32502	0.50336	0.3215	-0.01
Mof_C 	C 	0.29766	0.47618	0.33902	-0.028
Mof_C 	C 	0.27453	0.47722	0.38425	-0.063
Mof_C 	C 	0.27871	0.50541	0.41202	0.036
Mof_C 	C 	0.30611	0.53261	0.39446	-0.062
Mof_C 	C 	0.32924	0.53157	0.34922	-0.027
Mof_H 	H 	0.37593	0.45427	0.22794	0.016
Mof_H 	H 	0.33658	0.45718	0.30475	0.065
Mof_H 	H 	0.3711	0.54752	0.22545	0.06
Mof_H 	H 	0.41025	0.5445	0.14903	0.031
Mof_H 	H 	0.29463	0.45589	0.31907	0.034
Mof_H 	H 	0.25487	0.45766	0.39681	0.046
Mof_H 	H 	0.30916	0.55291	0.41438	0.048
Mof_H 	H 	0.34892	0.55112	0.33662	0.04
Mof_F 	F 	0.4718	0.49852	0.39491	-0.258
Mof_O 	O 	0.08157	0.51681	0.92759	-0.617
Mof_O 	O 	0.04667	0.47708	0.85219	-0.671
Mof_C 	C 	0.07573	0.49728	0.86705	0.5
Mof_C 	C 	0.10284	0.49915	0.81778	-0.137
Mof_C 	C 	0.09887	0.47376	0.7725	0.068
Mof_C 	C 	0.12346	0.47545	0.72782	-0.099
Mof_C 	C 	0.15226	0.50223	0.72731	0.061
Mof_C 	C 	0.15597	0.52793	0.77372	-0.097
Mof_C 	C 	0.13139	0.52623	0.81839	0.066
Mof_C 	C 	0.17834	0.50336	0.6785	-0.007
Mof_C 	C 	0.17852	0.47618	0.66098	-0.027
Mof_C 	C 	0.20269	0.47722	0.61575	-0.061
Mof_C 	C 	0.2267	0.50541	0.58798	0.036
Mof_C 	C 	0.2265	0.53261	0.60554	-0.06
Mof_C 	C 	0.20233	0.53157	0.65078	-0.027
Mof_H 	H 	0.07834	0.45427	0.77206	0.021
Mof_H 	H 	0.1206	0.45718	0.69525	0.066
Mof_H 	H 	0.17642	0.54752	0.77455	0.064
Mof_H 	H 	0.13425	0.5445	0.85097	0.037
Mof_H 	H 	0.16126	0.45589	0.68093	0.038
Mof_H 	H 	0.20279	0.45766	0.60319	0.048
Mof_H 	H 	0.24375	0.55291	0.58562	0.049
Mof_H 	H 	0.2022	0.55112	0.66338	0.042
Mof_F 	F 	0.02672	0.49852	0.60509	-0.258
Mof_O 	O 	0.43524	0.91843	0.92759	-0.617
Mof_O 	O 	0.43041	0.95333	0.85219	-0.667
Mof_C 	C 	0.42155	0.92427	0.86705	0.5
Mof_C 	C 	0.39631	0.89716	0.81778	-0.136
Mof_C 	C 	0.37489	0.90113	0.7725	0.068
Mof_C 	C 	0.35199	0.87654	0.72782	-0.098
Mof_C 	C 	0.34997	0.84774	0.72731	0.061
Mof_C 	C 	0.37196	0.84403	0.77372	-0.097
Mof_C 	C 	0.39484	0.86861	0.81839	0.065
Mof_C 	C 	0.32502	0.82166	0.6785	-0.007
Mof_C 	C 	0.29766	0.82148	0.66098	-0.027
Mof_C 	C 	0.27453	0.79731	0.61575	-0.06
Mof_C 	C 	0.27871	0.7733	0.58798	0.036
Mof_C 	C 	0.30611	0.7735	0.60554	-0.059
Mof_C 	C 	0.32924	0.79767	0.65078	-0.027
Mof_H 	H 	0.37593	0.92166	0.77206	0.023
Mof_H 	H 	0.33658	0.8794	0.69525	0.067
Mof_H 	H 	0.3711	0.82358	0.77455	0.064
Mof_H 	H 	0.41025	0.86575	0.85097	0.038
Mof_H 	H 	0.29463	0.83874	0.68093	0.039
Mof_H 	H 	0.25487	0.79721	0.60319	0.048
Mof_H 	H 	0.30916	0.75625	0.58562	0.049
Mof_H 	H 	0.34892	0.7978	0.66338	0.042
Mof_F 	F 	0.4718	0.97328	0.60509	-0.252
Mof_O 	O 	0.48319	0.56476	0.92759	-0.617
Mof_O 	O 	0.52292	0.56959	0.85219	-0.67
Mof_C 	C 	0.50272	0.57845	0.86705	0.5
Mof_C 	C 	0.50085	0.60369	0.81778	-0.137
Mof_C 	C 	0.52624	0.62511	0.7725	0.068
Mof_C 	C 	0.52455	0.64801	0.72782	-0.098
Mof_C 	C 	0.49777	0.65003	0.72731	0.061
Mof_C 	C 	0.47207	0.62804	0.77372	-0.097
Mof_C 	C 	0.47377	0.60516	0.81839	0.066
Mof_C 	C 	0.49664	0.67498	0.6785	-0.007
Mof_C 	C 	0.52382	0.70234	0.66098	-0.027
Mof_C 	C 	0.52278	0.72547	0.61575	-0.061
Mof_C 	C 	0.49459	0.72129	0.58798	0.036
Mof_C 	C 	0.46739	0.69389	0.60554	-0.059
Mof_C 	C 	0.46843	0.67076	0.65078	-0.027
Mof_H 	H 	0.54573	0.62407	0.77206	0.022
Mof_H 	H 	0.54282	0.66342	0.69525	0.067
Mof_H 	H 	0.45248	0.6289	0.77455	0.064
Mof_H 	H 	0.4555	0.58975	0.85097	0.037
Mof_H 	H 	0.54411	0.70537	0.68093	0.039
Mof_H 	H 	0.54234	0.74513	0.60319	0.048
Mof_H 	H 	0.44709	0.69084	0.58562	0.049
Mof_H 	H 	0.44888	0.65108	0.66338	0.042
Mof_F 	F 	0.50148	0.5282	0.60509	-0.258
Mof_O 	O 	0.91843	0.48319	0.92759	-0.617
Mof_O 	O 	0.95333	0.52292	0.85219	-0.667
Mof_C 	C 	0.92427	0.50272	0.86705	0.5
Mof_C 	C 	0.89716	0.50085	0.81778	-0.136
Mof_C 	C 	0.90113	0.52624	0.7725	0.068
Mof_C 	C 	0.87654	0.52455	0.72782	-0.098
Mof_C 	C 	0.84774	0.49777	0.72731	0.061
Mof_C 	C 	0.84403	0.47207	0.77372	-0.097
Mof_C 	C 	0.86861	0.47377	0.81839	0.065
Mof_C 	C 	0.82166	0.49664	0.6785	-0.007
Mof_C 	C 	0.82148	0.52382	0.66098	-0.027
Mof_C 	C 	0.79731	0.52278	0.61575	-0.06
Mof_C 	C 	0.7733	0.49459	0.58798	0.036
Mof_C 	C 	0.7735	0.46739	0.60554	-0.059
Mof_C 	C 	0.79767	0.46843	0.65078	-0.027
Mof_H 	H 	0.92166	0.54573	0.77206	0.023
Mof_H 	H 	0.8794	0.54282	0.69525	0.067
Mof_H 	H 	0.82358	0.45248	0.77455	0.064
Mof_H 	H 	0.86575	0.4555	0.85097	0.038
Mof_H 	H 	0.83874	0.54411	0.68093	0.039
Mof_H 	H 	0.79721	0.54234	0.60319	0.048
Mof_H 	H 	0.75625	0.44709	0.58562	0.049
Mof_H 	H 	0.7978	0.44888	0.66338	0.042
Mof_F 	F 	0.97328	0.50148	0.60509	-0.252
Mof_O 	O 	0.56476	0.08157	0.92759	-0.617
Mof_O 	O 	0.56959	0.04667	0.85219	-0.671
Mof_C 	C 	0.57845	0.07573	0.86705	0.5
Mof_C 	C 	0.60369	0.10284	0.81778	-0.137
Mof_C 	C 	0.62511	0.09887	0.7725	0.068
Mof_C 	C 	0.64801	0.12346	0.72782	-0.098
Mof_C 	C 	0.65003	0.15226	0.72731	0.061
Mof_C 	C 	0.62804	0.15597	0.77372	-0.097
Mof_C 	C 	0.60516	0.13139	0.81839	0.066
Mof_C 	C 	0.67498	0.17834	0.6785	-0.007
Mof_C 	C 	0.70234	0.17852	0.66098	-0.027
Mof_C 	C 	0.72547	0.20269	0.61575	-0.061
Mof_C 	C 	0.72129	0.2267	0.58798	0.036
Mof_C 	C 	0.69389	0.2265	0.60554	-0.06
Mof_C 	C 	0.67076	0.20233	0.65078	-0.026
Mof_H 	H 	0.62407	0.07834	0.77206	0.021
Mof_H 	H 	0.66342	0.1206	0.69525	0.066
Mof_H 	H 	0.6289	0.17642	0.77455	0.064
Mof_H 	H 	0.58975	0.13425	0.85097	0.037
Mof_H 	H 	0.70537	0.16126	0.68093	0.038
Mof_H 	H 	0.74513	0.20279	0.60319	0.048
Mof_H 	H 	0.69084	0.24375	0.58562	0.049
Mof_H 	H 	0.65108	0.2022	0.66338	0.042
Mof_F 	F 	0.5282	0.02672	0.60509	-0.258
Mof_O 	O 	0.51681	0.43524	0.92759	-0.617
Mof_O 	O 	0.47708	0.43041	0.85219	-0.67
Mof_C 	C 	0.49728	0.42155	0.86705	0.5
Mof_C 	C 	0.49915	0.39631	0.81778	-0.137
Mof_C 	C 	0.47376	0.37489	0.7725	0.068
Mof_C 	C 	0.47545	0.35199	0.72782	-0.098
Mof_C 	C 	0.50223	0.34997	0.72731	0.061
Mof_C 	C 	0.52793	0.37196	0.77372	-0.097
Mof_C 	C 	0.52623	0.39484	0.81839	0.066
Mof_C 	C 	0.50336	0.32502	0.6785	-0.007
Mof_C 	C 	0.47618	0.29766	0.66098	-0.027
Mof_C 	C 	0.47722	0.27453	0.61575	-0.061
Mof_C 	C 	0.50541	0.27871	0.58798	0.036
Mof_C 	C 	0.53261	0.30611	0.60554	-0.059
Mof_C 	C 	0.53157	0.32924	0.65078	-0.027
Mof_H 	H 	0.45427	0.37593	0.77206	0.021
Mof_H 	H 	0.45718	0.33658	0.69525	0.067
Mof_H 	H 	0.54752	0.3711	0.77455	0.064
Mof_H 	H 	0.5445	0.41025	0.85097	0.037
Mof_H 	H 	0.45589	0.29463	0.68093	0.038
Mof_H 	H 	0.45766	0.25487	0.60319	0.048
Mof_H 	H 	0.55291	0.30916	0.58562	0.049
Mof_H 	H 	0.55112	0.34892	0.66338	0.042
Mof_F 	F 	0.49852	0.4718	0.60509	-0.258
Mof_O 	O 	0.48319	0.91843	0.92759	-0.617
Mof_O 	O 	0.52292	0.95333	0.85219	-0.667
Mof_C 	C 	0.50272	0.92427	0.86705	0.5
Mof_C 	C 	0.50085	0.89716	0.81778	-0.136
Mof_C 	C 	0.52624	0.90113	0.7725	0.068
Mof_C 	C 	0.52455	0.87654	0.72782	-0.098
Mof_C 	C 	0.49777	0.84774	0.72731	0.061
Mof_C 	C 	0.47207	0.84403	0.77372	-0.097
Mof_C 	C 	0.47377	0.86861	0.81839	0.065
Mof_C 	C 	0.49664	0.82166	0.6785	-0.007
Mof_C 	C 	0.52382	0.82148	0.66098	-0.027
Mof_C 	C 	0.52278	0.79731	0.61575	-0.06
Mof_C 	C 	0.49459	0.7733	0.58798	0.036
Mof_C 	C 	0.46739	0.7735	0.60554	-0.059
Mof_C 	C 	0.46843	0.79767	0.65078	-0.027
Mof_H 	H 	0.54573	0.92166	0.77206	0.023
Mof_H 	H 	0.54282	0.8794	0.69525	0.067
Mof_H 	H 	0.45248	0.82358	0.77455	0.064
Mof_H 	H 	0.4555	0.86575	0.85097	0.038
Mof_H 	H 	0.54411	0.83874	0.68093	0.039
Mof_H 	H 	0.54234	0.79721	0.60319	0.048
Mof_H 	H 	0.44709	0.75625	0.58562	0.049
Mof_H 	H 	0.44888	0.7978	0.66338	0.042
Mof_F 	F 	0.50148	0.97328	0.60509	-0.252
Mof_O 	O 	0.08157	0.56476	0.92759	-0.617
Mof_O 	O 	0.04667	0.56959	0.85219	-0.671
Mof_C 	C 	0.07573	0.57845	0.86705	0.5
Mof_C 	C 	0.10284	0.60369	0.81778	-0.137
Mof_C 	C 	0.09887	0.62511	0.7725	0.068
Mof_C 	C 	0.12346	0.64801	0.72782	-0.098
Mof_C 	C 	0.15226	0.65003	0.72731	0.061
Mof_C 	C 	0.15597	0.62804	0.77372	-0.097
Mof_C 	C 	0.13139	0.60516	0.81839	0.066
Mof_C 	C 	0.17834	0.67498	0.6785	-0.007
Mof_C 	C 	0.17852	0.70234	0.66098	-0.027
Mof_C 	C 	0.20269	0.72547	0.61575	-0.061
Mof_C 	C 	0.2267	0.72129	0.58798	0.036
Mof_C 	C 	0.2265	0.69389	0.60554	-0.06
Mof_C 	C 	0.20233	0.67076	0.65078	-0.026
Mof_H 	H 	0.07834	0.62407	0.77206	0.021
Mof_H 	H 	0.1206	0.66342	0.69525	0.066
Mof_H 	H 	0.17642	0.6289	0.77455	0.064
Mof_H 	H 	0.13425	0.58975	0.85097	0.037
Mof_H 	H 	0.16126	0.70537	0.68093	0.038
Mof_H 	H 	0.20279	0.74513	0.60319	0.048
Mof_H 	H 	0.24375	0.69084	0.58562	0.049
Mof_H 	H 	0.2022	0.65108	0.66338	0.042
Mof_F 	F 	0.02672	0.5282	0.60509	-0.258
Mof_O 	O 	0.43524	0.51681	0.92759	-0.617
Mof_O 	O 	0.43041	0.47708	0.85219	-0.67
Mof_C 	C 	0.42155	0.49728	0.86705	0.5
Mof_C 	C 	0.39631	0.49915	0.81778	-0.137
Mof_C 	C 	0.37489	0.47376	0.7725	0.068
Mof_C 	C 	0.35199	0.47545	0.72782	-0.098
Mof_C 	C 	0.34997	0.50223	0.72731	0.061
Mof_C 	C 	0.37196	0.52793	0.77372	-0.097
Mof_C 	C 	0.39484	0.52623	0.81839	0.066
Mof_C 	C 	0.32502	0.50336	0.6785	-0.007
Mof_C 	C 	0.29766	0.47618	0.66098	-0.027
Mof_C 	C 	0.27453	0.47722	0.61575	-0.061
Mof_C 	C 	0.27871	0.50541	0.58798	0.036
Mof_C 	C 	0.30611	0.53261	0.60554	-0.059
Mof_C 	C 	0.32924	0.53157	0.65078	-0.027
Mof_H 	H 	0.37593	0.45427	0.77206	0.021
Mof_H 	H 	0.33658	0.45718	0.69525	0.067
Mof_H 	H 	0.3711	0.54752	0.77455	0.064
Mof_H 	H 	0.41025	0.5445	0.85097	0.037
Mof_H 	H 	0.29463	0.45589	0.68093	0.038
Mof_H 	H 	0.25487	0.45766	0.60319	0.048
Mof_H 	H 	0.30916	0.55291	0.58562	0.049
Mof_H 	H 	0.34892	0.55112	0.66338	0.042
Mof_F 	F 	0.4718	0.49852	0.60509	-0.258
Mof_O 	O 	0.51681	0.08157	0.92759	-0.617
Mof_O 	O 	0.47708	0.04667	0.85219	-0.671
Mof_C 	C 	0.49728	0.07573	0.86705	0.5
Mof_C 	C 	0.49915	0.10284	0.81778	-0.137
Mof_C 	C 	0.47376	0.09887	0.7725	0.068
Mof_C 	C 	0.47545	0.12346	0.72782	-0.099
Mof_C 	C 	0.50223	0.15226	0.72731	0.061
Mof_C 	C 	0.52793	0.15597	0.77372	-0.097
Mof_C 	C 	0.52623	0.13139	0.81839	0.066
Mof_C 	C 	0.50336	0.17834	0.6785	-0.007
Mof_C 	C 	0.47618	0.17852	0.66098	-0.027
Mof_C 	C 	0.47722	0.20269	0.61575	-0.061
Mof_C 	C 	0.50541	0.2267	0.58798	0.036
Mof_C 	C 	0.53261	0.2265	0.60554	-0.06
Mof_C 	C 	0.53157	0.20233	0.65078	-0.027
Mof_H 	H 	0.45427	0.07834	0.77206	0.021
Mof_H 	H 	0.45718	0.1206	0.69525	0.066
Mof_H 	H 	0.54752	0.17642	0.77455	0.064
Mof_H 	H 	0.5445	0.13425	0.85097	0.037
Mof_H 	H 	0.45589	0.16126	0.68093	0.038
Mof_H 	H 	0.45766	0.20279	0.60319	0.048
Mof_H 	H 	0.55291	0.24375	0.58562	0.049
Mof_H 	H 	0.55112	0.2022	0.66338	0.042
Mof_F 	F 	0.49852	0.02672	0.60509	-0.258
Mof_O 	O 	0.91843	0.43524	0.92759	-0.617
Mof_O 	O 	0.95333	0.43041	0.85219	-0.667
Mof_C 	C 	0.92427	0.42155	0.86705	0.5
Mof_C 	C 	0.89716	0.39631	0.81778	-0.136
Mof_C 	C 	0.90113	0.37489	0.7725	0.068
Mof_C 	C 	0.87654	0.35199	0.72782	-0.098
Mof_C 	C 	0.84774	0.34997	0.72731	0.061
Mof_C 	C 	0.84403	0.37196	0.77372	-0.097
Mof_C 	C 	0.86861	0.39484	0.81839	0.065
Mof_C 	C 	0.82166	0.32502	0.6785	-0.007
Mof_C 	C 	0.82148	0.29766	0.66098	-0.027
Mof_C 	C 	0.79731	0.27453	0.61575	-0.06
Mof_C 	C 	0.7733	0.27871	0.58798	0.036
Mof_C 	C 	0.7735	0.30611	0.60554	-0.059
Mof_C 	C 	0.79767	0.32924	0.65078	-0.027
Mof_H 	H 	0.92166	0.37593	0.77206	0.023
Mof_H 	H 	0.8794	0.33658	0.69525	0.067
Mof_H 	H 	0.82358	0.3711	0.77455	0.064
Mof_H 	H 	0.86575	0.41025	0.85097	0.038
Mof_H 	H 	0.83874	0.29463	0.68093	0.039
Mof_H 	H 	0.79721	0.25487	0.60319	0.048
Mof_H 	H 	0.75625	0.30916	0.58562	0.049
Mof_H 	H 	0.7978	0.34892	0.66338	0.042
Mof_F 	F 	0.97328	0.4718	0.60509	-0.252
Mof_O 	O 	0.56476	0.48319	0.92759	-0.617
Mof_O 	O 	0.56959	0.52292	0.85219	-0.67
Mof_C 	C 	0.57845	0.50272	0.86705	0.5
Mof_C 	C 	0.60369	0.50085	0.81778	-0.137
Mof_C 	C 	0.62511	0.52624	0.7725	0.068
Mof_C 	C 	0.64801	0.52455	0.72782	-0.098
Mof_C 	C 	0.65003	0.49777	0.72731	0.061
Mof_C 	C 	0.62804	0.47207	0.77372	-0.097
Mof_C 	C 	0.60516	0.47377	0.81839	0.066
Mof_C 	C 	0.67498	0.49664	0.6785	-0.007
Mof_C 	C 	0.70234	0.52382	0.66098	-0.027
Mof_C 	C 	0.72547	0.52278	0.61575	-0.061
Mof_C 	C 	0.72129	0.49459	0.58798	0.036
Mof_C 	C 	0.69389	0.46739	0.60554	-0.059
Mof_C 	C 	0.67076	0.46843	0.65078	-0.027
Mof_H 	H 	0.62407	0.54573	0.77206	0.022
Mof_H 	H 	0.66342	0.54282	0.69525	0.067
Mof_H 	H 	0.6289	0.45248	0.77455	0.064
Mof_H 	H 	0.58975	0.4555	0.85097	0.037
Mof_H 	H 	0.70537	0.54411	0.68093	0.039
Mof_H 	H 	0.74513	0.54234	0.60319	0.048
Mof_H 	H 	0.69084	0.44709	0.58562	0.049
Mof_H 	H 	0.65108	0.44888	0.66338	0.042
Mof_F 	F 	0.5282	0.50148	0.60509	-0.258
Mof_O 	O 	0.91843	0.48319	0.07241	-0.64
Mof_O 	O 	0.95333	0.52292	0.14781	-0.676
Mof_C 	C 	0.92427	0.50272	0.13295	0.501
Mof_C 	C 	0.89716	0.50085	0.18222	-0.143
Mof_C 	C 	0.90113	0.52624	0.2275	0.068
Mof_C 	C 	0.87654	0.52455	0.27218	-0.101
Mof_C 	C 	0.84774	0.49777	0.27269	0.06
Mof_C 	C 	0.84403	0.47207	0.22628	-0.101
Mof_C 	C 	0.86861	0.47377	0.18161	0.065
Mof_C 	C 	0.82166	0.49664	0.3215	-0.01
Mof_C 	C 	0.82148	0.52382	0.33902	-0.028
Mof_C 	C 	0.79731	0.52278	0.38425	-0.063
Mof_C 	C 	0.7733	0.49459	0.41202	0.036
Mof_C 	C 	0.7735	0.46739	0.39446	-0.061
Mof_C 	C 	0.79767	0.46843	0.34922	-0.027
Mof_H 	H 	0.92166	0.54573	0.22794	0.018
Mof_H 	H 	0.8794	0.54282	0.30475	0.066
Mof_H 	H 	0.82358	0.45248	0.22545	0.06
Mof_H 	H 	0.86575	0.4555	0.14903	0.031
Mof_H 	H 	0.83874	0.54411	0.31907	0.035
Mof_H 	H 	0.79721	0.54234	0.39681	0.047
Mof_H 	H 	0.75625	0.44709	0.41438	0.048
Mof_H 	H 	0.7978	0.44888	0.33662	0.04
Mof_F 	F 	0.97328	0.50148	0.39491	-0.252
Mof_O 	O 	0.56476	0.08157	0.07241	-0.64
Mof_O 	O 	0.56959	0.04667	0.14781	-0.681
Mof_C 	C 	0.57845	0.07573	0.13295	0.502
Mof_C 	C 	0.60369	0.10284	0.18222	-0.145
Mof_C 	C 	0.62511	0.09887	0.2275	0.068
Mof_C 	C 	0.64801	0.12346	0.27218	-0.102
Mof_C 	C 	0.65003	0.15226	0.27269	0.06
Mof_C 	C 	0.62804	0.15597	0.22628	-0.102
Mof_C 	C 	0.60516	0.13139	0.18161	0.065
Mof_C 	C 	0.67498	0.17834	0.3215	-0.01
Mof_C 	C 	0.70234	0.17852	0.33902	-0.028
Mof_C 	C 	0.72547	0.20269	0.38425	-0.063
Mof_C 	C 	0.72129	0.2267	0.41202	0.036
Mof_C 	C 	0.69389	0.2265	0.39446	-0.062
Mof_C 	C 	0.67076	0.20233	0.34922	-0.027
Mof_H 	H 	0.62407	0.07834	0.22794	0.016
Mof_H 	H 	0.66342	0.1206	0.30475	0.065
Mof_H 	H 	0.6289	0.17642	0.22545	0.06
Mof_H 	H 	0.58975	0.13425	0.14903	0.031
Mof_H 	H 	0.70537	0.16126	0.31907	0.035
Mof_H 	H 	0.74513	0.20279	0.39681	0.047
Mof_H 	H 	0.69084	0.24375	0.41438	0.048
Mof_H 	H 	0.65108	0.2022	0.33662	0.04
Mof_F 	F 	0.5282	0.02672	0.39491	-0.258
Mof_O 	O 	0.51681	0.43524	0.07241	-0.64
Mof_O 	O 	0.47708	0.43041	0.14781	-0.68
Mof_C 	C 	0.49728	0.42155	0.13295	0.501
Mof_C 	C 	0.49915	0.39631	0.18222	-0.144
Mof_C 	C 	0.47376	0.37489	0.2275	0.068
Mof_C 	C 	0.47545	0.35199	0.27218	-0.102
Mof_C 	C 	0.50223	0.34997	0.27269	0.06
Mof_C 	C 	0.52793	0.37196	0.22628	-0.102
Mof_C 	C 	0.52623	0.39484	0.18161	0.065
Mof_C 	C 	0.50336	0.32502	0.3215	-0.01
Mof_C 	C 	0.47618	0.29766	0.33902	-0.028
Mof_C 	C 	0.47722	0.27453	0.38425	-0.063
Mof_C 	C 	0.50541	0.27871	0.41202	0.036
Mof_C 	C 	0.53261	0.30611	0.39446	-0.062
Mof_C 	C 	0.53157	0.32924	0.34922	-0.027
Mof_H 	H 	0.45427	0.37593	0.22794	0.016
Mof_H 	H 	0.45718	0.33658	0.30475	0.065
Mof_H 	H 	0.54752	0.3711	0.22545	0.06
Mof_H 	H 	0.5445	0.41025	0.14903	0.031
Mof_H 	H 	0.45589	0.29463	0.31907	0.034
Mof_H 	H 	0.45766	0.25487	0.39681	0.046
Mof_H 	H 	0.55291	0.30916	0.41438	0.048
Mof_H 	H 	0.55112	0.34892	0.33662	0.04
Mof_F 	F 	0.49852	0.4718	0.39491	-0.258
Mof_O 	O 	0.08157	0.51681	0.07241	-0.64
Mof_O 	O 	0.04667	0.47708	0.14781	-0.681
Mof_C 	C 	0.07573	0.49728	0.13295	0.502
Mof_C 	C 	0.10284	0.49915	0.18222	-0.145
Mof_C 	C 	0.09887	0.47376	0.2275	0.068
Mof_C 	C 	0.12346	0.47545	0.27218	-0.102
Mof_C 	C 	0.15226	0.50223	0.27269	0.06
Mof_C 	C 	0.15597	0.52793	0.22628	-0.102
Mof_C 	C 	0.13139	0.52623	0.18161	0.065
Mof_C 	C 	0.17834	0.50336	0.3215	-0.01
Mof_C 	C 	0.17852	0.47618	0.33902	-0.028
Mof_C 	C 	0.20269	0.47722	0.38425	-0.063
Mof_C 	C 	0.2267	0.50541	0.41202	0.036
Mof_C 	C 	0.2265	0.53261	0.39446	-0.062
Mof_C 	C 	0.20233	0.53157	0.34922	-0.027
Mof_H 	H 	0.07834	0.45427	0.22794	0.016
Mof_H 	H 	0.1206	0.45718	0.30475	0.065
Mof_H 	H 	0.17642	0.54752	0.22545	0.06
Mof_H 	H 	0.13425	0.5445	0.14903	0.031
Mof_H 	H 	0.16126	0.45589	0.31907	0.034
Mof_H 	H 	0.20279	0.45766	0.39681	0.046
Mof_H 	H 	0.24375	0.55291	0.41438	0.048
Mof_H 	H 	0.2022	0.55112	0.33662	0.04
Mof_F 	F 	0.02672	0.49852	0.39491	-0.258
Mof_O 	O 	0.43524	0.91843	0.07241	-0.64
Mof_O 	O 	0.43041	0.95333	0.14781	-0.676
Mof_C 	C 	0.42155	0.92427	0.13295	0.501
Mof_C 	C 	0.39631	0.89716	0.18222	-0.144
Mof_C 	C 	0.37489	0.90113	0.2275	0.068
Mof_C 	C 	0.35199	0.87654	0.27218	-0.101
Mof_C 	C 	0.34997	0.84774	0.27269	0.06
Mof_C 	C 	0.37196	0.84403	0.22628	-0.101
Mof_C 	C 	0.39484	0.86861	0.18161	0.065
Mof_C 	C 	0.32502	0.82166	0.3215	-0.01
Mof_C 	C 	0.29766	0.82148	0.33902	-0.028
Mof_C 	C 	0.27453	0.79731	0.38425	-0.063
Mof_C 	C 	0.27871	0.7733	0.41202	0.036
Mof_C 	C 	0.30611	0.7735	0.39446	-0.061
Mof_C 	C 	0.32924	0.79767	0.34922	-0.027
Mof_H 	H 	0.37593	0.92166	0.22794	0.018
Mof_H 	H 	0.33658	0.8794	0.30475	0.066
Mof_H 	H 	0.3711	0.82358	0.22545	0.06
Mof_H 	H 	0.41025	0.86575	0.14903	0.031
Mof_H 	H 	0.29463	0.83874	0.31907	0.035
Mof_H 	H 	0.25487	0.79721	0.39681	0.047
Mof_H 	H 	0.30916	0.75625	0.41438	0.048
Mof_H 	H 	0.34892	0.7978	0.33662	0.04
Mof_F 	F 	0.4718	0.97328	0.39491	-0.252
Mof_O 	O 	0.48319	0.56476	0.07241	-0.64
Mof_O 	O 	0.52292	0.56959	0.14781	-0.679
Mof_C 	C 	0.50272	0.57845	0.13295	0.501
Mof_C 	C 	0.50085	0.60369	0.18222	-0.144
Mof_C 	C 	0.52624	0.62511	0.2275	0.068
Mof_C 	C 	0.52455	0.64801	0.27218	-0.102
Mof_C 	C 	0.49777	0.65003	0.27269	0.06
Mof_C 	C 	0.47207	0.62804	0.22628	-0.102
Mof_C 	C 	0.47377	0.60516	0.18161	0.065
Mof_C 	C 	0.49664	0.67498	0.3215	-0.01
Mof_C 	C 	0.52382	0.70234	0.33902	-0.028
Mof_C 	C 	0.52278	0.72547	0.38425	-0.063
Mof_C 	C 	0.49459	0.72129	0.41202	0.036
Mof_C 	C 	0.46739	0.69389	0.39446	-0.062
Mof_C 	C 	0.46843	0.67076	0.34922	-0.027
Mof_H 	H 	0.54573	0.62407	0.22794	0.017
Mof_H 	H 	0.54282	0.66342	0.30475	0.065
Mof_H 	H 	0.45248	0.6289	0.22545	0.06
Mof_H 	H 	0.4555	0.58975	0.14903	0.031
Mof_H 	H 	0.54411	0.70537	0.31907	0.035
Mof_H 	H 	0.54234	0.74513	0.39681	0.047
Mof_H 	H 	0.44709	0.69084	0.41438	0.048
Mof_H 	H 	0.44888	0.65108	0.33662	0.04
Mof_F 	F 	0.50148	0.5282	0.39491	-0.258
Mof_Zr	Zr	0.46388	7.22254e-34	0.1083	3.191
Mof_O 	O 	0.47616	1.44451e-33	0.23155	-0.571
Mof_F 	F 	0.47145	0	0.39491	-0.228
Mof_Zr	Zr	-4.30275e-18	0.46388	0.1083	3.191
Mof_O 	O 	4.28444e-17	0.47616	0.23155	-0.571
Mof_F 	F 	-6.77336e-17	0.47145	0.39491	-0.228
Mof_Zr	Zr	0.53612	0.53612	0.1083	3.192
Mof_O 	O 	0.52384	0.52384	0.23155	-0.567
Mof_F 	F 	0.52855	0.52855	0.39491	-0.224
Mof_Zr	Zr	0.53612	7.22254e-34	0.1083	3.191
Mof_O 	O 	0.52384	1.44451e-33	0.23155	-0.571
Mof_F 	F 	0.52855	0	0.39491	-0.228
Mof_Zr	Zr	-4.30275e-18	0.53612	0.1083	3.191
Mof_O 	O 	-9.19945e-18	0.52384	0.23155	-0.571
Mof_F 	F 	-1.56897e-17	0.52855	0.39491	-0.228
Mof_Zr	Zr	0.46388	0.46388	0.1083	3.192
Mof_O 	O 	0.47616	0.47616	0.23155	-0.567
Mof_F 	F 	0.47145	0.47145	0.39491	-0.224
Mof_Zr	Zr	-3.54271e-17	0.46388	0.8917	3.193
Mof_O 	O 	2.15134e-17	0.47616	0.76845	-0.569
Mof_F 	F 	-7.6084e-17	0.47145	0.60509	-0.227
Mof_Zr	Zr	0.46388	5.77803e-33	0.8917	3.193
Mof_O 	O 	0.47616	0	0.76845	-0.569
Mof_F 	F 	0.47145	5.77803e-33	0.60509	-0.227
Mof_Zr	Zr	0.53612	0.53612	0.8917	3.194
Mof_O 	O 	0.52384	0.52384	0.76845	-0.566
Mof_F 	F 	0.52855	0.52855	0.60509	-0.224
Mof_Zr	Zr	-3.54271e-17	0.53612	0.8917	3.193
Mof_O 	O 	-3.05304e-17	0.52384	0.76845	-0.569
Mof_F 	F 	-2.40402e-17	0.52855	0.60509	-0.227
Mof_Zr	Zr	0.53612	5.77803e-33	0.8917	3.193
Mof_O 	O 	0.52384	0	0.76845	-0.569
Mof_F 	F 	0.52855	5.77803e-33	0.60509	-0.227
Mof_Zr	Zr	0.46388	0.46388	0.8917	3.194
Mof_O 	O 	0.47616	0.47616	0.76845	-0.566
Mof_F 	F 	0.47145	0.47145	0.60509	-0.224
Mof_Zr	Zr	0.52669	0.05338	-0	3.218
Mof_Zr	Zr	0.94662	0.47331	-0	3.218
Mof_Zr	Zr	0.52669	0.47331	-0	3.218
Mof_Zr	Zr	0.47331	0.94662	-0	3.218
Mof_Zr	Zr	0.05338	0.52669	-0	3.218
Mof_Zr	Zr	0.47331	0.52669	-0	3.218
Mof_O 	O 	0.51338	0.02676	0.10884	-1.27
Mof_O 	O 	0.97324	0.48662	0.10884	-1.264
Mof_O 	O 	0.51338	0.48662	0.10884	-1.268
Mof_O 	O 	0.48662	0.97324	0.10884	-1.264
Mof_O 	O 	0.02676	0.51338	0.10884	-1.27
Mof_O 	O 	0.48662	0.51338	0.10884	-1.268
Mof_O 	O 	0.02676	0.51338	0.89116	-1.258
Mof_O 	O 	0.48662	0.97324	0.89116	-1.252
Mof_O 	O 	0.48662	0.51338	0.89116	-1.256
Mof_O 	O 	0.97324	0.48662	0.89116	-1.252
Mof_O 	O 	0.51338	0.02676	0.89116	-1.258
Mof_O 	O 	0.51338	0.48662	0.89116	-1.256
Mof_O 	O 	0.47682	0.03079	-0	-1.288
Mof_O 	O 	0.96921	0.44603	-0	-1.282
Mof_O 	O 	0.55397	0.52318	-0	-1.285
Mof_O 	O 	0.52318	0.96921	-0	-1.282
Mof_O 	O 	0.03079	0.55397	-0	-1.288
Mof_O 	O 	0.44603	0.47682	-0	-1.285
Mof_O 	O 	0.03079	0.47682	-0	-1.288
Mof_O 	O 	0.44603	0.96921	-0	-1.282
Mof_O 	O 	0.52318	0.55397	-0	-1.285
Mof_O 	O 	0.96921	0.52318	-0	-1.282
Mof_O 	O 	0.55397	0.03079	-0	-1.288
Mof_O 	O 	0.47682	0.44603	-0	-1.285
Mof_C 	C 	0.5098	0.2549	0.45802	-0.031
Mof_C 	C 	0.7451	0.2549	0.45802	-0.031
Mof_C 	C 	0.7451	0.4902	0.45802	-0.031
Mof_C 	C 	0.4902	0.7451	0.45802	-0.031
Mof_C 	C 	0.2549	0.7451	0.45802	-0.031
Mof_C 	C 	0.2549	0.5098	0.45802	-0.031
Mof_C 	C 	0.2549	0.5098	0.54198	-0.03
Mof_C 	C 	0.2549	0.7451	0.54198	-0.03
Mof_C 	C 	0.4902	0.7451	0.54198	-0.029
Mof_C 	C 	0.7451	0.4902	0.54198	-0.029
Mof_C 	C 	0.7451	0.2549	0.54198	-0.03
Mof_C 	C 	0.5098	0.2549	0.54198	-0.03
Mof_C 	C 	0.5	-1.44451e-33	0.27106	0.327
Mof_C 	C 	0.5	2.88901e-33	0.36606	0.802
Mof_C 	C 	4.12747e-17	0.5	0.27106	0.327
Mof_C 	C 	3.75003e-17	0.5	0.36606	0.802
Mof_C 	C 	0.5	0.5	0.27106	0.327
Mof_C 	C 	0.5	0.5	0.36606	0.81
Mof_C 	C 	2.30832e-17	0.5	0.72894	0.326
Mof_C 	C 	2.68575e-17	0.5	0.63394	0.803
Mof_C 	C 	0.5	0	0.72894	0.326
Mof_C 	C 	0.5	0	0.63394	0.803
Mof_C 	C 	0.5	0.5	0.72894	0.326
Mof_C 	C 	0.5	0.5	0.63394	0.81
_end
