# CIF file generated by openbabel 3.1.0, see https://openbabel.org
data_I
_chemical_name_common 'image0'
_cell_length_a 16.2387
_cell_length_b 9.3708
_cell_length_c 10.5007
_cell_angle_alpha 90
_cell_angle_beta 93.898
_cell_angle_gamma 90
_space_group_name_H-M_alt 'P 1'
_space_group_name_Hall 'P 1'
loop_
    _symmetry_equiv_pos_as_xyz
    x,y,z
loop_
    _atom_site_label
    _atom_site_type_symbol
    _atom_site_fract_x
    _atom_site_fract_y
    _atom_site_fract_z
    _atom_site_occupancy
    Zn1      Zn       0.04748    0.42901    0.83836    1.000
    Zn2      Zn       0.41487    0.62609    0.86153    1.000
    P1       P        0.93842    0.70717    0.88843    1.000
    P2       P        0.24612    0.47725    0.88173    1.000
    P3       P        0.46048    0.61325    0.15908    1.000
    O1       O        0.84067    0.71930    0.86390    1.000
    H1       H        0.81830    0.67240    0.91780    1.000
    O2       O        0.96141    0.56760    0.82980    1.000
    O3       O        0.97109    0.83680    0.82423    1.000
    O4       O        0.96088    0.71280    0.03032    1.000
    O5       O        0.15615    0.51400    0.86670    1.000
    O6       O        0.27016    0.39960    0.00590    1.000
    O7       O        0.26852    0.37440    0.76940    1.000
    H2       H        0.22650    0.33510    0.73920    1.000
    O8       O        0.29864    0.60970    0.87070    1.000
    O9       O        0.42981    0.71320    0.25450    1.000
    O10      O        0.54253    0.54950    0.20740    1.000
    O11      O        0.46479    0.68180    0.02846    1.000
    O12      O        0.40062    0.48040    0.14660    1.000
    H3       H        0.42110    0.41850    0.10350    1.000
    Zn3      Zn       0.95252    0.92901    0.66164    1.000
    Zn4      Zn       0.58513    0.12609    0.63847    1.000
    P4       P        0.06158    0.20717    0.61157    1.000
    P5       P        0.75388    0.97725    0.61827    1.000
    P6       P        0.53952    0.11325    0.34092    1.000
    O13      O        0.15933    0.21930    0.63610    1.000
    H4       H        0.18170    0.17240    0.58220    1.000
    O14      O        0.03859    0.06760    0.67020    1.000
    O15      O        0.02891    0.33680    0.67577    1.000
    O16      O        0.03912    0.21280    0.46968    1.000
    O17      O        0.84385    0.01400    0.63330    1.000
    O18      O        0.72984    0.89960    0.49410    1.000
    O19      O        0.73148    0.87440    0.73060    1.000
    H5       H        0.77350    0.83510    0.76080    1.000
    O20      O        0.70136    0.10970    0.62930    1.000
    O21      O        0.57019    0.21320    0.24550    1.000
    O22      O        0.45747    0.04950    0.29260    1.000
    O23      O        0.53521    0.18180    0.47154    1.000
    O24      O        0.59938    0.98040    0.35340    1.000
    H6       H        0.57890    0.91850    0.39650    1.000
    Zn5      Zn       0.95252    0.57099    0.16164    1.000
    Zn6      Zn       0.58513    0.37391    0.13847    1.000
    P7       P        0.06158    0.29283    0.11157    1.000
    P8       P        0.75388    0.52275    0.11827    1.000
    P9       P        0.53952    0.38675    0.84092    1.000
    O25      O        0.15933    0.28070    0.13610    1.000
    H7       H        0.18170    0.32760    0.08220    1.000
    O26      O        0.03859    0.43240    0.17020    1.000
    O27      O        0.02891    0.16320    0.17577    1.000
    O28      O        0.03912    0.28720    0.96968    1.000
    O29      O        0.84385    0.48600    0.13330    1.000
    O30      O        0.72984    0.60040    0.99410    1.000
    O31      O        0.73148    0.62560    0.23060    1.000
    H8       H        0.77350    0.66490    0.26080    1.000
    O32      O        0.70136    0.39030    0.12930    1.000
    O33      O        0.57019    0.28680    0.74550    1.000
    O34      O        0.45747    0.45050    0.79260    1.000
    O35      O        0.53521    0.31820    0.97154    1.000
    O36      O        0.59938    0.51960    0.85340    1.000
    H9       H        0.57890    0.58150    0.89650    1.000
    Zn7      Zn       0.04748    0.07099    0.33836    1.000
    Zn8      Zn       0.41487    0.87391    0.36153    1.000
    P10      P        0.93842    0.79283    0.38843    1.000
    P11      P        0.24612    0.02275    0.38173    1.000
    P12      P        0.46048    0.88675    0.65908    1.000
    O37      O        0.84067    0.78070    0.36390    1.000
    H10      H        0.81830    0.82760    0.41780    1.000
    O38      O        0.96141    0.93240    0.32980    1.000
    O39      O        0.97109    0.66320    0.32423    1.000
    O40      O        0.96088    0.78720    0.53032    1.000
    O41      O        0.15615    0.98600    0.36670    1.000
    O42      O        0.27016    0.10040    0.50590    1.000
    O43      O        0.26852    0.12560    0.26940    1.000
    H11      H        0.22650    0.16490    0.23920    1.000
    O44      O        0.29864    0.89030    0.37070    1.000
    O45      O        0.42981    0.78680    0.75450    1.000
    O46      O        0.54253    0.95050    0.70740    1.000
    O47      O        0.46479    0.81820    0.52846    1.000
    O48      O        0.40062    0.01960    0.64660    1.000
    H12      H        0.42110    0.08150    0.60350    1.000
