# CIF file generated by openbabel 3.1.0, see https://openbabel.org
data_I
_chemical_name_common 'image0'
_cell_length_a 13.0696
_cell_length_b 13.0696
_cell_length_c 11.2867
_cell_angle_alpha 90
_cell_angle_beta 90
_cell_angle_gamma 90
_space_group_name_H-M_alt 'P 1'
_space_group_name_Hall 'P 1'
loop_
    _symmetry_equiv_pos_as_xyz
    x,y,z
loop_
    _atom_site_label
    _atom_site_type_symbol
    _atom_site_fract_x
    _atom_site_fract_y
    _atom_site_fract_z
    _atom_site_occupancy
    Mn1      Mn       0.74303    0.98963    0.10474    1.000
    Mn2      Mn       0.74994    0.21927    0.95790    1.000
    O1       O        0.76010    0.05650    0.91930    1.000
    O2       O        0.87240    0.13540    0.80730    1.000
    O3       O        0.08750    0.77210    0.53090    1.000
    O4       O        0.14030    0.90370    0.63840    1.000
    O5       O        0.64300    0.75920    0.12220    1.000
    O6       O        0.62280    0.90490    0.02560    1.000
    O7       O        0.32180    0.75000    0.61610    1.000
    O8       O        0.36760    0.90520    0.67880    1.000
    C1       C        0.82760    0.05520    0.83870    1.000
    C2       C        0.07250    0.84110    0.60910    1.000
    C3       C        0.60260    0.81340    0.04290    1.000
    C4       C        0.36490    0.81020    0.68740    1.000
    C5       C        0.85190    0.95460    0.78160    1.000
    C6       C        0.94460    0.94330    0.72080    1.000
    H1       H        0.98900    0.99860    0.71440    1.000
    C7       C        0.97120    0.84920    0.66960    1.000
    C8       C        0.90540    0.76800    0.67960    1.000
    H2       H        0.92260    0.70510    0.64640    1.000
    C9       C        0.81220    0.77950    0.73980    1.000
    H3       H        0.76730    0.72460    0.74510    1.000
    C10      C        0.78660    0.87220    0.79130    1.000
    H4       H        0.72540    0.87880    0.83250    1.000
    C11      C        0.52520    0.76080    0.96330    1.000
    C12      C        0.48250    0.81110    0.86660    1.000
    H5       H        0.49930    0.87900    0.85130    1.000
    C13      C        0.41440    0.75900    0.79250    1.000
    C14      C        0.38880    0.65820    0.81840    1.000
    H6       H        0.34280    0.62380    0.76980    1.000
    C15      C        0.42990    0.60860    0.91390    1.000
    H7       H        0.41170    0.54120    0.93000    1.000
    C16      C        0.49960    0.65960    0.98720    1.000
    H8       H        0.52860    0.62600    0.05160    1.000
    Mn3      Mn       0.25697    0.01037    0.60474    1.000
    Mn4      Mn       0.25006    0.78073    0.45790    1.000
    O9       O        0.23990    0.94350    0.41930    1.000
    O10      O        0.12760    0.86460    0.30730    1.000
    O11      O        0.91250    0.22790    0.03090    1.000
    O12      O        0.85970    0.09630    0.13840    1.000
    O13      O        0.35700    0.24080    0.62220    1.000
    O14      O        0.37720    0.09510    0.52560    1.000
    O15      O        0.67820    0.25000    0.11610    1.000
    O16      O        0.63240    0.09480    0.17880    1.000
    C17      C        0.17240    0.94480    0.33870    1.000
    C18      C        0.92750    0.15890    0.10910    1.000
    C19      C        0.39740    0.18660    0.54290    1.000
    C20      C        0.63510    0.18980    0.18740    1.000
    C21      C        0.14810    0.04540    0.28160    1.000
    C22      C        0.05540    0.05670    0.22080    1.000
    H9       H        0.01100    0.00140    0.21440    1.000
    C23      C        0.02880    0.15080    0.16960    1.000
    C24      C        0.09460    0.23200    0.17960    1.000
    H10      H        0.07740    0.29490    0.14640    1.000
    C25      C        0.18780    0.22050    0.23980    1.000
    H11      H        0.23270    0.27540    0.24510    1.000
    C26      C        0.21340    0.12780    0.29130    1.000
    H12      H        0.27460    0.12120    0.33250    1.000
    C27      C        0.47480    0.23920    0.46330    1.000
    C28      C        0.51750    0.18890    0.36660    1.000
    H13      H        0.50070    0.12100    0.35130    1.000
    C29      C        0.58560    0.24100    0.29250    1.000
    C30      C        0.61120    0.34180    0.31840    1.000
    H14      H        0.65720    0.37620    0.26980    1.000
    C31      C        0.57010    0.39140    0.41390    1.000
    H15      H        0.58830    0.45880    0.43000    1.000
    C32      C        0.50040    0.34040    0.48720    1.000
    H16      H        0.47140    0.37400    0.55160    1.000
    Mn5      Mn       0.01037    0.74303    0.35474    1.000
    Mn6      Mn       0.78073    0.74994    0.20790    1.000
    O17      O        0.94350    0.76010    0.16930    1.000
    O18      O        0.86460    0.87240    0.05730    1.000
    O19      O        0.22790    0.08750    0.78090    1.000
    O20      O        0.09630    0.14030    0.88840    1.000
    O21      O        0.24080    0.64300    0.37220    1.000
    O22      O        0.09510    0.62280    0.27560    1.000
    O23      O        0.25000    0.32180    0.86610    1.000
    O24      O        0.09480    0.36760    0.92880    1.000
    C33      C        0.94480    0.82760    0.08870    1.000
    C34      C        0.15890    0.07250    0.85910    1.000
    C35      C        0.18660    0.60260    0.29290    1.000
    C36      C        0.18980    0.36490    0.93740    1.000
    C37      C        0.04540    0.85190    0.03160    1.000
    C38      C        0.05670    0.94460    0.97080    1.000
    H17      H        0.00140    0.98900    0.96440    1.000
    C39      C        0.15080    0.97120    0.91960    1.000
    C40      C        0.23200    0.90540    0.92960    1.000
    H18      H        0.29490    0.92260    0.89640    1.000
    C41      C        0.22050    0.81220    0.98980    1.000
    H19      H        0.27540    0.76730    0.99510    1.000
    C42      C        0.12780    0.78660    0.04130    1.000
    H20      H        0.12120    0.72540    0.08250    1.000
    C43      C        0.23920    0.52520    0.21330    1.000
    C44      C        0.18890    0.48250    0.11660    1.000
    H21      H        0.12100    0.49930    0.10130    1.000
    C45      C        0.24100    0.41440    0.04250    1.000
    C46      C        0.34180    0.38880    0.06840    1.000
    H22      H        0.37620    0.34280    0.01980    1.000
    C47      C        0.39140    0.42990    0.16390    1.000
    H23      H        0.45880    0.41170    0.18000    1.000
    C48      C        0.34040    0.49960    0.23720    1.000
    H24      H        0.37400    0.52860    0.30160    1.000
    Mn7      Mn       0.98963    0.25697    0.85474    1.000
    Mn8      Mn       0.21927    0.25006    0.70790    1.000
    O25      O        0.05650    0.23990    0.66930    1.000
    O26      O        0.13540    0.12760    0.55730    1.000
    O27      O        0.77210    0.91250    0.28090    1.000
    O28      O        0.90370    0.85970    0.38840    1.000
    O29      O        0.75920    0.35700    0.87220    1.000
    O30      O        0.90490    0.37720    0.77560    1.000
    O31      O        0.75000    0.67820    0.36610    1.000
    O32      O        0.90520    0.63240    0.42880    1.000
    C49      C        0.05520    0.17240    0.58870    1.000
    C50      C        0.84110    0.92750    0.35910    1.000
    C51      C        0.81340    0.39740    0.79290    1.000
    C52      C        0.81020    0.63510    0.43740    1.000
    C53      C        0.95460    0.14810    0.53160    1.000
    C54      C        0.94330    0.05540    0.47080    1.000
    H25      H        0.99860    0.01100    0.46440    1.000
    C55      C        0.84920    0.02880    0.41960    1.000
    C56      C        0.76800    0.09460    0.42960    1.000
    H26      H        0.70510    0.07740    0.39640    1.000
    C57      C        0.77950    0.18780    0.48980    1.000
    H27      H        0.72460    0.23270    0.49510    1.000
    C58      C        0.87220    0.21340    0.54130    1.000
    H28      H        0.87880    0.27460    0.58250    1.000
    C59      C        0.76080    0.47480    0.71330    1.000
    C60      C        0.81110    0.51750    0.61660    1.000
    H29      H        0.87900    0.50070    0.60130    1.000
    C61      C        0.75900    0.58560    0.54250    1.000
    C62      C        0.65820    0.61120    0.56840    1.000
    H30      H        0.62380    0.65720    0.51980    1.000
    C63      C        0.60860    0.57010    0.66390    1.000
    H31      H        0.54120    0.58830    0.68000    1.000
    C64      C        0.65960    0.50040    0.73720    1.000
    H32      H        0.62600    0.47140    0.80160    1.000
