# CIF file generated by openbabel 3.1.0, see https://openbabel.org
data_I
_chemical_name_common 'image0'
_cell_length_a 7.6439
_cell_length_b 22.013
_cell_length_c 6.1556
_cell_angle_alpha 90
_cell_angle_beta 90
_cell_angle_gamma 90
_space_group_name_H-M_alt 'P 1'
_space_group_name_Hall 'P 1'
loop_
    _symmetry_equiv_pos_as_xyz
    x,y,z
loop_
    _atom_site_label
    _atom_site_type_symbol
    _atom_site_fract_x
    _atom_site_fract_y
    _atom_site_fract_z
    _atom_site_occupancy
    Ce1      Ce       0.47932    0.35423    0.43918    1.000
    O1       O        0.38470    0.46168    0.58120    1.000
    O2       O        0.60070    0.45698    0.31160    1.000
    O3       O        0.52740    0.34561    0.83360    1.000
    O4       O        0.68660    0.33662    0.13760    1.000
    O5       O        0.78760    0.36198    0.58460    1.000
    H1       H        0.84570    0.39050    0.53860    1.000
    O6       O        0.84170    0.23674    0.78300    1.000
    H2       H        0.76340    0.24350    0.69530    1.000
    O7       O        0.19320    0.33570    0.63300    1.000
    O8       O        0.08500    0.25059    0.49330    1.000
    C1       C        0.66990    0.34310    0.93640    1.000
    C2       C        0.83750    0.34910    0.80080    1.000
    H3       H        0.90780    0.38280    0.85720    1.000
    C3       C        0.94550    0.29010    0.81050    1.000
    H4       H        0.00430    0.28800    0.95180    1.000
    C4       C        0.08570    0.29240    0.63070    1.000
    Ce2      Ce       0.52068    0.64577    0.43918    1.000
    O9       O        0.61530    0.53832    0.58120    1.000
    O10      O        0.39930    0.54302    0.31160    1.000
    O11      O        0.47260    0.65439    0.83360    1.000
    O12      O        0.31340    0.66338    0.13760    1.000
    O13      O        0.21240    0.63802    0.58460    1.000
    H5       H        0.15430    0.60950    0.53860    1.000
    O14      O        0.15830    0.76326    0.78300    1.000
    H6       H        0.23660    0.75650    0.69530    1.000
    O15      O        0.80680    0.66430    0.63300    1.000
    O16      O        0.91500    0.74941    0.49330    1.000
    C5       C        0.33010    0.65690    0.93640    1.000
    C6       C        0.16250    0.65090    0.80080    1.000
    H7       H        0.09220    0.61720    0.85720    1.000
    C7       C        0.05450    0.70990    0.81050    1.000
    H8       H        0.99570    0.71200    0.95180    1.000
    C8       C        0.91430    0.70760    0.63070    1.000
    Ce3      Ce       0.02068    0.85423    0.56082    1.000
    O17      O        0.11530    0.96168    0.41880    1.000
    O18      O        0.89930    0.95698    0.68840    1.000
    O19      O        0.97260    0.84561    0.16640    1.000
    O20      O        0.81340    0.83662    0.86240    1.000
    O21      O        0.71240    0.86198    0.41540    1.000
    H9       H        0.65430    0.89050    0.46140    1.000
    O22      O        0.65830    0.73674    0.21700    1.000
    H10      H        0.73660    0.74350    0.30470    1.000
    O23      O        0.30680    0.83570    0.36700    1.000
    O24      O        0.41500    0.75059    0.50670    1.000
    C9       C        0.83010    0.84310    0.06360    1.000
    C10      C        0.66250    0.84910    0.19920    1.000
    H11      H        0.59220    0.88280    0.14280    1.000
    C11      C        0.55450    0.79010    0.18950    1.000
    H12      H        0.49570    0.78800    0.04820    1.000
    C12      C        0.41430    0.79240    0.36930    1.000
    Ce4      Ce       0.97932    0.14577    0.56082    1.000
    O25      O        0.88470    0.03832    0.41880    1.000
    O26      O        0.10070    0.04302    0.68840    1.000
    O27      O        0.02740    0.15439    0.16640    1.000
    O28      O        0.18660    0.16338    0.86240    1.000
    O29      O        0.28760    0.13802    0.41540    1.000
    H13      H        0.34570    0.10950    0.46140    1.000
    O30      O        0.34170    0.26326    0.21700    1.000
    H14      H        0.26340    0.25650    0.30470    1.000
    O31      O        0.69320    0.16430    0.36700    1.000
    O32      O        0.58500    0.24941    0.50670    1.000
    C13      C        0.16990    0.15690    0.06360    1.000
    C14      C        0.33750    0.15090    0.19920    1.000
    H15      H        0.40780    0.11720    0.14280    1.000
    C15      C        0.44550    0.20990    0.18950    1.000
    H16      H        0.50430    0.21200    0.04820    1.000
    C16      C        0.58570    0.20760    0.36930    1.000
    S1       S        0.50000    0.50000    0.44660    1.000
    S2       S        0.00000    0.00000    0.55340    1.000
