data_functionalizedCrystal
_audit_creation_method	'EQeq! by Chris Wilmer'
_symmetry_space_group_name_H-M	'P1'
_symmetry_Int_Tables_number	1
_symmetry_cell_setting	triclinic
loop_
_symmetry_equiv_pos_as_xyz
  x,y,z
_cell_length_a	21.5909
_cell_length_b	24.0263
_cell_length_c	31.1146
_cell_angle_alpha	90
_cell_angle_beta	105.794
_cell_angle_gamma	90
loop_
_atom_site_label
_atom_site_type_symbol
_atom_site_fract_x
_atom_site_fract_y
_atom_site_fract_z
_atom_site_charge
Mof_Eu	Eu	0.91378	0.22919	0.19866	2.302
Mof_Eu	Eu	0.82479	0.69043	0.58727	2.249
Mof_C 	C 	0.8243	0.30742	0.53066	0.087
Mof_C 	C 	0.8167	0.33557	0.48909	-0.093
Mof_H 	H 	0.8077	0.374	0.4835	0.054
Mof_C 	C 	0.8247	0.2972	0.45935	-0.111
Mof_H 	H 	0.8232	0.3037	0.429	0.06
Mof_C 	C 	0.8359	0.24463	0.48235	0.108
Mof_C 	C 	0.854	0.19467	0.46511	-0.16
Mof_C 	C 	0.8605	0.14305	0.48629	0.111
Mof_C 	C 	0.8764	0.09158	0.46904	-0.084
Mof_H 	H 	0.8888	0.0868	0.4422	0.063
Mof_C 	C 	0.8707	0.051	0.49745	-0.076
Mof_H 	H 	0.8784	0.0125	0.4944	0.065
Mof_C 	C 	0.851	0.07676	0.53335	0.105
Mof_C 	C 	0.8357	0.0492	0.56858	-0.147
Mof_C 	C 	0.8174	0.07494	0.60352	0.104
Mof_C 	C 	0.798	0.04562	0.63812	-0.083
Mof_H 	H 	0.7926	0.0065	0.64	0.056
Mof_C 	C 	0.7889	0.08416	0.6674	-0.081
Mof_H 	H 	0.7757	0.0773	0.6937	0.059
Mof_C 	C 	0.80293	0.13783	0.65126	0.097
Mof_C 	C 	0.80862	0.18802	0.67522	-0.139
Mof_C 	C 	0.82617	0.23876	0.65964	0.1
Mof_C 	C 	0.839	0.28915	0.68435	-0.102
Mof_H 	H 	0.8411	0.2936	0.7151	0.047
Mof_C 	C 	0.8477	0.32974	0.6563	-0.079
Mof_H 	H 	0.8585	0.3675	0.6638	0.058
Mof_C 	C 	0.8376	0.30486	0.61312	0.091
Mof_C 	C 	0.8308	0.33331	0.5728	-0.126
Mof_N 	N 	0.83239	0.25076	0.52513	-0.245
Mof_N 	N 	0.84687	0.13319	0.52627	-0.244
Mof_N 	N 	0.81866	0.13067	0.61138	-0.243
Mof_N 	N 	0.82911	0.2485	0.61722	-0.238
Mof_C 	C 	0.8711	0.19846	0.42151	0.181
Mof_C 	C 	0.8235	0.20171	0.38138	-0.235
Mof_H 	H 	0.7794	0.1993	0.381	0.112
Mof_C 	C 	0.8404	0.20847	0.34187	0.164
Mof_H 	H 	0.8077	0.2112	0.3145	-0.015
Mof_C 	C 	0.9044	0.21134	0.34179	-0.27
Mof_C 	C 	0.9514	0.2053	0.38118	0.18
Mof_H 	H 	0.9954	0.2054	0.3814	-0.035
Mof_C 	C 	0.934	0.1991	0.42118	-0.233
Mof_H 	H 	0.9667	0.1953	0.4485	0.119
Mof_C 	C 	0.9216	0.22126	0.2996	0.537
Mof_O 	O 	0.87734	0.22344	0.26352	-0.575
Mof_O 	O 	0.98061	0.22695	0.30058	-0.651
Mof_C 	C 	0.8385	0.98697	0.57052	0.146
Mof_C 	C 	0.8932	0.96035	0.59662	-0.198
Mof_H 	H 	0.9312	0.9811	0.6093	0.099
Mof_C 	C 	0.892	0.90382	0.60401	0.122
Mof_H 	H 	0.929	0.8861	0.6226	-0.021
Mof_C 	C 	0.8376	0.87256	0.58469	-0.204
Mof_C 	C 	0.7835	0.89889	0.55687	0.121
Mof_H 	H 	0.7464	0.8777	0.5428	0.013
Mof_C 	C 	0.7842	0.95531	0.54988	-0.19
Mof_H 	H 	0.7474	0.973	0.5309	0.102
Mof_C 	C 	0.8347	0.81209	0.59256	0.431
Mof_O 	O 	0.78593	0.78516	0.57285	-0.488
Mof_O 	O 	0.88297	0.78853	0.61986	-0.663
Mof_C 	C 	0.7897	0.18675	0.71798	0.126
Mof_C 	C 	0.7263	0.17523	0.71755	-0.173
Mof_H 	H 	0.6959	0.1661	0.6901	0.088
Mof_C 	C 	0.7069	0.17694	0.75646	0.105
Mof_H 	H 	0.6635	0.1692	0.7557	-0.006
Mof_C 	C 	0.7512	0.19002	0.79656	-0.181
Mof_C 	C 	0.815	0.19834	0.79797	0.081
Mof_H 	H 	0.8457	0.2048	0.8258	0.01
Mof_C 	C 	0.8351	0.19726	0.75854	-0.164
Mof_H 	H 	0.8789	0.2036	0.7596	0.073
Mof_C 	C 	0.7295	0.19682	0.83813	0.414
Mof_O 	O 	0.66933	0.2053	0.83369	-0.722
Mof_O 	O 	0.76844	0.19433	0.87614	-0.429
Mof_C 	C 	0.831	0.39537	0.57436	0.112
Mof_C 	C 	0.8768	0.42612	0.55984	-0.142
Mof_H 	H 	0.9075	0.4073	0.5483	0.084
Mof_C 	C 	0.8776	0.48342	0.56227	0.047
Mof_H 	H 	0.9086	0.504	0.5523	0.026
Mof_C 	C 	0.8326	0.51134	0.57935	-0.104
Mof_C 	C 	0.7872	0.48084	0.59355	0.049
Mof_H 	H 	0.7565	0.4995	0.6051	0.029
Mof_C 	C 	0.7866	0.42312	0.59086	-0.145
Mof_H 	H 	0.7552	0.4026	0.6005	0.081
Mof_C 	C 	0.8319	0.57345	0.5819	0.305
Mof_O 	O 	0.8067	0.59678	0.60965	-0.45
Mof_O 	O 	0.8555	0.60282	0.5558	-0.429
Mof_Cu	Cu	0.8317	0.19023	0.5694	0.862
Mof_C 	C 	0.99801	0.84578	0.28976	0.118
Mof_C 	C 	0.9919	0.87259	0.32941	-0.082
Mof_H 	H 	0.9925	0.9116	0.3346	0.064
Mof_C 	C 	0.985	0.83232	0.35824	-0.094
Mof_H 	H 	0.9795	0.8379	0.3872	0.063
Mof_C 	C 	0.9875	0.77982	0.33713	0.107
Mof_C 	C 	0.97904	0.72818	0.35545	-0.177
Mof_C 	C 	0.9835	0.67601	0.33582	0.111
Mof_C 	C 	0.9805	0.62308	0.35722	-0.079
Mof_H 	H 	0.9749	0.6173	0.3861	0.063
Mof_C 	C 	0.9874	0.58314	0.32792	-0.087
Mof_H 	H 	0.9879	0.5441	0.3329	0.067
Mof_C 	C 	0.99386	0.60993	0.28853	0.124
Mof_N 	N 	0.99645	0.78881	0.29539	-0.238
Mof_N 	N 	0.99138	0.66706	0.29398	-0.242
Mof_C 	C 	0.0503	0.96544	0.27799	-0.216
Mof_H 	H 	0.0853	0.9462	0.2974	0.104
Mof_C 	C 	0.05	0.02291	0.27802	0.148
Mof_H 	H 	0.0846	0.0425	0.2976	-0.022
Mof_O 	O 	0.95159	0.13924	0.22502	-0.574
Mof_C 	C 	0.9634	0.7267	0.39944	0.231
Mof_C 	C 	0.9012	0.7236	0.40207	-0.254
Mof_H 	H 	0.8674	0.7249	0.3751	0.117
Mof_C 	C 	0.8855	0.7189	0.44152	0.183
Mof_H 	H 	0.8417	0.7171	0.4419	-0.005
Mof_C 	C 	0.934	0.7167	0.48085	-0.24
Mof_C 	C 	0.9956	0.7197	0.47871	0.234
Mof_H 	H 	0.0296	0.7176	0.5055	-0.045
Mof_C 	C 	0.0098	0.7257	0.4386	-0.321
Mof_H 	H 	0.0535	0.7293	0.4384	0.122
Mof_C 	C 	0.9204	0.7103	0.5271	0.481
Mof_O 	O 	0.9666	0.6959	0.559	-0.35
Mof_O 	O 	0.8671	0.71874	0.52955	-0.549
Mof_C 	C 	0.0528	0.49174	0.27545	-0.207
Mof_H 	H 	0.0891	0.5114	0.293	0.099
Mof_C 	C 	0.0528	0.43344	0.27537	0.137
Mof_H 	H 	0.0892	0.4138	0.2928	-0.017
Mof_O 	O 	0.04991	0.31737	0.27255	-0.586
Mof_O 	O 	0.731	0.6628	0.5361	-0.291
Mof_O 	O 	0.7292	0.3051	0.0221	-0.094
Mof_Eu	Eu	0.41378	0.72919	0.19866	2.286
Mof_Eu	Eu	0.32479	0.19043	0.58727	2.244
Mof_C 	C 	0.3243	0.80742	0.53066	0.086
Mof_C 	C 	0.3167	0.83557	0.48909	-0.093
Mof_H 	H 	0.3077	0.874	0.4835	0.053
Mof_C 	C 	0.3247	0.7972	0.45935	-0.111
Mof_H 	H 	0.3232	0.8037	0.429	0.06
Mof_C 	C 	0.3359	0.74463	0.48235	0.108
Mof_C 	C 	0.354	0.69467	0.46511	-0.16
Mof_C 	C 	0.3605	0.64305	0.48629	0.11
Mof_C 	C 	0.3764	0.59158	0.46904	-0.085
Mof_H 	H 	0.3888	0.5868	0.4422	0.061
Mof_C 	C 	0.3707	0.551	0.49745	-0.077
Mof_H 	H 	0.3784	0.5125	0.4944	0.063
Mof_C 	C 	0.351	0.57676	0.53335	0.104
Mof_C 	C 	0.3357	0.5492	0.56858	-0.148
Mof_C 	C 	0.3174	0.57494	0.60352	0.103
Mof_C 	C 	0.298	0.54562	0.63812	-0.084
Mof_H 	H 	0.2926	0.5065	0.64	0.056
Mof_C 	C 	0.2889	0.58416	0.6674	-0.081
Mof_H 	H 	0.2757	0.5773	0.6937	0.058
Mof_C 	C 	0.30293	0.63783	0.65126	0.096
Mof_C 	C 	0.30862	0.68802	0.67522	-0.14
Mof_C 	C 	0.32617	0.73876	0.65964	0.099
Mof_C 	C 	0.339	0.78915	0.68435	-0.104
Mof_H 	H 	0.3411	0.7936	0.7151	0.046
Mof_C 	C 	0.3477	0.82974	0.6563	-0.08
Mof_H 	H 	0.3585	0.8675	0.6638	0.055
Mof_C 	C 	0.3376	0.80486	0.61312	0.088
Mof_C 	C 	0.3308	0.83331	0.5728	-0.127
Mof_N 	N 	0.33239	0.75076	0.52513	-0.246
Mof_N 	N 	0.34687	0.63319	0.52627	-0.245
Mof_N 	N 	0.31866	0.63067	0.61138	-0.244
Mof_N 	N 	0.32911	0.7485	0.61722	-0.239
Mof_C 	C 	0.3711	0.69846	0.42151	0.181
Mof_C 	C 	0.3235	0.70171	0.38138	-0.236
Mof_H 	H 	0.2794	0.6993	0.381	0.113
Mof_C 	C 	0.3404	0.70847	0.34187	0.165
Mof_H 	H 	0.3077	0.7112	0.3145	-0.015
Mof_C 	C 	0.4044	0.71134	0.34179	-0.274
Mof_C 	C 	0.4514	0.7053	0.38118	0.181
Mof_H 	H 	0.4954	0.7054	0.3814	-0.041
Mof_C 	C 	0.434	0.6991	0.42118	-0.235
Mof_H 	H 	0.4667	0.6953	0.4485	0.116
Mof_C 	C 	0.4216	0.72126	0.2996	0.539
Mof_O 	O 	0.37734	0.72344	0.26352	-0.575
Mof_O 	O 	0.48061	0.72695	0.30058	-0.662
Mof_C 	C 	0.3385	0.48697	0.57052	0.146
Mof_C 	C 	0.3932	0.46035	0.59662	-0.199
Mof_H 	H 	0.4312	0.4811	0.6093	0.096
Mof_C 	C 	0.392	0.40382	0.60401	0.122
Mof_H 	H 	0.429	0.3861	0.6226	-0.024
Mof_C 	C 	0.3376	0.37256	0.58469	-0.205
Mof_C 	C 	0.2835	0.39889	0.55687	0.121
Mof_H 	H 	0.2464	0.3777	0.5428	0.012
Mof_C 	C 	0.2842	0.45531	0.54988	-0.19
Mof_H 	H 	0.2474	0.473	0.5309	0.102
Mof_C 	C 	0.3347	0.31209	0.59256	0.432
Mof_O 	O 	0.28593	0.28516	0.57285	-0.488
Mof_O 	O 	0.38297	0.28853	0.61986	-0.665
Mof_C 	C 	0.2897	0.68675	0.71798	0.124
Mof_C 	C 	0.2263	0.67523	0.71755	-0.172
Mof_H 	H 	0.1959	0.6661	0.6901	0.087
Mof_C 	C 	0.2069	0.67694	0.75646	0.103
Mof_H 	H 	0.1635	0.6692	0.7557	-0.006
Mof_C 	C 	0.2512	0.69002	0.79656	-0.18
Mof_C 	C 	0.315	0.69834	0.79797	0.08
Mof_H 	H 	0.3457	0.7048	0.8258	0.011
Mof_C 	C 	0.3351	0.69726	0.75854	-0.163
Mof_H 	H 	0.3789	0.7036	0.7596	0.071
Mof_C 	C 	0.2295	0.69682	0.83813	0.413
Mof_O 	O 	0.16933	0.7053	0.83369	-0.719
Mof_O 	O 	0.26844	0.69433	0.87614	-0.428
Mof_C 	C 	0.331	0.89537	0.57436	0.111
Mof_C 	C 	0.3768	0.92612	0.55984	-0.144
Mof_H 	H 	0.4075	0.9073	0.5483	0.081
Mof_C 	C 	0.3776	0.98342	0.56227	0.046
Mof_H 	H 	0.4086	0.004	0.5523	0.023
Mof_C 	C 	0.3326	0.01134	0.57935	-0.105
Mof_C 	C 	0.2872	0.98084	0.59355	0.049
Mof_H 	H 	0.2565	0.9995	0.6051	0.028
Mof_C 	C 	0.2866	0.92312	0.59086	-0.145
Mof_H 	H 	0.2552	0.9026	0.6005	0.081
Mof_C 	C 	0.3319	0.07345	0.5819	0.305
Mof_O 	O 	0.3067	0.09678	0.60965	-0.45
Mof_O 	O 	0.3555	0.10282	0.5558	-0.43
Mof_Cu	Cu	0.3317	0.69023	0.5694	0.86
Mof_C 	C 	0.49801	0.34578	0.28976	0.098
Mof_C 	C 	0.4919	0.37259	0.32941	-0.079
Mof_H 	H 	0.4925	0.4116	0.3346	0.057
Mof_C 	C 	0.485	0.33232	0.35824	-0.092
Mof_H 	H 	0.4795	0.3379	0.3872	0.059
Mof_C 	C 	0.4875	0.27982	0.33713	0.094
Mof_C 	C 	0.47904	0.22818	0.35545	-0.15
Mof_C 	C 	0.4835	0.17601	0.33582	0.098
Mof_C 	C 	0.4805	0.12308	0.35722	-0.078
Mof_H 	H 	0.4749	0.1173	0.3861	0.059
Mof_C 	C 	0.4874	0.08314	0.32792	-0.083
Mof_H 	H 	0.4879	0.0441	0.3329	0.06
Mof_C 	C 	0.49386	0.10993	0.28853	0.103
Mof_N 	N 	0.49645	0.28881	0.29539	-0.239
Mof_N 	N 	0.49138	0.16706	0.29398	-0.242
Mof_C 	C 	0.5503	0.46544	0.27799	-0.215
Mof_H 	H 	0.5853	0.4462	0.2974	0.105
Mof_C 	C 	0.55	0.52291	0.27802	0.147
Mof_H 	H 	0.5846	0.5425	0.2976	-0.021
Mof_O 	O 	0.45159	0.63924	0.22502	-0.588
Mof_C 	C 	0.4634	0.2267	0.39944	0.147
Mof_C 	C 	0.4012	0.2236	0.40207	-0.186
Mof_H 	H 	0.3674	0.2249	0.3751	0.094
Mof_C 	C 	0.3855	0.2189	0.44152	0.116
Mof_H 	H 	0.3417	0.2171	0.4419	0.017
Mof_C 	C 	0.434	0.2167	0.48085	-0.173
Mof_C 	C 	0.4956	0.2197	0.47871	0.104
Mof_H 	H 	0.5296	0.2176	0.5055	0.008
Mof_C 	C 	0.5098	0.2257	0.4386	-0.192
Mof_H 	H 	0.5535	0.2293	0.4384	0.083
Mof_C 	C 	0.4204	0.2103	0.5271	0.456
Mof_O 	O 	0.4666	0.1959	0.559	-0.352
Mof_O 	O 	0.3671	0.21874	0.52955	-0.543
Mof_C 	C 	0.5528	0.99174	0.27545	-0.205
Mof_H 	H 	0.5891	0.0114	0.293	0.1
Mof_C 	C 	0.5528	0.93344	0.27537	0.135
Mof_H 	H 	0.5892	0.9138	0.2928	-0.016
Mof_O 	O 	0.54991	0.81737	0.27255	-0.589
Mof_O 	O 	0.231	0.1628	0.5361	-0.291
Mof_O 	O 	0.2292	0.8051	0.0221	-0.095
Mof_Eu	Eu	0.08622	0.22919	0.30134	2.265
Mof_Eu	Eu	0.17521	0.69043	0.91273	2.239
Mof_C 	C 	0.1757	0.30742	0.96934	0.083
Mof_C 	C 	0.1833	0.33557	0.01091	-0.091
Mof_H 	H 	0.1923	0.374	0.0165	0.053
Mof_C 	C 	0.1753	0.2972	0.04065	-0.112
Mof_H 	H 	0.1768	0.3037	0.071	0.06
Mof_C 	C 	0.1641	0.24463	0.01765	0.109
Mof_C 	C 	0.146	0.19467	0.03489	-0.161
Mof_C 	C 	0.1395	0.14305	0.01371	0.11
Mof_C 	C 	0.1236	0.09158	0.03096	-0.087
Mof_H 	H 	0.1112	0.0868	0.0578	0.06
Mof_C 	C 	0.1293	0.051	0.00255	-0.076
Mof_H 	H 	0.1216	0.0125	0.0056	0.061
Mof_C 	C 	0.149	0.07676	0.96665	0.101
Mof_C 	C 	0.1643	0.0492	0.93142	-0.148
Mof_C 	C 	0.1826	0.07494	0.89648	0.102
Mof_C 	C 	0.202	0.04562	0.86188	-0.084
Mof_H 	H 	0.2074	0.0065	0.86	0.056
Mof_C 	C 	0.2111	0.08416	0.8326	-0.081
Mof_H 	H 	0.2243	0.0773	0.8063	0.058
Mof_C 	C 	0.19707	0.13783	0.84874	0.095
Mof_C 	C 	0.19138	0.18802	0.82478	-0.14
Mof_C 	C 	0.17383	0.23876	0.84036	0.097
Mof_C 	C 	0.161	0.28915	0.81565	-0.105
Mof_H 	H 	0.1589	0.2936	0.7849	0.046
Mof_C 	C 	0.1523	0.32974	0.8437	-0.081
Mof_H 	H 	0.1415	0.3675	0.8362	0.054
Mof_C 	C 	0.1624	0.30486	0.88688	0.086
Mof_C 	C 	0.1692	0.33331	0.9272	-0.127
Mof_N 	N 	0.16761	0.25076	0.97487	-0.248
Mof_N 	N 	0.15313	0.13319	0.97373	-0.246
Mof_N 	N 	0.18134	0.13067	0.88862	-0.245
Mof_N 	N 	0.17089	0.2485	0.88278	-0.24
Mof_C 	C 	0.1289	0.19846	0.07849	0.182
Mof_C 	C 	0.1765	0.20171	0.11862	-0.238
Mof_H 	H 	0.2206	0.1993	0.119	0.113
Mof_C 	C 	0.1596	0.20847	0.15813	0.166
Mof_H 	H 	0.1923	0.2112	0.1855	-0.016
Mof_C 	C 	0.0956	0.21134	0.15821	-0.278
Mof_C 	C 	0.0486	0.2053	0.11882	0.181
Mof_H 	H 	0.0046	0.2054	0.1186	-0.047
Mof_C 	C 	0.066	0.1991	0.07882	-0.236
Mof_H 	H 	0.0333	0.1953	0.0515	0.112
Mof_C 	C 	0.0784	0.22126	0.2004	0.541
Mof_O 	O 	0.12266	0.22344	0.23648	-0.574
Mof_O 	O 	0.01939	0.22695	0.19942	-0.672
Mof_C 	C 	0.1615	0.98697	0.92948	0.144
Mof_C 	C 	0.1068	0.96035	0.90338	-0.199
Mof_H 	H 	0.0688	0.9811	0.8907	0.092
Mof_C 	C 	0.108	0.90382	0.89599	0.121
Mof_H 	H 	0.071	0.8861	0.8774	-0.027
Mof_C 	C 	0.1624	0.87256	0.91531	-0.206
Mof_C 	C 	0.2165	0.89889	0.94313	0.12
Mof_H 	H 	0.2536	0.8777	0.9572	0.012
Mof_C 	C 	0.2158	0.95531	0.95012	-0.19
Mof_H 	H 	0.2526	0.973	0.9691	0.101
Mof_C 	C 	0.1653	0.81209	0.90744	0.431
Mof_O 	O 	0.21407	0.78516	0.92715	-0.487
Mof_O 	O 	0.11703	0.78853	0.88014	-0.665
Mof_C 	C 	0.2103	0.18675	0.78202	0.125
Mof_C 	C 	0.2737	0.17523	0.78245	-0.172
Mof_H 	H 	0.3041	0.1661	0.8099	0.088
Mof_C 	C 	0.2931	0.17694	0.74354	0.104
Mof_H 	H 	0.3365	0.1692	0.7443	-0.006
Mof_C 	C 	0.2488	0.19002	0.70344	-0.181
Mof_C 	C 	0.185	0.19834	0.70203	0.08
Mof_H 	H 	0.1543	0.2048	0.6742	0.011
Mof_C 	C 	0.1649	0.19726	0.74146	-0.163
Mof_H 	H 	0.1211	0.2036	0.7404	0.071
Mof_C 	C 	0.2705	0.19682	0.66187	0.414
Mof_O 	O 	0.33067	0.2053	0.66631	-0.722
Mof_O 	O 	0.23156	0.19433	0.62386	-0.429
Mof_C 	C 	0.169	0.39537	0.92564	0.11
Mof_C 	C 	0.1232	0.42612	0.94016	-0.145
Mof_H 	H 	0.0925	0.4073	0.9517	0.078
Mof_C 	C 	0.1224	0.48342	0.93773	0.045
Mof_H 	H 	0.0914	0.504	0.9477	0.02
Mof_C 	C 	0.1674	0.51134	0.92065	-0.106
Mof_C 	C 	0.2128	0.48084	0.90645	0.048
Mof_H 	H 	0.2435	0.4995	0.8949	0.028
Mof_C 	C 	0.2134	0.42312	0.90914	-0.145
Mof_H 	H 	0.2448	0.4026	0.8995	0.081
Mof_C 	C 	0.1681	0.57345	0.9181	0.304
Mof_O 	O 	0.1933	0.59678	0.89035	-0.45
Mof_O 	O 	0.1445	0.60282	0.9442	-0.431
Mof_Cu	Cu	0.1683	0.19023	0.9306	0.859
Mof_C 	C 	0.00199	0.84578	0.21024	0.1
Mof_C 	C 	0.0081	0.87259	0.17059	-0.086
Mof_H 	H 	0.0075	0.9116	0.1654	0.056
Mof_C 	C 	0.015	0.83232	0.14176	-0.085
Mof_H 	H 	0.0205	0.8379	0.1128	0.053
Mof_C 	C 	0.0125	0.77982	0.16287	0.079
Mof_C 	C 	0.02096	0.72818	0.14455	-0.122
Mof_C 	C 	0.0165	0.67601	0.16418	0.084
Mof_C 	C 	0.0195	0.62308	0.14278	-0.071
Mof_H 	H 	0.0251	0.6173	0.1139	0.053
Mof_C 	C 	0.0126	0.58314	0.17208	-0.091
Mof_H 	H 	0.0121	0.5441	0.1671	0.059
Mof_C 	C 	0.00614	0.60993	0.21147	0.106
Mof_N 	N 	0.00355	0.78881	0.20461	-0.24
Mof_N 	N 	0.00862	0.66706	0.20602	-0.244
Mof_C 	C 	0.9497	0.96544	0.22201	-0.2
Mof_H 	H 	0.9147	0.9462	0.2026	0.104
Mof_C 	C 	0.95	0.02291	0.22198	0.162
Mof_H 	H 	0.9154	0.0425	0.2024	-0.024
Mof_O 	O 	0.04841	0.13924	0.27498	-0.585
Mof_C 	C 	0.0366	0.7267	0.10056	0.064
Mof_C 	C 	0.0988	0.7236	0.09793	-0.118
Mof_H 	H 	0.1326	0.7249	0.1249	0.072
Mof_C 	C 	0.1145	0.7189	0.05848	0.05
Mof_H 	H 	0.1583	0.7171	0.0581	0.039
Mof_C 	C 	0.066	0.7167	0.01915	-0.106
Mof_C 	C 	0.0044	0.7197	0.02129	-0.023
Mof_H 	H 	0.9704	0.7176	0.9945	0.059
Mof_C 	C 	0.9902	0.7257	0.0614	-0.065
Mof_H 	H 	0.9465	0.7293	0.0616	0.045
Mof_C 	C 	0.0796	0.7103	0.9729	0.43
Mof_O 	O 	0.0334	0.6959	0.941	-0.353
Mof_O 	O 	0.1329	0.71874	0.97045	-0.537
Mof_C 	C 	0.9472	0.49174	0.22455	-0.191
Mof_H 	H 	0.9109	0.5114	0.207	0.099
Mof_C 	C 	0.9472	0.43344	0.22463	0.151
Mof_H 	H 	0.9108	0.4138	0.2072	-0.019
Mof_O 	O 	0.95009	0.31737	0.22745	-0.575
Mof_O 	O 	0.269	0.6628	0.9639	-0.29
Mof_O 	O 	0.2708	0.3051	0.4779	-0.095
Mof_Eu	Eu	0.58622	0.72919	0.30134	2.285
Mof_Eu	Eu	0.67521	0.19043	0.91273	2.244
Mof_C 	C 	0.6757	0.80742	0.96934	0.084
Mof_C 	C 	0.6833	0.83557	0.01091	-0.09
Mof_H 	H 	0.6923	0.874	0.0165	0.053
Mof_C 	C 	0.6753	0.7972	0.04065	-0.112
Mof_H 	H 	0.6768	0.8037	0.071	0.06
Mof_C 	C 	0.6641	0.74463	0.01765	0.109
Mof_C 	C 	0.646	0.69467	0.03489	-0.161
Mof_C 	C 	0.6395	0.64305	0.01371	0.112
Mof_C 	C 	0.6236	0.59158	0.03096	-0.086
Mof_H 	H 	0.6112	0.5868	0.0578	0.061
Mof_C 	C 	0.6293	0.551	0.00255	-0.075
Mof_H 	H 	0.6216	0.5125	0.0056	0.063
Mof_C 	C 	0.649	0.57676	0.96665	0.102
Mof_C 	C 	0.6643	0.5492	0.93142	-0.147
Mof_C 	C 	0.6826	0.57494	0.89648	0.103
Mof_C 	C 	0.702	0.54562	0.86188	-0.083
Mof_H 	H 	0.7074	0.5065	0.86	0.056
Mof_C 	C 	0.7111	0.58416	0.8326	-0.081
Mof_H 	H 	0.7243	0.5773	0.8063	0.059
Mof_C 	C 	0.69707	0.63783	0.84874	0.096
Mof_C 	C 	0.69138	0.68802	0.82478	-0.14
Mof_C 	C 	0.67383	0.73876	0.84036	0.099
Mof_C 	C 	0.661	0.78915	0.81565	-0.104
Mof_H 	H 	0.6589	0.7936	0.7849	0.046
Mof_C 	C 	0.6523	0.82974	0.8437	-0.08
Mof_H 	H 	0.6415	0.8675	0.8362	0.055
Mof_C 	C 	0.6624	0.80486	0.88688	0.088
Mof_C 	C 	0.6692	0.83331	0.9272	-0.126
Mof_N 	N 	0.66761	0.75076	0.97487	-0.247
Mof_N 	N 	0.65313	0.63319	0.97373	-0.246
Mof_N 	N 	0.68134	0.63067	0.88862	-0.244
Mof_N 	N 	0.67089	0.7485	0.88278	-0.239
Mof_C 	C 	0.6289	0.69846	0.07849	0.182
Mof_C 	C 	0.6765	0.70171	0.11862	-0.236
Mof_H 	H 	0.7206	0.6993	0.119	0.112
Mof_C 	C 	0.6596	0.70847	0.15813	0.165
Mof_H 	H 	0.6923	0.7112	0.1855	-0.016
Mof_C 	C 	0.5956	0.71134	0.15821	-0.274
Mof_C 	C 	0.5486	0.7053	0.11882	0.181
Mof_H 	H 	0.5046	0.7054	0.1186	-0.041
Mof_C 	C 	0.566	0.6991	0.07882	-0.235
Mof_H 	H 	0.5333	0.6953	0.0515	0.116
Mof_C 	C 	0.5784	0.72126	0.2004	0.539
Mof_O 	O 	0.62266	0.72344	0.23648	-0.575
Mof_O 	O 	0.51939	0.72695	0.19942	-0.662
Mof_C 	C 	0.6615	0.48697	0.92948	0.145
Mof_C 	C 	0.6068	0.46035	0.90338	-0.199
Mof_H 	H 	0.5688	0.4811	0.8907	0.096
Mof_C 	C 	0.608	0.40382	0.89599	0.122
Mof_H 	H 	0.571	0.3861	0.8774	-0.024
Mof_C 	C 	0.6624	0.37256	0.91531	-0.205
Mof_C 	C 	0.7165	0.39889	0.94313	0.12
Mof_H 	H 	0.7536	0.3777	0.9572	0.013
Mof_C 	C 	0.7158	0.45531	0.95012	-0.19
Mof_H 	H 	0.7526	0.473	0.9691	0.102
Mof_C 	C 	0.6653	0.31209	0.90744	0.431
Mof_O 	O 	0.71407	0.28516	0.92715	-0.486
Mof_O 	O 	0.61703	0.28853	0.88014	-0.665
Mof_C 	C 	0.7103	0.68675	0.78202	0.125
Mof_C 	C 	0.7737	0.67523	0.78245	-0.173
Mof_H 	H 	0.8041	0.6661	0.8099	0.089
Mof_C 	C 	0.7931	0.67694	0.74354	0.105
Mof_H 	H 	0.8365	0.6692	0.7443	-0.005
Mof_C 	C 	0.7488	0.69002	0.70344	-0.182
Mof_C 	C 	0.685	0.69834	0.70203	0.081
Mof_H 	H 	0.6543	0.7048	0.6742	0.01
Mof_C 	C 	0.6649	0.69726	0.74146	-0.164
Mof_H 	H 	0.6211	0.7036	0.7404	0.071
Mof_C 	C 	0.7705	0.69682	0.66187	0.414
Mof_O 	O 	0.83067	0.7053	0.66631	-0.723
Mof_O 	O 	0.73156	0.69433	0.62386	-0.429
Mof_C 	C 	0.669	0.89537	0.92564	0.109
Mof_C 	C 	0.6232	0.92612	0.94016	-0.142
Mof_H 	H 	0.5925	0.9073	0.9517	0.081
Mof_C 	C 	0.6224	0.98342	0.93773	0.043
Mof_H 	H 	0.5914	0.004	0.9477	0.024
Mof_C 	C 	0.6674	0.01134	0.92065	-0.104
Mof_C 	C 	0.7128	0.98084	0.90645	0.047
Mof_H 	H 	0.7435	0.9995	0.8949	0.029
Mof_C 	C 	0.7134	0.92312	0.90914	-0.144
Mof_H 	H 	0.7448	0.9026	0.8995	0.08
Mof_C 	C 	0.6681	0.07345	0.9181	0.304
Mof_O 	O 	0.6933	0.09678	0.89035	-0.45
Mof_O 	O 	0.6445	0.10282	0.9442	-0.43
Mof_Cu	Cu	0.6683	0.69023	0.9306	0.86
Mof_C 	C 	0.50199	0.34578	0.21024	0.098
Mof_C 	C 	0.5081	0.37259	0.17059	-0.079
Mof_H 	H 	0.5075	0.4116	0.1654	0.057
Mof_C 	C 	0.515	0.33232	0.14176	-0.092
Mof_H 	H 	0.5205	0.3379	0.1128	0.059
Mof_C 	C 	0.5125	0.27982	0.16287	0.094
Mof_C 	C 	0.52096	0.22818	0.14455	-0.15
Mof_C 	C 	0.5165	0.17601	0.16418	0.099
Mof_C 	C 	0.5195	0.12308	0.14278	-0.078
Mof_H 	H 	0.5251	0.1173	0.1139	0.059
Mof_C 	C 	0.5126	0.08314	0.17208	-0.083
Mof_H 	H 	0.5121	0.0441	0.1671	0.06
Mof_C 	C 	0.50614	0.10993	0.21147	0.103
Mof_N 	N 	0.50355	0.28881	0.20461	-0.239
Mof_N 	N 	0.50862	0.16706	0.20602	-0.242
Mof_C 	C 	0.4497	0.46544	0.22201	-0.215
Mof_H 	H 	0.4147	0.4462	0.2026	0.105
Mof_C 	C 	0.45	0.52291	0.22198	0.147
Mof_H 	H 	0.4154	0.5425	0.2024	-0.021
Mof_O 	O 	0.54841	0.63924	0.27498	-0.588
Mof_C 	C 	0.5366	0.2267	0.10056	0.148
Mof_C 	C 	0.5988	0.2236	0.09793	-0.186
Mof_H 	H 	0.6326	0.2249	0.1249	0.095
Mof_C 	C 	0.6145	0.2189	0.05848	0.117
Mof_H 	H 	0.6583	0.2171	0.0581	0.017
Mof_C 	C 	0.566	0.2167	0.01915	-0.173
Mof_C 	C 	0.5044	0.2197	0.02129	0.106
Mof_H 	H 	0.4704	0.2176	0.9945	0.007
Mof_C 	C 	0.4902	0.2257	0.0614	-0.193
Mof_H 	H 	0.4465	0.2293	0.0616	0.084
Mof_C 	C 	0.5796	0.2103	0.9729	0.455
Mof_O 	O 	0.5334	0.1959	0.941	-0.352
Mof_O 	O 	0.6329	0.21874	0.97045	-0.543
Mof_C 	C 	0.4472	0.99174	0.22455	-0.205
Mof_H 	H 	0.4109	0.0114	0.207	0.1
Mof_C 	C 	0.4472	0.93344	0.22463	0.135
Mof_H 	H 	0.4108	0.9138	0.2072	-0.016
Mof_O 	O 	0.45009	0.81737	0.22745	-0.589
Mof_O 	O 	0.769	0.1628	0.9639	-0.29
Mof_O 	O 	0.7708	0.8051	0.4779	-0.094
Mof_Eu	Eu	0.08622	0.77081	0.80134	2.264
Mof_Eu	Eu	0.17521	0.30957	0.41273	2.24
Mof_C 	C 	0.1757	0.69258	0.46934	0.085
Mof_C 	C 	0.1833	0.66443	0.51091	-0.093
Mof_H 	H 	0.1923	0.626	0.5165	0.053
Mof_C 	C 	0.1753	0.7028	0.54065	-0.11
Mof_H 	H 	0.1768	0.6963	0.571	0.059
Mof_C 	C 	0.1641	0.75537	0.51765	0.107
Mof_C 	C 	0.146	0.80533	0.53489	-0.161
Mof_C 	C 	0.1395	0.85695	0.51371	0.109
Mof_C 	C 	0.1236	0.90842	0.53096	-0.085
Mof_H 	H 	0.1112	0.9132	0.5578	0.059
Mof_C 	C 	0.1293	0.949	0.50255	-0.078
Mof_H 	H 	0.1216	0.9875	0.5056	0.061
Mof_C 	C 	0.149	0.92324	0.46665	0.102
Mof_C 	C 	0.1643	0.9508	0.43142	-0.148
Mof_C 	C 	0.1826	0.92506	0.39648	0.102
Mof_C 	C 	0.202	0.95438	0.36188	-0.084
Mof_H 	H 	0.2074	0.9935	0.36	0.056
Mof_C 	C 	0.2111	0.91584	0.3326	-0.081
Mof_H 	H 	0.2243	0.9227	0.3063	0.058
Mof_C 	C 	0.19707	0.86217	0.34874	0.095
Mof_C 	C 	0.19138	0.81198	0.32478	-0.14
Mof_C 	C 	0.17383	0.76124	0.34036	0.097
Mof_C 	C 	0.161	0.71085	0.31565	-0.105
Mof_H 	H 	0.1589	0.7064	0.2849	0.046
Mof_C 	C 	0.1523	0.67026	0.3437	-0.081
Mof_H 	H 	0.1415	0.6325	0.3362	0.054
Mof_C 	C 	0.1624	0.69514	0.38688	0.086
Mof_C 	C 	0.1692	0.66669	0.4272	-0.128
Mof_N 	N 	0.16761	0.74924	0.47487	-0.247
Mof_N 	N 	0.15313	0.86681	0.47373	-0.246
Mof_N 	N 	0.18134	0.86933	0.38862	-0.245
Mof_N 	N 	0.17089	0.7515	0.38278	-0.24
Mof_C 	C 	0.1289	0.80154	0.57849	0.182
Mof_C 	C 	0.1765	0.79829	0.61862	-0.237
Mof_H 	H 	0.2206	0.8007	0.619	0.113
Mof_C 	C 	0.1596	0.79153	0.65813	0.166
Mof_H 	H 	0.1923	0.7888	0.6855	-0.016
Mof_C 	C 	0.0956	0.78866	0.65821	-0.278
Mof_C 	C 	0.0486	0.7947	0.61882	0.181
Mof_H 	H 	0.0046	0.7946	0.6186	-0.047
Mof_C 	C 	0.066	0.8009	0.57882	-0.236
Mof_H 	H 	0.0333	0.8047	0.5515	0.112
Mof_C 	C 	0.0784	0.77874	0.7004	0.541
Mof_O 	O 	0.12266	0.77656	0.73648	-0.574
Mof_O 	O 	0.01939	0.77305	0.69942	-0.672
Mof_C 	C 	0.1615	0.01303	0.42948	0.145
Mof_C 	C 	0.1068	0.03965	0.40338	-0.199
Mof_H 	H 	0.0688	0.0189	0.3907	0.093
Mof_C 	C 	0.108	0.09618	0.39599	0.122
Mof_H 	H 	0.071	0.1139	0.3774	-0.027
Mof_C 	C 	0.1624	0.12744	0.41531	-0.206
Mof_C 	C 	0.2165	0.10111	0.44313	0.121
Mof_H 	H 	0.2536	0.1223	0.4572	0.013
Mof_C 	C 	0.2158	0.04469	0.45012	-0.19
Mof_H 	H 	0.2526	0.027	0.4691	0.102
Mof_C 	C 	0.1653	0.18791	0.40744	0.431
Mof_O 	O 	0.21407	0.21484	0.42715	-0.487
Mof_O 	O 	0.11703	0.21147	0.38014	-0.665
Mof_C 	C 	0.2103	0.81325	0.28202	0.125
Mof_C 	C 	0.2737	0.82477	0.28245	-0.172
Mof_H 	H 	0.3041	0.8339	0.3099	0.088
Mof_C 	C 	0.2931	0.82306	0.24354	0.104
Mof_H 	H 	0.3365	0.8308	0.2443	-0.006
Mof_C 	C 	0.2488	0.80998	0.20344	-0.181
Mof_C 	C 	0.185	0.80166	0.20203	0.08
Mof_H 	H 	0.1543	0.7952	0.1742	0.011
Mof_C 	C 	0.1649	0.80274	0.24146	-0.163
Mof_H 	H 	0.1211	0.7964	0.2404	0.071
Mof_C 	C 	0.2705	0.80318	0.16187	0.414
Mof_O 	O 	0.33067	0.7947	0.16631	-0.722
Mof_O 	O 	0.23156	0.80567	0.12386	-0.429
Mof_C 	C 	0.169	0.60463	0.42564	0.11
Mof_C 	C 	0.1232	0.57388	0.44016	-0.145
Mof_H 	H 	0.0925	0.5927	0.4517	0.079
Mof_C 	C 	0.1224	0.51658	0.43773	0.045
Mof_H 	H 	0.0914	0.496	0.4477	0.021
Mof_C 	C 	0.1674	0.48866	0.42065	-0.106
Mof_C 	C 	0.2128	0.51916	0.40645	0.049
Mof_H 	H 	0.2435	0.5005	0.3949	0.028
Mof_C 	C 	0.2134	0.57688	0.40914	-0.146
Mof_H 	H 	0.2448	0.5974	0.3995	0.081
Mof_C 	C 	0.1681	0.42655	0.4181	0.304
Mof_O 	O 	0.1933	0.40322	0.39035	-0.45
Mof_O 	O 	0.1445	0.39718	0.4442	-0.431
Mof_Cu	Cu	0.1683	0.80977	0.4306	0.859
Mof_C 	C 	0.00199	0.15422	0.71024	0.1
Mof_C 	C 	0.0081	0.12741	0.67059	-0.086
Mof_H 	H 	0.0075	0.0884	0.6654	0.056
Mof_C 	C 	0.015	0.16768	0.64176	-0.085
Mof_H 	H 	0.0205	0.1621	0.6128	0.053
Mof_C 	C 	0.0125	0.22018	0.66287	0.079
Mof_C 	C 	0.02096	0.27182	0.64455	-0.121
Mof_C 	C 	0.0165	0.32399	0.66418	0.084
Mof_C 	C 	0.0195	0.37692	0.64278	-0.071
Mof_H 	H 	0.0251	0.3827	0.6139	0.053
Mof_C 	C 	0.0126	0.41686	0.67208	-0.091
Mof_H 	H 	0.0121	0.4559	0.6671	0.059
Mof_C 	C 	0.00614	0.39007	0.71147	0.106
Mof_N 	N 	0.00355	0.21119	0.70461	-0.24
Mof_N 	N 	0.00862	0.33294	0.70602	-0.244
Mof_C 	C 	0.9497	0.03456	0.72201	-0.2
Mof_H 	H 	0.9147	0.0538	0.7026	0.104
Mof_C 	C 	0.95	0.97709	0.72198	0.163
Mof_H 	H 	0.9154	0.9575	0.7024	-0.025
Mof_O 	O 	0.04841	0.86076	0.77498	-0.585
Mof_C 	C 	0.0366	0.2733	0.60056	0.062
Mof_C 	C 	0.0988	0.2764	0.59793	-0.116
Mof_H 	H 	0.1326	0.2751	0.6249	0.072
Mof_C 	C 	0.1145	0.2811	0.55848	0.049
Mof_H 	H 	0.1583	0.2829	0.5581	0.039
Mof_C 	C 	0.066	0.2833	0.51915	-0.105
Mof_C 	C 	0.0044	0.2803	0.52129	-0.028
Mof_H 	H 	0.9704	0.2824	0.4945	0.062
Mof_C 	C 	0.9902	0.2743	0.5614	-0.062
Mof_H 	H 	0.9465	0.2707	0.5616	0.044
Mof_C 	C 	0.0796	0.2897	0.4729	0.43
Mof_O 	O 	0.0334	0.3041	0.441	-0.353
Mof_O 	O 	0.1329	0.28126	0.47045	-0.536
Mof_C 	C 	0.9472	0.50826	0.72455	-0.191
Mof_H 	H 	0.9109	0.4886	0.707	0.099
Mof_C 	C 	0.9472	0.56656	0.72463	0.152
Mof_H 	H 	0.9108	0.5862	0.7072	-0.019
Mof_O 	O 	0.95009	0.68263	0.72745	-0.575
Mof_O 	O 	0.269	0.3372	0.4639	-0.29
Mof_O 	O 	0.2708	0.6949	0.9779	-0.096
Mof_Eu	Eu	0.58622	0.27081	0.80134	2.285
Mof_Eu	Eu	0.67521	0.80957	0.41273	2.245
Mof_C 	C 	0.6757	0.19258	0.46934	0.086
Mof_C 	C 	0.6833	0.16443	0.51091	-0.093
Mof_H 	H 	0.6923	0.126	0.5165	0.053
Mof_C 	C 	0.6753	0.2028	0.54065	-0.111
Mof_H 	H 	0.6768	0.1963	0.571	0.06
Mof_C 	C 	0.6641	0.25537	0.51765	0.107
Mof_C 	C 	0.646	0.30533	0.53489	-0.16
Mof_C 	C 	0.6395	0.35695	0.51371	0.11
Mof_C 	C 	0.6236	0.40842	0.53096	-0.085
Mof_H 	H 	0.6112	0.4132	0.5578	0.061
Mof_C 	C 	0.6293	0.449	0.50255	-0.077
Mof_H 	H 	0.6216	0.4875	0.5056	0.063
Mof_C 	C 	0.649	0.42324	0.46665	0.104
Mof_C 	C 	0.6643	0.4508	0.43142	-0.148
Mof_C 	C 	0.6826	0.42506	0.39648	0.103
Mof_C 	C 	0.702	0.45438	0.36188	-0.083
Mof_H 	H 	0.7074	0.4935	0.36	0.056
Mof_C 	C 	0.7111	0.41584	0.3326	-0.081
Mof_H 	H 	0.7243	0.4227	0.3063	0.059
Mof_C 	C 	0.69707	0.36217	0.34874	0.096
Mof_C 	C 	0.69138	0.31198	0.32478	-0.14
Mof_C 	C 	0.67383	0.26124	0.34036	0.099
Mof_C 	C 	0.661	0.21085	0.31565	-0.104
Mof_H 	H 	0.6589	0.2064	0.2849	0.046
Mof_C 	C 	0.6523	0.17026	0.3437	-0.08
Mof_H 	H 	0.6415	0.1325	0.3362	0.055
Mof_C 	C 	0.6624	0.19514	0.38688	0.088
Mof_C 	C 	0.6692	0.16669	0.4272	-0.127
Mof_N 	N 	0.66761	0.24924	0.47487	-0.246
Mof_N 	N 	0.65313	0.36681	0.47373	-0.245
Mof_N 	N 	0.68134	0.36933	0.38862	-0.244
Mof_N 	N 	0.67089	0.2515	0.38278	-0.239
Mof_C 	C 	0.6289	0.30154	0.57849	0.181
Mof_C 	C 	0.6765	0.29829	0.61862	-0.236
Mof_H 	H 	0.7206	0.3007	0.619	0.112
Mof_C 	C 	0.6596	0.29153	0.65813	0.165
Mof_H 	H 	0.6923	0.2888	0.6855	-0.015
Mof_C 	C 	0.5956	0.28866	0.65821	-0.274
Mof_C 	C 	0.5486	0.2947	0.61882	0.181
Mof_H 	H 	0.5046	0.2946	0.6186	-0.041
Mof_C 	C 	0.566	0.3009	0.57882	-0.235
Mof_H 	H 	0.5333	0.3047	0.5515	0.115
Mof_C 	C 	0.5784	0.27874	0.7004	0.539
Mof_O 	O 	0.62266	0.27656	0.73648	-0.575
Mof_O 	O 	0.51939	0.27305	0.69942	-0.662
Mof_C 	C 	0.6615	0.51303	0.42948	0.146
Mof_C 	C 	0.6068	0.53965	0.40338	-0.199
Mof_H 	H 	0.5688	0.5189	0.3907	0.096
Mof_C 	C 	0.608	0.59618	0.39599	0.122
Mof_H 	H 	0.571	0.6139	0.3774	-0.024
Mof_C 	C 	0.6624	0.62744	0.41531	-0.205
Mof_C 	C 	0.7165	0.60111	0.44313	0.121
Mof_H 	H 	0.7536	0.6223	0.4572	0.013
Mof_C 	C 	0.7158	0.54469	0.45012	-0.19
Mof_H 	H 	0.7526	0.527	0.4691	0.102
Mof_C 	C 	0.6653	0.68791	0.40744	0.431
Mof_O 	O 	0.71407	0.71484	0.42715	-0.486
Mof_O 	O 	0.61703	0.71147	0.38014	-0.665
Mof_C 	C 	0.7103	0.31325	0.28202	0.125
Mof_C 	C 	0.7737	0.32477	0.28245	-0.173
Mof_H 	H 	0.8041	0.3339	0.3099	0.089
Mof_C 	C 	0.7931	0.32306	0.24354	0.105
Mof_H 	H 	0.8365	0.3308	0.2443	-0.005
Mof_C 	C 	0.7488	0.30998	0.20344	-0.182
Mof_C 	C 	0.685	0.30166	0.20203	0.081
Mof_H 	H 	0.6543	0.2952	0.1742	0.01
Mof_C 	C 	0.6649	0.30274	0.24146	-0.164
Mof_H 	H 	0.6211	0.2964	0.2404	0.071
Mof_C 	C 	0.7705	0.30318	0.16187	0.414
Mof_O 	O 	0.83067	0.2947	0.16631	-0.723
Mof_O 	O 	0.73156	0.30567	0.12386	-0.429
Mof_C 	C 	0.669	0.10463	0.42564	0.111
Mof_C 	C 	0.6232	0.07388	0.44016	-0.143
Mof_H 	H 	0.5925	0.0927	0.4517	0.081
Mof_C 	C 	0.6224	0.01658	0.43773	0.045
Mof_H 	H 	0.5914	0.996	0.4477	0.024
Mof_C 	C 	0.6674	0.98866	0.42065	-0.105
Mof_C 	C 	0.7128	0.01916	0.40645	0.048
Mof_H 	H 	0.7435	0.0005	0.3949	0.029
Mof_C 	C 	0.7134	0.07688	0.40914	-0.145
Mof_H 	H 	0.7448	0.0974	0.3995	0.081
Mof_C 	C 	0.6681	0.92655	0.4181	0.305
Mof_O 	O 	0.6933	0.90322	0.39035	-0.45
Mof_O 	O 	0.6445	0.89718	0.4442	-0.43
Mof_Cu	Cu	0.6683	0.30977	0.4306	0.86
Mof_C 	C 	0.50199	0.65422	0.71024	0.098
Mof_C 	C 	0.5081	0.62741	0.67059	-0.079
Mof_H 	H 	0.5075	0.5884	0.6654	0.057
Mof_C 	C 	0.515	0.66768	0.64176	-0.092
Mof_H 	H 	0.5205	0.6621	0.6128	0.059
Mof_C 	C 	0.5125	0.72018	0.66287	0.094
Mof_C 	C 	0.52096	0.77182	0.64455	-0.15
Mof_C 	C 	0.5165	0.82399	0.66418	0.098
Mof_C 	C 	0.5195	0.87692	0.64278	-0.078
Mof_H 	H 	0.5251	0.8827	0.6139	0.059
Mof_C 	C 	0.5126	0.91686	0.67208	-0.083
Mof_H 	H 	0.5121	0.9559	0.6671	0.06
Mof_C 	C 	0.50614	0.89007	0.71147	0.103
Mof_N 	N 	0.50355	0.71119	0.70461	-0.239
Mof_N 	N 	0.50862	0.83294	0.70602	-0.242
Mof_C 	C 	0.4497	0.53456	0.72201	-0.215
Mof_H 	H 	0.4147	0.5538	0.7026	0.105
Mof_C 	C 	0.45	0.47709	0.72198	0.147
Mof_H 	H 	0.4154	0.4575	0.7024	-0.021
Mof_O 	O 	0.54841	0.36076	0.77498	-0.588
Mof_C 	C 	0.5366	0.7733	0.60056	0.147
Mof_C 	C 	0.5988	0.7764	0.59793	-0.186
Mof_H 	H 	0.6326	0.7751	0.6249	0.094
Mof_C 	C 	0.6145	0.7811	0.55848	0.116
Mof_H 	H 	0.6583	0.7829	0.5581	0.017
Mof_C 	C 	0.566	0.7833	0.51915	-0.173
Mof_C 	C 	0.5044	0.7803	0.52129	0.104
Mof_H 	H 	0.4704	0.7824	0.4945	0.008
Mof_C 	C 	0.4902	0.7743	0.5614	-0.192
Mof_H 	H 	0.4465	0.7707	0.5616	0.083
Mof_C 	C 	0.5796	0.7897	0.4729	0.456
Mof_O 	O 	0.5334	0.8041	0.441	-0.352
Mof_O 	O 	0.6329	0.78126	0.47045	-0.543
Mof_C 	C 	0.4472	0.00826	0.72455	-0.205
Mof_H 	H 	0.4109	0.9886	0.707	0.1
Mof_C 	C 	0.4472	0.06656	0.72463	0.135
Mof_H 	H 	0.4108	0.0862	0.7072	-0.016
Mof_O 	O 	0.45009	0.18263	0.72745	-0.589
Mof_O 	O 	0.769	0.8372	0.4639	-0.29
Mof_O 	O 	0.7708	0.1949	0.9779	-0.094
Mof_Eu	Eu	0.91378	0.77081	0.69866	2.301
Mof_Eu	Eu	0.82479	0.30957	0.08727	2.249
Mof_C 	C 	0.8243	0.69258	0.03066	0.089
Mof_C 	C 	0.8167	0.66443	0.98909	-0.095
Mof_H 	H 	0.8077	0.626	0.9835	0.054
Mof_C 	C 	0.8247	0.7028	0.95935	-0.11
Mof_H 	H 	0.8232	0.6963	0.929	0.06
Mof_C 	C 	0.8359	0.75537	0.98235	0.106
Mof_C 	C 	0.854	0.80533	0.96511	-0.159
Mof_C 	C 	0.8605	0.85695	0.98629	0.109
Mof_C 	C 	0.8764	0.90842	0.96904	-0.082
Mof_H 	H 	0.8888	0.9132	0.9422	0.062
Mof_C 	C 	0.8707	0.949	0.99745	-0.078
Mof_H 	H 	0.8784	0.9875	0.9944	0.065
Mof_C 	C 	0.851	0.92324	0.03335	0.107
Mof_C 	C 	0.8357	0.9508	0.06858	-0.147
Mof_C 	C 	0.8174	0.92506	0.10352	0.104
Mof_C 	C 	0.798	0.95438	0.13812	-0.083
Mof_H 	H 	0.7926	0.9935	0.14	0.056
Mof_C 	C 	0.7889	0.91584	0.1674	-0.081
Mof_H 	H 	0.7757	0.9227	0.1937	0.059
Mof_C 	C 	0.80293	0.86217	0.15126	0.097
Mof_C 	C 	0.80862	0.81198	0.17522	-0.139
Mof_C 	C 	0.82617	0.76124	0.15964	0.1
Mof_C 	C 	0.839	0.71085	0.18435	-0.102
Mof_H 	H 	0.8411	0.7064	0.2151	0.047
Mof_C 	C 	0.8477	0.67026	0.1563	-0.079
Mof_H 	H 	0.8585	0.6325	0.1638	0.058
Mof_C 	C 	0.8376	0.69514	0.11312	0.091
Mof_C 	C 	0.8308	0.66669	0.0728	-0.126
Mof_N 	N 	0.83239	0.74924	0.02513	-0.244
Mof_N 	N 	0.84687	0.86681	0.02627	-0.244
Mof_N 	N 	0.81866	0.86933	0.11138	-0.243
Mof_N 	N 	0.82911	0.7515	0.11722	-0.238
Mof_C 	C 	0.8711	0.80154	0.92151	0.18
Mof_C 	C 	0.8235	0.79829	0.88138	-0.234
Mof_H 	H 	0.7794	0.8007	0.881	0.112
Mof_C 	C 	0.8404	0.79153	0.84187	0.163
Mof_H 	H 	0.8077	0.7888	0.8145	-0.015
Mof_C 	C 	0.9044	0.78866	0.84179	-0.27
Mof_C 	C 	0.9514	0.7947	0.88118	0.18
Mof_H 	H 	0.9954	0.7946	0.8814	-0.035
Mof_C 	C 	0.934	0.8009	0.92118	-0.232
Mof_H 	H 	0.9667	0.8047	0.9485	0.119
Mof_C 	C 	0.9216	0.77874	0.7996	0.537
Mof_O 	O 	0.87734	0.77656	0.76352	-0.575
Mof_O 	O 	0.98061	0.77305	0.80058	-0.651
Mof_C 	C 	0.8385	0.01303	0.07052	0.146
Mof_C 	C 	0.8932	0.03965	0.09662	-0.198
Mof_H 	H 	0.9312	0.0189	0.1093	0.099
Mof_C 	C 	0.892	0.09618	0.10401	0.122
Mof_H 	H 	0.929	0.1139	0.1226	-0.021
Mof_C 	C 	0.8376	0.12744	0.08469	-0.204
Mof_C 	C 	0.7835	0.10111	0.05687	0.121
Mof_H 	H 	0.7464	0.1223	0.0428	0.013
Mof_C 	C 	0.7842	0.04469	0.04988	-0.19
Mof_H 	H 	0.7474	0.027	0.0309	0.102
Mof_C 	C 	0.8347	0.18791	0.09256	0.431
Mof_O 	O 	0.78593	0.21484	0.07285	-0.487
Mof_O 	O 	0.88297	0.21147	0.11986	-0.663
Mof_C 	C 	0.7897	0.81325	0.21798	0.126
Mof_C 	C 	0.7263	0.82477	0.21755	-0.173
Mof_H 	H 	0.6959	0.8339	0.1901	0.088
Mof_C 	C 	0.7069	0.82306	0.25646	0.105
Mof_H 	H 	0.6635	0.8308	0.2557	-0.006
Mof_C 	C 	0.7512	0.80998	0.29656	-0.181
Mof_C 	C 	0.815	0.80166	0.29797	0.081
Mof_H 	H 	0.8457	0.7952	0.3258	0.01
Mof_C 	C 	0.8351	0.80274	0.25854	-0.164
Mof_H 	H 	0.8789	0.7964	0.2596	0.073
Mof_C 	C 	0.7295	0.80318	0.33813	0.414
Mof_O 	O 	0.66933	0.7947	0.33369	-0.722
Mof_O 	O 	0.76844	0.80567	0.37614	-0.428
Mof_C 	C 	0.831	0.60463	0.07436	0.112
Mof_C 	C 	0.8768	0.57388	0.05984	-0.143
Mof_H 	H 	0.9075	0.5927	0.0483	0.085
Mof_C 	C 	0.8776	0.51658	0.06227	0.047
Mof_H 	H 	0.9086	0.496	0.0523	0.026
Mof_C 	C 	0.8326	0.48866	0.07935	-0.105
Mof_C 	C 	0.7872	0.51916	0.09355	0.049
Mof_H 	H 	0.7565	0.5005	0.1051	0.029
Mof_C 	C 	0.7866	0.57688	0.09086	-0.145
Mof_H 	H 	0.7552	0.5974	0.1005	0.081
Mof_C 	C 	0.8319	0.42655	0.0819	0.305
Mof_O 	O 	0.8067	0.40322	0.10965	-0.45
Mof_O 	O 	0.8555	0.39718	0.0558	-0.429
Mof_Cu	Cu	0.8317	0.80977	0.0694	0.862
Mof_C 	C 	0.99801	0.15422	0.78976	0.119
Mof_C 	C 	0.9919	0.12741	0.82941	-0.082
Mof_H 	H 	0.9925	0.0884	0.8346	0.064
Mof_C 	C 	0.985	0.16768	0.85824	-0.094
Mof_H 	H 	0.9795	0.1621	0.8872	0.063
Mof_C 	C 	0.9875	0.22018	0.83713	0.107
Mof_C 	C 	0.97904	0.27182	0.85545	-0.177
Mof_C 	C 	0.9835	0.32399	0.83582	0.111
Mof_C 	C 	0.9805	0.37692	0.85722	-0.078
Mof_H 	H 	0.9749	0.3827	0.8861	0.063
Mof_C 	C 	0.9874	0.41686	0.82792	-0.087
Mof_H 	H 	0.9879	0.4559	0.8329	0.067
Mof_C 	C 	0.99386	0.39007	0.78853	0.124
Mof_N 	N 	0.99645	0.21119	0.79539	-0.238
Mof_N 	N 	0.99138	0.33294	0.79398	-0.242
Mof_C 	C 	0.0503	0.03456	0.77799	-0.216
Mof_H 	H 	0.0853	0.0538	0.7974	0.104
Mof_C 	C 	0.05	0.97709	0.77802	0.148
Mof_H 	H 	0.0846	0.9575	0.7976	-0.022
Mof_O 	O 	0.95159	0.86076	0.72502	-0.574
Mof_C 	C 	0.9634	0.2733	0.89944	0.23
Mof_C 	C 	0.9012	0.2764	0.90207	-0.253
Mof_H 	H 	0.8674	0.2751	0.8751	0.117
Mof_C 	C 	0.8855	0.2811	0.94152	0.182
Mof_H 	H 	0.8417	0.2829	0.9419	-0.005
Mof_C 	C 	0.934	0.2833	0.98085	-0.24
Mof_C 	C 	0.9956	0.2803	0.97871	0.232
Mof_H 	H 	0.0296	0.2824	0.0055	-0.043
Mof_C 	C 	0.0098	0.2743	0.9386	-0.32
Mof_H 	H 	0.0535	0.2707	0.9384	0.122
Mof_C 	C 	0.9204	0.2897	0.0271	0.481
Mof_O 	O 	0.9666	0.3041	0.059	-0.35
Mof_O 	O 	0.8671	0.28126	0.02955	-0.549
Mof_C 	C 	0.0528	0.50826	0.77545	-0.207
Mof_H 	H 	0.0891	0.4886	0.793	0.099
Mof_C 	C 	0.0528	0.56656	0.77537	0.137
Mof_H 	H 	0.0892	0.5862	0.7928	-0.017
Mof_O 	O 	0.04991	0.68263	0.77255	-0.586
Mof_O 	O 	0.731	0.3372	0.0361	-0.291
Mof_O 	O 	0.7292	0.6949	0.5221	-0.094
Mof_Eu	Eu	0.41378	0.27081	0.69866	2.286
Mof_Eu	Eu	0.32479	0.80957	0.08727	2.244
Mof_C 	C 	0.3243	0.19258	0.03066	0.087
Mof_C 	C 	0.3167	0.16443	0.98909	-0.095
Mof_H 	H 	0.3077	0.126	0.9835	0.054
Mof_C 	C 	0.3247	0.2028	0.95935	-0.11
Mof_H 	H 	0.3232	0.1963	0.929	0.059
Mof_C 	C 	0.3359	0.25537	0.98235	0.106
Mof_C 	C 	0.354	0.30533	0.96511	-0.159
Mof_C 	C 	0.3605	0.35695	0.98629	0.108
Mof_C 	C 	0.3764	0.40842	0.96904	-0.083
Mof_H 	H 	0.3888	0.4132	0.9422	0.06
Mof_C 	C 	0.3707	0.449	0.99745	-0.079
Mof_H 	H 	0.3784	0.4875	0.9944	0.064
Mof_C 	C 	0.351	0.42324	0.03335	0.105
Mof_C 	C 	0.3357	0.4508	0.06858	-0.149
Mof_C 	C 	0.3174	0.42506	0.10352	0.103
Mof_C 	C 	0.298	0.45438	0.13812	-0.084
Mof_H 	H 	0.2926	0.4935	0.14	0.056
Mof_C 	C 	0.2889	0.41584	0.1674	-0.081
Mof_H 	H 	0.2757	0.4227	0.1937	0.058
Mof_C 	C 	0.30293	0.36217	0.15126	0.096
Mof_C 	C 	0.30862	0.31198	0.17522	-0.14
Mof_C 	C 	0.32617	0.26124	0.15964	0.099
Mof_C 	C 	0.339	0.21085	0.18435	-0.104
Mof_H 	H 	0.3411	0.2064	0.2151	0.046
Mof_C 	C 	0.3477	0.17026	0.1563	-0.08
Mof_H 	H 	0.3585	0.1325	0.1638	0.055
Mof_C 	C 	0.3376	0.19514	0.11312	0.088
Mof_C 	C 	0.3308	0.16669	0.0728	-0.127
Mof_N 	N 	0.33239	0.24924	0.02513	-0.246
Mof_N 	N 	0.34687	0.36681	0.02627	-0.244
Mof_N 	N 	0.31866	0.36933	0.11138	-0.244
Mof_N 	N 	0.32911	0.2515	0.11722	-0.239
Mof_C 	C 	0.3711	0.30154	0.92151	0.181
Mof_C 	C 	0.3235	0.29829	0.88138	-0.236
Mof_H 	H 	0.2794	0.3007	0.881	0.112
Mof_C 	C 	0.3404	0.29153	0.84187	0.165
Mof_H 	H 	0.3077	0.2888	0.8145	-0.015
Mof_C 	C 	0.4044	0.28866	0.84179	-0.274
Mof_C 	C 	0.4514	0.2947	0.88118	0.181
Mof_H 	H 	0.4954	0.2946	0.8814	-0.041
Mof_C 	C 	0.434	0.3009	0.92118	-0.234
Mof_H 	H 	0.4667	0.3047	0.9485	0.115
Mof_C 	C 	0.4216	0.27874	0.7996	0.539
Mof_O 	O 	0.37734	0.27656	0.76352	-0.575
Mof_O 	O 	0.48061	0.27305	0.80058	-0.662
Mof_C 	C 	0.3385	0.51303	0.07052	0.147
Mof_C 	C 	0.3932	0.53965	0.09662	-0.199
Mof_H 	H 	0.4312	0.5189	0.1093	0.096
Mof_C 	C 	0.392	0.59618	0.10401	0.123
Mof_H 	H 	0.429	0.6139	0.1226	-0.025
Mof_C 	C 	0.3376	0.62744	0.08469	-0.205
Mof_C 	C 	0.2835	0.60111	0.05687	0.121
Mof_H 	H 	0.2464	0.6223	0.0428	0.012
Mof_C 	C 	0.2842	0.54469	0.04988	-0.19
Mof_H 	H 	0.2474	0.527	0.0309	0.102
Mof_C 	C 	0.3347	0.68791	0.09256	0.432
Mof_O 	O 	0.28593	0.71484	0.07285	-0.488
Mof_O 	O 	0.38297	0.71147	0.11986	-0.665
Mof_C 	C 	0.2897	0.31325	0.21798	0.124
Mof_C 	C 	0.2263	0.32477	0.21755	-0.172
Mof_H 	H 	0.1959	0.3339	0.1901	0.087
Mof_C 	C 	0.2069	0.32306	0.25646	0.103
Mof_H 	H 	0.1635	0.3308	0.2557	-0.006
Mof_C 	C 	0.2512	0.30998	0.29656	-0.18
Mof_C 	C 	0.315	0.30166	0.29797	0.08
Mof_H 	H 	0.3457	0.2952	0.3258	0.011
Mof_C 	C 	0.3351	0.30274	0.25854	-0.163
Mof_H 	H 	0.3789	0.2964	0.2596	0.071
Mof_C 	C 	0.2295	0.30318	0.33813	0.413
Mof_O 	O 	0.16933	0.2947	0.33369	-0.719
Mof_O 	O 	0.26844	0.30567	0.37614	-0.428
Mof_C 	C 	0.331	0.10463	0.07436	0.11
Mof_C 	C 	0.3768	0.07388	0.05984	-0.142
Mof_H 	H 	0.4075	0.0927	0.0483	0.081
Mof_C 	C 	0.3776	0.01658	0.06227	0.044
Mof_H 	H 	0.4086	0.996	0.0523	0.024
Mof_C 	C 	0.3326	0.98866	0.07935	-0.104
Mof_C 	C 	0.2872	0.01916	0.09355	0.047
Mof_H 	H 	0.2565	0.0005	0.1051	0.028
Mof_C 	C 	0.2866	0.07688	0.09086	-0.144
Mof_H 	H 	0.2552	0.0974	0.1005	0.08
Mof_C 	C 	0.3319	0.92655	0.0819	0.304
Mof_O 	O 	0.3067	0.90322	0.10965	-0.45
Mof_O 	O 	0.3555	0.89718	0.0558	-0.43
Mof_Cu	Cu	0.3317	0.30977	0.0694	0.861
Mof_C 	C 	0.49801	0.65422	0.78976	0.098
Mof_C 	C 	0.4919	0.62741	0.82941	-0.079
Mof_H 	H 	0.4925	0.5884	0.8346	0.057
Mof_C 	C 	0.485	0.66768	0.85824	-0.092
Mof_H 	H 	0.4795	0.6621	0.8872	0.059
Mof_C 	C 	0.4875	0.72018	0.83713	0.094
Mof_C 	C 	0.47904	0.77182	0.85545	-0.15
Mof_C 	C 	0.4835	0.82399	0.83582	0.098
Mof_C 	C 	0.4805	0.87692	0.85722	-0.078
Mof_H 	H 	0.4749	0.8827	0.8861	0.059
Mof_C 	C 	0.4874	0.91686	0.82792	-0.083
Mof_H 	H 	0.4879	0.9559	0.8329	0.06
Mof_C 	C 	0.49386	0.89007	0.78853	0.103
Mof_N 	N 	0.49645	0.71119	0.79539	-0.239
Mof_N 	N 	0.49138	0.83294	0.79398	-0.242
Mof_C 	C 	0.5503	0.53456	0.77799	-0.215
Mof_H 	H 	0.5853	0.5538	0.7974	0.105
Mof_C 	C 	0.55	0.47709	0.77802	0.147
Mof_H 	H 	0.5846	0.4575	0.7976	-0.021
Mof_O 	O 	0.45159	0.36076	0.72502	-0.588
Mof_C 	C 	0.4634	0.7733	0.89944	0.146
Mof_C 	C 	0.4012	0.7764	0.90207	-0.185
Mof_H 	H 	0.3674	0.7751	0.8751	0.094
Mof_C 	C 	0.3855	0.7811	0.94152	0.116
Mof_H 	H 	0.3417	0.7829	0.9419	0.017
Mof_C 	C 	0.434	0.7833	0.98085	-0.173
Mof_C 	C 	0.4956	0.7803	0.97871	0.1
Mof_H 	H 	0.5296	0.7824	0.0055	0.01
Mof_C 	C 	0.5098	0.7743	0.9386	-0.19
Mof_H 	H 	0.5535	0.7707	0.9384	0.082
Mof_C 	C 	0.4204	0.7897	0.0271	0.456
Mof_O 	O 	0.4666	0.8041	0.059	-0.352
Mof_O 	O 	0.3671	0.78126	0.02955	-0.542
Mof_C 	C 	0.5528	0.00826	0.77545	-0.205
Mof_H 	H 	0.5891	0.9886	0.793	0.1
Mof_C 	C 	0.5528	0.06656	0.77537	0.135
Mof_H 	H 	0.5892	0.0862	0.7928	-0.016
Mof_O 	O 	0.54991	0.18263	0.77255	-0.589
Mof_O 	O 	0.231	0.8372	0.0361	-0.291
Mof_O 	O 	0.2292	0.1949	0.5221	-0.096
Mof_C 	C 	1.46397e-17	0.8733	0.25	-0.161
Mof_C 	C 	1.46397e-17	0.5834	0.25	-0.168
Mof_C 	C 	1.46397e-17	0.935	0.25	0.146
Mof_C 	C 	1.46397e-17	0.0522	0.25	-0.259
Mof_C 	C 	1.71848e-33	0.1153	0.25	0.527
Mof_C 	C 	2.92794e-17	0.5211	0.25	0.14
Mof_C 	C 	1.71848e-33	0.4042	0.25	-0.262
Mof_C 	C 	1.71848e-33	0.3421	0.25	0.517
Mof_C 	C 	0.5	0.3733	0.25	-0.144
Mof_C 	C 	0.5	0.0834	0.25	-0.15
Mof_C 	C 	0.5	0.435	0.25	0.159
Mof_C 	C 	0.5	0.5522	0.25	-0.244
Mof_C 	C 	0.5	0.6153	0.25	0.543
Mof_C 	C 	0.5	0.0211	0.25	0.152
Mof_C 	C 	0.5	0.9042	0.25	-0.247
Mof_C 	C 	0.5	0.8421	0.25	0.533
Mof_C 	C 	5.85588e-17	0.1267	0.75	-0.161
Mof_C 	C 	1.17118e-16	0.4166	0.75	-0.168
Mof_C 	C 	5.85588e-17	0.065	0.75	0.146
Mof_C 	C 	1.17118e-16	0.9478	0.75	-0.259
Mof_C 	C 	5.85588e-17	0.8847	0.75	0.527
Mof_C 	C 	5.85588e-17	0.4789	0.75	0.14
Mof_C 	C 	5.85588e-17	0.5958	0.75	-0.262
Mof_C 	C 	5.85588e-17	0.6579	0.75	0.517
Mof_C 	C 	0.5	0.6267	0.75	-0.144
Mof_C 	C 	0.5	0.9166	0.75	-0.15
Mof_C 	C 	0.5	0.565	0.75	0.159
Mof_C 	C 	0.5	0.4478	0.75	-0.244
Mof_C 	C 	0.5	0.3847	0.75	0.543
Mof_C 	C 	0.5	0.9789	0.75	0.153
Mof_C 	C 	0.5	0.0958	0.75	-0.247
Mof_C 	C 	0.5	0.1579	0.75	0.533
Mof_Cu	Cu	0.5	0.2268	0.25	0.854
Mof_Cu	Cu	1.46397e-17	0.7268	0.25	0.847
Mof_Cu	Cu	0.5	0.7732	0.75	0.854
Mof_Cu	Cu	5.85588e-17	0.2732	0.75	0.847
_end
