# CIF file generated by openbabel 3.1.0, see https://openbabel.org
data_I
_chemical_name_common 'image0'
_cell_length_a 7.2104
_cell_length_b 13.637
_cell_length_c 17.379
_cell_angle_alpha 90
_cell_angle_beta 100.657
_cell_angle_gamma 90
_space_group_name_H-M_alt 'P 1'
_space_group_name_Hall 'P 1'
loop_
    _symmetry_equiv_pos_as_xyz
    x,y,z
loop_
    _atom_site_label
    _atom_site_type_symbol
    _atom_site_fract_x
    _atom_site_fract_y
    _atom_site_fract_z
    _atom_site_occupancy
    In1      In       0.46697    0.09877    0.44673    1.000
    O1       O        0.57410    0.15840    0.56190    1.000
    O2       O        0.68090    0.01970    0.62580    1.000
    O3       O        0.98620    0.12000    0.57380    1.000
    O4       O        0.25450    0.11130    0.66240    1.000
    O5       O        0.23220    0.30630    0.91310    1.000
    O6       O        0.97620    0.40480    0.90030    1.000
    O7       O        0.66390    0.28080    0.92190    1.000
    O8       O        0.53230    0.37600    0.82560    1.000
    O9       O        0.69130    0.98770    0.47130    1.000
    C1       C        0.77960    0.17020    0.68440    1.000
    C2       C        0.97620    0.17760    0.69960    1.000
    C3       C        0.06910    0.22460    0.76590    1.000
    H1       H        0.20310    0.22670    0.77710    1.000
    C4       C        0.96510    0.26870    0.81600    1.000
    C5       C        0.76640    0.26310    0.79990    1.000
    C6       C        0.67530    0.21410    0.73430    1.000
    H2       H        0.54150    0.21040    0.72340    1.000
    C7       C        0.67180    0.11180    0.61750    1.000
    C8       C        0.08560    0.13290    0.64150    1.000
    C9       C        0.06400    0.33180    0.88260    1.000
    C10      C        0.65020    0.31050    0.85250    1.000
    In2      In       0.53303    0.59877    0.05327    1.000
    O10      O        0.42590    0.65840    0.93810    1.000
    O11      O        0.31910    0.51970    0.87420    1.000
    O12      O        0.01380    0.62000    0.92620    1.000
    O13      O        0.74550    0.61130    0.83760    1.000
    O14      O        0.76780    0.80630    0.58690    1.000
    O15      O        0.02380    0.90480    0.59970    1.000
    O16      O        0.33610    0.78080    0.57810    1.000
    O17      O        0.46770    0.87600    0.67440    1.000
    O18      O        0.30870    0.48770    0.02870    1.000
    C11      C        0.22040    0.67020    0.81560    1.000
    C12      C        0.02380    0.67760    0.80040    1.000
    C13      C        0.93090    0.72460    0.73410    1.000
    H3       H        0.79690    0.72670    0.72290    1.000
    C14      C        0.03490    0.76870    0.68400    1.000
    C15      C        0.23360    0.76310    0.70010    1.000
    C16      C        0.32470    0.71410    0.76570    1.000
    H4       H        0.45850    0.71040    0.77660    1.000
    C17      C        0.32820    0.61180    0.88250    1.000
    C18      C        0.91440    0.63290    0.85850    1.000
    C19      C        0.93600    0.83180    0.61740    1.000
    C20      C        0.34980    0.81050    0.64750    1.000
    In3      In       0.53303    0.90123    0.55327    1.000
    O19      O        0.42590    0.84160    0.43810    1.000
    O20      O        0.31910    0.98030    0.37420    1.000
    O21      O        0.01380    0.88000    0.42620    1.000
    O22      O        0.74550    0.88870    0.33760    1.000
    O23      O        0.76780    0.69370    0.08690    1.000
    O24      O        0.02380    0.59520    0.09970    1.000
    O25      O        0.33610    0.71920    0.07810    1.000
    O26      O        0.46770    0.62400    0.17440    1.000
    O27      O        0.30870    0.01230    0.52870    1.000
    C21      C        0.22040    0.82980    0.31560    1.000
    C22      C        0.02380    0.82240    0.30040    1.000
    C23      C        0.93090    0.77540    0.23410    1.000
    H5       H        0.79690    0.77330    0.22290    1.000
    C24      C        0.03490    0.73130    0.18400    1.000
    C25      C        0.23360    0.73690    0.20010    1.000
    C26      C        0.32470    0.78590    0.26570    1.000
    H6       H        0.45850    0.78960    0.27660    1.000
    C27      C        0.32820    0.88820    0.38250    1.000
    C28      C        0.91440    0.86710    0.35850    1.000
    C29      C        0.93600    0.66820    0.11740    1.000
    C30      C        0.34980    0.68950    0.14750    1.000
    In4      In       0.46697    0.40123    0.94673    1.000
    O28      O        0.57410    0.34160    0.06190    1.000
    O29      O        0.68090    0.48030    0.12580    1.000
    O30      O        0.98620    0.38000    0.07380    1.000
    O31      O        0.25450    0.38870    0.16240    1.000
    O32      O        0.23220    0.19370    0.41310    1.000
    O33      O        0.97620    0.09520    0.40030    1.000
    O34      O        0.66390    0.21920    0.42190    1.000
    O35      O        0.53230    0.12400    0.32560    1.000
    O36      O        0.69130    0.51230    0.97130    1.000
    C31      C        0.77960    0.32980    0.18440    1.000
    C32      C        0.97620    0.32240    0.19960    1.000
    C33      C        0.06910    0.27540    0.26590    1.000
    H7       H        0.20310    0.27330    0.27710    1.000
    C34      C        0.96510    0.23130    0.31600    1.000
    C35      C        0.76640    0.23690    0.29990    1.000
    C36      C        0.67530    0.28590    0.23430    1.000
    H8       H        0.54150    0.28960    0.22340    1.000
    C37      C        0.67180    0.38820    0.11750    1.000
    C38      C        0.08560    0.36710    0.14150    1.000
    C39      C        0.06400    0.16820    0.38260    1.000
    C40      C        0.65020    0.18950    0.35250    1.000
    In5      In       0.00000    0.00000    0.50000    1.000
    In6      In       0.00000    0.50000    0.00000    1.000
