data_functionalizedCrystal
_audit_creation_method	'EQeq! by Chris Wilmer'
_symmetry_space_group_name_H-M	'P1'
_symmetry_Int_Tables_number	1
_symmetry_cell_setting	triclinic
loop_
_symmetry_equiv_pos_as_xyz
  x,y,z
_cell_length_a	7.794
_cell_length_b	17.524
_cell_length_c	13.763
_cell_angle_alpha	90
_cell_angle_beta	101.393
_cell_angle_gamma	90
loop_
_atom_site_label
_atom_site_type_symbol
_atom_site_fract_x
_atom_site_fract_y
_atom_site_fract_z
_atom_site_charge
Mof_Zn	Zn	0.7113	0.96279	0.99744	1.171
Mof_Zn	Zn	0.42933	0.90831	0.15391	1.176
Mof_Zn	Zn	0.9597	0.02325	0.82593	1.203
Mof_C 	C 	0.5235	0.1507	0.1466	-0.117
Mof_C 	C 	0.552	0.2046	0.0787	0.057
Mof_H 	H 	0.5742	0.1893	0.0177	0.034
Mof_C 	C 	0.5477	0.2822	0.1012	-0.117
Mof_C 	C 	0.5173	0.3056	0.1927	0.016
Mof_H 	H 	0.5148	0.3574	0.2072	0.014
Mof_C 	C 	0.4903	0.2511	0.264	-0.042
Mof_C 	C 	0.4866	0.1734	0.2383	0.012
Mof_H 	H 	0.4596	0.137	0.282	0.044
Mof_C 	C 	0.5301	0.0671	0.1216	0.399
Mof_C 	C 	0.5624	0.3402	0.0242	0.34
Mof_C 	C 	0.4608	0.2786	0.3629	0.082
Mof_C 	C 	0.3641	0.3476	0.3697	-0.134
Mof_H 	H 	0.3155	0.3747	0.3129	0.071
Mof_C 	C 	0.3446	0.3726	0.4604	0.049
Mof_H 	H 	0.2788	0.4164	0.4639	0.026
Mof_C 	C 	0.418	0.3359	0.5475	-0.121
Mof_C 	C 	0.5162	0.2699	0.5399	0.058
Mof_H 	H 	0.5706	0.2447	0.5972	0.028
Mof_C 	C 	0.5333	0.2419	0.4495	-0.139
Mof_H 	H 	0.5955	0.1969	0.4466	0.088
Mof_C 	C 	0.4014	0.3693	0.6465	0.348
Mof_C 	C 	0.9533	0.778	0.8639	-0.138
Mof_C 	C 	0.9586	0.7211	0.934	0.077
Mof_H 	H 	0.9371	0.7325	0.9965	0.03
Mof_C 	C 	0.9965	0.6466	0.9101	-0.136
Mof_C 	C 	0.0178	0.6287	0.8146	0.034
Mof_H 	H 	0.0348	0.5781	0.7983	0.019
Mof_C 	C 	0.0142	0.6852	0.7427	-0.056
Mof_C 	C 	0.9875	0.7614	0.7724	0.031
Mof_H 	H 	0.9934	0.801	0.7283	0.029
Mof_C 	C 	0.9063	0.8601	0.887	0.438
Mof_C 	C 	0.0206	0.5853	0.987	0.386
Mof_C 	C 	0.035	0.6658	0.6409	0.094
Mof_C 	C 	0.1225	0.6011	0.6198	-0.144
Mof_H 	H 	0.1783	0.5702	0.6714	0.088
Mof_C 	C 	0.1284	0.5815	0.5231	0.059
Mof_H 	H 	0.1828	0.5363	0.5109	0.028
Mof_C 	C 	0.0555	0.6276	0.4446	-0.125
Mof_C 	C 	0.971	0.6958	0.4663	0.056
Mof_H 	H 	0.9227	0.7285	0.4149	0.025
Mof_C 	C 	0.9598	0.714	0.5605	-0.143
Mof_H 	H 	0.9023	0.7584	0.5727	0.087
Mof_C 	C 	0.0602	0.6082	0.3385	0.338
Mof_O 	O 	0.4665	0.0183	0.1707	-0.488
Mof_O 	O 	0.6052	0.0526	0.0491	-0.492
Mof_O 	O 	0.5976	0.3197	0.9427	-0.459
Mof_O 	O 	0.5365	0.4109	0.0408	-0.514
Mof_O 	O 	0.2725	0.4088	0.6536	-0.309
Mof_O 	O 	0.5264	0.3536	0.7189	-0.462
Mof_O 	O 	0.83	0.8695	0.9574	-0.531
Mof_O 	O 	0.9455	0.9096	0.8311	-0.561
Mof_O 	O 	0.0155	0.6054	0.0742	-0.501
Mof_O 	O 	0.0452	0.5174	0.964	-0.512
Mof_O 	O 	0.0918	0.5412	0.3176	-0.476
Mof_O 	O 	0.0374	0.6603	0.275	-0.319
Mof_Zn	Zn	0.2887	0.46279	0.00256	1.186
Mof_Zn	Zn	0.57067	0.40831	0.84609	1.191
Mof_Zn	Zn	0.0403	0.52325	0.17407	1.188
Mof_C 	C 	0.4765	0.6507	0.8534	-0.13
Mof_C 	C 	0.448	0.7046	0.9213	0.069
Mof_H 	H 	0.4258	0.6893	0.9823	0.031
Mof_C 	C 	0.4523	0.7822	0.8988	-0.131
Mof_C 	C 	0.4827	0.8056	0.8073	0.028
Mof_H 	H 	0.4852	0.8574	0.7928	0.003
Mof_C 	C 	0.5097	0.7511	0.736	-0.053
Mof_C 	C 	0.5134	0.6734	0.7617	0.023
Mof_H 	H 	0.5404	0.637	0.718	0.035
Mof_C 	C 	0.4699	0.5671	0.8784	0.407
Mof_C 	C 	0.4376	0.8402	0.9758	0.36
Mof_C 	C 	0.5392	0.7786	0.6371	0.09
Mof_C 	C 	0.6359	0.8476	0.6303	-0.149
Mof_H 	H 	0.6845	0.8747	0.6871	0.068
Mof_C 	C 	0.6554	0.8726	0.5396	0.059
Mof_H 	H 	0.7212	0.9164	0.5361	0.005
Mof_C 	C 	0.582	0.8359	0.4525	-0.137
Mof_C 	C 	0.4838	0.7699	0.4601	0.066
Mof_H 	H 	0.4294	0.7447	0.4028	0.021
Mof_C 	C 	0.4667	0.7419	0.5505	-0.151
Mof_H 	H 	0.4045	0.6969	0.5534	0.09
Mof_C 	C 	0.5986	0.8693	0.3535	0.351
Mof_C 	C 	0.0467	0.278	0.1361	-0.126
Mof_C 	C 	0.0414	0.2211	0.066	0.062
Mof_H 	H 	0.0629	0.2325	0.0035	0.035
Mof_C 	C 	0.0035	0.1466	0.0899	-0.113
Mof_C 	C 	0.9822	0.1287	0.1854	0.015
Mof_H 	H 	0.9652	0.0781	0.2017	0.033
Mof_C 	C 	0.9858	0.1852	0.2573	-0.044
Mof_C 	C 	0.0125	0.2614	0.2276	0.022
Mof_H 	H 	0.0066	0.301	0.2717	0.036
Mof_C 	C 	0.0937	0.3601	0.113	0.43
Mof_C 	C 	0.9794	0.0853	0.013	0.362
Mof_C 	C 	0.965	0.1658	0.3591	0.083
Mof_C 	C 	0.8775	0.1011	0.3802	-0.129
Mof_H 	H 	0.8217	0.0702	0.3286	0.093
Mof_C 	C 	0.8716	0.0815	0.4769	0.05
Mof_H 	H 	0.8172	0.0363	0.4891	0.051
Mof_C 	C 	0.9445	0.1276	0.5554	-0.111
Mof_C 	C 	0.029	0.1958	0.5337	0.05
Mof_H 	H 	0.0773	0.2285	0.5851	0.031
Mof_C 	C 	0.0402	0.214	0.4395	-0.129
Mof_H 	H 	0.0977	0.2584	0.4273	0.085
Mof_C 	C 	0.9398	0.1082	0.6615	0.333
Mof_O 	O 	0.5335	0.5183	0.8293	-0.521
Mof_O 	O 	0.3948	0.5526	0.9509	-0.513
Mof_O 	O 	0.4024	0.8197	0.0573	-0.481
Mof_O 	O 	0.4635	0.9109	0.9592	-0.536
Mof_O 	O 	0.7275	0.9088	0.3464	-0.337
Mof_O 	O 	0.4736	0.8536	0.2811	-0.477
Mof_O 	O 	0.17	0.3695	0.0426	-0.519
Mof_O 	O 	0.0545	0.4096	0.1689	-0.534
Mof_O 	O 	0.9845	0.1054	0.9258	-0.479
Mof_O 	O 	0.9548	0.0174	0.036	-0.481
Mof_O 	O 	0.9082	0.0412	0.6824	-0.449
Mof_O 	O 	0.9626	0.1603	0.725	-0.311
_end
