data_functionalizedCrystal
_audit_creation_method	'EQeq! by Chris Wilmer'
_symmetry_space_group_name_H-M	'P1'
_symmetry_Int_Tables_number	1
_symmetry_cell_setting	triclinic
loop_
_symmetry_equiv_pos_as_xyz
  x,y,z
_cell_length_a	18.9895
_cell_length_b	28.481
_cell_length_c	16.9587
_cell_angle_alpha	90
_cell_angle_beta	119.896
_cell_angle_gamma	90
loop_
_atom_site_label
_atom_site_type_symbol
_atom_site_fract_x
_atom_site_fract_y
_atom_site_fract_z
_atom_site_charge
Mof_Cd	Cd	0.40033	0.63052	0.37225	0.256
Mof_Na	Na	0.20235	0.60864	0.28182	3.072
Mof_O 	O 	0.4384	0.43126	0.974	-0.329
Mof_O 	O 	0.4059	0.59183	0.2623	-0.782
Mof_O 	O 	0.2883	0.5626	0.232	-0.729
Mof_O 	O 	0.2879	0.67119	0.2804	-0.775
Mof_O 	O 	0.034	0.83807	0.923	-0.716
Mof_O 	O 	0.9657	0.81429	0.9889	-0.202
Mof_O 	O 	0.3156	0.40475	0.9296	-0.695
Mof_O 	O 	0.3684	0.70583	0.2397	-0.867
Mof_O 	O 	0.8694	0.66346	0.1764	-0.673
Mof_O 	O 	0.9472	0.5754	0.136	-0.33
Mof_O 	O 	0.95	0.6957	0.1345	-0.272
Mof_C 	C 	0.3469	0.564	0.221	0.635
Mof_C 	C 	0.8272	0.7575	0.0162	-0.02
Mof_H 	H 	0.8807	0.7628	0.0271	0.069
Mof_C 	C 	0.3015	0.6997	0.2333	0.668
Mof_C 	C 	0.3523	0.5301	0.1546	-0.306
Mof_C 	C 	0.8139	0.7224	0.0625	-0.148
Mof_C 	C 	0.2352	0.7565	0.1023	0.11
Mof_H 	H 	0.2838	0.7566	0.0991	-0.076
Mof_C 	C 	0.3731	0.4325	0.975	0.424
Mof_C 	C 	0.158	0.7281	0.168	0.136
Mof_H 	H 	0.1529	0.7084	0.21	-0.099
Mof_C 	C 	0.0278	0.8135	0.9813	0.25
Mof_C 	C 	0.0988	0.7835	0.045	-0.055
Mof_O 	O 	0.0734	0.5898	0.1772	-0.84
Mof_C 	C 	0.1699	0.7835	0.0425	-0.115
Mof_H 	H 	0.1743	0.8024	0.999	-0.014
Mof_C 	C 	0.2946	0.4962	0.1115	0.093
Mof_H 	H 	0.25	0.494	0.122	-0.03
Mof_C 	C 	0.735	0.715	0.0456	0.042
Mof_H 	H 	0.7245	0.6909	0.0769	-0.032
Mof_C 	C 	0.4204	0.5023	0.0762	-0.116
Mof_H 	H 	0.4639	0.505	0.0639	0.073
Mof_C 	C 	0.4146	0.534	0.1363	0.153
Mof_H 	H 	0.4539	0.5581	0.1642	-0.133
Mof_C 	C 	0.2301	0.7292	0.1667	-0.335
Mof_C 	C 	0.3635	0.4675	0.0353	-0.082
Mof_C 	C 	0.8819	0.6919	0.1291	0.481
Mof_C 	C 	0.0933	0.7556	0.1084	-0.15
Mof_H 	H 	0.0445	0.7553	0.1109	0.052
Mof_C 	C 	0.3006	0.4651	0.053	-0.089
Mof_H 	H 	0.2604	0.4414	0.0244	0.018
Mof_C 	C 	0.0052	0.5328	0.0628	-0.489
Mof_C 	C 	0.9339	0.5071	0.0113	0.335
Mof_H 	H 	0.8885	0.512	0.0194	-0.093
Mof_C 	C 	0.0704	0.5248	0.0503	0.287
Mof_H 	H 	0.1193	0.542	0.0854	-0.144
Mof_C 	C 	0.0096	0.5686	0.1304	0.507
Mof_Cd	Cd	0.90033	0.13052	0.37225	0.315
Mof_Na	Na	0.70235	0.10864	0.28182	3.086
Mof_O 	O 	0.9384	0.93126	0.974	-0.29
Mof_O 	O 	0.9059	0.09183	0.2623	-0.688
Mof_O 	O 	0.7883	0.0626	0.232	-0.716
Mof_O 	O 	0.7879	0.17119	0.2804	-0.759
Mof_O 	O 	0.534	0.33807	0.923	-0.775
Mof_O 	O 	0.4657	0.31429	0.9889	-0.333
Mof_O 	O 	0.8156	0.90475	0.9296	-0.694
Mof_O 	O 	0.8684	0.20583	0.2397	-0.757
Mof_O 	O 	0.3694	0.16346	0.1764	-0.7
Mof_O 	O 	0.4472	0.0754	0.136	-0.441
Mof_O 	O 	0.45	0.1957	0.1345	-0.342
Mof_C 	C 	0.8469	0.064	0.221	0.609
Mof_C 	C 	0.3272	0.2575	0.0162	-0.02
Mof_H 	H 	0.3807	0.2628	0.0271	0.053
Mof_C 	C 	0.8015	0.1997	0.2333	0.628
Mof_C 	C 	0.8523	0.0301	0.1546	-0.266
Mof_C 	C 	0.3139	0.2224	0.0625	-0.162
Mof_C 	C 	0.7352	0.2565	0.1023	0.059
Mof_H 	H 	0.7838	0.2566	0.0991	-0.042
Mof_C 	C 	0.8731	0.9325	0.975	0.422
Mof_C 	C 	0.658	0.2281	0.168	0.097
Mof_H 	H 	0.6529	0.2084	0.21	-0.077
Mof_C 	C 	0.5278	0.3135	0.9813	0.43
Mof_C 	C 	0.5988	0.2835	0.045	-0.124
Mof_O 	O 	0.5734	0.0898	0.1772	-0.844
Mof_C 	C 	0.6699	0.2835	0.0425	-0.044
Mof_H 	H 	0.6743	0.3024	0.999	-0.043
Mof_C 	C 	0.7946	0.9962	0.1115	0.083
Mof_H 	H 	0.75	0.994	0.122	-0.019
Mof_C 	C 	0.235	0.215	0.0456	0.038
Mof_H 	H 	0.2245	0.1909	0.0769	-0.031
Mof_C 	C 	0.9204	0.0023	0.0762	-0.094
Mof_H 	H 	0.9639	0.005	0.0639	0.103
Mof_C 	C 	0.9146	0.034	0.1363	0.138
Mof_H 	H 	0.9539	0.0581	0.1642	-0.072
Mof_C 	C 	0.7301	0.2292	0.1667	-0.281
Mof_C 	C 	0.8635	0.9675	0.0353	-0.074
Mof_C 	C 	0.3819	0.1919	0.1291	0.487
Mof_C 	C 	0.5933	0.2556	0.1084	-0.087
Mof_H 	H 	0.5445	0.2553	0.1109	0.07
Mof_C 	C 	0.8006	0.9651	0.053	-0.073
Mof_H 	H 	0.7604	0.9414	0.0244	0.021
Mof_C 	C 	0.5052	0.0328	0.0628	-0.216
Mof_C 	C 	0.4339	0.0071	0.0113	-0.013
Mof_H 	H 	0.3885	0.012	0.0194	0.006
Mof_C 	C 	0.5704	0.0248	0.0503	0.04
Mof_H 	H 	0.6193	0.042	0.0854	-0.057
Mof_C 	C 	0.5096	0.0686	0.1304	0.565
Mof_Cd	Cd	0.59967	0.63052	0.12775	0.254
Mof_Na	Na	0.79765	0.60864	0.21818	3.142
Mof_O 	O 	0.5616	0.43126	0.526	-0.331
Mof_O 	O 	0.5941	0.59183	0.2377	-0.783
Mof_O 	O 	0.7117	0.5626	0.268	-0.736
Mof_O 	O 	0.7121	0.67119	0.2196	-0.78
Mof_O 	O 	0.966	0.83807	0.577	-0.684
Mof_O 	O 	0.0343	0.81429	0.5111	-0.443
Mof_O 	O 	0.6844	0.40475	0.5704	-0.702
Mof_O 	O 	0.6316	0.70583	0.2603	-0.864
Mof_O 	O 	0.1306	0.66346	0.3236	-0.705
Mof_O 	O 	0.0528	0.5754	0.364	-0.523
Mof_O 	O 	0.05	0.6957	0.3655	-0.388
Mof_C 	C 	0.6531	0.564	0.279	0.64
Mof_C 	C 	0.1728	0.7575	0.4838	-0.01
Mof_H 	H 	0.1193	0.7628	0.4729	0.034
Mof_C 	C 	0.6985	0.6997	0.2667	0.667
Mof_C 	C 	0.6477	0.5301	0.3454	-0.306
Mof_C 	C 	0.1861	0.7224	0.4375	-0.18
Mof_C 	C 	0.7648	0.7565	0.3977	0.085
Mof_H 	H 	0.7162	0.7566	0.4009	-0.065
Mof_C 	C 	0.6269	0.4325	0.525	0.431
Mof_C 	C 	0.842	0.7281	0.332	0.121
Mof_H 	H 	0.8471	0.7084	0.29	-0.077
Mof_C 	C 	0.9722	0.8135	0.5187	0.555
Mof_C 	C 	0.9012	0.7835	0.455	-0.121
Mof_O 	O 	0.9266	0.5898	0.3228	-0.834
Mof_C 	C 	0.8301	0.7835	0.4575	-0.057
Mof_H 	H 	0.8257	0.8024	0.501	-0.024
Mof_C 	C 	0.7054	0.4962	0.3885	0.099
Mof_H 	H 	0.75	0.494	0.378	-0.024
Mof_C 	C 	0.265	0.715	0.4544	0.051
Mof_H 	H 	0.2755	0.6909	0.4231	-0.035
Mof_C 	C 	0.5796	0.5023	0.4238	-0.113
Mof_H 	H 	0.5361	0.505	0.4361	0.072
Mof_C 	C 	0.5854	0.534	0.3637	0.154
Mof_H 	H 	0.5461	0.5581	0.3358	-0.132
Mof_C 	C 	0.7699	0.7292	0.3333	-0.311
Mof_C 	C 	0.6365	0.4675	0.4647	-0.084
Mof_C 	C 	0.1181	0.6919	0.3709	0.496
Mof_C 	C 	0.9067	0.7556	0.3916	-0.084
Mof_H 	H 	0.9555	0.7553	0.3891	0.113
Mof_C 	C 	0.6994	0.4651	0.447	-0.083
Mof_H 	H 	0.7396	0.4414	0.4756	0.026
Mof_C 	C 	0.9948	0.5328	0.4372	0.07
Mof_C 	C 	0.0661	0.5071	0.4887	-0.372
Mof_H 	H 	0.1115	0.512	0.4806	0.109
Mof_C 	C 	0.9296	0.5248	0.4497	-0.217
Mof_H 	H 	0.8807	0.542	0.4146	0.031
Mof_C 	C 	0.9904	0.5686	0.3696	0.623
Mof_Cd	Cd	0.09967	0.13052	0.12775	0.237
Mof_Na	Na	0.29765	0.10864	0.21818	3.081
Mof_O 	O 	0.0616	0.93126	0.526	-0.37
Mof_O 	O 	0.0941	0.09183	0.2377	-0.753
Mof_O 	O 	0.2117	0.0626	0.268	-0.724
Mof_O 	O 	0.2121	0.17119	0.2196	-0.763
Mof_O 	O 	0.466	0.33807	0.577	-0.776
Mof_O 	O 	0.5343	0.31429	0.5111	-0.332
Mof_O 	O 	0.1844	0.90475	0.5704	-0.701
Mof_O 	O 	0.1316	0.20583	0.2603	-0.816
Mof_O 	O 	0.6306	0.16346	0.3236	-0.701
Mof_O 	O 	0.5528	0.0754	0.364	-0.439
Mof_O 	O 	0.55	0.1957	0.3655	-0.342
Mof_C 	C 	0.1531	0.064	0.279	0.613
Mof_C 	C 	0.6728	0.2575	0.4838	-0.01
Mof_H 	H 	0.6193	0.2628	0.4729	0.05
Mof_C 	C 	0.1985	0.1997	0.2667	0.639
Mof_C 	C 	0.1477	0.0301	0.3454	-0.293
Mof_C 	C 	0.6861	0.2224	0.4375	-0.168
Mof_C 	C 	0.2648	0.2565	0.3977	0.069
Mof_H 	H 	0.2162	0.2566	0.4009	-0.062
Mof_C 	C 	0.1269	0.9325	0.525	0.436
Mof_C 	C 	0.342	0.2281	0.332	0.106
Mof_H 	H 	0.3471	0.2084	0.29	-0.081
Mof_C 	C 	0.4722	0.3135	0.5187	0.429
Mof_C 	C 	0.4012	0.2835	0.455	-0.12
Mof_O 	O 	0.4266	0.0898	0.3228	-0.843
Mof_C 	C 	0.3301	0.2835	0.4575	-0.061
Mof_H 	H 	0.3257	0.3024	0.501	-0.041
Mof_C 	C 	0.2054	0.9962	0.3885	0.076
Mof_H 	H 	0.25	0.994	0.378	-0.023
Mof_C 	C 	0.765	0.215	0.4544	0.056
Mof_H 	H 	0.7755	0.1909	0.4231	-0.035
Mof_C 	C 	0.0796	0.0023	0.4238	-0.103
Mof_H 	H 	0.0361	0.005	0.4361	0.034
Mof_C 	C 	0.0854	0.034	0.3637	0.12
Mof_H 	H 	0.0461	0.0581	0.3358	-0.138
Mof_C 	C 	0.2699	0.2292	0.3333	-0.301
Mof_C 	C 	0.1365	0.9675	0.4647	-0.109
Mof_C 	C 	0.6181	0.1919	0.3709	0.491
Mof_C 	C 	0.4067	0.2556	0.3916	-0.096
Mof_H 	H 	0.4555	0.2553	0.3891	0.073
Mof_C 	C 	0.1994	0.9651	0.447	-0.073
Mof_H 	H 	0.2396	0.9414	0.4756	0.014
Mof_C 	C 	0.4948	0.0328	0.4372	-0.209
Mof_C 	C 	0.5661	0.0071	0.4887	-0.022
Mof_H 	H 	0.6115	0.012	0.4806	0.01
Mof_C 	C 	0.4296	0.0248	0.4497	0.03
Mof_H 	H 	0.3807	0.042	0.4146	-0.054
Mof_C 	C 	0.4904	0.0686	0.3696	0.562
Mof_Cd	Cd	0.59967	0.36948	0.62775	0.254
Mof_Na	Na	0.79765	0.39136	0.71818	3.139
Mof_O 	O 	0.5616	0.56874	0.026	-0.331
Mof_O 	O 	0.5941	0.40817	0.7377	-0.783
Mof_O 	O 	0.7117	0.4374	0.768	-0.736
Mof_O 	O 	0.7121	0.32881	0.7196	-0.78
Mof_O 	O 	0.966	0.16193	0.077	-0.685
Mof_O 	O 	0.0343	0.18571	0.0111	-0.44
Mof_O 	O 	0.6844	0.59525	0.0704	-0.703
Mof_O 	O 	0.6316	0.29417	0.7603	-0.865
Mof_O 	O 	0.1306	0.33654	0.8236	-0.704
Mof_O 	O 	0.0528	0.4246	0.864	-0.523
Mof_O 	O 	0.05	0.3043	0.8655	-0.388
Mof_C 	C 	0.6531	0.436	0.779	0.639
Mof_C 	C 	0.1728	0.2425	0.9838	-0.019
Mof_H 	H 	0.1193	0.2372	0.9729	0.037
Mof_C 	C 	0.6985	0.3003	0.7667	0.667
Mof_C 	C 	0.6477	0.4699	0.8454	-0.305
Mof_C 	C 	0.1861	0.2776	0.9375	-0.174
Mof_C 	C 	0.7648	0.2435	0.8977	0.087
Mof_H 	H 	0.7162	0.2434	0.9009	-0.067
Mof_C 	C 	0.6269	0.5675	0.025	0.434
Mof_C 	C 	0.842	0.2719	0.832	0.122
Mof_H 	H 	0.8471	0.2916	0.79	-0.077
Mof_C 	C 	0.9722	0.1865	0.0187	0.553
Mof_C 	C 	0.9012	0.2165	0.955	-0.122
Mof_O 	O 	0.9266	0.4102	0.8228	-0.834
Mof_C 	C 	0.8301	0.2165	0.9575	-0.062
Mof_H 	H 	0.8257	0.1976	0.001	-0.021
Mof_C 	C 	0.7054	0.5038	0.8885	0.096
Mof_H 	H 	0.75	0.506	0.878	-0.024
Mof_C 	C 	0.265	0.285	0.9544	0.041
Mof_H 	H 	0.2755	0.3091	0.9231	-0.032
Mof_C 	C 	0.5796	0.4977	0.9238	-0.111
Mof_H 	H 	0.5361	0.495	0.9361	0.07
Mof_C 	C 	0.5854	0.466	0.8637	0.152
Mof_H 	H 	0.5461	0.4419	0.8358	-0.132
Mof_C 	C 	0.7699	0.2708	0.8333	-0.312
Mof_C 	C 	0.6365	0.5325	0.9647	-0.089
Mof_C 	C 	0.1181	0.3081	0.8709	0.493
Mof_C 	C 	0.9067	0.2444	0.8916	-0.085
Mof_H 	H 	0.9555	0.2447	0.8891	0.112
Mof_C 	C 	0.6994	0.5349	0.947	-0.081
Mof_H 	H 	0.7396	0.5586	0.9756	0.024
Mof_C 	C 	0.9948	0.4672	0.9372	0.07
Mof_C 	C 	0.0661	0.4929	0.9887	-0.376
Mof_H 	H 	0.1115	0.488	0.9806	0.109
Mof_C 	C 	0.9296	0.4752	0.9497	-0.222
Mof_H 	H 	0.8807	0.458	0.9146	0.032
Mof_C 	C 	0.9904	0.4314	0.8696	0.621
Mof_Cd	Cd	0.09967	0.86948	0.62775	0.237
Mof_Na	Na	0.29765	0.89136	0.71818	3.079
Mof_O 	O 	0.0616	0.06874	0.026	-0.369
Mof_O 	O 	0.0941	0.90817	0.7377	-0.752
Mof_O 	O 	0.2117	0.9374	0.768	-0.724
Mof_O 	O 	0.2121	0.82881	0.7196	-0.763
Mof_O 	O 	0.466	0.66193	0.077	-0.777
Mof_O 	O 	0.5343	0.68571	0.0111	-0.332
Mof_O 	O 	0.1844	0.09525	0.0704	-0.702
Mof_O 	O 	0.1316	0.79417	0.7603	-0.816
Mof_O 	O 	0.6306	0.83654	0.8236	-0.701
Mof_O 	O 	0.5528	0.9246	0.864	-0.439
Mof_O 	O 	0.55	0.8043	0.8655	-0.342
Mof_C 	C 	0.1531	0.936	0.779	0.611
Mof_C 	C 	0.6728	0.7425	0.9838	-0.021
Mof_H 	H 	0.6193	0.7372	0.9729	0.052
Mof_C 	C 	0.1985	0.8003	0.7667	0.639
Mof_C 	C 	0.1477	0.9699	0.8454	-0.291
Mof_C 	C 	0.6861	0.7776	0.9375	-0.161
Mof_C 	C 	0.2648	0.7435	0.8977	0.071
Mof_H 	H 	0.2162	0.7434	0.9009	-0.064
Mof_C 	C 	0.1269	0.0675	0.025	0.439
Mof_C 	C 	0.342	0.7719	0.832	0.106
Mof_H 	H 	0.3471	0.7916	0.79	-0.081
Mof_C 	C 	0.4722	0.6865	0.0187	0.43
Mof_C 	C 	0.4012	0.7165	0.955	-0.121
Mof_O 	O 	0.4266	0.9102	0.8228	-0.842
Mof_C 	C 	0.3301	0.7165	0.9575	-0.067
Mof_H 	H 	0.3257	0.6976	0.001	-0.038
Mof_C 	C 	0.2054	0.0038	0.8885	0.072
Mof_H 	H 	0.25	0.006	0.878	-0.023
Mof_C 	C 	0.765	0.785	0.9544	0.045
Mof_H 	H 	0.7755	0.8091	0.9231	-0.032
Mof_C 	C 	0.0796	0.9977	0.9238	-0.1
Mof_H 	H 	0.0361	0.995	0.9361	0.033
Mof_C 	C 	0.0854	0.966	0.8637	0.117
Mof_H 	H 	0.0461	0.9419	0.8358	-0.136
Mof_C 	C 	0.2699	0.7708	0.8333	-0.302
Mof_C 	C 	0.1365	0.0325	0.9647	-0.115
Mof_C 	C 	0.6181	0.8081	0.8709	0.488
Mof_C 	C 	0.4067	0.7444	0.8916	-0.097
Mof_H 	H 	0.4555	0.7447	0.8891	0.072
Mof_C 	C 	0.1994	0.0349	0.947	-0.07
Mof_H 	H 	0.2396	0.0586	0.9756	0.012
Mof_C 	C 	0.4948	0.9672	0.9372	-0.205
Mof_C 	C 	0.5661	0.9929	0.9887	-0.029
Mof_H 	H 	0.6115	0.988	0.9806	0.011
Mof_C 	C 	0.4296	0.9752	0.9497	0.023
Mof_H 	H 	0.3807	0.958	0.9146	-0.053
Mof_C 	C 	0.4904	0.9314	0.8696	0.56
Mof_Cd	Cd	0.40033	0.36948	0.87225	0.255
Mof_Na	Na	0.20235	0.39136	0.78182	3.069
Mof_O 	O 	0.4384	0.56874	0.474	-0.329
Mof_O 	O 	0.4059	0.40817	0.7623	-0.782
Mof_O 	O 	0.2883	0.4374	0.732	-0.729
Mof_O 	O 	0.2879	0.32881	0.7804	-0.775
Mof_O 	O 	0.034	0.16193	0.423	-0.717
Mof_O 	O 	0.9657	0.18571	0.4889	-0.198
Mof_O 	O 	0.3156	0.59525	0.4296	-0.696
Mof_O 	O 	0.3684	0.29417	0.7397	-0.867
Mof_O 	O 	0.8694	0.33654	0.6764	-0.672
Mof_O 	O 	0.9472	0.4246	0.636	-0.329
Mof_O 	O 	0.95	0.3043	0.6345	-0.271
Mof_C 	C 	0.3469	0.436	0.721	0.634
Mof_C 	C 	0.8272	0.2425	0.5162	-0.03
Mof_H 	H 	0.8807	0.2372	0.5271	0.072
Mof_C 	C 	0.3015	0.3003	0.7333	0.669
Mof_C 	C 	0.3523	0.4699	0.6546	-0.305
Mof_C 	C 	0.8139	0.2776	0.5625	-0.141
Mof_C 	C 	0.2352	0.2435	0.6023	0.113
Mof_H 	H 	0.2838	0.2434	0.5991	-0.077
Mof_C 	C 	0.3731	0.5675	0.475	0.427
Mof_C 	C 	0.158	0.2719	0.668	0.136
Mof_H 	H 	0.1529	0.2916	0.71	-0.1
Mof_C 	C 	0.0278	0.1865	0.4813	0.249
Mof_C 	C 	0.0988	0.2165	0.545	-0.055
Mof_O 	O 	0.0734	0.4102	0.6772	-0.839
Mof_C 	C 	0.1699	0.2165	0.5425	-0.121
Mof_H 	H 	0.1743	0.1976	0.499	-0.011
Mof_C 	C 	0.2946	0.5038	0.6115	0.091
Mof_H 	H 	0.25	0.506	0.622	-0.03
Mof_C 	C 	0.735	0.285	0.5456	0.033
Mof_H 	H 	0.7245	0.3091	0.5769	-0.029
Mof_C 	C 	0.4204	0.4977	0.5762	-0.114
Mof_H 	H 	0.4639	0.495	0.5639	0.072
Mof_C 	C 	0.4146	0.466	0.6363	0.151
Mof_H 	H 	0.4539	0.4419	0.6642	-0.132
Mof_C 	C 	0.2301	0.2708	0.6667	-0.337
Mof_C 	C 	0.3635	0.5325	0.5353	-0.086
Mof_C 	C 	0.8819	0.3081	0.6291	0.479
Mof_C 	C 	0.0933	0.2444	0.6084	-0.151
Mof_H 	H 	0.0445	0.2447	0.6109	0.051
Mof_C 	C 	0.3006	0.5349	0.553	-0.087
Mof_H 	H 	0.2604	0.5586	0.5244	0.016
Mof_C 	C 	0.0052	0.4672	0.5628	-0.489
Mof_C 	C 	0.9339	0.4929	0.5113	0.333
Mof_H 	H 	0.8885	0.488	0.5194	-0.092
Mof_C 	C 	0.0704	0.4752	0.5503	0.283
Mof_H 	H 	0.1193	0.458	0.5854	-0.143
Mof_C 	C 	0.0096	0.4314	0.6304	0.504
Mof_Cd	Cd	0.90033	0.86948	0.87225	0.315
Mof_Na	Na	0.70235	0.89136	0.78182	3.083
Mof_O 	O 	0.9384	0.06874	0.474	-0.289
Mof_O 	O 	0.9059	0.90817	0.7623	-0.687
Mof_O 	O 	0.7883	0.9374	0.732	-0.716
Mof_O 	O 	0.7879	0.82881	0.7804	-0.759
Mof_O 	O 	0.534	0.66193	0.423	-0.775
Mof_O 	O 	0.4657	0.68571	0.4889	-0.332
Mof_O 	O 	0.8156	0.09525	0.4296	-0.695
Mof_O 	O 	0.8684	0.79417	0.7397	-0.757
Mof_O 	O 	0.3694	0.83654	0.6764	-0.7
Mof_O 	O 	0.4472	0.9246	0.636	-0.441
Mof_O 	O 	0.45	0.8043	0.6345	-0.342
Mof_C 	C 	0.8469	0.936	0.721	0.607
Mof_C 	C 	0.3272	0.7425	0.5162	-0.029
Mof_H 	H 	0.3807	0.7372	0.5271	0.055
Mof_C 	C 	0.8015	0.8003	0.7333	0.628
Mof_C 	C 	0.8523	0.9699	0.6546	-0.262
Mof_C 	C 	0.3139	0.7776	0.5625	-0.156
Mof_C 	C 	0.7352	0.7435	0.6023	0.061
Mof_H 	H 	0.7838	0.7434	0.5991	-0.043
Mof_C 	C 	0.8731	0.0675	0.475	0.427
Mof_C 	C 	0.658	0.7719	0.668	0.097
Mof_H 	H 	0.6529	0.7916	0.71	-0.077
Mof_C 	C 	0.5278	0.6865	0.4813	0.432
Mof_C 	C 	0.5988	0.7165	0.545	-0.125
Mof_O 	O 	0.5734	0.9102	0.6772	-0.843
Mof_C 	C 	0.6699	0.7165	0.5425	-0.049
Mof_H 	H 	0.6743	0.6976	0.499	-0.039
Mof_C 	C 	0.7946	0.0038	0.6115	0.078
Mof_H 	H 	0.75	0.006	0.622	-0.018
Mof_C 	C 	0.235	0.785	0.5456	0.029
Mof_H 	H 	0.2245	0.8091	0.5769	-0.028
Mof_C 	C 	0.9204	0.9977	0.5762	-0.089
Mof_H 	H 	0.9639	0.995	0.5639	0.102
Mof_C 	C 	0.9146	0.966	0.6363	0.134
Mof_H 	H 	0.9539	0.9419	0.6642	-0.07
Mof_C 	C 	0.7301	0.7708	0.6667	-0.283
Mof_C 	C 	0.8635	0.0325	0.5353	-0.081
Mof_C 	C 	0.3819	0.8081	0.6291	0.484
Mof_C 	C 	0.5933	0.7444	0.6084	-0.087
Mof_H 	H 	0.5445	0.7447	0.6109	0.07
Mof_C 	C 	0.8006	0.0349	0.553	-0.068
Mof_H 	H 	0.7604	0.0586	0.5244	0.019
Mof_C 	C 	0.5052	0.9672	0.5628	-0.212
Mof_C 	C 	0.4339	0.9929	0.5113	-0.019
Mof_H 	H 	0.3885	0.988	0.5194	0.007
Mof_C 	C 	0.5704	0.9752	0.5503	0.034
Mof_H 	H 	0.6193	0.958	0.5854	-0.055
Mof_C 	C 	0.5096	0.9314	0.6304	0.563
Mof_Cd	Cd	1.42976e-17	0.63247	0.25	0.287
Mof_Cd	Cd	0.5	0.13247	0.25	0.401
Mof_Cd	Cd	5.71905e-17	0.36753	0.75	0.287
Mof_Cd	Cd	0.5	0.86753	0.75	0.401
Mof_K 	K 	0.5	0.66301	0.25	4.323
Mof_K 	K 	2.85953e-17	0.16301	0.25	3.735
Mof_K 	K 	0.5	0.33699	0.75	4.321
Mof_K 	K 	1.14381e-16	0.83699	0.75	3.729
_end
