# CIF file generated by openbabel 3.1.0, see https://openbabel.org
data_I
_chemical_name_common 'image0'
_cell_length_a 15.1035
_cell_length_b 15.1035
_cell_length_c 12.0247
_cell_angle_alpha 90
_cell_angle_beta 90
_cell_angle_gamma 90
_space_group_name_H-M_alt 'P 1'
_space_group_name_Hall 'P 1'
loop_
    _symmetry_equiv_pos_as_xyz
    x,y,z
loop_
    _atom_site_label
    _atom_site_type_symbol
    _atom_site_fract_x
    _atom_site_fract_y
    _atom_site_fract_z
    _atom_site_occupancy
    O1       O        0.60162    0.28970    0.75592    1.000
    O2       O        0.61804    0.38048    0.60872    1.000
    C1       C        0.59118    0.35994    0.70153    1.000
    C2       C        0.54461    0.43393    0.76011    1.000
    C3       C        0.54733    0.43311    0.87925    1.000
    H1       H        0.57318    0.38162    0.90735    1.000
    O3       O        0.10162    0.78970    0.25592    1.000
    O4       O        0.11804    0.88048    0.10872    1.000
    C4       C        0.09118    0.85994    0.20153    1.000
    C5       C        0.04461    0.93393    0.26011    1.000
    C6       C        0.04733    0.93311    0.37925    1.000
    H2       H        0.07318    0.88162    0.40735    1.000
    O5       O        0.89838    0.21030    0.25592    1.000
    O6       O        0.88196    0.11952    0.10872    1.000
    C7       C        0.90882    0.14006    0.20153    1.000
    C8       C        0.95539    0.06607    0.26011    1.000
    C9       C        0.95267    0.06689    0.37925    1.000
    H3       H        0.92682    0.11838    0.40735    1.000
    O7       O        0.39838    0.71030    0.75592    1.000
    O8       O        0.38196    0.61952    0.60872    1.000
    C10      C        0.40882    0.64006    0.70153    1.000
    C11      C        0.45539    0.56607    0.76011    1.000
    C12      C        0.45267    0.56689    0.87925    1.000
    H4       H        0.42682    0.61838    0.90735    1.000
    O9       O        0.71030    0.10162    0.00592    1.000
    O10      O        0.61952    0.11804    0.85872    1.000
    C13      C        0.64006    0.09118    0.95153    1.000
    C14      C        0.56607    0.04461    0.01011    1.000
    C15      C        0.56689    0.04733    0.12925    1.000
    H5       H        0.61838    0.07318    0.15735    1.000
    O11      O        0.21030    0.60162    0.50592    1.000
    O12      O        0.11952    0.61804    0.35872    1.000
    C16      C        0.14006    0.59118    0.45153    1.000
    C17      C        0.06607    0.54461    0.51011    1.000
    C18      C        0.06689    0.54733    0.62925    1.000
    H6       H        0.11838    0.57318    0.65735    1.000
    O13      O        0.78970    0.39838    0.50592    1.000
    O14      O        0.88048    0.38196    0.35872    1.000
    C19      C        0.85994    0.40882    0.45153    1.000
    C20      C        0.93393    0.45539    0.51011    1.000
    C21      C        0.93311    0.45267    0.62925    1.000
    H7       H        0.88162    0.42682    0.65735    1.000
    O15      O        0.28970    0.89838    0.00592    1.000
    O16      O        0.38048    0.88196    0.85872    1.000
    C22      C        0.35994    0.90882    0.95153    1.000
    C23      C        0.43393    0.95539    0.01011    1.000
    C24      C        0.43311    0.95267    0.12925    1.000
    H8       H        0.38162    0.92682    0.15735    1.000
    O17      O        0.89838    0.28970    0.99408    1.000
    O18      O        0.88196    0.38048    0.14128    1.000
    C25      C        0.90882    0.35994    0.04847    1.000
    C26      C        0.95539    0.43393    0.98989    1.000
    C27      C        0.95267    0.43311    0.87075    1.000
    H9       H        0.92682    0.38162    0.84265    1.000
    O19      O        0.39838    0.78970    0.49408    1.000
    O20      O        0.38196    0.88048    0.64128    1.000
    C28      C        0.40882    0.85994    0.54847    1.000
    C29      C        0.45539    0.93393    0.48989    1.000
    C30      C        0.45267    0.93311    0.37075    1.000
    H10      H        0.42682    0.88162    0.34265    1.000
    O21      O        0.60162    0.21030    0.49408    1.000
    O22      O        0.61804    0.11952    0.64128    1.000
    C31      C        0.59118    0.14006    0.54847    1.000
    C32      C        0.54461    0.06607    0.48989    1.000
    C33      C        0.54733    0.06689    0.37075    1.000
    H11      H        0.57318    0.11838    0.34265    1.000
    O23      O        0.10162    0.71030    0.99408    1.000
    O24      O        0.11804    0.61952    0.14128    1.000
    C34      C        0.09118    0.64006    0.04847    1.000
    C35      C        0.04461    0.56607    0.98989    1.000
    C36      C        0.04733    0.56689    0.87075    1.000
    H12      H        0.07318    0.61838    0.84265    1.000
    O25      O        0.78970    0.10162    0.74408    1.000
    O26      O        0.88048    0.11804    0.89128    1.000
    C37      C        0.85994    0.09118    0.79847    1.000
    C38      C        0.93393    0.04461    0.73989    1.000
    C39      C        0.93311    0.04733    0.62075    1.000
    H13      H        0.88162    0.07318    0.59265    1.000
    O27      O        0.28970    0.60162    0.24408    1.000
    O28      O        0.38048    0.61804    0.39128    1.000
    C40      C        0.35994    0.59118    0.29847    1.000
    C41      C        0.43393    0.54461    0.23989    1.000
    C42      C        0.43311    0.54733    0.12075    1.000
    H14      H        0.38162    0.57318    0.09265    1.000
    O29      O        0.71030    0.39838    0.24408    1.000
    O30      O        0.61952    0.38196    0.39128    1.000
    C43      C        0.64006    0.40882    0.29847    1.000
    C44      C        0.56607    0.45539    0.23989    1.000
    C45      C        0.56689    0.45267    0.12075    1.000
    H15      H        0.61838    0.42682    0.09265    1.000
    O31      O        0.21030    0.89838    0.74408    1.000
    O32      O        0.11952    0.88196    0.89128    1.000
    C46      C        0.14006    0.90882    0.79847    1.000
    C47      C        0.06607    0.95539    0.73989    1.000
    C48      C        0.06689    0.95267    0.62075    1.000
    H16      H        0.11838    0.92682    0.59265    1.000
    V1       V        0.69170    0.30830    0.50000    1.000
    V2       V        0.19170    0.80830    0.00000    1.000
    V3       V        0.80830    0.19170    0.00000    1.000
    V4       V        0.30830    0.69170    0.50000    1.000
    V5       V        0.69170    0.19170    0.75000    1.000
    V6       V        0.19170    0.69170    0.25000    1.000
    V7       V        0.80830    0.30830    0.25000    1.000
    V8       V        0.30830    0.80830    0.75000    1.000
    O33      O        0.74484    0.25000    0.62500    1.000
    H17      H        0.80600    0.25000    0.62500    1.000
    O34      O        0.24484    0.75000    0.12500    1.000
    H18      H        0.30600    0.75000    0.12500    1.000
    O35      O        0.75516    0.25000    0.12500    1.000
    H19      H        0.69400    0.25000    0.12500    1.000
    O36      O        0.25516    0.75000    0.62500    1.000
    H20      H        0.19400    0.75000    0.62500    1.000
    O37      O        0.75000    0.24484    0.87500    1.000
    H21      H        0.75000    0.30600    0.87500    1.000
    O38      O        0.25000    0.74484    0.37500    1.000
    H22      H        0.25000    0.80600    0.37500    1.000
    O39      O        0.75000    0.25516    0.37500    1.000
    H23      H        0.75000    0.19400    0.37500    1.000
    O40      O        0.25000    0.75516    0.87500    1.000
    H24      H        0.25000    0.69400    0.87500    1.000
    C49      C        0.50000    0.50000    0.70346    1.000
    C50      C        0.50000    0.50000    0.93621    1.000
    H25      H        0.50000    0.50000    0.62610    1.000
    C51      C        0.00000    0.00000    0.20346    1.000
    C52      C        0.00000    0.00000    0.43621    1.000
    H26      H        0.00000    0.00000    0.12610    1.000
    C53      C        0.50000    0.00000    0.95346    1.000
    C54      C        0.50000    0.00000    0.18621    1.000
    H27      H        0.50000    0.00000    0.87610    1.000
    C55      C        0.00000    0.50000    0.45346    1.000
    C56      C        0.00000    0.50000    0.68621    1.000
    H28      H        0.00000    0.50000    0.37610    1.000
    C57      C        0.00000    0.50000    0.04654    1.000
    C58      C        0.00000    0.50000    0.81379    1.000
    H29      H        0.00000    0.50000    0.12390    1.000
    C59      C        0.50000    0.00000    0.54654    1.000
    C60      C        0.50000    0.00000    0.31379    1.000
    H30      H        0.50000    0.00000    0.62390    1.000
    C61      C        0.00000    0.00000    0.79654    1.000
    C62      C        0.00000    0.00000    0.56379    1.000
    H31      H        0.00000    0.00000    0.87390    1.000
    C63      C        0.50000    0.50000    0.29654    1.000
    C64      C        0.50000    0.50000    0.06379    1.000
    H32      H        0.50000    0.50000    0.37390    1.000
