# CIF file generated by openbabel 3.1.0, see https://openbabel.org
data_I
_chemical_name_common 'image0'
_cell_length_a 14.4155
_cell_length_b 14.4155
_cell_length_c 16.9725
_cell_angle_alpha 90
_cell_angle_beta 90
_cell_angle_gamma 120
_space_group_name_H-M_alt 'P 1'
_space_group_name_Hall 'P 1'
loop_
    _symmetry_equiv_pos_as_xyz
    x,y,z
loop_
    _atom_site_label
    _atom_site_type_symbol
    _atom_site_fract_x
    _atom_site_fract_y
    _atom_site_fract_z
    _atom_site_occupancy
    Yb1      Yb       0.20254    0.50594    0.38372    1.000
    O1       O        0.12690    0.54400    0.28200    1.000
    O2       O        0.87350    0.41670    0.98480    1.000
    O3       O        0.82700    0.54330    0.97360    1.000
    O4       O        0.17310    0.71620    0.29480    1.000
    S1       S        0.99990    0.50590    0.13360    1.000
    C1       C        0.87460    0.50180    0.00580    1.000
    C2       C        0.12540    0.62850    0.26110    1.000
    C3       C        0.94000    0.55960    0.07620    1.000
    C4       C        0.05990    0.61930    0.19090    1.000
    C5       C        0.03590    0.69590    0.16680    1.000
    C6       C        0.96530    0.65960    0.10000    1.000
    Yb2      Yb       0.49406    0.69660    0.38372    1.000
    O5       O        0.45600    0.58290    0.28200    1.000
    O6       O        0.58330    0.45680    0.98480    1.000
    O7       O        0.45670    0.28370    0.97360    1.000
    O8       O        0.28380    0.45690    0.29480    1.000
    S2       S        0.49410    0.49400    0.13360    1.000
    C7       C        0.49820    0.37280    0.00580    1.000
    C8       C        0.37150    0.49690    0.26110    1.000
    C9       C        0.44040    0.38040    0.07620    1.000
    C10      C        0.38070    0.44060    0.19090    1.000
    C11      C        0.30410    0.34000    0.16680    1.000
    C12      C        0.34040    0.30570    0.10000    1.000
    Yb3      Yb       0.30340    0.79746    0.38372    1.000
    O9       O        0.41710    0.87310    0.28200    1.000
    O10      O        0.54320    0.12650    0.98480    1.000
    O11      O        0.71630    0.17300    0.97360    1.000
    O12      O        0.54310    0.82690    0.29480    1.000
    S3       S        0.50600    0.00010    0.13360    1.000
    C13      C        0.62720    0.12540    0.00580    1.000
    C14      C        0.50310    0.87460    0.26110    1.000
    C15      C        0.61960    0.06000    0.07620    1.000
    C16      C        0.55940    0.94010    0.19090    1.000
    C17      C        0.66000    0.96410    0.16680    1.000
    C18      C        0.69430    0.03470    0.10000    1.000
    Yb4      Yb       0.50594    0.20254    0.88372    1.000
    O13      O        0.54400    0.12690    0.78200    1.000
    O14      O        0.41670    0.87350    0.48480    1.000
    O15      O        0.54330    0.82700    0.47360    1.000
    O16      O        0.71620    0.17310    0.79480    1.000
    S4       S        0.50590    0.99990    0.63360    1.000
    C19      C        0.50180    0.87460    0.50580    1.000
    C20      C        0.62850    0.12540    0.76110    1.000
    C21      C        0.55960    0.94000    0.57620    1.000
    C22      C        0.61930    0.05990    0.69090    1.000
    C23      C        0.69590    0.03590    0.66680    1.000
    C24      C        0.65960    0.96530    0.60000    1.000
    Yb5      Yb       0.69660    0.49406    0.88372    1.000
    O17      O        0.58290    0.45600    0.78200    1.000
    O18      O        0.45680    0.58330    0.48480    1.000
    O19      O        0.28370    0.45670    0.47360    1.000
    O20      O        0.45690    0.28380    0.79480    1.000
    S5       S        0.49400    0.49410    0.63360    1.000
    C25      C        0.37280    0.49820    0.50580    1.000
    C26      C        0.49690    0.37150    0.76110    1.000
    C27      C        0.38040    0.44040    0.57620    1.000
    C28      C        0.44060    0.38070    0.69090    1.000
    C29      C        0.34000    0.30410    0.66680    1.000
    C30      C        0.30570    0.34040    0.60000    1.000
    Yb6      Yb       0.79746    0.30340    0.88372    1.000
    O21      O        0.87310    0.41710    0.78200    1.000
    O22      O        0.12650    0.54320    0.48480    1.000
    O23      O        0.17300    0.71630    0.47360    1.000
    O24      O        0.82690    0.54310    0.79480    1.000
    S6       S        0.00010    0.50600    0.63360    1.000
    C31      C        0.12540    0.62720    0.50580    1.000
    C32      C        0.87460    0.50310    0.76110    1.000
    C33      C        0.06000    0.61960    0.57620    1.000
    C34      C        0.94010    0.55940    0.69090    1.000
    C35      C        0.96410    0.66000    0.66680    1.000
    C36      C        0.03470    0.69430    0.60000    1.000
    O25      O        0.33333    0.66667    0.38410    1.000
    O26      O        0.66667    0.33333    0.88410    1.000
