# CIF file generated by openbabel 3.1.0, see https://openbabel.org
data_I
_chemical_name_common 'KULRIT_clean'
_cell_length_a 8.5773
_cell_length_b 12.1397
_cell_length_c 16.7281
_cell_angle_alpha 90
_cell_angle_beta 90
_cell_angle_gamma 93.036
_space_group_name_H-M_alt 'P 1'
_space_group_name_Hall 'P 1'
loop_
    _symmetry_equiv_pos_as_xyz
    x,y,z
loop_
    _atom_site_label
    _atom_site_type_symbol
    _atom_site_fract_x
    _atom_site_fract_y
    _atom_site_fract_z
    _atom_site_occupancy
    Yb1      Yb       0.48160    0.06883    0.90197    1.000
    Yb2      Yb       0.01840    0.43117    0.40197    1.000
    Yb3      Yb       0.51840    0.93117    0.09803    1.000
    Yb4      Yb       0.98160    0.56883    0.59803    1.000
    H1       H        0.84930    0.81110    0.79320    1.000
    H2       H        0.73580    0.71190    0.81870    1.000
    H3       H        0.77100    0.75500    0.95300    1.000
    H4       H        0.93810    0.90480    0.99430    1.000
    H5       H        0.97970    0.93460    0.90530    1.000
    H6       H        0.07600    0.74000    0.98600    1.000
    H7       H        0.19910    0.69300    0.86690    1.000
    H8       H        0.14400    0.79970    0.82480    1.000
    H9       H        0.94200    0.61900    0.87300    1.000
    H10      H        0.65070    0.68890    0.29320    1.000
    H11      H        0.76420    0.78810    0.31870    1.000
    H12      H        0.72900    0.74500    0.45300    1.000
    H13      H        0.56190    0.59520    0.49430    1.000
    H14      H        0.52030    0.56540    0.40530    1.000
    H15      H        0.42400    0.76000    0.48600    1.000
    H16      H        0.30090    0.80700    0.36690    1.000
    H17      H        0.35600    0.70030    0.32480    1.000
    H18      H        0.55800    0.88100    0.37300    1.000
    H19      H        0.15070    0.18890    0.20680    1.000
    H20      H        0.26420    0.28810    0.18130    1.000
    H21      H        0.22900    0.24500    0.04700    1.000
    H22      H        0.06190    0.09520    0.00570    1.000
    H23      H        0.02030    0.06540    0.09470    1.000
    H24      H        0.92400    0.26000    0.01400    1.000
    H25      H        0.80090    0.30700    0.13310    1.000
    H26      H        0.85600    0.20030    0.17520    1.000
    H27      H        0.05800    0.38100    0.12700    1.000
    H28      H        0.34930    0.31110    0.70680    1.000
    H29      H        0.23580    0.21190    0.68130    1.000
    H30      H        0.27100    0.25500    0.54700    1.000
    H31      H        0.43810    0.40480    0.50570    1.000
    H32      H        0.47970    0.43460    0.59470    1.000
    H33      H        0.57600    0.24000    0.51400    1.000
    H34      H        0.69910    0.19300    0.63310    1.000
    H35      H        0.64400    0.29970    0.67520    1.000
    H36      H        0.44200    0.11900    0.62700    1.000
    C1       C        0.82980    0.75500    0.83370    1.000
    C2       C        0.80320    0.81060    0.91340    1.000
    C3       C        0.95490    0.87400    0.94170    1.000
    C4       C        0.09500    0.79720    0.94510    1.000
    C5       C        0.11490    0.74320    0.86380    1.000
    C6       C        0.96680    0.67960    0.83580    1.000
    C7       C        0.67950    0.89490    0.90770    1.000
    C8       C        0.24030    0.86860    0.96670    1.000
    C9       C        0.98240    0.63230    0.75210    1.000
    C10      C        0.67020    0.74500    0.33370    1.000
    C11      C        0.69680    0.68940    0.41340    1.000
    C12      C        0.54510    0.62600    0.44170    1.000
    C13      C        0.40500    0.70280    0.44510    1.000
    C14      C        0.38510    0.75680    0.36380    1.000
    C15      C        0.53320    0.82040    0.33580    1.000
    C16      C        0.82050    0.60510    0.40770    1.000
    C17      C        0.25970    0.63140    0.46670    1.000
    C18      C        0.51760    0.86770    0.25210    1.000
    C19      C        0.17020    0.24500    0.16630    1.000
    C20      C        0.19680    0.18940    0.08660    1.000
    C21      C        0.04510    0.12600    0.05830    1.000
    C22      C        0.90500    0.20280    0.05490    1.000
    C23      C        0.88510    0.25680    0.13620    1.000
    C24      C        0.03320    0.32040    0.16420    1.000
    C25      C        0.32050    0.10510    0.09230    1.000
    C26      C        0.75970    0.13140    0.03330    1.000
    C27      C        0.01760    0.36770    0.24790    1.000
    C28      C        0.32980    0.25500    0.66630    1.000
    C29      C        0.30320    0.31060    0.58660    1.000
    C30      C        0.45490    0.37400    0.55830    1.000
    C31      C        0.59500    0.29720    0.55490    1.000
    C32      C        0.61490    0.24320    0.63620    1.000
    C33      C        0.46680    0.17960    0.66420    1.000
    C34      C        0.17950    0.39490    0.59230    1.000
    C35      C        0.74030    0.36860    0.53330    1.000
    C36      C        0.48240    0.13230    0.74790    1.000
    O1       O        0.66180    0.94900    0.84630    1.000
    O2       O        0.59460    0.91300    0.96900    1.000
    O3       O        0.28630    0.93970    0.91600    1.000
    O4       O        0.30300    0.85390    0.03430    1.000
    O5       O        0.89680    0.55020    0.73210    1.000
    O6       O        0.07320    0.68050    0.70210    1.000
    O7       O        0.83820    0.55100    0.34630    1.000
    O8       O        0.90540    0.58700    0.46900    1.000
    O9       O        0.21370    0.56030    0.41600    1.000
    O10      O        0.19700    0.64610    0.53430    1.000
    O11      O        0.60320    0.94980    0.23210    1.000
    O12      O        0.42680    0.81950    0.20210    1.000
    O13      O        0.33820    0.05100    0.15370    1.000
    O14      O        0.40540    0.08700    0.03100    1.000
    O15      O        0.71370    0.06030    0.08400    1.000
    O16      O        0.69700    0.14610    0.96570    1.000
    O17      O        0.10320    0.44980    0.26790    1.000
    O18      O        0.92680    0.31950    0.29790    1.000
    O19      O        0.16180    0.44900    0.65370    1.000
    O20      O        0.09460    0.41300    0.53100    1.000
    O21      O        0.78630    0.43970    0.58400    1.000
    O22      O        0.80300    0.35390    0.46570    1.000
    O23      O        0.39680    0.05020    0.76790    1.000
    O24      O        0.57320    0.18050    0.79790    1.000
