data_functionalizedCrystal
_audit_creation_method	'EQeq! by Chris Wilmer'
_symmetry_space_group_name_H-M	'P1'
_symmetry_Int_Tables_number	1
_symmetry_cell_setting	triclinic
loop_
_symmetry_equiv_pos_as_xyz
  x,y,z
_cell_length_a	26.1315
_cell_length_b	26.1315
_cell_length_c	26.1315
_cell_angle_alpha	109.471
_cell_angle_beta	109.471
_cell_angle_gamma	109.471
loop_
_atom_site_label
_atom_site_type_symbol
_atom_site_fract_x
_atom_site_fract_y
_atom_site_fract_z
_atom_site_charge
Mof_Cd	Cd	0.35487	0.70974	0.85487	0.462
Mof_Cd	Cd	0.85487	0.5	0.14513	0.462
Mof_Cd	Cd	0.14513	0.29026	0.64513	0.46
Mof_Cd	Cd	0.64513	0.5	0.35487	0.461
Mof_Cd	Cd	0.64513	0.14513	0.29026	0.46
Mof_Cd	Cd	0.35487	0.64513	0.5	0.461
Mof_Cd	Cd	0.85487	0.35487	0.70974	0.462
Mof_Cd	Cd	0.14513	0.85487	0.5	0.462
Mof_Cd	Cd	0.5	0.14513	0.85487	0.462
Mof_Cd	Cd	0.70974	0.85487	0.35487	0.462
Mof_Cd	Cd	0.5	0.35487	0.64513	0.461
Mof_Cd	Cd	0.29026	0.64513	0.14513	0.46
Mof_Cd	Cd	0.64513	0.29026	0.14513	0.46
Mof_Cd	Cd	0.14513	0.5	0.85487	0.462
Mof_Cd	Cd	0.85487	0.70974	0.35487	0.462
Mof_Cd	Cd	0.35487	0.5	0.64513	0.461
Mof_Cd	Cd	0.35487	0.85487	0.70974	0.462
Mof_Cd	Cd	0.64513	0.35487	0.5	0.461
Mof_Cd	Cd	0.14513	0.64513	0.29026	0.46
Mof_Cd	Cd	0.85487	0.14513	0.5	0.462
Mof_Cd	Cd	0.5	0.85487	0.14513	0.462
Mof_Cd	Cd	0.29026	0.14513	0.64513	0.46
Mof_Cd	Cd	0.5	0.64513	0.35487	0.461
Mof_Cd	Cd	0.70974	0.35487	0.85487	0.462
Mof_H 	H 	0.2169	0.6313	0.7182	0.035
Mof_H 	H 	0.2831	0.783	0.9057	0.025
Mof_H 	H 	0.9131	0.4987	0.2818	0.036
Mof_H 	H 	0.8773	0.3774	0.0943	0.028
Mof_H 	H 	0.0869	0.3687	0.5856	0.034
Mof_H 	H 	0.1227	0.217	0.5001	0.03
Mof_H 	H 	0.7831	0.5013	0.4144	0.036
Mof_H 	H 	0.7169	0.6226	0.4999	0.032
Mof_H 	H 	0.5856	0.0869	0.3687	0.034
Mof_H 	H 	0.5001	0.1227	0.217	0.03
Mof_H 	H 	0.4144	0.7831	0.5013	0.036
Mof_H 	H 	0.4999	0.7169	0.6226	0.032
Mof_H 	H 	0.7182	0.2169	0.6313	0.035
Mof_H 	H 	0.9057	0.2831	0.783	0.025
Mof_H 	H 	0.2818	0.9131	0.4987	0.036
Mof_H 	H 	0.0943	0.8773	0.3774	0.028
Mof_H 	H 	0.4987	0.2818	0.9131	0.036
Mof_H 	H 	0.3774	0.0943	0.8773	0.028
Mof_H 	H 	0.6313	0.7182	0.2169	0.035
Mof_H 	H 	0.783	0.9057	0.2831	0.025
Mof_H 	H 	0.5013	0.4144	0.7831	0.036
Mof_H 	H 	0.6226	0.4999	0.7169	0.032
Mof_H 	H 	0.3687	0.5856	0.0869	0.034
Mof_H 	H 	0.217	0.5001	0.1227	0.03
Mof_H 	H 	0.3687	0.7831	0.2818	0.036
Mof_H 	H 	0.217	0.7169	0.0943	0.028
Mof_H 	H 	0.5013	0.0869	0.7182	0.034
Mof_H 	H 	0.6226	0.1227	0.9057	0.024
Mof_H 	H 	0.6313	0.9131	0.4144	0.037
Mof_H 	H 	0.783	0.8773	0.4999	0.033
Mof_H 	H 	0.4987	0.2169	0.5856	0.035
Mof_H 	H 	0.3774	0.2831	0.5001	0.031
Mof_H 	H 	0.9131	0.4144	0.6313	0.037
Mof_H 	H 	0.8773	0.4999	0.783	0.033
Mof_H 	H 	0.2169	0.5856	0.4987	0.035
Mof_H 	H 	0.2831	0.5001	0.3774	0.031
Mof_H 	H 	0.7831	0.2818	0.3687	0.036
Mof_H 	H 	0.7169	0.0943	0.217	0.028
Mof_H 	H 	0.0869	0.7182	0.5013	0.034
Mof_H 	H 	0.1227	0.9057	0.6226	0.024
Mof_H 	H 	0.7182	0.5013	0.0869	0.034
Mof_H 	H 	0.9057	0.6226	0.1227	0.024
Mof_H 	H 	0.2818	0.3687	0.7831	0.036
Mof_H 	H 	0.0943	0.217	0.7169	0.028
Mof_H 	H 	0.5856	0.4987	0.2169	0.035
Mof_H 	H 	0.5001	0.3774	0.2831	0.031
Mof_H 	H 	0.4144	0.6313	0.9131	0.037
Mof_H 	H 	0.4999	0.783	0.8773	0.033
Mof_H 	H 	0.7831	0.3687	0.2818	0.036
Mof_H 	H 	0.7169	0.217	0.0943	0.028
Mof_H 	H 	0.0869	0.5013	0.7182	0.034
Mof_H 	H 	0.1227	0.6226	0.9057	0.024
Mof_H 	H 	0.9131	0.6313	0.4144	0.037
Mof_H 	H 	0.8773	0.783	0.4999	0.033
Mof_H 	H 	0.2169	0.4987	0.5856	0.035
Mof_H 	H 	0.2831	0.3774	0.5001	0.031
Mof_H 	H 	0.4144	0.9131	0.6313	0.037
Mof_H 	H 	0.4999	0.8773	0.783	0.033
Mof_H 	H 	0.5856	0.2169	0.4987	0.035
Mof_H 	H 	0.5001	0.2831	0.3774	0.031
Mof_H 	H 	0.2818	0.7831	0.3687	0.036
Mof_H 	H 	0.0943	0.7169	0.217	0.028
Mof_H 	H 	0.7182	0.0869	0.5013	0.034
Mof_H 	H 	0.9057	0.1227	0.6226	0.024
Mof_H 	H 	0.5013	0.7182	0.0869	0.034
Mof_H 	H 	0.6226	0.9057	0.1227	0.024
Mof_H 	H 	0.3687	0.2818	0.7831	0.036
Mof_H 	H 	0.217	0.0943	0.7169	0.028
Mof_H 	H 	0.4987	0.5856	0.2169	0.035
Mof_H 	H 	0.3774	0.5001	0.2831	0.031
Mof_H 	H 	0.6313	0.4144	0.9131	0.037
Mof_H 	H 	0.783	0.4999	0.8773	0.033
Mof_H 	H 	0.6313	0.2169	0.7182	0.035
Mof_H 	H 	0.783	0.2831	0.9057	0.025
Mof_H 	H 	0.4987	0.9131	0.2818	0.036
Mof_H 	H 	0.3774	0.8773	0.0943	0.028
Mof_H 	H 	0.3687	0.0869	0.5856	0.034
Mof_H 	H 	0.217	0.1227	0.5001	0.03
Mof_H 	H 	0.5013	0.7831	0.4144	0.036
Mof_H 	H 	0.6226	0.7169	0.4999	0.032
Mof_H 	H 	0.0869	0.5856	0.3687	0.034
Mof_H 	H 	0.1227	0.5001	0.217	0.03
Mof_H 	H 	0.7831	0.4144	0.5013	0.036
Mof_H 	H 	0.7169	0.4999	0.6226	0.032
Mof_H 	H 	0.2169	0.7182	0.6313	0.035
Mof_H 	H 	0.2831	0.9057	0.783	0.025
Mof_H 	H 	0.9131	0.2818	0.4987	0.036
Mof_H 	H 	0.8773	0.0943	0.3774	0.028
Mof_H 	H 	0.2818	0.4987	0.9131	0.036
Mof_H 	H 	0.0943	0.3774	0.8773	0.028
Mof_H 	H 	0.7182	0.6313	0.2169	0.035
Mof_H 	H 	0.9057	0.783	0.2831	0.025
Mof_H 	H 	0.4144	0.5013	0.7831	0.036
Mof_H 	H 	0.4999	0.6226	0.7169	0.032
Mof_H 	H 	0.5856	0.3687	0.0869	0.034
Mof_H 	H 	0.5001	0.217	0.1227	0.03
Mof_H 	H 	0.1648	0.5492	0.6156	0.079
Mof_H 	H 	0.9336	0.5492	0.3844	0.083
Mof_H 	H 	0.0664	0.4508	0.6156	0.078
Mof_H 	H 	0.8352	0.4508	0.3844	0.082
Mof_H 	H 	0.6156	0.0664	0.4508	0.078
Mof_H 	H 	0.3844	0.8352	0.4508	0.082
Mof_H 	H 	0.6156	0.1648	0.5492	0.079
Mof_H 	H 	0.3844	0.9336	0.5492	0.083
Mof_H 	H 	0.5492	0.3844	0.9336	0.083
Mof_H 	H 	0.5492	0.6156	0.1648	0.079
Mof_H 	H 	0.4508	0.3844	0.8352	0.082
Mof_H 	H 	0.4508	0.6156	0.0664	0.078
Mof_H 	H 	0.4508	0.8352	0.3844	0.082
Mof_H 	H 	0.4508	0.0664	0.6156	0.078
Mof_H 	H 	0.5492	0.9336	0.3844	0.083
Mof_H 	H 	0.5492	0.1648	0.6156	0.079
Mof_H 	H 	0.9336	0.3844	0.5492	0.083
Mof_H 	H 	0.1648	0.6156	0.5492	0.079
Mof_H 	H 	0.8352	0.3844	0.4508	0.082
Mof_H 	H 	0.0664	0.6156	0.4508	0.078
Mof_H 	H 	0.6156	0.4508	0.0664	0.078
Mof_H 	H 	0.3844	0.4508	0.8352	0.082
Mof_H 	H 	0.6156	0.5492	0.1648	0.079
Mof_H 	H 	0.3844	0.5492	0.9336	0.083
Mof_H 	H 	0.2923	0.8445	-0	0.097
Mof_H 	H 	0.8445	0.2923	-0	0.097
Mof_H 	H 	0.1555	0.1555	0.4478	0.088
Mof_H 	H 	0.7077	0.7077	0.5522	0.093
Mof_H 	H 	0.4478	0.1555	0.1555	0.088
Mof_H 	H 	0.5522	0.7077	0.7077	0.093
Mof_H 	H 	-3.31051e-17	0.2923	0.8445	0.097
Mof_H 	H 	-2.48289e-17	0.8445	0.2923	0.097
Mof_H 	H 	0.2923	0	0.8445	0.097
Mof_H 	H 	0.8445	-1.65526e-17	0.2923	0.097
Mof_H 	H 	0.7077	0.5522	0.7077	0.093
Mof_H 	H 	0.1555	0.4478	0.1555	0.088
Mof_H 	H 	0.1555	0.7077	-0	0.096
Mof_H 	H 	0.7077	0.1555	-0	0.096
Mof_H 	H 	0.8445	0.8445	0.5522	0.095
Mof_H 	H 	0.2923	0.2923	0.4478	0.089
Mof_H 	H 	0.8445	0.5522	0.8445	0.095
Mof_H 	H 	0.2923	0.4478	0.2923	0.089
Mof_H 	H 	0.7077	-1.65526e-17	0.1555	0.096
Mof_H 	H 	0.1555	6.62103e-17	0.7077	0.096
Mof_H 	H 	3.72433e-17	0.7077	0.1555	0.096
Mof_H 	H 	1.15868e-16	0.1555	0.7077	0.096
Mof_H 	H 	0.4478	0.2923	0.2923	0.089
Mof_H 	H 	0.5522	0.8445	0.8445	0.095
Mof_C 	C 	0.2369	0.6106	0.7051	0.078
Mof_C 	C 	0.3172	0.797	0.9438	0.12
Mof_C 	C 	0.9055	0.5318	0.2949	0.081
Mof_C 	C 	0.8532	0.3734	0.0562	0.106
Mof_C 	C 	0.0945	0.3894	0.6263	0.078
Mof_C 	C 	0.1468	0.203	0.5202	0.094
Mof_C 	C 	0.7631	0.4682	0.3737	0.079
Mof_C 	C 	0.6828	0.6266	0.4798	0.096
Mof_C 	C 	0.6263	0.0945	0.3894	0.078
Mof_C 	C 	0.5202	0.1468	0.203	0.094
Mof_C 	C 	0.3737	0.7631	0.4682	0.079
Mof_C 	C 	0.4798	0.6828	0.6266	0.096
Mof_C 	C 	0.7051	0.2369	0.6106	0.078
Mof_C 	C 	0.9438	0.3172	0.797	0.12
Mof_C 	C 	0.2949	0.9055	0.5318	0.081
Mof_C 	C 	0.0562	0.8532	0.3734	0.106
Mof_C 	C 	0.5318	0.2949	0.9055	0.081
Mof_C 	C 	0.3734	0.0562	0.8532	0.106
Mof_C 	C 	0.6106	0.7051	0.2369	0.078
Mof_C 	C 	0.797	0.9438	0.3172	0.12
Mof_C 	C 	0.4682	0.3737	0.7631	0.079
Mof_C 	C 	0.6266	0.4798	0.6828	0.096
Mof_C 	C 	0.3894	0.6263	0.0945	0.078
Mof_C 	C 	0.203	0.5202	0.1468	0.094
Mof_C 	C 	0.3894	0.7631	0.2949	0.079
Mof_C 	C 	0.203	0.6828	0.0562	0.104
Mof_C 	C 	0.4682	0.0945	0.7051	0.077
Mof_C 	C 	0.6266	0.1468	0.9438	0.119
Mof_C 	C 	0.6106	0.9055	0.3737	0.08
Mof_C 	C 	0.797	0.8532	0.4798	0.098
Mof_C 	C 	0.5318	0.2369	0.6263	0.079
Mof_C 	C 	0.3734	0.3172	0.5202	0.095
Mof_C 	C 	0.9055	0.3737	0.6106	0.08
Mof_C 	C 	0.8532	0.4798	0.797	0.098
Mof_C 	C 	0.2369	0.6263	0.5318	0.079
Mof_C 	C 	0.3172	0.5202	0.3734	0.095
Mof_C 	C 	0.7631	0.2949	0.3894	0.079
Mof_C 	C 	0.6828	0.0562	0.203	0.104
Mof_C 	C 	0.0945	0.7051	0.4682	0.077
Mof_C 	C 	0.1468	0.9438	0.6266	0.119
Mof_C 	C 	0.7051	0.4682	0.0945	0.077
Mof_C 	C 	0.9438	0.6266	0.1468	0.119
Mof_C 	C 	0.2949	0.3894	0.7631	0.079
Mof_C 	C 	0.0562	0.203	0.6828	0.104
Mof_C 	C 	0.6263	0.5318	0.2369	0.079
Mof_C 	C 	0.5202	0.3734	0.3172	0.095
Mof_C 	C 	0.3737	0.6106	0.9055	0.08
Mof_C 	C 	0.4798	0.797	0.8532	0.098
Mof_C 	C 	0.7631	0.3894	0.2949	0.079
Mof_C 	C 	0.6828	0.203	0.0562	0.104
Mof_C 	C 	0.0945	0.4682	0.7051	0.077
Mof_C 	C 	0.1468	0.6266	0.9438	0.119
Mof_C 	C 	0.9055	0.6106	0.3737	0.08
Mof_C 	C 	0.8532	0.797	0.4798	0.098
Mof_C 	C 	0.2369	0.5318	0.6263	0.079
Mof_C 	C 	0.3172	0.3734	0.5202	0.095
Mof_C 	C 	0.3737	0.9055	0.6106	0.08
Mof_C 	C 	0.4798	0.8532	0.797	0.098
Mof_C 	C 	0.6263	0.2369	0.5318	0.079
Mof_C 	C 	0.5202	0.3172	0.3734	0.095
Mof_C 	C 	0.2949	0.7631	0.3894	0.079
Mof_C 	C 	0.0562	0.6828	0.203	0.104
Mof_C 	C 	0.7051	0.0945	0.4682	0.077
Mof_C 	C 	0.9438	0.1468	0.6266	0.119
Mof_C 	C 	0.4682	0.7051	0.0945	0.077
Mof_C 	C 	0.6266	0.9438	0.1468	0.119
Mof_C 	C 	0.3894	0.2949	0.7631	0.079
Mof_C 	C 	0.203	0.0562	0.6828	0.104
Mof_C 	C 	0.5318	0.6263	0.2369	0.079
Mof_C 	C 	0.3734	0.5202	0.3172	0.095
Mof_C 	C 	0.6106	0.3737	0.9055	0.08
Mof_C 	C 	0.797	0.4798	0.8532	0.098
Mof_C 	C 	0.6106	0.2369	0.7051	0.078
Mof_C 	C 	0.797	0.3172	0.9438	0.12
Mof_C 	C 	0.5318	0.9055	0.2949	0.081
Mof_C 	C 	0.3734	0.8532	0.0562	0.106
Mof_C 	C 	0.3894	0.0945	0.6263	0.078
Mof_C 	C 	0.203	0.1468	0.5202	0.094
Mof_C 	C 	0.4682	0.7631	0.3737	0.079
Mof_C 	C 	0.6266	0.6828	0.4798	0.096
Mof_C 	C 	0.0945	0.6263	0.3894	0.078
Mof_C 	C 	0.1468	0.5202	0.203	0.094
Mof_C 	C 	0.7631	0.3737	0.4682	0.079
Mof_C 	C 	0.6828	0.4798	0.6266	0.096
Mof_C 	C 	0.2369	0.7051	0.6106	0.078
Mof_C 	C 	0.3172	0.9438	0.797	0.12
Mof_C 	C 	0.9055	0.2949	0.5318	0.081
Mof_C 	C 	0.8532	0.0562	0.3734	0.106
Mof_C 	C 	0.2949	0.5318	0.9055	0.081
Mof_C 	C 	0.0562	0.3734	0.8532	0.106
Mof_C 	C 	0.7051	0.6106	0.2369	0.078
Mof_C 	C 	0.9438	0.797	0.3172	0.12
Mof_C 	C 	0.3737	0.4682	0.7631	0.079
Mof_C 	C 	0.4798	0.6266	0.6828	0.096
Mof_C 	C 	0.6263	0.3894	0.0945	0.078
Mof_C 	C 	0.5202	0.203	0.1468	0.094
Mof_C 	C 	0.3885	0.6175	0.771	0.26
Mof_C 	C 	0.3214	0.5969	0.7245	0.063
Mof_C 	C 	0.2055	0.5616	0.6439	-0.129
Mof_C 	C 	0.8465	0.6175	0.229	0.26
Mof_C 	C 	0.8724	0.5969	0.2755	0.064
Mof_C 	C 	0.9177	0.5616	0.3561	-0.128
Mof_C 	C 	0.1535	0.3825	0.771	0.259
Mof_C 	C 	0.1276	0.4031	0.7245	0.062
Mof_C 	C 	0.0823	0.4384	0.6439	-0.13
Mof_C 	C 	0.6115	0.3825	0.229	0.26
Mof_C 	C 	0.6786	0.4031	0.2755	0.063
Mof_C 	C 	0.7945	0.4384	0.3561	-0.129
Mof_C 	C 	0.771	0.1535	0.3825	0.259
Mof_C 	C 	0.7245	0.1276	0.4031	0.062
Mof_C 	C 	0.6439	0.0823	0.4384	-0.13
Mof_C 	C 	0.229	0.6115	0.3825	0.26
Mof_C 	C 	0.2755	0.6786	0.4031	0.063
Mof_C 	C 	0.3561	0.7945	0.4384	-0.129
Mof_C 	C 	0.771	0.3885	0.6175	0.26
Mof_C 	C 	0.7245	0.3214	0.5969	0.063
Mof_C 	C 	0.6439	0.2055	0.5616	-0.129
Mof_C 	C 	0.229	0.8465	0.6175	0.26
Mof_C 	C 	0.2755	0.8724	0.5969	0.064
Mof_C 	C 	0.3561	0.9177	0.5616	-0.128
Mof_C 	C 	0.6175	0.229	0.8465	0.26
Mof_C 	C 	0.5969	0.2755	0.8724	0.064
Mof_C 	C 	0.5616	0.3561	0.9177	-0.128
Mof_C 	C 	0.6175	0.771	0.3885	0.26
Mof_C 	C 	0.5969	0.7245	0.3214	0.063
Mof_C 	C 	0.5616	0.6439	0.2055	-0.129
Mof_C 	C 	0.3825	0.229	0.6115	0.26
Mof_C 	C 	0.4031	0.2755	0.6786	0.063
Mof_C 	C 	0.4384	0.3561	0.7945	-0.129
Mof_C 	C 	0.3825	0.771	0.1535	0.259
Mof_C 	C 	0.4031	0.7245	0.1276	0.062
Mof_C 	C 	0.4384	0.6439	0.0823	-0.13
Mof_C 	C 	0.3825	0.6115	0.229	0.26
Mof_C 	C 	0.4031	0.6786	0.2755	0.063
Mof_C 	C 	0.4384	0.7945	0.3561	-0.129
Mof_C 	C 	0.3825	0.1535	0.771	0.259
Mof_C 	C 	0.4031	0.1276	0.7245	0.062
Mof_C 	C 	0.4384	0.0823	0.6439	-0.13
Mof_C 	C 	0.6175	0.8465	0.229	0.26
Mof_C 	C 	0.5969	0.8724	0.2755	0.064
Mof_C 	C 	0.5616	0.9177	0.3561	-0.128
Mof_C 	C 	0.6175	0.3885	0.771	0.26
Mof_C 	C 	0.5969	0.3214	0.7245	0.063
Mof_C 	C 	0.5616	0.2055	0.6439	-0.129
Mof_C 	C 	0.8465	0.229	0.6175	0.26
Mof_C 	C 	0.8724	0.2755	0.5969	0.064
Mof_C 	C 	0.9177	0.3561	0.5616	-0.128
Mof_C 	C 	0.3885	0.771	0.6175	0.26
Mof_C 	C 	0.3214	0.7245	0.5969	0.063
Mof_C 	C 	0.2055	0.6439	0.5616	-0.129
Mof_C 	C 	0.6115	0.229	0.3825	0.26
Mof_C 	C 	0.6786	0.2755	0.4031	0.063
Mof_C 	C 	0.7945	0.3561	0.4384	-0.129
Mof_C 	C 	0.1535	0.771	0.3825	0.259
Mof_C 	C 	0.1276	0.7245	0.4031	0.062
Mof_C 	C 	0.0823	0.6439	0.4384	-0.13
Mof_C 	C 	0.771	0.3825	0.1535	0.259
Mof_C 	C 	0.7245	0.4031	0.1276	0.062
Mof_C 	C 	0.6439	0.4384	0.0823	-0.13
Mof_C 	C 	0.229	0.3825	0.6115	0.26
Mof_C 	C 	0.2755	0.4031	0.6786	0.063
Mof_C 	C 	0.3561	0.4384	0.7945	-0.129
Mof_C 	C 	0.771	0.6175	0.3885	0.26
Mof_C 	C 	0.7245	0.5969	0.3214	0.063
Mof_C 	C 	0.6439	0.5616	0.2055	-0.129
Mof_C 	C 	0.229	0.6175	0.8465	0.26
Mof_C 	C 	0.2755	0.5969	0.8724	0.064
Mof_C 	C 	0.3561	0.5616	0.9177	-0.128
Mof_C 	C 	0.4604	0.7876	-0	0.259
Mof_C 	C 	0.4086	0.8036	-0	0.058
Mof_C 	C 	0.3227	0.8333	-0	-0.167
Mof_C 	C 	0.7876	0.4604	-0	0.259
Mof_C 	C 	0.8036	0.4086	-0	0.058
Mof_C 	C 	0.8333	0.3227	-0	-0.167
Mof_C 	C 	0.2124	0.2124	0.6728	0.273
Mof_C 	C 	0.1964	0.1964	0.605	0.063
Mof_C 	C 	0.1667	0.1667	0.4894	-0.142
Mof_C 	C 	0.5396	0.5396	0.3272	0.273
Mof_C 	C 	0.5914	0.5914	0.395	0.064
Mof_C 	C 	0.6773	0.6773	0.5106	-0.142
Mof_C 	C 	0.6728	0.2124	0.2124	0.273
Mof_C 	C 	0.605	0.1964	0.1964	0.063
Mof_C 	C 	0.4894	0.1667	0.1667	-0.142
Mof_C 	C 	0.3272	0.5396	0.5396	0.273
Mof_C 	C 	0.395	0.5914	0.5914	0.064
Mof_C 	C 	0.5106	0.6773	0.6773	-0.142
Mof_C 	C 	9.93154e-17	0.4604	0.7876	0.259
Mof_C 	C 	1.32421e-16	0.4086	0.8036	0.058
Mof_C 	C 	1.65526e-17	0.3227	0.8333	-0.167
Mof_C 	C 	8.27629e-17	0.7876	0.4604	0.259
Mof_C 	C 	6.62103e-17	0.8036	0.4086	0.058
Mof_C 	C 	1.65526e-17	0.8333	0.3227	-0.167
Mof_C 	C 	0.4604	-6.62103e-17	0.7876	0.259
Mof_C 	C 	0.4086	0	0.8036	0.058
Mof_C 	C 	0.3227	-6.62103e-17	0.8333	-0.167
Mof_C 	C 	0.7876	-3.31051e-17	0.4604	0.259
Mof_C 	C 	0.8036	-3.31051e-17	0.4086	0.058
Mof_C 	C 	0.8333	0	0.3227	-0.167
Mof_C 	C 	0.5396	0.3272	0.5396	0.273
Mof_C 	C 	0.5914	0.395	0.5914	0.064
Mof_C 	C 	0.6773	0.5106	0.6773	-0.142
Mof_C 	C 	0.2124	0.6728	0.2124	0.273
Mof_C 	C 	0.1964	0.605	0.1964	0.063
Mof_C 	C 	0.1667	0.4894	0.1667	-0.142
Mof_C 	C 	0.2124	0.5396	-0	0.258
Mof_C 	C 	0.1964	0.5914	-0	0.057
Mof_C 	C 	0.1667	0.6773	-0	-0.168
Mof_C 	C 	0.5396	0.2124	-0	0.258
Mof_C 	C 	0.5914	0.1964	-0	0.057
Mof_C 	C 	0.6773	0.1667	-0	-0.168
Mof_C 	C 	0.7876	0.7876	0.3272	0.273
Mof_C 	C 	0.8036	0.8036	0.395	0.065
Mof_C 	C 	0.8333	0.8333	0.5106	-0.141
Mof_C 	C 	0.4604	0.4604	0.6728	0.273
Mof_C 	C 	0.4086	0.4086	0.605	0.064
Mof_C 	C 	0.3227	0.3227	0.4894	-0.142
Mof_C 	C 	0.7876	0.3272	0.7876	0.273
Mof_C 	C 	0.8036	0.395	0.8036	0.065
Mof_C 	C 	0.8333	0.5106	0.8333	-0.141
Mof_C 	C 	0.4604	0.6728	0.4604	0.273
Mof_C 	C 	0.4086	0.605	0.4086	0.064
Mof_C 	C 	0.3227	0.4894	0.3227	-0.142
Mof_C 	C 	0.5396	-1.65526e-17	0.2124	0.258
Mof_C 	C 	0.5914	-1.65526e-17	0.1964	0.057
Mof_C 	C 	0.6773	-1.65526e-17	0.1667	-0.168
Mof_C 	C 	0.2124	-6.62103e-17	0.5396	0.258
Mof_C 	C 	0.1964	0	0.5914	0.057
Mof_C 	C 	0.1667	-6.62103e-17	0.6773	-0.168
Mof_C 	C 	5.7934e-17	0.5396	0.2124	0.258
Mof_C 	C 	4.13814e-18	0.5914	0.1964	0.057
Mof_C 	C 	8.27629e-18	0.6773	0.1667	-0.168
Mof_C 	C 	4.96577e-17	0.2124	0.5396	0.258
Mof_C 	C 	-0	0.1964	0.5914	0.057
Mof_C 	C 	3.31051e-17	0.1667	0.6773	-0.168
Mof_C 	C 	0.6728	0.4604	0.4604	0.273
Mof_C 	C 	0.605	0.4086	0.4086	0.064
Mof_C 	C 	0.4894	0.3227	0.3227	-0.142
Mof_C 	C 	0.3272	0.7876	0.7876	0.273
Mof_C 	C 	0.395	0.8036	0.8036	0.065
Mof_C 	C 	0.5106	0.8333	0.8333	-0.141
Mof_N 	N 	0.296	0.6287	0.7459	-0.133
Mof_N 	N 	0.361	0.7823	0.9451	-0.136
Mof_N 	N 	0.8828	0.5501	0.2541	-0.133
Mof_N 	N 	0.8372	0.4159	0.0549	-0.139
Mof_N 	N 	0.1172	0.3713	0.6673	-0.133
Mof_N 	N 	0.1628	0.2177	0.5787	-0.138
Mof_N 	N 	0.704	0.4499	0.3327	-0.133
Mof_N 	N 	0.639	0.5841	0.4213	-0.138
Mof_N 	N 	0.6673	0.1172	0.3713	-0.133
Mof_N 	N 	0.5787	0.1628	0.2177	-0.138
Mof_N 	N 	0.3327	0.704	0.4499	-0.133
Mof_N 	N 	0.4213	0.639	0.5841	-0.138
Mof_N 	N 	0.7459	0.296	0.6287	-0.133
Mof_N 	N 	0.9451	0.361	0.7823	-0.136
Mof_N 	N 	0.2541	0.8828	0.5501	-0.133
Mof_N 	N 	0.0549	0.8372	0.4159	-0.139
Mof_N 	N 	0.5501	0.2541	0.8828	-0.133
Mof_N 	N 	0.4159	0.0549	0.8372	-0.139
Mof_N 	N 	0.6287	0.7459	0.296	-0.133
Mof_N 	N 	0.7823	0.9451	0.361	-0.136
Mof_N 	N 	0.4499	0.3327	0.704	-0.133
Mof_N 	N 	0.5841	0.4213	0.639	-0.138
Mof_N 	N 	0.3713	0.6673	0.1172	-0.133
Mof_N 	N 	0.2177	0.5787	0.1628	-0.138
Mof_N 	N 	0.3713	0.704	0.2541	-0.133
Mof_N 	N 	0.2177	0.639	0.0549	-0.14
Mof_N 	N 	0.4499	0.1172	0.7459	-0.133
Mof_N 	N 	0.5841	0.1628	0.9451	-0.136
Mof_N 	N 	0.6287	0.8828	0.3327	-0.133
Mof_N 	N 	0.7823	0.8372	0.4213	-0.137
Mof_N 	N 	0.5501	0.296	0.6673	-0.133
Mof_N 	N 	0.4159	0.361	0.5787	-0.138
Mof_N 	N 	0.8828	0.3327	0.6287	-0.133
Mof_N 	N 	0.8372	0.4213	0.7823	-0.137
Mof_N 	N 	0.296	0.6673	0.5501	-0.133
Mof_N 	N 	0.361	0.5787	0.4159	-0.138
Mof_N 	N 	0.704	0.2541	0.3713	-0.133
Mof_N 	N 	0.639	0.0549	0.2177	-0.14
Mof_N 	N 	0.1172	0.7459	0.4499	-0.133
Mof_N 	N 	0.1628	0.9451	0.5841	-0.136
Mof_N 	N 	0.7459	0.4499	0.1172	-0.133
Mof_N 	N 	0.9451	0.5841	0.1628	-0.136
Mof_N 	N 	0.2541	0.3713	0.704	-0.133
Mof_N 	N 	0.0549	0.2177	0.639	-0.14
Mof_N 	N 	0.6673	0.5501	0.296	-0.133
Mof_N 	N 	0.5787	0.4159	0.361	-0.138
Mof_N 	N 	0.3327	0.6287	0.8828	-0.133
Mof_N 	N 	0.4213	0.7823	0.8372	-0.137
Mof_N 	N 	0.704	0.3713	0.2541	-0.133
Mof_N 	N 	0.639	0.2177	0.0549	-0.14
Mof_N 	N 	0.1172	0.4499	0.7459	-0.133
Mof_N 	N 	0.1628	0.5841	0.9451	-0.136
Mof_N 	N 	0.8828	0.6287	0.3327	-0.133
Mof_N 	N 	0.8372	0.7823	0.4213	-0.137
Mof_N 	N 	0.296	0.5501	0.6673	-0.133
Mof_N 	N 	0.361	0.4159	0.5787	-0.138
Mof_N 	N 	0.3327	0.8828	0.6287	-0.133
Mof_N 	N 	0.4213	0.8372	0.7823	-0.137
Mof_N 	N 	0.6673	0.296	0.5501	-0.133
Mof_N 	N 	0.5787	0.361	0.4159	-0.138
Mof_N 	N 	0.2541	0.704	0.3713	-0.133
Mof_N 	N 	0.0549	0.639	0.2177	-0.14
Mof_N 	N 	0.7459	0.1172	0.4499	-0.133
Mof_N 	N 	0.9451	0.1628	0.5841	-0.136
Mof_N 	N 	0.4499	0.7459	0.1172	-0.133
Mof_N 	N 	0.5841	0.9451	0.1628	-0.136
Mof_N 	N 	0.3713	0.2541	0.704	-0.133
Mof_N 	N 	0.2177	0.0549	0.639	-0.14
Mof_N 	N 	0.5501	0.6673	0.296	-0.133
Mof_N 	N 	0.4159	0.5787	0.361	-0.138
Mof_N 	N 	0.6287	0.3327	0.8828	-0.133
Mof_N 	N 	0.7823	0.4213	0.8372	-0.137
Mof_N 	N 	0.6287	0.296	0.7459	-0.133
Mof_N 	N 	0.7823	0.361	0.9451	-0.136
Mof_N 	N 	0.5501	0.8828	0.2541	-0.133
Mof_N 	N 	0.4159	0.8372	0.0549	-0.139
Mof_N 	N 	0.3713	0.1172	0.6673	-0.133
Mof_N 	N 	0.2177	0.1628	0.5787	-0.138
Mof_N 	N 	0.4499	0.704	0.3327	-0.133
Mof_N 	N 	0.5841	0.639	0.4213	-0.138
Mof_N 	N 	0.1172	0.6673	0.3713	-0.133
Mof_N 	N 	0.1628	0.5787	0.2177	-0.138
Mof_N 	N 	0.704	0.3327	0.4499	-0.133
Mof_N 	N 	0.639	0.4213	0.5841	-0.138
Mof_N 	N 	0.296	0.7459	0.6287	-0.133
Mof_N 	N 	0.361	0.9451	0.7823	-0.136
Mof_N 	N 	0.8828	0.2541	0.5501	-0.133
Mof_N 	N 	0.8372	0.0549	0.4159	-0.139
Mof_N 	N 	0.2541	0.5501	0.8828	-0.133
Mof_N 	N 	0.0549	0.4159	0.8372	-0.139
Mof_N 	N 	0.7459	0.6287	0.296	-0.133
Mof_N 	N 	0.9451	0.7823	0.361	-0.136
Mof_N 	N 	0.3327	0.4499	0.704	-0.133
Mof_N 	N 	0.4213	0.5841	0.639	-0.138
Mof_N 	N 	0.6673	0.3713	0.1172	-0.133
Mof_N 	N 	0.5787	0.2177	0.1628	-0.138
Mof_O 	O 	0.41344	0.66188	0.82552	-0.235
Mof_O 	O 	0.45273	0.75542	0.94801	-0.232
Mof_O 	O 	0.83636	0.58792	0.17448	-0.236
Mof_O 	O 	0.80741	0.50472	0.05199	-0.242
Mof_O 	O 	0.16364	0.33812	0.75156	-0.236
Mof_O 	O 	0.19259	0.24458	0.69731	-0.245
Mof_O 	O 	0.58656	0.41208	0.24844	-0.237
Mof_O 	O 	0.54727	0.49528	0.30269	-0.245
Mof_O 	O 	0.75156	0.16364	0.33812	-0.236
Mof_O 	O 	0.69731	0.19259	0.24458	-0.245
Mof_O 	O 	0.24844	0.58656	0.41208	-0.237
Mof_O 	O 	0.30269	0.54727	0.49528	-0.245
Mof_O 	O 	0.82552	0.41344	0.66188	-0.235
Mof_O 	O 	0.94801	0.45273	0.75542	-0.232
Mof_O 	O 	0.17448	0.83636	0.58792	-0.236
Mof_O 	O 	0.05199	0.80741	0.50472	-0.242
Mof_O 	O 	0.58792	0.17448	0.83636	-0.236
Mof_O 	O 	0.50472	0.05199	0.80741	-0.242
Mof_O 	O 	0.66188	0.82552	0.41344	-0.235
Mof_O 	O 	0.75542	0.94801	0.45273	-0.232
Mof_O 	O 	0.41208	0.24844	0.58656	-0.237
Mof_O 	O 	0.49528	0.30269	0.54727	-0.245
Mof_O 	O 	0.33812	0.75156	0.16364	-0.236
Mof_O 	O 	0.24458	0.69731	0.19259	-0.245
Mof_O 	O 	0.33812	0.58656	0.17448	-0.237
Mof_O 	O 	0.24458	0.54727	0.05199	-0.243
Mof_O 	O 	0.41208	0.16364	0.82552	-0.236
Mof_O 	O 	0.49528	0.19259	0.94801	-0.233
Mof_O 	O 	0.66188	0.83636	0.24844	-0.236
Mof_O 	O 	0.75542	0.80741	0.30269	-0.244
Mof_O 	O 	0.58792	0.41344	0.75156	-0.235
Mof_O 	O 	0.50472	0.45273	0.69731	-0.244
Mof_O 	O 	0.83636	0.24844	0.66188	-0.236
Mof_O 	O 	0.80741	0.30269	0.75542	-0.244
Mof_O 	O 	0.41344	0.75156	0.58792	-0.235
Mof_O 	O 	0.45273	0.69731	0.50472	-0.244
Mof_O 	O 	0.58656	0.17448	0.33812	-0.237
Mof_O 	O 	0.54727	0.05199	0.24458	-0.243
Mof_O 	O 	0.16364	0.82552	0.41208	-0.236
Mof_O 	O 	0.19259	0.94801	0.49528	-0.233
Mof_O 	O 	0.82552	0.41208	0.16364	-0.236
Mof_O 	O 	0.94801	0.49528	0.19259	-0.233
Mof_O 	O 	0.17448	0.33812	0.58656	-0.237
Mof_O 	O 	0.05199	0.24458	0.54727	-0.243
Mof_O 	O 	0.75156	0.58792	0.41344	-0.235
Mof_O 	O 	0.69731	0.50472	0.45273	-0.244
Mof_O 	O 	0.24844	0.66188	0.83636	-0.236
Mof_O 	O 	0.30269	0.75542	0.80741	-0.244
Mof_O 	O 	0.58656	0.33812	0.17448	-0.237
Mof_O 	O 	0.54727	0.24458	0.05199	-0.243
Mof_O 	O 	0.16364	0.41208	0.82552	-0.236
Mof_O 	O 	0.19259	0.49528	0.94801	-0.233
Mof_O 	O 	0.83636	0.66188	0.24844	-0.236
Mof_O 	O 	0.80741	0.75542	0.30269	-0.244
Mof_O 	O 	0.41344	0.58792	0.75156	-0.235
Mof_O 	O 	0.45273	0.50472	0.69731	-0.244
Mof_O 	O 	0.24844	0.83636	0.66188	-0.236
Mof_O 	O 	0.30269	0.80741	0.75542	-0.244
Mof_O 	O 	0.75156	0.41344	0.58792	-0.235
Mof_O 	O 	0.69731	0.45273	0.50472	-0.244
Mof_O 	O 	0.17448	0.58656	0.33812	-0.237
Mof_O 	O 	0.05199	0.54727	0.24458	-0.243
Mof_O 	O 	0.82552	0.16364	0.41208	-0.236
Mof_O 	O 	0.94801	0.19259	0.49528	-0.233
Mof_O 	O 	0.41208	0.82552	0.16364	-0.236
Mof_O 	O 	0.49528	0.94801	0.19259	-0.233
Mof_O 	O 	0.33812	0.17448	0.58656	-0.237
Mof_O 	O 	0.24458	0.05199	0.54727	-0.243
Mof_O 	O 	0.58792	0.75156	0.41344	-0.235
Mof_O 	O 	0.50472	0.69731	0.45273	-0.244
Mof_O 	O 	0.66188	0.24844	0.83636	-0.236
Mof_O 	O 	0.75542	0.30269	0.80741	-0.244
Mof_O 	O 	0.66188	0.41344	0.82552	-0.235
Mof_O 	O 	0.75542	0.45273	0.94801	-0.232
Mof_O 	O 	0.58792	0.83636	0.17448	-0.236
Mof_O 	O 	0.50472	0.80741	0.05199	-0.242
Mof_O 	O 	0.33812	0.16364	0.75156	-0.236
Mof_O 	O 	0.24458	0.19259	0.69731	-0.245
Mof_O 	O 	0.41208	0.58656	0.24844	-0.237
Mof_O 	O 	0.49528	0.54727	0.30269	-0.245
Mof_O 	O 	0.16364	0.75156	0.33812	-0.236
Mof_O 	O 	0.19259	0.69731	0.24458	-0.245
Mof_O 	O 	0.58656	0.24844	0.41208	-0.237
Mof_O 	O 	0.54727	0.30269	0.49528	-0.245
Mof_O 	O 	0.41344	0.82552	0.66188	-0.235
Mof_O 	O 	0.45273	0.94801	0.75542	-0.232
Mof_O 	O 	0.83636	0.17448	0.58792	-0.236
Mof_O 	O 	0.80741	0.05199	0.50472	-0.242
Mof_O 	O 	0.17448	0.58792	0.83636	-0.236
Mof_O 	O 	0.05199	0.50472	0.80741	-0.242
Mof_O 	O 	0.82552	0.66188	0.41344	-0.235
Mof_O 	O 	0.94801	0.75542	0.45273	-0.232
Mof_O 	O 	0.24844	0.41208	0.58656	-0.237
Mof_O 	O 	0.30269	0.49528	0.54727	-0.245
Mof_O 	O 	0.75156	0.33812	0.16364	-0.236
Mof_O 	O 	0.69731	0.24458	0.19259	-0.245
_end
