data_functionalizedCrystal
_audit_creation_method	'EQeq! by Chris Wilmer'
_symmetry_space_group_name_H-M	'P1'
_symmetry_Int_Tables_number	1
_symmetry_cell_setting	triclinic
loop_
_symmetry_equiv_pos_as_xyz
  x,y,z
_cell_length_a	24.742
_cell_length_b	33.475
_cell_length_c	18.4621
_cell_angle_alpha	90
_cell_angle_beta	90
_cell_angle_gamma	90
loop_
_atom_site_label
_atom_site_type_symbol
_atom_site_fract_x
_atom_site_fract_y
_atom_site_fract_z
_atom_site_charge
Mof_Cu	Cu	0.21502	0.27176	0.43366	0.911
Mof_Cu	Cu	0.29441	0.23715	0.50733	0.907
Mof_O 	O 	0.32214	0.2912	0.516	-0.408
Mof_O 	O 	0.44354	0.57006	0.3066	-0.406
Mof_O 	O 	0.44367	0.43534	0.6574	-0.396
Mof_O 	O 	0.2383	0.23934	0.8517	-0.415
Mof_O 	O 	0.25473	0.31989	0.453	-0.402
Mof_O 	O 	0.18083	0.27672	0.5272	-0.397
Mof_O 	O 	0.17141	0.26955	0.91082	-0.42
Mof_O 	O 	0.2481	0.24747	0.5899	-0.419
Mof_O 	O 	0.24784	0.68815	0.4855	-0.43
Mof_O 	O 	0.31342	0.7176	0.4247	-0.445
Mof_O 	O 	0.444	0.6366	0.2977	-0.414
Mof_C 	C 	0.3121	0.64734	0.4352	-0.085
Mof_C 	C 	0.3591	0.64367	0.3902	0.033
Mof_H 	H 	0.376	0.6665	0.3727	0.053
Mof_O 	O 	0.4462	0.36903	0.6492	-0.409
Mof_C 	C 	0.2915	0.39618	0.4947	0.034
Mof_H 	H 	0.2612	0.3941	0.4652	0.033
Mof_C 	C 	0.379	0.60696	0.3729	-0.097
Mof_C 	C 	0.3066	0.57511	0.4379	-0.058
Mof_C 	C 	0.3073	0.43346	0.5187	-0.093
Mof_C 	C 	0.381	0.40116	0.5843	-0.123
Mof_C 	C 	0.297	0.32098	0.4946	0.352
Mof_C 	C 	0.319	0.36215	0.5132	-0.102
Mof_C 	C 	0.1738	0.27492	0.6535	-0.107
Mof_C 	C 	0.0477	0.32846	0.7106	0.197
Mof_C 	C 	0.2884	0.69058	0.4479	0.42
Mof_C 	C 	0.1011	0.30688	0.7165	-0.086
Mof_C 	C 	0.2853	0.61356	0.4589	0.009
Mof_H 	H 	0.2546	0.6155	0.4876	0.046
Mof_C 	C 	0.4257	0.40135	0.6341	0.376
Mof_C 	C 	0.1947	0.25859	0.8558	0.38
Mof_C 	C 	0.2174	0.53948	0.4645	-0.24
Mof_H 	H 	0.197	0.5619	0.4528	0.131
Mof_C 	C 	0.2053	0.26538	0.5873	0.359
Mof_C 	C 	0.1267	0.29643	0.6531	0.032
Mof_H 	H 	0.1117	0.3041	0.609	0.035
Mof_C 	C 	0.196	0.26095	0.7196	0.04
Mof_H 	H 	0.2278	0.2461	0.7201	0.048
Mof_C 	C 	0.4256	0.60391	0.322	0.364
Mof_C 	C 	0.2773	0.46896	0.4993	0.191
Mof_C 	C 	0.3536	0.4354	0.5646	0.041
Mof_H 	H 	0.3655	0.4601	0.5815	0.032
Mof_C 	C 	0.1686	0.27011	0.7844	-0.105
Mof_C 	C 	0.3639	0.36371	0.5585	0.051
Mof_H 	H 	0.3822	0.3405	0.5714	0.047
Mof_C 	C 	0.0459	0.3689	0.6761	-0.329
Mof_H 	H 	0.0786	0.3809	0.6642	0.156
Mof_C 	C 	0.1226	0.29239	0.7836	0.028
Mof_H 	H 	0.105	0.2982	0.8268	0.035
Mof_C 	C 	0.3034	0.50435	0.4833	-0.222
Mof_H 	H 	0.3409	0.5049	0.4879	0.113
Mof_C 	C 	0.2777	0.53938	0.4607	0.142
Mof_C 	C 	0.2228	0.4702	0.5006	-0.291
Mof_H 	H 	0.204	0.447	0.5118	0.134
Mof_C 	C 	0.3518	0.57237	0.397	0.014
Mof_H 	H 	0.3652	0.5473	0.3846	0.043
Mof_C 	C 	0.1941	0.5043	0.4862	0.263
Mof_O 	O 	0.137	0.5062	0.478	-0.218
Mof_C 	C 	0.1023	0.4698	0.4728	-0.126
Mof_H 	H 	0.1128	0.4511	0.5095	-0.002
Mof_H 	H 	0.1067	0.4579	0.4259	0.074
Mof_H 	H 	0.0652	0.4772	0.4796	0.061
Mof_C 	C 	0.1106	0.4744	0.525	0.008
Mof_H 	H 	0.0721	0.476	0.5201	0.024
Mof_H 	H 	0.1204	0.4786	0.5747	0.031
Mof_H 	H 	0.1227	0.4484	0.5099	0.05
Mof_Cu	Cu	0.71502	0.77176	0.43366	0.911
Mof_Cu	Cu	0.79441	0.73715	0.50733	0.908
Mof_O 	O 	0.82214	0.7912	0.516	-0.405
Mof_O 	O 	0.94354	0.07006	0.3066	-0.389
Mof_O 	O 	0.94367	0.93534	0.6574	-0.378
Mof_O 	O 	0.7383	0.73934	0.8517	-0.413
Mof_O 	O 	0.75473	0.81989	0.453	-0.4
Mof_O 	O 	0.68083	0.77672	0.5272	-0.395
Mof_O 	O 	0.67141	0.76955	0.91082	-0.416
Mof_O 	O 	0.7481	0.74747	0.5899	-0.416
Mof_O 	O 	0.74784	0.18815	0.4855	-0.428
Mof_O 	O 	0.81342	0.2176	0.4247	-0.442
Mof_O 	O 	0.944	0.1366	0.2977	-0.395
Mof_C 	C 	0.8121	0.14734	0.4352	-0.08
Mof_C 	C 	0.8591	0.14367	0.3902	0.029
Mof_H 	H 	0.876	0.1665	0.3727	0.058
Mof_O 	O 	0.9462	0.86903	0.6492	-0.39
Mof_C 	C 	0.7915	0.89618	0.4947	0.031
Mof_H 	H 	0.7612	0.8941	0.4652	0.036
Mof_C 	C 	0.879	0.10696	0.3729	-0.089
Mof_C 	C 	0.8066	0.07511	0.4379	-0.053
Mof_C 	C 	0.8073	0.93346	0.5187	-0.088
Mof_C 	C 	0.881	0.90116	0.5843	-0.114
Mof_C 	C 	0.797	0.82098	0.4946	0.35
Mof_C 	C 	0.819	0.86215	0.5132	-0.096
Mof_C 	C 	0.6738	0.77492	0.6535	-0.1
Mof_C 	C 	0.5477	0.82846	0.7106	0.188
Mof_C 	C 	0.7884	0.19058	0.4479	0.419
Mof_C 	C 	0.6011	0.80688	0.7165	-0.076
Mof_C 	C 	0.7853	0.11356	0.4589	0.006
Mof_H 	H 	0.7546	0.1155	0.4876	0.048
Mof_C 	C 	0.9257	0.90135	0.6341	0.371
Mof_C 	C 	0.6947	0.75859	0.8558	0.379
Mof_C 	C 	0.7174	0.03948	0.4645	-0.238
Mof_H 	H 	0.697	0.0619	0.4528	0.132
Mof_C 	C 	0.7053	0.76538	0.5873	0.357
Mof_C 	C 	0.6267	0.79643	0.6531	0.026
Mof_H 	H 	0.6117	0.8041	0.609	0.041
Mof_C 	C 	0.696	0.76095	0.7196	0.036
Mof_H 	H 	0.7278	0.7461	0.7201	0.051
Mof_C 	C 	0.9256	0.10391	0.322	0.36
Mof_C 	C 	0.7773	0.96896	0.4993	0.19
Mof_C 	C 	0.8536	0.9354	0.5646	0.037
Mof_H 	H 	0.8655	0.9601	0.5815	0.037
Mof_C 	C 	0.6686	0.77011	0.7844	-0.098
Mof_C 	C 	0.8639	0.86371	0.5585	0.047
Mof_H 	H 	0.8822	0.8405	0.5714	0.053
Mof_C 	C 	0.5459	0.8689	0.6761	-0.336
Mof_H 	H 	0.5786	0.8809	0.6642	0.161
Mof_C 	C 	0.6226	0.79239	0.7836	0.022
Mof_H 	H 	0.605	0.7982	0.8268	0.041
Mof_C 	C 	0.8034	0.00435	0.4833	-0.22
Mof_H 	H 	0.8409	0.0049	0.4879	0.116
Mof_C 	C 	0.7777	0.03938	0.4607	0.142
Mof_C 	C 	0.7228	0.9702	0.5006	-0.289
Mof_H 	H 	0.704	0.947	0.5118	0.134
Mof_C 	C 	0.8518	0.07237	0.397	0.011
Mof_H 	H 	0.8652	0.0473	0.3846	0.047
Mof_C 	C 	0.6941	0.0043	0.4862	0.263
Mof_O 	O 	0.637	0.0062	0.478	-0.213
Mof_C 	C 	0.6023	0.9698	0.4728	-0.128
Mof_H 	H 	0.6128	0.9511	0.5095	-0.001
Mof_H 	H 	0.6067	0.9579	0.4259	0.079
Mof_H 	H 	0.5652	0.9772	0.4796	0.067
Mof_C 	C 	0.6106	0.9744	0.525	-0
Mof_H 	H 	0.5721	0.976	0.5201	0.03
Mof_H 	H 	0.6204	0.9786	0.5747	0.037
Mof_H 	H 	0.6227	0.9484	0.5099	0.053
Mof_Cu	Cu	0.78498	0.72824	0.93366	0.91
Mof_Cu	Cu	0.70559	0.76285	0.00733	0.909
Mof_O 	O 	0.67786	0.7088	0.016	-0.398
Mof_O 	O 	0.55646	0.42994	0.8066	-0.408
Mof_O 	O 	0.55633	0.56466	0.1574	-0.394
Mof_O 	O 	0.7617	0.76066	0.3517	-0.413
Mof_O 	O 	0.74527	0.68011	0.953	-0.397
Mof_O 	O 	0.81917	0.72328	0.0272	-0.389
Mof_O 	O 	0.82859	0.73045	0.41082	-0.41
Mof_O 	O 	0.7519	0.75253	0.0899	-0.416
Mof_O 	O 	0.75216	0.31185	0.9855	-0.43
Mof_O 	O 	0.68658	0.2824	0.9247	-0.447
Mof_O 	O 	0.556	0.3634	0.7977	-0.414
Mof_C 	C 	0.6879	0.35266	0.9352	-0.082
Mof_C 	C 	0.6409	0.35633	0.8902	0.03
Mof_H 	H 	0.624	0.3335	0.8727	0.053
Mof_O 	O 	0.5538	0.63097	0.1492	-0.406
Mof_C 	C 	0.7085	0.60382	0.9947	-0.02
Mof_H 	H 	0.7388	0.6059	0.9652	0.052
Mof_C 	C 	0.621	0.39304	0.8729	-0.095
Mof_C 	C 	0.6934	0.42489	0.9379	-0.048
Mof_C 	C 	0.6927	0.56654	0.0187	-0.042
Mof_C 	C 	0.619	0.59884	0.0843	-0.1
Mof_C 	C 	0.703	0.67902	0.9946	0.326
Mof_C 	C 	0.681	0.63785	0.0132	-0.061
Mof_C 	C 	0.8262	0.72508	0.1535	-0.1
Mof_C 	C 	0.9523	0.67154	0.2106	0.228
Mof_C 	C 	0.7116	0.30942	0.9479	0.419
Mof_C 	C 	0.8989	0.69312	0.2165	-0.082
Mof_C 	C 	0.7147	0.38644	0.9589	0.003
Mof_H 	H 	0.7454	0.3845	0.9876	0.049
Mof_C 	C 	0.5743	0.59865	0.1341	0.367
Mof_C 	C 	0.8053	0.74141	0.3558	0.379
Mof_C 	C 	0.7826	0.46052	0.9645	-0.218
Mof_H 	H 	0.803	0.4381	0.9528	0.127
Mof_C 	C 	0.7947	0.73462	0.0873	0.358
Mof_C 	C 	0.8733	0.70357	0.1531	0.033
Mof_H 	H 	0.8883	0.6959	0.109	0.044
Mof_C 	C 	0.804	0.73905	0.2196	0.039
Mof_H 	H 	0.7722	0.7539	0.2201	0.05
Mof_C 	C 	0.5744	0.39609	0.822	0.363
Mof_C 	C 	0.7227	0.53104	0.9993	0.14
Mof_C 	C 	0.6464	0.5646	0.0646	0.01
Mof_H 	H 	0.6345	0.5399	0.0815	0.045
Mof_C 	C 	0.8314	0.72989	0.2844	-0.098
Mof_C 	C 	0.6361	0.63629	0.0585	0.023
Mof_H 	H 	0.6178	0.6595	0.0714	0.058
Mof_C 	C 	0.9541	0.6311	0.1761	-0.283
Mof_H 	H 	0.9214	0.6191	0.1642	0.15
Mof_C 	C 	0.8774	0.70761	0.2836	0.03
Mof_H 	H 	0.895	0.7018	0.3268	0.046
Mof_C 	C 	0.6966	0.49565	0.9833	-0.191
Mof_H 	H 	0.6591	0.4951	0.9879	0.101
Mof_C 	C 	0.7223	0.46062	0.9607	0.123
Mof_C 	C 	0.7772	0.5298	0.0006	-0.239
Mof_H 	H 	0.796	0.553	0.0118	0.12
Mof_C 	C 	0.6482	0.42763	0.897	0.008
Mof_H 	H 	0.6348	0.4527	0.8846	0.045
Mof_C 	C 	0.8059	0.4957	0.9862	0.233
Mof_O 	O 	0.863	0.4938	0.978	-0.201
Mof_C 	C 	0.8977	0.5302	0.9728	-0.121
Mof_H 	H 	0.8872	0.5489	0.0095	0.002
Mof_H 	H 	0.8933	0.5421	0.9259	0.08
Mof_H 	H 	0.9348	0.5228	0.9796	0.061
Mof_C 	C 	0.8894	0.5256	0.025	-0.034
Mof_H 	H 	0.9279	0.524	0.0201	0.054
Mof_H 	H 	0.8796	0.5214	0.0747	0.054
Mof_H 	H 	0.8773	0.5516	0.0099	0.065
Mof_Cu	Cu	0.28498	0.22824	0.93366	0.909
Mof_Cu	Cu	0.20559	0.26285	0.00733	0.908
Mof_O 	O 	0.17786	0.2088	0.016	-0.401
Mof_O 	O 	0.05646	0.92994	0.8066	-0.417
Mof_O 	O 	0.05633	0.06466	0.1574	-0.404
Mof_O 	O 	0.2617	0.26066	0.3517	-0.415
Mof_O 	O 	0.24527	0.18011	0.953	-0.399
Mof_O 	O 	0.31917	0.22328	0.0272	-0.392
Mof_O 	O 	0.32859	0.23045	0.41082	-0.414
Mof_O 	O 	0.2519	0.25253	0.0899	-0.418
Mof_O 	O 	0.25216	0.81185	0.9855	-0.432
Mof_O 	O 	0.18658	0.7824	0.9247	-0.45
Mof_O 	O 	0.056	0.8634	0.7977	-0.423
Mof_C 	C 	0.1879	0.85266	0.9352	-0.087
Mof_C 	C 	0.1409	0.85633	0.8902	0.032
Mof_H 	H 	0.124	0.8335	0.8727	0.049
Mof_O 	O 	0.0538	0.13097	0.1492	-0.417
Mof_C 	C 	0.2085	0.10382	0.9947	-0.019
Mof_H 	H 	0.2388	0.1059	0.9652	0.05
Mof_C 	C 	0.121	0.89304	0.8729	-0.101
Mof_C 	C 	0.1934	0.92489	0.9379	-0.051
Mof_C 	C 	0.1927	0.06654	0.0187	-0.044
Mof_C 	C 	0.119	0.09884	0.0843	-0.107
Mof_C 	C 	0.203	0.17902	0.9946	0.327
Mof_C 	C 	0.181	0.13785	0.0132	-0.065
Mof_C 	C 	0.3262	0.22508	0.1535	-0.101
Mof_C 	C 	0.4523	0.17154	0.2106	0.188
Mof_C 	C 	0.2116	0.80942	0.9479	0.42
Mof_C 	C 	0.3989	0.19312	0.2165	-0.076
Mof_C 	C 	0.2147	0.88644	0.9589	0.005
Mof_H 	H 	0.2454	0.8845	0.9876	0.047
Mof_C 	C 	0.0743	0.09865	0.1341	0.369
Mof_C 	C 	0.3053	0.24141	0.3558	0.379
Mof_C 	C 	0.2826	0.96052	0.9645	-0.219
Mof_H 	H 	0.303	0.9381	0.9528	0.125
Mof_C 	C 	0.2947	0.23462	0.0873	0.358
Mof_C 	C 	0.3733	0.20357	0.1531	0.027
Mof_H 	H 	0.3883	0.1959	0.109	0.042
Mof_C 	C 	0.304	0.23905	0.2196	0.037
Mof_H 	H 	0.2722	0.2539	0.2201	0.049
Mof_C 	C 	0.0744	0.89609	0.822	0.364
Mof_C 	C 	0.2227	0.03104	0.9993	0.139
Mof_C 	C 	0.1464	0.0646	0.0646	0.012
Mof_H 	H 	0.1345	0.0399	0.0815	0.041
Mof_C 	C 	0.3314	0.22989	0.2844	-0.099
Mof_C 	C 	0.1361	0.13629	0.0585	0.026
Mof_H 	H 	0.1178	0.1595	0.0714	0.053
Mof_C 	C 	0.4541	0.1311	0.1761	-0.336
Mof_H 	H 	0.4214	0.1191	0.1642	0.161
Mof_C 	C 	0.3774	0.20761	0.2836	0.023
Mof_H 	H 	0.395	0.2018	0.3268	0.041
Mof_C 	C 	0.1966	0.99565	0.9833	-0.191
Mof_H 	H 	0.1591	0.9951	0.9879	0.098
Mof_C 	C 	0.2223	0.96062	0.9607	0.123
Mof_C 	C 	0.2772	0.0298	0.0006	-0.24
Mof_H 	H 	0.296	0.053	0.0118	0.119
Mof_C 	C 	0.1482	0.92763	0.897	0.011
Mof_H 	H 	0.1348	0.9527	0.8846	0.041
Mof_C 	C 	0.3059	0.9957	0.9862	0.233
Mof_O 	O 	0.363	0.9938	0.978	-0.207
Mof_C 	C 	0.3977	0.0302	0.9728	-0.115
Mof_H 	H 	0.3872	0.0489	0.0095	0.001
Mof_H 	H 	0.3933	0.0421	0.9259	0.073
Mof_H 	H 	0.4348	0.0228	0.9796	0.053
Mof_C 	C 	0.3894	0.0256	0.025	-0.028
Mof_H 	H 	0.4279	0.024	0.0201	0.047
Mof_H 	H 	0.3796	0.0214	0.0747	0.047
Mof_H 	H 	0.3773	0.0516	0.0099	0.059
Mof_Cu	Cu	0.21502	0.72824	0.93366	0.908
Mof_Cu	Cu	0.29441	0.76285	0.00733	0.909
Mof_O 	O 	0.32214	0.7088	0.016	-0.399
Mof_O 	O 	0.44354	0.42994	0.8066	-0.408
Mof_O 	O 	0.44367	0.56466	0.1574	-0.394
Mof_O 	O 	0.2383	0.76066	0.3517	-0.415
Mof_O 	O 	0.25473	0.68011	0.953	-0.4
Mof_O 	O 	0.18083	0.72328	0.0272	-0.395
Mof_O 	O 	0.17141	0.73045	0.41082	-0.417
Mof_O 	O 	0.2481	0.75253	0.0899	-0.417
Mof_O 	O 	0.24784	0.31185	0.9855	-0.433
Mof_O 	O 	0.31342	0.2824	0.9247	-0.447
Mof_O 	O 	0.444	0.3634	0.7977	-0.414
Mof_C 	C 	0.3121	0.35266	0.9352	-0.084
Mof_C 	C 	0.3591	0.35633	0.8902	0.031
Mof_H 	H 	0.376	0.3335	0.8727	0.053
Mof_O 	O 	0.4462	0.63097	0.1492	-0.406
Mof_C 	C 	0.2915	0.60382	0.9947	-0.018
Mof_H 	H 	0.2612	0.6059	0.9652	0.049
Mof_C 	C 	0.379	0.39304	0.8729	-0.096
Mof_C 	C 	0.3066	0.42489	0.9379	-0.049
Mof_C 	C 	0.3073	0.56654	0.0187	-0.044
Mof_C 	C 	0.381	0.59884	0.0843	-0.101
Mof_C 	C 	0.297	0.67902	0.9946	0.327
Mof_C 	C 	0.319	0.63785	0.0132	-0.063
Mof_C 	C 	0.1738	0.72508	0.1535	-0.105
Mof_C 	C 	0.0477	0.67154	0.2106	0.197
Mof_C 	C 	0.2884	0.30942	0.9479	0.42
Mof_C 	C 	0.1011	0.69312	0.2165	-0.085
Mof_C 	C 	0.2853	0.38644	0.9589	0.004
Mof_H 	H 	0.2546	0.3845	0.9876	0.047
Mof_C 	C 	0.4257	0.59865	0.1341	0.368
Mof_C 	C 	0.1947	0.74141	0.3558	0.38
Mof_C 	C 	0.2174	0.46052	0.9645	-0.22
Mof_H 	H 	0.197	0.4381	0.9528	0.123
Mof_C 	C 	0.2053	0.73462	0.0873	0.359
Mof_C 	C 	0.1267	0.70357	0.1531	0.031
Mof_H 	H 	0.1117	0.6959	0.109	0.036
Mof_C 	C 	0.196	0.73905	0.2196	0.039
Mof_H 	H 	0.2278	0.7539	0.2201	0.049
Mof_C 	C 	0.4256	0.39609	0.822	0.364
Mof_C 	C 	0.2773	0.53104	0.9993	0.141
Mof_C 	C 	0.3536	0.5646	0.0646	0.011
Mof_H 	H 	0.3655	0.5399	0.0815	0.044
Mof_C 	C 	0.1686	0.72989	0.2844	-0.103
Mof_C 	C 	0.3639	0.63629	0.0585	0.024
Mof_H 	H 	0.3822	0.6595	0.0714	0.057
Mof_C 	C 	0.0459	0.6311	0.1761	-0.329
Mof_H 	H 	0.0786	0.6191	0.1642	0.156
Mof_C 	C 	0.1226	0.70761	0.2836	0.027
Mof_H 	H 	0.105	0.7018	0.3268	0.036
Mof_C 	C 	0.3034	0.49565	0.9833	-0.192
Mof_H 	H 	0.3409	0.4951	0.9879	0.101
Mof_C 	C 	0.2777	0.46062	0.9607	0.123
Mof_C 	C 	0.2228	0.5298	0.0006	-0.241
Mof_H 	H 	0.204	0.553	0.0118	0.119
Mof_C 	C 	0.3518	0.42763	0.897	0.009
Mof_H 	H 	0.3652	0.4527	0.8846	0.044
Mof_C 	C 	0.1941	0.4957	0.9862	0.234
Mof_O 	O 	0.137	0.4938	0.978	-0.212
Mof_C 	C 	0.1023	0.5302	0.9728	-0.114
Mof_H 	H 	0.1128	0.5489	0.0095	0.001
Mof_H 	H 	0.1067	0.5421	0.9259	0.068
Mof_H 	H 	0.0652	0.5228	0.9796	0.047
Mof_C 	C 	0.1106	0.5256	0.025	-0.019
Mof_H 	H 	0.0721	0.524	0.0201	0.04
Mof_H 	H 	0.1204	0.5214	0.0747	0.042
Mof_H 	H 	0.1227	0.5516	0.0099	0.055
Mof_Cu	Cu	0.71502	0.22824	0.93366	0.909
Mof_Cu	Cu	0.79441	0.26285	0.00733	0.91
Mof_O 	O 	0.82214	0.2088	0.016	-0.394
Mof_O 	O 	0.94354	0.92994	0.8066	-0.39
Mof_O 	O 	0.94367	0.06466	0.1574	-0.375
Mof_O 	O 	0.7383	0.26066	0.3517	-0.412
Mof_O 	O 	0.75473	0.18011	0.953	-0.397
Mof_O 	O 	0.68083	0.22328	0.0272	-0.392
Mof_O 	O 	0.67141	0.23045	0.41082	-0.413
Mof_O 	O 	0.7481	0.25253	0.0899	-0.415
Mof_O 	O 	0.74784	0.81185	0.9855	-0.431
Mof_O 	O 	0.81342	0.7824	0.9247	-0.443
Mof_O 	O 	0.944	0.8634	0.7977	-0.395
Mof_C 	C 	0.8121	0.85266	0.9352	-0.079
Mof_C 	C 	0.8591	0.85633	0.8902	0.027
Mof_H 	H 	0.876	0.8335	0.8727	0.058
Mof_O 	O 	0.9462	0.13097	0.1492	-0.387
Mof_C 	C 	0.7915	0.10382	0.9947	-0.024
Mof_H 	H 	0.7612	0.1059	0.9652	0.053
Mof_C 	C 	0.879	0.89304	0.8729	-0.087
Mof_C 	C 	0.8066	0.92489	0.9379	-0.044
Mof_C 	C 	0.8073	0.06654	0.0187	-0.037
Mof_C 	C 	0.881	0.09884	0.0843	-0.092
Mof_C 	C 	0.797	0.17902	0.9946	0.325
Mof_C 	C 	0.819	0.13785	0.0132	-0.056
Mof_C 	C 	0.6738	0.22508	0.1535	-0.099
Mof_C 	C 	0.5477	0.17154	0.2106	0.188
Mof_C 	C 	0.7884	0.80942	0.9479	0.418
Mof_C 	C 	0.6011	0.19312	0.2165	-0.075
Mof_C 	C 	0.7853	0.88644	0.9589	0.001
Mof_H 	H 	0.7546	0.8845	0.9876	0.049
Mof_C 	C 	0.9257	0.09865	0.1341	0.362
Mof_C 	C 	0.6947	0.24141	0.3558	0.378
Mof_C 	C 	0.7174	0.96052	0.9645	-0.218
Mof_H 	H 	0.697	0.9381	0.9528	0.124
Mof_C 	C 	0.7053	0.23462	0.0873	0.357
Mof_C 	C 	0.6267	0.20357	0.1531	0.026
Mof_H 	H 	0.6117	0.1959	0.109	0.042
Mof_C 	C 	0.696	0.23905	0.2196	0.035
Mof_H 	H 	0.7278	0.2539	0.2201	0.052
Mof_C 	C 	0.9256	0.89609	0.822	0.359
Mof_C 	C 	0.7773	0.03104	0.9993	0.138
Mof_C 	C 	0.8536	0.0646	0.0646	0.006
Mof_H 	H 	0.8655	0.0399	0.0815	0.049
Mof_C 	C 	0.6686	0.22989	0.2844	-0.097
Mof_C 	C 	0.8639	0.13629	0.0585	0.019
Mof_H 	H 	0.8822	0.1595	0.0714	0.063
Mof_C 	C 	0.5459	0.1311	0.1761	-0.336
Mof_H 	H 	0.5786	0.1191	0.1642	0.161
Mof_C 	C 	0.6226	0.20761	0.2836	0.022
Mof_H 	H 	0.605	0.2018	0.3268	0.042
Mof_C 	C 	0.8034	0.99565	0.9833	-0.189
Mof_H 	H 	0.8409	0.9951	0.9879	0.103
Mof_C 	C 	0.7777	0.96062	0.9607	0.122
Mof_C 	C 	0.7228	0.0298	0.0006	-0.238
Mof_H 	H 	0.704	0.053	0.0118	0.119
Mof_C 	C 	0.8518	0.92763	0.897	0.005
Mof_H 	H 	0.8652	0.9527	0.8846	0.049
Mof_C 	C 	0.6941	0.9957	0.9862	0.232
Mof_O 	O 	0.637	0.9938	0.978	-0.207
Mof_C 	C 	0.6023	0.0302	0.9728	-0.115
Mof_H 	H 	0.6128	0.0489	0.0095	0.001
Mof_H 	H 	0.6067	0.0421	0.9259	0.073
Mof_H 	H 	0.5652	0.0228	0.9796	0.053
Mof_C 	C 	0.6106	0.0256	0.025	-0.028
Mof_H 	H 	0.5721	0.024	0.0201	0.047
Mof_H 	H 	0.6204	0.0214	0.0747	0.047
Mof_H 	H 	0.6227	0.0516	0.0099	0.059
Mof_Cu	Cu	0.78498	0.27176	0.43366	0.912
Mof_Cu	Cu	0.70559	0.23715	0.50733	0.906
Mof_O 	O 	0.67786	0.2912	0.516	-0.409
Mof_O 	O 	0.55646	0.57006	0.3066	-0.407
Mof_O 	O 	0.55633	0.43534	0.6574	-0.396
Mof_O 	O 	0.7617	0.23934	0.8517	-0.414
Mof_O 	O 	0.74527	0.31989	0.453	-0.4
Mof_O 	O 	0.81917	0.27672	0.5272	-0.392
Mof_O 	O 	0.82859	0.26955	0.91082	-0.413
Mof_O 	O 	0.7519	0.24747	0.5899	-0.418
Mof_O 	O 	0.75216	0.68815	0.4855	-0.427
Mof_O 	O 	0.68658	0.7176	0.4247	-0.445
Mof_O 	O 	0.556	0.6366	0.2977	-0.414
Mof_C 	C 	0.6879	0.64734	0.4352	-0.084
Mof_C 	C 	0.6409	0.64367	0.3902	0.032
Mof_H 	H 	0.624	0.6665	0.3727	0.053
Mof_O 	O 	0.5538	0.36903	0.6492	-0.409
Mof_C 	C 	0.7085	0.39618	0.4947	0.033
Mof_H 	H 	0.7388	0.3941	0.4652	0.036
Mof_C 	C 	0.621	0.60696	0.3729	-0.097
Mof_C 	C 	0.6934	0.57511	0.4379	-0.056
Mof_C 	C 	0.6927	0.43346	0.5187	-0.091
Mof_C 	C 	0.619	0.40116	0.5843	-0.123
Mof_C 	C 	0.703	0.32098	0.4946	0.351
Mof_C 	C 	0.681	0.36215	0.5132	-0.1
Mof_C 	C 	0.8262	0.27492	0.6535	-0.102
Mof_C 	C 	0.9523	0.32846	0.7106	0.228
Mof_C 	C 	0.7116	0.69058	0.4479	0.419
Mof_C 	C 	0.8989	0.30688	0.7165	-0.083
Mof_C 	C 	0.7147	0.61356	0.4589	0.008
Mof_H 	H 	0.7454	0.6155	0.4876	0.049
Mof_C 	C 	0.5743	0.40135	0.6341	0.376
Mof_C 	C 	0.8053	0.25859	0.8558	0.38
Mof_C 	C 	0.7826	0.53948	0.4645	-0.238
Mof_H 	H 	0.803	0.5619	0.4528	0.134
Mof_C 	C 	0.7947	0.26538	0.5873	0.358
Mof_C 	C 	0.8733	0.29643	0.6531	0.033
Mof_H 	H 	0.8883	0.3041	0.609	0.043
Mof_C 	C 	0.804	0.26095	0.7196	0.04
Mof_H 	H 	0.7722	0.2461	0.7201	0.05
Mof_C 	C 	0.5744	0.60391	0.322	0.364
Mof_C 	C 	0.7227	0.46896	0.4993	0.191
Mof_C 	C 	0.6464	0.4354	0.5646	0.04
Mof_H 	H 	0.6345	0.4601	0.5815	0.033
Mof_C 	C 	0.8314	0.27011	0.7844	-0.099
Mof_C 	C 	0.6361	0.36371	0.5585	0.05
Mof_H 	H 	0.6178	0.3405	0.5714	0.048
Mof_C 	C 	0.9541	0.3689	0.6761	-0.283
Mof_H 	H 	0.9214	0.3809	0.6642	0.15
Mof_C 	C 	0.8774	0.29239	0.7836	0.03
Mof_H 	H 	0.895	0.2982	0.8268	0.045
Mof_C 	C 	0.6966	0.50435	0.4833	-0.22
Mof_H 	H 	0.6591	0.5049	0.4879	0.113
Mof_C 	C 	0.7223	0.53938	0.4607	0.142
Mof_C 	C 	0.7772	0.4702	0.5006	-0.289
Mof_H 	H 	0.796	0.447	0.5118	0.135
Mof_C 	C 	0.6482	0.57237	0.397	0.014
Mof_H 	H 	0.6348	0.5473	0.3846	0.043
Mof_C 	C 	0.8059	0.5043	0.4862	0.263
Mof_O 	O 	0.863	0.5062	0.478	-0.206
Mof_C 	C 	0.8977	0.4698	0.4728	-0.133
Mof_H 	H 	0.8872	0.4511	0.5095	-0.001
Mof_H 	H 	0.8933	0.4579	0.4259	0.086
Mof_H 	H 	0.9348	0.4772	0.4796	0.075
Mof_C 	C 	0.8894	0.4744	0.525	-0.008
Mof_H 	H 	0.9279	0.476	0.5201	0.038
Mof_H 	H 	0.8796	0.4786	0.5747	0.044
Mof_H 	H 	0.8773	0.4484	0.5099	0.059
Mof_Cu	Cu	0.28498	0.77176	0.43366	0.911
Mof_Cu	Cu	0.20559	0.73715	0.50733	0.905
Mof_O 	O 	0.17786	0.7912	0.516	-0.413
Mof_O 	O 	0.05646	0.07006	0.3066	-0.417
Mof_O 	O 	0.05633	0.93534	0.6574	-0.406
Mof_O 	O 	0.2617	0.73934	0.8517	-0.416
Mof_O 	O 	0.24527	0.81989	0.453	-0.403
Mof_O 	O 	0.31917	0.77672	0.5272	-0.396
Mof_O 	O 	0.32859	0.76955	0.91082	-0.416
Mof_O 	O 	0.2519	0.74747	0.5899	-0.419
Mof_O 	O 	0.25216	0.18815	0.4855	-0.43
Mof_O 	O 	0.18658	0.2176	0.4247	-0.448
Mof_O 	O 	0.056	0.1366	0.2977	-0.423
Mof_C 	C 	0.1879	0.14734	0.4352	-0.088
Mof_C 	C 	0.1409	0.14367	0.3902	0.035
Mof_H 	H 	0.124	0.1665	0.3727	0.049
Mof_O 	O 	0.0538	0.86903	0.6492	-0.419
Mof_C 	C 	0.2085	0.89618	0.4947	0.035
Mof_H 	H 	0.2388	0.8941	0.4652	0.033
Mof_C 	C 	0.121	0.10696	0.3729	-0.103
Mof_C 	C 	0.1934	0.07511	0.4379	-0.06
Mof_C 	C 	0.1927	0.93346	0.5187	-0.095
Mof_C 	C 	0.119	0.90116	0.5843	-0.129
Mof_C 	C 	0.203	0.82098	0.4946	0.352
Mof_C 	C 	0.181	0.86215	0.5132	-0.105
Mof_C 	C 	0.3262	0.77492	0.6535	-0.102
Mof_C 	C 	0.4523	0.82846	0.7106	0.188
Mof_C 	C 	0.2116	0.19058	0.4479	0.421
Mof_C 	C 	0.3989	0.80688	0.7165	-0.077
Mof_C 	C 	0.2147	0.11356	0.4589	0.01
Mof_H 	H 	0.2454	0.1155	0.4876	0.046
Mof_C 	C 	0.0743	0.90135	0.6341	0.378
Mof_C 	C 	0.3053	0.75859	0.8558	0.38
Mof_C 	C 	0.2826	0.03948	0.4645	-0.24
Mof_H 	H 	0.303	0.0619	0.4528	0.132
Mof_C 	C 	0.2947	0.76538	0.5873	0.358
Mof_C 	C 	0.3733	0.79643	0.6531	0.027
Mof_H 	H 	0.3883	0.8041	0.609	0.041
Mof_C 	C 	0.304	0.76095	0.7196	0.038
Mof_H 	H 	0.2722	0.7461	0.7201	0.049
Mof_C 	C 	0.0744	0.10391	0.322	0.365
Mof_C 	C 	0.2227	0.96896	0.4993	0.191
Mof_C 	C 	0.1464	0.9354	0.5646	0.043
Mof_H 	H 	0.1345	0.9601	0.5815	0.029
Mof_C 	C 	0.3314	0.77011	0.7844	-0.1
Mof_C 	C 	0.1361	0.86371	0.5585	0.053
Mof_H 	H 	0.1178	0.8405	0.5714	0.043
Mof_C 	C 	0.4541	0.8689	0.6761	-0.337
Mof_H 	H 	0.4214	0.8809	0.6642	0.161
Mof_C 	C 	0.3774	0.79239	0.7836	0.023
Mof_H 	H 	0.395	0.7982	0.8268	0.041
Mof_C 	C 	0.1966	0.00435	0.4833	-0.222
Mof_H 	H 	0.1591	0.0049	0.4879	0.111
Mof_C 	C 	0.2223	0.03938	0.4607	0.142
Mof_C 	C 	0.2772	0.9702	0.5006	-0.291
Mof_H 	H 	0.296	0.947	0.5118	0.135
Mof_C 	C 	0.1482	0.07237	0.397	0.016
Mof_H 	H 	0.1348	0.0473	0.3846	0.039
Mof_C 	C 	0.3059	0.0043	0.4862	0.263
Mof_O 	O 	0.363	0.0062	0.478	-0.213
Mof_C 	C 	0.3977	0.9698	0.4728	-0.128
Mof_H 	H 	0.3872	0.9511	0.5095	-0.001
Mof_H 	H 	0.3933	0.9579	0.4259	0.079
Mof_H 	H 	0.4348	0.9772	0.4796	0.066
Mof_C 	C 	0.3894	0.9744	0.525	-0
Mof_H 	H 	0.4279	0.976	0.5201	0.03
Mof_H 	H 	0.3796	0.9786	0.5747	0.037
Mof_H 	H 	0.3773	0.9484	0.5099	0.053
Mof_C 	C 	2.03872e-33	0.311	0.7287	-0.316
Mof_H 	H 	2.10894e-33	0.2869	0.7538	0.135
Mof_C 	C 	-4.75335e-33	0.389	0.6613	0.368
Mof_O 	O 	-4.82861e-33	0.4216	0.6344	-0.305
Mof_C 	C 	0.5	0.811	0.7287	-0.255
Mof_H 	H 	0.5	0.7869	0.7538	0.127
Mof_C 	C 	0.5	0.889	0.6613	0.422
Mof_O 	O 	0.5	0.9216	0.6344	-0.304
Mof_C 	C 	-4.31278e-33	0.689	0.2287	-0.315
Mof_H 	H 	-4.24255e-33	0.7131	0.2538	0.136
Mof_C 	C 	-3.74161e-34	0.611	0.1613	0.368
Mof_O 	O 	2.02689e-33	0.5784	0.1344	-0.305
Mof_C 	C 	0.5	0.189	0.2287	-0.255
Mof_H 	H 	0.5	0.2131	0.2538	0.128
Mof_C 	C 	0.5	0.111	0.1613	0.422
Mof_O 	O 	0.5	0.0784	0.1344	-0.303
Mof_Cu	Cu	0.5	0.56063	0.23288	0.902
Mof_Cu	Cu	0.5	0.63972	0.22686	0.911
Mof_Cu	Cu	6.51539e-34	0.06063	0.23288	0.885
Mof_Cu	Cu	-2.66705e-33	0.13972	0.22686	0.894
Mof_Cu	Cu	0.5	0.43937	0.73288	0.902
Mof_Cu	Cu	0.5	0.36028	0.72686	0.911
Mof_Cu	Cu	8.65391e-33	0.93937	0.73288	0.885
Mof_Cu	Cu	2.03357e-33	0.86028	0.72686	0.894
_end
