data_functionalizedCrystal
_audit_creation_method	'EQeq! by Chris Wilmer'
_symmetry_space_group_name_H-M	'P1'
_symmetry_Int_Tables_number	1
_symmetry_cell_setting	triclinic
loop_
_symmetry_equiv_pos_as_xyz
  x,y,z
_cell_length_a	29.6425
_cell_length_b	29.6425
_cell_length_c	29.6425
_cell_angle_alpha	101.473
_cell_angle_beta	113.612
_cell_angle_gamma	113.612
loop_
_atom_site_label
_atom_site_type_symbol
_atom_site_fract_x
_atom_site_fract_y
_atom_site_fract_z
_atom_site_charge
Mof_Cu	Cu	0.35037	0.52448	0.82589	0.92
Mof_Cu	Cu	0.5	0.78504	0.28504	0.903
Mof_Cu	Cu	0.20631	0.74556	0.46075	0.906
Mof_Cu	Cu	0.64963	0.47552	0.17411	0.92
Mof_Cu	Cu	0.30141	0.82589	0.47552	0.92
Mof_Cu	Cu	0.5	0.28504	0.78504	0.903
Mof_Cu	Cu	0.79369	0.25444	0.53925	0.906
Mof_Cu	Cu	0.5	0.21496	0.71496	0.903
Mof_Cu	Cu	0.69859	0.17411	0.52448	0.92
Mof_Cu	Cu	0.28481	0.53925	0.74556	0.906
Mof_Cu	Cu	0.5	0.71496	0.21496	0.903
Mof_Cu	Cu	0.71519	0.46075	0.25444	0.906
Mof_H 	H 	0.5756	0.1954	0.128	0.082
Mof_H 	H 	0.3169	0.1983	0.7236	0.024
Mof_H 	H 	0.7791	0.9751	0.4096	0.083
Mof_H 	H 	0.4698	0.6944	0.9444	0.02
Mof_H 	H 	0.5472	0.9849	0.9581	0.096
Mof_H 	H 	0.9326	0.128	0.5524	0.083
Mof_H 	H 	0.7813	0.4692	0.9203	0.08
Mof_H 	H 	0.5756	0.4476	0.3802	0.083
Mof_H 	H 	0.5302	0.4746	0.2246	0.021
Mof_H 	H 	0.3195	0.6918	0.2337	0.026
Mof_H 	H 	0.2636	0.5211	0.9151	0.03
Mof_H 	H 	0.6274	0.2889	0.1811	0.024
Mof_H 	H 	0.3917	0.8862	0.9077	0.094
Mof_H 	H 	0.5411	0.5652	0.9759	0.079
Mof_H 	H 	0.4251	0.951	0.7441	0.078
Mof_H 	H 	0.5947	0.5566	0.0381	0.075
Mof_H 	H 	0.25	0.9444	0.4746	0.021
Mof_H 	H 	0.0674	0.6198	0.1954	0.083
Mof_H 	H 	0.6805	0.9142	0.3723	0.026
Mof_H 	H 	0.9785	0.4945	0.8862	0.094
Mof_H 	H 	0.9326	0.3802	0.8046	0.083
Mof_H 	H 	0.7909	0.0038	0.5273	0.087
Mof_H 	H 	0.5419	0.6277	0.3082	0.026
Mof_H 	H 	0.4765	0.4727	0.2636	0.087
Mof_H 	H 	0.4747	0.2764	0.5933	0.025
Mof_H 	H 	0.5893	0.0241	0.5652	0.079
Mof_H 	H 	0.0674	0.872	0.4476	0.083
Mof_H 	H 	0.0268	0.4377	0.9849	0.096
Mof_H 	H 	0.7364	0.4789	0.0849	0.03
Mof_H 	H 	0.106	0.2847	0.5693	0.081
Mof_H 	H 	0.4244	0.5524	0.6198	0.083
Mof_H 	H 	0.7931	0.7441	0.319	0.078
Mof_H 	H 	0.6805	0.3082	0.7663	0.026
Mof_H 	H 	0.3917	0.484	0.5055	0.095
Mof_H 	H 	0.9732	0.5623	0.0151	0.096
Mof_H 	H 	0.6831	0.4067	0.8814	0.025
Mof_H 	H 	0.5703	0.4739	0.6016	0.098
Mof_H 	H 	0.8922	0.3385	0.7111	0.024
Mof_H 	H 	0.1277	0.0964	0.5261	0.098
Mof_H 	H 	0.7154	0.4307	0.5367	0.081
Mof_H 	H 	0.2091	0.9962	0.4727	0.087
Mof_H 	H 	0.6083	0.516	0.4945	0.095
Mof_H 	H 	0.894	0.7153	0.4307	0.081
Mof_H 	H 	0.523	0.4298	0.0932	0.007
Mof_H 	H 	0.7476	0.214	0.3748	0.026
Mof_H 	H 	0.8723	0.9036	0.4739	0.098
Mof_H 	H 	0.5749	0.049	0.2559	0.078
Mof_H 	H 	0.4581	0.3723	0.6918	0.026
Mof_H 	H 	0.7154	0.1787	0.2847	0.081
Mof_H 	H 	0.5655	0.196	0.9751	0.084
Mof_H 	H 	0.5749	0.319	0.5259	0.078
Mof_H 	H 	0.4765	0.2129	0.0038	0.087
Mof_H 	H 	0.5235	0.7871	0.9962	0.087
Mof_H 	H 	0.8392	0.6252	0.3728	0.026
Mof_H 	H 	0.3726	0.5537	0.6615	0.024
Mof_H 	H 	0.5185	0.9619	0.5566	0.075
Mof_H 	H 	0.6274	0.4463	0.3385	0.024
Mof_H 	H 	0.4375	0.8924	0.5451	0.012
Mof_H 	H 	0.7791	0.3695	0.804	0.084
Mof_H 	H 	0.4244	0.8046	0.872	0.083
Mof_H 	H 	0.4747	0.8814	0.1983	0.025
Mof_H 	H 	0.5625	0.1076	0.4549	0.012
Mof_H 	H 	0.1277	0.6016	0.0313	0.098
Mof_H 	H 	0.7909	0.2636	0.7871	0.087
Mof_H 	H 	0.3195	0.0858	0.6277	0.026
Mof_H 	H 	0.4528	0.4109	0.4377	0.097
Mof_H 	H 	0.3726	0.7111	0.8189	0.024
Mof_H 	H 	0.477	0.5702	0.9068	0.007
Mof_H 	H 	0.5655	0.5904	0.3695	0.084
Mof_H 	H 	0.75	0.0556	0.5254	0.021
Mof_H 	H 	0.2209	0.0249	0.5904	0.084
Mof_H 	H 	0.394	0.7425	0.4789	0.03
Mof_H 	H 	0.4297	0.5261	0.3984	0.098
Mof_H 	H 	0.1608	0.5336	0.786	0.026
Mof_H 	H 	0.2846	0.8213	0.7153	0.081
Mof_H 	H 	0.8922	0.1811	0.5537	0.024
Mof_H 	H 	0.2187	0.139	0.6879	0.08
Mof_H 	H 	0.9732	0.9581	0.4109	0.097
Mof_H 	H 	0.75	0.2246	0.6944	0.021
Mof_H 	H 	0.3473	0.4549	0.8924	0.012
Mof_H 	H 	0.25	0.7754	0.3056	0.021
Mof_H 	H 	0.5253	0.1186	0.8017	0.025
Mof_H 	H 	0.606	0.2575	0.5211	0.03
Mof_H 	H 	0.394	0.9151	0.6515	0.03
Mof_H 	H 	0.4511	0.3121	0.5308	0.08
Mof_H 	H 	0.2069	0.5259	0.951	0.078
Mof_H 	H 	0.4528	0.0151	0.0419	0.096
Mof_H 	H 	0.0215	0.9077	0.516	0.095
Mof_H 	H 	0.6527	0.5451	0.1076	0.012
Mof_H 	H 	0.1608	0.3748	0.6272	0.026
Mof_H 	H 	0.2209	0.6305	0.196	0.084
Mof_H 	H 	0.1078	0.6615	0.2889	0.024
Mof_H 	H 	0.5253	0.7236	0.4067	0.025
Mof_H 	H 	0.4251	0.681	0.4741	0.078
Mof_H 	H 	0.2524	0.6272	0.4664	0.026
Mof_H 	H 	0.4053	0.4434	0.9619	0.075
Mof_H 	H 	0.4581	0.7663	0.0858	0.026
Mof_H 	H 	0.106	0.5367	0.8213	0.081
Mof_H 	H 	0.0268	0.0419	0.5891	0.097
Mof_H 	H 	0.4589	0.4348	0.0241	0.079
Mof_H 	H 	0.7476	0.3728	0.5336	0.026
Mof_H 	H 	0.606	0.0849	0.3485	0.03
Mof_H 	H 	0.4511	0.9203	0.139	0.08
Mof_H 	H 	0.4815	0.0381	0.4434	0.075
Mof_H 	H 	0.7931	0.4741	0.049	0.078
Mof_H 	H 	0.2846	0.5693	0.4633	0.081
Mof_H 	H 	0.9785	0.0923	0.484	0.095
Mof_H 	H 	0.5419	0.2337	0.9142	0.026
Mof_H 	H 	0.6083	0.1138	0.0923	0.094
Mof_H 	H 	0.3366	0.9068	0.4298	0.007
Mof_H 	H 	0.6831	0.8017	0.2764	0.025
Mof_H 	H 	0.4107	0.9759	0.4348	0.079
Mof_H 	H 	0.6634	0.0932	0.5702	0.007
Mof_H 	H 	0.5235	0.5273	0.7364	0.087
Mof_H 	H 	0.5302	0.3056	0.0556	0.021
Mof_H 	H 	0.4345	0.4096	0.6305	0.084
Mof_H 	H 	0.5472	0.5891	0.5623	0.097
Mof_H 	H 	0.8392	0.4664	0.214	0.026
Mof_H 	H 	0.5703	0.9687	0.0964	0.098
Mof_H 	H 	0.2091	0.7364	0.2129	0.087
Mof_H 	H 	0.2069	0.2559	0.681	0.078
Mof_H 	H 	0.1078	0.8189	0.4463	0.024
Mof_H 	H 	0.8723	0.3984	0.9687	0.098
Mof_H 	H 	0.894	0.4633	0.1787	0.081
Mof_H 	H 	0.4345	0.804	0.0249	0.084
Mof_H 	H 	0.4698	0.5254	0.7754	0.021
Mof_H 	H 	0.5489	0.6879	0.4692	0.08
Mof_H 	H 	0.2524	0.786	0.6252	0.026
Mof_H 	H 	0.7364	0.6515	0.2575	0.03
Mof_H 	H 	0.2636	0.3485	0.7425	0.03
Mof_H 	H 	0.5489	0.0797	0.861	0.08
Mof_H 	H 	0.3169	0.5933	0.1186	0.025
Mof_H 	H 	0.7813	0.861	0.3121	0.08
Mof_H 	H 	0.4297	0.0313	0.9036	0.098
Mof_H 	H 	0.2187	0.5308	0.0797	0.08
Mof_H 	H 	0.0215	0.5055	0.1138	0.094
Mof_C 	C 	0.4224	0.4706	0.9518	-0.133
Mof_C 	C 	0.4163	0.53926	0.72222	-0.133
Mof_C 	C 	0.403	0.54756	0.67658	0.071
Mof_C 	C 	0.94506	0.4112	0.96836	0.114
Mof_C 	C 	0.56932	0.6085	0.46146	-0.024
Mof_C 	C 	0.76006	0.37723	0.82037	-0.138
Mof_C 	C 	0.89211	0.028	0.53905	-0.03
Mof_C 	C 	0.23994	0.06031	0.61717	-0.138
Mof_C 	C 	0.87098	0.14456	0.54756	0.071
Mof_C 	C 	0.59558	0.52062	0.51846	-0.172
Mof_C 	C 	0.35718	0.89095	0.73845	0.086
Mof_C 	C 	0.40695	0.50977	0.45128	0.117
Mof_C 	C 	0.70266	0.39923	0.86559	0.065
Mof_C 	C 	0.54336	0.20254	0.90336	0.065
Mof_C 	C 	0.86155	0.46542	0.15901	-0.137
Mof_C 	C 	0.55686	0.17963	0.93969	-0.138
Mof_C 	C 	0.45664	0.36	0.65918	0.065
Mof_C 	C 	0.3742	0.9176	0.4566	0.1
Mof_C 	C 	0.43405	0.7823	0.88699	-0.147
Mof_C 	C 	0.30641	0.84099	0.70254	-0.137
Mof_C 	C 	0.1525	0.26155	0.61873	0.086
Mof_C 	C 	0.85296	0.96082	0.3915	-0.024
Mof_C 	C 	0.42109	0.44167	0.47532	0.116
Mof_C 	C 	0.47882	0.80473	0.94005	0.099
Mof_C 	C 	0.76144	0.43648	0.88948	-0.136
Mof_C 	C 	0.82935	0.64923	0.36166	0.06
Mof_C 	C 	0.4188	0.9599	0.4589	-0.143
Mof_C 	C 	0.64282	0.38127	0.53377	0.086
Mof_C 	C 	0.88102	0.79517	0.41817	-0.025
Mof_C 	C 	0.08675	0.58252	0.00933	-0.173
Mof_C 	C 	0.51876	0.49688	0.02188	0.062
Mof_C 	C 	0.00216	0.48154	0.07712	-0.17
Mof_C 	C 	0.5812	0.0401	0.5411	-0.143
Mof_C 	C 	0.70316	0.27197	0.52735	0.362
Mof_C 	C 	0.48895	0.46095	0.35306	-0.03
Mof_C 	C 	0.44239	0.36653	0.5758	0.085
Mof_C 	C 	0.23856	0.56352	0.11052	-0.136
Mof_C 	C 	0.453	0.32496	0.56352	-0.136
Mof_C 	C 	0.4812	0.9518	0.5294	-0.133
Mof_C 	C 	0.79073	0.4242	0.86659	0.085
Mof_C 	C 	0.21014	0.84277	0.46211	0.371
Mof_C 	C 	0.10789	0.972	0.46095	-0.03
Mof_C 	C 	0.89211	0.35306	0.86411	-0.03
Mof_C 	C 	0.55716	0.96836	0.0233	0.115
Mof_C 	C 	0.21797	0.52807	0.84756	-0.113
Mof_C 	C 	0.44079	0.99986	0.00507	-0.17
Mof_C 	C 	0.55761	0.63347	0.4242	0.085
Mof_C 	C 	0.3878	0.4782	0.9096	0.082
Mof_C 	C 	0.00521	0.44093	0.00014	-0.17
Mof_C 	C 	0.46628	0.46189	0.37739	-0.038
Mof_C 	C 	0.09174	0.15893	0.54931	-0.043
Mof_C 	C 	0.96635	0.02058	0.44167	0.116
Mof_C 	C 	0.59558	0.07712	0.07496	-0.171
Mof_C 	C 	0.46636	0.86559	0.16293	0.065
Mof_C 	C 	0.5776	0.5294	0.0482	-0.133
Mof_C 	C 	0.81175	0.27991	0.772	-0.155
Mof_C 	C 	0.57891	0.55833	0.52468	0.116
Mof_C 	C 	0.547	0.11052	0.87196	-0.136
Mof_C 	C 	0.48053	0.79381	0.1854	0.365
Mof_C 	C 	0.00216	0.92504	0.52062	-0.172
Mof_C 	C 	0.42681	0.50423	0.41748	-0.175
Mof_C 	C 	0.31949	0.84756	0.62959	-0.113
Mof_C 	C 	0.23994	0.62277	0.17963	-0.138
Mof_C 	C 	0.51105	0.53905	0.64694	-0.03
Mof_C 	C 	0.11898	0.53715	0.91415	-0.026
Mof_C 	C 	0.48895	0.13589	0.028	-0.03
Mof_C 	C 	0.81175	0.03975	0.53184	-0.155
Mof_C 	C 	0.69359	0.39613	0.53458	-0.137
Mof_C 	C 	0.19808	0.52799	0.91759	-0.128
Mof_C 	C 	0.68051	0.3101	0.52807	-0.113
Mof_C 	C 	0.547	0.67504	0.43648	-0.136
Mof_C 	C 	0.49209	0.772	0.96025	-0.155
Mof_C 	C 	0.49209	0.53184	0.72009	-0.155
Mof_C 	C 	0.90826	0.84107	0.45069	-0.043
Mof_C 	C 	0.03365	0.97942	0.55833	0.116
Mof_C 	C 	0.21014	0.74803	0.36737	0.371
Mof_C 	C 	0.91325	0.41748	0.99067	-0.173
Mof_C 	C 	0.44079	0.43572	0.44093	-0.172
Mof_C 	C 	0.38066	0.63263	0.84277	0.371
Mof_C 	C 	0.57891	0.05423	0.02058	0.114
Mof_C 	C 	0.96635	0.52468	0.94577	0.114
Mof_C 	C 	0.37138	0.89643	0.66415	0.05
Mof_C 	C 	0.10469	0.88699	0.45294	-0.147
Mof_C 	C 	0.40695	0.95567	0.89718	0.115
Mof_C 	C 	0.42373	0.41252	0.50921	-0.039
Mof_C 	C 	0.76144	0.87196	0.32496	-0.136
Mof_C 	C 	0.55761	0.13341	0.92414	0.086
Mof_C 	C 	0.89531	0.34825	0.7823	-0.147
Mof_C 	C 	0.76772	0.66415	0.29277	0.05
Mof_C 	C 	0.82935	0.46769	0.18012	0.061
Mof_C 	C 	0.71243	0.18012	0.35077	0.06
Mof_C 	C 	0.11898	0.20483	0.58183	-0.025
Mof_C 	C 	0.55921	0.00014	0.99493	-0.17
Mof_C 	C 	0.475	0.97812	0.49688	0.062
Mof_C 	C 	0.05494	0.5888	0.03164	0.114
Mof_C 	C 	0.94151	0.89718	0.49023	0.117
Mof_C 	C 	0.79073	0.92414	0.36653	0.085
Mof_C 	C 	0.6258	0.0824	0.5434	0.1
Mof_C 	C 	0.39159	0.1854	0.70487	0.365
Mof_C 	C 	0.377	0.91415	0.79517	-0.026
Mof_C 	C 	0.53221	0.18029	0.85236	-0.131
Mof_C 	C 	0.9155	0.00439	0.53811	-0.038
Mof_C 	C 	0.5837	0.30592	0.12296	-0.133
Mof_C 	C 	0.5188	0.0482	0.4706	-0.133
Mof_C 	C 	0.59305	0.04433	0.10282	0.115
Mof_C 	C 	0.12902	0.67658	0.27358	0.072
Mof_C 	C 	0.13532	0.67409	0.19527	0.099
Mof_C 	C 	0.6104	0.08241	0.28049	-0.128
Mof_C 	C 	0.28757	0.81988	0.64923	0.06
Mof_C 	C 	0.28757	0.63834	0.46769	0.06
Mof_C 	C 	0.461	0.5434	0.9176	0.1
Mof_C 	C 	0.0845	0.99561	0.46189	-0.038
Mof_C 	C 	0.09174	0.54243	0.93281	-0.042
Mof_C 	C 	0.81704	0.12296	0.53926	-0.133
Mof_C 	C 	0.40442	0.92288	0.92504	-0.171
Mof_C 	C 	0.55921	0.56428	0.55907	-0.172
Mof_C 	C 	0.32793	0.64808	0.18029	-0.13
Mof_C 	C 	0.52118	0.46123	0.32591	0.099
Mof_C 	C 	0.18825	0.96025	0.46816	-0.155
Mof_C 	C 	0.403	0.72642	0.85544	0.071
Mof_C 	C 	0.3896	0.91759	0.71951	-0.128
Mof_C 	C 	0.60841	0.8146	0.29513	0.365
Mof_C 	C 	0.53372	0.91111	0.99561	-0.037
Mof_C 	C 	0.61934	0.46211	0.25197	0.371
Mof_C 	C 	0.44284	0.46614	0.4112	0.116
Mof_C 	C 	0.53221	0.67985	0.35192	-0.13
Mof_C 	C 	0.99479	0.55907	0.99986	-0.17
Mof_C 	C 	0.43068	0.3915	0.53854	-0.024
Mof_C 	C 	0.23228	0.52505	0.89643	0.05
Mof_C 	C 	0.10789	0.64694	0.13589	-0.03
Mof_C 	C 	0.597	0.27358	0.14456	0.071
Mof_C 	C 	0.78986	0.25197	0.63263	0.371
Mof_C 	C 	0.44239	0.86659	0.07586	0.086
Mof_C 	C 	0.78757	0.25624	0.71669	0.078
Mof_C 	C 	0.32793	0.14764	0.67985	-0.13
Mof_C 	C 	0.53955	0.46867	0.25624	0.078
Mof_C 	C 	0.60841	0.31328	0.79381	0.365
Mof_C 	C 	0.23228	0.33585	0.70723	0.05
Mof_C 	C 	0.54336	0.64	0.34082	0.065
Mof_C 	C 	0.6122	0.5218	0.0904	0.082
Mof_C 	C 	0.50791	0.46816	0.27991	-0.155
Mof_C 	C 	0.29918	0.65918	0.20254	0.065
Mof_C 	C 	0.25538	0.52735	0.82419	0.362
Mof_C 	C 	0.90331	0.98879	0.41252	-0.039
Mof_C 	C 	0.19808	0.28049	0.67009	-0.128
Mof_C 	C 	0.39038	0.93281	0.84107	-0.042
Mof_C 	C 	0.69359	0.15901	0.29746	-0.137
Mof_C 	C 	0.60962	0.45069	0.54243	-0.043
Mof_C 	C 	0.74462	0.47265	0.17581	0.362
Mof_C 	C 	0.99784	0.51846	0.92288	-0.17
Mof_C 	C 	0.43405	0.54706	0.65175	-0.147
Mof_C 	C 	0.597	0.45244	0.32342	0.071
Mof_C 	C 	0.23856	0.12804	0.67504	-0.136
Mof_C 	C 	0.53372	0.53811	0.62261	-0.038
Mof_C 	C 	0.57319	0.99067	0.07742	-0.173
Mof_C 	C 	0.35718	0.61873	0.46623	0.086
Mof_C 	C 	0.70266	0.83707	0.30343	0.064
Mof_C 	C 	0.30641	0.60387	0.46542	-0.137
Mof_C 	C 	0.68051	0.15244	0.37041	-0.113
Mof_C 	C 	0.6104	0.32991	0.52799	-0.128
Mof_C 	C 	0.539	0.4566	0.0824	0.1
Mof_C 	C 	0.89531	0.11301	0.54706	-0.147
Mof_C 	C 	0.71243	0.36166	0.53231	0.06
Mof_C 	C 	0.14704	0.53854	0.10786	-0.024
Mof_C 	C 	0.67207	0.85236	0.32015	-0.13
Mof_C 	C 	0.78203	0.47193	0.15244	-0.113
Mof_C 	C 	0.48053	0.29513	0.68672	0.365
Mof_C 	C 	0.05849	0.54872	0.95567	0.114
Mof_C 	C 	0.85296	0.46146	0.89214	-0.024
Mof_C 	C 	0.53364	0.13441	0.83707	0.065
Mof_C 	C 	0.18825	0.72009	0.228	-0.155
Mof_C 	C 	0.5686	0.0904	0.4782	0.082
Mof_C 	C 	0.99479	0.99493	0.43572	-0.172
Mof_C 	C 	0.4314	0.9096	0.5218	0.082
Mof_C 	C 	0.09669	0.50921	0.08548	-0.038
Mof_C 	C 	0.90826	0.45757	0.06719	-0.042
Mof_C 	C 	0.59305	0.49023	0.54872	0.117
Mof_C 	C 	0.14704	0.03918	0.6085	-0.024
Mof_C 	C 	0.8475	0.46623	0.10905	0.086
Mof_C 	C 	0.20927	0.07586	0.63347	0.085
Mof_C 	C 	0.38066	0.53789	0.74803	0.371
Mof_C 	C 	0.70316	0.17581	0.43119	0.362
Mof_C 	C 	0.40442	0.47938	0.48154	-0.172
Mof_C 	C 	0.08675	0.07742	0.50423	-0.175
Mof_C 	C 	0.29734	0.16293	0.69657	0.064
Mof_C 	C 	0.18296	0.72222	0.30592	-0.133
Mof_C 	C 	0.03365	0.47532	0.05423	0.114
Mof_C 	C 	0.70082	0.34082	0.79746	0.065
Mof_C 	C 	0.57627	0.58748	0.49079	-0.039
Mof_C 	C 	0.51947	0.20619	0.8146	0.365
Mof_C 	C 	0.57319	0.49577	0.58252	-0.175
Mof_C 	C 	0.80192	0.47201	0.08241	-0.128
Mof_C 	C 	0.0845	0.62261	0.08889	-0.037
Mof_C 	C 	0.17065	0.35077	0.63834	0.06
Mof_C 	C 	0.46628	0.08889	0.00439	-0.037
Mof_C 	C 	0.91325	0.92258	0.49577	-0.175
Mof_C 	C 	0.10469	0.65175	0.2177	-0.147
Mof_C 	C 	0.20927	0.5758	0.13341	0.085
Mof_C 	C 	0.05849	0.10282	0.50977	0.117
Mof_C 	C 	0.62862	0.10357	0.33585	0.05
Mof_C 	C 	0.44314	0.82037	0.06031	-0.138
Mof_C 	C 	0.81704	0.27778	0.69408	-0.133
Mof_C 	C 	0.21243	0.92912	0.46867	0.077
Mof_C 	C 	0.76772	0.47495	0.10357	0.05
Mof_C 	C 	0.51105	0.86411	0.972	-0.03
Mof_C 	C 	0.90331	0.49079	0.91452	-0.038
Mof_C 	C 	0.78757	0.07088	0.53133	0.077
Mof_C 	C 	0.56932	0.10786	0.96082	-0.024
Mof_C 	C 	0.501	0.5411	0.9599	-0.143
Mof_C 	C 	0.88102	0.46285	0.08585	-0.026
Mof_C 	C 	0.52118	0.19527	0.05995	0.099
Mof_C 	C 	0.525	0.02188	0.50312	0.062
Mof_C 	C 	0.86155	0.70254	0.39613	-0.137
Mof_C 	C 	0.29684	0.82419	0.56881	0.362
Mof_C 	C 	0.50791	0.228	0.03975	-0.155
Mof_C 	C 	0.42681	0.00933	0.92258	-0.173
Mof_C 	C 	0.39038	0.54931	0.45757	-0.043
Mof_C 	C 	0.5837	0.46074	0.27778	-0.133
Mof_C 	C 	0.53364	0.69657	0.39923	0.064
Mof_C 	C 	0.4163	0.69408	0.87704	-0.133
Mof_C 	C 	0.43068	0.89214	0.03918	-0.024
Mof_C 	C 	0.13532	0.94005	0.46123	0.099
Mof_C 	C 	0.86468	0.32591	0.80473	0.099
Mof_C 	C 	0.12902	0.85544	0.45244	0.071
Mof_C 	C 	0.44284	0.03164	0.9767	0.115
Mof_C 	C 	0.87098	0.32342	0.72642	0.072
Mof_C 	C 	0.623	0.41817	0.53715	-0.025
Mof_C 	C 	0.377	0.58183	0.46285	-0.025
Mof_C 	C 	0.78986	0.15723	0.53789	0.371
Mof_C 	C 	0.62862	0.29277	0.52505	0.05
Mof_C 	C 	0.61934	0.36737	0.15723	0.371
Mof_C 	C 	0.29684	0.72803	0.47265	0.362
Mof_C 	C 	0.05494	0.0233	0.46614	0.116
Mof_C 	C 	0.80192	0.71951	0.32991	-0.128
Mof_C 	C 	0.47882	0.53877	0.67409	0.099
Mof_C 	C 	0.31949	0.6899	0.47193	-0.113
Mof_C 	C 	0.3896	0.67009	0.47201	-0.128
Mof_C 	C 	0.42373	0.91452	0.01121	-0.038
Mof_C 	C 	0.56595	0.2177	0.11301	-0.147
Mof_C 	C 	0.9155	0.37739	0.91111	-0.037
Mof_C 	C 	0.29918	0.09664	0.64	0.065
Mof_C 	C 	0.42109	0.94577	0.97942	0.114
Mof_C 	C 	0.8475	0.73845	0.38127	0.086
Mof_C 	C 	0.57627	0.08548	0.98879	-0.038
Mof_C 	C 	0.76006	0.93969	0.38283	-0.138
Mof_C 	C 	0.51947	0.70487	0.31328	0.365
Mof_C 	C 	0.25538	0.43119	0.72803	0.362
Mof_C 	C 	0.09669	0.01121	0.58748	-0.039
Mof_C 	C 	0.55686	0.61717	0.37723	-0.138
Mof_C 	C 	0.13845	0.29746	0.60387	-0.137
Mof_C 	C 	0.46045	0.53133	0.74376	0.078
Mof_C 	C 	0.453	0.88948	0.12804	-0.136
Mof_C 	C 	0.13845	0.53458	0.84099	-0.137
Mof_C 	C 	0.94151	0.45128	0.04433	0.114
Mof_C 	C 	0.99784	0.07496	0.47938	-0.172
Mof_C 	C 	0.55716	0.53386	0.5888	0.116
Mof_C 	C 	0.45664	0.79746	0.09664	0.065
Mof_C 	C 	0.21797	0.37041	0.6899	-0.113
Mof_C 	C 	0.46779	0.81971	0.14764	-0.131
Mof_C 	C 	0.48124	0.50312	0.97812	0.062
Mof_C 	C 	0.1525	0.53377	0.89095	0.086
Mof_C 	C 	0.78203	0.62959	0.3101	-0.113
Mof_C 	C 	0.29734	0.60077	0.13441	0.065
Mof_C 	C 	0.46779	0.32015	0.64808	-0.13
Mof_C 	C 	0.94506	0.9767	0.53386	0.116
Mof_C 	C 	0.00521	0.00507	0.56428	-0.172
Mof_C 	C 	0.70082	0.90336	0.36	0.065
Mof_C 	C 	0.60962	0.06719	0.15893	-0.042
Mof_C 	C 	0.56595	0.45294	0.34825	-0.147
Mof_C 	C 	0.46636	0.30343	0.60077	0.064
Mof_C 	C 	0.64282	0.10905	0.26155	0.086
Mof_C 	C 	0.17065	0.53231	0.81988	0.061
Mof_C 	C 	0.18296	0.87704	0.46074	-0.133
Mof_C 	C 	0.53955	0.28331	0.07088	0.078
Mof_C 	C 	0.39159	0.68672	0.20619	0.365
Mof_C 	C 	0.21243	0.74376	0.28331	0.078
Mof_C 	C 	0.37138	0.70723	0.47495	0.05
Mof_C 	C 	0.67207	0.35192	0.81971	-0.13
Mof_C 	C 	0.623	0.08585	0.20483	-0.026
Mof_C 	C 	0.86468	0.05995	0.53877	0.099
Mof_C 	C 	0.74462	0.56881	0.27197	0.362
Mof_C 	C 	0.46045	0.71669	0.92912	0.078
Mof_C 	C 	0.499	0.4589	0.0401	-0.143
Mof_C 	C 	0.44314	0.38283	0.62277	-0.138
Mof_N 	N 	0.37603	0.89053	0.4855	-0.2
Mof_N 	N 	0.40503	0.5145	0.89053	-0.2
Mof_N 	N 	0.62397	0.10947	0.5145	-0.2
Mof_N 	N 	0.59497	0.4855	0.10947	-0.2
Mof_O 	O 	0.39412	0.60415	0.86365	-0.407
Mof_O 	O 	0.51481	0.18585	0.7692	-0.403
Mof_O 	O 	0.60588	0.46953	0.21003	-0.407
Mof_O 	O 	0.32786	0.84911	0.55285	-0.402
Mof_O 	O 	0.41665	0.2308	0.74561	-0.403
Mof_O 	O 	0.2595	0.78997	0.39585	-0.407
Mof_O 	O 	0.41632	0.17038	0.68582	-0.41
Mof_O 	O 	0.67214	0.15089	0.44715	-0.402
Mof_O 	O 	0.58368	0.2695	0.75406	-0.41
Mof_O 	O 	0.29626	0.44715	0.77501	-0.402
Mof_O 	O 	0.58368	0.82962	0.31418	-0.41
Mof_O 	O 	0.75918	0.5397	0.29254	-0.409
Mof_O 	O 	0.51544	0.24594	0.82962	-0.41
Mof_O 	O 	0.2595	0.86365	0.46953	-0.407
Mof_O 	O 	0.41632	0.7305	0.24594	-0.41
Mof_O 	O 	0.41665	0.67104	0.18585	-0.403
Mof_O 	O 	0.24082	0.53336	0.78052	-0.409
Mof_O 	O 	0.24716	0.78052	0.5397	-0.409
Mof_O 	O 	0.48456	0.31418	0.7305	-0.41
Mof_O 	O 	0.17886	0.7951	0.45636	-0.409
Mof_O 	O 	0.82114	0.2775	0.61624	-0.409
Mof_O 	O 	0.75918	0.46664	0.21948	-0.409
Mof_O 	O 	0.48519	0.81415	0.2308	-0.403
Mof_O 	O 	0.66126	0.45636	0.2775	-0.409
Mof_O 	O 	0.75284	0.21948	0.4603	-0.409
Mof_O 	O 	0.70374	0.47875	0.15089	-0.402
Mof_O 	O 	0.51481	0.74561	0.32896	-0.403
Mof_O 	O 	0.67214	0.22499	0.52125	-0.402
Mof_O 	O 	0.75284	0.29254	0.53336	-0.409
Mof_O 	O 	0.33874	0.54364	0.7225	-0.409
Mof_O 	O 	0.33874	0.61624	0.7951	-0.409
Mof_O 	O 	0.51544	0.68582	0.2695	-0.41
Mof_O 	O 	0.82114	0.2049	0.54364	-0.409
Mof_O 	O 	0.32786	0.77501	0.47875	-0.402
Mof_O 	O 	0.66126	0.38376	0.2049	-0.409
Mof_O 	O 	0.70374	0.55285	0.22499	-0.402
Mof_O 	O 	0.24082	0.4603	0.70746	-0.409
Mof_O 	O 	0.48456	0.75406	0.17038	-0.41
Mof_O 	O 	0.58335	0.7692	0.25439	-0.403
Mof_O 	O 	0.17886	0.7225	0.38376	-0.409
Mof_O 	O 	0.24716	0.70746	0.46664	-0.409
Mof_O 	O 	0.48519	0.25439	0.67104	-0.403
Mof_O 	O 	0.58335	0.32896	0.81415	-0.403
Mof_O 	O 	0.29626	0.52125	0.84911	-0.402
Mof_O 	O 	0.39412	0.53047	0.78997	-0.407
Mof_O 	O 	0.7405	0.21003	0.60415	-0.407
Mof_O 	O 	0.60588	0.39585	0.13635	-0.407
Mof_O 	O 	0.7405	0.13635	0.53047	-0.407
_end
