# CIF file generated by openbabel 3.1.0, see https://openbabel.org
data_I
_chemical_name_common 'GUWDUY_clean'
_cell_length_a 13.447
_cell_length_b 13.715
_cell_length_c 14.301
_cell_angle_alpha 79.48
_cell_angle_beta 63.9
_cell_angle_gamma 65.68
_space_group_name_H-M_alt 'P 1'
_space_group_name_Hall 'P 1'
loop_
    _symmetry_equiv_pos_as_xyz
    x,y,z
loop_
    _atom_site_label
    _atom_site_type_symbol
    _atom_site_fract_x
    _atom_site_fract_y
    _atom_site_fract_z
    _atom_site_occupancy
    La1      La       0.47581    0.08046    0.34187    1.000
    La2      La       0.52419    0.91954    0.65813    1.000
    H1       H        0.12510    0.45240    0.58050    1.000
    H2       H        0.29350    0.30140    0.51810    1.000
    H3       H        0.65860    0.15100    0.08870    1.000
    H4       H        0.84780    0.13440    0.96940    1.000
    H5       H        0.59290    0.65870    0.97900    1.000
    H6       H        0.55280    0.94640    0.10840    1.000
    H7       H        0.97930    0.87610    0.12850    1.000
    H8       H        0.25980    0.97880    0.56180    1.000
    H9       H        0.53390    0.65140    0.31800    1.000
    H10      H        0.78600    0.89570    0.23840    1.000
    H11      H        0.49870    0.80840    0.38420    1.000
    H12      H        0.59380    0.50460    0.24940    1.000
    H13      H        0.57890    0.79550    0.03830    1.000
    H14      H        0.07670    0.96470    0.61910    1.000
    H15      H        0.62540    0.35160    0.17760    1.000
    H16      H        0.02900    0.41380    0.36490    1.000
    H17      H        0.63820    0.49760    0.91350    1.000
    H18      H        0.20200    0.26500    0.30670    1.000
    H19      H        0.27050    0.05210    0.28280    1.000
    H20      H        0.09030    0.03850    0.33080    1.000
    H21      H        0.87490    0.54760    0.41950    1.000
    H22      H        0.70650    0.69860    0.48190    1.000
    H23      H        0.34140    0.84900    0.91130    1.000
    H24      H        0.15220    0.86560    0.03060    1.000
    H25      H        0.40710    0.34130    0.02100    1.000
    H26      H        0.44720    0.05360    0.89160    1.000
    H27      H        0.02070    0.12390    0.87150    1.000
    H28      H        0.74020    0.02120    0.43820    1.000
    H29      H        0.46610    0.34860    0.68200    1.000
    H30      H        0.21400    0.10430    0.76160    1.000
    H31      H        0.50130    0.19160    0.61580    1.000
    H32      H        0.40620    0.49540    0.75060    1.000
    H33      H        0.42110    0.20450    0.96170    1.000
    H34      H        0.92330    0.03530    0.38090    1.000
    H35      H        0.37460    0.64840    0.82240    1.000
    H36      H        0.97100    0.58620    0.63510    1.000
    H37      H        0.36180    0.50240    0.08650    1.000
    H38      H        0.79800    0.73500    0.69330    1.000
    H39      H        0.72950    0.94790    0.71720    1.000
    H40      H        0.90970    0.96150    0.66920    1.000
    C1       C        0.13820    0.41470    0.52400    1.000
    C2       C        0.56240    0.70320    0.16880    1.000
    C3       C        0.93740    0.00490    0.03630    1.000
    C4       C        0.05560    0.45070    0.48020    1.000
    C5       C        0.23910    0.32420    0.48570    1.000
    C6       C        0.72470    0.09400    0.09710    1.000
    C7       C        0.58790    0.60220    0.12300    1.000
    C8       C        0.83790    0.08530    0.02580    1.000
    C9       C        0.60120    0.59650    0.02160    1.000
    C10      C        0.54720    0.88620    0.15240    1.000
    C11      C        0.91490    0.93370    0.11810    1.000
    C12      C        0.22380    0.99350    0.51400    1.000
    C13      C        0.53730    0.71140    0.27320    1.000
    C14      C        0.79850    0.94690    0.18440    1.000
    C15      C        0.05930    0.00320    0.48260    1.000
    C16      C        0.51720    0.80560    0.31230    1.000
    C17      C        0.60010    0.50630    0.18040    1.000
    C18      C        0.56490    0.79530    0.10950    1.000
    C19      C        0.11410    0.98430    0.54880    1.000
    C20      C        0.62130    0.41430    0.13580    1.000
    C21      C        0.08220    0.39250    0.39820    1.000
    C22      C        0.62660    0.49960    0.98370    1.000
    C23      C        0.18610    0.30310    0.36400    1.000
    C24      C        0.23000    0.03550    0.35340    1.000
    C25      C        0.12190    0.02740    0.38140    1.000
    C26      C        0.86180    0.58530    0.47600    1.000
    C27      C        0.43760    0.29680    0.83120    1.000
    C28      C        0.06260    0.99510    0.96370    1.000
    C29      C        0.94440    0.54930    0.51980    1.000
    C30      C        0.76090    0.67580    0.51430    1.000
    C31      C        0.27530    0.90600    0.90290    1.000
    C32      C        0.41210    0.39780    0.87700    1.000
    C33      C        0.16210    0.91470    0.97420    1.000
    C34      C        0.39880    0.40350    0.97840    1.000
    C35      C        0.45280    0.11380    0.84760    1.000
    C36      C        0.08510    0.06630    0.88190    1.000
    C37      C        0.77620    0.00650    0.48600    1.000
    C38      C        0.46270    0.28860    0.72680    1.000
    C39      C        0.20150    0.05310    0.81560    1.000
    C40      C        0.94070    0.99680    0.51740    1.000
    C41      C        0.48280    0.19440    0.68770    1.000
    C42      C        0.39990    0.49370    0.81960    1.000
    C43      C        0.43510    0.20470    0.89050    1.000
    C44      C        0.88590    0.01570    0.45120    1.000
    C45      C        0.37870    0.58570    0.86420    1.000
    C46      C        0.91780    0.60750    0.60180    1.000
    C47      C        0.37340    0.50040    0.01630    1.000
    C48      C        0.81390    0.69690    0.63600    1.000
    C49      C        0.77000    0.96450    0.64660    1.000
    C50      C        0.87810    0.97260    0.61860    1.000
    N1       N        0.70200    0.02700    0.17780    1.000
    N2       N        0.52250    0.89460    0.25370    1.000
    N3       N        0.26630    0.26630    0.40650    1.000
    N4       N        0.28160    0.02190    0.41710    1.000
    N5       N        0.63640    0.40750    0.03840    1.000
    N6       N        0.29800    0.97300    0.82220    1.000
    N7       N        0.47750    0.10540    0.74630    1.000
    N8       N        0.73370    0.73370    0.59350    1.000
    N9       N        0.71840    0.97810    0.58290    1.000
    N10      N        0.36360    0.59250    0.96160    1.000
    Cl1      Cl       0.62238    0.90561    0.42834    1.000
    Cl2      Cl       0.42544    0.15895    0.16576    1.000
    Cl3      Cl       0.57230    0.21677    0.35697    1.000
    Cl4      Cl       0.37762    0.09439    0.57166    1.000
    Cl5      Cl       0.57456    0.84105    0.83424    1.000
    Cl6      Cl       0.42770    0.78323    0.64303    1.000
