# CIF file generated by openbabel 3.1.0, see https://openbabel.org
data_I
_chemical_name_common 'image0'
_cell_length_a 10.575
_cell_length_b 11.66
_cell_length_c 15.767
_cell_angle_alpha 106.08
_cell_angle_beta 90.73
_cell_angle_gamma 94.05
_space_group_name_H-M_alt 'P 1'
_space_group_name_Hall 'P 1'
loop_
    _symmetry_equiv_pos_as_xyz
    x,y,z
loop_
    _atom_site_label
    _atom_site_type_symbol
    _atom_site_fract_x
    _atom_site_fract_y
    _atom_site_fract_z
    _atom_site_occupancy
    Cu1      Cu       0.13781    0.49601    0.49972    1.000
    Cu2      Cu       0.86124    0.47480    0.99825    1.000
    Cu3      Cu       0.98683    0.35601    0.31431    1.000
    Cu4      Cu       0.00736    0.64248    0.18503    1.000
    O1       O        0.26980    0.51940    0.08500    1.000
    O2       O        0.18400    0.60240    0.21590    1.000
    O3       O        0.26450    0.51420    0.41630    1.000
    O4       O        0.17320    0.38600    0.29280    1.000
    O5       O        0.81040    0.39270    0.28120    1.000
    O6       O        0.72420    0.46610    0.41290    1.000
    O7       O        0.73200    0.47690    0.08540    1.000
    O8       O        0.81830    0.60330    0.21110    1.000
    C1       C        0.38220    0.51610    0.21170    1.000
    C2       C        0.37890    0.47800    0.28820    1.000
    C3       C        0.49230    0.45620    0.32530    1.000
    H1       H        0.49010    0.43210    0.37670    1.000
    C4       C        0.60870    0.46980    0.28720    1.000
    C5       C        0.61180    0.50820    0.21060    1.000
    C6       C        0.49870    0.52850    0.17350    1.000
    H2       H        0.50070    0.55120    0.12140    1.000
    C7       C        0.26690    0.54760    0.16770    1.000
    C8       C        0.25870    0.45780    0.33480    1.000
    C9       C        0.72590    0.44140    0.32990    1.000
    C10      C        0.73370    0.53140    0.16700    1.000
    O9       O        0.97150    0.21090    0.21740    1.000
    O10      O        0.03960    0.31520    0.12600    1.000
    O11      O        0.86450    0.26910    0.96900    1.000
    O12      O        0.04950    0.25110    0.90320    1.000
    C11      C        0.99530    0.10580    0.06740    1.000
    C12      C        0.98580    0.10880    0.97890    1.000
    C13      C        0.00900    0.99850    0.08730    1.000
    H3       H        0.01490    0.99820    0.14620    1.000
    C14      C        0.00250    0.22100    0.14060    1.000
    C15      C        0.96500    0.21960    0.95120    1.000
    O13      O        0.12800    0.29260    0.47630    1.000
    O14      O        0.94140    0.24420    0.40420    1.000
    O15      O        0.00230    0.78630    0.28070    1.000
    O16      O        0.05300    0.69230    0.37980    1.000
    C16      C        0.01170    0.11110    0.48030    1.000
    C17      C        0.00780    0.89360    0.43210    1.000
    C18      C        0.01780    0.00400    0.41460    1.000
    H4       H        0.02890    0.00650    0.35670    1.000
    C19      C        0.02940    0.22600    0.45380    1.000
    C20      C        0.02220    0.78120    0.36070    1.000
    O17      O        0.00330    0.50630    0.08270    1.000
    O18      O        0.99680    0.49360    0.41640    1.000
    H5       H        0.98990    0.47650    0.12900    1.000
    H6       H        0.01310    0.53220    0.37500    1.000
    Cu5      Cu       0.86219    0.50399    0.50028    1.000
    Cu6      Cu       0.13876    0.52520    0.00175    1.000
    Cu7      Cu       0.01317    0.64399    0.68569    1.000
    Cu8      Cu       0.99264    0.35752    0.81497    1.000
    O19      O        0.73020    0.48060    0.91500    1.000
    O20      O        0.81600    0.39760    0.78410    1.000
    O21      O        0.73550    0.48580    0.58370    1.000
    O22      O        0.82680    0.61400    0.70720    1.000
    O23      O        0.18960    0.60730    0.71880    1.000
    O24      O        0.27580    0.53390    0.58710    1.000
    O25      O        0.26800    0.52310    0.91460    1.000
    O26      O        0.18170    0.39670    0.78890    1.000
    C21      C        0.61780    0.48390    0.78830    1.000
    C22      C        0.62110    0.52200    0.71180    1.000
    C23      C        0.50770    0.54380    0.67470    1.000
    H7       H        0.50990    0.56790    0.62330    1.000
    C24      C        0.39130    0.53020    0.71280    1.000
    C25      C        0.38820    0.49180    0.78940    1.000
    C26      C        0.50130    0.47150    0.82650    1.000
    H8       H        0.49930    0.44880    0.87860    1.000
    C27      C        0.73310    0.45240    0.83230    1.000
    C28      C        0.74130    0.54220    0.66520    1.000
    C29      C        0.27410    0.55860    0.67010    1.000
    C30      C        0.26630    0.46860    0.83300    1.000
    O27      O        0.02850    0.78910    0.78260    1.000
    O28      O        0.96040    0.68480    0.87400    1.000
    O29      O        0.13550    0.73090    0.03100    1.000
    O30      O        0.95050    0.74890    0.09680    1.000
    C31      C        0.00470    0.89420    0.93260    1.000
    C32      C        0.01420    0.89120    0.02110    1.000
    C33      C        0.99100    0.00150    0.91270    1.000
    H9       H        0.98510    0.00180    0.85380    1.000
    C34      C        0.99750    0.77900    0.85940    1.000
    C35      C        0.03500    0.78040    0.04880    1.000
    O31      O        0.87200    0.70740    0.52370    1.000
    O32      O        0.05860    0.75580    0.59580    1.000
    O33      O        0.99770    0.21370    0.71930    1.000
    O34      O        0.94700    0.30770    0.62020    1.000
    C36      C        0.98830    0.88890    0.51970    1.000
    C37      C        0.99220    0.10640    0.56790    1.000
    C38      C        0.98220    0.99600    0.58540    1.000
    H10      H        0.97110    0.99350    0.64330    1.000
    C39      C        0.97060    0.77400    0.54620    1.000
    C40      C        0.97780    0.21880    0.63930    1.000
    O35      O        0.99670    0.49370    0.91730    1.000
    O36      O        0.00320    0.50640    0.58360    1.000
    H11      H        0.01010    0.52350    0.87100    1.000
    H12      H        0.98690    0.46780    0.62500    1.000
