data_functionalizedCrystal
_audit_creation_method	'EQeq! by Chris Wilmer'
_symmetry_space_group_name_H-M	'P1'
_symmetry_Int_Tables_number	1
_symmetry_cell_setting	triclinic
loop_
_symmetry_equiv_pos_as_xyz
  x,y,z
_cell_length_a	22.6827
_cell_length_b	22.6827
_cell_length_c	34.369
_cell_angle_alpha	90
_cell_angle_beta	90
_cell_angle_gamma	120
loop_
_atom_site_label
_atom_site_type_symbol
_atom_site_fract_x
_atom_site_fract_y
_atom_site_fract_z
_atom_site_charge
Mof_Ag	Ag	0.37076	0.0001	0.0301	0.622
Mof_Ag	Ag	0.56839	0.99958	0.0298	0.603
Mof_Ag	Ag	0.5425	0.13675	0.0301	0.575
Mof_Ag	Ag	0.54211	0.40577	0.1965	0.609
Mof_Ag	Ag	0.62934	0.62924	0.69677	0.626
Mof_Ag	Ag	0.43119	0.43161	0.69647	0.608
Mof_Ag	Ag	0.59425	0.4575	0.69677	0.579
Mof_Ag	Ag	0.86366	0.45789	0.86317	0.609
Mof_Ag	Ag	0.9999	0.37066	0.36343	0.626
Mof_Ag	Ag	0.00042	0.56881	0.36313	0.608
Mof_Ag	Ag	0.86325	0.40575	0.36343	0.579
Mof_Ag	Ag	0.59423	0.13634	0.52983	0.609
Mof_Ag	Ag	0.62924	0.9999	0.5301	0.626
Mof_Ag	Ag	0.43161	0.00042	0.5298	0.608
Mof_Ag	Ag	0.4575	0.86325	0.5301	0.579
Mof_Ag	Ag	0.45789	0.59423	0.6965	0.609
Mof_Ag	Ag	0.37066	0.37076	0.19677	0.626
Mof_Ag	Ag	0.56881	0.56839	0.19647	0.608
Mof_Ag	Ag	0.40575	0.5425	0.19677	0.579
Mof_Ag	Ag	0.13634	0.54211	0.36317	0.609
Mof_Ag	Ag	0.0001	0.62934	0.86343	0.626
Mof_Ag	Ag	0.99958	0.43119	0.86313	0.608
Mof_Ag	Ag	0.13675	0.59425	0.86343	0.58
Mof_Ag	Ag	0.40577	0.86366	0.02983	0.604
Mof_H 	H 	0.444	0.8764	0.2484	0.076
Mof_H 	H 	0.4373	0.8803	0.3157	0.064
Mof_H 	H 	0.533	0.0845	0.3115	0.053
Mof_H 	H 	0.5398	0.0808	0.2443	0.071
Mof_H 	H 	0.3495	0.3353	0.9884	0.067
Mof_H 	H 	0.3008	0.3978	0.9662	0.066
Mof_H 	H 	0.2947	0.3286	0.8578	0.061
Mof_H 	H 	0.3434	0.2661	0.88	0.06
Mof_H 	H 	0.0804	0.7315	0.1828	0.059
Mof_H 	H 	0.9691	0.6692	0.205	0.061
Mof_H 	H 	0.9043	0.6125	0.0953	0.066
Mof_H 	H 	0.0156	0.6748	0.0731	0.063
Mof_H 	H 	0.4415	0.092	0.1518	0.057
Mof_H 	H 	0.5233	0.9201	0.1597	0.052
Mof_H 	H 	0.2661	0.1233	0.9882	0.067
Mof_H 	H 	0.5742	0.2656	0.9836	0.035
Mof_H 	H 	0.1445	0.877	0.0735	0.052
Mof_H 	H 	0.2079	0.6856	0.0628	0.06
Mof_H 	H 	0.659	0.0816	0.4046	0.061
Mof_H 	H 	0.3692	0.9429	0.4315	0.039
Mof_H 	H 	0.0319	0.3232	0.9107	0.034
Mof_H 	H 	0.6584	0.3895	0.1626	0.047
Mof_H 	H 	0.4324	0.556	0.91507	0.074
Mof_H 	H 	0.443	0.5627	0.98237	0.069
Mof_H 	H 	0.5515	0.467	0.97817	0.058
Mof_H 	H 	0.541	0.4602	0.91097	0.069
Mof_H 	H 	0.9858	0.6505	0.65507	0.065
Mof_H 	H 	0.097	0.6992	0.63287	0.065
Mof_H 	H 	0.0339	0.7053	0.52447	0.061
Mof_H 	H 	0.9227	0.6566	0.54667	0.06
Mof_H 	H 	0.6511	0.9196	0.84947	0.059
Mof_H 	H 	0.7001	0.0309	0.87167	0.062
Mof_H 	H 	0.7082	0.0957	0.76197	0.067
Mof_H 	H 	0.6592	0.9844	0.73977	0.065
Mof_H 	H 	0.6505	0.5585	0.81847	0.057
Mof_H 	H 	0.3968	0.4767	0.82637	0.052
Mof_H 	H 	0.8572	0.7339	0.65487	0.059
Mof_H 	H 	0.6914	0.4258	0.65027	0.034
Mof_H 	H 	0.7325	0.8555	0.74017	0.053
Mof_H 	H 	0.4777	0.7921	0.72947	0.061
Mof_H 	H 	0.4226	0.341	0.07127	0.06
Mof_H 	H 	0.5737	0.6308	0.09817	0.038
Mof_H 	H 	0.2913	0.9681	0.57737	0.034
Mof_H 	H 	0.7311	0.3416	0.82927	0.047
Mof_H 	H 	0.1236	0.5676	0.58173	0.076
Mof_H 	H 	0.1197	0.557	0.64903	0.064
Mof_H 	H 	0.9155	0.4485	0.64483	0.053
Mof_H 	H 	0.9192	0.459	0.57763	0.071
Mof_H 	H 	0.6647	0.0142	0.32173	0.065
Mof_H 	H 	0.6022	0.903	0.29953	0.065
Mof_H 	H 	0.6714	0.9661	0.19113	0.061
Mof_H 	H 	0.7339	0.0773	0.21333	0.06
Mof_H 	H 	0.2685	0.3489	0.51613	0.059
Mof_H 	H 	0.3308	0.2999	0.53833	0.061
Mof_H 	H 	0.3875	0.2918	0.42863	0.067
Mof_H 	H 	0.3252	0.3408	0.40643	0.065
Mof_H 	H 	0.908	0.3495	0.48513	0.057
Mof_H 	H 	0.0799	0.6032	0.49303	0.052
Mof_H 	H 	0.8767	0.1428	0.32153	0.059
Mof_H 	H 	0.7344	0.3086	0.31693	0.034
Mof_H 	H 	0.123	0.2675	0.40683	0.053
Mof_H 	H 	0.3144	0.5223	0.39613	0.061
Mof_H 	H 	0.9184	0.5774	0.73793	0.061
Mof_H 	H 	0.0571	0.4263	0.76483	0.039
Mof_H 	H 	0.6768	0.7087	0.24403	0.034
Mof_H 	H 	0.6105	0.2689	0.49593	0.047
Mof_H 	H 	0.556	0.1236	0.7484	0.076
Mof_H 	H 	0.5627	0.1197	0.8157	0.064
Mof_H 	H 	0.467	0.9155	0.8115	0.053
Mof_H 	H 	0.4602	0.9192	0.7443	0.071
Mof_H 	H 	0.6505	0.6647	0.4884	0.065
Mof_H 	H 	0.6992	0.6022	0.4662	0.065
Mof_H 	H 	0.7053	0.6714	0.3578	0.061
Mof_H 	H 	0.6566	0.7339	0.38	0.06
Mof_H 	H 	0.9196	0.2685	0.6828	0.059
Mof_H 	H 	0.0309	0.3308	0.705	0.061
Mof_H 	H 	0.0957	0.3875	0.5953	0.067
Mof_H 	H 	0.9844	0.3252	0.5731	0.065
Mof_H 	H 	0.5585	0.908	0.6518	0.057
Mof_H 	H 	0.4767	0.0799	0.6597	0.052
Mof_H 	H 	0.7339	0.8767	0.4882	0.058
Mof_H 	H 	0.4258	0.7344	0.4836	0.034
Mof_H 	H 	0.8555	0.123	0.5735	0.053
Mof_H 	H 	0.7921	0.3144	0.5628	0.061
Mof_H 	H 	0.341	0.9184	0.9046	0.061
Mof_H 	H 	0.6308	0.0571	0.9315	0.04
Mof_H 	H 	0.9681	0.6768	0.4107	0.034
Mof_H 	H 	0.3416	0.6105	0.6626	0.047
Mof_H 	H 	0.5676	0.444	0.41507	0.076
Mof_H 	H 	0.557	0.4373	0.48237	0.064
Mof_H 	H 	0.4485	0.533	0.47817	0.053
Mof_H 	H 	0.459	0.5398	0.41097	0.071
Mof_H 	H 	0.0142	0.3495	0.15507	0.065
Mof_H 	H 	0.903	0.3008	0.13287	0.065
Mof_H 	H 	0.9661	0.2947	0.02447	0.059
Mof_H 	H 	0.0773	0.3434	0.04667	0.058
Mof_H 	H 	0.3489	0.0804	0.34947	0.059
Mof_H 	H 	0.2999	0.9691	0.37167	0.061
Mof_H 	H 	0.2918	0.9043	0.26197	0.067
Mof_H 	H 	0.3408	0.0156	0.23977	0.065
Mof_H 	H 	0.3495	0.4415	0.31847	0.057
Mof_H 	H 	0.6032	0.5233	0.32637	0.052
Mof_H 	H 	0.1428	0.2661	0.15487	0.058
Mof_H 	H 	0.3086	0.5742	0.15027	0.034
Mof_H 	H 	0.2675	0.1445	0.24017	0.053
Mof_H 	H 	0.5223	0.2079	0.22947	0.061
Mof_H 	H 	0.5774	0.659	0.57127	0.061
Mof_H 	H 	0.4263	0.3692	0.59817	0.039
Mof_H 	H 	0.7087	0.0319	0.07737	0.033
Mof_H 	H 	0.2689	0.6584	0.32927	0.047
Mof_H 	H 	0.8764	0.4324	0.08173	0.075
Mof_H 	H 	0.8803	0.443	0.14903	0.064
Mof_H 	H 	0.0845	0.5515	0.14483	0.053
Mof_H 	H 	0.0808	0.541	0.07763	0.07
Mof_H 	H 	0.3353	0.9858	0.82173	0.065
Mof_H 	H 	0.3978	0.097	0.79953	0.065
Mof_H 	H 	0.3286	0.0339	0.69113	0.061
Mof_H 	H 	0.2661	0.9227	0.71333	0.06
Mof_H 	H 	0.7315	0.6511	0.01613	0.034
Mof_H 	H 	0.6692	0.7001	0.03833	0.081
Mof_H 	H 	0.6125	0.7082	0.92863	0.079
Mof_H 	H 	0.6748	0.6592	0.90643	0.054
Mof_H 	H 	0.092	0.6505	0.98513	0.06
Mof_H 	H 	0.9201	0.3968	0.99303	0.055
Mof_H 	H 	0.1233	0.8572	0.82153	0.059
Mof_H 	H 	0.2656	0.6914	0.81693	0.034
Mof_H 	H 	0.877	0.7325	0.90683	0.054
Mof_H 	H 	0.6856	0.4777	0.89613	0.061
Mof_H 	H 	0.0816	0.4226	0.23793	0.061
Mof_H 	H 	0.9429	0.5737	0.26483	0.039
Mof_H 	H 	0.3232	0.2913	0.74403	0.034
Mof_H 	H 	0.3895	0.7311	0.99593	0.046
Mof_C 	C 	0.4446	0.033	0.115	0.08
Mof_C 	C 	0.4966	0.9682	0.1165	0.099
Mof_C 	C 	0.3581	0.1304	0.0029	0.115
Mof_C 	C 	0.4713	0.2073	0.9926	0.114
Mof_C 	C 	0.2284	0.8698	0.0586	0.109
Mof_C 	C 	0.2598	0.7884	0.0655	0.116
Mof_C 	C 	0.589	0.0408	0.4462	0.087
Mof_C 	C 	0.4726	0.973	0.443	0.096
Mof_C 	C 	0.1174	0.4072	0.899	0.106
Mof_C 	C 	0.2058	0.5166	0.8902	0.096
Mof_C 	C 	0.6956	0.4864	0.1688	0.116
Mof_C 	C 	0.717	0.5969	0.1676	0.094
Mof_C 	C 	0.4963	0.9757	0.1963	0.05
Mof_C 	C 	0.4838	0.9854	0.3638	0.155
Mof_C 	C 	0.4926	0.9782	0.2397	0.034
Mof_C 	C 	0.4619	0.9182	0.2611	-0.071
Mof_C 	C 	0.4578	0.9204	0.3014	-0.018
Mof_C 	C 	0.4845	0.9828	0.3203	-0.016
Mof_C 	C 	0.5152	0.0429	0.2989	-0.021
Mof_C 	C 	0.5192	0.0405	0.2586	-0.066
Mof_C 	C 	0.3827	0.2541	0.9507	0.081
Mof_C 	C 	0.2595	0.4085	0.8956	0.084
Mof_C 	C 	0.3512	0.2944	0.9364	0.013
Mof_C 	C 	0.3385	0.3339	0.9622	-0.044
Mof_C 	C 	0.3094	0.3715	0.9489	-0.044
Mof_C 	C 	0.293	0.3695	0.9098	0.013
Mof_C 	C 	0.3057	0.33	0.8839	-0.047
Mof_C 	C 	0.3349	0.2925	0.8972	-0.047
Mof_C 	C 	0.1297	0.7557	0.111	0.064
Mof_C 	C 	0.854	0.5934	0.1667	0.078
Mof_C 	C 	0.059	0.7093	0.1258	0.014
Mof_C 	C 	0.0451	0.7076	0.1653	-0.049
Mof_C 	C 	0.9784	0.6703	0.1786	-0.045
Mof_C 	C 	0.9257	0.6347	0.1523	0.018
Mof_C 	C 	0.9396	0.6364	0.1128	-0.047
Mof_C 	C 	0.0063	0.6737	0.0996	-0.045
Mof_C 	C 	0.412	0.0734	0.1291	0.026
Mof_C 	C 	0.35	0.034	0.152	-0.003
Mof_C 	C 	0.534	0.9329	0.1324	0.001
Mof_C 	C 	0.61	0.978	0.126	-0.02
Mof_C 	C 	0.2817	0.1017	0.0071	-0.018
Mof_C 	C 	0.265	0.114	0.0487	0.032
Mof_C 	C 	0.5355	0.2735	0.9816	0.017
Mof_C 	C 	0.547	0.328	0.01	0.007
Mof_C 	C 	0.1821	0.9005	0.055	0.02
Mof_C 	C 	0.152	0.885	0.0136	0.02
Mof_C 	C 	0.254	0.719	0.0717	-0.01
Mof_C 	C 	0.258	0.699	0.1092	0.016
Mof_C 	C 	0.6627	0.0837	0.4331	0.007
Mof_C 	C 	0.703	0.05	0.441	-0.01
Mof_C 	C 	0.4019	0.9279	0.4257	-0.005
Mof_C 	C 	0.379	0.855	0.4384	-0.012
Mof_C 	C 	0.079	0.333	0.9116	0.043
Mof_C 	C 	0.088	0.329	0.9542	0.001
Mof_C 	C 	0.277	0.577	0.8893	0.065
Mof_C 	C 	0.27	0.642	0.88	-0.056
Mof_C 	C 	0.706	0.426	0.1636	0.003
Mof_C 	C 	0.728	0.401	0.1934	0.024
Mof_C 	C 	0.756	0.674	0.1637	0.078
Mof_C 	C 	0.824	0.704	0.152	0
Mof_C 	C 	0.5884	0.5554	0.78167	0.08
Mof_C 	C 	0.4716	0.5034	0.78317	0.099
Mof_C 	C 	0.7723	0.6419	0.66957	0.118
Mof_C 	C 	0.736	0.5287	0.65927	0.109
Mof_C 	C 	0.6414	0.7716	0.72527	0.11
Mof_C 	C 	0.5286	0.7402	0.73217	0.117
Mof_C 	C 	0.4518	0.411	0.11287	0.086
Mof_C 	C 	0.5004	0.5274	0.10967	0.096
Mof_C 	C 	0.2898	0.8826	0.56567	0.106
Mof_C 	C 	0.3108	0.7942	0.55687	0.096
Mof_C 	C 	0.7908	0.3044	0.83547	0.116
Mof_C 	C 	0.8799	0.283	0.83427	0.094
Mof_C 	C 	0.4794	0.5037	0.86297	0.052
Mof_C 	C 	0.5016	0.5162	0.03047	0.146
Mof_C 	C 	0.4856	0.5074	0.90637	0.03
Mof_C 	C 	0.4563	0.5381	0.92777	-0.065
Mof_C 	C 	0.4626	0.5422	0.96807	-0.026
Mof_C 	C 	0.4983	0.5155	0.98697	-0.004
Mof_C 	C 	0.5277	0.4848	0.96557	-0.029
Mof_C 	C 	0.5213	0.4808	0.92527	-0.06
Mof_C 	C 	0.8714	0.6173	0.61737	0.081
Mof_C 	C 	0.149	0.7405	0.56227	0.084
Mof_C 	C 	0.9432	0.6488	0.60307	0.012
Mof_C 	C 	0.9954	0.6615	0.62887	-0.044
Mof_C 	C 	0.0621	0.6906	0.61557	-0.045
Mof_C 	C 	0.0765	0.707	0.57647	0.013
Mof_C 	C 	0.0243	0.6943	0.55057	-0.048
Mof_C 	C 	0.9576	0.6651	0.56387	-0.046
Mof_C 	C 	0.626	0.8703	0.77767	0.064
Mof_C 	C 	0.7394	0.146	0.83337	0.078
Mof_C 	C 	0.6503	0.941	0.79247	0.014
Mof_C 	C 	0.6625	0.9549	0.83197	-0.049
Mof_C 	C 	0.6919	0.0216	0.84527	-0.045
Mof_C 	C 	0.709	0.0743	0.81897	0.018
Mof_C 	C 	0.6968	0.0604	0.77947	-0.046
Mof_C 	C 	0.6674	0.9937	0.76627	-0.045
Mof_C 	C 	0.6614	0.588	0.79577	0.026
Mof_C 	C 	0.684	0.65	0.81867	-0.003
Mof_C 	C 	0.3989	0.466	0.79907	0.001
Mof_C 	C 	0.368	0.39	0.79267	-0.02
Mof_C 	C 	0.82	0.7183	0.67377	-0.003
Mof_C 	C 	0.849	0.735	0.71537	0.031
Mof_C 	C 	0.738	0.4645	0.64827	0.011
Mof_C 	C 	0.781	0.453	0.67667	0.015
Mof_C 	C 	0.7184	0.8179	0.72167	0.018
Mof_C 	C 	0.733	0.848	0.68027	0.025
Mof_C 	C 	0.465	0.746	0.73837	-0.011
Mof_C 	C 	0.441	0.742	0.77587	0.016
Mof_C 	C 	0.421	0.3373	0.09977	0.008
Mof_C 	C 	0.347	0.297	0.10767	-0.012
Mof_C 	C 	0.526	0.5981	0.09237	-0.005
Mof_C 	C 	0.476	0.621	0.10507	-0.012
Mof_C 	C 	0.254	0.921	0.57827	0.044
Mof_C 	C 	0.241	0.912	0.62087	-0.002
Mof_C 	C 	0.3	0.723	0.55597	0.064
Mof_C 	C 	0.372	0.73	0.54667	-0.057
Mof_C 	C 	0.72	0.294	0.83027	0.003
Mof_C 	C 	0.673	0.272	0.86007	0.024
Mof_C 	C 	0.918	0.244	0.83037	0.078
Mof_C 	C 	0.88	0.176	0.81867	0.001
Mof_C 	C 	0.967	0.4116	0.44833	0.08
Mof_C 	C 	0.0318	0.5284	0.44983	0.099
Mof_C 	C 	0.8696	0.2277	0.33623	0.118
Mof_C 	C 	0.7927	0.264	0.32593	0.109
Mof_C 	C 	0.1302	0.3586	0.39193	0.11
Mof_C 	C 	0.2116	0.4714	0.39883	0.117
Mof_C 	C 	0.9592	0.5482	0.77953	0.087
Mof_C 	C 	0.027	0.4996	0.77633	0.096
Mof_C 	C 	0.5928	0.7102	0.23233	0.106
Mof_C 	C 	0.4834	0.6892	0.22353	0.096
Mof_C 	C 	0.5136	0.2092	0.50213	0.116
Mof_C 	C 	0.4031	0.1201	0.50093	0.094
Mof_C 	C 	0.0243	0.5206	0.52963	0.05
Mof_C 	C 	0.0146	0.4984	0.69713	0.155
Mof_C 	C 	0.0218	0.5144	0.57303	0.034
Mof_C 	C 	0.0818	0.5437	0.59443	-0.071
Mof_C 	C 	0.0796	0.5374	0.63473	-0.018
Mof_C 	C 	0.0172	0.5017	0.65363	-0.016
Mof_C 	C 	0.9571	0.4723	0.63223	-0.021
Mof_C 	C 	0.9595	0.4787	0.59193	-0.066
Mof_C 	C 	0.7459	0.1286	0.28403	0.081
Mof_C 	C 	0.5915	0.851	0.22893	0.084
Mof_C 	C 	0.7056	0.0568	0.26973	0.012
Mof_C 	C 	0.6661	0.0046	0.29553	-0.043
Mof_C 	C 	0.6285	0.9379	0.28223	-0.045
Mof_C 	C 	0.6305	0.9235	0.24313	0.014
Mof_C 	C 	0.67	0.9757	0.21723	-0.048
Mof_C 	C 	0.7075	0.0424	0.23053	-0.046
Mof_C 	C 	0.2443	0.374	0.44433	0.064
Mof_C 	C 	0.4066	0.2606	0.50003	0.078
Mof_C 	C 	0.2907	0.3497	0.45913	0.015
Mof_C 	C 	0.2924	0.3375	0.49863	-0.049
Mof_C 	C 	0.3297	0.3081	0.51193	-0.045
Mof_C 	C 	0.3653	0.291	0.48563	0.018
Mof_C 	C 	0.3636	0.3032	0.44613	-0.046
Mof_C 	C 	0.3263	0.3326	0.43293	-0.045
Mof_C 	C 	0.9266	0.3386	0.46243	0.026
Mof_C 	C 	0.966	0.316	0.48533	-0.003
Mof_C 	C 	0.0671	0.6011	0.46573	0.001
Mof_C 	C 	0.022	0.632	0.45933	-0.02
Mof_C 	C 	0.8983	0.18	0.34043	-0.003
Mof_C 	C 	0.886	0.151	0.38203	0.031
Mof_C 	C 	0.7265	0.262	0.31493	0.011
Mof_C 	C 	0.672	0.219	0.34333	0.015
Mof_C 	C 	0.0995	0.2816	0.38833	0.018
Mof_C 	C 	0.115	0.267	0.34693	0.025
Mof_C 	C 	0.281	0.535	0.40503	-0.011
Mof_C 	C 	0.301	0.559	0.44253	0.016
Mof_C 	C 	0.9163	0.579	0.76643	0.007
Mof_C 	C 	0.95	0.653	0.77433	-0.01
Mof_C 	C 	0.0721	0.474	0.75903	-0.005
Mof_C 	C 	0.145	0.524	0.77173	-0.012
Mof_C 	C 	0.667	0.746	0.24493	0.044
Mof_C 	C 	0.671	0.759	0.28753	-0.002
Mof_C 	C 	0.423	0.7	0.22263	0.064
Mof_C 	C 	0.358	0.628	0.21333	-0.057
Mof_C 	C 	0.574	0.28	0.49693	0.003
Mof_C 	C 	0.599	0.327	0.52673	0.024
Mof_C 	C 	0.326	0.082	0.49703	0.078
Mof_C 	C 	0.296	0.12	0.48533	0.001
Mof_C 	C 	0.5554	0.967	0.615	0.08
Mof_C 	C 	0.5034	0.0318	0.6165	0.099
Mof_C 	C 	0.6419	0.8696	0.5029	0.118
Mof_C 	C 	0.5287	0.7927	0.4926	0.109
Mof_C 	C 	0.7716	0.1302	0.5586	0.11
Mof_C 	C 	0.7402	0.2116	0.5655	0.117
Mof_C 	C 	0.411	0.9592	0.9462	0.088
Mof_C 	C 	0.5274	0.027	0.943	0.097
Mof_C 	C 	0.8826	0.5928	0.399	0.106
Mof_C 	C 	0.7942	0.4834	0.3902	0.096
Mof_C 	C 	0.3044	0.5136	0.6688	0.116
Mof_C 	C 	0.283	0.4031	0.6676	0.094
Mof_C 	C 	0.5037	0.0243	0.6963	0.05
Mof_C 	C 	0.5162	0.0146	0.8638	0.155
Mof_C 	C 	0.5074	0.0218	0.7397	0.034
Mof_C 	C 	0.5381	0.0818	0.7611	-0.071
Mof_C 	C 	0.5422	0.0796	0.8014	-0.018
Mof_C 	C 	0.5155	0.0172	0.8203	-0.016
Mof_C 	C 	0.4848	0.9571	0.7989	-0.021
Mof_C 	C 	0.4808	0.9595	0.7586	-0.066
Mof_C 	C 	0.6173	0.7459	0.4507	0.081
Mof_C 	C 	0.7405	0.5915	0.3956	0.084
Mof_C 	C 	0.6488	0.7056	0.4364	0.012
Mof_C 	C 	0.6615	0.6661	0.4622	-0.044
Mof_C 	C 	0.6906	0.6285	0.4489	-0.045
Mof_C 	C 	0.707	0.6305	0.4098	0.013
Mof_C 	C 	0.6943	0.67	0.3839	-0.047
Mof_C 	C 	0.6651	0.7075	0.3972	-0.046
Mof_C 	C 	0.8703	0.2443	0.611	0.064
Mof_C 	C 	0.146	0.4066	0.6667	0.078
Mof_C 	C 	0.941	0.2907	0.6258	0.014
Mof_C 	C 	0.9549	0.2924	0.6653	-0.049
Mof_C 	C 	0.0216	0.3297	0.6786	-0.045
Mof_C 	C 	0.0743	0.3653	0.6523	0.018
Mof_C 	C 	0.0604	0.3636	0.6128	-0.046
Mof_C 	C 	0.9937	0.3263	0.5996	-0.045
Mof_C 	C 	0.588	0.9266	0.6291	0.026
Mof_C 	C 	0.65	0.966	0.652	-0.003
Mof_C 	C 	0.466	0.0671	0.6324	0.001
Mof_C 	C 	0.39	0.022	0.626	-0.02
Mof_C 	C 	0.7183	0.8983	0.5071	-0.003
Mof_C 	C 	0.735	0.886	0.5487	0.031
Mof_C 	C 	0.4645	0.7265	0.4816	0.011
Mof_C 	C 	0.453	0.672	0.51	0.015
Mof_C 	C 	0.8179	0.0995	0.555	0.018
Mof_C 	C 	0.848	0.115	0.5136	0.025
Mof_C 	C 	0.746	0.281	0.5717	-0.011
Mof_C 	C 	0.742	0.301	0.6092	0.016
Mof_C 	C 	0.3373	0.9163	0.9331	0.007
Mof_C 	C 	0.297	0.95	0.941	-0.008
Mof_C 	C 	0.5981	0.0721	0.9257	-0.006
Mof_C 	C 	0.621	0.145	0.9384	-0.009
Mof_C 	C 	0.921	0.667	0.4116	0.044
Mof_C 	C 	0.912	0.671	0.4542	-0.002
Mof_C 	C 	0.723	0.423	0.3893	0.064
Mof_C 	C 	0.73	0.358	0.38	-0.057
Mof_C 	C 	0.294	0.574	0.6636	0.003
Mof_C 	C 	0.272	0.599	0.6934	0.024
Mof_C 	C 	0.244	0.326	0.6637	0.078
Mof_C 	C 	0.176	0.296	0.652	0.001
Mof_C 	C 	0.4116	0.4446	0.28167	0.08
Mof_C 	C 	0.5284	0.4966	0.28317	0.099
Mof_C 	C 	0.2277	0.3581	0.16957	0.118
Mof_C 	C 	0.264	0.4713	0.15927	0.108
Mof_C 	C 	0.3586	0.2284	0.22527	0.11
Mof_C 	C 	0.4714	0.2598	0.23217	0.117
Mof_C 	C 	0.5482	0.589	0.61287	0.087
Mof_C 	C 	0.4996	0.4726	0.60967	0.096
Mof_C 	C 	0.7102	0.1174	0.06567	0.105
Mof_C 	C 	0.6892	0.2058	0.05687	0.095
Mof_C 	C 	0.2092	0.6956	0.33547	0.116
Mof_C 	C 	0.1201	0.717	0.33427	0.094
Mof_C 	C 	0.5206	0.4963	0.36297	0.05
Mof_C 	C 	0.4984	0.4838	0.53047	0.155
Mof_C 	C 	0.5144	0.4926	0.40637	0.034
Mof_C 	C 	0.5437	0.4619	0.42777	-0.071
Mof_C 	C 	0.5374	0.4578	0.46807	-0.018
Mof_C 	C 	0.5017	0.4845	0.48697	-0.016
Mof_C 	C 	0.4723	0.5152	0.46557	-0.021
Mof_C 	C 	0.4787	0.5192	0.42527	-0.066
Mof_C 	C 	0.1286	0.3827	0.11737	0.08
Mof_C 	C 	0.851	0.2595	0.06227	0.082
Mof_C 	C 	0.0568	0.3512	0.10307	0.012
Mof_C 	C 	0.0046	0.3385	0.12887	-0.044
Mof_C 	C 	0.9379	0.3094	0.11557	-0.045
Mof_C 	C 	0.9235	0.293	0.07647	0.013
Mof_C 	C 	0.9757	0.3057	0.05057	-0.048
Mof_C 	C 	0.0424	0.3349	0.06387	-0.047
Mof_C 	C 	0.374	0.1297	0.27767	0.064
Mof_C 	C 	0.2606	0.854	0.33337	0.078
Mof_C 	C 	0.3497	0.059	0.29247	0.014
Mof_C 	C 	0.3375	0.0451	0.33197	-0.049
Mof_C 	C 	0.3081	0.9784	0.34527	-0.045
Mof_C 	C 	0.291	0.9257	0.31897	0.018
Mof_C 	C 	0.3032	0.9396	0.27947	-0.046
Mof_C 	C 	0.3326	0.0063	0.26627	-0.045
Mof_C 	C 	0.3386	0.412	0.29577	0.026
Mof_C 	C 	0.316	0.35	0.31867	-0.003
Mof_C 	C 	0.6011	0.534	0.29907	0.001
Mof_C 	C 	0.632	0.61	0.29267	-0.02
Mof_C 	C 	0.18	0.2817	0.17377	-0.003
Mof_C 	C 	0.151	0.265	0.21537	0.031
Mof_C 	C 	0.262	0.5355	0.14827	0.011
Mof_C 	C 	0.219	0.547	0.17667	0.015
Mof_C 	C 	0.2816	0.1821	0.22167	0.018
Mof_C 	C 	0.267	0.152	0.18027	0.025
Mof_C 	C 	0.535	0.254	0.23837	-0.011
Mof_C 	C 	0.559	0.258	0.27587	0.016
Mof_C 	C 	0.579	0.6627	0.59977	0.007
Mof_C 	C 	0.653	0.703	0.60767	-0.01
Mof_C 	C 	0.474	0.4019	0.59237	-0.005
Mof_C 	C 	0.524	0.379	0.60507	-0.012
Mof_C 	C 	0.746	0.079	0.07827	0.045
Mof_C 	C 	0.759	0.088	0.12087	-0.002
Mof_C 	C 	0.7	0.277	0.05597	0.064
Mof_C 	C 	0.628	0.27	0.04667	-0.058
Mof_C 	C 	0.28	0.706	0.33027	0.003
Mof_C 	C 	0.327	0.728	0.36007	0.024
Mof_C 	C 	0.082	0.756	0.33037	0.078
Mof_C 	C 	0.12	0.824	0.31867	0.001
Mof_C 	C 	0.033	0.5884	0.94833	0.081
Mof_C 	C 	0.9682	0.4716	0.94983	0.101
Mof_C 	C 	0.1304	0.7723	0.83623	0.119
Mof_C 	C 	0.2073	0.736	0.82593	0.109
Mof_C 	C 	0.8698	0.6414	0.89193	0.11
Mof_C 	C 	0.7884	0.5286	0.89883	0.117
Mof_C 	C 	0.0408	0.4518	0.27953	0.087
Mof_C 	C 	0.973	0.5004	0.27633	0.096
Mof_C 	C 	0.4072	0.2898	0.73233	0.106
Mof_C 	C 	0.5166	0.3108	0.72353	0.096
Mof_C 	C 	0.4864	0.7908	0.00213	0.103
Mof_C 	C 	0.5969	0.8799	0.00093	0.082
Mof_C 	C 	0.9757	0.4794	0.02963	0.047
Mof_C 	C 	0.9854	0.5016	0.19713	0.155
Mof_C 	C 	0.9782	0.4856	0.07303	0.034
Mof_C 	C 	0.9182	0.4563	0.09443	-0.071
Mof_C 	C 	0.9204	0.4626	0.13473	-0.018
Mof_C 	C 	0.9828	0.4983	0.15363	-0.016
Mof_C 	C 	0.0429	0.5277	0.13223	-0.021
Mof_C 	C 	0.0405	0.5213	0.09193	-0.066
Mof_C 	C 	0.2541	0.8714	0.78403	0.081
Mof_C 	C 	0.4085	0.149	0.72893	0.084
Mof_C 	C 	0.2944	0.9432	0.76973	0.012
Mof_C 	C 	0.3339	0.9954	0.79553	-0.044
Mof_C 	C 	0.3715	0.0621	0.78223	-0.045
Mof_C 	C 	0.3695	0.0765	0.74313	0.014
Mof_C 	C 	0.33	0.0243	0.71723	-0.048
Mof_C 	C 	0.2925	0.9576	0.73053	-0.046
Mof_C 	C 	0.7557	0.626	0.94433	0.075
Mof_C 	C 	0.5934	0.7394	3e-05	0.053
Mof_C 	C 	0.7093	0.6503	0.95913	-0.015
Mof_C 	C 	0.7076	0.6625	0.99863	0.008
Mof_C 	C 	0.6703	0.6919	0.01193	-0.103
Mof_C 	C 	0.6347	0.709	0.98563	0.061
Mof_C 	C 	0.6364	0.6968	0.94613	-0.08
Mof_C 	C 	0.6737	0.6674	0.93293	-0.015
Mof_C 	C 	0.0734	0.6614	0.96243	0.024
Mof_C 	C 	0.034	0.684	0.98533	0.001
Mof_C 	C 	0.9329	0.3989	0.96573	0
Mof_C 	C 	0.978	0.368	0.95933	-0.017
Mof_C 	C 	0.1017	0.82	0.84043	-0.003
Mof_C 	C 	0.114	0.849	0.88203	0.032
Mof_C 	C 	0.2735	0.738	0.81493	0.011
Mof_C 	C 	0.328	0.781	0.84333	0.015
Mof_C 	C 	0.9005	0.7184	0.88833	0.018
Mof_C 	C 	0.885	0.733	0.84693	0.025
Mof_C 	C 	0.719	0.465	0.90503	-0.012
Mof_C 	C 	0.699	0.441	0.94253	0.019
Mof_C 	C 	0.0837	0.421	0.26643	0.007
Mof_C 	C 	0.05	0.347	0.27433	-0.01
Mof_C 	C 	0.9279	0.526	0.25903	-0.005
Mof_C 	C 	0.855	0.476	0.27173	-0.012
Mof_C 	C 	0.333	0.254	0.74493	0.044
Mof_C 	C 	0.329	0.241	0.78753	-0.001
Mof_C 	C 	0.577	0.3	0.72263	0.064
Mof_C 	C 	0.642	0.372	0.71333	-0.057
Mof_C 	C 	0.426	0.72	0.99693	0.021
Mof_C 	C 	0.401	0.673	0.02673	0.014
Mof_C 	C 	0.674	0.918	0.99703	0.086
Mof_C 	C 	0.704	0.88	0.98533	0.003
Mof_N 	N 	0.4846	0.9784	0.0794	-0.175
Mof_N 	N 	0.4524	0.0154	0.0785	-0.176
Mof_N 	N 	0.4731	0.0036	0.1386	-0.106
Mof_N 	N 	0.4637	0.1474	0.0046	-0.177
Mof_N 	N 	0.3967	0.102	0.0112	-0.161
Mof_N 	N 	0.4053	0.1971	0.9922	-0.1
Mof_N 	N 	0.313	0.8476	0.0532	-0.168
Mof_N 	N 	0.2944	0.8959	0.0488	-0.159
Mof_N 	N 	0.2062	0.8018	0.0675	-0.107
Mof_N 	N 	0.4934	0.9822	0.4804	-0.183
Mof_N 	N 	0.5622	0.0229	0.4823	-0.178
Mof_N 	N 	0.5328	0.0065	0.4216	-0.1
Mof_N 	N 	0.1457	0.5121	0.881	-0.177
Mof_N 	N 	0.0931	0.4475	0.8867	-0.169
Mof_N 	N 	0.1875	0.4507	0.9019	-0.095
Mof_N 	N 	0.6523	0.5542	0.1792	-0.159
Mof_N 	N 	0.6394	0.4886	0.1794	-0.17
Mof_N 	N 	0.7435	0.5541	0.1607	-0.098
Mof_N 	N 	0.476	0.0077	0.18	-0.093
Mof_N 	N 	0.5368	0.0088	0.3795	-0.114
Mof_N 	N 	0.3861	0.2465	0.9838	-0.094
Mof_N 	N 	0.2346	0.4306	0.9155	-0.093
Mof_N 	N 	0.1382	0.7577	0.0777	-0.098
Mof_N 	N 	0.8091	0.575	0.145	-0.091
Mof_N 	N 	0.4938	0.5154	0.74607	-0.175
Mof_N 	N 	0.563	0.5476	0.74517	-0.176
Mof_N 	N 	0.5305	0.5269	0.80527	-0.106
Mof_N 	N 	0.6837	0.5363	0.67127	-0.173
Mof_N 	N 	0.7053	0.6033	0.67787	-0.161
Mof_N 	N 	0.7918	0.5947	0.65887	-0.102
Mof_N 	N 	0.5346	0.687	0.71987	-0.168
Mof_N 	N 	0.6015	0.7056	0.71547	-0.159
Mof_N 	N 	0.5956	0.7938	0.73417	-0.107
Mof_N 	N 	0.4888	0.5066	0.14707	-0.183
Mof_N 	N 	0.4607	0.4378	0.14897	-0.178
Mof_N 	N 	0.4737	0.4672	0.08827	-0.1
Mof_N 	N 	0.3664	0.8543	0.54767	-0.178
Mof_N 	N 	0.3544	0.9069	0.55337	-0.169
Mof_N 	N 	0.2632	0.8125	0.56857	-0.096
Mof_N 	N 	0.9019	0.3477	0.84587	-0.159
Mof_N 	N 	0.8492	0.3606	0.84607	-0.17
Mof_N 	N 	0.8106	0.2565	0.82737	-0.098
Mof_N 	N 	0.5317	0.524	0.84667	-0.093
Mof_N 	N 	0.472	0.4632	0.04617	-0.113
Mof_N 	N 	0.8604	0.6139	0.65047	-0.096
Mof_N 	N 	0.196	0.7654	0.58217	-0.094
Mof_N 	N 	0.6195	0.8618	0.74437	-0.097
Mof_N 	N 	0.7659	0.1909	0.81167	-0.091
Mof_N 	N 	0.0216	0.5062	0.41273	-0.175
Mof_N 	N 	0.9846	0.437	0.41183	-0.176
Mof_N 	N 	0.9964	0.4695	0.47193	-0.106
Mof_N 	N 	0.8526	0.3163	0.33793	-0.173
Mof_N 	N 	0.898	0.2947	0.34453	-0.161
Mof_N 	N 	0.8029	0.2082	0.32553	-0.102
Mof_N 	N 	0.1524	0.4654	0.38653	-0.168
Mof_N 	N 	0.1041	0.3985	0.38213	-0.159
Mof_N 	N 	0.1982	0.4044	0.40083	-0.107
Mof_N 	N 	0.0178	0.5112	0.81373	-0.183
Mof_N 	N 	0.9771	0.5393	0.81563	-0.178
Mof_N 	N 	0.9935	0.5263	0.75493	-0.1
Mof_N 	N 	0.4879	0.6336	0.21433	-0.178
Mof_N 	N 	0.5525	0.6456	0.22003	-0.169
Mof_N 	N 	0.5493	0.7368	0.23523	-0.096
Mof_N 	N 	0.4458	0.0981	0.51253	-0.159
Mof_N 	N 	0.5114	0.1508	0.51273	-0.17
Mof_N 	N 	0.4459	0.1894	0.49403	-0.098
Mof_N 	N 	0.9923	0.4683	0.51333	-0.093
Mof_N 	N 	0.9912	0.528	0.71283	-0.114
Mof_N 	N 	0.7535	0.1396	0.31713	-0.096
Mof_N 	N 	0.5694	0.804	0.24883	-0.094
Mof_N 	N 	0.2423	0.3805	0.41103	-0.097
Mof_N 	N 	0.425	0.2341	0.47833	-0.091
Mof_N 	N 	0.5154	0.0216	0.5794	-0.175
Mof_N 	N 	0.5476	0.9846	0.5785	-0.176
Mof_N 	N 	0.5269	0.9964	0.6386	-0.106
Mof_N 	N 	0.5363	0.8526	0.5046	-0.173
Mof_N 	N 	0.6033	0.898	0.5112	-0.161
Mof_N 	N 	0.5947	0.8029	0.4922	-0.102
Mof_N 	N 	0.687	0.1524	0.5532	-0.168
Mof_N 	N 	0.7056	0.1041	0.5488	-0.159
Mof_N 	N 	0.7938	0.1982	0.5675	-0.107
Mof_N 	N 	0.5066	0.0178	0.9804	-0.18
Mof_N 	N 	0.4378	0.9771	0.9823	-0.175
Mof_N 	N 	0.4672	0.9935	0.9216	-0.1
Mof_N 	N 	0.8543	0.4879	0.381	-0.178
Mof_N 	N 	0.9069	0.5525	0.3867	-0.169
Mof_N 	N 	0.8125	0.5493	0.4019	-0.096
Mof_N 	N 	0.3477	0.4458	0.6792	-0.159
Mof_N 	N 	0.3606	0.5114	0.6794	-0.17
Mof_N 	N 	0.2565	0.4459	0.6607	-0.098
Mof_N 	N 	0.524	0.9923	0.68	-0.093
Mof_N 	N 	0.4632	0.9912	0.8795	-0.113
Mof_N 	N 	0.6139	0.7535	0.4838	-0.095
Mof_N 	N 	0.7654	0.5694	0.4155	-0.094
Mof_N 	N 	0.8618	0.2423	0.5777	-0.097
Mof_N 	N 	0.1909	0.425	0.645	-0.091
Mof_N 	N 	0.5062	0.4846	0.24607	-0.175
Mof_N 	N 	0.437	0.4524	0.24517	-0.176
Mof_N 	N 	0.4695	0.4731	0.30527	-0.106
Mof_N 	N 	0.3163	0.4637	0.17127	-0.173
Mof_N 	N 	0.2947	0.3967	0.17787	-0.161
Mof_N 	N 	0.2082	0.4053	0.15887	-0.102
Mof_N 	N 	0.4654	0.313	0.21987	-0.168
Mof_N 	N 	0.3985	0.2944	0.21547	-0.159
Mof_N 	N 	0.4044	0.2062	0.23417	-0.107
Mof_N 	N 	0.5112	0.4934	0.64707	-0.183
Mof_N 	N 	0.5393	0.5622	0.64897	-0.178
Mof_N 	N 	0.5263	0.5328	0.58827	-0.1
Mof_N 	N 	0.6336	0.1457	0.04767	-0.177
Mof_N 	N 	0.6456	0.0931	0.05337	-0.168
Mof_N 	N 	0.7368	0.1875	0.06857	-0.096
Mof_N 	N 	0.0981	0.6523	0.34587	-0.159
Mof_N 	N 	0.1508	0.6394	0.34607	-0.17
Mof_N 	N 	0.1894	0.7435	0.32737	-0.098
Mof_N 	N 	0.4683	0.476	0.34667	-0.093
Mof_N 	N 	0.528	0.5368	0.54617	-0.114
Mof_N 	N 	0.1396	0.3861	0.15047	-0.095
Mof_N 	N 	0.804	0.2346	0.08217	-0.094
Mof_N 	N 	0.3805	0.1382	0.24437	-0.097
Mof_N 	N 	0.2341	0.8091	0.31167	-0.091
Mof_N 	N 	0.9784	0.4938	0.91273	-0.175
Mof_N 	N 	0.0154	0.563	0.91183	-0.176
Mof_N 	N 	0.0036	0.5305	0.97193	-0.104
Mof_N 	N 	0.1474	0.6837	0.83793	-0.173
Mof_N 	N 	0.102	0.7053	0.84453	-0.161
Mof_N 	N 	0.1971	0.7918	0.82553	-0.102
Mof_N 	N 	0.8476	0.5346	0.88653	-0.168
Mof_N 	N 	0.8959	0.6015	0.88213	-0.159
Mof_N 	N 	0.8018	0.5956	0.90083	-0.107
Mof_N 	N 	0.9822	0.4888	0.31373	-0.183
Mof_N 	N 	0.0229	0.4607	0.31563	-0.178
Mof_N 	N 	0.0065	0.4737	0.25493	-0.1
Mof_N 	N 	0.5121	0.3664	0.71433	-0.178
Mof_N 	N 	0.4475	0.3544	0.72003	-0.169
Mof_N 	N 	0.4507	0.2632	0.73523	-0.096
Mof_N 	N 	0.5542	0.9019	0.01253	-0.158
Mof_N 	N 	0.4886	0.8492	0.01273	-0.168
Mof_N 	N 	0.5541	0.8106	0.99403	-0.09
Mof_N 	N 	0.0077	0.5317	0.01333	-0.096
Mof_N 	N 	0.0088	0.472	0.21283	-0.114
Mof_N 	N 	0.2465	0.8604	0.81713	-0.095
Mof_N 	N 	0.4306	0.196	0.74883	-0.094
Mof_N 	N 	0.7577	0.6195	0.91103	-0.099
Mof_N 	N 	0.575	0.7659	0.97833	-0.082
Mof_O 	O 	0.43	0.132	0.114	-0.179
Mof_O 	O 	0.512	0.874	0.107	-0.173
Mof_O 	O 	0.249	0.03	0.9999	-0.147
Mof_O 	O 	0.532	0.292	0.9426	-0.148
Mof_O 	O 	0.215	0.967	0.064	-0.162
Mof_O 	O 	0.301	0.717	0.0422	-0.179
Mof_O 	O 	0.692	0.152	0.441	-0.166
Mof_O 	O 	0.418	0.928	0.3818	-0.18
Mof_O 	O 	0.077	0.288	0.8874	-0.146
Mof_O 	O 	0.314	0.573	0.8546	-0.151
Mof_O 	O 	0.725	0.422	0.1246	-0.143
Mof_O 	O 	0.718	0.704	0.161	-0.177
Mof_O 	O 	0.702	0.57	0.78067	-0.179
Mof_O 	O 	0.362	0.488	0.77367	-0.173
Mof_O 	O 	0.781	0.751	0.66657	-0.156
Mof_O 	O 	0.76	0.468	0.60927	-0.148
Mof_O 	O 	0.752	0.785	0.73067	-0.16
Mof_O 	O 	0.416	0.699	0.70887	-0.178
Mof_O 	O 	0.46	0.308	0.10767	-0.167
Mof_O 	O 	0.51	0.582	0.04847	-0.18
Mof_O 	O 	0.211	0.923	0.55407	-0.147
Mof_O 	O 	0.259	0.686	0.52127	-0.151
Mof_O 	O 	0.697	0.275	0.79127	-0.143
Mof_O 	O 	0.986	0.282	0.82767	-0.176
Mof_O 	O 	0.868	0.298	0.44733	-0.179
Mof_O 	O 	0.126	0.638	0.44033	-0.173
Mof_O 	O 	0.97	0.219	0.33323	-0.156
Mof_O 	O 	0.708	0.24	0.27593	-0.148
Mof_O 	O 	0.033	0.248	0.39733	-0.16
Mof_O 	O 	0.283	0.584	0.37553	-0.178
Mof_O 	O 	0.848	0.54	0.77433	-0.166
Mof_O 	O 	0.072	0.49	0.71513	-0.18
Mof_O 	O 	0.712	0.789	0.22073	-0.147
Mof_O 	O 	0.427	0.741	0.18793	-0.151
Mof_O 	O 	0.578	0.303	0.45793	-0.143
Mof_O 	O 	0.296	0.014	0.49433	-0.176
Mof_O 	O 	0.57	0.868	0.614	-0.179
Mof_O 	O 	0.488	0.126	0.607	-0.173
Mof_O 	O 	0.751	0.97	0.4999	-0.156
Mof_O 	O 	0.468	0.708	0.4426	-0.148
Mof_O 	O 	0.785	0.033	0.564	-0.16
Mof_O 	O 	0.699	0.283	0.5422	-0.178
Mof_O 	O 	0.308	0.848	0.941	-0.164
Mof_O 	O 	0.582	0.072	0.8818	-0.18
Mof_O 	O 	0.923	0.712	0.3874	-0.147
Mof_O 	O 	0.686	0.427	0.3546	-0.151
Mof_O 	O 	0.275	0.578	0.6246	-0.143
Mof_O 	O 	0.282	0.296	0.661	-0.176
Mof_O 	O 	0.298	0.43	0.28067	-0.179
Mof_O 	O 	0.638	0.512	0.27367	-0.173
Mof_O 	O 	0.219	0.249	0.16657	-0.156
Mof_O 	O 	0.24	0.532	0.10927	-0.149
Mof_O 	O 	0.248	0.215	0.23067	-0.16
Mof_O 	O 	0.584	0.301	0.20887	-0.178
Mof_O 	O 	0.54	0.692	0.60767	-0.166
Mof_O 	O 	0.49	0.418	0.54847	-0.18
Mof_O 	O 	0.789	0.077	0.05407	-0.149
Mof_O 	O 	0.741	0.314	0.02127	-0.154
Mof_O 	O 	0.303	0.725	0.29127	-0.143
Mof_O 	O 	0.014	0.718	0.32767	-0.176
Mof_O 	O 	0.132	0.702	0.94733	-0.177
Mof_O 	O 	0.874	0.362	0.94033	-0.171
Mof_O 	O 	0.03	0.781	0.83323	-0.155
Mof_O 	O 	0.292	0.76	0.77593	-0.148
Mof_O 	O 	0.967	0.752	0.89733	-0.159
Mof_O 	O 	0.717	0.416	0.87553	-0.177
Mof_O 	O 	0.152	0.46	0.27433	-0.166
Mof_O 	O 	0.928	0.51	0.21513	-0.18
Mof_O 	O 	0.288	0.211	0.72073	-0.147
Mof_O 	O 	0.573	0.259	0.68793	-0.151
Mof_O 	O 	0.422	0.697	0.95793	-0.144
Mof_O 	O 	0.704	0.986	0.99433	-0.174
_end
