data_functionalizedCrystal
_audit_creation_method	'EQeq! by Chris Wilmer'
_symmetry_space_group_name_H-M	'P1'
_symmetry_Int_Tables_number	1
_symmetry_cell_setting	triclinic
loop_
_symmetry_equiv_pos_as_xyz
  x,y,z
_cell_length_a	15.825
_cell_length_b	15.825
_cell_length_c	43.703
_cell_angle_alpha	90
_cell_angle_beta	90
_cell_angle_gamma	120
loop_
_atom_site_label
_atom_site_type_symbol
_atom_site_fract_x
_atom_site_fract_y
_atom_site_fract_z
_atom_site_charge
Mof_C 	C 	0.58777	0.66765	0.03511	0.047
Mof_C 	C 	0.6395	0.65174	0.05893	-0.086
Mof_H 	H 	0.6079	0.6249	0.0779	0.023
Mof_C 	C 	0.73437	0.6748	0.05479	-0.036
Mof_H 	H 	0.7673	0.6614	0.0706	0.035
Mof_C 	C 	0.78456	0.7192	0.02689	-0.033
Mof_H 	H 	0.8509	0.7361	0.0245	0.032
Mof_C 	C 	0.7379	0.73747	0.00352	-0.079
Mof_H 	H 	0.7715	0.7688	0.9853	0.063
Mof_C 	C 	0.64003	0.70877	0.00738	0.045
Mof_C 	C 	0.4961	0.69965	0.988	-0.027
Mof_H 	H 	0.4609	0.7084	0.9719	0.025
Mof_C 	C 	0.4511	0.66488	0.01676	0.039
Mof_C 	C 	0.35199	0.65086	0.02149	0.008
Mof_C 	C 	0.30387	0.67816	0.99715	0.02
Mof_H 	H 	0.354	0.7367	0.9862	0.019
Mof_H 	H 	0.2575	0.6949	0.0068	0.014
Mof_C 	C 	0.2494	0.5961	0.97422	-0.407
Mof_H 	H 	0.2944	0.5772	0.9653	0.148
Mof_H 	H 	0.2225	0.6184	0.958	0.139
Mof_H 	H 	0.1961	0.5398	0.9846	0.145
Mof_C 	C 	0.1292	0.3704	0.07719	-0.34
Mof_H 	H 	0.1847	0.409	0.0908	0.115
Mof_H 	H 	0.1335	0.3147	0.0692	0.116
Mof_H 	H 	0.0682	0.3467	0.0886	0.119
Mof_C 	C 	0.13125	0.43402	0.05054	-0.036
Mof_H 	H 	0.1829	0.4427	0.036	0.034
Mof_H 	H 	0.068	0.3999	0.0396	0.044
Mof_C 	C 	0.14946	0.53143	0.06048	0.028
Mof_C 	C 	0.07175	0.54193	0.07609	0.036
Mof_C 	C 	0.97662	0.46389	0.07707	-0.03
Mof_H 	H 	0.9625	0.4032	0.0684	0.04
Mof_C 	C 	0.92571	0.5614	0.10347	0.044
Mof_C 	C 	0.85259	0.57504	0.11522	-0.075
Mof_H 	H 	0.7864	0.5241	0.1147	0.058
Mof_C 	C 	0.87766	0.6632	0.12751	-0.035
Mof_H 	H 	0.8282	0.6733	0.1361	0.03
Mof_C 	C 	0.9757	0.7409	0.12796	-0.026
Mof_H 	H 	0.9915	0.8017	0.137	0.029
Mof_C 	C 	0.04601	0.72796	0.11559	-0.087
Mof_H 	H 	0.1114	0.7806	0.1157	0.026
Mof_C 	C 	0.02517	0.63737	0.10232	0.053
Mof_N 	N 	0.58633	0.71986	0.98352	-0.062
Mof_N 	N 	0.49602	0.64793	0.03976	-0.188
Mof_N 	N 	0.31257	0.61222	0.04712	-0.137
Mof_N 	N 	0.22864	0.61122	0.0567	-0.143
Mof_N 	N 	0.09657	0.62856	0.08927	-0.187
Mof_N 	N 	0.90537	0.47225	0.08982	-0.061
Mof_O 	O 	0.81556	0.39857	0.09033	-0.212
Mof_O 	O 	0.62952	0.74915	0.95675	-0.231
Mof_C 	C 	0.33235	0.92012	0.70178	0.046
Mof_C 	C 	0.34826	0.98776	0.7256	-0.087
Mof_H 	H 	0.3751	0.983	0.74457	0.023
Mof_C 	C 	0.3252	0.05957	0.72146	-0.037
Mof_H 	H 	0.3386	0.1059	0.73727	0.035
Mof_C 	C 	0.2808	0.06536	0.69356	-0.032
Mof_H 	H 	0.2639	0.1148	0.69117	0.032
Mof_C 	C 	0.26253	0.00043	0.67019	-0.08
Mof_H 	H 	0.2312	0.0027	0.65197	0.063
Mof_C 	C 	0.29123	0.93126	0.67405	0.045
Mof_C 	C 	0.30035	0.79645	0.65467	-0.027
Mof_H 	H 	0.2916	0.7525	0.63857	0.025
Mof_C 	C 	0.33512	0.78622	0.68343	0.039
Mof_C 	C 	0.34914	0.70113	0.68816	0.008
Mof_C 	C 	0.32184	0.62571	0.66382	0.02
Mof_H 	H 	0.2633	0.6173	0.65287	0.019
Mof_H 	H 	0.3051	0.5626	0.67347	0.014
Mof_C 	C 	0.4039	0.6533	0.64089	-0.407
Mof_H 	H 	0.4228	0.7172	0.63197	0.148
Mof_H 	H 	0.3816	0.6041	0.62467	0.139
Mof_H 	H 	0.4602	0.6563	0.65127	0.145
Mof_C 	C 	0.6296	0.7588	0.74386	-0.34
Mof_H 	H 	0.591	0.7757	0.75747	0.115
Mof_H 	H 	0.6853	0.8188	0.73587	0.116
Mof_H 	H 	0.6533	0.7215	0.75527	0.12
Mof_C 	C 	0.56598	0.69723	0.71721	-0.036
Mof_H 	H 	0.5573	0.7402	0.70267	0.034
Mof_H 	H 	0.6001	0.6681	0.70627	0.044
Mof_C 	C 	0.46857	0.61803	0.72715	0.027
Mof_C 	C 	0.45807	0.52982	0.74276	0.036
Mof_C 	C 	0.53611	0.51273	0.74374	-0.031
Mof_H 	H 	0.5968	0.5593	0.73507	0.04
Mof_C 	C 	0.4386	0.36431	0.77014	0.044
Mof_C 	C 	0.42496	0.27755	0.78189	-0.075
Mof_H 	H 	0.4759	0.2623	0.78137	0.058
Mof_C 	C 	0.3368	0.21446	0.79418	-0.035
Mof_H 	H 	0.3267	0.1549	0.80277	0.03
Mof_C 	C 	0.2591	0.2348	0.79463	-0.026
Mof_H 	H 	0.1983	0.1898	0.80367	0.029
Mof_C 	C 	0.27204	0.31805	0.78226	-0.087
Mof_H 	H 	0.2194	0.3308	0.78237	0.026
Mof_C 	C 	0.36263	0.3878	0.76899	0.053
Mof_N 	N 	0.28014	0.86647	0.65019	-0.062
Mof_N 	N 	0.35207	0.84809	0.70643	-0.187
Mof_N 	N 	0.38778	0.70035	0.71379	-0.137
Mof_N 	N 	0.38878	0.61742	0.72337	-0.143
Mof_N 	N 	0.37144	0.46801	0.75594	-0.187
Mof_N 	N 	0.52775	0.43312	0.75649	-0.061
Mof_O 	O 	0.60143	0.41699	0.757	-0.212
Mof_O 	O 	0.25085	0.88037	0.62342	-0.231
Mof_C 	C 	0.07988	0.41223	0.36844	0.046
Mof_C 	C 	0.01224	0.3605	0.39226	-0.087
Mof_H 	H 	0.017	0.3921	0.41123	0.023
Mof_C 	C 	0.94043	0.26563	0.38812	-0.037
Mof_H 	H 	0.8941	0.2327	0.40393	0.035
Mof_C 	C 	0.93464	0.21544	0.36022	-0.032
Mof_H 	H 	0.8852	0.1491	0.35783	0.032
Mof_C 	C 	0.99957	0.2621	0.33685	-0.08
Mof_H 	H 	0.9973	0.2285	0.31863	0.063
Mof_C 	C 	0.06874	0.35997	0.34071	0.045
Mof_C 	C 	0.20355	0.5039	0.32133	-0.027
Mof_H 	H 	0.2475	0.5391	0.30523	0.025
Mof_C 	C 	0.21378	0.5489	0.35009	0.039
Mof_C 	C 	0.29887	0.64801	0.35482	0.008
Mof_C 	C 	0.37429	0.69613	0.33048	0.02
Mof_H 	H 	0.3827	0.646	0.31953	0.019
Mof_H 	H 	0.4374	0.7425	0.34013	0.014
Mof_C 	C 	0.3467	0.7506	0.30755	-0.407
Mof_H 	H 	0.2828	0.7056	0.29863	0.148
Mof_H 	H 	0.3959	0.7775	0.29133	0.138
Mof_H 	H 	0.3437	0.8039	0.31793	0.145
Mof_C 	C 	0.2412	0.8708	0.41052	-0.34
Mof_H 	H 	0.2243	0.8153	0.42413	0.115
Mof_H 	H 	0.1812	0.8665	0.40253	0.116
Mof_H 	H 	0.2785	0.9318	0.42193	0.119
Mof_C 	C 	0.30277	0.86875	0.38387	-0.036
Mof_H 	H 	0.2598	0.8171	0.36933	0.034
Mof_H 	H 	0.3319	0.932	0.37293	0.044
Mof_C 	C 	0.38197	0.85054	0.39381	0.028
Mof_C 	C 	0.47018	0.92825	0.40942	0.036
Mof_C 	C 	0.48727	0.02338	0.4104	-0.03
Mof_H 	H 	0.4407	0.0375	0.40173	0.04
Mof_C 	C 	0.63569	0.07429	0.4368	0.044
Mof_C 	C 	0.72245	0.14741	0.44855	-0.075
Mof_H 	H 	0.7377	0.2136	0.44803	0.058
Mof_C 	C 	0.78554	0.12234	0.46084	-0.035
Mof_H 	H 	0.8451	0.1718	0.46943	0.029
Mof_C 	C 	0.7652	0.0243	0.46129	-0.026
Mof_H 	H 	0.8102	0.0085	0.47033	0.029
Mof_C 	C 	0.68195	0.95399	0.44892	-0.087
Mof_H 	H 	0.6692	0.8886	0.44903	0.026
Mof_C 	C 	0.6122	0.97483	0.43565	0.053
Mof_N 	N 	0.13353	0.41367	0.31685	-0.062
Mof_N 	N 	0.15191	0.50398	0.37309	-0.187
Mof_N 	N 	0.29965	0.68743	0.38045	-0.137
Mof_N 	N 	0.38258	0.77136	0.39003	-0.143
Mof_N 	N 	0.53199	0.90343	0.4226	-0.187
Mof_N 	N 	0.56688	0.09463	0.42315	-0.061
Mof_O 	O 	0.58301	0.18444	0.42366	-0.212
Mof_O 	O 	0.11963	0.37048	0.29008	-0.231
Mof_C 	C 	0.33235	0.41223	0.13156	0.046
Mof_C 	C 	0.34826	0.3605	0.10774	-0.087
Mof_H 	H 	0.3751	0.3921	0.08877	0.023
Mof_C 	C 	0.3252	0.26563	0.11188	-0.036
Mof_H 	H 	0.3386	0.2327	0.09607	0.035
Mof_C 	C 	0.2808	0.21544	0.13978	-0.033
Mof_H 	H 	0.2639	0.1491	0.14217	0.032
Mof_C 	C 	0.26253	0.2621	0.16315	-0.079
Mof_H 	H 	0.2312	0.2285	0.18137	0.063
Mof_C 	C 	0.29123	0.35997	0.15929	0.045
Mof_C 	C 	0.30035	0.5039	0.17867	-0.027
Mof_H 	H 	0.2916	0.5391	0.19477	0.025
Mof_C 	C 	0.33512	0.5489	0.14991	0.039
Mof_C 	C 	0.34914	0.64801	0.14518	0.008
Mof_C 	C 	0.32184	0.69613	0.16952	0.02
Mof_H 	H 	0.2633	0.646	0.18047	0.019
Mof_H 	H 	0.3051	0.7425	0.15987	0.014
Mof_C 	C 	0.4039	0.7506	0.19245	-0.407
Mof_H 	H 	0.4228	0.7056	0.20137	0.148
Mof_H 	H 	0.3816	0.7775	0.20867	0.138
Mof_H 	H 	0.4602	0.8039	0.18207	0.145
Mof_C 	C 	0.6296	0.8708	0.08948	-0.34
Mof_H 	H 	0.591	0.8153	0.07587	0.115
Mof_H 	H 	0.6853	0.8665	0.09747	0.116
Mof_H 	H 	0.6533	0.9318	0.07807	0.119
Mof_C 	C 	0.56598	0.86875	0.11613	-0.036
Mof_H 	H 	0.5573	0.8171	0.13067	0.034
Mof_H 	H 	0.6001	0.932	0.12707	0.044
Mof_C 	C 	0.46857	0.85054	0.10619	0.028
Mof_C 	C 	0.45807	0.92825	0.09058	0.036
Mof_C 	C 	0.53611	0.02338	0.0896	-0.03
Mof_H 	H 	0.5968	0.0375	0.09827	0.04
Mof_C 	C 	0.4386	0.07429	0.0632	0.044
Mof_C 	C 	0.42496	0.14741	0.05145	-0.075
Mof_H 	H 	0.4759	0.2136	0.05197	0.058
Mof_C 	C 	0.3368	0.12234	0.03916	-0.035
Mof_H 	H 	0.3267	0.1718	0.03057	0.03
Mof_C 	C 	0.2591	0.0243	0.03871	-0.026
Mof_H 	H 	0.1983	0.0085	0.02967	0.029
Mof_C 	C 	0.27204	0.95399	0.05108	-0.087
Mof_H 	H 	0.2194	0.8886	0.05097	0.026
Mof_C 	C 	0.36263	0.97483	0.06435	0.053
Mof_N 	N 	0.28014	0.41367	0.18315	-0.062
Mof_N 	N 	0.35207	0.50398	0.12691	-0.188
Mof_N 	N 	0.38778	0.68743	0.11955	-0.137
Mof_N 	N 	0.38878	0.77136	0.10997	-0.143
Mof_N 	N 	0.37144	0.90343	0.0774	-0.187
Mof_N 	N 	0.52775	0.09463	0.07685	-0.061
Mof_O 	O 	0.60143	0.18444	0.07634	-0.212
Mof_O 	O 	0.25085	0.37048	0.20992	-0.231
Mof_C 	C 	0.07988	0.66765	0.46489	0.046
Mof_C 	C 	0.01224	0.65174	0.44107	-0.087
Mof_H 	H 	0.017	0.6249	0.4221	0.023
Mof_C 	C 	0.94043	0.6748	0.44521	-0.037
Mof_H 	H 	0.8941	0.6614	0.4294	0.035
Mof_C 	C 	0.93464	0.7192	0.47311	-0.032
Mof_H 	H 	0.8852	0.7361	0.4755	0.032
Mof_C 	C 	0.99957	0.73747	0.49648	-0.08
Mof_H 	H 	0.9973	0.7688	0.5147	0.063
Mof_C 	C 	0.06874	0.70877	0.49262	0.045
Mof_C 	C 	0.20355	0.69965	0.512	-0.027
Mof_H 	H 	0.2475	0.7084	0.5281	0.025
Mof_C 	C 	0.21378	0.66488	0.48324	0.039
Mof_C 	C 	0.29887	0.65086	0.47851	0.008
Mof_C 	C 	0.37429	0.67816	0.50285	0.02
Mof_H 	H 	0.3827	0.7367	0.5138	0.019
Mof_H 	H 	0.4374	0.6949	0.4932	0.014
Mof_C 	C 	0.3467	0.5961	0.52578	-0.407
Mof_H 	H 	0.2828	0.5772	0.5347	0.148
Mof_H 	H 	0.3959	0.6184	0.542	0.139
Mof_H 	H 	0.3437	0.5398	0.5154	0.145
Mof_C 	C 	0.2412	0.3704	0.42281	-0.34
Mof_H 	H 	0.2243	0.409	0.4092	0.115
Mof_H 	H 	0.1812	0.3147	0.4308	0.116
Mof_H 	H 	0.2785	0.3467	0.4114	0.12
Mof_C 	C 	0.30277	0.43402	0.44946	-0.036
Mof_H 	H 	0.2598	0.4427	0.464	0.034
Mof_H 	H 	0.3319	0.3999	0.4604	0.044
Mof_C 	C 	0.38197	0.53143	0.43952	0.027
Mof_C 	C 	0.47018	0.54193	0.42391	0.036
Mof_C 	C 	0.48727	0.46389	0.42293	-0.031
Mof_H 	H 	0.4407	0.4032	0.4316	0.04
Mof_C 	C 	0.63569	0.5614	0.39653	0.044
Mof_C 	C 	0.72245	0.57504	0.38478	-0.075
Mof_H 	H 	0.7377	0.5241	0.3853	0.058
Mof_C 	C 	0.78554	0.6632	0.37249	-0.035
Mof_H 	H 	0.8451	0.6733	0.3639	0.03
Mof_C 	C 	0.7652	0.7409	0.37204	-0.026
Mof_H 	H 	0.8102	0.8017	0.363	0.029
Mof_C 	C 	0.68195	0.72796	0.38441	-0.087
Mof_H 	H 	0.6692	0.7806	0.3843	0.026
Mof_C 	C 	0.6122	0.63737	0.39768	0.053
Mof_N 	N 	0.13353	0.71986	0.51648	-0.062
Mof_N 	N 	0.15191	0.64793	0.46024	-0.187
Mof_N 	N 	0.29965	0.61222	0.45288	-0.137
Mof_N 	N 	0.38258	0.61122	0.4433	-0.143
Mof_N 	N 	0.53199	0.62856	0.41073	-0.187
Mof_N 	N 	0.56688	0.47225	0.41018	-0.061
Mof_O 	O 	0.58301	0.39857	0.40967	-0.212
Mof_O 	O 	0.11963	0.74915	0.54325	-0.231
Mof_C 	C 	0.58777	0.92012	0.79822	0.046
Mof_C 	C 	0.6395	0.98776	0.7744	-0.087
Mof_H 	H 	0.6079	0.983	0.75543	0.023
Mof_C 	C 	0.73437	0.05957	0.77854	-0.037
Mof_H 	H 	0.7673	0.1059	0.76273	0.035
Mof_C 	C 	0.78456	0.06536	0.80644	-0.032
Mof_H 	H 	0.8509	0.1148	0.80883	0.032
Mof_C 	C 	0.7379	0.00043	0.82981	-0.08
Mof_H 	H 	0.7715	0.0027	0.84803	0.063
Mof_C 	C 	0.64003	0.93126	0.82595	0.045
Mof_C 	C 	0.4961	0.79645	0.84533	-0.027
Mof_H 	H 	0.4609	0.7525	0.86143	0.025
Mof_C 	C 	0.4511	0.78622	0.81657	0.039
Mof_C 	C 	0.35199	0.70113	0.81184	0.008
Mof_C 	C 	0.30387	0.62571	0.83618	0.02
Mof_H 	H 	0.354	0.6173	0.84713	0.019
Mof_H 	H 	0.2575	0.5626	0.82653	0.014
Mof_C 	C 	0.2494	0.6533	0.85911	-0.407
Mof_H 	H 	0.2944	0.7172	0.86803	0.148
Mof_H 	H 	0.2225	0.6041	0.87533	0.138
Mof_H 	H 	0.1961	0.6563	0.84873	0.145
Mof_C 	C 	0.1292	0.7588	0.75614	-0.34
Mof_H 	H 	0.1847	0.7757	0.74253	0.115
Mof_H 	H 	0.1335	0.8188	0.76413	0.116
Mof_H 	H 	0.0682	0.7215	0.74473	0.119
Mof_C 	C 	0.13125	0.69723	0.78279	-0.036
Mof_H 	H 	0.1829	0.7402	0.79733	0.034
Mof_H 	H 	0.068	0.6681	0.79373	0.044
Mof_C 	C 	0.14946	0.61803	0.77285	0.028
Mof_C 	C 	0.07175	0.52982	0.75724	0.036
Mof_C 	C 	0.97662	0.51273	0.75626	-0.03
Mof_H 	H 	0.9625	0.5593	0.76493	0.04
Mof_C 	C 	0.92571	0.36431	0.72986	0.044
Mof_C 	C 	0.85259	0.27755	0.71811	-0.075
Mof_H 	H 	0.7864	0.2623	0.71863	0.058
Mof_C 	C 	0.87766	0.21446	0.70582	-0.035
Mof_H 	H 	0.8282	0.1549	0.69723	0.029
Mof_C 	C 	0.9757	0.2348	0.70537	-0.026
Mof_H 	H 	0.9915	0.1898	0.69633	0.029
Mof_C 	C 	0.04601	0.31805	0.71774	-0.087
Mof_H 	H 	0.1114	0.3308	0.71763	0.026
Mof_C 	C 	0.02517	0.3878	0.73101	0.053
Mof_N 	N 	0.58633	0.86647	0.84981	-0.062
Mof_N 	N 	0.49602	0.84809	0.79357	-0.187
Mof_N 	N 	0.31257	0.70035	0.78621	-0.137
Mof_N 	N 	0.22864	0.61742	0.77663	-0.143
Mof_N 	N 	0.09657	0.46801	0.74406	-0.187
Mof_N 	N 	0.90537	0.43312	0.74351	-0.061
Mof_O 	O 	0.81556	0.41699	0.743	-0.212
Mof_O 	O 	0.62952	0.88037	0.87658	-0.231
Mof_Ag	Ag	0.41316	0.58684	0.08333	0.591
Mof_Ag	Ag	0.24757	0.75243	0.08333	0.611
Mof_Ag	Ag	0.41316	0.82633	0.75	0.591
Mof_Ag	Ag	0.24757	0.49515	0.75	0.611
Mof_Ag	Ag	0.17367	0.58684	0.41667	0.591
Mof_Ag	Ag	0.50485	0.75243	0.41667	0.611
Mof_Ag	Ag	0.54626	0.77313	0.91667	0.692
Mof_Ag	Ag	0.22687	0.77313	0.58333	0.692
Mof_Ag	Ag	0.22687	0.45374	0.25	0.692
Mof_C 	C 	0.41223	0.33235	0.53511	0.046
Mof_C 	C 	0.3605	0.34826	0.55893	-0.087
Mof_H 	H 	0.3921	0.3751	0.5779	0.023
Mof_C 	C 	0.26563	0.3252	0.55479	-0.036
Mof_H 	H 	0.2327	0.3386	0.5706	0.035
Mof_C 	C 	0.21544	0.2808	0.52689	-0.033
Mof_H 	H 	0.1491	0.2639	0.5245	0.032
Mof_C 	C 	0.2621	0.26253	0.50352	-0.079
Mof_H 	H 	0.2285	0.2312	0.4853	0.063
Mof_C 	C 	0.35997	0.29123	0.50738	0.045
Mof_C 	C 	0.5039	0.30035	0.488	-0.027
Mof_H 	H 	0.5391	0.2916	0.4719	0.025
Mof_C 	C 	0.5489	0.33512	0.51676	0.039
Mof_C 	C 	0.64801	0.34914	0.52149	0.008
Mof_C 	C 	0.69613	0.32184	0.49715	0.02
Mof_H 	H 	0.646	0.2633	0.4862	0.019
Mof_H 	H 	0.7425	0.3051	0.5068	0.014
Mof_C 	C 	0.7506	0.4039	0.47422	-0.407
Mof_H 	H 	0.7056	0.4228	0.4653	0.148
Mof_H 	H 	0.7775	0.3816	0.458	0.138
Mof_H 	H 	0.8039	0.4602	0.4846	0.145
Mof_C 	C 	0.8708	0.6296	0.57719	-0.34
Mof_H 	H 	0.8153	0.591	0.5908	0.115
Mof_H 	H 	0.8665	0.6853	0.5692	0.116
Mof_H 	H 	0.9318	0.6533	0.5886	0.119
Mof_C 	C 	0.86875	0.56598	0.55054	-0.036
Mof_H 	H 	0.8171	0.5573	0.536	0.034
Mof_H 	H 	0.932	0.6001	0.5396	0.044
Mof_C 	C 	0.85054	0.46857	0.56048	0.028
Mof_C 	C 	0.92825	0.45807	0.57609	0.036
Mof_C 	C 	0.02338	0.53611	0.57707	-0.03
Mof_H 	H 	0.0375	0.5968	0.5684	0.04
Mof_C 	C 	0.07429	0.4386	0.60347	0.044
Mof_C 	C 	0.14741	0.42496	0.61522	-0.075
Mof_H 	H 	0.2136	0.4759	0.6147	0.058
Mof_C 	C 	0.12234	0.3368	0.62751	-0.035
Mof_H 	H 	0.1718	0.3267	0.6361	0.03
Mof_C 	C 	0.0243	0.2591	0.62796	-0.026
Mof_H 	H 	0.0085	0.1983	0.637	0.029
Mof_C 	C 	0.95399	0.27204	0.61559	-0.087
Mof_H 	H 	0.8886	0.2194	0.6157	0.026
Mof_C 	C 	0.97483	0.36263	0.60232	0.053
Mof_N 	N 	0.41367	0.28014	0.48352	-0.062
Mof_N 	N 	0.50398	0.35207	0.53976	-0.188
Mof_N 	N 	0.68743	0.38778	0.54712	-0.137
Mof_N 	N 	0.77136	0.38878	0.5567	-0.143
Mof_N 	N 	0.90343	0.37144	0.58927	-0.187
Mof_N 	N 	0.09463	0.52775	0.58982	-0.061
Mof_O 	O 	0.18444	0.60143	0.59033	-0.212
Mof_O 	O 	0.37048	0.25085	0.45675	-0.231
Mof_C 	C 	0.66765	0.07988	0.20178	0.046
Mof_C 	C 	0.65174	0.01224	0.2256	-0.087
Mof_H 	H 	0.6249	0.017	0.24457	0.023
Mof_C 	C 	0.6748	0.94043	0.22146	-0.037
Mof_H 	H 	0.6614	0.8941	0.23727	0.035
Mof_C 	C 	0.7192	0.93464	0.19356	-0.032
Mof_H 	H 	0.7361	0.8852	0.19117	0.032
Mof_C 	C 	0.73747	0.99957	0.17019	-0.08
Mof_H 	H 	0.7688	0.9973	0.15197	0.063
Mof_C 	C 	0.70877	0.06874	0.17405	0.045
Mof_C 	C 	0.69965	0.20355	0.15467	-0.027
Mof_H 	H 	0.7084	0.2475	0.13857	0.025
Mof_C 	C 	0.66488	0.21378	0.18343	0.039
Mof_C 	C 	0.65086	0.29887	0.18816	0.008
Mof_C 	C 	0.67816	0.37429	0.16382	0.02
Mof_H 	H 	0.7367	0.3827	0.15287	0.019
Mof_H 	H 	0.6949	0.4374	0.17347	0.014
Mof_C 	C 	0.5961	0.3467	0.14089	-0.407
Mof_H 	H 	0.5772	0.2828	0.13197	0.148
Mof_H 	H 	0.6184	0.3959	0.12467	0.139
Mof_H 	H 	0.5398	0.3437	0.15127	0.145
Mof_C 	C 	0.3704	0.2412	0.24386	-0.34
Mof_H 	H 	0.409	0.2243	0.25747	0.115
Mof_H 	H 	0.3147	0.1812	0.23587	0.116
Mof_H 	H 	0.3467	0.2785	0.25527	0.12
Mof_C 	C 	0.43402	0.30277	0.21721	-0.036
Mof_H 	H 	0.4427	0.2598	0.20267	0.034
Mof_H 	H 	0.3999	0.3319	0.20627	0.044
Mof_C 	C 	0.53143	0.38197	0.22715	0.027
Mof_C 	C 	0.54193	0.47018	0.24276	0.036
Mof_C 	C 	0.46389	0.48727	0.24374	-0.031
Mof_H 	H 	0.4032	0.4407	0.23507	0.04
Mof_C 	C 	0.5614	0.63569	0.27014	0.044
Mof_C 	C 	0.57504	0.72245	0.28189	-0.075
Mof_H 	H 	0.5241	0.7377	0.28137	0.058
Mof_C 	C 	0.6632	0.78554	0.29418	-0.035
Mof_H 	H 	0.6733	0.8451	0.30277	0.03
Mof_C 	C 	0.7409	0.7652	0.29463	-0.026
Mof_H 	H 	0.8017	0.8102	0.30367	0.029
Mof_C 	C 	0.72796	0.68195	0.28226	-0.087
Mof_H 	H 	0.7806	0.6692	0.28237	0.026
Mof_C 	C 	0.63737	0.6122	0.26899	0.053
Mof_N 	N 	0.71986	0.13353	0.15019	-0.062
Mof_N 	N 	0.64793	0.15191	0.20643	-0.187
Mof_N 	N 	0.61222	0.29965	0.21379	-0.137
Mof_N 	N 	0.61122	0.38258	0.22337	-0.143
Mof_N 	N 	0.62856	0.53199	0.25594	-0.187
Mof_N 	N 	0.47225	0.56688	0.25649	-0.061
Mof_O 	O 	0.39857	0.58301	0.257	-0.212
Mof_O 	O 	0.74915	0.11963	0.12342	-0.231
Mof_C 	C 	0.92012	0.58777	0.86844	0.046
Mof_C 	C 	0.98776	0.6395	0.89226	-0.087
Mof_H 	H 	0.983	0.6079	0.91123	0.023
Mof_C 	C 	0.05957	0.73437	0.88812	-0.037
Mof_H 	H 	0.1059	0.7673	0.90393	0.035
Mof_C 	C 	0.06536	0.78456	0.86022	-0.032
Mof_H 	H 	0.1148	0.8509	0.85783	0.032
Mof_C 	C 	0.00043	0.7379	0.83685	-0.08
Mof_H 	H 	0.0027	0.7715	0.81863	0.063
Mof_C 	C 	0.93126	0.64003	0.84071	0.045
Mof_C 	C 	0.79645	0.4961	0.82133	-0.027
Mof_H 	H 	0.7525	0.4609	0.80523	0.025
Mof_C 	C 	0.78622	0.4511	0.85009	0.039
Mof_C 	C 	0.70113	0.35199	0.85482	0.008
Mof_C 	C 	0.62571	0.30387	0.83048	0.02
Mof_H 	H 	0.6173	0.354	0.81953	0.019
Mof_H 	H 	0.5626	0.2575	0.84013	0.014
Mof_C 	C 	0.6533	0.2494	0.80755	-0.407
Mof_H 	H 	0.7172	0.2944	0.79863	0.148
Mof_H 	H 	0.6041	0.2225	0.79133	0.138
Mof_H 	H 	0.6563	0.1961	0.81793	0.145
Mof_C 	C 	0.7588	0.1292	0.91052	-0.34
Mof_H 	H 	0.7757	0.1847	0.92413	0.115
Mof_H 	H 	0.8188	0.1335	0.90253	0.116
Mof_H 	H 	0.7215	0.0682	0.92193	0.119
Mof_C 	C 	0.69723	0.13125	0.88387	-0.036
Mof_H 	H 	0.7402	0.1829	0.86933	0.034
Mof_H 	H 	0.6681	0.068	0.87293	0.044
Mof_C 	C 	0.61803	0.14946	0.89381	0.028
Mof_C 	C 	0.52982	0.07175	0.90942	0.036
Mof_C 	C 	0.51273	0.97662	0.9104	-0.03
Mof_H 	H 	0.5593	0.9625	0.90173	0.04
Mof_C 	C 	0.36431	0.92571	0.9368	0.044
Mof_C 	C 	0.27755	0.85259	0.94855	-0.075
Mof_H 	H 	0.2623	0.7864	0.94803	0.058
Mof_C 	C 	0.21446	0.87766	0.96084	-0.035
Mof_H 	H 	0.1549	0.8282	0.96943	0.03
Mof_C 	C 	0.2348	0.9757	0.96129	-0.026
Mof_H 	H 	0.1898	0.9915	0.97033	0.029
Mof_C 	C 	0.31805	0.04601	0.94892	-0.087
Mof_H 	H 	0.3308	0.1114	0.94903	0.026
Mof_C 	C 	0.3878	0.02517	0.93565	0.053
Mof_N 	N 	0.86647	0.58633	0.81685	-0.062
Mof_N 	N 	0.84809	0.49602	0.87309	-0.187
Mof_N 	N 	0.70035	0.31257	0.88045	-0.137
Mof_N 	N 	0.61742	0.22864	0.89003	-0.143
Mof_N 	N 	0.46801	0.09657	0.9226	-0.187
Mof_N 	N 	0.43312	0.90537	0.92315	-0.061
Mof_O 	O 	0.41699	0.81556	0.92366	-0.212
Mof_O 	O 	0.88037	0.62952	0.79008	-0.231
Mof_C 	C 	0.66765	0.58777	0.63156	0.046
Mof_C 	C 	0.65174	0.6395	0.60774	-0.087
Mof_H 	H 	0.6249	0.6079	0.58877	0.023
Mof_C 	C 	0.6748	0.73437	0.61188	-0.036
Mof_H 	H 	0.6614	0.7673	0.59607	0.035
Mof_C 	C 	0.7192	0.78456	0.63978	-0.033
Mof_H 	H 	0.7361	0.8509	0.64217	0.032
Mof_C 	C 	0.73747	0.7379	0.66315	-0.079
Mof_H 	H 	0.7688	0.7715	0.68137	0.063
Mof_C 	C 	0.70877	0.64003	0.65929	0.045
Mof_C 	C 	0.69965	0.4961	0.67867	-0.027
Mof_H 	H 	0.7084	0.4609	0.69477	0.025
Mof_C 	C 	0.66488	0.4511	0.64991	0.039
Mof_C 	C 	0.65086	0.35199	0.64518	0.008
Mof_C 	C 	0.67816	0.30387	0.66952	0.02
Mof_H 	H 	0.7367	0.354	0.68047	0.019
Mof_H 	H 	0.6949	0.2575	0.65987	0.014
Mof_C 	C 	0.5961	0.2494	0.69245	-0.407
Mof_H 	H 	0.5772	0.2944	0.70137	0.148
Mof_H 	H 	0.6184	0.2225	0.70867	0.138
Mof_H 	H 	0.5398	0.1961	0.68207	0.145
Mof_C 	C 	0.3704	0.1292	0.58948	-0.34
Mof_H 	H 	0.409	0.1847	0.57587	0.115
Mof_H 	H 	0.3147	0.1335	0.59747	0.116
Mof_H 	H 	0.3467	0.0682	0.57807	0.119
Mof_C 	C 	0.43402	0.13125	0.61613	-0.036
Mof_H 	H 	0.4427	0.1829	0.63067	0.034
Mof_H 	H 	0.3999	0.068	0.62707	0.044
Mof_C 	C 	0.53143	0.14946	0.60619	0.028
Mof_C 	C 	0.54193	0.07175	0.59058	0.036
Mof_C 	C 	0.46389	0.97662	0.5896	-0.03
Mof_H 	H 	0.4032	0.9625	0.59827	0.04
Mof_C 	C 	0.5614	0.92571	0.5632	0.044
Mof_C 	C 	0.57504	0.85259	0.55145	-0.075
Mof_H 	H 	0.5241	0.7864	0.55197	0.058
Mof_C 	C 	0.6632	0.87766	0.53916	-0.035
Mof_H 	H 	0.6733	0.8282	0.53057	0.03
Mof_C 	C 	0.7409	0.9757	0.53871	-0.026
Mof_H 	H 	0.8017	0.9915	0.52967	0.029
Mof_C 	C 	0.72796	0.04601	0.55108	-0.087
Mof_H 	H 	0.7806	0.1114	0.55097	0.026
Mof_C 	C 	0.63737	0.02517	0.56435	0.053
Mof_N 	N 	0.71986	0.58633	0.68315	-0.062
Mof_N 	N 	0.64793	0.49602	0.62691	-0.188
Mof_N 	N 	0.61222	0.31257	0.61955	-0.137
Mof_N 	N 	0.61122	0.22864	0.60997	-0.143
Mof_N 	N 	0.62856	0.09657	0.5774	-0.187
Mof_N 	N 	0.47225	0.90537	0.57685	-0.061
Mof_O 	O 	0.39857	0.81556	0.57634	-0.212
Mof_O 	O 	0.74915	0.62952	0.70992	-0.231
Mof_C 	C 	0.92012	0.33235	0.96489	0.046
Mof_C 	C 	0.98776	0.34826	0.94107	-0.087
Mof_H 	H 	0.983	0.3751	0.9221	0.023
Mof_C 	C 	0.05957	0.3252	0.94521	-0.037
Mof_H 	H 	0.1059	0.3386	0.9294	0.035
Mof_C 	C 	0.06536	0.2808	0.97311	-0.032
Mof_H 	H 	0.1148	0.2639	0.9755	0.032
Mof_C 	C 	0.00043	0.26253	0.99648	-0.08
Mof_H 	H 	0.0027	0.2312	0.0147	0.063
Mof_C 	C 	0.93126	0.29123	0.99262	0.045
Mof_C 	C 	0.79645	0.30035	0.012	-0.027
Mof_H 	H 	0.7525	0.2916	0.0281	0.025
Mof_C 	C 	0.78622	0.33512	0.98324	0.039
Mof_C 	C 	0.70113	0.34914	0.97851	0.008
Mof_C 	C 	0.62571	0.32184	0.00285	0.02
Mof_H 	H 	0.6173	0.2633	0.0138	0.019
Mof_H 	H 	0.5626	0.3051	0.9932	0.014
Mof_C 	C 	0.6533	0.4039	0.02578	-0.407
Mof_H 	H 	0.7172	0.4228	0.0347	0.148
Mof_H 	H 	0.6041	0.3816	0.042	0.139
Mof_H 	H 	0.6563	0.4602	0.0154	0.145
Mof_C 	C 	0.7588	0.6296	0.92281	-0.34
Mof_H 	H 	0.7757	0.591	0.9092	0.115
Mof_H 	H 	0.8188	0.6853	0.9308	0.116
Mof_H 	H 	0.7215	0.6533	0.9114	0.12
Mof_C 	C 	0.69723	0.56598	0.94946	-0.036
Mof_H 	H 	0.7402	0.5573	0.964	0.034
Mof_H 	H 	0.6681	0.6001	0.9604	0.044
Mof_C 	C 	0.61803	0.46857	0.93952	0.027
Mof_C 	C 	0.52982	0.45807	0.92391	0.036
Mof_C 	C 	0.51273	0.53611	0.92293	-0.031
Mof_H 	H 	0.5593	0.5968	0.9316	0.04
Mof_C 	C 	0.36431	0.4386	0.89653	0.044
Mof_C 	C 	0.27755	0.42496	0.88478	-0.075
Mof_H 	H 	0.2623	0.4759	0.8853	0.058
Mof_C 	C 	0.21446	0.3368	0.87249	-0.035
Mof_H 	H 	0.1549	0.3267	0.8639	0.03
Mof_C 	C 	0.2348	0.2591	0.87204	-0.026
Mof_H 	H 	0.1898	0.1983	0.863	0.029
Mof_C 	C 	0.31805	0.27204	0.88441	-0.087
Mof_H 	H 	0.3308	0.2194	0.8843	0.026
Mof_C 	C 	0.3878	0.36263	0.89768	0.053
Mof_N 	N 	0.86647	0.28014	0.01648	-0.062
Mof_N 	N 	0.84809	0.35207	0.96024	-0.187
Mof_N 	N 	0.70035	0.38778	0.95288	-0.137
Mof_N 	N 	0.61742	0.38878	0.9433	-0.143
Mof_N 	N 	0.46801	0.37144	0.91073	-0.187
Mof_N 	N 	0.43312	0.52775	0.91018	-0.061
Mof_O 	O 	0.41699	0.60143	0.90967	-0.212
Mof_O 	O 	0.88037	0.25085	0.04325	-0.231
Mof_C 	C 	0.41223	0.07988	0.29822	0.046
Mof_C 	C 	0.3605	0.01224	0.2744	-0.087
Mof_H 	H 	0.3921	0.017	0.25543	0.023
Mof_C 	C 	0.26563	0.94043	0.27854	-0.037
Mof_H 	H 	0.2327	0.8941	0.26273	0.035
Mof_C 	C 	0.21544	0.93464	0.30644	-0.032
Mof_H 	H 	0.1491	0.8852	0.30883	0.032
Mof_C 	C 	0.2621	0.99957	0.32981	-0.08
Mof_H 	H 	0.2285	0.9973	0.34803	0.063
Mof_C 	C 	0.35997	0.06874	0.32595	0.045
Mof_C 	C 	0.5039	0.20355	0.34533	-0.027
Mof_H 	H 	0.5391	0.2475	0.36143	0.025
Mof_C 	C 	0.5489	0.21378	0.31657	0.039
Mof_C 	C 	0.64801	0.29887	0.31184	0.008
Mof_C 	C 	0.69613	0.37429	0.33618	0.02
Mof_H 	H 	0.646	0.3827	0.34713	0.019
Mof_H 	H 	0.7425	0.4374	0.32653	0.014
Mof_C 	C 	0.7506	0.3467	0.35911	-0.407
Mof_H 	H 	0.7056	0.2828	0.36803	0.148
Mof_H 	H 	0.7775	0.3959	0.37533	0.138
Mof_H 	H 	0.8039	0.3437	0.34873	0.145
Mof_C 	C 	0.8708	0.2412	0.25614	-0.34
Mof_H 	H 	0.8153	0.2243	0.24253	0.115
Mof_H 	H 	0.8665	0.1812	0.26413	0.116
Mof_H 	H 	0.9318	0.2785	0.24473	0.119
Mof_C 	C 	0.86875	0.30277	0.28279	-0.036
Mof_H 	H 	0.8171	0.2598	0.29733	0.034
Mof_H 	H 	0.932	0.3319	0.29373	0.044
Mof_C 	C 	0.85054	0.38197	0.27285	0.028
Mof_C 	C 	0.92825	0.47018	0.25724	0.036
Mof_C 	C 	0.02338	0.48727	0.25626	-0.03
Mof_H 	H 	0.0375	0.4407	0.26493	0.04
Mof_C 	C 	0.07429	0.63569	0.22986	0.044
Mof_C 	C 	0.14741	0.72245	0.21811	-0.075
Mof_H 	H 	0.2136	0.7377	0.21863	0.058
Mof_C 	C 	0.12234	0.78554	0.20582	-0.035
Mof_H 	H 	0.1718	0.8451	0.19723	0.029
Mof_C 	C 	0.0243	0.7652	0.20537	-0.026
Mof_H 	H 	0.0085	0.8102	0.19633	0.029
Mof_C 	C 	0.95399	0.68195	0.21774	-0.087
Mof_H 	H 	0.8886	0.6692	0.21763	0.026
Mof_C 	C 	0.97483	0.6122	0.23101	0.053
Mof_N 	N 	0.41367	0.13353	0.34981	-0.062
Mof_N 	N 	0.50398	0.15191	0.29357	-0.187
Mof_N 	N 	0.68743	0.29965	0.28621	-0.137
Mof_N 	N 	0.77136	0.38258	0.27663	-0.143
Mof_N 	N 	0.90343	0.53199	0.24406	-0.187
Mof_N 	N 	0.09463	0.56688	0.24351	-0.061
Mof_O 	O 	0.18444	0.58301	0.243	-0.212
Mof_O 	O 	0.37048	0.11963	0.37658	-0.231
Mof_Ag	Ag	0.58684	0.41316	0.58333	0.591
Mof_Ag	Ag	0.75243	0.24757	0.58333	0.611
Mof_Ag	Ag	0.58684	0.17367	0.25	0.591
Mof_Ag	Ag	0.75243	0.50485	0.25	0.611
Mof_Ag	Ag	0.82633	0.41316	0.91667	0.591
Mof_Ag	Ag	0.49515	0.24757	0.91667	0.611
Mof_Ag	Ag	0.45374	0.22687	0.41667	0.692
Mof_Ag	Ag	0.77313	0.22687	0.08333	0.692
Mof_Ag	Ag	0.77313	0.54626	0.75	0.692
_end
