data_functionalizedCrystal
_audit_creation_method	'EQeq! by Chris Wilmer'
_symmetry_space_group_name_H-M	'P1'
_symmetry_Int_Tables_number	1
_symmetry_cell_setting	triclinic
loop_
_symmetry_equiv_pos_as_xyz
  x,y,z
_cell_length_a	20.447
_cell_length_b	20.447
_cell_length_c	20.447
_cell_angle_alpha	90
_cell_angle_beta	90
_cell_angle_gamma	90
loop_
_atom_site_label
_atom_site_type_symbol
_atom_site_fract_x
_atom_site_fract_y
_atom_site_fract_z
_atom_site_charge
Mof_O 	O 	0.69486	0.33408	0.4191	-0.541
Mof_O 	O 	0.78645	0.27963	0.4375	-0.419
Mof_C 	C 	0.7353	0.2881	0.4055	0.309
Mof_C 	C 	0.719	0.2445	0.3488	-0.052
Mof_C 	C 	0.7585	0.1902	0.335	0
Mof_H 	H 	0.7938	0.1803	0.3618	0.071
Mof_O 	O 	0.19486	0.83408	0.9191	-0.494
Mof_O 	O 	0.28645	0.77963	0.9375	-0.38
Mof_C 	C 	0.2353	0.7881	0.9055	0.304
Mof_C 	C 	0.219	0.7445	0.8488	-0.039
Mof_C 	C 	0.2585	0.6902	0.835	-0.004
Mof_H 	H 	0.2938	0.6803	0.8618	0.08
Mof_O 	O 	0.80514	0.66592	0.9191	-0.484
Mof_O 	O 	0.71355	0.72037	0.9375	-0.375
Mof_C 	C 	0.7647	0.7119	0.9055	0.303
Mof_C 	C 	0.781	0.7555	0.8488	-0.025
Mof_C 	C 	0.7415	0.8098	0.835	-0.012
Mof_H 	H 	0.7062	0.8197	0.8618	0.088
Mof_O 	O 	0.30514	0.16592	0.4191	-0.545
Mof_O 	O 	0.21355	0.22037	0.4375	-0.428
Mof_C 	C 	0.2647	0.2119	0.4055	0.312
Mof_C 	C 	0.281	0.2555	0.3488	-0.057
Mof_C 	C 	0.2415	0.3098	0.335	0.003
Mof_H 	H 	0.2062	0.3197	0.3618	0.066
Mof_O 	O 	0.30514	0.83408	0.0809	-0.526
Mof_O 	O 	0.21355	0.77963	0.0625	-0.426
Mof_C 	C 	0.2647	0.7881	0.0945	0.311
Mof_C 	C 	0.281	0.7445	0.1512	-0.057
Mof_C 	C 	0.2415	0.6902	0.165	0.002
Mof_H 	H 	0.2062	0.6803	0.1382	0.063
Mof_O 	O 	0.80514	0.33408	0.5809	-0.535
Mof_O 	O 	0.71355	0.27963	0.5625	-0.421
Mof_C 	C 	0.7647	0.2881	0.5945	0.31
Mof_C 	C 	0.781	0.2445	0.6512	-0.044
Mof_C 	C 	0.7415	0.1902	0.665	-0.002
Mof_H 	H 	0.7062	0.1803	0.6382	0.07
Mof_O 	O 	0.19486	0.16592	0.5809	-0.547
Mof_O 	O 	0.28645	0.22037	0.5625	-0.423
Mof_C 	C 	0.2353	0.2119	0.5945	0.311
Mof_C 	C 	0.219	0.2555	0.6512	-0.055
Mof_C 	C 	0.2585	0.3098	0.665	0.001
Mof_H 	H 	0.2938	0.3197	0.6382	0.071
Mof_O 	O 	0.69486	0.66592	0.0809	-0.528
Mof_O 	O 	0.78645	0.72037	0.0625	-0.414
Mof_C 	C 	0.7353	0.7119	0.0945	0.309
Mof_C 	C 	0.719	0.7555	0.1512	-0.048
Mof_C 	C 	0.7585	0.8098	0.165	-0.004
Mof_H 	H 	0.7938	0.8197	0.1382	0.076
Mof_O 	O 	0.4191	0.69486	0.33408	-0.54
Mof_O 	O 	0.4375	0.78645	0.27963	-0.418
Mof_C 	C 	0.4055	0.7353	0.2881	0.31
Mof_C 	C 	0.3488	0.719	0.2445	-0.051
Mof_C 	C 	0.335	0.7585	0.1902	0.001
Mof_H 	H 	0.3618	0.7938	0.1803	0.072
Mof_O 	O 	0.9191	0.19486	0.83408	-0.493
Mof_O 	O 	0.9375	0.28645	0.77963	-0.379
Mof_C 	C 	0.9055	0.2353	0.7881	0.305
Mof_C 	C 	0.8488	0.219	0.7445	-0.039
Mof_C 	C 	0.835	0.2585	0.6902	-0.004
Mof_H 	H 	0.8618	0.2938	0.6803	0.08
Mof_O 	O 	0.9191	0.80514	0.66592	-0.484
Mof_O 	O 	0.9375	0.71355	0.72037	-0.375
Mof_C 	C 	0.9055	0.7647	0.7119	0.303
Mof_C 	C 	0.8488	0.781	0.7555	-0.025
Mof_C 	C 	0.835	0.7415	0.8098	-0.012
Mof_H 	H 	0.8618	0.7062	0.8197	0.088
Mof_O 	O 	0.4191	0.30514	0.16592	-0.545
Mof_O 	O 	0.4375	0.21355	0.22037	-0.428
Mof_C 	C 	0.4055	0.2647	0.2119	0.312
Mof_C 	C 	0.3488	0.281	0.2555	-0.057
Mof_C 	C 	0.335	0.2415	0.3098	0.003
Mof_H 	H 	0.3618	0.2062	0.3197	0.066
Mof_O 	O 	0.0809	0.30514	0.83408	-0.526
Mof_O 	O 	0.0625	0.21355	0.77963	-0.426
Mof_C 	C 	0.0945	0.2647	0.7881	0.311
Mof_C 	C 	0.1512	0.281	0.7445	-0.057
Mof_C 	C 	0.165	0.2415	0.6902	0.002
Mof_H 	H 	0.1382	0.2062	0.6803	0.063
Mof_O 	O 	0.5809	0.80514	0.33408	-0.535
Mof_O 	O 	0.5625	0.71355	0.27963	-0.421
Mof_C 	C 	0.5945	0.7647	0.2881	0.31
Mof_C 	C 	0.6512	0.781	0.2445	-0.044
Mof_C 	C 	0.665	0.7415	0.1902	-0.002
Mof_H 	H 	0.6382	0.7062	0.1803	0.07
Mof_O 	O 	0.5809	0.19486	0.16592	-0.547
Mof_O 	O 	0.5625	0.28645	0.22037	-0.423
Mof_C 	C 	0.5945	0.2353	0.2119	0.311
Mof_C 	C 	0.6512	0.219	0.2555	-0.055
Mof_C 	C 	0.665	0.2585	0.3098	0.001
Mof_H 	H 	0.6382	0.2938	0.3197	0.071
Mof_O 	O 	0.0809	0.69486	0.66592	-0.528
Mof_O 	O 	0.0625	0.78645	0.72037	-0.414
Mof_C 	C 	0.0945	0.7353	0.7119	0.309
Mof_C 	C 	0.1512	0.719	0.7555	-0.048
Mof_C 	C 	0.165	0.7585	0.8098	-0.004
Mof_H 	H 	0.1382	0.7938	0.8197	0.076
Mof_O 	O 	0.33408	0.4191	0.69486	-0.54
Mof_O 	O 	0.27963	0.4375	0.78645	-0.418
Mof_C 	C 	0.2881	0.4055	0.7353	0.31
Mof_C 	C 	0.2445	0.3488	0.719	-0.051
Mof_C 	C 	0.1902	0.335	0.7585	0.001
Mof_H 	H 	0.1803	0.3618	0.7938	0.072
Mof_O 	O 	0.83408	0.9191	0.19486	-0.493
Mof_O 	O 	0.77963	0.9375	0.28645	-0.379
Mof_C 	C 	0.7881	0.9055	0.2353	0.305
Mof_C 	C 	0.7445	0.8488	0.219	-0.039
Mof_C 	C 	0.6902	0.835	0.2585	-0.004
Mof_H 	H 	0.6803	0.8618	0.2938	0.08
Mof_O 	O 	0.66592	0.9191	0.80514	-0.484
Mof_O 	O 	0.72037	0.9375	0.71355	-0.375
Mof_C 	C 	0.7119	0.9055	0.7647	0.303
Mof_C 	C 	0.7555	0.8488	0.781	-0.025
Mof_C 	C 	0.8098	0.835	0.7415	-0.012
Mof_H 	H 	0.8197	0.8618	0.7062	0.088
Mof_O 	O 	0.16592	0.4191	0.30514	-0.545
Mof_O 	O 	0.22037	0.4375	0.21355	-0.428
Mof_C 	C 	0.2119	0.4055	0.2647	0.312
Mof_C 	C 	0.2555	0.3488	0.281	-0.057
Mof_C 	C 	0.3098	0.335	0.2415	0.003
Mof_H 	H 	0.3197	0.3618	0.2062	0.066
Mof_O 	O 	0.83408	0.0809	0.30514	-0.526
Mof_O 	O 	0.77963	0.0625	0.21355	-0.426
Mof_C 	C 	0.7881	0.0945	0.2647	0.311
Mof_C 	C 	0.7445	0.1512	0.281	-0.057
Mof_C 	C 	0.6902	0.165	0.2415	0.002
Mof_H 	H 	0.6803	0.1382	0.2062	0.063
Mof_O 	O 	0.33408	0.5809	0.80514	-0.535
Mof_O 	O 	0.27963	0.5625	0.71355	-0.421
Mof_C 	C 	0.2881	0.5945	0.7647	0.31
Mof_C 	C 	0.2445	0.6512	0.781	-0.044
Mof_C 	C 	0.1902	0.665	0.7415	-0.002
Mof_H 	H 	0.1803	0.6382	0.7062	0.07
Mof_O 	O 	0.16592	0.5809	0.19486	-0.547
Mof_O 	O 	0.22037	0.5625	0.28645	-0.423
Mof_C 	C 	0.2119	0.5945	0.2353	0.311
Mof_C 	C 	0.2555	0.6512	0.219	-0.055
Mof_C 	C 	0.3098	0.665	0.2585	0.001
Mof_H 	H 	0.3197	0.6382	0.2938	0.071
Mof_O 	O 	0.66592	0.0809	0.69486	-0.528
Mof_O 	O 	0.72037	0.0625	0.78645	-0.414
Mof_C 	C 	0.7119	0.0945	0.7353	0.309
Mof_C 	C 	0.7555	0.1512	0.719	-0.048
Mof_C 	C 	0.8098	0.165	0.7585	-0.004
Mof_H 	H 	0.8197	0.1382	0.7938	0.076
Mof_O 	O 	0.58408	0.94486	0.6691	-0.503
Mof_O 	O 	0.52963	0.03645	0.6875	-0.45
Mof_C 	C 	0.5381	0.9853	0.6555	0.332
Mof_C 	C 	0.4945	0.969	0.5988	0.106
Mof_C 	C 	0.4402	0.0085	0.585	-0.268
Mof_H 	H 	0.4303	0.0438	0.6118	0.151
Mof_O 	O 	0.08408	0.44486	0.1691	-0.534
Mof_O 	O 	0.02963	0.53645	0.1875	-0.423
Mof_C 	C 	0.0381	0.4853	0.1555	0.234
Mof_C 	C 	0.9945	0.469	0.0988	0.068
Mof_C 	C 	0.9402	0.5085	0.085	-0.016
Mof_H 	H 	0.9303	0.5438	0.1118	0.089
Mof_O 	O 	0.91592	0.05514	0.1691	-0.542
Mof_O 	O 	0.97037	0.96355	0.1875	-0.365
Mof_C 	C 	0.9619	0.0147	0.1555	0.402
Mof_C 	C 	0.0055	0.031	0.0988	-0.45
Mof_C 	C 	0.0598	0.9915	0.085	0.421
Mof_H 	H 	0.0697	0.9562	0.1118	-0.073
Mof_O 	O 	0.41592	0.55514	0.6691	-0.539
Mof_O 	O 	0.47037	0.46355	0.6875	-0.419
Mof_C 	C 	0.4619	0.5147	0.6555	0.31
Mof_C 	C 	0.5055	0.531	0.5988	-0.047
Mof_C 	C 	0.5598	0.4915	0.585	-0.002
Mof_H 	H 	0.5697	0.4562	0.6118	0.073
Mof_O 	O 	0.08408	0.55514	0.3309	-0.52
Mof_O 	O 	0.02963	0.46355	0.3125	-0.413
Mof_C 	C 	0.0381	0.5147	0.3445	0.196
Mof_C 	C 	0.9945	0.531	0.4012	0.179
Mof_C 	C 	0.9402	0.4915	0.415	-0.13
Mof_H 	H 	0.9303	0.4562	0.3882	0.128
Mof_O 	O 	0.58408	0.05514	0.8309	-0.506
Mof_O 	O 	0.52963	0.96355	0.8125	-0.341
Mof_C 	C 	0.5381	0.0147	0.8445	0.257
Mof_C 	C 	0.4945	0.031	0.9012	-0.119
Mof_C 	C 	0.4402	0.9915	0.915	0.184
Mof_H 	H 	0.4303	0.9562	0.8882	0.026
Mof_O 	O 	0.41592	0.44486	0.8309	-0.528
Mof_O 	O 	0.47037	0.53645	0.8125	-0.408
Mof_C 	C 	0.4619	0.4853	0.8445	0.28
Mof_C 	C 	0.5055	0.469	0.9012	0.045
Mof_C 	C 	0.5598	0.5085	0.915	-0.102
Mof_H 	H 	0.5697	0.5438	0.8882	0.11
Mof_O 	O 	0.91592	0.94486	0.3309	-0.524
Mof_O 	O 	0.97037	0.03645	0.3125	-0.462
Mof_C 	C 	0.9619	0.9853	0.3445	0.456
Mof_C 	C 	0.0055	0.969	0.4012	-0.143
Mof_C 	C 	0.0598	0.0085	0.415	-0.114
Mof_H 	H 	0.0697	0.0438	0.3882	0.086
Mof_O 	O 	0.94486	0.6691	0.58408	-0.503
Mof_O 	O 	0.03645	0.6875	0.52963	-0.45
Mof_C 	C 	0.9853	0.6555	0.5381	0.332
Mof_C 	C 	0.969	0.5988	0.4945	0.106
Mof_C 	C 	0.0085	0.585	0.4402	-0.268
Mof_H 	H 	0.0438	0.6118	0.4303	0.151
Mof_O 	O 	0.44486	0.1691	0.08408	-0.534
Mof_O 	O 	0.53645	0.1875	0.02963	-0.423
Mof_C 	C 	0.4853	0.1555	0.0381	0.234
Mof_C 	C 	0.469	0.0988	0.9945	0.068
Mof_C 	C 	0.5085	0.085	0.9402	-0.016
Mof_H 	H 	0.5438	0.1118	0.9303	0.089
Mof_O 	O 	0.05514	0.1691	0.91592	-0.542
Mof_O 	O 	0.96355	0.1875	0.97037	-0.365
Mof_C 	C 	0.0147	0.1555	0.9619	0.402
Mof_C 	C 	0.031	0.0988	0.0055	-0.45
Mof_C 	C 	0.9915	0.085	0.0598	0.421
Mof_H 	H 	0.9562	0.1118	0.0697	-0.073
Mof_O 	O 	0.55514	0.6691	0.41592	-0.539
Mof_O 	O 	0.46355	0.6875	0.47037	-0.419
Mof_C 	C 	0.5147	0.6555	0.4619	0.31
Mof_C 	C 	0.531	0.5988	0.5055	-0.047
Mof_C 	C 	0.4915	0.585	0.5598	-0.002
Mof_H 	H 	0.4562	0.6118	0.5697	0.073
Mof_O 	O 	0.55514	0.3309	0.08408	-0.52
Mof_O 	O 	0.46355	0.3125	0.02963	-0.413
Mof_C 	C 	0.5147	0.3445	0.0381	0.196
Mof_C 	C 	0.531	0.4012	0.9945	0.179
Mof_C 	C 	0.4915	0.415	0.9402	-0.13
Mof_H 	H 	0.4562	0.3882	0.9303	0.128
Mof_O 	O 	0.05514	0.8309	0.58408	-0.506
Mof_O 	O 	0.96355	0.8125	0.52963	-0.341
Mof_C 	C 	0.0147	0.8445	0.5381	0.257
Mof_C 	C 	0.031	0.9012	0.4945	-0.119
Mof_C 	C 	0.9915	0.915	0.4402	0.184
Mof_H 	H 	0.9562	0.8882	0.4303	0.026
Mof_O 	O 	0.44486	0.8309	0.41592	-0.528
Mof_O 	O 	0.53645	0.8125	0.47037	-0.408
Mof_C 	C 	0.4853	0.8445	0.4619	0.28
Mof_C 	C 	0.469	0.9012	0.5055	0.045
Mof_C 	C 	0.5085	0.915	0.5598	-0.102
Mof_H 	H 	0.5438	0.8882	0.5697	0.11
Mof_O 	O 	0.94486	0.3309	0.91592	-0.524
Mof_O 	O 	0.03645	0.3125	0.97037	-0.462
Mof_C 	C 	0.9853	0.3445	0.9619	0.456
Mof_C 	C 	0.969	0.4012	0.0055	-0.143
Mof_C 	C 	0.0085	0.415	0.0598	-0.114
Mof_H 	H 	0.0438	0.3882	0.0697	0.086
Mof_O 	O 	0.6691	0.58408	0.94486	-0.503
Mof_O 	O 	0.6875	0.52963	0.03645	-0.45
Mof_C 	C 	0.6555	0.5381	0.9853	0.332
Mof_C 	C 	0.5988	0.4945	0.969	0.106
Mof_C 	C 	0.585	0.4402	0.0085	-0.268
Mof_H 	H 	0.6118	0.4303	0.0438	0.151
Mof_O 	O 	0.1691	0.08408	0.44486	-0.534
Mof_O 	O 	0.1875	0.02963	0.53645	-0.423
Mof_C 	C 	0.1555	0.0381	0.4853	0.234
Mof_C 	C 	0.0988	0.9945	0.469	0.068
Mof_C 	C 	0.085	0.9402	0.5085	-0.016
Mof_H 	H 	0.1118	0.9303	0.5438	0.089
Mof_O 	O 	0.1691	0.91592	0.05514	-0.542
Mof_O 	O 	0.1875	0.97037	0.96355	-0.365
Mof_C 	C 	0.1555	0.9619	0.0147	0.402
Mof_C 	C 	0.0988	0.0055	0.031	-0.45
Mof_C 	C 	0.085	0.0598	0.9915	0.421
Mof_H 	H 	0.1118	0.0697	0.9562	-0.073
Mof_O 	O 	0.6691	0.41592	0.55514	-0.539
Mof_O 	O 	0.6875	0.47037	0.46355	-0.419
Mof_C 	C 	0.6555	0.4619	0.5147	0.31
Mof_C 	C 	0.5988	0.5055	0.531	-0.047
Mof_C 	C 	0.585	0.5598	0.4915	-0.002
Mof_H 	H 	0.6118	0.5697	0.4562	0.073
Mof_O 	O 	0.3309	0.08408	0.55514	-0.52
Mof_O 	O 	0.3125	0.02963	0.46355	-0.413
Mof_C 	C 	0.3445	0.0381	0.5147	0.196
Mof_C 	C 	0.4012	0.9945	0.531	0.179
Mof_C 	C 	0.415	0.9402	0.4915	-0.13
Mof_H 	H 	0.3882	0.9303	0.4562	0.128
Mof_O 	O 	0.8309	0.58408	0.05514	-0.506
Mof_O 	O 	0.8125	0.52963	0.96355	-0.341
Mof_C 	C 	0.8445	0.5381	0.0147	0.257
Mof_C 	C 	0.9012	0.4945	0.031	-0.119
Mof_C 	C 	0.915	0.4402	0.9915	0.184
Mof_H 	H 	0.8882	0.4303	0.9562	0.026
Mof_O 	O 	0.8309	0.41592	0.44486	-0.528
Mof_O 	O 	0.8125	0.47037	0.53645	-0.408
Mof_C 	C 	0.8445	0.4619	0.4853	0.28
Mof_C 	C 	0.9012	0.5055	0.469	0.045
Mof_C 	C 	0.915	0.5598	0.5085	-0.102
Mof_H 	H 	0.8882	0.5697	0.5438	0.11
Mof_O 	O 	0.3309	0.91592	0.94486	-0.524
Mof_O 	O 	0.3125	0.97037	0.03645	-0.462
Mof_C 	C 	0.3445	0.9619	0.9853	0.456
Mof_C 	C 	0.4012	0.0055	0.969	-0.143
Mof_C 	C 	0.415	0.0598	0.0085	-0.114
Mof_H 	H 	0.3882	0.0697	0.0438	0.086
Mof_In	In	0.75	0.375	0.5	2.503
Mof_In	In	0.75	0.625	-0	2.313
Mof_In	In	0.25	0.875	-0	2.322
Mof_In	In	0.25	0.125	0.5	2.489
Mof_In	In	0.5	0.75	0.375	2.503
Mof_In	In	2.34337e-33	0.75	0.625	2.313
Mof_In	In	-8.53123e-33	0.25	0.875	2.322
Mof_In	In	0.5	0.25	0.125	2.489
Mof_In	In	0.375	0.5	0.75	2.503
Mof_In	In	0.625	5.90598e-33	0.75	2.313
Mof_In	In	0.875	0	0.25	2.322
Mof_In	In	0.125	0.5	0.25	2.489
_end
