data_functionalizedCrystal
_audit_creation_method	'EQeq! by Chris Wilmer'
_symmetry_space_group_name_H-M	'P1'
_symmetry_Int_Tables_number	1
_symmetry_cell_setting	triclinic
loop_
_symmetry_equiv_pos_as_xyz
  x,y,z
_cell_length_a	11.2148
_cell_length_b	17.3605
_cell_length_c	26.9709
_cell_angle_alpha	84.067
_cell_angle_beta	85.012
_cell_angle_gamma	71.92
loop_
_atom_site_label
_atom_site_type_symbol
_atom_site_fract_x
_atom_site_fract_y
_atom_site_fract_z
_atom_site_charge
Mof_Sm	Sm	0.75334	0.94411	0.59488	2.243
Mof_O 	O 	0.8137	0.8639	0.6709	-0.547
Mof_O 	O 	0.6546	0.0335	0.6557	-0.589
Mof_O 	O 	0.8855	0.9093	0.5196	-0.593
Mof_O 	O 	0.7519	0.0845	0.5477	-0.703
Mof_O 	O 	0.9237	0.9903	0.6169	-0.809
Mof_O 	O 	0.5761	0.9844	0.5516	-0.67
Mof_C 	C 	0.9305	0.8184	0.6768	0.429
Mof_C 	C 	0.5516	0.0503	0.6819	0.559
Mof_C 	C 	0.9713	0.9322	0.5006	0.399
Mof_Sm	Sm	0.94116	0.1114	0.56859	2.385
Mof_C 	C 	0.6543	0.1305	0.5269	0.547
Mof_Sm	Sm	0.13538	0.89697	0.60798	2.361
Mof_C 	C 	0.9588	0.7789	0.7281	-0.198
Mof_O 	O 	0.0128	0.8134	0.6429	-0.565
Mof_C 	C 	0.5574	0.0491	0.7382	-0.196
Mof_O 	O 	0.4467	0.0677	0.6647	-0.686
Mof_C 	C 	0.0056	0.9217	0.4446	-0.077
Mof_O 	O 	0.0326	0.9707	0.5214	-0.536
Mof_O 	O 	0.0563	0.1423	0.4941	-0.549
Mof_O 	O 	0.8148	0.2337	0.5261	-0.586
Mof_O 	O 	0.1507	0.031	0.5829	-0.833
Mof_O 	O 	0.0507	0.1896	0.6071	-0.782
Mof_O 	O 	0.8277	0.1588	0.6451	-0.623
Mof_C 	C 	0.6538	0.1347	0.4706	-0.193
Mof_O 	O 	0.5592	0.1728	0.5497	-0.588
Mof_O 	O 	0.2955	0.7928	0.6557	-0.467
Mof_O 	O 	0.3375	0.9086	0.647	-0.515
Mof_O 	O 	0.0844	0.9381	0.6953	-0.522
Mof_O 	O 	0.164	0.7908	0.5496	-0.449
Mof_O 	O 	0.3069	0.8544	0.542	-0.444
Mof_C 	C 	0.8619	0.7822	0.7662	0.07
Mof_C 	C 	0.0845	0.7398	0.7378	0.096
Mof_C 	C 	0.4493	0.0828	0.7649	0.059
Mof_C 	C 	0.6724	0.0185	0.7614	0.069
Mof_Sm	Sm	0.25807	0.0992	0.62783	2.53
Mof_C 	C 	0.0998	0.9477	0.4198	0.04
Mof_C 	C 	0.9384	0.8855	0.4189	0.005
Mof_C 	C 	0.0997	0.199	0.4754	0.514
Mof_C 	C 	0.8355	0.3005	0.5126	0.473
Mof_Sm	Sm	0.07281	0.31937	0.57509	2.314
Mof_C 	C 	0.5472	0.1735	0.4464	0.071
Mof_C 	C 	0.7667	0.0963	0.4436	0.031
Mof_Sm	Sm	0.45207	0.27779	0.60158	2.141
Mof_C 	C 	0.3385	0.844	0.6707	0.345
Mof_C 	C 	0.1146	0.9886	0.7162	0.506
Mof_C 	C 	0.2582	0.8055	0.5236	0.317
Mof_C 	C 	0.8945	0.7505	0.8142	-0.055
Mof_C 	C 	0.1141	0.7091	0.7858	-0.046
Mof_C 	C 	0.4521	0.0863	0.8165	-0.03
Mof_C 	C 	0.6735	0.0208	0.8131	-0.031
Mof_C 	C 	0.1264	0.9393	0.3678	-0.025
Mof_C 	C 	0.958	0.8797	0.3676	-0.053
Mof_C 	C 	0.1133	0.2074	0.4201	-0.182
Mof_O 	O 	0.1324	0.2449	0.5005	-0.554
Mof_C 	C 	0.815	0.3368	0.4604	-0.178
Mof_O 	O 	0.8813	0.3381	0.5406	-0.62
Mof_O 	O 	0.1485	0.0479	0.6953	-0.596
Mof_O 	O 	0.2071	0.2003	0.6869	-0.596
Mof_O 	O 	0.373	0.0549	0.5503	-0.596
Mof_O 	O 	0.2896	0.2243	0.5839	-0.788
Mof_O 	O 	0.9249	0.341	0.6496	-0.491
Mof_O 	O 	0.0887	0.3808	0.6536	-0.499
Mof_O 	O 	0.1859	0.392	0.5216	-0.63
Mof_C 	C 	0.5461	0.1736	0.3953	-0.032
Mof_C 	C 	0.7674	0.0989	0.3921	-0.034
Mof_C 	C 	0.3957	0.826	0.7219	-0.107
Mof_C 	C 	0.1066	0.9804	0.7735	-0.165
Mof_C 	C 	0.304	0.7734	0.4762	-0.107
Mof_C 	C 	0.0194	0.715	0.8243	0.047
Mof_C 	C 	0.5656	0.0554	0.8404	0.022
Mof_C 	C 	0.0552	0.9101	0.3414	0.045
Mof_C 	C 	0.1711	0.2647	0.3962	0.076
Mof_C 	C 	0.0596	0.1671	0.3911	0.085
Mof_C 	C 	0.7673	0.2994	0.4273	0.047
Mof_C 	C 	0.856	0.4048	0.4426	0.019
Mof_C 	C 	0.2606	0.2422	0.7052	0.526
Mof_C 	C 	0.4744	0.0148	0.5303	0.589
Mof_C 	C 	0.9864	0.3746	0.6714	0.334
Mof_C 	C 	0.2933	0.3802	0.5016	0.533
Mof_C 	C 	0.6576	0.134	0.367	0.018
Mof_C 	C 	0.4234	0.8849	0.745	0.009
Mof_C 	C 	0.4138	0.746	0.7468	0.031
Mof_C 	C 	0.1566	0.029	0.7994	0.065
Mof_C 	C 	0.056	0.9241	0.7998	0.074
Mof_C 	C 	0.2404	0.7316	0.4524	0.03
Mof_C 	C 	0.4088	0.79	0.4502	0.033
Mof_C 	C 	0.0562	0.6825	0.8741	0.058
Mof_C 	C 	0.5658	0.0608	0.8954	0.004
Mof_C 	C 	0.0692	0.9084	0.2862	-0
Mof_C 	C 	0.18	0.2759	0.3459	-0.048
Mof_C 	C 	0.0632	0.1807	0.3399	-0.03
Mof_C 	C 	0.7582	0.3304	0.3783	-0.027
Mof_C 	C 	0.843	0.433	0.3929	-0.033
Mof_C 	C 	0.227	0.2628	0.7573	-0.189
Mof_O 	O 	0.3503	0.2656	0.6805	-0.599
Mof_C 	C 	0.4749	0.9977	0.4758	-0.203
Mof_O 	O 	0.6287	0.2306	0.6475	-0.673
Mof_O 	O 	0.3945	0.3418	0.5196	-0.595
Mof_C 	C 	0.939	0.405	0.722	-0.164
Mof_C 	C 	0.2966	0.4153	0.4475	-0.172
Mof_C 	C 	0.6623	0.134	0.3129	0.006
Mof_C 	C 	0.4582	0.8727	0.7927	-0.011
Mof_C 	C 	0.441	0.7371	0.7963	-0.021
Mof_C 	C 	0.1518	0.0198	0.85	-0.018
Mof_C 	C 	0.052	0.9168	0.8513	-0.019
Mof_C 	C 	0.2738	0.7075	0.4064	0.017
Mof_C 	C 	0.454	0.7604	0.4072	-0.01
Mof_C 	C 	0.994	0.6366	0.9058	-0.084
Mof_C 	C 	0.161	0.6927	0.8915	-0.032
Mof_C 	C 	0.4836	0.1272	0.9184	-0.012
Mof_C 	C 	0.6414	0	0.9264	-0.007
Mof_C 	C 	0.1383	0.9551	0.2573	-0.015
Mof_C 	C 	0.024	0.8623	0.2584	0.001
Mof_C 	C 	0.1257	0.2366	0.3167	0.089
Mof_C 	C 	0.8035	0.3945	0.3579	0.01
Mof_C 	C 	0.2942	0.3029	0.7813	0.057
Mof_C 	C 	0.1321	0.2392	0.7835	0.086
Mof_C 	C 	0.3652	0.0342	0.45	0.081
Mof_C 	C 	0.5831	0.9514	0.4519	0.052
Mof_C 	C 	0.7303	0.1973	0.6653	0.643
Mof_C 	C 	0.831	0.3903	0.7454	0.051
Mof_C 	C 	0.0023	0.4448	0.7492	0.11
Mof_C 	C 	0.1909	0.4588	0.4234	0.063
Mof_C 	C 	0.414	0.3956	0.4193	0.054
Mof_C 	C 	0.5875	0.1974	0.2818	-0.015
Mof_C 	C 	0.74	0.0646	0.2879	-0.018
Mof_C 	C 	0.4604	0.7984	0.8211	-0.004
Mof_C 	C 	0.1056	0.961	0.8778	0.016
Mof_C 	C 	0.381	0.7201	0.383	-0.07
Mof_C 	C 	0.034	0.6057	0.9519	0.078
Mof_C 	C 	0.197	0.6687	0.9435	0.032
Mof_C 	C 	0.4835	0.1314	0.9683	0.036
Mof_C 	C 	0.6413	0.0063	0.9772	0.008
Mof_C 	C 	0.15	0.9581	0.209	0.02
Mof_C 	C 	0.0306	0.8701	0.2097	0.035
Mof_C 	C 	0.1203	0.2525	0.2614	-0.155
Mof_C 	C 	0.8052	0.4199	0.306	0.012
Mof_C 	C 	0.2671	0.314	0.8318	-0.026
Mof_C 	C 	0.1054	0.252	0.8325	-0.019
Mof_C 	C 	0.3696	0.0264	0.3997	-0.027
Mof_C 	C 	0.5853	0.9407	0.4006	-0.032
Mof_C 	C 	0.7371	0.201	0.7219	-0.199
Mof_C 	C 	0.781	0.4153	0.791	-0.041
Mof_C 	C 	0.9527	0.4682	0.7975	-0.08
Mof_C 	C 	0.1958	0.4885	0.3738	-0.023
Mof_C 	C 	0.4151	0.4275	0.3695	-0.026
Mof_C 	C 	0.598	0.1901	0.2307	0.023
Mof_C 	C 	0.7416	0.0658	0.2381	0.025
Mof_C 	C 	0.4868	0.7858	0.8749	0.043
Mof_C 	C 	0.1053	0.9499	0.9332	-0.009
Mof_C 	C 	0.442	0.7021	0.3308	0.389
Mof_N 	N 	0.1328	0.6244	0.9725	-0.22
Mof_N 	N 	0.5609	0.0744	0.9994	-0.22
Mof_N 	N 	0.0972	0.9161	0.1818	-0.228
Mof_C 	C 	0.2	0.2997	0.2353	0.025
Mof_C 	C 	0.088	0.218	0.2297	0.629
Mof_C 	C 	0.8683	0.4694	0.2809	-0.035
Mof_C 	C 	0.714	0.428	0.2748	-0.016
Mof_C 	C 	0.1794	0.285	0.8593	0.017
Mof_C 	C 	0.4786	0.9793	0.3733	0.015
Mof_C 	C 	0.8467	0.1651	0.7451	0.073
Mof_C 	C 	0.6272	0.2427	0.7498	0.053
Mof_C 	C 	0.8475	0.4537	0.8189	0.031
Mof_C 	C 	0.3064	0.4678	0.3434	0.015
Mof_N 	N 	0.6758	0.1277	0.208	-0.229
Mof_C 	C 	0.542	0.839	0.9007	-0.239
Mof_C 	C 	0.541	0.71	0.8982	-0.834
Mof_C 	C 	0.183	0.9808	0.9592	0.017
Mof_C 	C 	0.0268	0.9165	0.9638	0.044
Mof_C 	C 	0.353	0.7191	0.2883	-0.034
Mof_C 	C 	0.559	0.695	0.316	-0.1
Mof_Cu	Cu	0.1827	0.58896	0.04205	0.764
Mof_Cu	Cu	0.5393	0.0841	0.07437	0.752
Mof_Cu	Cu	0.1009	0.9316	0.1095	0.858
Mof_C 	C 	0.185	0.3215	0.1863	-0.01
Mof_C 	C 	0.098	0.234	0.1768	-0.468
Mof_C 	C 	0.879	0.484	0.2313	0.091
Mof_C 	C 	0.701	0.466	0.223	0.023
Mof_C 	C 	0.1602	0.2936	0.9136	0.021
Mof_C 	C 	0.4818	0.977	0.3198	-0.004
Mof_C 	C 	0.8514	0.1683	0.7969	-0.046
Mof_C 	C 	0.6325	0.2466	0.8003	-0.033
Mof_C 	C 	0.7946	0.474	0.8698	0.003
Mof_C 	C 	0.314	0.4891	0.2916	0.005
Mof_Cu	Cu	0.70066	0.12685	0.13223	0.766
Mof_C 	C 	0.52	0.836	0.9485	0.461
Mof_C 	C 	0.57	0.698	0.9497	0.726
Mof_C 	C 	0.224	0.952	0.0082	-0.445
Mof_C 	C 	0.0266	0.9116	0.0165	0.004
Mof_C 	C 	0.408	0.7101	0.2447	0.502
Mof_C 	C 	0.607	0.665	0.2716	0.291
Mof_I 	I 	0.01927	0.51341	0.09062	-0.848
Mof_I 	I 	0.18472	0.7138	0.09244	-0.788
Mof_I 	I 	0.39892	0.47041	0.04476	-0.678
Mof_I 	I 	0.72837	0.96391	0.11416	-0.801
Mof_I 	I 	0.30394	0.08557	0.10108	-0.495
Mof_I 	I 	0.51445	0.23678	0.09124	-0.64
Mof_N 	N 	0.1107	0.2913	0.1577	-0.17
Mof_N 	N 	0.8083	0.4604	0.2016	-0.22
Mof_C 	C 	0.199	0.3482	0.9363	-0.017
Mof_C 	C 	0.1063	0.2442	0.9458	-0.025
Mof_C 	C 	0.4121	0.0416	0.2891	-0.007
Mof_C 	C 	0.5499	0.907	0.2963	-0.007
Mof_C 	C 	0.744	0.2098	0.8244	0.022
Mof_C 	C 	0.667	0.4934	0.8823	-0.012
Mof_C 	C 	0.8713	0.4627	0.9086	-0.021
Mof_C 	C 	0.219	0.559	0.2689	0.059
Mof_C 	C 	0.427	0.48	0.2632	-0.019
Mof_N 	N 	0.7548	0.2217	0.9835	-0.218
Mof_N 	N 	0.5295	0.7626	0.9775	-0.179
Mof_N 	N 	0.1081	0.9317	0.0384	-0.232
Mof_N 	N 	0.526	0.6866	0.2317	-0.33
Mof_Cu	Cu	0.8088	0.4843	0.12471	0.716
Mof_Cu	Cu	0.9677	0.67478	0.09365	0.741
Mof_Cu	Cu	0.1005	0.3156	0.08721	0.844
Mof_Cu	Cu	0.3606	0.5725	0.1103	0.442
Mof_Cu	Cu	0.6931	0.82095	0.10655	0.724
Mof_Cu	Cu	0.49086	0.97179	0.1398	0.778
Mof_Cu	Cu	0.74989	0.22541	0.0583	0.792
Mof_C 	C 	0.1737	0.3566	0.9888	0.061
Mof_C 	C 	0.0897	0.2503	0.9956	0.079
Mof_C 	C 	0.4157	0.036	0.2368	0.016
Mof_C 	C 	0.5482	0.9069	0.2442	-0.001
Mof_C 	C 	0.7474	0.2155	0.88	0.003
Mof_C 	C 	0.6223	0.5031	0.9309	0.029
Mof_C 	C 	0.821	0.4728	0.9583	0.004
Mof_C 	C 	0.228	0.5592	0.2147	0.043
Mof_C 	C 	0.41	0.4657	0.2056	-0.021
Mof_Cu	Cu	0.5964	0.74428	0.04765	0.757
Mof_Cu	Cu	0.6058	0.70845	0.1613	0.721
Mof_I 	I 	0.60511	0.60248	0.09769	-1.171
Mof_I 	I 	0.79219	0.35744	0.08628	-0.755
Mof_I 	I 	0.82015	0.76459	0.02249	-0.722
Mof_I 	I 	0.82986	0.7206	0.17723	-0.74
Mof_N 	N 	0.317	0.5373	0.1863	-0.265
Mof_I 	I 	0.44368	0.8401	0.11248	-0.916
Mof_N 	N 	0.4817	0.9703	0.2149	-0.232
Mof_I 	I 	0.934	0.11414	0.10259	-0.604
Mof_N 	N 	0.127	0.3028	0.018	-0.276
Mof_C 	C 	0.8255	0.151	0.9082	-0.017
Mof_C 	C 	0.67	0.2826	0.904	-0.013
Mof_N 	N 	0.6995	0.4909	0.9682	-0.216
Mof_Cu	Cu	0.6324	0.47855	0.04125	0.818
Mof_C 	C 	0.8297	0.1556	0.9611	0.005
Mof_C 	C 	0.6773	0.2831	0.9549	0.026
Mof_Cu	Cu	0.3956	0.7039	0.1412	0.788
Mof_Cu	Cu	0.8147	0.5744	0.1442	0.663
Mof_C 	C 	0.469	0.718	0.9042	0.813
Mof_C 	C 	0.173	0.9851	0.0095	0.43
Mof_C 	C 	0.379	0.698	0.2161	-0.593
Mof_C 	C 	0.27	0.718	0.295	0.132
Mof_C 	C 	0.373	0.708	0.3144	-0.394
Mof_C 	C 	0.565	0.664	0.3188	-0.128
Mof_Cu	Cu	0.3063	0.5645	0.1156	0.448
Mof_C 	C 	0.782	0.378	0.2131	-0.046
Mof_C 	C 	0.781	0.361	0.2683	0.024
Mof_C 	C 	0.204	0.526	0.2615	-0.079
Mof_C 	C 	0.393	0.437	0.2557	0.013
Mof_C 	C 	0.017	0.237	0.2371	-0.532
Mof_C 	C 	0.027	0.2595	0.181	0.416
Mof_C 	C 	0.808	0.511	0.22	-0.171
Mof_C 	C 	0.682	0.669	0.253	-0.241
Mof_C 	C 	0.462	0.8316	0.9562	-0.404
Mof_C 	C 	0.461	0.846	0.908	0.16
Mof_C 	C 	0.496	0.7082	0.9566	-0.693
_end
