data_functionalizedCrystal
_audit_creation_method	'EQeq! by Chris Wilmer'
_symmetry_space_group_name_H-M	'P1'
_symmetry_Int_Tables_number	1
_symmetry_cell_setting	triclinic
loop_
_symmetry_equiv_pos_as_xyz
  x,y,z
_cell_length_a	10.661
_cell_length_b	11.998
_cell_length_c	13.878
_cell_angle_alpha	72.774
_cell_angle_beta	79.859
_cell_angle_gamma	81.106
loop_
_atom_site_label
_atom_site_type_symbol
_atom_site_fract_x
_atom_site_fract_y
_atom_site_fract_z
_atom_site_charge
Mof_Ni	Ni	-0	0	-0	1.024
Mof_Ni	Ni	2.14136e-17	0.5	0.5	1.068
Mof_Mo	Mo	0.87685	0.21404	0.54577	1.549
Mof_Mo	Mo	0.14817	0.01247	0.53183	1.367
Mof_Mo	Mo	0.90915	0.00061	0.74627	1.44
Mof_Mo	Mo	0.09085	0.99939	0.25373	1.564
Mof_Mo	Mo	0.12315	0.78596	0.45423	1.469
Mof_Mo	Mo	0.87851	0.22137	0.26338	1.181
Mof_Mo	Mo	0.12149	0.77863	0.73662	0.995
Mof_Mo	Mo	0.85183	0.98753	0.46817	1.639
Mof_H 	H 	0.6123	0.1926	0.1883	-0.034
Mof_H 	H 	0.2573	0.6017	0.3484	-0.056
Mof_H 	H 	0.4871	0.9458	0.2866	0.002
Mof_H 	H 	0.7427	0.3983	0.6516	-0.055
Mof_H 	H 	0.3037	0.9902	0.039	-0.053
Mof_H 	H 	0.5189	0.7557	0.3906	0.015
Mof_H 	H 	0.7106	0.8252	0.6845	0.002
Mof_H 	H 	0.0594	0.4222	0.7343	-0.03
Mof_H 	H 	0.0781	0.5181	0.9035	-0.022
Mof_H 	H 	0.3726	0.1539	0.2159	-0.018
Mof_H 	H 	0.6406	0.6391	0.8572	0.071
Mof_H 	H 	0.3863	0.7494	0.5528	-0.075
Mof_H 	H 	0.1263	0.4414	0.0059	-0.031
Mof_H 	H 	0.9158	0.6533	0.6592	0.012
Mof_H 	H 	0.2249	0.3137	0.1657	0.039
Mof_H 	H 	0.3877	0.8074	0.8117	-0.008
Mof_H 	H 	0.6963	0.0098	0.961	-0.031
Mof_H 	H 	0.826	0.2481	0.8828	-0.014
Mof_H 	H 	0.8228	0.9524	0.2143	0.031
Mof_H 	H 	0.1772	0.0476	0.7857	-0.019
Mof_H 	H 	0.7316	0.6852	0.4834	-0.001
Mof_H 	H 	0.612	0.9357	0.3354	0.016
Mof_H 	H 	0.9219	0.4819	0.0965	0.061
Mof_H 	H 	0.2684	0.3148	0.5166	-0.004
Mof_H 	H 	0.8805	0.7771	0.9795	0.025
Mof_H 	H 	0.0842	0.3467	0.3408	-0.041
Mof_H 	H 	0.4609	0.2506	0.7223	0.048
Mof_H 	H 	0.1195	0.2229	0.0205	-0.067
Mof_H 	H 	0.5391	0.7494	0.2777	0.042
Mof_H 	H 	0.2894	0.1748	0.3155	-0.008
Mof_H 	H 	0.7751	0.6863	0.8343	0.061
Mof_H 	H 	0.9406	0.5778	0.2657	0.023
Mof_H 	H 	0.388	0.0643	0.6646	-0.003
Mof_H 	H 	0.174	0.7519	0.1172	-0.016
Mof_H 	H 	0.3594	0.3609	0.1428	0.052
Mof_H 	H 	0.8737	0.5586	0.9941	0.114
Mof_H 	H 	0.6274	0.8461	0.7841	0.009
Mof_H 	H 	0.4811	0.2443	0.6094	0.015
Mof_H 	H 	0.5129	0.0542	0.7134	-0.02
Mof_H 	H 	0.6137	0.2506	0.4472	-0.085
Mof_C 	C 	0.3518	0.2076	0.2581	0.003
Mof_C 	C 	0.7699	0.9603	0.1655	0.099
Mof_C 	C 	0.1435	0.4003	0.3284	0.106
Mof_C 	C 	0.5747	0.909	0.2883	-0.022
Mof_C 	C 	0.7053	0.6747	0.8032	-0.082
Mof_C 	C 	0.1109	0.733	0.0881	0.072
Mof_C 	C 	0.2986	0.0085	0.9698	0.14
Mof_C 	C 	0.7623	0.6704	0.4209	0.105
Mof_C 	C 	0.238	0.5376	0.3314	0.118
Mof_C 	C 	0.4127	0.791	0.7492	0.085
Mof_C 	C 	0.762	0.4624	0.6686	0.127
Mof_C 	C 	0.4253	0.091	0.7117	-0.01
Mof_C 	C 	0.0519	0.4665	0.9702	0.055
Mof_C 	C 	0.5855	0.241	0.3907	0.12
Mof_C 	C 	0.2301	0.0397	0.8345	0.084
Mof_C 	C 	0.5873	0.209	0.2508	0.075
Mof_C 	C 	0.6482	0.7924	0.7419	0
Mof_C 	C 	0.0487	0.2519	0.9863	0.092
Mof_C 	C 	0.7014	0.9915	0.0302	0.093
Mof_C 	C 	0.8891	0.267	0.9119	0.114
Mof_C 	C 	0.8732	0.6142	0.3017	0.1
Mof_C 	C 	0.4145	0.759	0.6093	0.126
Mof_C 	C 	0.5746	0.7754	0.3261	-0.062
Mof_C 	C 	0.9481	0.5335	0.0298	-0.159
Mof_C 	C 	0.2947	0.3253	0.1968	-0.075
Mof_C 	C 	0.4254	0.2246	0.6739	-0.072
Mof_C 	C 	0.9513	0.7481	0.0137	0.088
Mof_C 	C 	0.1268	0.3858	0.6983	0.086
Mof_C 	C 	0.2377	0.3296	0.5791	0.094
Mof_C 	C 	0.8565	0.5997	0.6716	0.119
Mof_N 	N 	0.9013	0.3744	0.9118	-0.062
Mof_N 	N 	0.8705	0.6065	0.4021	-0.208
Mof_N 	N 	0.9794	0.1865	0.9595	-0.178
Mof_N 	N 	0.3321	0.7746	0.6902	-0.251
Mof_N 	N 	0.996	0.6373	0.0418	-0.056
Mof_N 	N 	0.0987	0.6256	0.0882	-0.146
Mof_N 	N 	0.1919	0.0109	0.9353	-0.255
Mof_N 	N 	0.2972	0.2892	0.6603	-0.096
Mof_N 	N 	0.6679	0.2254	0.3098	-0.276
Mof_N 	N 	0.5987	0.9655	0.1017	-0.105
Mof_N 	N 	0.004	0.3627	0.9582	-0.159
Mof_N 	N 	0.3112	0.4934	0.2597	-0.107
Mof_N 	N 	0.776	0.6755	0.2597	-0.097
Mof_N 	N 	0.6482	0.9449	0.186	-0.095
Mof_N 	N 	0.3518	0.0551	0.814	-0.102
Mof_N 	N 	0.8652	0.5181	0.6236	-0.224
Mof_N 	N 	0.4689	0.2201	0.2955	-0.113
Mof_N 	N 	0.7536	0.595	0.7388	-0.086
Mof_N 	N 	0.1295	0.3935	0.5979	-0.244
Mof_N 	N 	0.2464	0.405	0.2612	-0.094
Mof_N 	N 	0.1348	0.4819	0.3764	-0.26
Mof_N 	N 	0.4013	0.0345	0.8983	-0.113
Mof_N 	N 	0.5311	0.7799	0.7045	-0.106
Mof_N 	N 	0.5353	0.7577	0.6133	-0.124
Mof_N 	N 	0.7028	0.7108	0.3397	-0.096
Mof_N 	N 	0.8081	0.9891	0.0647	-0.225
Mof_N 	N 	0.224	0.3245	0.7403	-0.101
Mof_N 	N 	0.0206	0.8135	0.0405	-0.282
Mof_N 	N 	0.4647	0.2423	0.3867	-0.128
Mof_N 	N 	0.6888	0.5066	0.7403	-0.1
Mof_O 	O 	0.054	0.1667	0.2458	-0.688
Mof_O 	O 	0.0972	0.1611	0.4996	-0.601
Mof_O 	O 	0.9028	0.8389	0.5004	-0.56
Mof_O 	O 	0.0894	0.9773	0.4191	-0.751
Mof_O 	O 	0.0673	0.8392	0.3225	-0.684
Mof_O 	O 	0.8792	0.0288	0.3247	-0.652
Mof_O 	O 	0.946	0.8333	0.7542	-0.529
Mof_O 	O 	0.9543	0.9989	0.8602	-0.534
Mof_O 	O 	0.9106	0.0227	0.5809	-0.758
Mof_O 	O 	0.9198	0.3558	0.5002	-0.599
Mof_O 	O 	0.1208	0.9712	0.6753	-0.596
Mof_O 	O 	0.0802	0.6442	0.4998	-0.656
Mof_O 	O 	0.9327	0.1608	0.6775	-0.623
Mof_O 	O 	0.0457	0.0011	0.1398	-0.717
Mof_O 	O 	0.1339	0.8266	0.5758	-0.698
Mof_O 	O 	0.8661	0.1734	0.4242	-0.727
_end
