data_functionalizedCrystal
_audit_creation_method	'EQeq! by Chris Wilmer'
_symmetry_space_group_name_H-M	'P1'
_symmetry_Int_Tables_number	1
_symmetry_cell_setting	triclinic
loop_
_symmetry_equiv_pos_as_xyz
  x,y,z
_cell_length_a	32.313
_cell_length_b	8.1801
_cell_length_c	18.4522
_cell_angle_alpha	90
_cell_angle_beta	90
_cell_angle_gamma	90
loop_
_atom_site_label
_atom_site_type_symbol
_atom_site_fract_x
_atom_site_fract_y
_atom_site_fract_z
_atom_site_charge
Mof_O 	O 	0.08244	0.2411	0.9706	-0.267
Mof_O 	O 	0.0658	0.1478	0.0805	-0.449
Mof_O 	O 	0.48366	0.1276	0.07659	-0.437
Mof_C 	C 	0.08425	0.138	0.0201	0.344
Mof_O 	O 	0.46887	0.3827	0.1103	-0.285
Mof_O 	O 	0.31099	0.5187	0.92181	-0.439
Mof_O 	O 	0.31687	0.9211	0.92884	-0.454
Mof_C 	C 	0.46055	0.2536	0.0782	0.326
Mof_C 	C 	0.40474	0.381	0.0047	0.027
Mof_H 	H 	0.4178	0.4811	0.0112	0.048
Mof_C 	C 	0.40104	0.0912	0.0286	0.023
Mof_H 	H 	0.4122	0.9978	0.0498	0.05
Mof_C 	C 	0.42109	0.2418	0.0355	-0.088
Mof_C 	C 	0.34883	0.2213	0.9566	0.035
Mof_H 	H 	0.3248	0.2134	0.9292	0.051
Mof_C 	C 	0.36443	0.0827	0.9897	-0.093
Mof_C 	C 	0.36819	0.3715	0.9633	-0.092
Mof_C 	C 	0.93723	0.4031	0.3138	-0.023
Mof_H 	H 	0.9104	0.4401	0.3058	0.05
Mof_O 	O 	0.37299	0.6261	0.90369	-0.319
Mof_O 	O 	0.34311	0.8216	0.03191	-0.279
Mof_C 	C 	0.35024	0.517	0.9273	0.343
Mof_C 	C 	0.33978	0.9272	0.9844	0.363
Mof_H 	H 	0.071	0.2068	0.369	0.166
Mof_H 	H 	0.1818	0.3823	0.1351	0.166
Mof_Zn	Zn	0.03958	0.34476	0.11639	1.228
Mof_Zn	Zn	0.28922	0.73028	0.89041	1.229
Mof_N 	N 	0.03816	0.3148	0.2248	-0.277
Mof_N 	N 	0.21239	0.2538	0.28284	-0.276
Mof_C 	C 	0.21065	0.8507	0.9251	0.341
Mof_O 	O 	0.23359	0.7272	0.93261	-0.44
Mof_O 	O 	0.06769	0.5445	0.09024	-0.457
Mof_C 	C 	0.17038	0.8475	0.9668	-0.093
Mof_O 	O 	0.21894	0.9714	0.88715	-0.284
Mof_N 	N 	0.055	0.2337	0.33313	-0.241
Mof_C 	C 	0.18348	0.321	0.2398	0.162
Mof_C 	C 	0.09731	0.8427	0.0452	0.043
Mof_H 	H 	0.0728	0.8413	0.0716	0.047
Mof_O 	O 	0.13103	0.4373	0.09097	-0.313
Mof_C 	C 	0.12101	0.7019	0.0401	-0.107
Mof_C 	C 	0.11101	0.2197	0.2405	-0.203
Mof_H 	H 	0.1206	0.1185	0.2621	0.1
Mof_H 	H 	0.111	0.2059	0.1883	0.087
Mof_C 	C 	0.14041	0.3584	0.261	-0.184
Mof_H 	H 	0.1392	0.3764	0.3129	0.082
Mof_H 	H 	0.1316	0.4582	0.2371	0.091
Mof_C 	C 	0.10627	0.5474	0.0766	0.354
Mof_C 	C 	0.15811	0.7054	0.0026	0.035
Mof_H 	H 	0.1749	0.613	0.0014	0.046
Mof_C 	C 	0.00403	0.3366	0.271	0.043
Mof_N 	N 	0.19747	0.3484	0.17054	-0.225
Mof_C 	C 	0.01501	0.2834	0.3401	0.104
Mof_C 	C 	0.23959	0.2987	0.1708	0.09
Mof_C 	C 	0.28634	0.1716	0.2571	-0.091
Mof_H 	H 	0.292	0.1268	0.3023	0.063
Mof_C 	C 	0.06765	0.2547	0.266	0.183
Mof_C 	C 	0.14617	0.9867	0.9707	0.046
Mof_H 	H 	0.1542	0.081	0.9462	0.048
Mof_C 	C 	0.10979	0.9857	0.0112	-0.104
Mof_C 	C 	0.9484	0.3528	0.3822	-0.001
Mof_H 	H 	0.9295	0.3638	0.4198	0.049
Mof_C 	C 	0.96497	0.4001	0.2567	-0.086
Mof_H 	H 	0.9578	0.4386	0.2109	0.063
Mof_C 	C 	0.24797	0.2373	0.2402	0.048
Mof_C 	C 	0.26995	0.3023	0.117	-0.106
Mof_H 	H 	0.2645	0.3438	0.0711	0.086
Mof_C 	C 	0.31592	0.1767	0.2022	-0.021
Mof_H 	H 	0.3421	0.1343	0.2111	0.048
Mof_C 	C 	0.98703	0.2863	0.3972	-0.114
Mof_H 	H 	0.9937	0.2459	0.4428	0.087
Mof_C 	C 	0.30751	0.2428	0.1348	-0.003
Mof_H 	H 	0.3286	0.2464	0.1005	0.047
Mof_O 	O 	0.91756	0.7589	0.4706	-0.276
Mof_O 	O 	0.9342	0.8522	0.5805	-0.451
Mof_O 	O 	0.51634	0.8724	0.57659	-0.437
Mof_C 	C 	0.91575	0.862	0.5201	0.353
Mof_O 	O 	0.53113	0.6173	0.6103	-0.285
Mof_O 	O 	0.68901	0.4813	0.42181	-0.441
Mof_O 	O 	0.68313	0.0789	0.42884	-0.454
Mof_C 	C 	0.53945	0.7464	0.5782	0.33
Mof_C 	C 	0.59526	0.619	0.5047	0.045
Mof_H 	H 	0.5822	0.5189	0.5112	0.043
Mof_C 	C 	0.59896	0.9088	0.5286	0.043
Mof_H 	H 	0.5878	0.0022	0.5498	0.045
Mof_C 	C 	0.57891	0.7582	0.5355	-0.099
Mof_C 	C 	0.65117	0.7787	0.4566	0.047
Mof_H 	H 	0.6752	0.7866	0.4292	0.046
Mof_C 	C 	0.63557	0.9173	0.4897	-0.111
Mof_C 	C 	0.63181	0.6285	0.4633	-0.108
Mof_C 	C 	0.06277	0.5969	0.8138	-0.022
Mof_H 	H 	0.0896	0.5599	0.8058	0.051
Mof_O 	O 	0.62701	0.3739	0.40369	-0.321
Mof_O 	O 	0.65689	0.1784	0.53191	-0.274
Mof_C 	C 	0.64976	0.483	0.4273	0.348
Mof_C 	C 	0.66022	0.0728	0.4844	0.363
Mof_H 	H 	0.929	0.7932	0.869	0.167
Mof_H 	H 	0.8182	0.6177	0.6351	0.166
Mof_Zn	Zn	0.96042	0.65524	0.61639	1.229
Mof_Zn	Zn	0.71078	0.26972	0.39041	1.229
Mof_N 	N 	0.96184	0.6852	0.7248	-0.277
Mof_N 	N 	0.78761	0.7462	0.78284	-0.276
Mof_C 	C 	0.78935	0.1493	0.4251	0.344
Mof_O 	O 	0.76641	0.2728	0.43261	-0.443
Mof_O 	O 	0.93231	0.4555	0.59024	-0.456
Mof_C 	C 	0.82962	0.1525	0.4668	-0.102
Mof_O 	O 	0.78106	0.0286	0.38715	-0.285
Mof_N 	N 	0.945	0.7663	0.83313	-0.241
Mof_C 	C 	0.81652	0.679	0.7398	0.162
Mof_C 	C 	0.90269	0.1573	0.5452	0.046
Mof_H 	H 	0.9272	0.1587	0.5716	0.046
Mof_O 	O 	0.86897	0.5627	0.59097	-0.312
Mof_C 	C 	0.87899	0.2981	0.5401	-0.11
Mof_C 	C 	0.88899	0.7803	0.7405	-0.203
Mof_H 	H 	0.8794	0.8815	0.7621	0.1
Mof_H 	H 	0.889	0.7941	0.6883	0.087
Mof_C 	C 	0.85959	0.6416	0.761	-0.184
Mof_H 	H 	0.8608	0.6236	0.8129	0.082
Mof_H 	H 	0.8684	0.5418	0.7371	0.091
Mof_C 	C 	0.89373	0.4526	0.5766	0.356
Mof_C 	C 	0.84189	0.2946	0.5026	0.045
Mof_H 	H 	0.8251	0.387	0.5014	0.045
Mof_C 	C 	0.99597	0.6634	0.771	0.043
Mof_N 	N 	0.80253	0.6516	0.67054	-0.225
Mof_C 	C 	0.98499	0.7166	0.8401	0.104
Mof_C 	C 	0.76041	0.7013	0.6708	0.091
Mof_C 	C 	0.71366	0.8284	0.7571	-0.09
Mof_H 	H 	0.708	0.8732	0.8023	0.063
Mof_C 	C 	0.93235	0.7453	0.766	0.184
Mof_C 	C 	0.85383	0.0133	0.4707	0.047
Mof_H 	H 	0.8458	0.919	0.4462	0.045
Mof_C 	C 	0.89021	0.0143	0.5112	-0.103
Mof_C 	C 	0.0516	0.6472	0.8822	-0.001
Mof_H 	H 	0.0705	0.6362	0.9198	0.051
Mof_C 	C 	0.03503	0.5999	0.7567	-0.085
Mof_H 	H 	0.0422	0.5614	0.7109	0.063
Mof_C 	C 	0.75203	0.7627	0.7402	0.048
Mof_C 	C 	0.73005	0.6977	0.617	-0.106
Mof_H 	H 	0.7355	0.6562	0.5711	0.087
Mof_C 	C 	0.68408	0.8233	0.7022	-0.021
Mof_H 	H 	0.6579	0.8657	0.7111	0.049
Mof_C 	C 	0.01297	0.7137	0.8972	-0.113
Mof_H 	H 	0.0063	0.7541	0.9428	0.089
Mof_C 	C 	0.69249	0.7572	0.6348	-0.002
Mof_H 	H 	0.6714	0.7536	0.6005	0.048
Mof_O 	O 	0.58244	0.2589	0.9706	-0.269
Mof_O 	O 	0.5658	0.3522	0.0805	-0.45
Mof_O 	O 	0.98366	0.3724	0.07659	-0.437
Mof_C 	C 	0.58425	0.362	0.0201	0.347
Mof_O 	O 	0.96887	0.1173	0.1103	-0.285
Mof_O 	O 	0.81099	0.9813	0.92181	-0.439
Mof_O 	O 	0.81687	0.5789	0.92884	-0.454
Mof_C 	C 	0.96055	0.2464	0.0782	0.327
Mof_C 	C 	0.90474	0.119	0.0047	0.028
Mof_H 	H 	0.9178	0.0189	0.0112	0.048
Mof_C 	C 	0.90104	0.4088	0.0286	0.029
Mof_H 	H 	0.9122	0.5022	0.0498	0.047
Mof_C 	C 	0.92109	0.2582	0.0355	-0.09
Mof_C 	C 	0.84883	0.2787	0.9566	0.036
Mof_H 	H 	0.8248	0.2866	0.9292	0.051
Mof_C 	C 	0.86443	0.4173	0.9897	-0.097
Mof_C 	C 	0.86819	0.1285	0.9633	-0.091
Mof_C 	C 	0.43723	0.0969	0.3138	-0.023
Mof_H 	H 	0.4104	0.0599	0.3058	0.05
Mof_O 	O 	0.87299	0.8739	0.90369	-0.319
Mof_O 	O 	0.84311	0.6784	0.03191	-0.279
Mof_C 	C 	0.85024	0.983	0.9273	0.341
Mof_C 	C 	0.83978	0.5728	0.9844	0.364
Mof_H 	H 	0.571	0.2932	0.369	0.166
Mof_H 	H 	0.6818	0.1177	0.1351	0.166
Mof_Zn	Zn	0.53958	0.15524	0.11639	1.228
Mof_Zn	Zn	0.78922	0.76972	0.89041	1.229
Mof_N 	N 	0.53816	0.1852	0.2248	-0.277
Mof_N 	N 	0.71239	0.2462	0.28284	-0.276
Mof_C 	C 	0.71065	0.6493	0.9251	0.342
Mof_O 	O 	0.73359	0.7728	0.93261	-0.441
Mof_O 	O 	0.56769	0.9555	0.09024	-0.457
Mof_C 	C 	0.67038	0.6525	0.9668	-0.096
Mof_O 	O 	0.71894	0.5286	0.88715	-0.284
Mof_N 	N 	0.555	0.2663	0.33313	-0.241
Mof_C 	C 	0.68348	0.179	0.2398	0.162
Mof_C 	C 	0.59731	0.6573	0.0452	0.045
Mof_H 	H 	0.5728	0.6587	0.0716	0.046
Mof_O 	O 	0.63103	0.0627	0.09097	-0.313
Mof_C 	C 	0.62101	0.7981	0.0401	-0.109
Mof_C 	C 	0.61101	0.2803	0.2405	-0.204
Mof_H 	H 	0.6206	0.3815	0.2621	0.1
Mof_H 	H 	0.611	0.2941	0.1883	0.087
Mof_C 	C 	0.64041	0.1416	0.261	-0.183
Mof_H 	H 	0.6392	0.1236	0.3129	0.082
Mof_H 	H 	0.6316	0.0418	0.2371	0.091
Mof_C 	C 	0.60627	0.9526	0.0766	0.355
Mof_C 	C 	0.65811	0.7946	0.0026	0.037
Mof_H 	H 	0.6749	0.887	0.0014	0.046
Mof_C 	C 	0.50403	0.1634	0.271	0.043
Mof_N 	N 	0.69747	0.1516	0.17054	-0.225
Mof_C 	C 	0.51501	0.2166	0.3401	0.104
Mof_C 	C 	0.73959	0.2013	0.1708	0.09
Mof_C 	C 	0.78634	0.3284	0.2571	-0.09
Mof_H 	H 	0.792	0.3732	0.3023	0.063
Mof_C 	C 	0.56765	0.2453	0.266	0.184
Mof_C 	C 	0.64617	0.5133	0.9707	0.049
Mof_H 	H 	0.6542	0.419	0.9462	0.047
Mof_C 	C 	0.60979	0.5143	0.0112	-0.108
Mof_C 	C 	0.4484	0.1472	0.3822	-0.001
Mof_H 	H 	0.4295	0.1362	0.4198	0.049
Mof_C 	C 	0.46497	0.0999	0.2567	-0.086
Mof_H 	H 	0.4578	0.0614	0.2109	0.063
Mof_C 	C 	0.74797	0.2627	0.2402	0.048
Mof_C 	C 	0.76995	0.1977	0.117	-0.106
Mof_H 	H 	0.7645	0.1562	0.0711	0.086
Mof_C 	C 	0.81592	0.3233	0.2022	-0.021
Mof_H 	H 	0.8421	0.3657	0.2111	0.049
Mof_C 	C 	0.48703	0.2137	0.3972	-0.114
Mof_H 	H 	0.4937	0.2541	0.4428	0.087
Mof_C 	C 	0.80751	0.2572	0.1348	-0.002
Mof_H 	H 	0.8286	0.2536	0.1005	0.047
Mof_O 	O 	0.41756	0.7411	0.4706	-0.276
Mof_O 	O 	0.4342	0.6478	0.5805	-0.451
Mof_O 	O 	0.01634	0.6276	0.57659	-0.436
Mof_C 	C 	0.41575	0.638	0.5201	0.354
Mof_O 	O 	0.03113	0.8827	0.6103	-0.285
Mof_O 	O 	0.18901	0.0187	0.42181	-0.441
Mof_O 	O 	0.18313	0.4211	0.42884	-0.454
Mof_C 	C 	0.03945	0.7536	0.5782	0.331
Mof_C 	C 	0.09526	0.881	0.5047	0.045
Mof_H 	H 	0.0822	0.9811	0.5112	0.044
Mof_C 	C 	0.09896	0.5912	0.5286	0.045
Mof_H 	H 	0.0878	0.4978	0.5498	0.043
Mof_C 	C 	0.07891	0.7418	0.5355	-0.1
Mof_C 	C 	0.15117	0.7213	0.4566	0.046
Mof_H 	H 	0.1752	0.7134	0.4292	0.047
Mof_C 	C 	0.13557	0.5827	0.4897	-0.11
Mof_C 	C 	0.13181	0.8715	0.4633	-0.107
Mof_C 	C 	0.56277	0.9031	0.8138	-0.023
Mof_H 	H 	0.5896	0.9401	0.8058	0.051
Mof_O 	O 	0.12701	0.1261	0.40369	-0.321
Mof_O 	O 	0.15689	0.3216	0.53191	-0.274
Mof_C 	C 	0.14976	0.017	0.4273	0.347
Mof_C 	C 	0.16022	0.4272	0.4844	0.362
Mof_H 	H 	0.429	0.7068	0.869	0.167
Mof_H 	H 	0.3182	0.8823	0.6351	0.166
Mof_Zn	Zn	0.46042	0.84476	0.61639	1.229
Mof_Zn	Zn	0.21078	0.23028	0.39041	1.229
Mof_N 	N 	0.46184	0.8148	0.7248	-0.277
Mof_N 	N 	0.28761	0.7538	0.78284	-0.276
Mof_C 	C 	0.28935	0.3507	0.4251	0.343
Mof_O 	O 	0.26641	0.2272	0.43261	-0.443
Mof_O 	O 	0.43231	0.0445	0.59024	-0.456
Mof_C 	C 	0.32962	0.3475	0.4668	-0.101
Mof_O 	O 	0.28106	0.4714	0.38715	-0.285
Mof_N 	N 	0.445	0.7337	0.83313	-0.241
Mof_C 	C 	0.31652	0.821	0.7398	0.162
Mof_C 	C 	0.40269	0.3427	0.5452	0.046
Mof_H 	H 	0.4272	0.3413	0.5716	0.046
Mof_O 	O 	0.36897	0.9373	0.59097	-0.312
Mof_C 	C 	0.37899	0.2019	0.5401	-0.109
Mof_C 	C 	0.38899	0.7197	0.7405	-0.204
Mof_H 	H 	0.3794	0.6185	0.7621	0.101
Mof_H 	H 	0.389	0.7059	0.6883	0.088
Mof_C 	C 	0.35959	0.8584	0.761	-0.183
Mof_H 	H 	0.3608	0.8764	0.8129	0.082
Mof_H 	H 	0.3684	0.9582	0.7371	0.091
Mof_C 	C 	0.39373	0.0474	0.5766	0.356
Mof_C 	C 	0.34189	0.2054	0.5026	0.045
Mof_H 	H 	0.3251	0.113	0.5014	0.045
Mof_C 	C 	0.49597	0.8366	0.771	0.043
Mof_N 	N 	0.30253	0.8484	0.67054	-0.225
Mof_C 	C 	0.48499	0.7834	0.8401	0.105
Mof_C 	C 	0.26041	0.7987	0.6708	0.091
Mof_C 	C 	0.21366	0.6716	0.7571	-0.09
Mof_H 	H 	0.208	0.6268	0.8023	0.063
Mof_C 	C 	0.43235	0.7547	0.766	0.184
Mof_C 	C 	0.35383	0.4867	0.4707	0.044
Mof_H 	H 	0.3458	0.581	0.4462	0.047
Mof_C 	C 	0.39021	0.4857	0.5112	-0.103
Mof_C 	C 	0.5516	0.8528	0.8822	-0.001
Mof_H 	H 	0.5705	0.8638	0.9198	0.05
Mof_C 	C 	0.53503	0.9001	0.7567	-0.086
Mof_H 	H 	0.5422	0.9386	0.7109	0.063
Mof_C 	C 	0.25203	0.7373	0.7402	0.048
Mof_C 	C 	0.23005	0.8023	0.617	-0.106
Mof_H 	H 	0.2355	0.8438	0.5711	0.088
Mof_C 	C 	0.18408	0.6767	0.7022	-0.021
Mof_H 	H 	0.1579	0.6343	0.7111	0.049
Mof_C 	C 	0.51297	0.7863	0.8972	-0.114
Mof_H 	H 	0.5063	0.7459	0.9428	0.089
Mof_C 	C 	0.19249	0.7428	0.6348	-0.002
Mof_H 	H 	0.1714	0.7464	0.6005	0.048
_end
