data_functionalizedCrystal
_audit_creation_method	'EQeq! by Chris Wilmer'
_symmetry_space_group_name_H-M	'P1'
_symmetry_Int_Tables_number	1
_symmetry_cell_setting	triclinic
loop_
_symmetry_equiv_pos_as_xyz
  x,y,z
_cell_length_a	15.0955
_cell_length_b	15.0955
_cell_length_c	12.0175
_cell_angle_alpha	90
_cell_angle_beta	90
_cell_angle_gamma	90
loop_
_atom_site_label
_atom_site_type_symbol
_atom_site_fract_x
_atom_site_fract_y
_atom_site_fract_z
_atom_site_charge
Mof_O 	O 	0.60101	0.29063	0.7575	-0.514
Mof_O 	O 	0.61777	0.38008	0.60908	-0.509
Mof_C 	C 	0.5922	0.3602	0.7003	0.441
Mof_C 	C 	0.5434	0.4332	0.7601	-0.083
Mof_C 	C 	0.5476	0.4332	0.8794	-0.051
Mof_H 	H 	0.57318	0.38162	0.90735	0.075
Mof_O 	O 	0.10101	0.79063	0.2575	-0.526
Mof_O 	O 	0.11777	0.88008	0.10908	-0.525
Mof_C 	C 	0.0922	0.8602	0.2003	0.446
Mof_C 	C 	0.0434	0.9332	0.2601	-0.092
Mof_C 	C 	0.0476	0.9332	0.3794	0.013
Mof_H 	H 	0.07318	0.88162	0.40735	0.038
Mof_O 	O 	0.89899	0.20937	0.2575	-0.526
Mof_O 	O 	0.88223	0.11992	0.10908	-0.529
Mof_C 	C 	0.9078	0.1398	0.2003	0.447
Mof_C 	C 	0.9566	0.0668	0.2601	-0.101
Mof_C 	C 	0.9524	0.0668	0.3794	0.001
Mof_H 	H 	0.92682	0.11838	0.40735	0.041
Mof_O 	O 	0.39899	0.70937	0.7575	-0.513
Mof_O 	O 	0.38223	0.61992	0.60908	-0.51
Mof_C 	C 	0.4078	0.6398	0.7003	0.441
Mof_C 	C 	0.4566	0.5668	0.7601	-0.083
Mof_C 	C 	0.4524	0.5668	0.8794	-0.051
Mof_H 	H 	0.42682	0.61838	0.90735	0.076
Mof_O 	O 	0.70937	0.10101	0.0075	-0.618
Mof_O 	O 	0.61992	0.11777	0.85908	-0.562
Mof_C 	C 	0.6398	0.0922	0.9503	0.657
Mof_C 	C 	0.5668	0.0434	0.0101	-0.388
Mof_C 	C 	0.5668	0.0476	0.1294	0.147
Mof_H 	H 	0.61838	0.07318	0.15735	-0.013
Mof_O 	O 	0.20937	0.60101	0.5075	-0.525
Mof_O 	O 	0.11992	0.61777	0.35908	-0.521
Mof_C 	C 	0.1398	0.5922	0.4503	0.454
Mof_C 	C 	0.0668	0.5434	0.5101	-0.122
Mof_C 	C 	0.0668	0.5476	0.6294	0.016
Mof_H 	H 	0.11838	0.57318	0.65735	0.036
Mof_O 	O 	0.79063	0.39899	0.5075	-0.523
Mof_O 	O 	0.88008	0.38223	0.35908	-0.518
Mof_C 	C 	0.8602	0.4078	0.4503	0.453
Mof_C 	C 	0.9332	0.4566	0.5101	-0.113
Mof_C 	C 	0.9332	0.4524	0.6294	0.026
Mof_H 	H 	0.88162	0.42682	0.65735	0.034
Mof_O 	O 	0.29063	0.89899	0.0075	-0.616
Mof_O 	O 	0.38008	0.88223	0.85908	-0.556
Mof_C 	C 	0.3602	0.9078	0.9503	0.659
Mof_C 	C 	0.4332	0.9566	0.0101	-0.373
Mof_C 	C 	0.4332	0.9524	0.1294	0.168
Mof_H 	H 	0.38162	0.92682	0.15735	-0.016
Mof_O 	O 	0.89899	0.29063	0.9925	-0.418
Mof_O 	O 	0.88223	0.38008	0.14092	-0.46
Mof_C 	C 	0.9078	0.3602	0.0497	0.23
Mof_C 	C 	0.9566	0.4332	0.9899	0.193
Mof_C 	C 	0.9524	0.4332	0.8706	-0.166
Mof_H 	H 	0.92682	0.38162	0.84265	0.101
Mof_O 	O 	0.39899	0.79063	0.4925	-0.519
Mof_O 	O 	0.38223	0.88008	0.64092	-0.499
Mof_C 	C 	0.4078	0.8602	0.5497	0.437
Mof_C 	C 	0.4566	0.9332	0.4899	-0.068
Mof_C 	C 	0.4524	0.9332	0.3706	-0.022
Mof_H 	H 	0.42682	0.88162	0.34265	0.05
Mof_O 	O 	0.60101	0.20937	0.4925	-0.522
Mof_O 	O 	0.61777	0.11992	0.64092	-0.507
Mof_C 	C 	0.5922	0.1398	0.5497	0.439
Mof_C 	C 	0.5434	0.0668	0.4899	-0.086
Mof_C 	C 	0.5476	0.0668	0.3706	-0.043
Mof_H 	H 	0.57318	0.11838	0.34265	0.054
Mof_O 	O 	0.10101	0.70937	0.9925	-0.419
Mof_O 	O 	0.11777	0.61992	0.14092	-0.464
Mof_C 	C 	0.0922	0.6398	0.0497	0.232
Mof_C 	C 	0.0434	0.5668	0.9899	0.184
Mof_C 	C 	0.0476	0.5668	0.8706	-0.175
Mof_H 	H 	0.07318	0.61838	0.84265	0.103
Mof_O 	O 	0.79063	0.10101	0.7425	-0.517
Mof_O 	O 	0.88008	0.11777	0.89092	-0.485
Mof_C 	C 	0.8602	0.0922	0.7997	0.436
Mof_C 	C 	0.9332	0.0434	0.7399	-0.079
Mof_C 	C 	0.9332	0.0476	0.6206	-0.01
Mof_H 	H 	0.88162	0.07318	0.59265	0.044
Mof_O 	O 	0.29063	0.60101	0.2425	-0.532
Mof_O 	O 	0.38008	0.61777	0.39092	-0.517
Mof_C 	C 	0.3602	0.5922	0.2997	0.457
Mof_C 	C 	0.4332	0.5434	0.2399	-0.134
Mof_C 	C 	0.4332	0.5476	0.1206	0.026
Mof_H 	H 	0.38162	0.57318	0.09265	0.015
Mof_O 	O 	0.70937	0.39899	0.2425	-0.531
Mof_O 	O 	0.61992	0.38223	0.39092	-0.517
Mof_C 	C 	0.6398	0.4078	0.2997	0.458
Mof_C 	C 	0.5668	0.4566	0.2399	-0.133
Mof_C 	C 	0.5668	0.4524	0.1206	0.025
Mof_H 	H 	0.61838	0.42682	0.09265	0.016
Mof_O 	O 	0.20937	0.89899	0.7425	-0.512
Mof_O 	O 	0.11992	0.88223	0.89092	-0.481
Mof_C 	C 	0.1398	0.9078	0.7997	0.435
Mof_C 	C 	0.0668	0.9566	0.7399	-0.068
Mof_C 	C 	0.0668	0.9524	0.6206	0.001
Mof_H 	H 	0.11838	0.92682	0.59265	0.044
Mof_V 	V 	0.69216	0.30784	0.5	1.805
Mof_V 	V 	0.19216	0.80784	-0	1.781
Mof_V 	V 	0.80784	0.19216	-0	1.781
Mof_V 	V 	0.30784	0.69216	0.5	1.805
Mof_V 	V 	0.69216	0.19216	0.75	1.807
Mof_V 	V 	0.19216	0.69216	0.25	1.802
Mof_V 	V 	0.80784	0.30784	0.25	1.802
Mof_V 	V 	0.30784	0.80784	0.75	1.807
Mof_O 	O 	0.7459	0.25	0.625	-0.847
Mof_H 	H 	0.806	0.25	0.625	0.255
Mof_O 	O 	0.2459	0.75	0.125	-0.855
Mof_H 	H 	0.306	0.75	0.125	0.25
Mof_O 	O 	0.7541	0.25	0.125	-0.855
Mof_H 	H 	0.694	0.25	0.125	0.249
Mof_O 	O 	0.2541	0.75	0.625	-0.847
Mof_H 	H 	0.194	0.75	0.625	0.255
Mof_O 	O 	0.75	0.2459	0.875	-0.831
Mof_H 	H 	0.75	0.306	0.875	0.26
Mof_O 	O 	0.25	0.7459	0.375	-0.848
Mof_H 	H 	0.25	0.806	0.375	0.256
Mof_O 	O 	0.75	0.2541	0.375	-0.848
Mof_H 	H 	0.75	0.194	0.375	0.255
Mof_O 	O 	0.25	0.7541	0.875	-0.831
Mof_H 	H 	0.25	0.694	0.875	0.259
Mof_C 	C 	0.5	0.5	0.7033	0.04
Mof_C 	C 	0.5	0.5	0.9362	0.099
Mof_H 	H 	0.5	0.5	0.626	0.059
Mof_C 	C 	-5.45434e-34	0	0.2033	0.02
Mof_C 	C 	-3.30704e-33	-4.60905e-33	0.4362	-0.029
Mof_H 	H 	3.76096e-34	0	0.126	0.043
Mof_C 	C 	0.5	0	0.9533	0.397
Mof_C 	C 	0.5	0	0.1862	-0.135
Mof_H 	H 	0.5	0	0.876	-0.061
Mof_C 	C 	5.9621e-33	0.5	0.4533	0.061
Mof_C 	C 	6.65728e-33	0.5	0.6862	-0.05
Mof_H 	H 	1.12232e-33	0.5	0.376	0.042
Mof_C 	C 	1.57972e-33	0.5	0.0467	-0.327
Mof_C 	C 	-2.17994e-33	0.5	0.8138	0.119
Mof_H 	H 	1.52239e-33	0.5	0.124	0.17
Mof_C 	C 	0.5	4.60905e-33	0.5467	0.01
Mof_C 	C 	0.5	2.30452e-33	0.3138	0.031
Mof_H 	H 	0.5	0	0.624	0.067
Mof_C 	C 	2.37806e-33	4.60905e-33	0.7967	-0.001
Mof_C 	C 	1.68288e-33	0	0.5638	-0.018
Mof_H 	H 	2.60879e-33	0	0.874	0.074
Mof_C 	C 	0.5	0.5	0.2967	0.081
Mof_C 	C 	0.5	0.5	0.0638	-0.09
Mof_H 	H 	0.5	0.5	0.374	0.043
_end
