# CIF file generated by openbabel 3.1.0, see https://openbabel.org
data_I
_chemical_name_common 'image0'
_cell_length_a 12.741
_cell_length_b 12.068
_cell_length_c 11.988
_cell_angle_alpha 90
_cell_angle_beta 94.902
_cell_angle_gamma 90
_space_group_name_H-M_alt 'P 1'
_space_group_name_Hall 'P 1'
loop_
    _symmetry_equiv_pos_as_xyz
    x,y,z
loop_
    _atom_site_label
    _atom_site_type_symbol
    _atom_site_fract_x
    _atom_site_fract_y
    _atom_site_fract_z
    _atom_site_occupancy
    Ga1      Ga       0.24672    0.95967    0.20602    1.000
    P1       P        0.20215    0.22384    0.17758    1.000
    P2       P        0.17271    0.02016    0.44609    1.000
    F1       F        0.09250    0.97280    0.20260    1.000
    F2       F        0.39340    0.95380    0.20560    1.000
    O1       O        0.26400    0.11740    0.16870    1.000
    O2       O        0.22440    0.08060    0.54760    1.000
    O3       O        0.25430    0.99430    0.36470    1.000
    O4       O        0.07950    0.08680    0.39490    1.000
    O5       O        0.08760    0.20440    0.19300    1.000
    O6       O        0.25810    0.30120    0.26360    1.000
    H1       H        0.13800    0.92300    0.48000    1.000
    H2       H        0.20100    0.27600    0.07900    1.000
    Ga2      Ga       0.74672    0.45967    0.20602    1.000
    P3       P        0.70215    0.72384    0.17758    1.000
    P4       P        0.67271    0.52016    0.44609    1.000
    F3       F        0.59250    0.47280    0.20260    1.000
    F4       F        0.89340    0.45380    0.20560    1.000
    O7       O        0.76400    0.61740    0.16870    1.000
    O8       O        0.72440    0.58060    0.54760    1.000
    O9       O        0.75430    0.49430    0.36470    1.000
    O10      O        0.57950    0.58680    0.39490    1.000
    O11      O        0.58760    0.70440    0.19300    1.000
    O12      O        0.75810    0.80120    0.26360    1.000
    H3       H        0.63800    0.42300    0.48000    1.000
    H4       H        0.70100    0.77600    0.07900    1.000
    Ga3      Ga       0.75328    0.95967    0.29398    1.000
    P5       P        0.79785    0.22384    0.32242    1.000
    P6       P        0.82729    0.02016    0.05391    1.000
    F5       F        0.90750    0.97280    0.29740    1.000
    F6       F        0.60660    0.95380    0.29440    1.000
    O13      O        0.73600    0.11740    0.33130    1.000
    O14      O        0.77560    0.08060    0.95240    1.000
    O15      O        0.74570    0.99430    0.13530    1.000
    O16      O        0.92050    0.08680    0.10510    1.000
    O17      O        0.91240    0.20440    0.30700    1.000
    O18      O        0.74190    0.30120    0.23640    1.000
    H5       H        0.86200    0.92300    0.02000    1.000
    H6       H        0.79900    0.27600    0.42100    1.000
    Ga4      Ga       0.25328    0.45967    0.29398    1.000
    P7       P        0.29785    0.72384    0.32242    1.000
    P8       P        0.32729    0.52016    0.05391    1.000
    F7       F        0.40750    0.47280    0.29740    1.000
    F8       F        0.10660    0.45380    0.29440    1.000
    O19      O        0.23600    0.61740    0.33130    1.000
    O20      O        0.27560    0.58060    0.95240    1.000
    O21      O        0.24570    0.49430    0.13530    1.000
    O22      O        0.42050    0.58680    0.10510    1.000
    O23      O        0.41240    0.70440    0.30700    1.000
    O24      O        0.24190    0.80120    0.23640    1.000
    H7       H        0.36200    0.42300    0.02000    1.000
    H8       H        0.29900    0.77600    0.42100    1.000
    Ga5      Ga       0.75328    0.04033    0.79398    1.000
    P9       P        0.79785    0.77616    0.82242    1.000
    P10      P        0.82729    0.97984    0.55391    1.000
    F9       F        0.90750    0.02720    0.79740    1.000
    F10      F        0.60660    0.04620    0.79440    1.000
    O25      O        0.73600    0.88260    0.83130    1.000
    O26      O        0.77560    0.91940    0.45240    1.000
    O27      O        0.74570    0.00570    0.63530    1.000
    O28      O        0.92050    0.91320    0.60510    1.000
    O29      O        0.91240    0.79560    0.80700    1.000
    O30      O        0.74190    0.69880    0.73640    1.000
    H9       H        0.86200    0.07700    0.52000    1.000
    H10      H        0.79900    0.72400    0.92100    1.000
    Ga6      Ga       0.25328    0.54033    0.79398    1.000
    P11      P        0.29785    0.27616    0.82242    1.000
    P12      P        0.32729    0.47984    0.55391    1.000
    F11      F        0.40750    0.52720    0.79740    1.000
    F12      F        0.10660    0.54620    0.79440    1.000
    O31      O        0.23600    0.38260    0.83130    1.000
    O32      O        0.27560    0.41940    0.45240    1.000
    O33      O        0.24570    0.50570    0.63530    1.000
    O34      O        0.42050    0.41320    0.60510    1.000
    O35      O        0.41240    0.29560    0.80700    1.000
    O36      O        0.24190    0.19880    0.73640    1.000
    H11      H        0.36200    0.57700    0.52000    1.000
    H12      H        0.29900    0.22400    0.92100    1.000
    Ga7      Ga       0.24672    0.04033    0.70602    1.000
    P13      P        0.20215    0.77616    0.67758    1.000
    P14      P        0.17271    0.97984    0.94609    1.000
    F13      F        0.09250    0.02720    0.70260    1.000
    F14      F        0.39340    0.04620    0.70560    1.000
    O37      O        0.26400    0.88260    0.66870    1.000
    O38      O        0.22440    0.91940    0.04760    1.000
    O39      O        0.25430    0.00570    0.86470    1.000
    O40      O        0.07950    0.91320    0.89490    1.000
    O41      O        0.08760    0.79560    0.69300    1.000
    O42      O        0.25810    0.69880    0.76360    1.000
    H13      H        0.13800    0.07700    0.98000    1.000
    H14      H        0.20100    0.72400    0.57900    1.000
    Ga8      Ga       0.74672    0.54033    0.70602    1.000
    P15      P        0.70215    0.27616    0.67758    1.000
    P16      P        0.67271    0.47984    0.94609    1.000
    F15      F        0.59250    0.52720    0.70260    1.000
    F16      F        0.89340    0.54620    0.70560    1.000
    O43      O        0.76400    0.38260    0.66870    1.000
    O44      O        0.72440    0.41940    0.04760    1.000
    O45      O        0.75430    0.50570    0.86470    1.000
    O46      O        0.57950    0.41320    0.89490    1.000
    O47      O        0.58760    0.29560    0.69300    1.000
    O48      O        0.75810    0.19880    0.76360    1.000
    H15      H        0.63800    0.57700    0.98000    1.000
    H16      H        0.70100    0.22400    0.57900    1.000
    Ga9      Ga       0.00000    0.08896    0.25000    1.000
    Ga10     Ga       0.50000    0.58896    0.25000    1.000
    Ga11     Ga       0.00000    0.91104    0.75000    1.000
    Ga12     Ga       0.50000    0.41104    0.75000    1.000
