# CIF file generated by openbabel 3.1.0, see https://openbabel.org
data_I
_chemical_name_common 'image0'
_cell_length_a 34.651
_cell_length_b 14.9888
_cell_length_c 30.113
_cell_angle_alpha 90
_cell_angle_beta 100.735
_cell_angle_gamma 90
_space_group_name_H-M_alt 'P 1'
_space_group_name_Hall 'P 1'
loop_
    _symmetry_equiv_pos_as_xyz
    x,y,z
loop_
    _atom_site_label
    _atom_site_type_symbol
    _atom_site_fract_x
    _atom_site_fract_y
    _atom_site_fract_z
    _atom_site_occupancy
    Zn1      Zn       0.16838    0.36350    0.76855    1.000
    I1       I        0.12346    0.34561    0.69263    1.000
    I2       I        0.23033    0.27220    0.79546    1.000
    Zn2      Zn       0.86789    0.59983    0.94978    1.000
    I3       I        0.84213    0.57410    0.02138    1.000
    I4       I        0.88230    0.74384    0.91713    1.000
    Zn3      Zn       0.07813    0.87215    0.09215    1.000
    I5       I        0.02395    0.84306    0.13660    1.000
    I6       I        0.11705    0.76130    0.05500    1.000
    N1       N        0.13750    0.35030    0.82120    1.000
    C1       C        0.14810    0.29550    0.85600    1.000
    H1       H        0.17300    0.26750    0.85960    1.000
    C2       C        0.12440    0.27730    0.88730    1.000
    H2       H        0.13270    0.23640    0.91130    1.000
    C3       C        0.08888    0.31970    0.88300    1.000
    C4       C        0.07770    0.37660    0.84590    1.000
    H3       H        0.05290    0.40580    0.84130    1.000
    C5       C        0.10260    0.38970    0.81670    1.000
    H4       H        0.09470    0.42890    0.79190    1.000
    N2       N        0.91567    0.51650    0.95261    1.000
    C6       C        0.93178    0.46990    0.98930    1.000
    H5       H        0.92130    0.47600    0.01610    1.000
    C7       C        0.96349    0.41290    0.98929    1.000
    H6       H        0.97430    0.37990    0.01560    1.000
    C8       C        0.97890    0.40490    0.95057    1.000
    C9       C        0.96160    0.45180    0.91230    1.000
    H7       H        0.97120    0.44650    0.88490    1.000
    C10      C        0.93000    0.50640    0.91520    1.000
    H8       H        0.91800    0.53830    0.88890    1.000
    N3       N        0.06027    0.97540    0.04634    1.000
    C11      C        0.03234    0.03400    0.05170    1.000
    H9       H        0.01620    0.02100    0.07320    1.000
    C12      C        0.02585    0.11210    0.02756    1.000
    H10      H        0.00590    0.15220    0.03270    1.000
    C13      C        0.04874    0.13160    0.99567    1.000
    C14      C        0.07704    0.06870    0.98852    1.000
    H11      H        0.09280    0.07870    0.96630    1.000
    C15      C        0.08150    0.99240    0.01422    1.000
    H12      H        0.10040    0.94970    0.00910    1.000
    C16      C        0.06281    0.30300    0.91593    1.000
    N4       N        0.03404    0.36170    0.91736    1.000
    C17      C        0.01196    0.34260    0.94813    1.000
    N5       N        0.01609    0.27240    0.97582    1.000
    C18      C        0.04455    0.21590    0.96961    1.000
    N6       N        0.06917    0.22860    0.94057    1.000
    N7       N        0.18438    0.50030    0.77569    1.000
    C19      C        0.16400    0.55410    0.74730    1.000
    H13      H        0.14400    0.52980    0.72470    1.000
    C20      C        0.16980    0.64550    0.74790    1.000
    H14      H        0.15440    0.68230    0.72570    1.000
    C21      C        0.19794    0.68230    0.78076    1.000
    C22      C        0.21970    0.62570    0.81070    1.000
    H15      H        0.24010    0.64750    0.83360    1.000
    C23      C        0.21120    0.53360    0.80690    1.000
    H16      H        0.22590    0.49420    0.82830    1.000
    N8       N        0.32698    0.03490    0.90126    1.000
    C24      C        0.30380    0.08010    0.86860    1.000
    H17      H        0.30720    0.14280    0.86700    1.000
    C25      C        0.27522    0.04010    0.83730    1.000
    H18      H        0.25950    0.07460    0.81440    1.000
    C26      C        0.26951    0.94880    0.83946    1.000
    C27      C        0.29334    0.90120    0.87319    1.000
    H19      H        0.29020    0.83860    0.87590    1.000
    C28      C        0.32184    0.94630    0.90290    1.000
    H20      H        0.33860    0.91320    0.92560    1.000
    N9       N        0.11928    0.05700    0.63789    1.000
    C29      C        0.14752    0.09800    0.66691    1.000
    H21      H        0.15140    0.16010    0.66310    1.000
    C30      C        0.17150    0.05430    0.70242    1.000
    H22      H        0.19090    0.08620    0.72280    1.000
    C31      C        0.16649    0.96360    0.70757    1.000
    C32      C        0.13820    0.92090    0.67670    1.000
    H23      H        0.13460    0.85830    0.67860    1.000
    C33      C        0.11530    0.96950    0.64290    1.000
    H24      H        0.09570    0.93910    0.62210    1.000
    C34      C        0.20448    0.78080    0.78056    1.000
    N10      N        0.23306    0.81610    0.81139    1.000
    C35      C        0.23870    0.90380    0.80609    1.000
    N11      N        0.21865    0.95460    0.77347    1.000
    C36      C        0.19033    0.91230    0.74503    1.000
    N12      N        0.18135    0.82560    0.74766    1.000
    Zn4      Zn       0.17770    0.36510    0.77870    1.000
    I7       I        0.13340    0.33440    0.70290    1.000
    I8       I        0.24100    0.28380    0.80850    1.000
    Zn5      Zn       0.19560    0.36360    0.80180    1.000
    I9       I        0.16230    0.31150    0.72570    1.000
    I10      I        0.25970    0.30670    0.84540    1.000
    Zn6      Zn       0.86070    0.58170    0.96010    1.000
    I11      I        0.83370    0.52830    0.03210    1.000
    I12      I        0.87280    0.73740    0.93710    1.000
    I13      I        0.02230    0.84410    0.13150    1.000
    I14      I        0.11260    0.76090    0.04840    1.000
    Zn7      Zn       0.66838    0.86350    0.76855    1.000
    I15      I        0.62346    0.84561    0.69263    1.000
    I16      I        0.73033    0.77220    0.79546    1.000
    Zn8      Zn       0.36789    0.09983    0.94978    1.000
    I17      I        0.34213    0.07410    0.02138    1.000
    I18      I        0.38230    0.24384    0.91713    1.000
    Zn9      Zn       0.57813    0.37215    0.09215    1.000
    I19      I        0.52395    0.34306    0.13660    1.000
    I20      I        0.61705    0.26130    0.05500    1.000
    N13      N        0.63750    0.85030    0.82120    1.000
    C37      C        0.64810    0.79550    0.85600    1.000
    H25      H        0.67300    0.76750    0.85960    1.000
    C38      C        0.62440    0.77730    0.88730    1.000
    H26      H        0.63270    0.73640    0.91130    1.000
    C39      C        0.58888    0.81970    0.88300    1.000
    C40      C        0.57770    0.87660    0.84590    1.000
    H27      H        0.55290    0.90580    0.84130    1.000
    C41      C        0.60260    0.88970    0.81670    1.000
    H28      H        0.59470    0.92890    0.79190    1.000
    N14      N        0.41567    0.01650    0.95261    1.000
    C42      C        0.43178    0.96990    0.98930    1.000
    H29      H        0.42130    0.97600    0.01610    1.000
    C43      C        0.46349    0.91290    0.98929    1.000
    H30      H        0.47430    0.87990    0.01560    1.000
    C44      C        0.47890    0.90490    0.95057    1.000
    C45      C        0.46160    0.95180    0.91230    1.000
    H31      H        0.47120    0.94650    0.88490    1.000
    C46      C        0.43000    0.00640    0.91520    1.000
    H32      H        0.41800    0.03830    0.88890    1.000
    N15      N        0.56027    0.47540    0.04634    1.000
    C47      C        0.53234    0.53400    0.05170    1.000
    H33      H        0.51620    0.52100    0.07320    1.000
    C48      C        0.52585    0.61210    0.02756    1.000
    H34      H        0.50590    0.65220    0.03270    1.000
    C49      C        0.54874    0.63160    0.99567    1.000
    C50      C        0.57704    0.56870    0.98852    1.000
    H35      H        0.59280    0.57870    0.96630    1.000
    C51      C        0.58150    0.49240    0.01422    1.000
    H36      H        0.60040    0.44970    0.00910    1.000
    C52      C        0.56281    0.80300    0.91593    1.000
    N16      N        0.53404    0.86170    0.91736    1.000
    C53      C        0.51196    0.84260    0.94813    1.000
    N17      N        0.51609    0.77240    0.97582    1.000
    C54      C        0.54455    0.71590    0.96961    1.000
    N18      N        0.56917    0.72860    0.94057    1.000
    N19      N        0.68438    0.00030    0.77569    1.000
    C55      C        0.66400    0.05410    0.74730    1.000
    H37      H        0.64400    0.02980    0.72470    1.000
    C56      C        0.66980    0.14550    0.74790    1.000
    H38      H        0.65440    0.18230    0.72570    1.000
    C57      C        0.69794    0.18230    0.78076    1.000
    C58      C        0.71970    0.12570    0.81070    1.000
    H39      H        0.74010    0.14750    0.83360    1.000
    C59      C        0.71120    0.03360    0.80690    1.000
    H40      H        0.72590    0.99420    0.82830    1.000
    N20      N        0.82698    0.53490    0.90126    1.000
    C60      C        0.80380    0.58010    0.86860    1.000
    H41      H        0.80720    0.64280    0.86700    1.000
    C61      C        0.77522    0.54010    0.83730    1.000
    H42      H        0.75950    0.57460    0.81440    1.000
    C62      C        0.76951    0.44880    0.83946    1.000
    C63      C        0.79334    0.40120    0.87319    1.000
    H43      H        0.79020    0.33860    0.87590    1.000
    C64      C        0.82184    0.44630    0.90290    1.000
    H44      H        0.83860    0.41320    0.92560    1.000
    N21      N        0.61928    0.55700    0.63789    1.000
    C65      C        0.64752    0.59800    0.66691    1.000
    H45      H        0.65140    0.66010    0.66310    1.000
    C66      C        0.67150    0.55430    0.70242    1.000
    H46      H        0.69090    0.58620    0.72280    1.000
    C67      C        0.66649    0.46360    0.70757    1.000
    C68      C        0.63820    0.42090    0.67670    1.000
    H47      H        0.63460    0.35830    0.67860    1.000
    C69      C        0.61530    0.46950    0.64290    1.000
    H48      H        0.59570    0.43910    0.62210    1.000
    C70      C        0.70448    0.28080    0.78056    1.000
    N22      N        0.73306    0.31610    0.81139    1.000
    C71      C        0.73870    0.40380    0.80609    1.000
    N23      N        0.71865    0.45460    0.77347    1.000
    C72      C        0.69033    0.41230    0.74503    1.000
    N24      N        0.68135    0.32560    0.74766    1.000
    Zn10     Zn       0.67770    0.86510    0.77870    1.000
    I21      I        0.63340    0.83440    0.70290    1.000
    I22      I        0.74100    0.78380    0.80850    1.000
    Zn11     Zn       0.69560    0.86360    0.80180    1.000
    I23      I        0.66230    0.81150    0.72570    1.000
    I24      I        0.75970    0.80670    0.84540    1.000
    Zn12     Zn       0.36070    0.08170    0.96010    1.000
    I25      I        0.33370    0.02830    0.03210    1.000
    I26      I        0.37280    0.23740    0.93710    1.000
    I27      I        0.52230    0.34410    0.13150    1.000
    I28      I        0.61260    0.26090    0.04840    1.000
    Zn13     Zn       0.16838    0.63650    0.26855    1.000
    I29      I        0.12346    0.65439    0.19263    1.000
    I30      I        0.23033    0.72780    0.29546    1.000
    Zn14     Zn       0.86789    0.40017    0.44978    1.000
    I31      I        0.84213    0.42590    0.52138    1.000
    I32      I        0.88230    0.25616    0.41713    1.000
    Zn15     Zn       0.07813    0.12785    0.59215    1.000
    I33      I        0.02395    0.15694    0.63660    1.000
    I34      I        0.11705    0.23870    0.55500    1.000
    N25      N        0.13750    0.64970    0.32120    1.000
    C73      C        0.14810    0.70450    0.35600    1.000
    H49      H        0.17300    0.73250    0.35960    1.000
    C74      C        0.12440    0.72270    0.38730    1.000
    H50      H        0.13270    0.76360    0.41130    1.000
    C75      C        0.08888    0.68030    0.38300    1.000
    C76      C        0.07770    0.62340    0.34590    1.000
    H51      H        0.05290    0.59420    0.34130    1.000
    C77      C        0.10260    0.61030    0.31670    1.000
    H52      H        0.09470    0.57110    0.29190    1.000
    N26      N        0.91567    0.48350    0.45261    1.000
    C78      C        0.93178    0.53010    0.48930    1.000
    H53      H        0.92130    0.52400    0.51610    1.000
    C79      C        0.96349    0.58710    0.48929    1.000
    H54      H        0.97430    0.62010    0.51560    1.000
    C80      C        0.97890    0.59510    0.45057    1.000
    C81      C        0.96160    0.54820    0.41230    1.000
    H55      H        0.97120    0.55350    0.38490    1.000
    C82      C        0.93000    0.49360    0.41520    1.000
    H56      H        0.91800    0.46170    0.38890    1.000
    N27      N        0.06027    0.02460    0.54634    1.000
    C83      C        0.03234    0.96600    0.55170    1.000
    H57      H        0.01620    0.97900    0.57320    1.000
    C84      C        0.02585    0.88790    0.52756    1.000
    H58      H        0.00590    0.84780    0.53270    1.000
    C85      C        0.04874    0.86840    0.49567    1.000
    C86      C        0.07704    0.93130    0.48852    1.000
    H59      H        0.09280    0.92130    0.46630    1.000
    C87      C        0.08150    0.00760    0.51422    1.000
    H60      H        0.10040    0.05030    0.50910    1.000
    C88      C        0.06281    0.69700    0.41593    1.000
    N28      N        0.03404    0.63830    0.41736    1.000
    C89      C        0.01196    0.65740    0.44813    1.000
    N29      N        0.01609    0.72760    0.47582    1.000
    C90      C        0.04455    0.78410    0.46961    1.000
    N30      N        0.06917    0.77140    0.44057    1.000
    N31      N        0.18438    0.49970    0.27569    1.000
    C91      C        0.16400    0.44590    0.24730    1.000
    H61      H        0.14400    0.47020    0.22470    1.000
    C92      C        0.16980    0.35450    0.24790    1.000
    H62      H        0.15440    0.31770    0.22570    1.000
    C93      C        0.19794    0.31770    0.28076    1.000
    C94      C        0.21970    0.37430    0.31070    1.000
    H63      H        0.24010    0.35250    0.33360    1.000
    C95      C        0.21120    0.46640    0.30690    1.000
    H64      H        0.22590    0.50580    0.32830    1.000
    N32      N        0.32698    0.96510    0.40126    1.000
    C96      C        0.30380    0.91990    0.36860    1.000
    H65      H        0.30720    0.85720    0.36700    1.000
    C97      C        0.27522    0.95990    0.33730    1.000
    H66      H        0.25950    0.92540    0.31440    1.000
    C98      C        0.26951    0.05120    0.33946    1.000
    C99      C        0.29334    0.09880    0.37319    1.000
    H67      H        0.29020    0.16140    0.37590    1.000
    C100     C        0.32184    0.05370    0.40290    1.000
    H68      H        0.33860    0.08680    0.42560    1.000
    N33      N        0.11928    0.94300    0.13789    1.000
    C101     C        0.14752    0.90200    0.16691    1.000
    H69      H        0.15140    0.83990    0.16310    1.000
    C102     C        0.17150    0.94570    0.20242    1.000
    H70      H        0.19090    0.91380    0.22280    1.000
    C103     C        0.16649    0.03640    0.20757    1.000
    C104     C        0.13820    0.07910    0.17670    1.000
    H71      H        0.13460    0.14170    0.17860    1.000
    C105     C        0.11530    0.03050    0.14290    1.000
    H72      H        0.09570    0.06090    0.12210    1.000
    C106     C        0.20448    0.21920    0.28056    1.000
    N34      N        0.23306    0.18390    0.31139    1.000
    C107     C        0.23870    0.09620    0.30609    1.000
    N35      N        0.21865    0.04540    0.27347    1.000
    C108     C        0.19033    0.08770    0.24503    1.000
    N36      N        0.18135    0.17440    0.24766    1.000
    Zn16     Zn       0.17770    0.63490    0.27870    1.000
    I35      I        0.13340    0.66560    0.20290    1.000
    I36      I        0.24100    0.71620    0.30850    1.000
    Zn17     Zn       0.19560    0.63640    0.30180    1.000
    I37      I        0.16230    0.68850    0.22570    1.000
    I38      I        0.25970    0.69330    0.34540    1.000
    Zn18     Zn       0.86070    0.41830    0.46010    1.000
    I39      I        0.83370    0.47170    0.53210    1.000
    I40      I        0.87280    0.26260    0.43710    1.000
    I41      I        0.02230    0.15590    0.63150    1.000
    I42      I        0.11260    0.23910    0.54840    1.000
    Zn19     Zn       0.66838    0.13650    0.26855    1.000
    I43      I        0.62346    0.15439    0.19263    1.000
    I44      I        0.73033    0.22780    0.29546    1.000
    Zn20     Zn       0.36789    0.90017    0.44978    1.000
    I45      I        0.34213    0.92590    0.52138    1.000
    I46      I        0.38230    0.75616    0.41713    1.000
    Zn21     Zn       0.57813    0.62785    0.59215    1.000
    I47      I        0.52395    0.65694    0.63660    1.000
    I48      I        0.61705    0.73870    0.55500    1.000
    N37      N        0.63750    0.14970    0.32120    1.000
    C109     C        0.64810    0.20450    0.35600    1.000
    H73      H        0.67300    0.23250    0.35960    1.000
    C110     C        0.62440    0.22270    0.38730    1.000
    H74      H        0.63270    0.26360    0.41130    1.000
    C111     C        0.58888    0.18030    0.38300    1.000
    C112     C        0.57770    0.12340    0.34590    1.000
    H75      H        0.55290    0.09420    0.34130    1.000
    C113     C        0.60260    0.11030    0.31670    1.000
    H76      H        0.59470    0.07110    0.29190    1.000
    N38      N        0.41567    0.98350    0.45261    1.000
    C114     C        0.43178    0.03010    0.48930    1.000
    H77      H        0.42130    0.02400    0.51610    1.000
    C115     C        0.46349    0.08710    0.48929    1.000
    H78      H        0.47430    0.12010    0.51560    1.000
    C116     C        0.47890    0.09510    0.45057    1.000
    C117     C        0.46160    0.04820    0.41230    1.000
    H79      H        0.47120    0.05350    0.38490    1.000
    C118     C        0.43000    0.99360    0.41520    1.000
    H80      H        0.41800    0.96170    0.38890    1.000
    N39      N        0.56027    0.52460    0.54634    1.000
    C119     C        0.53234    0.46600    0.55170    1.000
    H81      H        0.51620    0.47900    0.57320    1.000
    C120     C        0.52585    0.38790    0.52756    1.000
    H82      H        0.50590    0.34780    0.53270    1.000
    C121     C        0.54874    0.36840    0.49567    1.000
    C122     C        0.57704    0.43130    0.48852    1.000
    H83      H        0.59280    0.42130    0.46630    1.000
    C123     C        0.58150    0.50760    0.51422    1.000
    H84      H        0.60040    0.55030    0.50910    1.000
    C124     C        0.56281    0.19700    0.41593    1.000
    N40      N        0.53404    0.13830    0.41736    1.000
    C125     C        0.51196    0.15740    0.44813    1.000
    N41      N        0.51609    0.22760    0.47582    1.000
    C126     C        0.54455    0.28410    0.46961    1.000
    N42      N        0.56917    0.27140    0.44057    1.000
    N43      N        0.68438    0.99970    0.27569    1.000
    C127     C        0.66400    0.94590    0.24730    1.000
    H85      H        0.64400    0.97020    0.22470    1.000
    C128     C        0.66980    0.85450    0.24790    1.000
    H86      H        0.65440    0.81770    0.22570    1.000
    C129     C        0.69794    0.81770    0.28076    1.000
    C130     C        0.71970    0.87430    0.31070    1.000
    H87      H        0.74010    0.85250    0.33360    1.000
    C131     C        0.71120    0.96640    0.30690    1.000
    H88      H        0.72590    0.00580    0.32830    1.000
    N44      N        0.82698    0.46510    0.40126    1.000
    C132     C        0.80380    0.41990    0.36860    1.000
    H89      H        0.80720    0.35720    0.36700    1.000
    C133     C        0.77522    0.45990    0.33730    1.000
    H90      H        0.75950    0.42540    0.31440    1.000
    C134     C        0.76951    0.55120    0.33946    1.000
    C135     C        0.79334    0.59880    0.37319    1.000
    H91      H        0.79020    0.66140    0.37590    1.000
    C136     C        0.82184    0.55370    0.40290    1.000
    H92      H        0.83860    0.58680    0.42560    1.000
    N45      N        0.61928    0.44300    0.13789    1.000
    C137     C        0.64752    0.40200    0.16691    1.000
    H93      H        0.65140    0.33990    0.16310    1.000
    C138     C        0.67150    0.44570    0.20242    1.000
    H94      H        0.69090    0.41380    0.22280    1.000
    C139     C        0.66649    0.53640    0.20757    1.000
    C140     C        0.63820    0.57910    0.17670    1.000
    H95      H        0.63460    0.64170    0.17860    1.000
    C141     C        0.61530    0.53050    0.14290    1.000
    H96      H        0.59570    0.56090    0.12210    1.000
    C142     C        0.70448    0.71920    0.28056    1.000
    N46      N        0.73306    0.68390    0.31139    1.000
    C143     C        0.73870    0.59620    0.30609    1.000
    N47      N        0.71865    0.54540    0.27347    1.000
    C144     C        0.69033    0.58770    0.24503    1.000
    N48      N        0.68135    0.67440    0.24766    1.000
    Zn22     Zn       0.67770    0.13490    0.27870    1.000
    I49      I        0.63340    0.16560    0.20290    1.000
    I50      I        0.74100    0.21620    0.30850    1.000
    Zn23     Zn       0.69560    0.13640    0.30180    1.000
    I51      I        0.66230    0.18850    0.22570    1.000
    I52      I        0.75970    0.19330    0.34540    1.000
    Zn24     Zn       0.36070    0.91830    0.46010    1.000
    I53      I        0.33370    0.97170    0.53210    1.000
    I54      I        0.37280    0.76260    0.43710    1.000
    I55      I        0.52230    0.65590    0.63150    1.000
    I56      I        0.61260    0.73910    0.54840    1.000
    Zn25     Zn       0.83162    0.36350    0.73145    1.000
    I57      I        0.87654    0.34561    0.80737    1.000
    I58      I        0.76967    0.27220    0.70454    1.000
    Zn26     Zn       0.13211    0.59983    0.55022    1.000
    I59      I        0.15787    0.57410    0.47862    1.000
    I60      I        0.11770    0.74384    0.58287    1.000
    Zn27     Zn       0.92187    0.87215    0.40785    1.000
    I61      I        0.97605    0.84306    0.36340    1.000
    I62      I        0.88295    0.76130    0.44500    1.000
    N49      N        0.86250    0.35030    0.67880    1.000
    C145     C        0.85190    0.29550    0.64400    1.000
    H97      H        0.82700    0.26750    0.64040    1.000
    C146     C        0.87560    0.27730    0.61270    1.000
    H98      H        0.86730    0.23640    0.58870    1.000
    C147     C        0.91112    0.31970    0.61700    1.000
    C148     C        0.92230    0.37660    0.65410    1.000
    H99      H        0.94710    0.40580    0.65870    1.000
    C149     C        0.89740    0.38970    0.68330    1.000
    H100     H        0.90530    0.42890    0.70810    1.000
    N50      N        0.08433    0.51650    0.54739    1.000
    C150     C        0.06822    0.46990    0.51070    1.000
    H101     H        0.07870    0.47600    0.48390    1.000
    C151     C        0.03651    0.41290    0.51071    1.000
    H102     H        0.02570    0.37990    0.48440    1.000
    C152     C        0.02110    0.40490    0.54943    1.000
    C153     C        0.03840    0.45180    0.58770    1.000
    H103     H        0.02880    0.44650    0.61510    1.000
    C154     C        0.07000    0.50640    0.58480    1.000
    H104     H        0.08200    0.53830    0.61110    1.000
    N51      N        0.93973    0.97540    0.45366    1.000
    C155     C        0.96766    0.03400    0.44830    1.000
    H105     H        0.98380    0.02100    0.42680    1.000
    C156     C        0.97415    0.11210    0.47244    1.000
    H106     H        0.99410    0.15220    0.46730    1.000
    C157     C        0.95126    0.13160    0.50433    1.000
    C158     C        0.92296    0.06870    0.51148    1.000
    H107     H        0.90720    0.07870    0.53370    1.000
    C159     C        0.91850    0.99240    0.48578    1.000
    H108     H        0.89960    0.94970    0.49090    1.000
    C160     C        0.93719    0.30300    0.58407    1.000
    N52      N        0.96596    0.36170    0.58264    1.000
    C161     C        0.98804    0.34260    0.55187    1.000
    N53      N        0.98391    0.27240    0.52418    1.000
    C162     C        0.95545    0.21590    0.53039    1.000
    N54      N        0.93083    0.22860    0.55943    1.000
    N55      N        0.81562    0.50030    0.72431    1.000
    C163     C        0.83600    0.55410    0.75270    1.000
    H109     H        0.85600    0.52980    0.77530    1.000
    C164     C        0.83020    0.64550    0.75210    1.000
    H110     H        0.84560    0.68230    0.77430    1.000
    C165     C        0.80206    0.68230    0.71924    1.000
    C166     C        0.78030    0.62570    0.68930    1.000
    H111     H        0.75990    0.64750    0.66640    1.000
    C167     C        0.78880    0.53360    0.69310    1.000
    H112     H        0.77410    0.49420    0.67170    1.000
    N56      N        0.67302    0.03490    0.59874    1.000
    C168     C        0.69620    0.08010    0.63140    1.000
    H113     H        0.69280    0.14280    0.63300    1.000
    C169     C        0.72478    0.04010    0.66270    1.000
    H114     H        0.74050    0.07460    0.68560    1.000
    C170     C        0.73049    0.94880    0.66054    1.000
    C171     C        0.70666    0.90120    0.62681    1.000
    H115     H        0.70980    0.83860    0.62410    1.000
    C172     C        0.67816    0.94630    0.59710    1.000
    H116     H        0.66140    0.91320    0.57440    1.000
    N57      N        0.88072    0.05700    0.86211    1.000
    C173     C        0.85248    0.09800    0.83309    1.000
    H117     H        0.84860    0.16010    0.83690    1.000
    C174     C        0.82850    0.05430    0.79758    1.000
    H118     H        0.80910    0.08620    0.77720    1.000
    C175     C        0.83351    0.96360    0.79243    1.000
    C176     C        0.86180    0.92090    0.82330    1.000
    H119     H        0.86540    0.85830    0.82140    1.000
    C177     C        0.88470    0.96950    0.85710    1.000
    H120     H        0.90430    0.93910    0.87790    1.000
    C178     C        0.79552    0.78080    0.71944    1.000
    N58      N        0.76694    0.81610    0.68861    1.000
    C179     C        0.76130    0.90380    0.69391    1.000
    N59      N        0.78135    0.95460    0.72653    1.000
    C180     C        0.80967    0.91230    0.75497    1.000
    N60      N        0.81865    0.82560    0.75234    1.000
    Zn28     Zn       0.82230    0.36510    0.72130    1.000
    I63      I        0.86660    0.33440    0.79710    1.000
    I64      I        0.75900    0.28380    0.69150    1.000
    Zn29     Zn       0.80440    0.36360    0.69820    1.000
    I65      I        0.83770    0.31150    0.77430    1.000
    I66      I        0.74030    0.30670    0.65460    1.000
    Zn30     Zn       0.13930    0.58170    0.53990    1.000
    I67      I        0.16630    0.52830    0.46790    1.000
    I68      I        0.12720    0.73740    0.56290    1.000
    I69      I        0.97770    0.84410    0.36850    1.000
    I70      I        0.88740    0.76090    0.45160    1.000
    Zn31     Zn       0.33162    0.86350    0.73145    1.000
    I71      I        0.37654    0.84561    0.80737    1.000
    I72      I        0.26967    0.77220    0.70454    1.000
    Zn32     Zn       0.63211    0.09983    0.55022    1.000
    I73      I        0.65787    0.07410    0.47862    1.000
    I74      I        0.61770    0.24384    0.58287    1.000
    Zn33     Zn       0.42187    0.37215    0.40785    1.000
    I75      I        0.47605    0.34306    0.36340    1.000
    I76      I        0.38295    0.26130    0.44500    1.000
    N61      N        0.36250    0.85030    0.67880    1.000
    C181     C        0.35190    0.79550    0.64400    1.000
    H121     H        0.32700    0.76750    0.64040    1.000
    C182     C        0.37560    0.77730    0.61270    1.000
    H122     H        0.36730    0.73640    0.58870    1.000
    C183     C        0.41112    0.81970    0.61700    1.000
    C184     C        0.42230    0.87660    0.65410    1.000
    H123     H        0.44710    0.90580    0.65870    1.000
    C185     C        0.39740    0.88970    0.68330    1.000
    H124     H        0.40530    0.92890    0.70810    1.000
    N62      N        0.58433    0.01650    0.54739    1.000
    C186     C        0.56822    0.96990    0.51070    1.000
    H125     H        0.57870    0.97600    0.48390    1.000
    C187     C        0.53651    0.91290    0.51071    1.000
    H126     H        0.52570    0.87990    0.48440    1.000
    C188     C        0.52110    0.90490    0.54943    1.000
    C189     C        0.53840    0.95180    0.58770    1.000
    H127     H        0.52880    0.94650    0.61510    1.000
    C190     C        0.57000    0.00640    0.58480    1.000
    H128     H        0.58200    0.03830    0.61110    1.000
    N63      N        0.43973    0.47540    0.45366    1.000
    C191     C        0.46766    0.53400    0.44830    1.000
    H129     H        0.48380    0.52100    0.42680    1.000
    C192     C        0.47415    0.61210    0.47244    1.000
    H130     H        0.49410    0.65220    0.46730    1.000
    C193     C        0.45126    0.63160    0.50433    1.000
    C194     C        0.42296    0.56870    0.51148    1.000
    H131     H        0.40720    0.57870    0.53370    1.000
    C195     C        0.41850    0.49240    0.48578    1.000
    H132     H        0.39960    0.44970    0.49090    1.000
    C196     C        0.43719    0.80300    0.58407    1.000
    N64      N        0.46596    0.86170    0.58264    1.000
    C197     C        0.48804    0.84260    0.55187    1.000
    N65      N        0.48391    0.77240    0.52418    1.000
    C198     C        0.45545    0.71590    0.53039    1.000
    N66      N        0.43083    0.72860    0.55943    1.000
    N67      N        0.31562    0.00030    0.72431    1.000
    C199     C        0.33600    0.05410    0.75270    1.000
    H133     H        0.35600    0.02980    0.77530    1.000
    C200     C        0.33020    0.14550    0.75210    1.000
    H134     H        0.34560    0.18230    0.77430    1.000
    C201     C        0.30206    0.18230    0.71924    1.000
    C202     C        0.28030    0.12570    0.68930    1.000
    H135     H        0.25990    0.14750    0.66640    1.000
    C203     C        0.28880    0.03360    0.69310    1.000
    H136     H        0.27410    0.99420    0.67170    1.000
    N68      N        0.17302    0.53490    0.59874    1.000
    C204     C        0.19620    0.58010    0.63140    1.000
    H137     H        0.19280    0.64280    0.63300    1.000
    C205     C        0.22478    0.54010    0.66270    1.000
    H138     H        0.24050    0.57460    0.68560    1.000
    C206     C        0.23049    0.44880    0.66054    1.000
    C207     C        0.20666    0.40120    0.62681    1.000
    H139     H        0.20980    0.33860    0.62410    1.000
    C208     C        0.17816    0.44630    0.59710    1.000
    H140     H        0.16140    0.41320    0.57440    1.000
    N69      N        0.38072    0.55700    0.86211    1.000
    C209     C        0.35248    0.59800    0.83309    1.000
    H141     H        0.34860    0.66010    0.83690    1.000
    C210     C        0.32850    0.55430    0.79758    1.000
    H142     H        0.30910    0.58620    0.77720    1.000
    C211     C        0.33351    0.46360    0.79243    1.000
    C212     C        0.36180    0.42090    0.82330    1.000
    H143     H        0.36540    0.35830    0.82140    1.000
    C213     C        0.38470    0.46950    0.85710    1.000
    H144     H        0.40430    0.43910    0.87790    1.000
    C214     C        0.29552    0.28080    0.71944    1.000
    N70      N        0.26694    0.31610    0.68861    1.000
    C215     C        0.26130    0.40380    0.69391    1.000
    N71      N        0.28135    0.45460    0.72653    1.000
    C216     C        0.30967    0.41230    0.75497    1.000
    N72      N        0.31865    0.32560    0.75234    1.000
    Zn34     Zn       0.32230    0.86510    0.72130    1.000
    I77      I        0.36660    0.83440    0.79710    1.000
    I78      I        0.25900    0.78380    0.69150    1.000
    Zn35     Zn       0.30440    0.86360    0.69820    1.000
    I79      I        0.33770    0.81150    0.77430    1.000
    I80      I        0.24030    0.80670    0.65460    1.000
    Zn36     Zn       0.63930    0.08170    0.53990    1.000
    I81      I        0.66630    0.02830    0.46790    1.000
    I82      I        0.62720    0.23740    0.56290    1.000
    I83      I        0.47770    0.34410    0.36850    1.000
    I84      I        0.38740    0.26090    0.45160    1.000
    Zn37     Zn       0.83162    0.63650    0.23145    1.000
    I85      I        0.87654    0.65439    0.30737    1.000
    I86      I        0.76967    0.72780    0.20454    1.000
    Zn38     Zn       0.13211    0.40017    0.05022    1.000
    I87      I        0.15787    0.42590    0.97862    1.000
    I88      I        0.11770    0.25616    0.08287    1.000
    Zn39     Zn       0.92187    0.12785    0.90785    1.000
    I89      I        0.97605    0.15694    0.86340    1.000
    I90      I        0.88295    0.23870    0.94500    1.000
    N73      N        0.86250    0.64970    0.17880    1.000
    C217     C        0.85190    0.70450    0.14400    1.000
    H145     H        0.82700    0.73250    0.14040    1.000
    C218     C        0.87560    0.72270    0.11270    1.000
    H146     H        0.86730    0.76360    0.08870    1.000
    C219     C        0.91112    0.68030    0.11700    1.000
    C220     C        0.92230    0.62340    0.15410    1.000
    H147     H        0.94710    0.59420    0.15870    1.000
    C221     C        0.89740    0.61030    0.18330    1.000
    H148     H        0.90530    0.57110    0.20810    1.000
    N74      N        0.08433    0.48350    0.04739    1.000
    C222     C        0.06822    0.53010    0.01070    1.000
    H149     H        0.07870    0.52400    0.98390    1.000
    C223     C        0.03651    0.58710    0.01071    1.000
    H150     H        0.02570    0.62010    0.98440    1.000
    C224     C        0.02110    0.59510    0.04943    1.000
    C225     C        0.03840    0.54820    0.08770    1.000
    H151     H        0.02880    0.55350    0.11510    1.000
    C226     C        0.07000    0.49360    0.08480    1.000
    H152     H        0.08200    0.46170    0.11110    1.000
    N75      N        0.93973    0.02460    0.95366    1.000
    C227     C        0.96766    0.96600    0.94830    1.000
    H153     H        0.98380    0.97900    0.92680    1.000
    C228     C        0.97415    0.88790    0.97244    1.000
    H154     H        0.99410    0.84780    0.96730    1.000
    C229     C        0.95126    0.86840    0.00433    1.000
    C230     C        0.92296    0.93130    0.01148    1.000
    H155     H        0.90720    0.92130    0.03370    1.000
    C231     C        0.91850    0.00760    0.98578    1.000
    H156     H        0.89960    0.05030    0.99090    1.000
    C232     C        0.93719    0.69700    0.08407    1.000
    N76      N        0.96596    0.63830    0.08264    1.000
    C233     C        0.98804    0.65740    0.05187    1.000
    N77      N        0.98391    0.72760    0.02418    1.000
    C234     C        0.95545    0.78410    0.03039    1.000
    N78      N        0.93083    0.77140    0.05943    1.000
    N79      N        0.81562    0.49970    0.22431    1.000
    C235     C        0.83600    0.44590    0.25270    1.000
    H157     H        0.85600    0.47020    0.27530    1.000
    C236     C        0.83020    0.35450    0.25210    1.000
    H158     H        0.84560    0.31770    0.27430    1.000
    C237     C        0.80206    0.31770    0.21924    1.000
    C238     C        0.78030    0.37430    0.18930    1.000
    H159     H        0.75990    0.35250    0.16640    1.000
    C239     C        0.78880    0.46640    0.19310    1.000
    H160     H        0.77410    0.50580    0.17170    1.000
    N80      N        0.67302    0.96510    0.09874    1.000
    C240     C        0.69620    0.91990    0.13140    1.000
    H161     H        0.69280    0.85720    0.13300    1.000
    C241     C        0.72478    0.95990    0.16270    1.000
    H162     H        0.74050    0.92540    0.18560    1.000
    C242     C        0.73049    0.05120    0.16054    1.000
    C243     C        0.70666    0.09880    0.12681    1.000
    H163     H        0.70980    0.16140    0.12410    1.000
    C244     C        0.67816    0.05370    0.09710    1.000
    H164     H        0.66140    0.08680    0.07440    1.000
    N81      N        0.88072    0.94300    0.36211    1.000
    C245     C        0.85248    0.90200    0.33309    1.000
    H165     H        0.84860    0.83990    0.33690    1.000
    C246     C        0.82850    0.94570    0.29758    1.000
    H166     H        0.80910    0.91380    0.27720    1.000
    C247     C        0.83351    0.03640    0.29243    1.000
    C248     C        0.86180    0.07910    0.32330    1.000
    H167     H        0.86540    0.14170    0.32140    1.000
    C249     C        0.88470    0.03050    0.35710    1.000
    H168     H        0.90430    0.06090    0.37790    1.000
    C250     C        0.79552    0.21920    0.21944    1.000
    N82      N        0.76694    0.18390    0.18861    1.000
    C251     C        0.76130    0.09620    0.19391    1.000
    N83      N        0.78135    0.04540    0.22653    1.000
    C252     C        0.80967    0.08770    0.25497    1.000
    N84      N        0.81865    0.17440    0.25234    1.000
    Zn40     Zn       0.82230    0.63490    0.22130    1.000
    I91      I        0.86660    0.66560    0.29710    1.000
    I92      I        0.75900    0.71620    0.19150    1.000
    Zn41     Zn       0.80440    0.63640    0.19820    1.000
    I93      I        0.83770    0.68850    0.27430    1.000
    I94      I        0.74030    0.69330    0.15460    1.000
    Zn42     Zn       0.13930    0.41830    0.03990    1.000
    I95      I        0.16630    0.47170    0.96790    1.000
    I96      I        0.12720    0.26260    0.06290    1.000
    I97      I        0.97770    0.15590    0.86850    1.000
    I98      I        0.88740    0.23910    0.95160    1.000
    Zn43     Zn       0.33162    0.13650    0.23145    1.000
    I99      I        0.37654    0.15439    0.30737    1.000
    I100     I        0.26967    0.22780    0.20454    1.000
    Zn44     Zn       0.63211    0.90017    0.05022    1.000
    I101     I        0.65787    0.92590    0.97862    1.000
    I102     I        0.61770    0.75616    0.08287    1.000
    Zn45     Zn       0.42187    0.62785    0.90785    1.000
    I103     I        0.47605    0.65694    0.86340    1.000
    I104     I        0.38295    0.73870    0.94500    1.000
    N85      N        0.36250    0.14970    0.17880    1.000
    C253     C        0.35190    0.20450    0.14400    1.000
    H169     H        0.32700    0.23250    0.14040    1.000
    C254     C        0.37560    0.22270    0.11270    1.000
    H170     H        0.36730    0.26360    0.08870    1.000
    C255     C        0.41112    0.18030    0.11700    1.000
    C256     C        0.42230    0.12340    0.15410    1.000
    H171     H        0.44710    0.09420    0.15870    1.000
    C257     C        0.39740    0.11030    0.18330    1.000
    H172     H        0.40530    0.07110    0.20810    1.000
    N86      N        0.58433    0.98350    0.04739    1.000
    C258     C        0.56822    0.03010    0.01070    1.000
    H173     H        0.57870    0.02400    0.98390    1.000
    C259     C        0.53651    0.08710    0.01071    1.000
    H174     H        0.52570    0.12010    0.98440    1.000
    C260     C        0.52110    0.09510    0.04943    1.000
    C261     C        0.53840    0.04820    0.08770    1.000
    H175     H        0.52880    0.05350    0.11510    1.000
    C262     C        0.57000    0.99360    0.08480    1.000
    H176     H        0.58200    0.96170    0.11110    1.000
    N87      N        0.43973    0.52460    0.95366    1.000
    C263     C        0.46766    0.46600    0.94830    1.000
    H177     H        0.48380    0.47900    0.92680    1.000
    C264     C        0.47415    0.38790    0.97244    1.000
    H178     H        0.49410    0.34780    0.96730    1.000
    C265     C        0.45126    0.36840    0.00433    1.000
    C266     C        0.42296    0.43130    0.01148    1.000
    H179     H        0.40720    0.42130    0.03370    1.000
    C267     C        0.41850    0.50760    0.98578    1.000
    H180     H        0.39960    0.55030    0.99090    1.000
    C268     C        0.43719    0.19700    0.08407    1.000
    N88      N        0.46596    0.13830    0.08264    1.000
    C269     C        0.48804    0.15740    0.05187    1.000
    N89      N        0.48391    0.22760    0.02418    1.000
    C270     C        0.45545    0.28410    0.03039    1.000
    N90      N        0.43083    0.27140    0.05943    1.000
    N91      N        0.31562    0.99970    0.22431    1.000
    C271     C        0.33600    0.94590    0.25270    1.000
    H181     H        0.35600    0.97020    0.27530    1.000
    C272     C        0.33020    0.85450    0.25210    1.000
    H182     H        0.34560    0.81770    0.27430    1.000
    C273     C        0.30206    0.81770    0.21924    1.000
    C274     C        0.28030    0.87430    0.18930    1.000
    H183     H        0.25990    0.85250    0.16640    1.000
    C275     C        0.28880    0.96640    0.19310    1.000
    H184     H        0.27410    0.00580    0.17170    1.000
    N92      N        0.17302    0.46510    0.09874    1.000
    C276     C        0.19620    0.41990    0.13140    1.000
    H185     H        0.19280    0.35720    0.13300    1.000
    C277     C        0.22478    0.45990    0.16270    1.000
    H186     H        0.24050    0.42540    0.18560    1.000
    C278     C        0.23049    0.55120    0.16054    1.000
    C279     C        0.20666    0.59880    0.12681    1.000
    H187     H        0.20980    0.66140    0.12410    1.000
    C280     C        0.17816    0.55370    0.09710    1.000
    H188     H        0.16140    0.58680    0.07440    1.000
    N93      N        0.38072    0.44300    0.36211    1.000
    C281     C        0.35248    0.40200    0.33309    1.000
    H189     H        0.34860    0.33990    0.33690    1.000
    C282     C        0.32850    0.44570    0.29758    1.000
    H190     H        0.30910    0.41380    0.27720    1.000
    C283     C        0.33351    0.53640    0.29243    1.000
    C284     C        0.36180    0.57910    0.32330    1.000
    H191     H        0.36540    0.64170    0.32140    1.000
    C285     C        0.38470    0.53050    0.35710    1.000
    H192     H        0.40430    0.56090    0.37790    1.000
    C286     C        0.29552    0.71920    0.21944    1.000
    N94      N        0.26694    0.68390    0.18861    1.000
    C287     C        0.26130    0.59620    0.19391    1.000
    N95      N        0.28135    0.54540    0.22653    1.000
    C288     C        0.30967    0.58770    0.25497    1.000
    N96      N        0.31865    0.67440    0.25234    1.000
    Zn46     Zn       0.32230    0.13490    0.22130    1.000
    I105     I        0.36660    0.16560    0.29710    1.000
    I106     I        0.25900    0.21620    0.19150    1.000
    Zn47     Zn       0.30440    0.13640    0.19820    1.000
    I107     I        0.33770    0.18850    0.27430    1.000
    I108     I        0.24030    0.19330    0.15460    1.000
    Zn48     Zn       0.63930    0.91830    0.03990    1.000
    I109     I        0.66630    0.97170    0.96790    1.000
    I110     I        0.62720    0.76260    0.06290    1.000
    I111     I        0.47770    0.65590    0.86850    1.000
    I112     I        0.38740    0.73910    0.95160    1.000
