data_functionalizedCrystal
_audit_creation_method	'EQeq! by Chris Wilmer'
_symmetry_space_group_name_H-M	'P1'
_symmetry_Int_Tables_number	1
_symmetry_cell_setting	triclinic
loop_
_symmetry_equiv_pos_as_xyz
  x,y,z
_cell_length_a	14.9879
_cell_length_b	14.9879
_cell_length_c	26.112
_cell_angle_alpha	82.7315
_cell_angle_beta	82.7315
_cell_angle_gamma	78.7053
loop_
_atom_site_label
_atom_site_type_symbol
_atom_site_fract_x
_atom_site_fract_y
_atom_site_fract_z
_atom_site_charge
Mof_Cd	Cd	0.25893	0.90494	0.58881	0.523
Mof_Cd	Cd	0.09506	0.74107	0.91119	0.523
Mof_Cd	Cd	0.74107	0.09506	0.41119	0.522
Mof_Cd	Cd	0.90494	0.25893	0.08881	0.522
Mof_Cd	Cd	0.35538	0.64462	0.25	0.502
Mof_Cd	Cd	0.64462	0.35538	0.75	0.502
Mof_Si	Si	0.24364	0.16499	0.3199	0.879
Mof_Si	Si	0.83501	0.75636	0.1801	0.878
Mof_Si	Si	0.75636	0.83501	0.6801	0.879
Mof_Si	Si	0.16499	0.24364	0.8199	0.878
Mof_H 	H 	0.3221	0.7985	0.402	0.018
Mof_H 	H 	0.2565	0.0643	0.4201	-0.026
Mof_H 	H 	0.2873	0.9831	0.278	-0.02
Mof_H 	H 	0.9252	0.3206	0.4368	0.033
Mof_H 	H 	0.1863	0.3197	0.3825	-0.017
Mof_H 	H 	0.0587	0.1301	0.3464	-0.027
Mof_H 	H 	0.4228	0.1162	0.3636	-0.018
Mof_H 	H 	0.2833	0.3477	0.296	-0.027
Mof_H 	H 	0.5241	0.3469	0.346	0.026
Mof_H 	H 	0.3656	0.1642	0.2268	-0.03
Mof_H 	H 	0.095	0.1992	0.2499	-0.025
Mof_H 	H 	0.2176	0.1996	0.1062	0.026
Mof_H 	H 	0.2015	0.6779	0.098	0.018
Mof_H 	H 	0.9357	0.7435	0.0799	-0.026
Mof_H 	H 	0.0169	0.7127	0.222	-0.02
Mof_H 	H 	0.6794	0.0748	0.0632	0.033
Mof_H 	H 	0.6803	0.8137	0.1175	-0.017
Mof_H 	H 	0.8699	0.9413	0.1536	-0.026
Mof_H 	H 	0.8838	0.5772	0.1364	-0.018
Mof_H 	H 	0.6523	0.7167	0.204	-0.027
Mof_H 	H 	0.6531	0.4759	0.154	0.026
Mof_H 	H 	0.8358	0.6344	0.2732	-0.03
Mof_H 	H 	0.8008	0.905	0.2501	-0.025
Mof_H 	H 	0.8004	0.7824	0.3938	0.026
Mof_H 	H 	0.6779	0.2015	0.598	0.018
Mof_H 	H 	0.7435	0.9357	0.5799	-0.026
Mof_H 	H 	0.7127	0.0169	0.722	-0.02
Mof_H 	H 	0.0748	0.6794	0.5632	0.033
Mof_H 	H 	0.8137	0.6803	0.6175	-0.017
Mof_H 	H 	0.9413	0.8699	0.6536	-0.027
Mof_H 	H 	0.5772	0.8838	0.6364	-0.018
Mof_H 	H 	0.7167	0.6523	0.704	-0.027
Mof_H 	H 	0.4759	0.6531	0.654	0.026
Mof_H 	H 	0.6344	0.8358	0.7732	-0.03
Mof_H 	H 	0.905	0.8008	0.7501	-0.025
Mof_H 	H 	0.7824	0.8004	0.8938	0.026
Mof_H 	H 	0.7985	0.3221	0.902	0.018
Mof_H 	H 	0.0643	0.2565	0.9201	-0.026
Mof_H 	H 	0.9831	0.2873	0.778	-0.02
Mof_H 	H 	0.3206	0.9252	0.9368	0.033
Mof_H 	H 	0.3197	0.1863	0.8825	-0.017
Mof_H 	H 	0.1301	0.0587	0.8464	-0.026
Mof_H 	H 	0.1162	0.4228	0.8636	-0.018
Mof_H 	H 	0.3477	0.2833	0.796	-0.027
Mof_H 	H 	0.3469	0.5241	0.846	0.026
Mof_H 	H 	0.1642	0.3656	0.7268	-0.03
Mof_H 	H 	0.1992	0.095	0.7499	-0.025
Mof_H 	H 	0.1996	0.2176	0.6062	0.026
Mof_C 	C 	0.32209	0.80253	0.30006	0.341
Mof_C 	C 	0.30637	0.87887	0.33462	-0.171
Mof_C 	C 	0.30878	0.85906	0.38783	0.108
Mof_C 	C 	0.29164	0.92826	0.41997	-0.178
Mof_C 	C 	0.2706	0.0178	0.39832	0.164
Mof_C 	C 	0.26991	0.04079	0.34498	-0.342
Mof_C 	C 	0.28777	0.96963	0.31376	0.167
Mof_C 	C 	0.29185	0.90629	0.47847	0.379
Mof_C 	C 	0.89395	0.17611	0.39796	0.417
Mof_C 	C 	0.9785	0.21912	0.39226	-0.193
Mof_C 	C 	0.97833	0.29481	0.41753	0.109
Mof_C 	C 	0.05606	0.33282	0.41454	-0.174
Mof_C 	C 	0.13414	0.2939	0.38486	0.16
Mof_C 	C 	0.1378	0.21784	0.35851	-0.352
Mof_C 	C 	0.0585	0.18134	0.36317	0.17
Mof_C 	C 	0.05725	0.41183	0.44279	0.337
Mof_C 	C 	0.57349	0.17295	0.37888	0.342
Mof_C 	C 	0.48732	0.22404	0.35714	-0.162
Mof_C 	C 	0.4174	0.17796	0.35166	0.161
Mof_C 	C 	0.33977	0.22267	0.32863	-0.337
Mof_C 	C 	0.33412	0.31648	0.312	0.157
Mof_C 	C 	0.40167	0.36349	0.31865	-0.165
Mof_C 	C 	0.4781	0.3159	0.34134	0.103
Mof_C 	C 	0.39318	0.46478	0.3015	0.343
Mof_C 	C 	0.3949	0.17852	0.1259	0.311
Mof_C 	C 	0.30541	0.18203	0.16046	-0.158
Mof_C 	C 	0.30894	0.17338	0.21414	0.154
Mof_C 	C 	0.23084	0.17792	0.24908	-0.349
Mof_C 	C 	0.149	0.1937	0.22769	0.173
Mof_C 	C 	0.14329	0.20189	0.17459	-0.172
Mof_C 	C 	0.22096	0.19526	0.14176	0.103
Mof_C 	C 	0.05185	0.22005	0.15262	0.333
Mof_C 	C 	0.19747	0.67791	0.19994	0.341
Mof_C 	C 	0.12113	0.69363	0.16538	-0.171
Mof_C 	C 	0.14094	0.69122	0.11217	0.107
Mof_C 	C 	0.07174	0.70836	0.08003	-0.178
Mof_C 	C 	0.9822	0.7294	0.10168	0.165
Mof_C 	C 	0.95921	0.73009	0.15502	-0.342
Mof_C 	C 	0.03037	0.71223	0.18624	0.167
Mof_C 	C 	0.09371	0.70815	0.02153	0.377
Mof_C 	C 	0.82389	0.10605	0.10204	0.417
Mof_C 	C 	0.78088	0.0215	0.10774	-0.192
Mof_C 	C 	0.70519	0.02167	0.08247	0.11
Mof_C 	C 	0.66718	0.94394	0.08546	-0.175
Mof_C 	C 	0.7061	0.86586	0.11514	0.16
Mof_C 	C 	0.78216	0.8622	0.14149	-0.352
Mof_C 	C 	0.81866	0.9415	0.13683	0.168
Mof_C 	C 	0.58817	0.94275	0.05721	0.336
Mof_C 	C 	0.82705	0.42651	0.12112	0.342
Mof_C 	C 	0.77596	0.51268	0.14286	-0.162
Mof_C 	C 	0.82204	0.5826	0.14834	0.161
Mof_C 	C 	0.77733	0.66023	0.17137	-0.337
Mof_C 	C 	0.68352	0.66588	0.188	0.157
Mof_C 	C 	0.63651	0.59833	0.18135	-0.165
Mof_C 	C 	0.6841	0.5219	0.15866	0.103
Mof_C 	C 	0.53522	0.60682	0.1985	0.343
Mof_C 	C 	0.82148	0.6051	0.3741	0.311
Mof_C 	C 	0.81797	0.69459	0.33954	-0.158
Mof_C 	C 	0.82662	0.69106	0.28586	0.154
Mof_C 	C 	0.82208	0.76916	0.25092	-0.349
Mof_C 	C 	0.8063	0.851	0.27231	0.173
Mof_C 	C 	0.79811	0.85671	0.32541	-0.172
Mof_C 	C 	0.80474	0.77904	0.35824	0.103
Mof_C 	C 	0.77995	0.94815	0.34738	0.333
Mof_C 	C 	0.67791	0.19747	0.69994	0.341
Mof_C 	C 	0.69363	0.12113	0.66538	-0.171
Mof_C 	C 	0.69122	0.14094	0.61217	0.108
Mof_C 	C 	0.70836	0.07174	0.58003	-0.178
Mof_C 	C 	0.7294	0.9822	0.60168	0.164
Mof_C 	C 	0.73009	0.95921	0.65502	-0.342
Mof_C 	C 	0.71223	0.03037	0.68624	0.167
Mof_C 	C 	0.70815	0.09371	0.52153	0.379
Mof_C 	C 	0.10605	0.82389	0.60204	0.417
Mof_C 	C 	0.0215	0.78088	0.60774	-0.193
Mof_C 	C 	0.02167	0.70519	0.58247	0.109
Mof_C 	C 	0.94394	0.66718	0.58546	-0.174
Mof_C 	C 	0.86586	0.7061	0.61514	0.16
Mof_C 	C 	0.8622	0.78216	0.64149	-0.352
Mof_C 	C 	0.9415	0.81866	0.63683	0.17
Mof_C 	C 	0.94275	0.58817	0.55721	0.337
Mof_C 	C 	0.42651	0.82705	0.62112	0.342
Mof_C 	C 	0.51268	0.77596	0.64286	-0.162
Mof_C 	C 	0.5826	0.82204	0.64834	0.161
Mof_C 	C 	0.66023	0.77733	0.67137	-0.337
Mof_C 	C 	0.66588	0.68352	0.688	0.157
Mof_C 	C 	0.59833	0.63651	0.68135	-0.165
Mof_C 	C 	0.5219	0.6841	0.65866	0.103
Mof_C 	C 	0.60682	0.53522	0.6985	0.343
Mof_C 	C 	0.6051	0.82148	0.8741	0.311
Mof_C 	C 	0.69459	0.81797	0.83954	-0.158
Mof_C 	C 	0.69106	0.82662	0.78586	0.154
Mof_C 	C 	0.76916	0.82208	0.75092	-0.349
Mof_C 	C 	0.851	0.8063	0.77231	0.173
Mof_C 	C 	0.85671	0.79811	0.82541	-0.172
Mof_C 	C 	0.77904	0.80474	0.85824	0.103
Mof_C 	C 	0.94815	0.77995	0.84738	0.333
Mof_C 	C 	0.80253	0.32209	0.80006	0.341
Mof_C 	C 	0.87887	0.30637	0.83462	-0.171
Mof_C 	C 	0.85906	0.30878	0.88783	0.107
Mof_C 	C 	0.92826	0.29164	0.91997	-0.178
Mof_C 	C 	0.0178	0.2706	0.89832	0.165
Mof_C 	C 	0.04079	0.26991	0.84498	-0.342
Mof_C 	C 	0.96963	0.28777	0.81376	0.167
Mof_C 	C 	0.90629	0.29185	0.97847	0.377
Mof_C 	C 	0.17611	0.89395	0.89796	0.417
Mof_C 	C 	0.21912	0.9785	0.89226	-0.192
Mof_C 	C 	0.29481	0.97833	0.91753	0.11
Mof_C 	C 	0.33282	0.05606	0.91454	-0.175
Mof_C 	C 	0.2939	0.13414	0.88486	0.16
Mof_C 	C 	0.21784	0.1378	0.85851	-0.352
Mof_C 	C 	0.18134	0.0585	0.86317	0.168
Mof_C 	C 	0.41183	0.05725	0.94279	0.336
Mof_C 	C 	0.17295	0.57349	0.87888	0.342
Mof_C 	C 	0.22404	0.48732	0.85714	-0.162
Mof_C 	C 	0.17796	0.4174	0.85166	0.161
Mof_C 	C 	0.22267	0.33977	0.82863	-0.337
Mof_C 	C 	0.31648	0.33412	0.812	0.157
Mof_C 	C 	0.36349	0.40167	0.81865	-0.165
Mof_C 	C 	0.3159	0.4781	0.84134	0.103
Mof_C 	C 	0.46478	0.39318	0.8015	0.343
Mof_C 	C 	0.17852	0.3949	0.6259	0.311
Mof_C 	C 	0.18203	0.30541	0.66046	-0.158
Mof_C 	C 	0.17338	0.30894	0.71414	0.154
Mof_C 	C 	0.17792	0.23084	0.74908	-0.349
Mof_C 	C 	0.1937	0.149	0.72769	0.173
Mof_C 	C 	0.20189	0.14329	0.67459	-0.172
Mof_C 	C 	0.19526	0.22096	0.64176	0.103
Mof_C 	C 	0.22005	0.05185	0.65262	0.333
Mof_O 	O 	0.32022	0.82108	0.25276	-0.263
Mof_O 	O 	0.33853	0.72207	0.3211	-0.284
Mof_O 	O 	0.32541	0.83053	0.49614	-0.264
Mof_O 	O 	0.26033	0.96667	0.50589	-0.303
Mof_O 	O 	0.89935	0.10017	0.38768	-0.315
Mof_O 	O 	0.8223	0.21726	0.41238	-0.294
Mof_O 	O 	0.12573	0.44651	0.43749	-0.217
Mof_O 	O 	0.98825	0.43921	0.47306	-0.192
Mof_O 	O 	0.32905	0.50149	0.27525	-0.29
Mof_O 	O 	0.45004	0.50708	0.31367	-0.267
Mof_O 	O 	0.64296	0.20784	0.37086	-0.267
Mof_O 	O 	0.57403	0.09679	0.40361	-0.259
Mof_O 	O 	0.46906	0.16098	0.14283	-0.251
Mof_O 	O 	0.38218	0.19686	0.07721	-0.207
Mof_O 	O 	0.05344	0.22654	0.10424	-0.28
Mof_O 	O 	0.97991	0.22763	0.18274	-0.25
Mof_O 	O 	0.17892	0.67978	0.24724	-0.263
Mof_O 	O 	0.27793	0.66147	0.1789	-0.284
Mof_O 	O 	0.16947	0.67459	0.00386	-0.264
Mof_O 	O 	0.03333	0.73967	0.99411	-0.301
Mof_O 	O 	0.89983	0.10065	0.11232	-0.314
Mof_O 	O 	0.78274	0.1777	0.08762	-0.294
Mof_O 	O 	0.55349	0.87427	0.06251	-0.218
Mof_O 	O 	0.56079	0.01175	0.02694	-0.191
Mof_O 	O 	0.49851	0.67095	0.22475	-0.29
Mof_O 	O 	0.49292	0.54996	0.18633	-0.267
Mof_O 	O 	0.79216	0.35704	0.12914	-0.267
Mof_O 	O 	0.90321	0.42597	0.09639	-0.259
Mof_O 	O 	0.83902	0.53094	0.35717	-0.251
Mof_O 	O 	0.80314	0.61782	0.42279	-0.207
Mof_O 	O 	0.77346	0.94656	0.39576	-0.279
Mof_O 	O 	0.77237	0.02009	0.31726	-0.25
Mof_O 	O 	0.67978	0.17892	0.74724	-0.263
Mof_O 	O 	0.66147	0.27793	0.6789	-0.284
Mof_O 	O 	0.67459	0.16947	0.50386	-0.264
Mof_O 	O 	0.73967	0.03333	0.49411	-0.303
Mof_O 	O 	0.10065	0.89983	0.61232	-0.315
Mof_O 	O 	0.1777	0.78274	0.58762	-0.294
Mof_O 	O 	0.87427	0.55349	0.56251	-0.217
Mof_O 	O 	0.01175	0.56079	0.52694	-0.192
Mof_O 	O 	0.67095	0.49851	0.72475	-0.29
Mof_O 	O 	0.54996	0.49292	0.68633	-0.267
Mof_O 	O 	0.35704	0.79216	0.62914	-0.267
Mof_O 	O 	0.42597	0.90321	0.59639	-0.259
Mof_O 	O 	0.53094	0.83902	0.85717	-0.251
Mof_O 	O 	0.61782	0.80314	0.92279	-0.207
Mof_O 	O 	0.94656	0.77346	0.89576	-0.28
Mof_O 	O 	0.02009	0.77237	0.81726	-0.25
Mof_O 	O 	0.82108	0.32022	0.75276	-0.263
Mof_O 	O 	0.72207	0.33853	0.8211	-0.284
Mof_O 	O 	0.83053	0.32541	0.99614	-0.264
Mof_O 	O 	0.96667	0.26033	0.00589	-0.301
Mof_O 	O 	0.10017	0.89935	0.88768	-0.314
Mof_O 	O 	0.21726	0.8223	0.91238	-0.294
Mof_O 	O 	0.44651	0.12573	0.93749	-0.218
Mof_O 	O 	0.43921	0.98825	0.97306	-0.191
Mof_O 	O 	0.50149	0.32905	0.77525	-0.29
Mof_O 	O 	0.50708	0.45004	0.81367	-0.267
Mof_O 	O 	0.20784	0.64296	0.87086	-0.267
Mof_O 	O 	0.09679	0.57403	0.90361	-0.259
Mof_O 	O 	0.16098	0.46906	0.64283	-0.251
Mof_O 	O 	0.19686	0.38218	0.57721	-0.207
Mof_O 	O 	0.22654	0.05344	0.60424	-0.279
Mof_O 	O 	0.22763	0.97991	0.68274	-0.25
Mof_H 	H 	0.4136	0.351	0.2	0.168
Mof_H 	H 	0.4878	0.3846	0.1581	0.186
Mof_H 	H 	0.4202	0.3274	0.1426	0.18
Mof_H 	H 	0.342	0.5772	0.0998	0.18
Mof_H 	H 	0.3745	0.4873	0.0726	0.172
Mof_H 	H 	0.4438	0.5262	0.0998	0.183
Mof_H 	H 	0.302	0.4494	0.1489	0.104
Mof_H 	H 	0.3512	0.4992	0.1764	0.131
Mof_C 	C 	0.4264	0.3728	0.1641	-0.417
Mof_C 	C 	0.3814	0.5184	0.1014	-0.41
Mof_N 	N 	0.35704	0.46384	0.15033	-0.134
Mof_H 	H 	0.4997	0.8563	0.235	0.164
Mof_H 	H 	0.5783	0.9061	0.2075	0.144
Mof_H 	H 	0.4794	0.9622	0.2193	0.151
Mof_H 	H 	0.6043	0.0515	0.2761	0.162
Mof_H 	H 	0.5266	0.0528	0.241	0.149
Mof_H 	H 	0.6254	0.999	0.2265	0.149
Mof_H 	H 	0.6023	0.8733	0.3056	0.119
Mof_H 	H 	0.5075	0.9243	0.3208	0.123
Mof_C 	C 	0.52415	0.91155	0.23169	-0.358
Mof_C 	C 	0.58026	0.01646	0.25464	-0.356
Mof_N 	N 	0.55415	0.91509	0.29555	-0.195
Mof_H 	H 	0.8573	0.8629	0.4635	0.179
Mof_H 	H 	0.8995	0.9039	0.5051	0.156
Mof_H 	H 	0.9419	0.8057	0.4896	0.16
Mof_H 	H 	0.0646	0.9802	0.4436	0.1
Mof_H 	H 	0.0624	0.894	0.4843	0.108
Mof_H 	H 	0.9836	0.9796	0.4879	0.086
Mof_H 	H 	0.0142	0.8644	0.4153	0.116
Mof_H 	H 	0.9477	0.9509	0.4118	0.133
Mof_H 	H 	0.1427	0.1371	0.5365	0.179
Mof_H 	H 	0.1005	0.0961	0.4949	0.156
Mof_H 	H 	0.0581	0.1943	0.5104	0.16
Mof_H 	H 	0.9354	0.0198	0.5564	0.1
Mof_H 	H 	0.9376	0.106	0.5157	0.108
Mof_H 	H 	0.0164	0.0204	0.5121	0.086
Mof_H 	H 	0.9858	0.1356	0.5847	0.116
Mof_H 	H 	0.0523	0.0491	0.5882	0.133
Mof_C 	C 	0.913	0.866	0.4771	-0.384
Mof_C 	C 	0.0257	0.9429	0.4646	-0.228
Mof_C 	C 	0.087	0.134	0.5229	-0.384
Mof_C 	C 	0.9743	0.0571	0.5354	-0.228
Mof_N 	N 	0.9782	0.9074	0.4335	-0.163
Mof_N 	N 	0.0218	0.0926	0.5665	-0.163
Mof_H 	H 	0.649	0.5864	0.3	0.168
Mof_H 	H 	0.6154	0.5122	0.3419	0.186
Mof_H 	H 	0.6726	0.5798	0.3574	0.18
Mof_H 	H 	0.4228	0.658	0.4002	0.181
Mof_H 	H 	0.5127	0.6255	0.4274	0.172
Mof_H 	H 	0.4738	0.5562	0.4002	0.183
Mof_H 	H 	0.5506	0.698	0.3511	0.104
Mof_H 	H 	0.5008	0.6488	0.3236	0.131
Mof_C 	C 	0.6272	0.5736	0.3359	-0.417
Mof_C 	C 	0.4816	0.6186	0.3986	-0.41
Mof_N 	N 	0.53616	0.64296	0.34967	-0.134
Mof_H 	H 	0.1437	0.5003	0.265	0.164
Mof_H 	H 	0.0939	0.4217	0.2925	0.144
Mof_H 	H 	0.0378	0.5206	0.2807	0.151
Mof_H 	H 	0.9485	0.3957	0.2239	0.163
Mof_H 	H 	0.9472	0.4734	0.259	0.149
Mof_H 	H 	0.001	0.3746	0.2735	0.149
Mof_H 	H 	0.1267	0.3977	0.1944	0.119
Mof_H 	H 	0.0757	0.4925	0.1792	0.123
Mof_C 	C 	0.08845	0.47585	0.26831	-0.358
Mof_C 	C 	0.98354	0.41974	0.24536	-0.357
Mof_N 	N 	0.08491	0.44585	0.20445	-0.195
Mof_H 	H 	0.1371	0.1427	0.0365	0.179
Mof_H 	H 	0.0961	0.1005	0.9949	0.155
Mof_H 	H 	0.1943	0.0581	0.0104	0.16
Mof_H 	H 	0.0198	0.9354	0.0564	0.102
Mof_H 	H 	0.106	0.9376	0.0157	0.11
Mof_H 	H 	0.0204	0.0164	0.0121	0.09
Mof_H 	H 	0.1356	0.9858	0.0847	0.114
Mof_H 	H 	0.0491	0.0523	0.0882	0.132
Mof_H 	H 	0.8629	0.8573	0.9635	0.179
Mof_H 	H 	0.9039	0.8995	0.0051	0.155
Mof_H 	H 	0.8057	0.9419	0.9896	0.16
Mof_H 	H 	0.9802	0.0646	0.9436	0.102
Mof_H 	H 	0.894	0.0624	0.9843	0.11
Mof_H 	H 	0.9796	0.9836	0.9879	0.09
Mof_H 	H 	0.8644	0.0142	0.9153	0.114
Mof_H 	H 	0.9509	0.9477	0.9118	0.132
Mof_C 	C 	0.134	0.087	0.0229	-0.381
Mof_C 	C 	0.0571	0.9743	0.0354	-0.238
Mof_C 	C 	0.866	0.913	0.9771	-0.381
Mof_C 	C 	0.9429	0.0257	0.9646	-0.238
Mof_N 	N 	0.0926	0.0218	0.0665	-0.16
Mof_N 	N 	0.9074	0.9782	0.9335	-0.16
Mof_H 	H 	0.5864	0.649	0.8	0.168
Mof_H 	H 	0.5122	0.6154	0.8419	0.186
Mof_H 	H 	0.5798	0.6726	0.8574	0.18
Mof_H 	H 	0.658	0.4228	0.9002	0.18
Mof_H 	H 	0.6255	0.5127	0.9274	0.172
Mof_H 	H 	0.5562	0.4738	0.9002	0.183
Mof_H 	H 	0.698	0.5506	0.8511	0.104
Mof_H 	H 	0.6488	0.5008	0.8236	0.131
Mof_C 	C 	0.5736	0.6272	0.8359	-0.417
Mof_C 	C 	0.6186	0.4816	0.8986	-0.41
Mof_N 	N 	0.64296	0.53616	0.84967	-0.134
Mof_H 	H 	0.5003	0.1437	0.765	0.164
Mof_H 	H 	0.4217	0.0939	0.7925	0.144
Mof_H 	H 	0.5206	0.0378	0.7807	0.151
Mof_H 	H 	0.3957	0.9485	0.7239	0.162
Mof_H 	H 	0.4734	0.9472	0.759	0.149
Mof_H 	H 	0.3746	0.001	0.7735	0.149
Mof_H 	H 	0.3977	0.1267	0.6944	0.119
Mof_H 	H 	0.4925	0.0757	0.6792	0.123
Mof_C 	C 	0.47585	0.08845	0.76831	-0.358
Mof_C 	C 	0.41974	0.98354	0.74536	-0.356
Mof_N 	N 	0.44585	0.08491	0.70445	-0.195
Mof_H 	H 	0.351	0.4136	0.7	0.168
Mof_H 	H 	0.3846	0.4878	0.6581	0.186
Mof_H 	H 	0.3274	0.4202	0.6426	0.18
Mof_H 	H 	0.5772	0.342	0.5998	0.181
Mof_H 	H 	0.4873	0.3745	0.5726	0.172
Mof_H 	H 	0.5262	0.4438	0.5998	0.183
Mof_H 	H 	0.4494	0.302	0.6489	0.104
Mof_H 	H 	0.4992	0.3512	0.6764	0.131
Mof_C 	C 	0.3728	0.4264	0.6641	-0.417
Mof_C 	C 	0.5184	0.3814	0.6014	-0.41
Mof_N 	N 	0.46384	0.35704	0.65033	-0.134
Mof_H 	H 	0.8563	0.4997	0.735	0.164
Mof_H 	H 	0.9061	0.5783	0.7075	0.144
Mof_H 	H 	0.9622	0.4794	0.7193	0.151
Mof_H 	H 	0.0515	0.6043	0.7761	0.163
Mof_H 	H 	0.0528	0.5266	0.741	0.149
Mof_H 	H 	0.999	0.6254	0.7265	0.149
Mof_H 	H 	0.8733	0.6023	0.8056	0.119
Mof_H 	H 	0.9243	0.5075	0.8208	0.123
Mof_C 	C 	0.91155	0.52415	0.73169	-0.358
Mof_C 	C 	0.01646	0.58026	0.75464	-0.357
Mof_N 	N 	0.91509	0.55415	0.79555	-0.195
_end
