# CIF file generated by openbabel 3.1.0, see https://openbabel.org
data_I
_chemical_name_common 'image0'
_cell_length_a 29.044
_cell_length_b 29.044
_cell_length_c 29.044
_cell_angle_alpha 90
_cell_angle_beta 90
_cell_angle_gamma 90
_space_group_name_H-M_alt 'P 1'
_space_group_name_Hall 'P 1'
loop_
    _symmetry_equiv_pos_as_xyz
    x,y,z
loop_
    _atom_site_label
    _atom_site_type_symbol
    _atom_site_fract_x
    _atom_site_fract_y
    _atom_site_fract_z
    _atom_site_occupancy
    O1       O        0.32029    0.41370    0.03783    1.000
    C1       C        0.18940    0.36920    0.02370    1.000
    H1       H        0.16460    0.36110    0.04230    1.000
    N1       N        0.23212    0.38329    0.03901    1.000
    C2       C        0.31960    0.35320    0.17040    1.000
    C3       C        0.30770    0.37490    0.20950    1.000
    H2       H        0.28520    0.39770    0.20960    1.000
    C4       C        0.32910    0.36290    0.24720    1.000
    H3       H        0.32140    0.37730    0.27480    1.000
    N2       N        0.30193    0.35762    0.12689    1.000
    O2       O        0.13900    0.23700    0.03730    1.000
    C5       C        0.15100    0.24570    0.02410    1.000
    N3       N        0.32450    0.46230    0.29440    1.000
    O3       O        0.82029    0.91370    0.53783    1.000
    C6       C        0.68940    0.86920    0.52370    1.000
    H4       H        0.66460    0.86110    0.54230    1.000
    N4       N        0.73212    0.88329    0.53901    1.000
    C7       C        0.81960    0.85320    0.67040    1.000
    C8       C        0.80770    0.87490    0.70950    1.000
    H5       H        0.78520    0.89770    0.70960    1.000
    C9       C        0.82910    0.86290    0.74720    1.000
    H6       H        0.82140    0.87730    0.77480    1.000
    N5       N        0.80193    0.85762    0.62689    1.000
    O4       O        0.63900    0.73700    0.53730    1.000
    C10      C        0.65100    0.74570    0.52410    1.000
    N6       N        0.82450    0.96230    0.79440    1.000
    O5       O        0.67971    0.58630    0.03783    1.000
    C11      C        0.81060    0.63080    0.02370    1.000
    H7       H        0.83540    0.63890    0.04230    1.000
    N7       N        0.76788    0.61671    0.03901    1.000
    C12      C        0.68040    0.64680    0.17040    1.000
    C13      C        0.69230    0.62510    0.20950    1.000
    H8       H        0.71480    0.60230    0.20960    1.000
    C14      C        0.67090    0.63710    0.24720    1.000
    H9       H        0.67860    0.62270    0.27480    1.000
    N8       N        0.69807    0.64238    0.12689    1.000
    O6       O        0.86100    0.76300    0.03730    1.000
    C15      C        0.84900    0.75430    0.02410    1.000
    N9       N        0.67550    0.53770    0.29440    1.000
    O7       O        0.17971    0.08630    0.53783    1.000
    C16      C        0.31060    0.13080    0.52370    1.000
    H10      H        0.33540    0.13890    0.54230    1.000
    N10      N        0.26788    0.11671    0.53901    1.000
    C17      C        0.18040    0.14680    0.67040    1.000
    C18      C        0.19230    0.12510    0.70950    1.000
    H11      H        0.21480    0.10230    0.70960    1.000
    C19      C        0.17090    0.13710    0.74720    1.000
    H12      H        0.17860    0.12270    0.77480    1.000
    N11      N        0.19807    0.14238    0.62689    1.000
    O8       O        0.36100    0.26300    0.53730    1.000
    C20      C        0.34900    0.25430    0.52410    1.000
    N12      N        0.17550    0.03770    0.79440    1.000
    O9       O        0.67971    0.41370    0.96217    1.000
    C21      C        0.81060    0.36920    0.97630    1.000
    H13      H        0.83540    0.36110    0.95770    1.000
    N13      N        0.76788    0.38329    0.96099    1.000
    C22      C        0.68040    0.35320    0.82960    1.000
    C23      C        0.69230    0.37490    0.79050    1.000
    H14      H        0.71480    0.39770    0.79040    1.000
    C24      C        0.67090    0.36290    0.75280    1.000
    H15      H        0.67860    0.37730    0.72520    1.000
    N14      N        0.69807    0.35762    0.87311    1.000
    O10      O        0.86100    0.23700    0.96270    1.000
    C25      C        0.84900    0.24570    0.97590    1.000
    N15      N        0.67550    0.46230    0.70560    1.000
    O11      O        0.17971    0.91370    0.46217    1.000
    C26      C        0.31060    0.86920    0.47630    1.000
    H16      H        0.33540    0.86110    0.45770    1.000
    N16      N        0.26788    0.88329    0.46099    1.000
    C27      C        0.18040    0.85320    0.32960    1.000
    C28      C        0.19230    0.87490    0.29050    1.000
    H17      H        0.21480    0.89770    0.29040    1.000
    C29      C        0.17090    0.86290    0.25280    1.000
    H18      H        0.17860    0.87730    0.22520    1.000
    N17      N        0.19807    0.85762    0.37311    1.000
    O12      O        0.36100    0.73700    0.46270    1.000
    C30      C        0.34900    0.74570    0.47590    1.000
    N18      N        0.17550    0.96230    0.20560    1.000
    O13      O        0.32029    0.58630    0.96217    1.000
    C31      C        0.18940    0.63080    0.97630    1.000
    H19      H        0.16460    0.63890    0.95770    1.000
    N19      N        0.23212    0.61671    0.96099    1.000
    C32      C        0.31960    0.64680    0.82960    1.000
    C33      C        0.30770    0.62510    0.79050    1.000
    H20      H        0.28520    0.60230    0.79040    1.000
    C34      C        0.32910    0.63710    0.75280    1.000
    H21      H        0.32140    0.62270    0.72520    1.000
    N20      N        0.30193    0.64238    0.87311    1.000
    O14      O        0.13900    0.76300    0.96270    1.000
    C35      C        0.15100    0.75430    0.97590    1.000
    N21      N        0.32450    0.53770    0.70560    1.000
    O15      O        0.82029    0.08630    0.46217    1.000
    C36      C        0.68940    0.13080    0.47630    1.000
    H22      H        0.66460    0.13890    0.45770    1.000
    N22      N        0.73212    0.11671    0.46099    1.000
    C37      C        0.81960    0.14680    0.32960    1.000
    C38      C        0.80770    0.12510    0.29050    1.000
    H23      H        0.78520    0.10230    0.29040    1.000
    C39      C        0.82910    0.13710    0.25280    1.000
    H24      H        0.82140    0.12270    0.22520    1.000
    N23      N        0.80193    0.14238    0.37311    1.000
    O16      O        0.63900    0.26300    0.46270    1.000
    C40      C        0.65100    0.25430    0.47590    1.000
    N24      N        0.82450    0.03770    0.20560    1.000
    O17      O        0.03783    0.32029    0.41370    1.000
    C41      C        0.02370    0.18940    0.36920    1.000
    H25      H        0.04230    0.16460    0.36110    1.000
    N25      N        0.03901    0.23212    0.38329    1.000
    C42      C        0.17040    0.31960    0.35320    1.000
    C43      C        0.20950    0.30770    0.37490    1.000
    H26      H        0.20960    0.28520    0.39770    1.000
    C44      C        0.24720    0.32910    0.36290    1.000
    H27      H        0.27480    0.32140    0.37730    1.000
    N26      N        0.12689    0.30193    0.35762    1.000
    O18      O        0.03730    0.13900    0.23700    1.000
    C45      C        0.02410    0.15100    0.24570    1.000
    N27      N        0.29440    0.32450    0.46230    1.000
    O19      O        0.53783    0.82029    0.91370    1.000
    C46      C        0.52370    0.68940    0.86920    1.000
    H28      H        0.54230    0.66460    0.86110    1.000
    N28      N        0.53901    0.73212    0.88329    1.000
    C47      C        0.67040    0.81960    0.85320    1.000
    C48      C        0.70950    0.80770    0.87490    1.000
    H29      H        0.70960    0.78520    0.89770    1.000
    C49      C        0.74720    0.82910    0.86290    1.000
    H30      H        0.77480    0.82140    0.87730    1.000
    N29      N        0.62689    0.80193    0.85762    1.000
    O20      O        0.53730    0.63900    0.73700    1.000
    C50      C        0.52410    0.65100    0.74570    1.000
    N30      N        0.79440    0.82450    0.96230    1.000
    O21      O        0.03783    0.67971    0.58630    1.000
    C51      C        0.02370    0.81060    0.63080    1.000
    H31      H        0.04230    0.83540    0.63890    1.000
    N31      N        0.03901    0.76788    0.61671    1.000
    C52      C        0.17040    0.68040    0.64680    1.000
    C53      C        0.20950    0.69230    0.62510    1.000
    H32      H        0.20960    0.71480    0.60230    1.000
    C54      C        0.24720    0.67090    0.63710    1.000
    H33      H        0.27480    0.67860    0.62270    1.000
    N32      N        0.12689    0.69807    0.64238    1.000
    O22      O        0.03730    0.86100    0.76300    1.000
    C55      C        0.02410    0.84900    0.75430    1.000
    N33      N        0.29440    0.67550    0.53770    1.000
    O23      O        0.53783    0.17971    0.08630    1.000
    C56      C        0.52370    0.31060    0.13080    1.000
    H34      H        0.54230    0.33540    0.13890    1.000
    N34      N        0.53901    0.26788    0.11671    1.000
    C57      C        0.67040    0.18040    0.14680    1.000
    C58      C        0.70950    0.19230    0.12510    1.000
    H35      H        0.70960    0.21480    0.10230    1.000
    C59      C        0.74720    0.17090    0.13710    1.000
    H36      H        0.77480    0.17860    0.12270    1.000
    N35      N        0.62689    0.19807    0.14238    1.000
    O24      O        0.53730    0.36100    0.26300    1.000
    C60      C        0.52410    0.34900    0.25430    1.000
    N36      N        0.79440    0.17550    0.03770    1.000
    O25      O        0.96217    0.67971    0.41370    1.000
    C61      C        0.97630    0.81060    0.36920    1.000
    H37      H        0.95770    0.83540    0.36110    1.000
    N37      N        0.96099    0.76788    0.38329    1.000
    C62      C        0.82960    0.68040    0.35320    1.000
    C63      C        0.79050    0.69230    0.37490    1.000
    H38      H        0.79040    0.71480    0.39770    1.000
    C64      C        0.75280    0.67090    0.36290    1.000
    H39      H        0.72520    0.67860    0.37730    1.000
    N38      N        0.87311    0.69807    0.35762    1.000
    O26      O        0.96270    0.86100    0.23700    1.000
    C65      C        0.97590    0.84900    0.24570    1.000
    N39      N        0.70560    0.67550    0.46230    1.000
    O27      O        0.46217    0.17971    0.91370    1.000
    C66      C        0.47630    0.31060    0.86920    1.000
    H40      H        0.45770    0.33540    0.86110    1.000
    N40      N        0.46099    0.26788    0.88329    1.000
    C67      C        0.32960    0.18040    0.85320    1.000
    C68      C        0.29050    0.19230    0.87490    1.000
    H41      H        0.29040    0.21480    0.89770    1.000
    C69      C        0.25280    0.17090    0.86290    1.000
    H42      H        0.22520    0.17860    0.87730    1.000
    N41      N        0.37311    0.19807    0.85762    1.000
    O28      O        0.46270    0.36100    0.73700    1.000
    C70      C        0.47590    0.34900    0.74570    1.000
    N42      N        0.20560    0.17550    0.96230    1.000
    O29      O        0.96217    0.32029    0.58630    1.000
    C71      C        0.97630    0.18940    0.63080    1.000
    H43      H        0.95770    0.16460    0.63890    1.000
    N43      N        0.96099    0.23212    0.61671    1.000
    C72      C        0.82960    0.31960    0.64680    1.000
    C73      C        0.79050    0.30770    0.62510    1.000
    H44      H        0.79040    0.28520    0.60230    1.000
    C74      C        0.75280    0.32910    0.63710    1.000
    H45      H        0.72520    0.32140    0.62270    1.000
    N44      N        0.87311    0.30193    0.64238    1.000
    O30      O        0.96270    0.13900    0.76300    1.000
    C75      C        0.97590    0.15100    0.75430    1.000
    N45      N        0.70560    0.32450    0.53770    1.000
    O31      O        0.46217    0.82029    0.08630    1.000
    C76      C        0.47630    0.68940    0.13080    1.000
    H46      H        0.45770    0.66460    0.13890    1.000
    N46      N        0.46099    0.73212    0.11671    1.000
    C77      C        0.32960    0.81960    0.14680    1.000
    C78      C        0.29050    0.80770    0.12510    1.000
    H47      H        0.29040    0.78520    0.10230    1.000
    C79      C        0.25280    0.82910    0.13710    1.000
    H48      H        0.22520    0.82140    0.12270    1.000
    N47      N        0.37311    0.80193    0.14238    1.000
    O32      O        0.46270    0.63900    0.26300    1.000
    C80      C        0.47590    0.65100    0.25430    1.000
    N48      N        0.20560    0.82450    0.03770    1.000
    O33      O        0.41370    0.03783    0.32029    1.000
    C81      C        0.36920    0.02370    0.18940    1.000
    H49      H        0.36110    0.04230    0.16460    1.000
    N49      N        0.38329    0.03901    0.23212    1.000
    C82      C        0.35320    0.17040    0.31960    1.000
    C83      C        0.37490    0.20950    0.30770    1.000
    H50      H        0.39770    0.20960    0.28520    1.000
    C84      C        0.36290    0.24720    0.32910    1.000
    H51      H        0.37730    0.27480    0.32140    1.000
    N50      N        0.35762    0.12689    0.30193    1.000
    O34      O        0.23700    0.03730    0.13900    1.000
    C85      C        0.24570    0.02410    0.15100    1.000
    N51      N        0.46230    0.29440    0.32450    1.000
    O35      O        0.91370    0.53783    0.82029    1.000
    C86      C        0.86920    0.52370    0.68940    1.000
    H52      H        0.86110    0.54230    0.66460    1.000
    N52      N        0.88329    0.53901    0.73212    1.000
    C87      C        0.85320    0.67040    0.81960    1.000
    C88      C        0.87490    0.70950    0.80770    1.000
    H53      H        0.89770    0.70960    0.78520    1.000
    C89      C        0.86290    0.74720    0.82910    1.000
    H54      H        0.87730    0.77480    0.82140    1.000
    N53      N        0.85762    0.62689    0.80193    1.000
    O36      O        0.73700    0.53730    0.63900    1.000
    C90      C        0.74570    0.52410    0.65100    1.000
    N54      N        0.96230    0.79440    0.82450    1.000
    O37      O        0.58630    0.03783    0.67971    1.000
    C91      C        0.63080    0.02370    0.81060    1.000
    H55      H        0.63890    0.04230    0.83540    1.000
    N55      N        0.61671    0.03901    0.76788    1.000
    C92      C        0.64680    0.17040    0.68040    1.000
    C93      C        0.62510    0.20950    0.69230    1.000
    H56      H        0.60230    0.20960    0.71480    1.000
    C94      C        0.63710    0.24720    0.67090    1.000
    H57      H        0.62270    0.27480    0.67860    1.000
    N56      N        0.64238    0.12689    0.69807    1.000
    O38      O        0.76300    0.03730    0.86100    1.000
    C95      C        0.75430    0.02410    0.84900    1.000
    N57      N        0.53770    0.29440    0.67550    1.000
    O39      O        0.08630    0.53783    0.17971    1.000
    C96      C        0.13080    0.52370    0.31060    1.000
    H58      H        0.13890    0.54230    0.33540    1.000
    N58      N        0.11671    0.53901    0.26788    1.000
    C97      C        0.14680    0.67040    0.18040    1.000
    C98      C        0.12510    0.70950    0.19230    1.000
    H59      H        0.10230    0.70960    0.21480    1.000
    C99      C        0.13710    0.74720    0.17090    1.000
    H60      H        0.12270    0.77480    0.17860    1.000
    N59      N        0.14238    0.62689    0.19807    1.000
    O40      O        0.26300    0.53730    0.36100    1.000
    C100     C        0.25430    0.52410    0.34900    1.000
    N60      N        0.03770    0.79440    0.17550    1.000
    O41      O        0.41370    0.96217    0.67971    1.000
    C101     C        0.36920    0.97630    0.81060    1.000
    H61      H        0.36110    0.95770    0.83540    1.000
    N61      N        0.38329    0.96099    0.76788    1.000
    C102     C        0.35320    0.82960    0.68040    1.000
    C103     C        0.37490    0.79050    0.69230    1.000
    H62      H        0.39770    0.79040    0.71480    1.000
    C104     C        0.36290    0.75280    0.67090    1.000
    H63      H        0.37730    0.72520    0.67860    1.000
    N62      N        0.35762    0.87311    0.69807    1.000
    O42      O        0.23700    0.96270    0.86100    1.000
    C105     C        0.24570    0.97590    0.84900    1.000
    N63      N        0.46230    0.70560    0.67550    1.000
    O43      O        0.91370    0.46217    0.17971    1.000
    C106     C        0.86920    0.47630    0.31060    1.000
    H64      H        0.86110    0.45770    0.33540    1.000
    N64      N        0.88329    0.46099    0.26788    1.000
    C107     C        0.85320    0.32960    0.18040    1.000
    C108     C        0.87490    0.29050    0.19230    1.000
    H65      H        0.89770    0.29040    0.21480    1.000
    C109     C        0.86290    0.25280    0.17090    1.000
    H66      H        0.87730    0.22520    0.17860    1.000
    N65      N        0.85762    0.37311    0.19807    1.000
    O44      O        0.73700    0.46270    0.36100    1.000
    C110     C        0.74570    0.47590    0.34900    1.000
    N66      N        0.96230    0.20560    0.17550    1.000
    O45      O        0.58630    0.96217    0.32029    1.000
    C111     C        0.63080    0.97630    0.18940    1.000
    H67      H        0.63890    0.95770    0.16460    1.000
    N67      N        0.61671    0.96099    0.23212    1.000
    C112     C        0.64680    0.82960    0.31960    1.000
    C113     C        0.62510    0.79050    0.30770    1.000
    H68      H        0.60230    0.79040    0.28520    1.000
    C114     C        0.63710    0.75280    0.32910    1.000
    H69      H        0.62270    0.72520    0.32140    1.000
    N68      N        0.64238    0.87311    0.30193    1.000
    O46      O        0.76300    0.96270    0.13900    1.000
    C115     C        0.75430    0.97590    0.15100    1.000
    N69      N        0.53770    0.70560    0.32450    1.000
    O47      O        0.08630    0.46217    0.82029    1.000
    C116     C        0.13080    0.47630    0.68940    1.000
    H70      H        0.13890    0.45770    0.66460    1.000
    N70      N        0.11671    0.46099    0.73212    1.000
    C117     C        0.14680    0.32960    0.81960    1.000
    C118     C        0.12510    0.29050    0.80770    1.000
    H71      H        0.10230    0.29040    0.78520    1.000
    C119     C        0.13710    0.25280    0.82910    1.000
    H72      H        0.12270    0.22520    0.82140    1.000
    N71      N        0.14238    0.37311    0.80193    1.000
    O48      O        0.26300    0.46270    0.63900    1.000
    C120     C        0.25430    0.47590    0.65100    1.000
    N72      N        0.03770    0.20560    0.82450    1.000
    O49      O        0.41370    0.32029    0.96217    1.000
    C121     C        0.36920    0.18940    0.97630    1.000
    H73      H        0.36110    0.16460    0.95770    1.000
    N73      N        0.38329    0.23212    0.96099    1.000
    C122     C        0.35320    0.31960    0.82960    1.000
    C123     C        0.37490    0.30770    0.79050    1.000
    H74      H        0.39770    0.28520    0.79040    1.000
    C124     C        0.36290    0.32910    0.75280    1.000
    H75      H        0.37730    0.32140    0.72520    1.000
    N74      N        0.35762    0.30193    0.87311    1.000
    O50      O        0.23700    0.13900    0.96270    1.000
    C125     C        0.24570    0.15100    0.97590    1.000
    N75      N        0.46230    0.32450    0.70560    1.000
    O51      O        0.91370    0.82029    0.46217    1.000
    C126     C        0.86920    0.68940    0.47630    1.000
    H76      H        0.86110    0.66460    0.45770    1.000
    N76      N        0.88329    0.73212    0.46099    1.000
    C127     C        0.85320    0.81960    0.32960    1.000
    C128     C        0.87490    0.80770    0.29050    1.000
    H77      H        0.89770    0.78520    0.29040    1.000
    C129     C        0.86290    0.82910    0.25280    1.000
    H78      H        0.87730    0.82140    0.22520    1.000
    N77      N        0.85762    0.80193    0.37311    1.000
    O52      O        0.73700    0.63900    0.46270    1.000
    C130     C        0.74570    0.65100    0.47590    1.000
    N78      N        0.96230    0.82450    0.20560    1.000
    O53      O        0.58630    0.67971    0.96217    1.000
    C131     C        0.63080    0.81060    0.97630    1.000
    H79      H        0.63890    0.83540    0.95770    1.000
    N79      N        0.61671    0.76788    0.96099    1.000
    C132     C        0.64680    0.68040    0.82960    1.000
    C133     C        0.62510    0.69230    0.79050    1.000
    H80      H        0.60230    0.71480    0.79040    1.000
    C134     C        0.63710    0.67090    0.75280    1.000
    H81      H        0.62270    0.67860    0.72520    1.000
    N80      N        0.64238    0.69807    0.87311    1.000
    O54      O        0.76300    0.86100    0.96270    1.000
    C135     C        0.75430    0.84900    0.97590    1.000
    N81      N        0.53770    0.67550    0.70560    1.000
    O55      O        0.08630    0.17971    0.46217    1.000
    C136     C        0.13080    0.31060    0.47630    1.000
    H82      H        0.13890    0.33540    0.45770    1.000
    N82      N        0.11671    0.26788    0.46099    1.000
    C137     C        0.14680    0.18040    0.32960    1.000
    C138     C        0.12510    0.19230    0.29050    1.000
    H83      H        0.10230    0.21480    0.29040    1.000
    C139     C        0.13710    0.17090    0.25280    1.000
    H84      H        0.12270    0.17860    0.22520    1.000
    N83      N        0.14238    0.19807    0.37311    1.000
    O56      O        0.26300    0.36100    0.46270    1.000
    C140     C        0.25430    0.34900    0.47590    1.000
    N84      N        0.03770    0.17550    0.20560    1.000
    O57      O        0.41370    0.67971    0.03783    1.000
    C141     C        0.36920    0.81060    0.02370    1.000
    H85      H        0.36110    0.83540    0.04230    1.000
    N85      N        0.38329    0.76788    0.03901    1.000
    C142     C        0.35320    0.68040    0.17040    1.000
    C143     C        0.37490    0.69230    0.20950    1.000
    H86      H        0.39770    0.71480    0.20960    1.000
    C144     C        0.36290    0.67090    0.24720    1.000
    H87      H        0.37730    0.67860    0.27480    1.000
    N86      N        0.35762    0.69807    0.12689    1.000
    O58      O        0.23700    0.86100    0.03730    1.000
    C145     C        0.24570    0.84900    0.02410    1.000
    N87      N        0.46230    0.67550    0.29440    1.000
    O59      O        0.91370    0.17971    0.53783    1.000
    C146     C        0.86920    0.31060    0.52370    1.000
    H88      H        0.86110    0.33540    0.54230    1.000
    N88      N        0.88329    0.26788    0.53901    1.000
    C147     C        0.85320    0.18040    0.67040    1.000
    C148     C        0.87490    0.19230    0.70950    1.000
    H89      H        0.89770    0.21480    0.70960    1.000
    C149     C        0.86290    0.17090    0.74720    1.000
    H90      H        0.87730    0.17860    0.77480    1.000
    N89      N        0.85762    0.19807    0.62689    1.000
    O60      O        0.73700    0.36100    0.53730    1.000
    C150     C        0.74570    0.34900    0.52410    1.000
    N90      N        0.96230    0.17550    0.79440    1.000
    O61      O        0.58630    0.32029    0.03783    1.000
    C151     C        0.63080    0.18940    0.02370    1.000
    H91      H        0.63890    0.16460    0.04230    1.000
    N91      N        0.61671    0.23212    0.03901    1.000
    C152     C        0.64680    0.31960    0.17040    1.000
    C153     C        0.62510    0.30770    0.20950    1.000
    H92      H        0.60230    0.28520    0.20960    1.000
    C154     C        0.63710    0.32910    0.24720    1.000
    H93      H        0.62270    0.32140    0.27480    1.000
    N92      N        0.64238    0.30193    0.12689    1.000
    O62      O        0.76300    0.13900    0.03730    1.000
    C155     C        0.75430    0.15100    0.02410    1.000
    N93      N        0.53770    0.32450    0.29440    1.000
    O63      O        0.08630    0.82029    0.53783    1.000
    C156     C        0.13080    0.68940    0.52370    1.000
    H94      H        0.13890    0.66460    0.54230    1.000
    N94      N        0.11671    0.73212    0.53901    1.000
    C157     C        0.14680    0.81960    0.67040    1.000
    C158     C        0.12510    0.80770    0.70950    1.000
    H95      H        0.10230    0.78520    0.70960    1.000
    C159     C        0.13710    0.82910    0.74720    1.000
    H96      H        0.12270    0.82140    0.77480    1.000
    N95      N        0.14238    0.80193    0.62689    1.000
    O64      O        0.26300    0.63900    0.53730    1.000
    C160     C        0.25430    0.65100    0.52410    1.000
    N96      N        0.03770    0.82450    0.79440    1.000
    O65      O        0.32029    0.03783    0.58630    1.000
    C161     C        0.18940    0.02370    0.63080    1.000
    H97      H        0.16460    0.04230    0.63890    1.000
    N97      N        0.23212    0.03901    0.61671    1.000
    C162     C        0.31960    0.17040    0.64680    1.000
    C163     C        0.30770    0.20950    0.62510    1.000
    H98      H        0.28520    0.20960    0.60230    1.000
    C164     C        0.32910    0.24720    0.63710    1.000
    H99      H        0.32140    0.27480    0.62270    1.000
    N98      N        0.30193    0.12689    0.64238    1.000
    O66      O        0.13900    0.03730    0.76300    1.000
    C165     C        0.15100    0.02410    0.75430    1.000
    N99      N        0.32450    0.29440    0.53770    1.000
    O67      O        0.82029    0.53783    0.08630    1.000
    C166     C        0.68940    0.52370    0.13080    1.000
    H100     H        0.66460    0.54230    0.13890    1.000
    N100     N        0.73212    0.53901    0.11671    1.000
    C167     C        0.81960    0.67040    0.14680    1.000
    C168     C        0.80770    0.70950    0.12510    1.000
    H101     H        0.78520    0.70960    0.10230    1.000
    C169     C        0.82910    0.74720    0.13710    1.000
    H102     H        0.82140    0.77480    0.12270    1.000
    N101     N        0.80193    0.62689    0.14238    1.000
    O68      O        0.63900    0.53730    0.26300    1.000
    C170     C        0.65100    0.52410    0.25430    1.000
    N102     N        0.82450    0.79440    0.03770    1.000
    O69      O        0.67971    0.03783    0.41370    1.000
    C171     C        0.81060    0.02370    0.36920    1.000
    H103     H        0.83540    0.04230    0.36110    1.000
    N103     N        0.76788    0.03901    0.38329    1.000
    C172     C        0.68040    0.17040    0.35320    1.000
    C173     C        0.69230    0.20950    0.37490    1.000
    H104     H        0.71480    0.20960    0.39770    1.000
    C174     C        0.67090    0.24720    0.36290    1.000
    H105     H        0.67860    0.27480    0.37730    1.000
    N104     N        0.69807    0.12689    0.35762    1.000
    O70      O        0.86100    0.03730    0.23700    1.000
    C175     C        0.84900    0.02410    0.24570    1.000
    N105     N        0.67550    0.29440    0.46230    1.000
    O71      O        0.17971    0.53783    0.91370    1.000
    C176     C        0.31060    0.52370    0.86920    1.000
    H106     H        0.33540    0.54230    0.86110    1.000
    N106     N        0.26788    0.53901    0.88329    1.000
    C177     C        0.18040    0.67040    0.85320    1.000
    C178     C        0.19230    0.70950    0.87490    1.000
    H107     H        0.21480    0.70960    0.89770    1.000
    C179     C        0.17090    0.74720    0.86290    1.000
    H108     H        0.17860    0.77480    0.87730    1.000
    N107     N        0.19807    0.62689    0.85762    1.000
    O72      O        0.36100    0.53730    0.73700    1.000
    C180     C        0.34900    0.52410    0.74570    1.000
    N108     N        0.17550    0.79440    0.96230    1.000
    O73      O        0.67971    0.96217    0.58630    1.000
    C181     C        0.81060    0.97630    0.63080    1.000
    H109     H        0.83540    0.95770    0.63890    1.000
    N109     N        0.76788    0.96099    0.61671    1.000
    C182     C        0.68040    0.82960    0.64680    1.000
    C183     C        0.69230    0.79050    0.62510    1.000
    H110     H        0.71480    0.79040    0.60230    1.000
    C184     C        0.67090    0.75280    0.63710    1.000
    H111     H        0.67860    0.72520    0.62270    1.000
    N110     N        0.69807    0.87311    0.64238    1.000
    O74      O        0.86100    0.96270    0.76300    1.000
    C185     C        0.84900    0.97590    0.75430    1.000
    N111     N        0.67550    0.70560    0.53770    1.000
    O75      O        0.17971    0.46217    0.08630    1.000
    C186     C        0.31060    0.47630    0.13080    1.000
    H112     H        0.33540    0.45770    0.13890    1.000
    N112     N        0.26788    0.46099    0.11671    1.000
    C187     C        0.18040    0.32960    0.14680    1.000
    C188     C        0.19230    0.29050    0.12510    1.000
    H113     H        0.21480    0.29040    0.10230    1.000
    C189     C        0.17090    0.25280    0.13710    1.000
    H114     H        0.17860    0.22520    0.12270    1.000
    N113     N        0.19807    0.37311    0.14238    1.000
    O76      O        0.36100    0.46270    0.26300    1.000
    C190     C        0.34900    0.47590    0.25430    1.000
    N114     N        0.17550    0.20560    0.03770    1.000
    O77      O        0.32029    0.96217    0.41370    1.000
    C191     C        0.18940    0.97630    0.36920    1.000
    H115     H        0.16460    0.95770    0.36110    1.000
    N115     N        0.23212    0.96099    0.38329    1.000
    C192     C        0.31960    0.82960    0.35320    1.000
    C193     C        0.30770    0.79050    0.37490    1.000
    H116     H        0.28520    0.79040    0.39770    1.000
    C194     C        0.32910    0.75280    0.36290    1.000
    H117     H        0.32140    0.72520    0.37730    1.000
    N116     N        0.30193    0.87311    0.35762    1.000
    O78      O        0.13900    0.96270    0.23700    1.000
    C195     C        0.15100    0.97590    0.24570    1.000
    N117     N        0.32450    0.70560    0.46230    1.000
    O79      O        0.82029    0.46217    0.91370    1.000
    C196     C        0.68940    0.47630    0.86920    1.000
    H118     H        0.66460    0.45770    0.86110    1.000
    N118     N        0.73212    0.46099    0.88329    1.000
    C197     C        0.81960    0.32960    0.85320    1.000
    C198     C        0.80770    0.29050    0.87490    1.000
    H119     H        0.78520    0.29040    0.89770    1.000
    C199     C        0.82910    0.25280    0.86290    1.000
    H120     H        0.82140    0.22520    0.87730    1.000
    N119     N        0.80193    0.37311    0.85762    1.000
    O80      O        0.63900    0.46270    0.73700    1.000
    C200     C        0.65100    0.47590    0.74570    1.000
    N120     N        0.82450    0.20560    0.96230    1.000
    O81      O        0.03783    0.41370    0.67971    1.000
    C201     C        0.02370    0.36920    0.81060    1.000
    H121     H        0.04230    0.36110    0.83540    1.000
    N121     N        0.03901    0.38329    0.76788    1.000
    C202     C        0.17040    0.35320    0.68040    1.000
    C203     C        0.20950    0.37490    0.69230    1.000
    H122     H        0.20960    0.39770    0.71480    1.000
    C204     C        0.24720    0.36290    0.67090    1.000
    H123     H        0.27480    0.37730    0.67860    1.000
    N122     N        0.12689    0.35762    0.69807    1.000
    O82      O        0.03730    0.23700    0.86100    1.000
    C205     C        0.02410    0.24570    0.84900    1.000
    N123     N        0.29440    0.46230    0.67550    1.000
    O83      O        0.53783    0.91370    0.17971    1.000
    C206     C        0.52370    0.86920    0.31060    1.000
    H124     H        0.54230    0.86110    0.33540    1.000
    N124     N        0.53901    0.88329    0.26788    1.000
    C207     C        0.67040    0.85320    0.18040    1.000
    C208     C        0.70950    0.87490    0.19230    1.000
    H125     H        0.70960    0.89770    0.21480    1.000
    C209     C        0.74720    0.86290    0.17090    1.000
    H126     H        0.77480    0.87730    0.17860    1.000
    N125     N        0.62689    0.85762    0.19807    1.000
    O84      O        0.53730    0.73700    0.36100    1.000
    C210     C        0.52410    0.74570    0.34900    1.000
    N126     N        0.79440    0.96230    0.17550    1.000
    O85      O        0.03783    0.58630    0.32029    1.000
    C211     C        0.02370    0.63080    0.18940    1.000
    H127     H        0.04230    0.63890    0.16460    1.000
    N127     N        0.03901    0.61671    0.23212    1.000
    C212     C        0.17040    0.64680    0.31960    1.000
    C213     C        0.20950    0.62510    0.30770    1.000
    H128     H        0.20960    0.60230    0.28520    1.000
    C214     C        0.24720    0.63710    0.32910    1.000
    H129     H        0.27480    0.62270    0.32140    1.000
    N128     N        0.12689    0.64238    0.30193    1.000
    O86      O        0.03730    0.76300    0.13900    1.000
    C215     C        0.02410    0.75430    0.15100    1.000
    N129     N        0.29440    0.53770    0.32450    1.000
    O87      O        0.53783    0.08630    0.82029    1.000
    C216     C        0.52370    0.13080    0.68940    1.000
    H130     H        0.54230    0.13890    0.66460    1.000
    N130     N        0.53901    0.11671    0.73212    1.000
    C217     C        0.67040    0.14680    0.81960    1.000
    C218     C        0.70950    0.12510    0.80770    1.000
    H131     H        0.70960    0.10230    0.78520    1.000
    C219     C        0.74720    0.13710    0.82910    1.000
    H132     H        0.77480    0.12270    0.82140    1.000
    N131     N        0.62689    0.14238    0.80193    1.000
    O88      O        0.53730    0.26300    0.63900    1.000
    C220     C        0.52410    0.25430    0.65100    1.000
    N132     N        0.79440    0.03770    0.82450    1.000
    O89      O        0.96217    0.41370    0.32029    1.000
    C221     C        0.97630    0.36920    0.18940    1.000
    H133     H        0.95770    0.36110    0.16460    1.000
    N133     N        0.96099    0.38329    0.23212    1.000
    C222     C        0.82960    0.35320    0.31960    1.000
    C223     C        0.79050    0.37490    0.30770    1.000
    H134     H        0.79040    0.39770    0.28520    1.000
    C224     C        0.75280    0.36290    0.32910    1.000
    H135     H        0.72520    0.37730    0.32140    1.000
    N134     N        0.87311    0.35762    0.30193    1.000
    O90      O        0.96270    0.23700    0.13900    1.000
    C225     C        0.97590    0.24570    0.15100    1.000
    N135     N        0.70560    0.46230    0.32450    1.000
    O91      O        0.46217    0.91370    0.82029    1.000
    C226     C        0.47630    0.86920    0.68940    1.000
    H136     H        0.45770    0.86110    0.66460    1.000
    N136     N        0.46099    0.88329    0.73212    1.000
    C227     C        0.32960    0.85320    0.81960    1.000
    C228     C        0.29050    0.87490    0.80770    1.000
    H137     H        0.29040    0.89770    0.78520    1.000
    C229     C        0.25280    0.86290    0.82910    1.000
    H138     H        0.22520    0.87730    0.82140    1.000
    N137     N        0.37311    0.85762    0.80193    1.000
    O92      O        0.46270    0.73700    0.63900    1.000
    C230     C        0.47590    0.74570    0.65100    1.000
    N138     N        0.20560    0.96230    0.82450    1.000
    O93      O        0.96217    0.58630    0.67971    1.000
    C231     C        0.97630    0.63080    0.81060    1.000
    H139     H        0.95770    0.63890    0.83540    1.000
    N139     N        0.96099    0.61671    0.76788    1.000
    C232     C        0.82960    0.64680    0.68040    1.000
    C233     C        0.79050    0.62510    0.69230    1.000
    H140     H        0.79040    0.60230    0.71480    1.000
    C234     C        0.75280    0.63710    0.67090    1.000
    H141     H        0.72520    0.62270    0.67860    1.000
    N140     N        0.87311    0.64238    0.69807    1.000
    O94      O        0.96270    0.76300    0.86100    1.000
    C235     C        0.97590    0.75430    0.84900    1.000
    N141     N        0.70560    0.53770    0.67550    1.000
    O95      O        0.46217    0.08630    0.17971    1.000
    C236     C        0.47630    0.13080    0.31060    1.000
    H142     H        0.45770    0.13890    0.33540    1.000
    N142     N        0.46099    0.11671    0.26788    1.000
    C237     C        0.32960    0.14680    0.18040    1.000
    C238     C        0.29050    0.12510    0.19230    1.000
    H143     H        0.29040    0.10230    0.21480    1.000
    C239     C        0.25280    0.13710    0.17090    1.000
    H144     H        0.22520    0.12270    0.17860    1.000
    N143     N        0.37311    0.14238    0.19807    1.000
    O96      O        0.46270    0.26300    0.36100    1.000
    C240     C        0.47590    0.25430    0.34900    1.000
    N144     N        0.20560    0.03770    0.17550    1.000
    O97      O        0.67971    0.58630    0.96217    1.000
    C241     C        0.81060    0.63080    0.97630    1.000
    H145     H        0.83540    0.63890    0.95770    1.000
    N145     N        0.76788    0.61671    0.96099    1.000
    C242     C        0.68040    0.64680    0.82960    1.000
    C243     C        0.69230    0.62510    0.79050    1.000
    H146     H        0.71480    0.60230    0.79040    1.000
    C244     C        0.67090    0.63710    0.75280    1.000
    H147     H        0.67860    0.62270    0.72520    1.000
    N146     N        0.69807    0.64238    0.87311    1.000
    O98      O        0.86100    0.76300    0.96270    1.000
    C245     C        0.84900    0.75430    0.97590    1.000
    N147     N        0.67550    0.53770    0.70560    1.000
    O99      O        0.17971    0.08630    0.46217    1.000
    C246     C        0.31060    0.13080    0.47630    1.000
    H148     H        0.33540    0.13890    0.45770    1.000
    N148     N        0.26788    0.11671    0.46099    1.000
    C247     C        0.18040    0.14680    0.32960    1.000
    C248     C        0.19230    0.12510    0.29050    1.000
    H149     H        0.21480    0.10230    0.29040    1.000
    C249     C        0.17090    0.13710    0.25280    1.000
    H150     H        0.17860    0.12270    0.22520    1.000
    N149     N        0.19807    0.14238    0.37311    1.000
    O100     O        0.36100    0.26300    0.46270    1.000
    C250     C        0.34900    0.25430    0.47590    1.000
    N150     N        0.17550    0.03770    0.20560    1.000
    O101     O        0.32029    0.41370    0.96217    1.000
    C251     C        0.18940    0.36920    0.97630    1.000
    H151     H        0.16460    0.36110    0.95770    1.000
    N151     N        0.23212    0.38329    0.96099    1.000
    C252     C        0.31960    0.35320    0.82960    1.000
    C253     C        0.30770    0.37490    0.79050    1.000
    H152     H        0.28520    0.39770    0.79040    1.000
    C254     C        0.32910    0.36290    0.75280    1.000
    H153     H        0.32140    0.37730    0.72520    1.000
    N152     N        0.30193    0.35762    0.87311    1.000
    O102     O        0.13900    0.23700    0.96270    1.000
    C255     C        0.15100    0.24570    0.97590    1.000
    N153     N        0.32450    0.46230    0.70560    1.000
    O103     O        0.82029    0.91370    0.46217    1.000
    C256     C        0.68940    0.86920    0.47630    1.000
    H154     H        0.66460    0.86110    0.45770    1.000
    N154     N        0.73212    0.88329    0.46099    1.000
    C257     C        0.81960    0.85320    0.32960    1.000
    C258     C        0.80770    0.87490    0.29050    1.000
    H155     H        0.78520    0.89770    0.29040    1.000
    C259     C        0.82910    0.86290    0.25280    1.000
    H156     H        0.82140    0.87730    0.22520    1.000
    N155     N        0.80193    0.85762    0.37311    1.000
    O104     O        0.63900    0.73700    0.46270    1.000
    C260     C        0.65100    0.74570    0.47590    1.000
    N156     N        0.82450    0.96230    0.20560    1.000
    O105     O        0.32029    0.58630    0.03783    1.000
    C261     C        0.18940    0.63080    0.02370    1.000
    H157     H        0.16460    0.63890    0.04230    1.000
    N157     N        0.23212    0.61671    0.03901    1.000
    C262     C        0.31960    0.64680    0.17040    1.000
    C263     C        0.30770    0.62510    0.20950    1.000
    H158     H        0.28520    0.60230    0.20960    1.000
    C264     C        0.32910    0.63710    0.24720    1.000
    H159     H        0.32140    0.62270    0.27480    1.000
    N158     N        0.30193    0.64238    0.12689    1.000
    O106     O        0.13900    0.76300    0.03730    1.000
    C265     C        0.15100    0.75430    0.02410    1.000
    N159     N        0.32450    0.53770    0.29440    1.000
    O107     O        0.82029    0.08630    0.53783    1.000
    C266     C        0.68940    0.13080    0.52370    1.000
    H160     H        0.66460    0.13890    0.54230    1.000
    N160     N        0.73212    0.11671    0.53901    1.000
    C267     C        0.81960    0.14680    0.67040    1.000
    C268     C        0.80770    0.12510    0.70950    1.000
    H161     H        0.78520    0.10230    0.70960    1.000
    C269     C        0.82910    0.13710    0.74720    1.000
    H162     H        0.82140    0.12270    0.77480    1.000
    N161     N        0.80193    0.14238    0.62689    1.000
    O108     O        0.63900    0.26300    0.53730    1.000
    C270     C        0.65100    0.25430    0.52410    1.000
    N162     N        0.82450    0.03770    0.79440    1.000
    O109     O        0.67971    0.41370    0.03783    1.000
    C271     C        0.81060    0.36920    0.02370    1.000
    H163     H        0.83540    0.36110    0.04230    1.000
    N163     N        0.76788    0.38329    0.03901    1.000
    C272     C        0.68040    0.35320    0.17040    1.000
    C273     C        0.69230    0.37490    0.20950    1.000
    H164     H        0.71480    0.39770    0.20960    1.000
    C274     C        0.67090    0.36290    0.24720    1.000
    H165     H        0.67860    0.37730    0.27480    1.000
    N164     N        0.69807    0.35762    0.12689    1.000
    O110     O        0.86100    0.23700    0.03730    1.000
    C275     C        0.84900    0.24570    0.02410    1.000
    N165     N        0.67550    0.46230    0.29440    1.000
    O111     O        0.17971    0.91370    0.53783    1.000
    C276     C        0.31060    0.86920    0.52370    1.000
    H166     H        0.33540    0.86110    0.54230    1.000
    N166     N        0.26788    0.88329    0.53901    1.000
    C277     C        0.18040    0.85320    0.67040    1.000
    C278     C        0.19230    0.87490    0.70950    1.000
    H167     H        0.21480    0.89770    0.70960    1.000
    C279     C        0.17090    0.86290    0.74720    1.000
    H168     H        0.17860    0.87730    0.77480    1.000
    N167     N        0.19807    0.85762    0.62689    1.000
    O112     O        0.36100    0.73700    0.53730    1.000
    C280     C        0.34900    0.74570    0.52410    1.000
    N168     N        0.17550    0.96230    0.79440    1.000
    O113     O        0.96217    0.67971    0.58630    1.000
    C281     C        0.97630    0.81060    0.63080    1.000
    H169     H        0.95770    0.83540    0.63890    1.000
    N169     N        0.96099    0.76788    0.61671    1.000
    C282     C        0.82960    0.68040    0.64680    1.000
    C283     C        0.79050    0.69230    0.62510    1.000
    H170     H        0.79040    0.71480    0.60230    1.000
    C284     C        0.75280    0.67090    0.63710    1.000
    H171     H        0.72520    0.67860    0.62270    1.000
    N170     N        0.87311    0.69807    0.64238    1.000
    O114     O        0.96270    0.86100    0.76300    1.000
    C285     C        0.97590    0.84900    0.75430    1.000
    N171     N        0.70560    0.67550    0.53770    1.000
    O115     O        0.46217    0.17971    0.08630    1.000
    C286     C        0.47630    0.31060    0.13080    1.000
    H172     H        0.45770    0.33540    0.13890    1.000
    N172     N        0.46099    0.26788    0.11671    1.000
    C287     C        0.32960    0.18040    0.14680    1.000
    C288     C        0.29050    0.19230    0.12510    1.000
    H173     H        0.29040    0.21480    0.10230    1.000
    C289     C        0.25280    0.17090    0.13710    1.000
    H174     H        0.22520    0.17860    0.12270    1.000
    N173     N        0.37311    0.19807    0.14238    1.000
    O116     O        0.46270    0.36100    0.26300    1.000
    C290     C        0.47590    0.34900    0.25430    1.000
    N174     N        0.20560    0.17550    0.03770    1.000
    O117     O        0.96217    0.32029    0.41370    1.000
    C291     C        0.97630    0.18940    0.36920    1.000
    H175     H        0.95770    0.16460    0.36110    1.000
    N175     N        0.96099    0.23212    0.38329    1.000
    C292     C        0.82960    0.31960    0.35320    1.000
    C293     C        0.79050    0.30770    0.37490    1.000
    H176     H        0.79040    0.28520    0.39770    1.000
    C294     C        0.75280    0.32910    0.36290    1.000
    H177     H        0.72520    0.32140    0.37730    1.000
    N176     N        0.87311    0.30193    0.35762    1.000
    O118     O        0.96270    0.13900    0.23700    1.000
    C295     C        0.97590    0.15100    0.24570    1.000
    N177     N        0.70560    0.32450    0.46230    1.000
    O119     O        0.46217    0.82029    0.91370    1.000
    C296     C        0.47630    0.68940    0.86920    1.000
    H178     H        0.45770    0.66460    0.86110    1.000
    N178     N        0.46099    0.73212    0.88329    1.000
    C297     C        0.32960    0.81960    0.85320    1.000
    C298     C        0.29050    0.80770    0.87490    1.000
    H179     H        0.29040    0.78520    0.89770    1.000
    C299     C        0.25280    0.82910    0.86290    1.000
    H180     H        0.22520    0.82140    0.87730    1.000
    N179     N        0.37311    0.80193    0.85762    1.000
    O120     O        0.46270    0.63900    0.73700    1.000
    C300     C        0.47590    0.65100    0.74570    1.000
    N180     N        0.20560    0.82450    0.96230    1.000
    O121     O        0.03783    0.32029    0.58630    1.000
    C301     C        0.02370    0.18940    0.63080    1.000
    H181     H        0.04230    0.16460    0.63890    1.000
    N181     N        0.03901    0.23212    0.61671    1.000
    C302     C        0.17040    0.31960    0.64680    1.000
    C303     C        0.20950    0.30770    0.62510    1.000
    H182     H        0.20960    0.28520    0.60230    1.000
    C304     C        0.24720    0.32910    0.63710    1.000
    H183     H        0.27480    0.32140    0.62270    1.000
    N182     N        0.12689    0.30193    0.64238    1.000
    O122     O        0.03730    0.13900    0.76300    1.000
    C305     C        0.02410    0.15100    0.75430    1.000
    N183     N        0.29440    0.32450    0.53770    1.000
    O123     O        0.53783    0.82029    0.08630    1.000
    C306     C        0.52370    0.68940    0.13080    1.000
    H184     H        0.54230    0.66460    0.13890    1.000
    N184     N        0.53901    0.73212    0.11671    1.000
    C307     C        0.67040    0.81960    0.14680    1.000
    C308     C        0.70950    0.80770    0.12510    1.000
    H185     H        0.70960    0.78520    0.10230    1.000
    C309     C        0.74720    0.82910    0.13710    1.000
    H186     H        0.77480    0.82140    0.12270    1.000
    N185     N        0.62689    0.80193    0.14238    1.000
    O124     O        0.53730    0.63900    0.26300    1.000
    C310     C        0.52410    0.65100    0.25430    1.000
    N186     N        0.79440    0.82450    0.03770    1.000
    O125     O        0.03783    0.67971    0.41370    1.000
    C311     C        0.02370    0.81060    0.36920    1.000
    H187     H        0.04230    0.83540    0.36110    1.000
    N187     N        0.03901    0.76788    0.38329    1.000
    C312     C        0.17040    0.68040    0.35320    1.000
    C313     C        0.20950    0.69230    0.37490    1.000
    H188     H        0.20960    0.71480    0.39770    1.000
    C314     C        0.24720    0.67090    0.36290    1.000
    H189     H        0.27480    0.67860    0.37730    1.000
    N188     N        0.12689    0.69807    0.35762    1.000
    O126     O        0.03730    0.86100    0.23700    1.000
    C315     C        0.02410    0.84900    0.24570    1.000
    N189     N        0.29440    0.67550    0.46230    1.000
    O127     O        0.53783    0.17971    0.91370    1.000
    C316     C        0.52370    0.31060    0.86920    1.000
    H190     H        0.54230    0.33540    0.86110    1.000
    N190     N        0.53901    0.26788    0.88329    1.000
    C317     C        0.67040    0.18040    0.85320    1.000
    C318     C        0.70950    0.19230    0.87490    1.000
    H191     H        0.70960    0.21480    0.89770    1.000
    C319     C        0.74720    0.17090    0.86290    1.000
    H192     H        0.77480    0.17860    0.87730    1.000
    N191     N        0.62689    0.19807    0.85762    1.000
    O128     O        0.53730    0.36100    0.73700    1.000
    C320     C        0.52410    0.34900    0.74570    1.000
    N192     N        0.79440    0.17550    0.96230    1.000
    O129     O        0.58630    0.96217    0.67971    1.000
    C321     C        0.63080    0.97630    0.81060    1.000
    H193     H        0.63890    0.95770    0.83540    1.000
    N193     N        0.61671    0.96099    0.76788    1.000
    C322     C        0.64680    0.82960    0.68040    1.000
    C323     C        0.62510    0.79050    0.69230    1.000
    H194     H        0.60230    0.79040    0.71480    1.000
    C324     C        0.63710    0.75280    0.67090    1.000
    H195     H        0.62270    0.72520    0.67860    1.000
    N194     N        0.64238    0.87311    0.69807    1.000
    O130     O        0.76300    0.96270    0.86100    1.000
    C325     C        0.75430    0.97590    0.84900    1.000
    N195     N        0.53770    0.70560    0.67550    1.000
    O131     O        0.08630    0.46217    0.17971    1.000
    C326     C        0.13080    0.47630    0.31060    1.000
    H196     H        0.13890    0.45770    0.33540    1.000
    N196     N        0.11671    0.46099    0.26788    1.000
    C327     C        0.14680    0.32960    0.18040    1.000
    C328     C        0.12510    0.29050    0.19230    1.000
    H197     H        0.10230    0.29040    0.21480    1.000
    C329     C        0.13710    0.25280    0.17090    1.000
    H198     H        0.12270    0.22520    0.17860    1.000
    N197     N        0.14238    0.37311    0.19807    1.000
    O132     O        0.26300    0.46270    0.36100    1.000
    C330     C        0.25430    0.47590    0.34900    1.000
    N198     N        0.03770    0.20560    0.17550    1.000
    O133     O        0.41370    0.96217    0.32029    1.000
    C331     C        0.36920    0.97630    0.18940    1.000
    H199     H        0.36110    0.95770    0.16460    1.000
    N199     N        0.38329    0.96099    0.23212    1.000
    C332     C        0.35320    0.82960    0.31960    1.000
    C333     C        0.37490    0.79050    0.30770    1.000
    H200     H        0.39770    0.79040    0.28520    1.000
    C334     C        0.36290    0.75280    0.32910    1.000
    H201     H        0.37730    0.72520    0.32140    1.000
    N200     N        0.35762    0.87311    0.30193    1.000
    O134     O        0.23700    0.96270    0.13900    1.000
    C335     C        0.24570    0.97590    0.15100    1.000
    N201     N        0.46230    0.70560    0.32450    1.000
    O135     O        0.91370    0.46217    0.82029    1.000
    C336     C        0.86920    0.47630    0.68940    1.000
    H202     H        0.86110    0.45770    0.66460    1.000
    N202     N        0.88329    0.46099    0.73212    1.000
    C337     C        0.85320    0.32960    0.81960    1.000
    C338     C        0.87490    0.29050    0.80770    1.000
    H203     H        0.89770    0.29040    0.78520    1.000
    C339     C        0.86290    0.25280    0.82910    1.000
    H204     H        0.87730    0.22520    0.82140    1.000
    N203     N        0.85762    0.37311    0.80193    1.000
    O136     O        0.73700    0.46270    0.63900    1.000
    C340     C        0.74570    0.47590    0.65100    1.000
    N204     N        0.96230    0.20560    0.82450    1.000
    O137     O        0.58630    0.03783    0.32029    1.000
    C341     C        0.63080    0.02370    0.18940    1.000
    H205     H        0.63890    0.04230    0.16460    1.000
    N205     N        0.61671    0.03901    0.23212    1.000
    C342     C        0.64680    0.17040    0.31960    1.000
    C343     C        0.62510    0.20950    0.30770    1.000
    H206     H        0.60230    0.20960    0.28520    1.000
    C344     C        0.63710    0.24720    0.32910    1.000
    H207     H        0.62270    0.27480    0.32140    1.000
    N206     N        0.64238    0.12689    0.30193    1.000
    O138     O        0.76300    0.03730    0.13900    1.000
    C345     C        0.75430    0.02410    0.15100    1.000
    N207     N        0.53770    0.29440    0.32450    1.000
    O139     O        0.08630    0.53783    0.82029    1.000
    C346     C        0.13080    0.52370    0.68940    1.000
    H208     H        0.13890    0.54230    0.66460    1.000
    N208     N        0.11671    0.53901    0.73212    1.000
    C347     C        0.14680    0.67040    0.81960    1.000
    C348     C        0.12510    0.70950    0.80770    1.000
    H209     H        0.10230    0.70960    0.78520    1.000
    C349     C        0.13710    0.74720    0.82910    1.000
    H210     H        0.12270    0.77480    0.82140    1.000
    N209     N        0.14238    0.62689    0.80193    1.000
    O140     O        0.26300    0.53730    0.63900    1.000
    C350     C        0.25430    0.52410    0.65100    1.000
    N210     N        0.03770    0.79440    0.82450    1.000
    O141     O        0.41370    0.03783    0.67971    1.000
    C351     C        0.36920    0.02370    0.81060    1.000
    H211     H        0.36110    0.04230    0.83540    1.000
    N211     N        0.38329    0.03901    0.76788    1.000
    C352     C        0.35320    0.17040    0.68040    1.000
    C353     C        0.37490    0.20950    0.69230    1.000
    H212     H        0.39770    0.20960    0.71480    1.000
    C354     C        0.36290    0.24720    0.67090    1.000
    H213     H        0.37730    0.27480    0.67860    1.000
    N212     N        0.35762    0.12689    0.69807    1.000
    O142     O        0.23700    0.03730    0.86100    1.000
    C355     C        0.24570    0.02410    0.84900    1.000
    N213     N        0.46230    0.29440    0.67550    1.000
    O143     O        0.91370    0.53783    0.17971    1.000
    C356     C        0.86920    0.52370    0.31060    1.000
    H214     H        0.86110    0.54230    0.33540    1.000
    N214     N        0.88329    0.53901    0.26788    1.000
    C357     C        0.85320    0.67040    0.18040    1.000
    C358     C        0.87490    0.70950    0.19230    1.000
    H215     H        0.89770    0.70960    0.21480    1.000
    C359     C        0.86290    0.74720    0.17090    1.000
    H216     H        0.87730    0.77480    0.17860    1.000
    N215     N        0.85762    0.62689    0.19807    1.000
    O144     O        0.73700    0.53730    0.36100    1.000
    C360     C        0.74570    0.52410    0.34900    1.000
    N216     N        0.96230    0.79440    0.17550    1.000
    O145     O        0.58630    0.67971    0.03783    1.000
    C361     C        0.63080    0.81060    0.02370    1.000
    H217     H        0.63890    0.83540    0.04230    1.000
    N217     N        0.61671    0.76788    0.03901    1.000
    C362     C        0.64680    0.68040    0.17040    1.000
    C363     C        0.62510    0.69230    0.20950    1.000
    H218     H        0.60230    0.71480    0.20960    1.000
    C364     C        0.63710    0.67090    0.24720    1.000
    H219     H        0.62270    0.67860    0.27480    1.000
    N218     N        0.64238    0.69807    0.12689    1.000
    O146     O        0.76300    0.86100    0.03730    1.000
    C365     C        0.75430    0.84900    0.02410    1.000
    N219     N        0.53770    0.67550    0.29440    1.000
    O147     O        0.08630    0.17971    0.53783    1.000
    C366     C        0.13080    0.31060    0.52370    1.000
    H220     H        0.13890    0.33540    0.54230    1.000
    N220     N        0.11671    0.26788    0.53901    1.000
    C367     C        0.14680    0.18040    0.67040    1.000
    C368     C        0.12510    0.19230    0.70950    1.000
    H221     H        0.10230    0.21480    0.70960    1.000
    C369     C        0.13710    0.17090    0.74720    1.000
    H222     H        0.12270    0.17860    0.77480    1.000
    N221     N        0.14238    0.19807    0.62689    1.000
    O148     O        0.26300    0.36100    0.53730    1.000
    C370     C        0.25430    0.34900    0.52410    1.000
    N222     N        0.03770    0.17550    0.79440    1.000
    O149     O        0.41370    0.32029    0.03783    1.000
    C371     C        0.36920    0.18940    0.02370    1.000
    H223     H        0.36110    0.16460    0.04230    1.000
    N223     N        0.38329    0.23212    0.03901    1.000
    C372     C        0.35320    0.31960    0.17040    1.000
    C373     C        0.37490    0.30770    0.20950    1.000
    H224     H        0.39770    0.28520    0.20960    1.000
    C374     C        0.36290    0.32910    0.24720    1.000
    H225     H        0.37730    0.32140    0.27480    1.000
    N224     N        0.35762    0.30193    0.12689    1.000
    O150     O        0.23700    0.13900    0.03730    1.000
    C375     C        0.24570    0.15100    0.02410    1.000
    N225     N        0.46230    0.32450    0.29440    1.000
    O151     O        0.91370    0.82029    0.53783    1.000
    C376     C        0.86920    0.68940    0.52370    1.000
    H226     H        0.86110    0.66460    0.54230    1.000
    N226     N        0.88329    0.73212    0.53901    1.000
    C377     C        0.85320    0.81960    0.67040    1.000
    C378     C        0.87490    0.80770    0.70950    1.000
    H227     H        0.89770    0.78520    0.70960    1.000
    C379     C        0.86290    0.82910    0.74720    1.000
    H228     H        0.87730    0.82140    0.77480    1.000
    N227     N        0.85762    0.80193    0.62689    1.000
    O152     O        0.73700    0.63900    0.53730    1.000
    C380     C        0.74570    0.65100    0.52410    1.000
    N228     N        0.96230    0.82450    0.79440    1.000
    O153     O        0.58630    0.32029    0.96217    1.000
    C381     C        0.63080    0.18940    0.97630    1.000
    H229     H        0.63890    0.16460    0.95770    1.000
    N229     N        0.61671    0.23212    0.96099    1.000
    C382     C        0.64680    0.31960    0.82960    1.000
    C383     C        0.62510    0.30770    0.79050    1.000
    H230     H        0.60230    0.28520    0.79040    1.000
    C384     C        0.63710    0.32910    0.75280    1.000
    H231     H        0.62270    0.32140    0.72520    1.000
    N230     N        0.64238    0.30193    0.87311    1.000
    O154     O        0.76300    0.13900    0.96270    1.000
    C385     C        0.75430    0.15100    0.97590    1.000
    N231     N        0.53770    0.32450    0.70560    1.000
    O155     O        0.08630    0.82029    0.46217    1.000
    C386     C        0.13080    0.68940    0.47630    1.000
    H232     H        0.13890    0.66460    0.45770    1.000
    N232     N        0.11671    0.73212    0.46099    1.000
    C387     C        0.14680    0.81960    0.32960    1.000
    C388     C        0.12510    0.80770    0.29050    1.000
    H233     H        0.10230    0.78520    0.29040    1.000
    C389     C        0.13710    0.82910    0.25280    1.000
    H234     H        0.12270    0.82140    0.22520    1.000
    N233     N        0.14238    0.80193    0.37311    1.000
    O156     O        0.26300    0.63900    0.46270    1.000
    C390     C        0.25430    0.65100    0.47590    1.000
    N234     N        0.03770    0.82450    0.20560    1.000
    O157     O        0.41370    0.67971    0.96217    1.000
    C391     C        0.36920    0.81060    0.97630    1.000
    H235     H        0.36110    0.83540    0.95770    1.000
    N235     N        0.38329    0.76788    0.96099    1.000
    C392     C        0.35320    0.68040    0.82960    1.000
    C393     C        0.37490    0.69230    0.79050    1.000
    H236     H        0.39770    0.71480    0.79040    1.000
    C394     C        0.36290    0.67090    0.75280    1.000
    H237     H        0.37730    0.67860    0.72520    1.000
    N236     N        0.35762    0.69807    0.87311    1.000
    O158     O        0.23700    0.86100    0.96270    1.000
    C395     C        0.24570    0.84900    0.97590    1.000
    N237     N        0.46230    0.67550    0.70560    1.000
    O159     O        0.91370    0.17971    0.46217    1.000
    C396     C        0.86920    0.31060    0.47630    1.000
    H238     H        0.86110    0.33540    0.45770    1.000
    N238     N        0.88329    0.26788    0.46099    1.000
    C397     C        0.85320    0.18040    0.32960    1.000
    C398     C        0.87490    0.19230    0.29050    1.000
    H239     H        0.89770    0.21480    0.29040    1.000
    C399     C        0.86290    0.17090    0.25280    1.000
    H240     H        0.87730    0.17860    0.22520    1.000
    N239     N        0.85762    0.19807    0.37311    1.000
    O160     O        0.73700    0.36100    0.46270    1.000
    C400     C        0.74570    0.34900    0.47590    1.000
    N240     N        0.96230    0.17550    0.20560    1.000
    O161     O        0.67971    0.96217    0.41370    1.000
    C401     C        0.81060    0.97630    0.36920    1.000
    H241     H        0.83540    0.95770    0.36110    1.000
    N241     N        0.76788    0.96099    0.38329    1.000
    C402     C        0.68040    0.82960    0.35320    1.000
    C403     C        0.69230    0.79050    0.37490    1.000
    H242     H        0.71480    0.79040    0.39770    1.000
    C404     C        0.67090    0.75280    0.36290    1.000
    H243     H        0.67860    0.72520    0.37730    1.000
    N242     N        0.69807    0.87311    0.35762    1.000
    O162     O        0.86100    0.96270    0.23700    1.000
    C405     C        0.84900    0.97590    0.24570    1.000
    N243     N        0.67550    0.70560    0.46230    1.000
    O163     O        0.17971    0.46217    0.91370    1.000
    C406     C        0.31060    0.47630    0.86920    1.000
    H244     H        0.33540    0.45770    0.86110    1.000
    N244     N        0.26788    0.46099    0.88329    1.000
    C407     C        0.18040    0.32960    0.85320    1.000
    C408     C        0.19230    0.29050    0.87490    1.000
    H245     H        0.21480    0.29040    0.89770    1.000
    C409     C        0.17090    0.25280    0.86290    1.000
    H246     H        0.17860    0.22520    0.87730    1.000
    N245     N        0.19807    0.37311    0.85762    1.000
    O164     O        0.36100    0.46270    0.73700    1.000
    C410     C        0.34900    0.47590    0.74570    1.000
    N246     N        0.17550    0.20560    0.96230    1.000
    O165     O        0.32029    0.96217    0.58630    1.000
    C411     C        0.18940    0.97630    0.63080    1.000
    H247     H        0.16460    0.95770    0.63890    1.000
    N247     N        0.23212    0.96099    0.61671    1.000
    C412     C        0.31960    0.82960    0.64680    1.000
    C413     C        0.30770    0.79050    0.62510    1.000
    H248     H        0.28520    0.79040    0.60230    1.000
    C414     C        0.32910    0.75280    0.63710    1.000
    H249     H        0.32140    0.72520    0.62270    1.000
    N248     N        0.30193    0.87311    0.64238    1.000
    O166     O        0.13900    0.96270    0.76300    1.000
    C415     C        0.15100    0.97590    0.75430    1.000
    N249     N        0.32450    0.70560    0.53770    1.000
    O167     O        0.82029    0.46217    0.08630    1.000
    C416     C        0.68940    0.47630    0.13080    1.000
    H250     H        0.66460    0.45770    0.13890    1.000
    N250     N        0.73212    0.46099    0.11671    1.000
    C417     C        0.81960    0.32960    0.14680    1.000
    C418     C        0.80770    0.29050    0.12510    1.000
    H251     H        0.78520    0.29040    0.10230    1.000
    C419     C        0.82910    0.25280    0.13710    1.000
    H252     H        0.82140    0.22520    0.12270    1.000
    N251     N        0.80193    0.37311    0.14238    1.000
    O168     O        0.63900    0.46270    0.26300    1.000
    C420     C        0.65100    0.47590    0.25430    1.000
    N252     N        0.82450    0.20560    0.03770    1.000
    O169     O        0.32029    0.03783    0.41370    1.000
    C421     C        0.18940    0.02370    0.36920    1.000
    H253     H        0.16460    0.04230    0.36110    1.000
    N253     N        0.23212    0.03901    0.38329    1.000
    C422     C        0.31960    0.17040    0.35320    1.000
    C423     C        0.30770    0.20950    0.37490    1.000
    H254     H        0.28520    0.20960    0.39770    1.000
    C424     C        0.32910    0.24720    0.36290    1.000
    H255     H        0.32140    0.27480    0.37730    1.000
    N254     N        0.30193    0.12689    0.35762    1.000
    O170     O        0.13900    0.03730    0.23700    1.000
    C425     C        0.15100    0.02410    0.24570    1.000
    N255     N        0.32450    0.29440    0.46230    1.000
    O171     O        0.82029    0.53783    0.91370    1.000
    C426     C        0.68940    0.52370    0.86920    1.000
    H256     H        0.66460    0.54230    0.86110    1.000
    N256     N        0.73212    0.53901    0.88329    1.000
    C427     C        0.81960    0.67040    0.85320    1.000
    C428     C        0.80770    0.70950    0.87490    1.000
    H257     H        0.78520    0.70960    0.89770    1.000
    C429     C        0.82910    0.74720    0.86290    1.000
    H258     H        0.82140    0.77480    0.87730    1.000
    N257     N        0.80193    0.62689    0.85762    1.000
    O172     O        0.63900    0.53730    0.73700    1.000
    C430     C        0.65100    0.52410    0.74570    1.000
    N258     N        0.82450    0.79440    0.96230    1.000
    O173     O        0.67971    0.03783    0.58630    1.000
    C431     C        0.81060    0.02370    0.63080    1.000
    H259     H        0.83540    0.04230    0.63890    1.000
    N259     N        0.76788    0.03901    0.61671    1.000
    C432     C        0.68040    0.17040    0.64680    1.000
    C433     C        0.69230    0.20950    0.62510    1.000
    H260     H        0.71480    0.20960    0.60230    1.000
    C434     C        0.67090    0.24720    0.63710    1.000
    H261     H        0.67860    0.27480    0.62270    1.000
    N260     N        0.69807    0.12689    0.64238    1.000
    O174     O        0.86100    0.03730    0.76300    1.000
    C435     C        0.84900    0.02410    0.75430    1.000
    N261     N        0.67550    0.29440    0.53770    1.000
    O175     O        0.17971    0.53783    0.08630    1.000
    C436     C        0.31060    0.52370    0.13080    1.000
    H262     H        0.33540    0.54230    0.13890    1.000
    N262     N        0.26788    0.53901    0.11671    1.000
    C437     C        0.18040    0.67040    0.14680    1.000
    C438     C        0.19230    0.70950    0.12510    1.000
    H263     H        0.21480    0.70960    0.10230    1.000
    C439     C        0.17090    0.74720    0.13710    1.000
    H264     H        0.17860    0.77480    0.12270    1.000
    N263     N        0.19807    0.62689    0.14238    1.000
    O176     O        0.36100    0.53730    0.26300    1.000
    C440     C        0.34900    0.52410    0.25430    1.000
    N264     N        0.17550    0.79440    0.03770    1.000
    O177     O        0.96217    0.58630    0.32029    1.000
    C441     C        0.97630    0.63080    0.18940    1.000
    H265     H        0.95770    0.63890    0.16460    1.000
    N265     N        0.96099    0.61671    0.23212    1.000
    C442     C        0.82960    0.64680    0.31960    1.000
    C443     C        0.79050    0.62510    0.30770    1.000
    H266     H        0.79040    0.60230    0.28520    1.000
    C444     C        0.75280    0.63710    0.32910    1.000
    H267     H        0.72520    0.62270    0.32140    1.000
    N266     N        0.87311    0.64238    0.30193    1.000
    O178     O        0.96270    0.76300    0.13900    1.000
    C445     C        0.97590    0.75430    0.15100    1.000
    N267     N        0.70560    0.53770    0.32450    1.000
    O179     O        0.46217    0.08630    0.82029    1.000
    C446     C        0.47630    0.13080    0.68940    1.000
    H268     H        0.45770    0.13890    0.66460    1.000
    N268     N        0.46099    0.11671    0.73212    1.000
    C447     C        0.32960    0.14680    0.81960    1.000
    C448     C        0.29050    0.12510    0.80770    1.000
    H269     H        0.29040    0.10230    0.78520    1.000
    C449     C        0.25280    0.13710    0.82910    1.000
    H270     H        0.22520    0.12270    0.82140    1.000
    N269     N        0.37311    0.14238    0.80193    1.000
    O180     O        0.46270    0.26300    0.63900    1.000
    C450     C        0.47590    0.25430    0.65100    1.000
    N270     N        0.20560    0.03770    0.82450    1.000
    O181     O        0.96217    0.41370    0.67971    1.000
    C451     C        0.97630    0.36920    0.81060    1.000
    H271     H        0.95770    0.36110    0.83540    1.000
    N271     N        0.96099    0.38329    0.76788    1.000
    C452     C        0.82960    0.35320    0.68040    1.000
    C453     C        0.79050    0.37490    0.69230    1.000
    H272     H        0.79040    0.39770    0.71480    1.000
    C454     C        0.75280    0.36290    0.67090    1.000
    H273     H        0.72520    0.37730    0.67860    1.000
    N272     N        0.87311    0.35762    0.69807    1.000
    O182     O        0.96270    0.23700    0.86100    1.000
    C455     C        0.97590    0.24570    0.84900    1.000
    N273     N        0.70560    0.46230    0.67550    1.000
    O183     O        0.46217    0.91370    0.17971    1.000
    C456     C        0.47630    0.86920    0.31060    1.000
    H274     H        0.45770    0.86110    0.33540    1.000
    N274     N        0.46099    0.88329    0.26788    1.000
    C457     C        0.32960    0.85320    0.18040    1.000
    C458     C        0.29050    0.87490    0.19230    1.000
    H275     H        0.29040    0.89770    0.21480    1.000
    C459     C        0.25280    0.86290    0.17090    1.000
    H276     H        0.22520    0.87730    0.17860    1.000
    N275     N        0.37311    0.85762    0.19807    1.000
    O184     O        0.46270    0.73700    0.36100    1.000
    C460     C        0.47590    0.74570    0.34900    1.000
    N276     N        0.20560    0.96230    0.17550    1.000
    O185     O        0.03783    0.58630    0.67971    1.000
    C461     C        0.02370    0.63080    0.81060    1.000
    H277     H        0.04230    0.63890    0.83540    1.000
    N277     N        0.03901    0.61671    0.76788    1.000
    C462     C        0.17040    0.64680    0.68040    1.000
    C463     C        0.20950    0.62510    0.69230    1.000
    H278     H        0.20960    0.60230    0.71480    1.000
    C464     C        0.24720    0.63710    0.67090    1.000
    H279     H        0.27480    0.62270    0.67860    1.000
    N278     N        0.12689    0.64238    0.69807    1.000
    O186     O        0.03730    0.76300    0.86100    1.000
    C465     C        0.02410    0.75430    0.84900    1.000
    N279     N        0.29440    0.53770    0.67550    1.000
    O187     O        0.53783    0.08630    0.17971    1.000
    C466     C        0.52370    0.13080    0.31060    1.000
    H280     H        0.54230    0.13890    0.33540    1.000
    N280     N        0.53901    0.11671    0.26788    1.000
    C467     C        0.67040    0.14680    0.18040    1.000
    C468     C        0.70950    0.12510    0.19230    1.000
    H281     H        0.70960    0.10230    0.21480    1.000
    C469     C        0.74720    0.13710    0.17090    1.000
    H282     H        0.77480    0.12270    0.17860    1.000
    N281     N        0.62689    0.14238    0.19807    1.000
    O188     O        0.53730    0.26300    0.36100    1.000
    C470     C        0.52410    0.25430    0.34900    1.000
    N282     N        0.79440    0.03770    0.17550    1.000
    O189     O        0.03783    0.41370    0.32029    1.000
    C471     C        0.02370    0.36920    0.18940    1.000
    H283     H        0.04230    0.36110    0.16460    1.000
    N283     N        0.03901    0.38329    0.23212    1.000
    C472     C        0.17040    0.35320    0.31960    1.000
    C473     C        0.20950    0.37490    0.30770    1.000
    H284     H        0.20960    0.39770    0.28520    1.000
    C474     C        0.24720    0.36290    0.32910    1.000
    H285     H        0.27480    0.37730    0.32140    1.000
    N284     N        0.12689    0.35762    0.30193    1.000
    O190     O        0.03730    0.23700    0.13900    1.000
    C475     C        0.02410    0.24570    0.15100    1.000
    N285     N        0.29440    0.46230    0.32450    1.000
    O191     O        0.53783    0.91370    0.82029    1.000
    C476     C        0.52370    0.86920    0.68940    1.000
    H286     H        0.54230    0.86110    0.66460    1.000
    N286     N        0.53901    0.88329    0.73212    1.000
    C477     C        0.67040    0.85320    0.81960    1.000
    C478     C        0.70950    0.87490    0.80770    1.000
    H287     H        0.70960    0.89770    0.78520    1.000
    C479     C        0.74720    0.86290    0.82910    1.000
    H288     H        0.77480    0.87730    0.82140    1.000
    N287     N        0.62689    0.85762    0.80193    1.000
    O192     O        0.53730    0.73700    0.63900    1.000
    C480     C        0.52410    0.74570    0.65100    1.000
    N288     N        0.79440    0.96230    0.82450    1.000
    Zn1      Zn       0.25000    0.39602    0.10398    1.000
    Zn2      Zn       0.75000    0.60398    0.10398    1.000
    Zn3      Zn       0.75000    0.39602    0.89602    1.000
    Zn4      Zn       0.25000    0.60398    0.89602    1.000
    Zn5      Zn       0.10398    0.25000    0.39602    1.000
    Zn6      Zn       0.10398    0.75000    0.60398    1.000
    Zn7      Zn       0.89602    0.75000    0.39602    1.000
    Zn8      Zn       0.89602    0.25000    0.60398    1.000
    Zn9      Zn       0.39602    0.10398    0.25000    1.000
    Zn10     Zn       0.60398    0.10398    0.75000    1.000
    Zn11     Zn       0.39602    0.89602    0.75000    1.000
    Zn12     Zn       0.60398    0.89602    0.25000    1.000
    Zn13     Zn       0.39602    0.25000    0.89602    1.000
    Zn14     Zn       0.60398    0.75000    0.89602    1.000
    Zn15     Zn       0.39602    0.75000    0.10398    1.000
    Zn16     Zn       0.60398    0.25000    0.10398    1.000
    Zn17     Zn       0.25000    0.10398    0.60398    1.000
    Zn18     Zn       0.75000    0.10398    0.39602    1.000
    Zn19     Zn       0.75000    0.89602    0.60398    1.000
    Zn20     Zn       0.25000    0.89602    0.39602    1.000
    Zn21     Zn       0.10398    0.39602    0.75000    1.000
    Zn22     Zn       0.10398    0.60398    0.25000    1.000
    Zn23     Zn       0.89602    0.39602    0.25000    1.000
    Zn24     Zn       0.89602    0.60398    0.75000    1.000
    Zn25     Zn       0.75000    0.60398    0.89602    1.000
    Zn26     Zn       0.25000    0.10398    0.39602    1.000
    Zn27     Zn       0.25000    0.39602    0.89602    1.000
    Zn28     Zn       0.25000    0.60398    0.10398    1.000
    Zn29     Zn       0.75000    0.39602    0.10398    1.000
    Zn30     Zn       0.89602    0.75000    0.60398    1.000
    Zn31     Zn       0.39602    0.25000    0.10398    1.000
    Zn32     Zn       0.89602    0.25000    0.39602    1.000
    Zn33     Zn       0.10398    0.25000    0.60398    1.000
    Zn34     Zn       0.10398    0.75000    0.39602    1.000
    Zn35     Zn       0.60398    0.89602    0.75000    1.000
    Zn36     Zn       0.10398    0.39602    0.25000    1.000
    Zn37     Zn       0.39602    0.89602    0.25000    1.000
    Zn38     Zn       0.60398    0.10398    0.25000    1.000
    Zn39     Zn       0.39602    0.10398    0.75000    1.000
    Zn40     Zn       0.60398    0.75000    0.10398    1.000
    Zn41     Zn       0.60398    0.25000    0.89602    1.000
    Zn42     Zn       0.39602    0.75000    0.89602    1.000
    Zn43     Zn       0.75000    0.89602    0.39602    1.000
    Zn44     Zn       0.25000    0.89602    0.60398    1.000
    Zn45     Zn       0.75000    0.10398    0.60398    1.000
    Zn46     Zn       0.89602    0.60398    0.25000    1.000
    Zn47     Zn       0.89602    0.39602    0.75000    1.000
    Zn48     Zn       0.10398    0.60398    0.75000    1.000
    Zn49     Zn       0.31112    0.39628    0.31112    1.000
    Zn50     Zn       0.81112    0.89628    0.81112    1.000
    Zn51     Zn       0.68888    0.60372    0.31112    1.000
    Zn52     Zn       0.18888    0.10372    0.81112    1.000
    Zn53     Zn       0.68888    0.39628    0.68888    1.000
    Zn54     Zn       0.18888    0.89628    0.18888    1.000
    Zn55     Zn       0.31112    0.60372    0.68888    1.000
    Zn56     Zn       0.81112    0.10372    0.18888    1.000
    Zn57     Zn       0.31112    0.31112    0.39628    1.000
    Zn58     Zn       0.81112    0.81112    0.89628    1.000
    Zn59     Zn       0.31112    0.68888    0.60372    1.000
    Zn60     Zn       0.81112    0.18888    0.10372    1.000
    Zn61     Zn       0.68888    0.68888    0.39628    1.000
    Zn62     Zn       0.18888    0.18888    0.89628    1.000
    Zn63     Zn       0.68888    0.31112    0.60372    1.000
    Zn64     Zn       0.18888    0.81112    0.10372    1.000
    Zn65     Zn       0.39628    0.31112    0.31112    1.000
    Zn66     Zn       0.89628    0.81112    0.81112    1.000
    Zn67     Zn       0.60372    0.31112    0.68888    1.000
    Zn68     Zn       0.10372    0.81112    0.18888    1.000
    Zn69     Zn       0.39628    0.68888    0.68888    1.000
    Zn70     Zn       0.89628    0.18888    0.18888    1.000
    Zn71     Zn       0.60372    0.68888    0.31112    1.000
    Zn72     Zn       0.10372    0.18888    0.81112    1.000
    Zn73     Zn       0.39628    0.31112    0.68888    1.000
    Zn74     Zn       0.89628    0.81112    0.18888    1.000
    Zn75     Zn       0.60372    0.68888    0.68888    1.000
    Zn76     Zn       0.10372    0.18888    0.18888    1.000
    Zn77     Zn       0.39628    0.68888    0.31112    1.000
    Zn78     Zn       0.89628    0.18888    0.81112    1.000
    Zn79     Zn       0.60372    0.31112    0.31112    1.000
    Zn80     Zn       0.10372    0.81112    0.81112    1.000
    Zn81     Zn       0.31112    0.31112    0.60372    1.000
    Zn82     Zn       0.81112    0.81112    0.10372    1.000
    Zn83     Zn       0.68888    0.31112    0.39628    1.000
    Zn84     Zn       0.18888    0.81112    0.89628    1.000
    Zn85     Zn       0.68888    0.68888    0.60372    1.000
    Zn86     Zn       0.18888    0.18888    0.10372    1.000
    Zn87     Zn       0.31112    0.68888    0.39628    1.000
    Zn88     Zn       0.81112    0.18888    0.89628    1.000
    Zn89     Zn       0.31112    0.39628    0.68888    1.000
    Zn90     Zn       0.81112    0.89628    0.18888    1.000
    Zn91     Zn       0.31112    0.60372    0.31112    1.000
    Zn92     Zn       0.81112    0.10372    0.81112    1.000
    Zn93     Zn       0.68888    0.39628    0.31112    1.000
    Zn94     Zn       0.18888    0.89628    0.81112    1.000
    Zn95     Zn       0.68888    0.60372    0.68888    1.000
    Zn96     Zn       0.18888    0.10372    0.18888    1.000
    C481     C        0.25510    0.39190    0.00000    1.000
    N289     N        0.30100    0.40710    0.00000    1.000
    C482     C        0.75510    0.89190    0.50000    1.000
    N290     N        0.80100    0.90710    0.50000    1.000
    C483     C        0.74490    0.60810    0.00000    1.000
    N291     N        0.69900    0.59290    0.00000    1.000
    C484     C        0.24490    0.10810    0.50000    1.000
    N292     N        0.19900    0.09290    0.50000    1.000
    C485     C        0.74490    0.39190    0.00000    1.000
    N293     N        0.69900    0.40710    0.00000    1.000
    C486     C        0.24490    0.89190    0.50000    1.000
    N294     N        0.19900    0.90710    0.50000    1.000
    C487     C        0.25510    0.60810    0.00000    1.000
    N295     N        0.30100    0.59290    0.00000    1.000
    C488     C        0.75510    0.10810    0.50000    1.000
    N296     N        0.80100    0.09290    0.50000    1.000
    C489     C        0.00000    0.25510    0.39190    1.000
    N297     N        0.00000    0.30100    0.40710    1.000
    C490     C        0.50000    0.75510    0.89190    1.000
    N298     N        0.50000    0.80100    0.90710    1.000
    C491     C        0.00000    0.74490    0.60810    1.000
    N299     N        0.00000    0.69900    0.59290    1.000
    C492     C        0.50000    0.24490    0.10810    1.000
    N300     N        0.50000    0.19900    0.09290    1.000
    C493     C        0.00000    0.74490    0.39190    1.000
    N301     N        0.00000    0.69900    0.40710    1.000
    C494     C        0.50000    0.24490    0.89190    1.000
    N302     N        0.50000    0.19900    0.90710    1.000
    C495     C        0.00000    0.25510    0.60810    1.000
    N303     N        0.00000    0.30100    0.59290    1.000
    C496     C        0.50000    0.75510    0.10810    1.000
    N304     N        0.50000    0.80100    0.09290    1.000
    C497     C        0.39190    0.00000    0.25510    1.000
    N305     N        0.40710    0.00000    0.30100    1.000
    C498     C        0.89190    0.50000    0.75510    1.000
    N306     N        0.90710    0.50000    0.80100    1.000
    C499     C        0.60810    0.00000    0.74490    1.000
    N307     N        0.59290    0.00000    0.69900    1.000
    C500     C        0.10810    0.50000    0.24490    1.000
    N308     N        0.09290    0.50000    0.19900    1.000
    C501     C        0.39190    0.00000    0.74490    1.000
    N309     N        0.40710    0.00000    0.69900    1.000
    C502     C        0.89190    0.50000    0.24490    1.000
    N310     N        0.90710    0.50000    0.19900    1.000
    C503     C        0.60810    0.00000    0.25510    1.000
    N311     N        0.59290    0.00000    0.30100    1.000
    C504     C        0.10810    0.50000    0.75510    1.000
    N312     N        0.09290    0.50000    0.80100    1.000
    C505     C        0.39190    0.25510    0.00000    1.000
    N313     N        0.40710    0.30100    0.00000    1.000
    C506     C        0.89190    0.75510    0.50000    1.000
    N314     N        0.90710    0.80100    0.50000    1.000
    C507     C        0.60810    0.74490    0.00000    1.000
    N315     N        0.59290    0.69900    0.00000    1.000
    C508     C        0.10810    0.24490    0.50000    1.000
    N316     N        0.09290    0.19900    0.50000    1.000
    C509     C        0.39190    0.74490    0.00000    1.000
    N317     N        0.40710    0.69900    0.00000    1.000
    C510     C        0.89190    0.24490    0.50000    1.000
    N318     N        0.90710    0.19900    0.50000    1.000
    C511     C        0.60810    0.25510    0.00000    1.000
    N319     N        0.59290    0.30100    0.00000    1.000
    C512     C        0.10810    0.75510    0.50000    1.000
    N320     N        0.09290    0.80100    0.50000    1.000
    C513     C        0.25510    0.00000    0.60810    1.000
    N321     N        0.30100    0.00000    0.59290    1.000
    C514     C        0.75510    0.50000    0.10810    1.000
    N322     N        0.80100    0.50000    0.09290    1.000
    C515     C        0.74490    0.00000    0.39190    1.000
    N323     N        0.69900    0.00000    0.40710    1.000
    C516     C        0.24490    0.50000    0.89190    1.000
    N324     N        0.19900    0.50000    0.90710    1.000
    C517     C        0.74490    0.00000    0.60810    1.000
    N325     N        0.69900    0.00000    0.59290    1.000
    C518     C        0.24490    0.50000    0.10810    1.000
    N326     N        0.19900    0.50000    0.09290    1.000
    C519     C        0.25510    0.00000    0.39190    1.000
    N327     N        0.30100    0.00000    0.40710    1.000
    C520     C        0.75510    0.50000    0.89190    1.000
    N328     N        0.80100    0.50000    0.90710    1.000
    C521     C        0.00000    0.39190    0.74490    1.000
    N329     N        0.00000    0.40710    0.69900    1.000
    C522     C        0.50000    0.89190    0.24490    1.000
    N330     N        0.50000    0.90710    0.19900    1.000
    C523     C        0.00000    0.60810    0.25510    1.000
    N331     N        0.00000    0.59290    0.30100    1.000
    C524     C        0.50000    0.10810    0.75510    1.000
    N332     N        0.50000    0.09290    0.80100    1.000
    C525     C        0.00000    0.39190    0.25510    1.000
    N333     N        0.00000    0.40710    0.30100    1.000
    C526     C        0.50000    0.89190    0.75510    1.000
    N334     N        0.50000    0.90710    0.80100    1.000
    C527     C        0.00000    0.60810    0.74490    1.000
    N335     N        0.00000    0.59290    0.69900    1.000
    C528     C        0.50000    0.10810    0.24490    1.000
    N336     N        0.50000    0.09290    0.19900    1.000
    C529     C        0.32810    0.32810    0.10230    1.000
    H289     H        0.32590    0.32590    0.07040    1.000
    C530     C        0.82810    0.82810    0.60230    1.000
    H290     H        0.82590    0.82590    0.57040    1.000
    C531     C        0.67190    0.67190    0.10230    1.000
    H291     H        0.67410    0.67410    0.07040    1.000
    C532     C        0.17190    0.17190    0.60230    1.000
    H292     H        0.17410    0.17410    0.57040    1.000
    C533     C        0.67190    0.32810    0.89770    1.000
    H293     H        0.67410    0.32590    0.92960    1.000
    C534     C        0.17190    0.82810    0.39770    1.000
    H294     H        0.17410    0.82590    0.42960    1.000
    C535     C        0.32810    0.67190    0.89770    1.000
    H295     H        0.32590    0.67410    0.92960    1.000
    C536     C        0.82810    0.17190    0.39770    1.000
    H296     H        0.82590    0.17410    0.42960    1.000
    C537     C        0.10230    0.32810    0.32810    1.000
    H297     H        0.07040    0.32590    0.32590    1.000
    C538     C        0.60230    0.82810    0.82810    1.000
    H298     H        0.57040    0.82590    0.82590    1.000
    C539     C        0.10230    0.67190    0.67190    1.000
    H299     H        0.07040    0.67410    0.67410    1.000
    C540     C        0.60230    0.17190    0.17190    1.000
    H300     H        0.57040    0.17410    0.17410    1.000
    C541     C        0.89770    0.67190    0.32810    1.000
    H301     H        0.92960    0.67410    0.32590    1.000
    C542     C        0.39770    0.17190    0.82810    1.000
    H302     H        0.42960    0.17410    0.82590    1.000
    C543     C        0.89770    0.32810    0.67190    1.000
    H303     H        0.92960    0.32590    0.67410    1.000
    C544     C        0.39770    0.82810    0.17190    1.000
    H304     H        0.42960    0.82590    0.17410    1.000
    C545     C        0.32810    0.10230    0.32810    1.000
    H305     H        0.32590    0.07040    0.32590    1.000
    C546     C        0.82810    0.60230    0.82810    1.000
    H306     H        0.82590    0.57040    0.82590    1.000
    C547     C        0.67190    0.10230    0.67190    1.000
    H307     H        0.67410    0.07040    0.67410    1.000
    C548     C        0.17190    0.60230    0.17190    1.000
    H308     H        0.17410    0.57040    0.17410    1.000
    C549     C        0.32810    0.89770    0.67190    1.000
    H309     H        0.32590    0.92960    0.67410    1.000
    C550     C        0.82810    0.39770    0.17190    1.000
    H310     H        0.82590    0.42960    0.17410    1.000
    C551     C        0.67190    0.89770    0.32810    1.000
    H311     H        0.67410    0.92960    0.32590    1.000
    C552     C        0.17190    0.39770    0.82810    1.000
    H312     H        0.17410    0.42960    0.82590    1.000
    C553     C        0.32810    0.32810    0.89770    1.000
    H313     H        0.32590    0.32590    0.92960    1.000
    C554     C        0.82810    0.82810    0.39770    1.000
    H314     H        0.82590    0.82590    0.42960    1.000
    C555     C        0.67190    0.67190    0.89770    1.000
    H315     H        0.67410    0.67410    0.92960    1.000
    C556     C        0.17190    0.17190    0.39770    1.000
    H316     H        0.17410    0.17410    0.42960    1.000
    C557     C        0.32810    0.67190    0.10230    1.000
    H317     H        0.32590    0.67410    0.07040    1.000
    C558     C        0.82810    0.17190    0.60230    1.000
    H318     H        0.82590    0.17410    0.57040    1.000
    C559     C        0.67190    0.32810    0.10230    1.000
    H319     H        0.67410    0.32590    0.07040    1.000
    C560     C        0.17190    0.82810    0.60230    1.000
    H320     H        0.17410    0.82590    0.57040    1.000
    C561     C        0.32810    0.10230    0.67190    1.000
    H321     H        0.32590    0.07040    0.67410    1.000
    C562     C        0.82810    0.60230    0.17190    1.000
    H322     H        0.82590    0.57040    0.17410    1.000
    C563     C        0.67190    0.10230    0.32810    1.000
    H323     H        0.67410    0.07040    0.32590    1.000
    C564     C        0.17190    0.60230    0.82810    1.000
    H324     H        0.17410    0.57040    0.82590    1.000
    C565     C        0.67190    0.89770    0.67190    1.000
    H325     H        0.67410    0.92960    0.67410    1.000
    C566     C        0.17190    0.39770    0.17190    1.000
    H326     H        0.17410    0.42960    0.17410    1.000
    C567     C        0.32810    0.89770    0.32810    1.000
    H327     H        0.32590    0.92960    0.32590    1.000
    C568     C        0.82810    0.39770    0.82810    1.000
    H328     H        0.82590    0.42960    0.82590    1.000
    C569     C        0.10230    0.32810    0.67190    1.000
    H329     H        0.07040    0.32590    0.67410    1.000
    C570     C        0.60230    0.82810    0.17190    1.000
    H330     H        0.57040    0.82590    0.17410    1.000
    C571     C        0.10230    0.67190    0.32810    1.000
    H331     H        0.07040    0.67410    0.32590    1.000
    C572     C        0.60230    0.17190    0.82810    1.000
    H332     H        0.57040    0.17410    0.82590    1.000
    C573     C        0.89770    0.32810    0.32810    1.000
    H333     H        0.92960    0.32590    0.32590    1.000
    C574     C        0.39770    0.82810    0.82810    1.000
    H334     H        0.42960    0.82590    0.82590    1.000
    C575     C        0.89770    0.67190    0.67190    1.000
    H335     H        0.92960    0.67410    0.67410    1.000
    C576     C        0.39770    0.17190    0.17190    1.000
    H336     H        0.42960    0.17410    0.17410    1.000
    C577     C        0.18910    0.18910    0.00000    1.000
    C578     C        0.68910    0.68910    0.50000    1.000
    C579     C        0.81090    0.81090    0.00000    1.000
    C580     C        0.31090    0.31090    0.50000    1.000
    C581     C        0.81090    0.18910    0.00000    1.000
    C582     C        0.31090    0.68910    0.50000    1.000
    C583     C        0.18910    0.81090    0.00000    1.000
    C584     C        0.68910    0.31090    0.50000    1.000
    C585     C        0.00000    0.18910    0.18910    1.000
    C586     C        0.50000    0.68910    0.68910    1.000
    C587     C        0.00000    0.81090    0.81090    1.000
    C588     C        0.50000    0.31090    0.31090    1.000
    C589     C        0.00000    0.81090    0.18910    1.000
    C590     C        0.50000    0.31090    0.68910    1.000
    C591     C        0.00000    0.18910    0.81090    1.000
    C592     C        0.50000    0.68910    0.31090    1.000
    C593     C        0.18910    0.00000    0.18910    1.000
    C594     C        0.68910    0.50000    0.68910    1.000
    C595     C        0.81090    0.00000    0.81090    1.000
    C596     C        0.31090    0.50000    0.31090    1.000
    C597     C        0.18910    0.00000    0.81090    1.000
    C598     C        0.68910    0.50000    0.31090    1.000
    C599     C        0.81090    0.00000    0.18910    1.000
    C600     C        0.31090    0.50000    0.68910    1.000
    N337     N        0.33940    0.50000    0.27150    1.000
    N338     N        0.83940    0.00000    0.77150    1.000
    N339     N        0.66060    0.50000    0.27150    1.000
    N340     N        0.16060    0.00000    0.77150    1.000
    N341     N        0.66060    0.50000    0.72850    1.000
    N342     N        0.16060    0.00000    0.22850    1.000
    N343     N        0.33940    0.50000    0.72850    1.000
    N344     N        0.83940    0.00000    0.22850    1.000
    N345     N        0.27150    0.33940    0.50000    1.000
    N346     N        0.77150    0.83940    0.00000    1.000
    N347     N        0.27150    0.66060    0.50000    1.000
    N348     N        0.77150    0.16060    0.00000    1.000
    N349     N        0.72850    0.66060    0.50000    1.000
    N350     N        0.22850    0.16060    0.00000    1.000
    N351     N        0.72850    0.33940    0.50000    1.000
    N352     N        0.22850    0.83940    0.00000    1.000
    N353     N        0.50000    0.27150    0.33940    1.000
    N354     N        0.00000    0.77150    0.83940    1.000
    N355     N        0.50000    0.27150    0.66060    1.000
    N356     N        0.00000    0.77150    0.16060    1.000
    N357     N        0.50000    0.72850    0.66060    1.000
    N358     N        0.00000    0.22850    0.16060    1.000
    N359     N        0.50000    0.72850    0.33940    1.000
    N360     N        0.00000    0.22850    0.83940    1.000
    N361     N        0.50000    0.33940    0.72850    1.000
    N362     N        0.00000    0.83940    0.22850    1.000
    N363     N        0.50000    0.66060    0.72850    1.000
    N364     N        0.00000    0.16060    0.22850    1.000
    N365     N        0.50000    0.66060    0.27150    1.000
    N366     N        0.00000    0.16060    0.77150    1.000
    N367     N        0.50000    0.33940    0.27150    1.000
    N368     N        0.00000    0.83940    0.77150    1.000
    N369     N        0.33940    0.27150    0.50000    1.000
    N370     N        0.83940    0.77150    0.00000    1.000
    N371     N        0.66060    0.27150    0.50000    1.000
    N372     N        0.16060    0.77150    0.00000    1.000
    N373     N        0.66060    0.72850    0.50000    1.000
    N374     N        0.16060    0.22850    0.00000    1.000
    N375     N        0.33940    0.72850    0.50000    1.000
    N376     N        0.83940    0.22850    0.00000    1.000
    N377     N        0.27150    0.50000    0.66060    1.000
    N378     N        0.77150    0.00000    0.16060    1.000
    N379     N        0.27150    0.50000    0.33940    1.000
    N380     N        0.77150    0.00000    0.83940    1.000
    N381     N        0.72850    0.50000    0.33940    1.000
    N382     N        0.22850    0.00000    0.83940    1.000
    N383     N        0.72850    0.50000    0.66060    1.000
    N384     N        0.22850    0.00000    0.16060    1.000
