data_functionalizedCrystal
_audit_creation_method	'EQeq! by Chris Wilmer'
_symmetry_space_group_name_H-M	'P1'
_symmetry_Int_Tables_number	1
_symmetry_cell_setting	triclinic
loop_
_symmetry_equiv_pos_as_xyz
  x,y,z
_cell_length_a	23.0065
_cell_length_b	23.0065
_cell_length_c	23.0065
_cell_angle_alpha	90
_cell_angle_beta	90
_cell_angle_gamma	90
loop_
_atom_site_label
_atom_site_type_symbol
_atom_site_fract_x
_atom_site_fract_y
_atom_site_fract_z
_atom_site_charge
Mof_N 	N 	0.70171	0.8985	0.1137	-0.224
Mof_C 	C 	0.7283	0.9025	0.05957	0.047
Mof_C 	C 	0.7883	0.9085	0.0558	-0.098
Mof_H 	H 	0.8065	0.9113	0.0188	0.052
Mof_C 	C 	0.82172	0.9104	0.1061	0.015
Mof_H 	H 	0.8627	0.9145	0.1034	0.012
Mof_C 	C 	0.7951	0.9063	0.1602	-0.101
Mof_H 	H 	0.818	0.9076	0.1945	0.055
Mof_C 	C 	0.7351	0.9004	0.16397	0.04
Mof_H 	H 	0.717	0.8976	0.2009	0.004
Mof_N 	N 	0.6045	0.8982	0.9662	-0.077
Mof_N 	N 	0.6319	0.8952	0.02146	-0.191
Mof_C 	C 	0.69267	0.9018	0.013	0.019
Mof_C 	C 	0.7028	0.9089	0.9525	-0.077
Mof_H 	H 	0.7396	0.9142	0.9345	0.048
Mof_C 	C 	0.6483	0.9066	0.92361	0.017
Mof_H 	H 	0.6423	0.9101	0.8829	0.022
Mof_C 	C 	0.5464	0.8843	0.9585	-0.108
Mof_H 	H 	0.5318	0.9043	0.9233	0.061
Mof_H 	H 	0.5239	0.8988	0.9922	0.058
Mof_C 	C 	0.5356	0.81742	0.9519	0.051
Mof_C 	C 	0.58248	0.7795	0.9545	-0.092
Mof_H 	H 	0.6208	0.7943	0.9588	0.071
Mof_C 	C 	0.5734	0.71985	0.9507	-0.003
Mof_H 	H 	0.6054	0.6939	0.9525	0.028
Mof_C 	C 	0.5173	0.69821	0.9444	-0.057
Mof_C 	C 	0.47038	0.7362	0.9418	0.048
Mof_C 	C 	0.4795	0.7958	0.9456	-0.032
Mof_C 	C 	0.4153	0.7126	0.9338	-0.089
Mof_H 	H 	0.4108	0.6718	0.9296	0.056
Mof_C 	C 	0.36694	0.7487	0.9318	-0.015
Mof_H 	H 	0.3287	0.7332	0.931	0.03
Mof_C 	C 	0.37659	0.8083	0.9311	-0.055
Mof_H 	H 	0.3448	0.8337	0.9239	0.041
Mof_C 	C 	0.4315	0.83215	0.9407	-0.031
Mof_H 	H 	0.4361	0.8731	0.9438	0.037
Mof_C 	C 	0.5112	0.6376	0.9479	0.062
Mof_N 	N 	0.504	0.5836	0.9497	-0.194
Mof_N 	N 	0.79829	0.1015	0.6137	-0.223
Mof_C 	C 	0.7717	0.0975	0.55957	0.048
Mof_C 	C 	0.7117	0.0915	0.5558	-0.097
Mof_H 	H 	0.6935	0.0887	0.5188	0.053
Mof_C 	C 	0.67828	0.0896	0.6061	0.016
Mof_H 	H 	0.6373	0.0855	0.6034	0.013
Mof_C 	C 	0.7049	0.0937	0.6602	-0.1
Mof_H 	H 	0.682	0.0924	0.6945	0.056
Mof_C 	C 	0.7649	0.0996	0.66397	0.041
Mof_H 	H 	0.783	0.1024	0.7009	0.005
Mof_N 	N 	0.8955	0.1018	0.4662	-0.076
Mof_N 	N 	0.8681	0.1048	0.52146	-0.19
Mof_C 	C 	0.80733	0.0982	0.513	0.02
Mof_C 	C 	0.7972	0.0911	0.4525	-0.076
Mof_H 	H 	0.7604	0.0858	0.4345	0.049
Mof_C 	C 	0.8517	0.0934	0.42361	0.018
Mof_H 	H 	0.8577	0.0899	0.3829	0.023
Mof_C 	C 	0.9536	0.1157	0.4585	-0.107
Mof_H 	H 	0.9682	0.0957	0.4233	0.062
Mof_H 	H 	0.9761	0.1012	0.4922	0.059
Mof_C 	C 	0.9644	0.18258	0.4519	0.053
Mof_C 	C 	0.91752	0.2205	0.4545	-0.091
Mof_H 	H 	0.8792	0.2057	0.4588	0.072
Mof_C 	C 	0.9266	0.28015	0.4507	-0.002
Mof_H 	H 	0.8946	0.3061	0.4525	0.029
Mof_C 	C 	0.9827	0.30179	0.4444	-0.056
Mof_C 	C 	0.02962	0.2638	0.4418	0.049
Mof_C 	C 	0.0205	0.2042	0.4456	-0.031
Mof_C 	C 	0.0847	0.2874	0.4338	-0.088
Mof_H 	H 	0.0892	0.3282	0.4296	0.056
Mof_C 	C 	0.13306	0.2513	0.4318	-0.015
Mof_H 	H 	0.1713	0.2668	0.431	0.03
Mof_C 	C 	0.12341	0.1917	0.4311	-0.055
Mof_H 	H 	0.1552	0.1663	0.4239	0.041
Mof_C 	C 	0.0685	0.16785	0.4407	-0.03
Mof_H 	H 	0.0639	0.1269	0.4438	0.036
Mof_C 	C 	0.9888	0.3624	0.4479	0.062
Mof_N 	N 	0.996	0.4164	0.4497	-0.194
Mof_N 	N 	0.29829	0.3985	0.3863	-0.223
Mof_C 	C 	0.2717	0.4025	0.44043	0.048
Mof_C 	C 	0.2117	0.4085	0.4442	-0.097
Mof_H 	H 	0.1935	0.4113	0.4812	0.053
Mof_C 	C 	0.17828	0.4104	0.3939	0.016
Mof_H 	H 	0.1373	0.4145	0.3966	0.013
Mof_C 	C 	0.2049	0.4063	0.3398	-0.1
Mof_H 	H 	0.182	0.4076	0.3055	0.056
Mof_C 	C 	0.2649	0.4004	0.33603	0.041
Mof_H 	H 	0.283	0.3976	0.2991	0.005
Mof_N 	N 	0.3955	0.3982	0.5338	-0.076
Mof_N 	N 	0.3681	0.3952	0.47854	-0.19
Mof_C 	C 	0.30733	0.4018	0.487	0.02
Mof_C 	C 	0.2972	0.4089	0.5475	-0.076
Mof_H 	H 	0.2604	0.4142	0.5655	0.049
Mof_C 	C 	0.3517	0.4066	0.57639	0.018
Mof_H 	H 	0.3577	0.4101	0.6171	0.023
Mof_C 	C 	0.4536	0.3843	0.5415	-0.107
Mof_H 	H 	0.4682	0.4043	0.5767	0.062
Mof_H 	H 	0.4761	0.3988	0.5078	0.059
Mof_C 	C 	0.4644	0.31742	0.5481	0.052
Mof_C 	C 	0.41752	0.2795	0.5455	-0.091
Mof_H 	H 	0.3792	0.2943	0.5412	0.072
Mof_C 	C 	0.4266	0.21985	0.5493	-0.002
Mof_H 	H 	0.3946	0.1939	0.5475	0.029
Mof_C 	C 	0.4827	0.19821	0.5556	-0.056
Mof_C 	C 	0.52962	0.2362	0.5582	0.049
Mof_C 	C 	0.5205	0.2958	0.5544	-0.031
Mof_C 	C 	0.5847	0.2126	0.5662	-0.088
Mof_H 	H 	0.5892	0.1718	0.5704	0.056
Mof_C 	C 	0.63306	0.2487	0.5682	-0.015
Mof_H 	H 	0.6713	0.2332	0.569	0.03
Mof_C 	C 	0.62341	0.3083	0.5689	-0.055
Mof_H 	H 	0.6552	0.3337	0.5761	0.041
Mof_C 	C 	0.5685	0.33215	0.5593	-0.031
Mof_H 	H 	0.5639	0.3731	0.5562	0.037
Mof_C 	C 	0.4888	0.1376	0.5521	0.062
Mof_N 	N 	0.496	0.0836	0.5503	-0.194
Mof_N 	N 	0.20171	0.6015	0.8863	-0.223
Mof_C 	C 	0.2283	0.5975	0.94043	0.047
Mof_C 	C 	0.2883	0.5915	0.9442	-0.097
Mof_H 	H 	0.3065	0.5887	0.9812	0.053
Mof_C 	C 	0.32172	0.5896	0.8939	0.016
Mof_H 	H 	0.3627	0.5855	0.8966	0.013
Mof_C 	C 	0.2951	0.5937	0.8398	-0.1
Mof_H 	H 	0.318	0.5924	0.8055	0.056
Mof_C 	C 	0.2351	0.5996	0.83603	0.041
Mof_H 	H 	0.217	0.6024	0.7991	0.005
Mof_N 	N 	0.1045	0.6018	0.0338	-0.076
Mof_N 	N 	0.1319	0.6048	0.97854	-0.19
Mof_C 	C 	0.19267	0.5982	0.987	0.021
Mof_C 	C 	0.2028	0.5911	0.0475	-0.076
Mof_H 	H 	0.2396	0.5858	0.0655	0.049
Mof_C 	C 	0.1483	0.5934	0.07639	0.018
Mof_H 	H 	0.1423	0.5899	0.1171	0.023
Mof_C 	C 	0.0464	0.6157	0.0415	-0.107
Mof_H 	H 	0.0318	0.5957	0.0767	0.062
Mof_H 	H 	0.0239	0.6012	0.0078	0.059
Mof_C 	C 	0.0356	0.68258	0.0481	0.052
Mof_C 	C 	0.08248	0.7205	0.0455	-0.091
Mof_H 	H 	0.1208	0.7057	0.0412	0.072
Mof_C 	C 	0.0734	0.78015	0.0493	-0.003
Mof_H 	H 	0.1054	0.8061	0.0475	0.029
Mof_C 	C 	0.0173	0.80179	0.0556	-0.056
Mof_C 	C 	0.97038	0.7638	0.0582	0.049
Mof_C 	C 	0.9795	0.7042	0.0544	-0.031
Mof_C 	C 	0.9153	0.7874	0.0662	-0.088
Mof_H 	H 	0.9108	0.8282	0.0704	0.056
Mof_C 	C 	0.86694	0.7513	0.0682	-0.015
Mof_H 	H 	0.8287	0.7668	0.069	0.03
Mof_C 	C 	0.87659	0.6917	0.0689	-0.055
Mof_H 	H 	0.8448	0.6663	0.0761	0.041
Mof_C 	C 	0.9315	0.66785	0.0593	-0.031
Mof_H 	H 	0.9361	0.6269	0.0562	0.037
Mof_C 	C 	0.0112	0.8624	0.0521	0.062
Mof_N 	N 	0.004	0.9164	0.0503	-0.194
Mof_N 	N 	0.1137	0.70171	0.8985	-0.223
Mof_C 	C 	0.05957	0.7283	0.9025	0.048
Mof_C 	C 	0.0558	0.7883	0.9085	-0.097
Mof_H 	H 	0.0188	0.8065	0.9113	0.053
Mof_C 	C 	0.1061	0.82172	0.9104	0.016
Mof_H 	H 	0.1034	0.8627	0.9145	0.013
Mof_C 	C 	0.1602	0.7951	0.9063	-0.1
Mof_H 	H 	0.1945	0.818	0.9076	0.056
Mof_C 	C 	0.16397	0.7351	0.9004	0.041
Mof_H 	H 	0.2009	0.717	0.8976	0.005
Mof_N 	N 	0.9662	0.6045	0.8982	-0.076
Mof_N 	N 	0.02146	0.6319	0.8952	-0.19
Mof_C 	C 	0.013	0.69267	0.9018	0.02
Mof_C 	C 	0.9525	0.7028	0.9089	-0.076
Mof_H 	H 	0.9345	0.7396	0.9142	0.049
Mof_C 	C 	0.92361	0.6483	0.9066	0.018
Mof_H 	H 	0.8829	0.6423	0.9101	0.023
Mof_C 	C 	0.9585	0.5464	0.8843	-0.107
Mof_H 	H 	0.9233	0.5318	0.9043	0.062
Mof_H 	H 	0.9922	0.5239	0.8988	0.059
Mof_C 	C 	0.9519	0.5356	0.81742	0.052
Mof_C 	C 	0.9545	0.58248	0.7795	-0.091
Mof_H 	H 	0.9588	0.6208	0.7943	0.072
Mof_C 	C 	0.9507	0.5734	0.71985	-0.002
Mof_H 	H 	0.9525	0.6054	0.6939	0.029
Mof_C 	C 	0.9444	0.5173	0.69821	-0.056
Mof_C 	C 	0.9418	0.47038	0.7362	0.049
Mof_C 	C 	0.9456	0.4795	0.7958	-0.031
Mof_C 	C 	0.9338	0.4153	0.7126	-0.088
Mof_H 	H 	0.9296	0.4108	0.6718	0.056
Mof_C 	C 	0.9318	0.36694	0.7487	-0.015
Mof_H 	H 	0.931	0.3287	0.7332	0.03
Mof_C 	C 	0.9311	0.37659	0.8083	-0.055
Mof_H 	H 	0.9239	0.3448	0.8337	0.041
Mof_C 	C 	0.9407	0.4315	0.83215	-0.031
Mof_H 	H 	0.9438	0.4361	0.8731	0.037
Mof_C 	C 	0.9479	0.5112	0.6376	0.062
Mof_N 	N 	0.9497	0.504	0.5836	-0.194
Mof_N 	N 	0.6137	0.79829	0.1015	-0.223
Mof_C 	C 	0.55957	0.7717	0.0975	0.048
Mof_C 	C 	0.5558	0.7117	0.0915	-0.097
Mof_H 	H 	0.5188	0.6935	0.0887	0.053
Mof_C 	C 	0.6061	0.67828	0.0896	0.016
Mof_H 	H 	0.6034	0.6373	0.0855	0.013
Mof_C 	C 	0.6602	0.7049	0.0937	-0.1
Mof_H 	H 	0.6945	0.682	0.0924	0.056
Mof_C 	C 	0.66397	0.7649	0.0996	0.041
Mof_H 	H 	0.7009	0.783	0.1024	0.005
Mof_N 	N 	0.4662	0.8955	0.1018	-0.076
Mof_N 	N 	0.52146	0.8681	0.1048	-0.19
Mof_C 	C 	0.513	0.80733	0.0982	0.02
Mof_C 	C 	0.4525	0.7972	0.0911	-0.076
Mof_H 	H 	0.4345	0.7604	0.0858	0.049
Mof_C 	C 	0.42361	0.8517	0.0934	0.018
Mof_H 	H 	0.3829	0.8577	0.0899	0.023
Mof_C 	C 	0.4585	0.9536	0.1157	-0.107
Mof_H 	H 	0.4233	0.9682	0.0957	0.062
Mof_H 	H 	0.4922	0.9761	0.1012	0.059
Mof_C 	C 	0.4519	0.9644	0.18258	0.053
Mof_C 	C 	0.4545	0.91752	0.2205	-0.091
Mof_H 	H 	0.4588	0.8792	0.2057	0.072
Mof_C 	C 	0.4507	0.9266	0.28015	-0.002
Mof_H 	H 	0.4525	0.8946	0.3061	0.029
Mof_C 	C 	0.4444	0.9827	0.30179	-0.056
Mof_C 	C 	0.4418	0.02962	0.2638	0.049
Mof_C 	C 	0.4456	0.0205	0.2042	-0.031
Mof_C 	C 	0.4338	0.0847	0.2874	-0.088
Mof_H 	H 	0.4296	0.0892	0.3282	0.056
Mof_C 	C 	0.4318	0.13306	0.2513	-0.015
Mof_H 	H 	0.431	0.1713	0.2668	0.03
Mof_C 	C 	0.4311	0.12341	0.1917	-0.055
Mof_H 	H 	0.4239	0.1552	0.1663	0.041
Mof_C 	C 	0.4407	0.0685	0.16785	-0.03
Mof_H 	H 	0.4438	0.0639	0.1269	0.036
Mof_C 	C 	0.4479	0.9888	0.3624	0.062
Mof_N 	N 	0.4497	0.996	0.4164	-0.194
Mof_N 	N 	0.3863	0.29829	0.3985	-0.223
Mof_C 	C 	0.44043	0.2717	0.4025	0.048
Mof_C 	C 	0.4442	0.2117	0.4085	-0.097
Mof_H 	H 	0.4812	0.1935	0.4113	0.053
Mof_C 	C 	0.3939	0.17828	0.4104	0.016
Mof_H 	H 	0.3966	0.1373	0.4145	0.013
Mof_C 	C 	0.3398	0.2049	0.4063	-0.1
Mof_H 	H 	0.3055	0.182	0.4076	0.056
Mof_C 	C 	0.33603	0.2649	0.4004	0.041
Mof_H 	H 	0.2991	0.283	0.3976	0.005
Mof_N 	N 	0.5338	0.3955	0.3982	-0.076
Mof_N 	N 	0.47854	0.3681	0.3952	-0.19
Mof_C 	C 	0.487	0.30733	0.4018	0.02
Mof_C 	C 	0.5475	0.2972	0.4089	-0.076
Mof_H 	H 	0.5655	0.2604	0.4142	0.049
Mof_C 	C 	0.57639	0.3517	0.4066	0.018
Mof_H 	H 	0.6171	0.3577	0.4101	0.023
Mof_C 	C 	0.5415	0.4536	0.3843	-0.107
Mof_H 	H 	0.5767	0.4682	0.4043	0.062
Mof_H 	H 	0.5078	0.4761	0.3988	0.059
Mof_C 	C 	0.5481	0.4644	0.31742	0.052
Mof_C 	C 	0.5455	0.41752	0.2795	-0.091
Mof_H 	H 	0.5412	0.3792	0.2943	0.072
Mof_C 	C 	0.5493	0.4266	0.21985	-0.002
Mof_H 	H 	0.5475	0.3946	0.1939	0.029
Mof_C 	C 	0.5556	0.4827	0.19821	-0.056
Mof_C 	C 	0.5582	0.52962	0.2362	0.049
Mof_C 	C 	0.5544	0.5205	0.2958	-0.031
Mof_C 	C 	0.5662	0.5847	0.2126	-0.088
Mof_H 	H 	0.5704	0.5892	0.1718	0.056
Mof_C 	C 	0.5682	0.63306	0.2487	-0.015
Mof_H 	H 	0.569	0.6713	0.2332	0.03
Mof_C 	C 	0.5689	0.62341	0.3083	-0.055
Mof_H 	H 	0.5761	0.6552	0.3337	0.041
Mof_C 	C 	0.5593	0.5685	0.33215	-0.031
Mof_H 	H 	0.5562	0.5639	0.3731	0.037
Mof_C 	C 	0.5521	0.4888	0.1376	0.062
Mof_N 	N 	0.5503	0.496	0.0836	-0.194
Mof_N 	N 	0.8863	0.20171	0.6015	-0.223
Mof_C 	C 	0.94043	0.2283	0.5975	0.047
Mof_C 	C 	0.9442	0.2883	0.5915	-0.097
Mof_H 	H 	0.9812	0.3065	0.5887	0.053
Mof_C 	C 	0.8939	0.32172	0.5896	0.016
Mof_H 	H 	0.8966	0.3627	0.5855	0.013
Mof_C 	C 	0.8398	0.2951	0.5937	-0.1
Mof_H 	H 	0.8055	0.318	0.5924	0.056
Mof_C 	C 	0.83603	0.2351	0.5996	0.041
Mof_H 	H 	0.7991	0.217	0.6024	0.005
Mof_N 	N 	0.0338	0.1045	0.6018	-0.076
Mof_N 	N 	0.97854	0.1319	0.6048	-0.19
Mof_C 	C 	0.987	0.19267	0.5982	0.021
Mof_C 	C 	0.0475	0.2028	0.5911	-0.076
Mof_H 	H 	0.0655	0.2396	0.5858	0.049
Mof_C 	C 	0.07639	0.1483	0.5934	0.018
Mof_H 	H 	0.1171	0.1423	0.5899	0.023
Mof_C 	C 	0.0415	0.0464	0.6157	-0.107
Mof_H 	H 	0.0767	0.0318	0.5957	0.062
Mof_H 	H 	0.0078	0.0239	0.6012	0.059
Mof_C 	C 	0.0481	0.0356	0.68258	0.052
Mof_C 	C 	0.0455	0.08248	0.7205	-0.091
Mof_H 	H 	0.0412	0.1208	0.7057	0.072
Mof_C 	C 	0.0493	0.0734	0.78015	-0.003
Mof_H 	H 	0.0475	0.1054	0.8061	0.029
Mof_C 	C 	0.0556	0.0173	0.80179	-0.056
Mof_C 	C 	0.0582	0.97038	0.7638	0.049
Mof_C 	C 	0.0544	0.9795	0.7042	-0.031
Mof_C 	C 	0.0662	0.9153	0.7874	-0.088
Mof_H 	H 	0.0704	0.9108	0.8282	0.056
Mof_C 	C 	0.0682	0.86694	0.7513	-0.015
Mof_H 	H 	0.069	0.8287	0.7668	0.03
Mof_C 	C 	0.0689	0.87659	0.6917	-0.055
Mof_H 	H 	0.0761	0.8448	0.6663	0.041
Mof_C 	C 	0.0593	0.9315	0.66785	-0.031
Mof_H 	H 	0.0562	0.9361	0.6269	0.037
Mof_C 	C 	0.0521	0.0112	0.8624	0.062
Mof_N 	N 	0.0503	0.004	0.9164	-0.194
Mof_N 	N 	0.8985	0.1137	0.70171	-0.223
Mof_C 	C 	0.9025	0.05957	0.7283	0.048
Mof_C 	C 	0.9085	0.0558	0.7883	-0.097
Mof_H 	H 	0.9113	0.0188	0.8065	0.053
Mof_C 	C 	0.9104	0.1061	0.82172	0.016
Mof_H 	H 	0.9145	0.1034	0.8627	0.013
Mof_C 	C 	0.9063	0.1602	0.7951	-0.1
Mof_H 	H 	0.9076	0.1945	0.818	0.056
Mof_C 	C 	0.9004	0.16397	0.7351	0.041
Mof_H 	H 	0.8976	0.2009	0.717	0.005
Mof_N 	N 	0.8982	0.9662	0.6045	-0.076
Mof_N 	N 	0.8952	0.02146	0.6319	-0.19
Mof_C 	C 	0.9018	0.013	0.69267	0.02
Mof_C 	C 	0.9089	0.9525	0.7028	-0.076
Mof_H 	H 	0.9142	0.9345	0.7396	0.049
Mof_C 	C 	0.9066	0.92361	0.6483	0.018
Mof_H 	H 	0.9101	0.8829	0.6423	0.023
Mof_C 	C 	0.8843	0.9585	0.5464	-0.107
Mof_H 	H 	0.9043	0.9233	0.5318	0.062
Mof_H 	H 	0.8988	0.9922	0.5239	0.059
Mof_C 	C 	0.81742	0.9519	0.5356	0.052
Mof_C 	C 	0.7795	0.9545	0.58248	-0.091
Mof_H 	H 	0.7943	0.9588	0.6208	0.072
Mof_C 	C 	0.71985	0.9507	0.5734	-0.002
Mof_H 	H 	0.6939	0.9525	0.6054	0.029
Mof_C 	C 	0.69821	0.9444	0.5173	-0.056
Mof_C 	C 	0.7362	0.9418	0.47038	0.049
Mof_C 	C 	0.7958	0.9456	0.4795	-0.031
Mof_C 	C 	0.7126	0.9338	0.4153	-0.088
Mof_H 	H 	0.6718	0.9296	0.4108	0.056
Mof_C 	C 	0.7487	0.9318	0.36694	-0.015
Mof_H 	H 	0.7332	0.931	0.3287	0.03
Mof_C 	C 	0.8083	0.9311	0.37659	-0.055
Mof_H 	H 	0.8337	0.9239	0.3448	0.041
Mof_C 	C 	0.83215	0.9407	0.4315	-0.031
Mof_H 	H 	0.8731	0.9438	0.4361	0.037
Mof_C 	C 	0.6376	0.9479	0.5112	0.062
Mof_N 	N 	0.5836	0.9497	0.504	-0.194
Mof_N 	N 	0.1015	0.6137	0.79829	-0.223
Mof_C 	C 	0.0975	0.55957	0.7717	0.048
Mof_C 	C 	0.0915	0.5558	0.7117	-0.097
Mof_H 	H 	0.0887	0.5188	0.6935	0.053
Mof_C 	C 	0.0896	0.6061	0.67828	0.016
Mof_H 	H 	0.0855	0.6034	0.6373	0.013
Mof_C 	C 	0.0937	0.6602	0.7049	-0.1
Mof_H 	H 	0.0924	0.6945	0.682	0.056
Mof_C 	C 	0.0996	0.66397	0.7649	0.041
Mof_H 	H 	0.1024	0.7009	0.783	0.005
Mof_N 	N 	0.1018	0.4662	0.8955	-0.076
Mof_N 	N 	0.1048	0.52146	0.8681	-0.19
Mof_C 	C 	0.0982	0.513	0.80733	0.02
Mof_C 	C 	0.0911	0.4525	0.7972	-0.076
Mof_H 	H 	0.0858	0.4345	0.7604	0.049
Mof_C 	C 	0.0934	0.42361	0.8517	0.018
Mof_H 	H 	0.0899	0.3829	0.8577	0.023
Mof_C 	C 	0.1157	0.4585	0.9536	-0.107
Mof_H 	H 	0.0957	0.4233	0.9682	0.062
Mof_H 	H 	0.1012	0.4922	0.9761	0.059
Mof_C 	C 	0.18258	0.4519	0.9644	0.053
Mof_C 	C 	0.2205	0.4545	0.91752	-0.091
Mof_H 	H 	0.2057	0.4588	0.8792	0.072
Mof_C 	C 	0.28015	0.4507	0.9266	-0.002
Mof_H 	H 	0.3061	0.4525	0.8946	0.029
Mof_C 	C 	0.30179	0.4444	0.9827	-0.056
Mof_C 	C 	0.2638	0.4418	0.02962	0.049
Mof_C 	C 	0.2042	0.4456	0.0205	-0.031
Mof_C 	C 	0.2874	0.4338	0.0847	-0.088
Mof_H 	H 	0.3282	0.4296	0.0892	0.056
Mof_C 	C 	0.2513	0.4318	0.13306	-0.015
Mof_H 	H 	0.2668	0.431	0.1713	0.03
Mof_C 	C 	0.1917	0.4311	0.12341	-0.055
Mof_H 	H 	0.1663	0.4239	0.1552	0.041
Mof_C 	C 	0.16785	0.4407	0.0685	-0.03
Mof_H 	H 	0.1269	0.4438	0.0639	0.036
Mof_C 	C 	0.3624	0.4479	0.9888	0.062
Mof_N 	N 	0.4164	0.4497	0.996	-0.194
Mof_N 	N 	0.3985	0.3863	0.29829	-0.223
Mof_C 	C 	0.4025	0.44043	0.2717	0.048
Mof_C 	C 	0.4085	0.4442	0.2117	-0.097
Mof_H 	H 	0.4113	0.4812	0.1935	0.053
Mof_C 	C 	0.4104	0.3939	0.17828	0.016
Mof_H 	H 	0.4145	0.3966	0.1373	0.013
Mof_C 	C 	0.4063	0.3398	0.2049	-0.1
Mof_H 	H 	0.4076	0.3055	0.182	0.056
Mof_C 	C 	0.4004	0.33603	0.2649	0.041
Mof_H 	H 	0.3976	0.2991	0.283	0.005
Mof_N 	N 	0.3982	0.5338	0.3955	-0.076
Mof_N 	N 	0.3952	0.47854	0.3681	-0.19
Mof_C 	C 	0.4018	0.487	0.30733	0.02
Mof_C 	C 	0.4089	0.5475	0.2972	-0.076
Mof_H 	H 	0.4142	0.5655	0.2604	0.049
Mof_C 	C 	0.4066	0.57639	0.3517	0.018
Mof_H 	H 	0.4101	0.6171	0.3577	0.023
Mof_C 	C 	0.3843	0.5415	0.4536	-0.107
Mof_H 	H 	0.4043	0.5767	0.4682	0.062
Mof_H 	H 	0.3988	0.5078	0.4761	0.059
Mof_C 	C 	0.31742	0.5481	0.4644	0.052
Mof_C 	C 	0.2795	0.5455	0.41752	-0.091
Mof_H 	H 	0.2943	0.5412	0.3792	0.072
Mof_C 	C 	0.21985	0.5493	0.4266	-0.002
Mof_H 	H 	0.1939	0.5475	0.3946	0.029
Mof_C 	C 	0.19821	0.5556	0.4827	-0.056
Mof_C 	C 	0.2362	0.5582	0.52962	0.049
Mof_C 	C 	0.2958	0.5544	0.5205	-0.031
Mof_C 	C 	0.2126	0.5662	0.5847	-0.088
Mof_H 	H 	0.1718	0.5704	0.5892	0.056
Mof_C 	C 	0.2487	0.5682	0.63306	-0.015
Mof_H 	H 	0.2332	0.569	0.6713	0.03
Mof_C 	C 	0.3083	0.5689	0.62341	-0.055
Mof_H 	H 	0.3337	0.5761	0.6552	0.041
Mof_C 	C 	0.33215	0.5593	0.5685	-0.031
Mof_H 	H 	0.3731	0.5562	0.5639	0.037
Mof_C 	C 	0.1376	0.5521	0.4888	0.062
Mof_N 	N 	0.0836	0.5503	0.496	-0.194
Mof_N 	N 	0.6015	0.8863	0.20171	-0.223
Mof_C 	C 	0.5975	0.94043	0.2283	0.047
Mof_C 	C 	0.5915	0.9442	0.2883	-0.097
Mof_H 	H 	0.5887	0.9812	0.3065	0.053
Mof_C 	C 	0.5896	0.8939	0.32172	0.016
Mof_H 	H 	0.5855	0.8966	0.3627	0.013
Mof_C 	C 	0.5937	0.8398	0.2951	-0.1
Mof_H 	H 	0.5924	0.8055	0.318	0.056
Mof_C 	C 	0.5996	0.83603	0.2351	0.041
Mof_H 	H 	0.6024	0.7991	0.217	0.005
Mof_N 	N 	0.6018	0.0338	0.1045	-0.076
Mof_N 	N 	0.6048	0.97854	0.1319	-0.19
Mof_C 	C 	0.5982	0.987	0.19267	0.021
Mof_C 	C 	0.5911	0.0475	0.2028	-0.076
Mof_H 	H 	0.5858	0.0655	0.2396	0.049
Mof_C 	C 	0.5934	0.07639	0.1483	0.018
Mof_H 	H 	0.5899	0.1171	0.1423	0.023
Mof_C 	C 	0.6157	0.0415	0.0464	-0.107
Mof_H 	H 	0.5957	0.0767	0.0318	0.062
Mof_H 	H 	0.6012	0.0078	0.0239	0.059
Mof_C 	C 	0.68258	0.0481	0.0356	0.052
Mof_C 	C 	0.7205	0.0455	0.08248	-0.091
Mof_H 	H 	0.7057	0.0412	0.1208	0.072
Mof_C 	C 	0.78015	0.0493	0.0734	-0.003
Mof_H 	H 	0.8061	0.0475	0.1054	0.029
Mof_C 	C 	0.80179	0.0556	0.0173	-0.056
Mof_C 	C 	0.7638	0.0582	0.97038	0.049
Mof_C 	C 	0.7042	0.0544	0.9795	-0.031
Mof_C 	C 	0.7874	0.0662	0.9153	-0.088
Mof_H 	H 	0.8282	0.0704	0.9108	0.056
Mof_C 	C 	0.7513	0.0682	0.86694	-0.015
Mof_H 	H 	0.7668	0.069	0.8287	0.03
Mof_C 	C 	0.6917	0.0689	0.87659	-0.055
Mof_H 	H 	0.6663	0.0761	0.8448	0.041
Mof_C 	C 	0.66785	0.0593	0.9315	-0.031
Mof_H 	H 	0.6269	0.0562	0.9361	0.037
Mof_C 	C 	0.8624	0.0521	0.0112	0.062
Mof_N 	N 	0.9164	0.0503	0.004	-0.194
Mof_Ag	Ag	0.48961	0.51039	0.01039	0.579
Mof_Ag	Ag	0.01039	0.48961	0.51039	0.579
Mof_Ag	Ag	0.51039	0.01039	0.48961	0.579
Mof_Ag	Ag	0.98961	0.98961	0.98961	0.579
Mof_Ni	Ni	0.61095	0.88905	0.11095	1.061
Mof_Ni	Ni	0.88905	0.11095	0.61095	1.061
Mof_Ni	Ni	0.38905	0.38905	0.38905	1.061
Mof_Ni	Ni	0.11095	0.61095	0.88905	1.061
Mof_N 	N 	0.6122	0.3681	0.97231	-0.224
Mof_C 	C 	0.6653	0.3624	0.0006	0.047
Mof_C 	C 	0.6668	0.3501	0.0597	-0.096
Mof_H 	H 	0.7031	0.3462	0.0791	0.054
Mof_C 	C 	0.6153	0.3434	0.09056	0.018
Mof_H 	H 	0.6163	0.335	0.131	0.015
Mof_C 	C 	0.5622	0.3491	0.0623	-0.099
Mof_H 	H 	0.527	0.3445	0.0833	0.055
Mof_C 	C 	0.5607	0.3614	0.0031	0.037
Mof_H 	H 	0.5244	0.3653	0.9838	-0.003
Mof_N 	N 	0.7624	0.3722	0.88015	-0.075
Mof_N 	N 	0.70622	0.3718	0.90568	-0.191
Mof_C 	C 	0.713	0.3653	0.96667	0.022
Mof_C 	C 	0.7734	0.3616	0.9788	-0.075
Mof_H 	H 	0.7904	0.357	0.0162	0.051
Mof_C 	C 	0.80395	0.3658	0.9254	0.017
Mof_H 	H 	0.845	0.3647	0.9207	0.022
Mof_C 	C 	0.7736	0.3865	0.8233	-0.113
Mof_H 	H 	0.7407	0.3727	0.7992	0.061
Mof_H 	H 	0.8087	0.3649	0.8107	0.065
Mof_C 	C 	0.7831	0.45004	0.8104	0.061
Mof_C 	C 	0.7864	0.4888	0.85662	-0.1
Mof_H 	H 	0.7835	0.475	0.8954	0.073
Mof_C 	C 	0.7941	0.5478	0.8461	0.005
Mof_H 	H 	0.7963	0.5743	0.8777	0.025
Mof_C 	C 	0.7984	0.56804	0.7893	-0.069
Mof_C 	C 	0.7951	0.5293	0.7431	0.057
Mof_C 	C 	0.7875	0.4703	0.75363	-0.037
Mof_C 	C 	0.7937	0.5502	0.68644	-0.091
Mof_H 	H 	0.7944	0.5909	0.6795	0.053
Mof_C 	C 	0.7912	0.5117	0.64	-0.007
Mof_H 	H 	0.7921	0.5258	0.6012	0.029
Mof_C 	C 	0.7874	0.4523	0.65052	-0.058
Mof_H 	H 	0.7851	0.4259	0.6189	0.042
Mof_C 	C 	0.7868	0.4314	0.7074	-0.025
Mof_H 	H 	0.786	0.3908	0.7145	0.035
Mof_C 	C 	0.8058	0.629	0.7838	0.078
Mof_N 	N 	0.8127	0.679	0.778	-0.201
Mof_N 	N 	0.8878	0.6319	0.47231	-0.224
Mof_C 	C 	0.8347	0.6376	0.5006	0.048
Mof_C 	C 	0.8332	0.6499	0.5597	-0.096
Mof_H 	H 	0.7969	0.6538	0.5791	0.054
Mof_C 	C 	0.8847	0.6566	0.59056	0.018
Mof_H 	H 	0.8837	0.665	0.631	0.015
Mof_C 	C 	0.9378	0.6509	0.5623	-0.1
Mof_H 	H 	0.973	0.6555	0.5833	0.055
Mof_C 	C 	0.9393	0.6386	0.5031	0.038
Mof_H 	H 	0.9756	0.6347	0.4838	-0.003
Mof_N 	N 	0.7376	0.6278	0.38015	-0.075
Mof_N 	N 	0.79378	0.6282	0.40568	-0.191
Mof_C 	C 	0.787	0.6347	0.46667	0.022
Mof_C 	C 	0.7266	0.6384	0.4788	-0.075
Mof_H 	H 	0.7096	0.643	0.5162	0.051
Mof_C 	C 	0.69605	0.6342	0.4254	0.017
Mof_H 	H 	0.655	0.6353	0.4207	0.022
Mof_C 	C 	0.7264	0.6135	0.3233	-0.113
Mof_H 	H 	0.7593	0.6273	0.2992	0.061
Mof_H 	H 	0.6913	0.6351	0.3107	0.065
Mof_C 	C 	0.7169	0.54996	0.3104	0.061
Mof_C 	C 	0.7136	0.5112	0.35662	-0.1
Mof_H 	H 	0.7165	0.525	0.3954	0.073
Mof_C 	C 	0.7059	0.4522	0.3461	0.005
Mof_H 	H 	0.7037	0.4257	0.3777	0.025
Mof_C 	C 	0.7016	0.43196	0.2893	-0.069
Mof_C 	C 	0.7049	0.4707	0.2431	0.057
Mof_C 	C 	0.7125	0.5297	0.25363	-0.037
Mof_C 	C 	0.7063	0.4498	0.18644	-0.091
Mof_H 	H 	0.7056	0.4091	0.1795	0.053
Mof_C 	C 	0.7088	0.4883	0.14	-0.007
Mof_H 	H 	0.7079	0.4742	0.1012	0.029
Mof_C 	C 	0.7126	0.5477	0.15052	-0.058
Mof_H 	H 	0.7149	0.5741	0.1189	0.042
Mof_C 	C 	0.7132	0.5686	0.2074	-0.025
Mof_H 	H 	0.714	0.6092	0.2145	0.035
Mof_C 	C 	0.6942	0.371	0.2838	0.078
Mof_N 	N 	0.6873	0.321	0.278	-0.201
Mof_N 	N 	0.3878	0.8681	0.52769	-0.224
Mof_C 	C 	0.3347	0.8624	0.4994	0.048
Mof_C 	C 	0.3332	0.8501	0.4403	-0.096
Mof_H 	H 	0.2969	0.8462	0.4209	0.054
Mof_C 	C 	0.3847	0.8434	0.40944	0.018
Mof_H 	H 	0.3837	0.835	0.369	0.015
Mof_C 	C 	0.4378	0.8491	0.4377	-0.1
Mof_H 	H 	0.473	0.8445	0.4167	0.055
Mof_C 	C 	0.4393	0.8614	0.4969	0.038
Mof_H 	H 	0.4756	0.8653	0.5162	-0.003
Mof_N 	N 	0.2376	0.8722	0.61985	-0.075
Mof_N 	N 	0.29378	0.8718	0.59432	-0.191
Mof_C 	C 	0.287	0.8653	0.53333	0.022
Mof_C 	C 	0.2266	0.8616	0.5212	-0.075
Mof_H 	H 	0.2096	0.857	0.4838	0.051
Mof_C 	C 	0.19605	0.8658	0.5746	0.017
Mof_H 	H 	0.155	0.8647	0.5793	0.022
Mof_C 	C 	0.2264	0.8865	0.6767	-0.113
Mof_H 	H 	0.2593	0.8727	0.7008	0.061
Mof_H 	H 	0.1913	0.8649	0.6893	0.065
Mof_C 	C 	0.2169	0.95004	0.6896	0.06
Mof_C 	C 	0.2136	0.9888	0.64338	-0.099
Mof_H 	H 	0.2165	0.975	0.6046	0.072
Mof_C 	C 	0.2059	0.0478	0.6539	0.005
Mof_H 	H 	0.2037	0.0743	0.6223	0.025
Mof_C 	C 	0.2016	0.06804	0.7107	-0.069
Mof_C 	C 	0.2049	0.0293	0.7569	0.056
Mof_C 	C 	0.2125	0.9703	0.74637	-0.036
Mof_C 	C 	0.2063	0.0502	0.81356	-0.091
Mof_H 	H 	0.2056	0.0909	0.8205	0.053
Mof_C 	C 	0.2088	0.0117	0.86	-0.008
Mof_H 	H 	0.2079	0.0258	0.8988	0.03
Mof_C 	C 	0.2126	0.9523	0.84948	-0.057
Mof_H 	H 	0.2149	0.9259	0.8811	0.042
Mof_C 	C 	0.2132	0.9314	0.7926	-0.025
Mof_H 	H 	0.214	0.8908	0.7855	0.036
Mof_C 	C 	0.1942	0.129	0.7162	0.077
Mof_N 	N 	0.1873	0.179	0.722	-0.201
Mof_N 	N 	0.1122	0.1319	0.02769	-0.225
Mof_C 	C 	0.1653	0.1376	0.9994	0.049
Mof_C 	C 	0.1668	0.1499	0.9403	-0.097
Mof_H 	H 	0.2031	0.1538	0.9209	0.055
Mof_C 	C 	0.1153	0.1566	0.90944	0.019
Mof_H 	H 	0.1163	0.165	0.869	0.015
Mof_C 	C 	0.0622	0.1509	0.9377	-0.101
Mof_H 	H 	0.027	0.1555	0.9167	0.055
Mof_C 	C 	0.0607	0.1386	0.9969	0.039
Mof_H 	H 	0.0244	0.1347	0.0162	-0.004
Mof_N 	N 	0.2624	0.1278	0.11985	-0.074
Mof_N 	N 	0.20622	0.1282	0.09432	-0.191
Mof_C 	C 	0.213	0.1347	0.03333	0.021
Mof_C 	C 	0.2734	0.1384	0.0212	-0.076
Mof_H 	H 	0.2904	0.143	0.9838	0.051
Mof_C 	C 	0.30395	0.1342	0.0746	0.018
Mof_H 	H 	0.345	0.1353	0.0793	0.022
Mof_C 	C 	0.2736	0.1135	0.1767	-0.114
Mof_H 	H 	0.2407	0.1273	0.2008	0.061
Mof_H 	H 	0.3087	0.1351	0.1893	0.065
Mof_C 	C 	0.2831	0.04996	0.1896	0.062
Mof_C 	C 	0.2864	0.0112	0.14338	-0.101
Mof_H 	H 	0.2835	0.025	0.1046	0.073
Mof_C 	C 	0.2941	0.9522	0.1539	0.007
Mof_H 	H 	0.2963	0.9257	0.1223	0.024
Mof_C 	C 	0.2984	0.93196	0.2107	-0.07
Mof_C 	C 	0.2951	0.9707	0.2569	0.058
Mof_C 	C 	0.2875	0.0297	0.24637	-0.038
Mof_C 	C 	0.2937	0.9498	0.31356	-0.092
Mof_H 	H 	0.2944	0.9091	0.3205	0.053
Mof_C 	C 	0.2912	0.9883	0.36	-0.006
Mof_H 	H 	0.2921	0.9742	0.3988	0.029
Mof_C 	C 	0.2874	0.0477	0.34948	-0.06
Mof_H 	H 	0.2851	0.0741	0.3811	0.043
Mof_C 	C 	0.2868	0.0686	0.2926	-0.023
Mof_H 	H 	0.286	0.1092	0.2855	0.035
Mof_C 	C 	0.3058	0.871	0.2162	0.078
Mof_N 	N 	0.3127	0.821	0.222	-0.201
Mof_N 	N 	0.97231	0.6122	0.3681	-0.224
Mof_C 	C 	0.0006	0.6653	0.3624	0.047
Mof_C 	C 	0.0597	0.6668	0.3501	-0.096
Mof_H 	H 	0.0791	0.7031	0.3462	0.054
Mof_C 	C 	0.09056	0.6153	0.3434	0.018
Mof_H 	H 	0.131	0.6163	0.335	0.015
Mof_C 	C 	0.0623	0.5622	0.3491	-0.099
Mof_H 	H 	0.0833	0.527	0.3445	0.055
Mof_C 	C 	0.0031	0.5607	0.3614	0.037
Mof_H 	H 	0.9838	0.5244	0.3653	-0.003
Mof_N 	N 	0.88015	0.7624	0.3722	-0.075
Mof_N 	N 	0.90568	0.70622	0.3718	-0.191
Mof_C 	C 	0.96667	0.713	0.3653	0.022
Mof_C 	C 	0.9788	0.7734	0.3616	-0.075
Mof_H 	H 	0.0162	0.7904	0.357	0.051
Mof_C 	C 	0.9254	0.80395	0.3658	0.017
Mof_H 	H 	0.9207	0.845	0.3647	0.022
Mof_C 	C 	0.8233	0.7736	0.3865	-0.113
Mof_H 	H 	0.7992	0.7407	0.3727	0.061
Mof_H 	H 	0.8107	0.8087	0.3649	0.065
Mof_C 	C 	0.8104	0.7831	0.45004	0.061
Mof_C 	C 	0.85662	0.7864	0.4888	-0.1
Mof_H 	H 	0.8954	0.7835	0.475	0.073
Mof_C 	C 	0.8461	0.7941	0.5478	0.005
Mof_H 	H 	0.8777	0.7963	0.5743	0.025
Mof_C 	C 	0.7893	0.7984	0.56804	-0.069
Mof_C 	C 	0.7431	0.7951	0.5293	0.057
Mof_C 	C 	0.75363	0.7875	0.4703	-0.037
Mof_C 	C 	0.68644	0.7937	0.5502	-0.091
Mof_H 	H 	0.6795	0.7944	0.5909	0.053
Mof_C 	C 	0.64	0.7912	0.5117	-0.007
Mof_H 	H 	0.6012	0.7921	0.5258	0.029
Mof_C 	C 	0.65052	0.7874	0.4523	-0.058
Mof_H 	H 	0.6189	0.7851	0.4259	0.042
Mof_C 	C 	0.7074	0.7868	0.4314	-0.025
Mof_H 	H 	0.7145	0.786	0.3908	0.035
Mof_C 	C 	0.7838	0.8058	0.629	0.078
Mof_N 	N 	0.778	0.8127	0.679	-0.201
Mof_N 	N 	0.47231	0.8878	0.6319	-0.224
Mof_C 	C 	0.5006	0.8347	0.6376	0.048
Mof_C 	C 	0.5597	0.8332	0.6499	-0.096
Mof_H 	H 	0.5791	0.7969	0.6538	0.054
Mof_C 	C 	0.59056	0.8847	0.6566	0.018
Mof_H 	H 	0.631	0.8837	0.665	0.015
Mof_C 	C 	0.5623	0.9378	0.6509	-0.1
Mof_H 	H 	0.5833	0.973	0.6555	0.055
Mof_C 	C 	0.5031	0.9393	0.6386	0.038
Mof_H 	H 	0.4838	0.9756	0.6347	-0.003
Mof_N 	N 	0.38015	0.7376	0.6278	-0.075
Mof_N 	N 	0.40568	0.79378	0.6282	-0.191
Mof_C 	C 	0.46667	0.787	0.6347	0.022
Mof_C 	C 	0.4788	0.7266	0.6384	-0.075
Mof_H 	H 	0.5162	0.7096	0.643	0.051
Mof_C 	C 	0.4254	0.69605	0.6342	0.017
Mof_H 	H 	0.4207	0.655	0.6353	0.022
Mof_C 	C 	0.3233	0.7264	0.6135	-0.113
Mof_H 	H 	0.2992	0.7593	0.6273	0.061
Mof_H 	H 	0.3107	0.6913	0.6351	0.065
Mof_C 	C 	0.3104	0.7169	0.54996	0.061
Mof_C 	C 	0.35662	0.7136	0.5112	-0.1
Mof_H 	H 	0.3954	0.7165	0.525	0.073
Mof_C 	C 	0.3461	0.7059	0.4522	0.005
Mof_H 	H 	0.3777	0.7037	0.4257	0.025
Mof_C 	C 	0.2893	0.7016	0.43196	-0.069
Mof_C 	C 	0.2431	0.7049	0.4707	0.057
Mof_C 	C 	0.25363	0.7125	0.5297	-0.037
Mof_C 	C 	0.18644	0.7063	0.4498	-0.091
Mof_H 	H 	0.1795	0.7056	0.4091	0.053
Mof_C 	C 	0.14	0.7088	0.4883	-0.007
Mof_H 	H 	0.1012	0.7079	0.4742	0.029
Mof_C 	C 	0.15052	0.7126	0.5477	-0.058
Mof_H 	H 	0.1189	0.7149	0.5741	0.042
Mof_C 	C 	0.2074	0.7132	0.5686	-0.025
Mof_H 	H 	0.2145	0.714	0.6092	0.035
Mof_C 	C 	0.2838	0.6942	0.371	0.078
Mof_N 	N 	0.278	0.6873	0.321	-0.201
Mof_N 	N 	0.52769	0.3878	0.8681	-0.224
Mof_C 	C 	0.4994	0.3347	0.8624	0.048
Mof_C 	C 	0.4403	0.3332	0.8501	-0.096
Mof_H 	H 	0.4209	0.2969	0.8462	0.054
Mof_C 	C 	0.40944	0.3847	0.8434	0.018
Mof_H 	H 	0.369	0.3837	0.835	0.015
Mof_C 	C 	0.4377	0.4378	0.8491	-0.1
Mof_H 	H 	0.4167	0.473	0.8445	0.055
Mof_C 	C 	0.4969	0.4393	0.8614	0.038
Mof_H 	H 	0.5162	0.4756	0.8653	-0.003
Mof_N 	N 	0.61985	0.2376	0.8722	-0.075
Mof_N 	N 	0.59432	0.29378	0.8718	-0.191
Mof_C 	C 	0.53333	0.287	0.8653	0.022
Mof_C 	C 	0.5212	0.2266	0.8616	-0.075
Mof_H 	H 	0.4838	0.2096	0.857	0.051
Mof_C 	C 	0.5746	0.19605	0.8658	0.017
Mof_H 	H 	0.5793	0.155	0.8647	0.022
Mof_C 	C 	0.6767	0.2264	0.8865	-0.113
Mof_H 	H 	0.7008	0.2593	0.8727	0.061
Mof_H 	H 	0.6893	0.1913	0.8649	0.065
Mof_C 	C 	0.6896	0.2169	0.95004	0.06
Mof_C 	C 	0.64338	0.2136	0.9888	-0.099
Mof_H 	H 	0.6046	0.2165	0.975	0.072
Mof_C 	C 	0.6539	0.2059	0.0478	0.005
Mof_H 	H 	0.6223	0.2037	0.0743	0.025
Mof_C 	C 	0.7107	0.2016	0.06804	-0.069
Mof_C 	C 	0.7569	0.2049	0.0293	0.056
Mof_C 	C 	0.74637	0.2125	0.9703	-0.036
Mof_C 	C 	0.81356	0.2063	0.0502	-0.091
Mof_H 	H 	0.8205	0.2056	0.0909	0.053
Mof_C 	C 	0.86	0.2088	0.0117	-0.008
Mof_H 	H 	0.8988	0.2079	0.0258	0.03
Mof_C 	C 	0.84948	0.2126	0.9523	-0.057
Mof_H 	H 	0.8811	0.2149	0.9259	0.042
Mof_C 	C 	0.7926	0.2132	0.9314	-0.025
Mof_H 	H 	0.7855	0.214	0.8908	0.036
Mof_C 	C 	0.7162	0.1942	0.129	0.077
Mof_N 	N 	0.722	0.1873	0.179	-0.201
Mof_N 	N 	0.02769	0.1122	0.1319	-0.225
Mof_C 	C 	0.9994	0.1653	0.1376	0.049
Mof_C 	C 	0.9403	0.1668	0.1499	-0.097
Mof_H 	H 	0.9209	0.2031	0.1538	0.055
Mof_C 	C 	0.90944	0.1153	0.1566	0.019
Mof_H 	H 	0.869	0.1163	0.165	0.015
Mof_C 	C 	0.9377	0.0622	0.1509	-0.101
Mof_H 	H 	0.9167	0.027	0.1555	0.055
Mof_C 	C 	0.9969	0.0607	0.1386	0.039
Mof_H 	H 	0.0162	0.0244	0.1347	-0.004
Mof_N 	N 	0.11985	0.2624	0.1278	-0.074
Mof_N 	N 	0.09432	0.20622	0.1282	-0.191
Mof_C 	C 	0.03333	0.213	0.1347	0.021
Mof_C 	C 	0.0212	0.2734	0.1384	-0.076
Mof_H 	H 	0.9838	0.2904	0.143	0.051
Mof_C 	C 	0.0746	0.30395	0.1342	0.018
Mof_H 	H 	0.0793	0.345	0.1353	0.022
Mof_C 	C 	0.1767	0.2736	0.1135	-0.114
Mof_H 	H 	0.2008	0.2407	0.1273	0.061
Mof_H 	H 	0.1893	0.3087	0.1351	0.065
Mof_C 	C 	0.1896	0.2831	0.04996	0.062
Mof_C 	C 	0.14338	0.2864	0.0112	-0.101
Mof_H 	H 	0.1046	0.2835	0.025	0.073
Mof_C 	C 	0.1539	0.2941	0.9522	0.007
Mof_H 	H 	0.1223	0.2963	0.9257	0.024
Mof_C 	C 	0.2107	0.2984	0.93196	-0.07
Mof_C 	C 	0.2569	0.2951	0.9707	0.058
Mof_C 	C 	0.24637	0.2875	0.0297	-0.038
Mof_C 	C 	0.31356	0.2937	0.9498	-0.092
Mof_H 	H 	0.3205	0.2944	0.9091	0.053
Mof_C 	C 	0.36	0.2912	0.9883	-0.006
Mof_H 	H 	0.3988	0.2921	0.9742	0.029
Mof_C 	C 	0.34948	0.2874	0.0477	-0.06
Mof_H 	H 	0.3811	0.2851	0.0741	0.043
Mof_C 	C 	0.2926	0.2868	0.0686	-0.023
Mof_H 	H 	0.2855	0.286	0.1092	0.035
Mof_C 	C 	0.2162	0.3058	0.871	0.078
Mof_N 	N 	0.222	0.3127	0.821	-0.201
Mof_N 	N 	0.3681	0.97231	0.6122	-0.224
Mof_C 	C 	0.3624	0.0006	0.6653	0.047
Mof_C 	C 	0.3501	0.0597	0.6668	-0.096
Mof_H 	H 	0.3462	0.0791	0.7031	0.054
Mof_C 	C 	0.3434	0.09056	0.6153	0.018
Mof_H 	H 	0.335	0.131	0.6163	0.015
Mof_C 	C 	0.3491	0.0623	0.5622	-0.099
Mof_H 	H 	0.3445	0.0833	0.527	0.055
Mof_C 	C 	0.3614	0.0031	0.5607	0.037
Mof_H 	H 	0.3653	0.9838	0.5244	-0.003
Mof_N 	N 	0.3722	0.88015	0.7624	-0.075
Mof_N 	N 	0.3718	0.90568	0.70622	-0.191
Mof_C 	C 	0.3653	0.96667	0.713	0.022
Mof_C 	C 	0.3616	0.9788	0.7734	-0.075
Mof_H 	H 	0.357	0.0162	0.7904	0.051
Mof_C 	C 	0.3658	0.9254	0.80395	0.017
Mof_H 	H 	0.3647	0.9207	0.845	0.022
Mof_C 	C 	0.3865	0.8233	0.7736	-0.113
Mof_H 	H 	0.3727	0.7992	0.7407	0.061
Mof_H 	H 	0.3649	0.8107	0.8087	0.065
Mof_C 	C 	0.45004	0.8104	0.7831	0.061
Mof_C 	C 	0.4888	0.85662	0.7864	-0.1
Mof_H 	H 	0.475	0.8954	0.7835	0.073
Mof_C 	C 	0.5478	0.8461	0.7941	0.005
Mof_H 	H 	0.5743	0.8777	0.7963	0.025
Mof_C 	C 	0.56804	0.7893	0.7984	-0.069
Mof_C 	C 	0.5293	0.7431	0.7951	0.057
Mof_C 	C 	0.4703	0.75363	0.7875	-0.037
Mof_C 	C 	0.5502	0.68644	0.7937	-0.091
Mof_H 	H 	0.5909	0.6795	0.7944	0.053
Mof_C 	C 	0.5117	0.64	0.7912	-0.007
Mof_H 	H 	0.5258	0.6012	0.7921	0.029
Mof_C 	C 	0.4523	0.65052	0.7874	-0.058
Mof_H 	H 	0.4259	0.6189	0.7851	0.042
Mof_C 	C 	0.4314	0.7074	0.7868	-0.025
Mof_H 	H 	0.3908	0.7145	0.786	0.035
Mof_C 	C 	0.629	0.7838	0.8058	0.078
Mof_N 	N 	0.679	0.778	0.8127	-0.201
Mof_N 	N 	0.6319	0.47231	0.8878	-0.224
Mof_C 	C 	0.6376	0.5006	0.8347	0.048
Mof_C 	C 	0.6499	0.5597	0.8332	-0.096
Mof_H 	H 	0.6538	0.5791	0.7969	0.054
Mof_C 	C 	0.6566	0.59056	0.8847	0.018
Mof_H 	H 	0.665	0.631	0.8837	0.015
Mof_C 	C 	0.6509	0.5623	0.9378	-0.1
Mof_H 	H 	0.6555	0.5833	0.973	0.055
Mof_C 	C 	0.6386	0.5031	0.9393	0.038
Mof_H 	H 	0.6347	0.4838	0.9756	-0.003
Mof_N 	N 	0.6278	0.38015	0.7376	-0.075
Mof_N 	N 	0.6282	0.40568	0.79378	-0.191
Mof_C 	C 	0.6347	0.46667	0.787	0.022
Mof_C 	C 	0.6384	0.4788	0.7266	-0.075
Mof_H 	H 	0.643	0.5162	0.7096	0.051
Mof_C 	C 	0.6342	0.4254	0.69605	0.017
Mof_H 	H 	0.6353	0.4207	0.655	0.022
Mof_C 	C 	0.6135	0.3233	0.7264	-0.113
Mof_H 	H 	0.6273	0.2992	0.7593	0.061
Mof_H 	H 	0.6351	0.3107	0.6913	0.065
Mof_C 	C 	0.54996	0.3104	0.7169	0.061
Mof_C 	C 	0.5112	0.35662	0.7136	-0.1
Mof_H 	H 	0.525	0.3954	0.7165	0.073
Mof_C 	C 	0.4522	0.3461	0.7059	0.005
Mof_H 	H 	0.4257	0.3777	0.7037	0.025
Mof_C 	C 	0.43196	0.2893	0.7016	-0.069
Mof_C 	C 	0.4707	0.2431	0.7049	0.057
Mof_C 	C 	0.5297	0.25363	0.7125	-0.037
Mof_C 	C 	0.4498	0.18644	0.7063	-0.091
Mof_H 	H 	0.4091	0.1795	0.7056	0.053
Mof_C 	C 	0.4883	0.14	0.7088	-0.007
Mof_H 	H 	0.4742	0.1012	0.7079	0.029
Mof_C 	C 	0.5477	0.15052	0.7126	-0.058
Mof_H 	H 	0.5741	0.1189	0.7149	0.042
Mof_C 	C 	0.5686	0.2074	0.7132	-0.025
Mof_H 	H 	0.6092	0.2145	0.714	0.035
Mof_C 	C 	0.371	0.2838	0.6942	0.078
Mof_N 	N 	0.321	0.278	0.6873	-0.201
Mof_N 	N 	0.8681	0.52769	0.3878	-0.224
Mof_C 	C 	0.8624	0.4994	0.3347	0.048
Mof_C 	C 	0.8501	0.4403	0.3332	-0.096
Mof_H 	H 	0.8462	0.4209	0.2969	0.054
Mof_C 	C 	0.8434	0.40944	0.3847	0.018
Mof_H 	H 	0.835	0.369	0.3837	0.015
Mof_C 	C 	0.8491	0.4377	0.4378	-0.1
Mof_H 	H 	0.8445	0.4167	0.473	0.055
Mof_C 	C 	0.8614	0.4969	0.4393	0.038
Mof_H 	H 	0.8653	0.5162	0.4756	-0.003
Mof_N 	N 	0.8722	0.61985	0.2376	-0.075
Mof_N 	N 	0.8718	0.59432	0.29378	-0.191
Mof_C 	C 	0.8653	0.53333	0.287	0.022
Mof_C 	C 	0.8616	0.5212	0.2266	-0.075
Mof_H 	H 	0.857	0.4838	0.2096	0.051
Mof_C 	C 	0.8658	0.5746	0.19605	0.017
Mof_H 	H 	0.8647	0.5793	0.155	0.022
Mof_C 	C 	0.8865	0.6767	0.2264	-0.113
Mof_H 	H 	0.8727	0.7008	0.2593	0.061
Mof_H 	H 	0.8649	0.6893	0.1913	0.065
Mof_C 	C 	0.95004	0.6896	0.2169	0.06
Mof_C 	C 	0.9888	0.64338	0.2136	-0.099
Mof_H 	H 	0.975	0.6046	0.2165	0.072
Mof_C 	C 	0.0478	0.6539	0.2059	0.005
Mof_H 	H 	0.0743	0.6223	0.2037	0.025
Mof_C 	C 	0.06804	0.7107	0.2016	-0.069
Mof_C 	C 	0.0293	0.7569	0.2049	0.056
Mof_C 	C 	0.9703	0.74637	0.2125	-0.036
Mof_C 	C 	0.0502	0.81356	0.2063	-0.091
Mof_H 	H 	0.0909	0.8205	0.2056	0.053
Mof_C 	C 	0.0117	0.86	0.2088	-0.008
Mof_H 	H 	0.0258	0.8988	0.2079	0.03
Mof_C 	C 	0.9523	0.84948	0.2126	-0.057
Mof_H 	H 	0.9259	0.8811	0.2149	0.042
Mof_C 	C 	0.9314	0.7926	0.2132	-0.025
Mof_H 	H 	0.8908	0.7855	0.214	0.036
Mof_C 	C 	0.129	0.7162	0.1942	0.077
Mof_N 	N 	0.179	0.722	0.1873	-0.201
Mof_N 	N 	0.1319	0.02769	0.1122	-0.225
Mof_C 	C 	0.1376	0.9994	0.1653	0.049
Mof_C 	C 	0.1499	0.9403	0.1668	-0.097
Mof_H 	H 	0.1538	0.9209	0.2031	0.055
Mof_C 	C 	0.1566	0.90944	0.1153	0.019
Mof_H 	H 	0.165	0.869	0.1163	0.015
Mof_C 	C 	0.1509	0.9377	0.0622	-0.101
Mof_H 	H 	0.1555	0.9167	0.027	0.055
Mof_C 	C 	0.1386	0.9969	0.0607	0.039
Mof_H 	H 	0.1347	0.0162	0.0244	-0.004
Mof_N 	N 	0.1278	0.11985	0.2624	-0.074
Mof_N 	N 	0.1282	0.09432	0.20622	-0.191
Mof_C 	C 	0.1347	0.03333	0.213	0.021
Mof_C 	C 	0.1384	0.0212	0.2734	-0.076
Mof_H 	H 	0.143	0.9838	0.2904	0.051
Mof_C 	C 	0.1342	0.0746	0.30395	0.018
Mof_H 	H 	0.1353	0.0793	0.345	0.022
Mof_C 	C 	0.1135	0.1767	0.2736	-0.114
Mof_H 	H 	0.1273	0.2008	0.2407	0.061
Mof_H 	H 	0.1351	0.1893	0.3087	0.065
Mof_C 	C 	0.04996	0.1896	0.2831	0.062
Mof_C 	C 	0.0112	0.14338	0.2864	-0.101
Mof_H 	H 	0.025	0.1046	0.2835	0.073
Mof_C 	C 	0.9522	0.1539	0.2941	0.007
Mof_H 	H 	0.9257	0.1223	0.2963	0.024
Mof_C 	C 	0.93196	0.2107	0.2984	-0.07
Mof_C 	C 	0.9707	0.2569	0.2951	0.058
Mof_C 	C 	0.0297	0.24637	0.2875	-0.038
Mof_C 	C 	0.9498	0.31356	0.2937	-0.092
Mof_H 	H 	0.9091	0.3205	0.2944	0.053
Mof_C 	C 	0.9883	0.36	0.2912	-0.006
Mof_H 	H 	0.9742	0.3988	0.2921	0.029
Mof_C 	C 	0.0477	0.34948	0.2874	-0.06
Mof_H 	H 	0.0741	0.3811	0.2851	0.043
Mof_C 	C 	0.0686	0.2926	0.2868	-0.023
Mof_H 	H 	0.1092	0.2855	0.286	0.035
Mof_C 	C 	0.871	0.2162	0.3058	0.078
Mof_N 	N 	0.821	0.222	0.3127	-0.201
Mof_Ni	Ni	0.61829	0.38171	0.88171	1.059
Mof_Ni	Ni	0.88171	0.61829	0.38171	1.059
Mof_Ni	Ni	0.38171	0.88171	0.61829	1.059
Mof_Ni	Ni	0.11829	0.11829	0.11829	1.059
Mof_Ag	Ag	0.75736	0.75736	0.75736	0.555
Mof_Ag	Ag	0.74264	0.24264	0.25736	0.555
Mof_Ag	Ag	0.24264	0.25736	0.74264	0.555
Mof_Ag	Ag	0.25736	0.74264	0.24264	0.555
_end
