# CIF file generated by openbabel 3.1.0, see https://openbabel.org
data_I
_chemical_name_common 'image0'
_cell_length_a 31.855
_cell_length_b 17.268
_cell_length_c 30.293
_cell_angle_alpha 90
_cell_angle_beta 116.25
_cell_angle_gamma 90
_space_group_name_H-M_alt 'P 1'
_space_group_name_Hall 'P 1'
loop_
    _symmetry_equiv_pos_as_xyz
    x,y,z
loop_
    _atom_site_label
    _atom_site_type_symbol
    _atom_site_fract_x
    _atom_site_fract_y
    _atom_site_fract_z
    _atom_site_occupancy
    Zn1      Zn       0.89642    0.49896    0.01722    1.000
    Zn2      Zn       0.86615    0.34363    0.06906    1.000
    O1       O        0.42390    0.10980    0.54620    1.000
    O2       O        0.43468    0.18980    0.60282    1.000
    O3       O        0.61280    0.10150    0.53000    1.000
    O4       O        0.55960    0.01380    0.51910    1.000
    O5       O        0.63520    0.22130    0.83953    1.000
    O6       O        0.67340    0.23150    0.92160    1.000
    O7       O        0.82230    0.35830    0.99982    1.000
    O8       O        0.84710    0.44250    0.95872    1.000
    O9       O        0.86020    0.55960    0.60051    1.000
    O10      O        0.85040    0.47250    0.54310    1.000
    N1       N        0.66200    0.29000    0.64670    1.000
    N2       N        0.67160    0.32290    0.72682    1.000
    N3       N        0.72870    0.36160    0.70206    1.000
    N4       N        0.60690    0.25990    0.67399    1.000
    H1       H        0.59750    0.27030    0.69590    1.000
    N5       N        0.74030    0.38020    0.78107    1.000
    H2       H        0.76120    0.41340    0.78300    1.000
    N6       N        0.71450    0.32920    0.62090    1.000
    H3       H        0.69780    0.30080    0.59590    1.000
    C1       C        0.64710    0.28950    0.68180    1.000
    C2       C        0.70150    0.32490    0.65810    1.000
    C3       C        0.71030    0.35250    0.73490    1.000
    C4       C        0.57600    0.21230    0.63420    1.000
    C5       C        0.53150    0.20260    0.62750    1.000
    H4       H        0.52120    0.22900    0.64770    1.000
    C6       C        0.50040    0.15310    0.59050    1.000
    C7       C        0.51750    0.11520    0.56100    1.000
    H5       H        0.49780    0.08280    0.53580    1.000
    C8       C        0.56090    0.12490    0.56840    1.000
    C9       C        0.59320    0.17490    0.60500    1.000
    H6       H        0.62370    0.18190    0.60900    1.000
    C10      C        0.57920    0.07520    0.53760    1.000
    C11      C        0.45020    0.13940    0.58060    1.000
    C12      C        0.73880    0.35750    0.82540    1.000
    C13      C        0.70370    0.31610    0.82950    1.000
    H7       H        0.67790    0.30070    0.80100    1.000
    C14      C        0.70570    0.29670    0.87500    1.000
    C15      C        0.66970    0.24710    0.87820    1.000
    C16      C        0.74280    0.32190    0.91750    1.000
    H8       H        0.74440    0.30990    0.94810    1.000
    C17      C        0.77810    0.36610    0.91380    1.000
    C18      C        0.82060    0.39150    0.96070    1.000
    C19      C        0.77720    0.38290    0.86890    1.000
    H9       H        0.80150    0.41070    0.86730    1.000
    C20      C        0.74850    0.36940    0.61550    1.000
    C21      C        0.77420    0.43280    0.64400    1.000
    H10      H        0.76970    0.44920    0.67090    1.000
    C22      C        0.80520    0.46980    0.63230    1.000
    H11      H        0.82250    0.51050    0.65210    1.000
    C23      C        0.81220    0.44870    0.59120    1.000
    C24      C        0.79010    0.38490    0.56590    1.000
    H12      H        0.79630    0.36770    0.54030    1.000
    C25      C        0.75950    0.34540    0.57660    1.000
    H13      H        0.74500    0.30160    0.55840    1.000
    C26      C        0.84340    0.50230    0.57670    1.000
    Zn3      Zn       0.39642    0.99896    0.01722    1.000
    Zn4      Zn       0.36615    0.84363    0.06906    1.000
    O11      O        0.92390    0.60980    0.54620    1.000
    O12      O        0.93468    0.68980    0.60282    1.000
    O13      O        0.11280    0.60150    0.53000    1.000
    O14      O        0.05960    0.51380    0.51910    1.000
    O15      O        0.13520    0.72130    0.83953    1.000
    O16      O        0.17340    0.73150    0.92160    1.000
    O17      O        0.32230    0.85830    0.99982    1.000
    O18      O        0.34710    0.94250    0.95872    1.000
    O19      O        0.36020    0.05960    0.60051    1.000
    O20      O        0.35040    0.97250    0.54310    1.000
    N7       N        0.16200    0.79000    0.64670    1.000
    N8       N        0.17160    0.82290    0.72682    1.000
    N9       N        0.22870    0.86160    0.70206    1.000
    N10      N        0.10690    0.75990    0.67399    1.000
    H14      H        0.09750    0.77030    0.69590    1.000
    N11      N        0.24030    0.88020    0.78107    1.000
    H15      H        0.26120    0.91340    0.78300    1.000
    N12      N        0.21450    0.82920    0.62090    1.000
    H16      H        0.19780    0.80080    0.59590    1.000
    C27      C        0.14710    0.78950    0.68180    1.000
    C28      C        0.20150    0.82490    0.65810    1.000
    C29      C        0.21030    0.85250    0.73490    1.000
    C30      C        0.07600    0.71230    0.63420    1.000
    C31      C        0.03150    0.70260    0.62750    1.000
    H17      H        0.02120    0.72900    0.64770    1.000
    C32      C        0.00040    0.65310    0.59050    1.000
    C33      C        0.01750    0.61520    0.56100    1.000
    H18      H        0.99780    0.58280    0.53580    1.000
    C34      C        0.06090    0.62490    0.56840    1.000
    C35      C        0.09320    0.67490    0.60500    1.000
    H19      H        0.12370    0.68190    0.60900    1.000
    C36      C        0.07920    0.57520    0.53760    1.000
    C37      C        0.95020    0.63940    0.58060    1.000
    C38      C        0.23880    0.85750    0.82540    1.000
    C39      C        0.20370    0.81610    0.82950    1.000
    H20      H        0.17790    0.80070    0.80100    1.000
    C40      C        0.20570    0.79670    0.87500    1.000
    C41      C        0.16970    0.74710    0.87820    1.000
    C42      C        0.24280    0.82190    0.91750    1.000
    H21      H        0.24440    0.80990    0.94810    1.000
    C43      C        0.27810    0.86610    0.91380    1.000
    C44      C        0.32060    0.89150    0.96070    1.000
    C45      C        0.27720    0.88290    0.86890    1.000
    H22      H        0.30150    0.91070    0.86730    1.000
    C46      C        0.24850    0.86940    0.61550    1.000
    C47      C        0.27420    0.93280    0.64400    1.000
    H23      H        0.26970    0.94920    0.67090    1.000
    C48      C        0.30520    0.96980    0.63230    1.000
    H24      H        0.32250    0.01050    0.65210    1.000
    C49      C        0.31220    0.94870    0.59120    1.000
    C50      C        0.29010    0.88490    0.56590    1.000
    H25      H        0.29630    0.86770    0.54030    1.000
    C51      C        0.25950    0.84540    0.57660    1.000
    H26      H        0.24500    0.80160    0.55840    1.000
    C52      C        0.34340    0.00230    0.57670    1.000
    Zn5      Zn       0.10358    0.49896    0.48278    1.000
    Zn6      Zn       0.13385    0.34363    0.43094    1.000
    O21      O        0.57610    0.10980    0.95380    1.000
    O22      O        0.56532    0.18980    0.89718    1.000
    O23      O        0.38720    0.10150    0.97000    1.000
    O24      O        0.44040    0.01380    0.98090    1.000
    O25      O        0.36480    0.22130    0.66047    1.000
    O26      O        0.32660    0.23150    0.57840    1.000
    O27      O        0.17770    0.35830    0.50018    1.000
    O28      O        0.15290    0.44250    0.54128    1.000
    O29      O        0.13980    0.55960    0.89949    1.000
    O30      O        0.14960    0.47250    0.95690    1.000
    N13      N        0.33800    0.29000    0.85330    1.000
    N14      N        0.32840    0.32290    0.77318    1.000
    N15      N        0.27130    0.36160    0.79794    1.000
    N16      N        0.39310    0.25990    0.82601    1.000
    H27      H        0.40250    0.27030    0.80410    1.000
    N17      N        0.25970    0.38020    0.71893    1.000
    H28      H        0.23880    0.41340    0.71700    1.000
    N18      N        0.28550    0.32920    0.87910    1.000
    H29      H        0.30220    0.30080    0.90410    1.000
    C53      C        0.35290    0.28950    0.81820    1.000
    C54      C        0.29850    0.32490    0.84190    1.000
    C55      C        0.28970    0.35250    0.76510    1.000
    C56      C        0.42400    0.21230    0.86580    1.000
    C57      C        0.46850    0.20260    0.87250    1.000
    H30      H        0.47880    0.22900    0.85230    1.000
    C58      C        0.49960    0.15310    0.90950    1.000
    C59      C        0.48250    0.11520    0.93900    1.000
    H31      H        0.50220    0.08280    0.96420    1.000
    C60      C        0.43910    0.12490    0.93160    1.000
    C61      C        0.40680    0.17490    0.89500    1.000
    H32      H        0.37630    0.18190    0.89100    1.000
    C62      C        0.42080    0.07520    0.96240    1.000
    C63      C        0.54980    0.13940    0.91940    1.000
    C64      C        0.26120    0.35750    0.67460    1.000
    C65      C        0.29630    0.31610    0.67050    1.000
    H33      H        0.32210    0.30070    0.69900    1.000
    C66      C        0.29430    0.29670    0.62500    1.000
    C67      C        0.33030    0.24710    0.62180    1.000
    C68      C        0.25720    0.32190    0.58250    1.000
    H34      H        0.25560    0.30990    0.55190    1.000
    C69      C        0.22190    0.36610    0.58620    1.000
    C70      C        0.17940    0.39150    0.53930    1.000
    C71      C        0.22280    0.38290    0.63110    1.000
    H35      H        0.19850    0.41070    0.63270    1.000
    C72      C        0.25150    0.36940    0.88450    1.000
    C73      C        0.22580    0.43280    0.85600    1.000
    H36      H        0.23030    0.44920    0.82910    1.000
    C74      C        0.19480    0.46980    0.86770    1.000
    H37      H        0.17750    0.51050    0.84790    1.000
    C75      C        0.18780    0.44870    0.90880    1.000
    C76      C        0.20990    0.38490    0.93410    1.000
    H38      H        0.20370    0.36770    0.95970    1.000
    C77      C        0.24050    0.34540    0.92340    1.000
    H39      H        0.25500    0.30160    0.94160    1.000
    C78      C        0.15660    0.50230    0.92330    1.000
    Zn7      Zn       0.60358    0.99896    0.48278    1.000
    Zn8      Zn       0.63385    0.84363    0.43094    1.000
    O31      O        0.07610    0.60980    0.95380    1.000
    O32      O        0.06532    0.68980    0.89718    1.000
    O33      O        0.88720    0.60150    0.97000    1.000
    O34      O        0.94040    0.51380    0.98090    1.000
    O35      O        0.86480    0.72130    0.66047    1.000
    O36      O        0.82660    0.73150    0.57840    1.000
    O37      O        0.67770    0.85830    0.50018    1.000
    O38      O        0.65290    0.94250    0.54128    1.000
    O39      O        0.63980    0.05960    0.89949    1.000
    O40      O        0.64960    0.97250    0.95690    1.000
    N19      N        0.83800    0.79000    0.85330    1.000
    N20      N        0.82840    0.82290    0.77318    1.000
    N21      N        0.77130    0.86160    0.79794    1.000
    N22      N        0.89310    0.75990    0.82601    1.000
    H40      H        0.90250    0.77030    0.80410    1.000
    N23      N        0.75970    0.88020    0.71893    1.000
    H41      H        0.73880    0.91340    0.71700    1.000
    N24      N        0.78550    0.82920    0.87910    1.000
    H42      H        0.80220    0.80080    0.90410    1.000
    C79      C        0.85290    0.78950    0.81820    1.000
    C80      C        0.79850    0.82490    0.84190    1.000
    C81      C        0.78970    0.85250    0.76510    1.000
    C82      C        0.92400    0.71230    0.86580    1.000
    C83      C        0.96850    0.70260    0.87250    1.000
    H43      H        0.97880    0.72900    0.85230    1.000
    C84      C        0.99960    0.65310    0.90950    1.000
    C85      C        0.98250    0.61520    0.93900    1.000
    H44      H        0.00220    0.58280    0.96420    1.000
    C86      C        0.93910    0.62490    0.93160    1.000
    C87      C        0.90680    0.67490    0.89500    1.000
    H45      H        0.87630    0.68190    0.89100    1.000
    C88      C        0.92080    0.57520    0.96240    1.000
    C89      C        0.04980    0.63940    0.91940    1.000
    C90      C        0.76120    0.85750    0.67460    1.000
    C91      C        0.79630    0.81610    0.67050    1.000
    H46      H        0.82210    0.80070    0.69900    1.000
    C92      C        0.79430    0.79670    0.62500    1.000
    C93      C        0.83030    0.74710    0.62180    1.000
    C94      C        0.75720    0.82190    0.58250    1.000
    H47      H        0.75560    0.80990    0.55190    1.000
    C95      C        0.72190    0.86610    0.58620    1.000
    C96      C        0.67940    0.89150    0.53930    1.000
    C97      C        0.72280    0.88290    0.63110    1.000
    H48      H        0.69850    0.91070    0.63270    1.000
    C98      C        0.75150    0.86940    0.88450    1.000
    C99      C        0.72580    0.93280    0.85600    1.000
    H49      H        0.73030    0.94920    0.82910    1.000
    C100     C        0.69480    0.96980    0.86770    1.000
    H50      H        0.67750    0.01050    0.84790    1.000
    C101     C        0.68780    0.94870    0.90880    1.000
    C102     C        0.70990    0.88490    0.93410    1.000
    H51      H        0.70370    0.86770    0.95970    1.000
    C103     C        0.74050    0.84540    0.92340    1.000
    H52      H        0.75500    0.80160    0.94160    1.000
    C104     C        0.65660    0.00230    0.92330    1.000
    Zn9      Zn       0.10358    0.50104    0.98278    1.000
    Zn10     Zn       0.13385    0.65637    0.93094    1.000
    O41      O        0.57610    0.89020    0.45380    1.000
    O42      O        0.56532    0.81020    0.39718    1.000
    O43      O        0.38720    0.89850    0.47000    1.000
    O44      O        0.44040    0.98620    0.48090    1.000
    O45      O        0.36480    0.77870    0.16047    1.000
    O46      O        0.32660    0.76850    0.07840    1.000
    O47      O        0.17770    0.64170    0.00018    1.000
    O48      O        0.15290    0.55750    0.04128    1.000
    O49      O        0.13980    0.44040    0.39949    1.000
    O50      O        0.14960    0.52750    0.45690    1.000
    N25      N        0.33800    0.71000    0.35330    1.000
    N26      N        0.32840    0.67710    0.27318    1.000
    N27      N        0.27130    0.63840    0.29794    1.000
    N28      N        0.39310    0.74010    0.32601    1.000
    H53      H        0.40250    0.72970    0.30410    1.000
    N29      N        0.25970    0.61980    0.21893    1.000
    H54      H        0.23880    0.58660    0.21700    1.000
    N30      N        0.28550    0.67080    0.37910    1.000
    H55      H        0.30220    0.69920    0.40410    1.000
    C105     C        0.35290    0.71050    0.31820    1.000
    C106     C        0.29850    0.67510    0.34190    1.000
    C107     C        0.28970    0.64750    0.26510    1.000
    C108     C        0.42400    0.78770    0.36580    1.000
    C109     C        0.46850    0.79740    0.37250    1.000
    H56      H        0.47880    0.77100    0.35230    1.000
    C110     C        0.49960    0.84690    0.40950    1.000
    C111     C        0.48250    0.88480    0.43900    1.000
    H57      H        0.50220    0.91720    0.46420    1.000
    C112     C        0.43910    0.87510    0.43160    1.000
    C113     C        0.40680    0.82510    0.39500    1.000
    H58      H        0.37630    0.81810    0.39100    1.000
    C114     C        0.42080    0.92480    0.46240    1.000
    C115     C        0.54980    0.86060    0.41940    1.000
    C116     C        0.26120    0.64250    0.17460    1.000
    C117     C        0.29630    0.68390    0.17050    1.000
    H59      H        0.32210    0.69930    0.19900    1.000
    C118     C        0.29430    0.70330    0.12500    1.000
    C119     C        0.33030    0.75290    0.12180    1.000
    C120     C        0.25720    0.67810    0.08250    1.000
    H60      H        0.25560    0.69010    0.05190    1.000
    C121     C        0.22190    0.63390    0.08620    1.000
    C122     C        0.17940    0.60850    0.03930    1.000
    C123     C        0.22280    0.61710    0.13110    1.000
    H61      H        0.19850    0.58930    0.13270    1.000
    C124     C        0.25150    0.63060    0.38450    1.000
    C125     C        0.22580    0.56720    0.35600    1.000
    H62      H        0.23030    0.55080    0.32910    1.000
    C126     C        0.19480    0.53020    0.36770    1.000
    H63      H        0.17750    0.48950    0.34790    1.000
    C127     C        0.18780    0.55130    0.40880    1.000
    C128     C        0.20990    0.61510    0.43410    1.000
    H64      H        0.20370    0.63230    0.45970    1.000
    C129     C        0.24050    0.65460    0.42340    1.000
    H65      H        0.25500    0.69840    0.44160    1.000
    C130     C        0.15660    0.49770    0.42330    1.000
    Zn11     Zn       0.60358    0.00104    0.98278    1.000
    Zn12     Zn       0.63385    0.15637    0.93094    1.000
    O51      O        0.07610    0.39020    0.45380    1.000
    O52      O        0.06532    0.31020    0.39718    1.000
    O53      O        0.88720    0.39850    0.47000    1.000
    O54      O        0.94040    0.48620    0.48090    1.000
    O55      O        0.86480    0.27870    0.16047    1.000
    O56      O        0.82660    0.26850    0.07840    1.000
    O57      O        0.67770    0.14170    0.00018    1.000
    O58      O        0.65290    0.05750    0.04128    1.000
    O59      O        0.63980    0.94040    0.39949    1.000
    O60      O        0.64960    0.02750    0.45690    1.000
    N31      N        0.83800    0.21000    0.35330    1.000
    N32      N        0.82840    0.17710    0.27318    1.000
    N33      N        0.77130    0.13840    0.29794    1.000
    N34      N        0.89310    0.24010    0.32601    1.000
    H66      H        0.90250    0.22970    0.30410    1.000
    N35      N        0.75970    0.11980    0.21893    1.000
    H67      H        0.73880    0.08660    0.21700    1.000
    N36      N        0.78550    0.17080    0.37910    1.000
    H68      H        0.80220    0.19920    0.40410    1.000
    C131     C        0.85290    0.21050    0.31820    1.000
    C132     C        0.79850    0.17510    0.34190    1.000
    C133     C        0.78970    0.14750    0.26510    1.000
    C134     C        0.92400    0.28770    0.36580    1.000
    C135     C        0.96850    0.29740    0.37250    1.000
    H69      H        0.97880    0.27100    0.35230    1.000
    C136     C        0.99960    0.34690    0.40950    1.000
    C137     C        0.98250    0.38480    0.43900    1.000
    H70      H        0.00220    0.41720    0.46420    1.000
    C138     C        0.93910    0.37510    0.43160    1.000
    C139     C        0.90680    0.32510    0.39500    1.000
    H71      H        0.87630    0.31810    0.39100    1.000
    C140     C        0.92080    0.42480    0.46240    1.000
    C141     C        0.04980    0.36060    0.41940    1.000
    C142     C        0.76120    0.14250    0.17460    1.000
    C143     C        0.79630    0.18390    0.17050    1.000
    H72      H        0.82210    0.19930    0.19900    1.000
    C144     C        0.79430    0.20330    0.12500    1.000
    C145     C        0.83030    0.25290    0.12180    1.000
    C146     C        0.75720    0.17810    0.08250    1.000
    H73      H        0.75560    0.19010    0.05190    1.000
    C147     C        0.72190    0.13390    0.08620    1.000
    C148     C        0.67940    0.10850    0.03930    1.000
    C149     C        0.72280    0.11710    0.13110    1.000
    H74      H        0.69850    0.08930    0.13270    1.000
    C150     C        0.75150    0.13060    0.38450    1.000
    C151     C        0.72580    0.06720    0.35600    1.000
    H75      H        0.73030    0.05080    0.32910    1.000
    C152     C        0.69480    0.03020    0.36770    1.000
    H76      H        0.67750    0.98950    0.34790    1.000
    C153     C        0.68780    0.05130    0.40880    1.000
    C154     C        0.70990    0.11510    0.43410    1.000
    H77      H        0.70370    0.13230    0.45970    1.000
    C155     C        0.74050    0.15460    0.42340    1.000
    H78      H        0.75500    0.19840    0.44160    1.000
    C156     C        0.65660    0.99770    0.42330    1.000
    Zn13     Zn       0.89642    0.50104    0.51722    1.000
    Zn14     Zn       0.86615    0.65637    0.56906    1.000
    O61      O        0.42390    0.89020    0.04620    1.000
    O62      O        0.43468    0.81020    0.10282    1.000
    O63      O        0.61280    0.89850    0.03000    1.000
    O64      O        0.55960    0.98620    0.01910    1.000
    O65      O        0.63520    0.77870    0.33953    1.000
    O66      O        0.67340    0.76850    0.42160    1.000
    O67      O        0.82230    0.64170    0.49982    1.000
    O68      O        0.84710    0.55750    0.45872    1.000
    O69      O        0.86020    0.44040    0.10051    1.000
    O70      O        0.85040    0.52750    0.04310    1.000
    N37      N        0.66200    0.71000    0.14670    1.000
    N38      N        0.67160    0.67710    0.22682    1.000
    N39      N        0.72870    0.63840    0.20206    1.000
    N40      N        0.60690    0.74010    0.17399    1.000
    H79      H        0.59750    0.72970    0.19590    1.000
    N41      N        0.74030    0.61980    0.28107    1.000
    H80      H        0.76120    0.58660    0.28300    1.000
    N42      N        0.71450    0.67080    0.12090    1.000
    H81      H        0.69780    0.69920    0.09590    1.000
    C157     C        0.64710    0.71050    0.18180    1.000
    C158     C        0.70150    0.67510    0.15810    1.000
    C159     C        0.71030    0.64750    0.23490    1.000
    C160     C        0.57600    0.78770    0.13420    1.000
    C161     C        0.53150    0.79740    0.12750    1.000
    H82      H        0.52120    0.77100    0.14770    1.000
    C162     C        0.50040    0.84690    0.09050    1.000
    C163     C        0.51750    0.88480    0.06100    1.000
    H83      H        0.49780    0.91720    0.03580    1.000
    C164     C        0.56090    0.87510    0.06840    1.000
    C165     C        0.59320    0.82510    0.10500    1.000
    H84      H        0.62370    0.81810    0.10900    1.000
    C166     C        0.57920    0.92480    0.03760    1.000
    C167     C        0.45020    0.86060    0.08060    1.000
    C168     C        0.73880    0.64250    0.32540    1.000
    C169     C        0.70370    0.68390    0.32950    1.000
    H85      H        0.67790    0.69930    0.30100    1.000
    C170     C        0.70570    0.70330    0.37500    1.000
    C171     C        0.66970    0.75290    0.37820    1.000
    C172     C        0.74280    0.67810    0.41750    1.000
    H86      H        0.74440    0.69010    0.44810    1.000
    C173     C        0.77810    0.63390    0.41380    1.000
    C174     C        0.82060    0.60850    0.46070    1.000
    C175     C        0.77720    0.61710    0.36890    1.000
    H87      H        0.80150    0.58930    0.36730    1.000
    C176     C        0.74850    0.63060    0.11550    1.000
    C177     C        0.77420    0.56720    0.14400    1.000
    H88      H        0.76970    0.55080    0.17090    1.000
    C178     C        0.80520    0.53020    0.13230    1.000
    H89      H        0.82250    0.48950    0.15210    1.000
    C179     C        0.81220    0.55130    0.09120    1.000
    C180     C        0.79010    0.61510    0.06590    1.000
    H90      H        0.79630    0.63230    0.04030    1.000
    C181     C        0.75950    0.65460    0.07660    1.000
    H91      H        0.74500    0.69840    0.05840    1.000
    C182     C        0.84340    0.49770    0.07670    1.000
    Zn15     Zn       0.39642    0.00104    0.51722    1.000
    Zn16     Zn       0.36615    0.15637    0.56906    1.000
    O71      O        0.92390    0.39020    0.04620    1.000
    O72      O        0.93468    0.31020    0.10282    1.000
    O73      O        0.11280    0.39850    0.03000    1.000
    O74      O        0.05960    0.48620    0.01910    1.000
    O75      O        0.13520    0.27870    0.33953    1.000
    O76      O        0.17340    0.26850    0.42160    1.000
    O77      O        0.32230    0.14170    0.49982    1.000
    O78      O        0.34710    0.05750    0.45872    1.000
    O79      O        0.36020    0.94040    0.10051    1.000
    O80      O        0.35040    0.02750    0.04310    1.000
    N43      N        0.16200    0.21000    0.14670    1.000
    N44      N        0.17160    0.17710    0.22682    1.000
    N45      N        0.22870    0.13840    0.20206    1.000
    N46      N        0.10690    0.24010    0.17399    1.000
    H92      H        0.09750    0.22970    0.19590    1.000
    N47      N        0.24030    0.11980    0.28107    1.000
    H93      H        0.26120    0.08660    0.28300    1.000
    N48      N        0.21450    0.17080    0.12090    1.000
    H94      H        0.19780    0.19920    0.09590    1.000
    C183     C        0.14710    0.21050    0.18180    1.000
    C184     C        0.20150    0.17510    0.15810    1.000
    C185     C        0.21030    0.14750    0.23490    1.000
    C186     C        0.07600    0.28770    0.13420    1.000
    C187     C        0.03150    0.29740    0.12750    1.000
    H95      H        0.02120    0.27100    0.14770    1.000
    C188     C        0.00040    0.34690    0.09050    1.000
    C189     C        0.01750    0.38480    0.06100    1.000
    H96      H        0.99780    0.41720    0.03580    1.000
    C190     C        0.06090    0.37510    0.06840    1.000
    C191     C        0.09320    0.32510    0.10500    1.000
    H97      H        0.12370    0.31810    0.10900    1.000
    C192     C        0.07920    0.42480    0.03760    1.000
    C193     C        0.95020    0.36060    0.08060    1.000
    C194     C        0.23880    0.14250    0.32540    1.000
    C195     C        0.20370    0.18390    0.32950    1.000
    H98      H        0.17790    0.19930    0.30100    1.000
    C196     C        0.20570    0.20330    0.37500    1.000
    C197     C        0.16970    0.25290    0.37820    1.000
    C198     C        0.24280    0.17810    0.41750    1.000
    H99      H        0.24440    0.19010    0.44810    1.000
    C199     C        0.27810    0.13390    0.41380    1.000
    C200     C        0.32060    0.10850    0.46070    1.000
    C201     C        0.27720    0.11710    0.36890    1.000
    H100     H        0.30150    0.08930    0.36730    1.000
    C202     C        0.24850    0.13060    0.11550    1.000
    C203     C        0.27420    0.06720    0.14400    1.000
    H101     H        0.26970    0.05080    0.17090    1.000
    C204     C        0.30520    0.03020    0.13230    1.000
    H102     H        0.32250    0.98950    0.15210    1.000
    C205     C        0.31220    0.05130    0.09120    1.000
    C206     C        0.29010    0.11510    0.06590    1.000
    H103     H        0.29630    0.13230    0.04030    1.000
    C207     C        0.25950    0.15460    0.07660    1.000
    H104     H        0.24500    0.19840    0.05840    1.000
    C208     C        0.34340    0.99770    0.07670    1.000
