data_functionalizedCrystal
_audit_creation_method	'EQeq! by Chris Wilmer'
_symmetry_space_group_name_H-M	'P1'
_symmetry_Int_Tables_number	1
_symmetry_cell_setting	triclinic
loop_
_symmetry_equiv_pos_as_xyz
  x,y,z
_cell_length_a	13.1191
_cell_length_b	13.1191
_cell_length_c	16.014
_cell_angle_alpha	90
_cell_angle_beta	90
_cell_angle_gamma	120
loop_
_atom_site_label
_atom_site_type_symbol
_atom_site_fract_x
_atom_site_fract_y
_atom_site_fract_z
_atom_site_charge
Mof_Co	Co	0.47336	0.51793	0.27171	1.12
Mof_C 	C 	0.5633	0.6918	0.146	0.521
Mof_O 	O 	0.3812	0.3739	0.3752	-0.444
Mof_O 	O 	0.4749	0.6407	0.1947	-0.884
Mof_C 	C 	0.5518	0.7663	0.0787	-0.298
Mof_H 	H 	0.4855	0.7747	0.0777	0.082
Mof_C 	C 	0.3322	0.4317	0.3923	0.584
Mof_O 	O 	0.6501	0.6813	0.1509	-0.375
Mof_O 	O 	0.341	0.5126	0.3424	-0.888
Mof_C 	C 	0.5453	0.9026	0.9144	-0.017
Mof_H 	H 	0.4683	0.8697	0.9335	0.039
Mof_C 	C 	0.6323	0.8185	0.0225	0.026
Mof_H 	H 	0.6993	0.812	0.0289	0.034
Mof_C 	C 	0.6319	0.8871	0.9493	0.068
Mof_N 	N 	0.7275	0.9474	0.9031	-0.128
Mof_C 	C 	0.2686	0.4088	0.4716	-0.439
Mof_H 	H 	0.2656	0.3501	0.5058	0.209
Mof_C 	C 	0.2154	0.4654	0.4978	0.203
Mof_H 	H 	0.2115	0.5188	0.4615	-0.085
Mof_C 	C 	0.1621	0.4494	0.5802	-0.04
Mof_N 	N 	0.1833	0.3944	0.6455	-0.101
Mof_C 	C 	0.088	0.4833	0.6112	0.028
Mof_H 	H 	0.059	0.5242	0.5814	0.013
Mof_C 	C 	0.124	0.3985	0.7122	0.086
Mof_H 	H 	0.1266	0.3698	0.7648	0.013
Mof_C 	C 	0.7002	0.9977	0.844	0.124
Mof_H 	H 	0.7532	0.0457	0.8034	-0.026
Mof_N 	N 	0.0613	0.4487	0.6933	-0.259
Mof_N 	N 	0.5909	0.9741	0.8473	-0.262
Mof_Co	Co	0.48207	0.95543	0.27171	1.118
Mof_C 	C 	0.3082	0.8715	0.146	0.519
Mof_O 	O 	0.6261	0.0073	0.3752	-0.442
Mof_O 	O 	0.3593	0.8342	0.1947	-0.886
Mof_C 	C 	0.2337	0.7855	0.0787	-0.297
Mof_H 	H 	0.2253	0.7108	0.0777	0.08
Mof_C 	C 	0.5683	0.9005	0.3923	0.579
Mof_O 	O 	0.3187	0.9688	0.1509	-0.378
Mof_O 	O 	0.4874	0.8284	0.3424	-0.888
Mof_C 	C 	0.0974	0.6427	0.9144	-0.019
Mof_H 	H 	0.1303	0.5986	0.9335	0.04
Mof_C 	C 	0.1815	0.8138	0.0225	0.02
Mof_H 	H 	0.188	0.8873	0.0289	0.033
Mof_C 	C 	0.1129	0.7448	0.9493	0.073
Mof_N 	N 	0.0526	0.7801	0.9031	-0.127
Mof_C 	C 	0.5912	0.8598	0.4716	-0.437
Mof_H 	H 	0.6499	0.9155	0.5058	0.208
Mof_C 	C 	0.5346	0.75	0.4978	0.202
Mof_H 	H 	0.4812	0.6927	0.4615	-0.084
Mof_C 	C 	0.5506	0.7127	0.5802	-0.039
Mof_N 	N 	0.6056	0.7889	0.6455	-0.101
Mof_C 	C 	0.5167	0.6047	0.6112	0.028
Mof_H 	H 	0.4758	0.5348	0.5814	0.013
Mof_C 	C 	0.6015	0.7255	0.7122	0.086
Mof_H 	H 	0.6302	0.7568	0.7648	0.013
Mof_C 	C 	0.0023	0.7025	0.844	0.124
Mof_H 	H 	0.9543	0.7075	0.8034	-0.026
Mof_N 	N 	0.5513	0.6126	0.6933	-0.259
Mof_N 	N 	0.0259	0.6168	0.8473	-0.261
Mof_Co	Co	0.04457	0.52664	0.27171	1.118
Mof_C 	C 	0.1285	0.4367	0.146	0.521
Mof_O 	O 	0.9927	0.6188	0.3752	-0.442
Mof_O 	O 	0.1658	0.5251	0.1947	-0.886
Mof_C 	C 	0.2145	0.4482	0.0787	-0.301
Mof_H 	H 	0.2892	0.5145	0.0777	0.083
Mof_C 	C 	0.0995	0.6678	0.3923	0.579
Mof_O 	O 	0.0312	0.3499	0.1509	-0.378
Mof_O 	O 	0.1716	0.659	0.3424	-0.888
Mof_C 	C 	0.3573	0.4547	0.9144	-0.016
Mof_H 	H 	0.4014	0.5317	0.9335	0.039
Mof_C 	C 	0.1862	0.3677	0.0225	0.03
Mof_H 	H 	0.1127	0.3007	0.0289	0.032
Mof_C 	C 	0.2552	0.3681	0.9493	0.067
Mof_N 	N 	0.2199	0.2725	0.9031	-0.127
Mof_C 	C 	0.1402	0.7314	0.4716	-0.437
Mof_H 	H 	0.0845	0.7344	0.5058	0.208
Mof_C 	C 	0.25	0.7846	0.4978	0.202
Mof_H 	H 	0.3073	0.7885	0.4615	-0.085
Mof_C 	C 	0.2873	0.8379	0.5802	-0.039
Mof_N 	N 	0.2111	0.8167	0.6455	-0.101
Mof_C 	C 	0.3953	0.912	0.6112	0.028
Mof_H 	H 	0.4652	0.941	0.5814	0.013
Mof_C 	C 	0.2745	0.876	0.7122	0.086
Mof_H 	H 	0.2432	0.8734	0.7648	0.013
Mof_C 	C 	0.2975	0.2998	0.844	0.121
Mof_H 	H 	0.2925	0.2468	0.8034	-0.024
Mof_N 	N 	0.3874	0.9387	0.6933	-0.259
Mof_N 	N 	0.3832	0.4091	0.8473	-0.261
Mof_Co	Co	0.52664	0.48207	0.77171	1.119
Mof_C 	C 	0.4367	0.3082	0.646	0.536
Mof_O 	O 	0.6188	0.6261	0.8752	-0.434
Mof_O 	O 	0.5251	0.3593	0.6947	-0.889
Mof_C 	C 	0.4482	0.2337	0.5787	-0.335
Mof_H 	H 	0.5145	0.2253	0.5777	0.1
Mof_C 	C 	0.6678	0.5683	0.8923	0.568
Mof_O 	O 	0.3499	0.3187	0.6509	-0.377
Mof_O 	O 	0.659	0.4874	0.8424	-0.885
Mof_C 	C 	0.4547	0.0974	0.4144	0.004
Mof_H 	H 	0.5317	0.1303	0.4335	0.023
Mof_C 	C 	0.3677	0.1815	0.5225	0.096
Mof_H 	H 	0.3007	0.188	0.5289	0.019
Mof_C 	C 	0.3681	0.1129	0.4493	0.017
Mof_N 	N 	0.2725	0.0526	0.4031	-0.125
Mof_C 	C 	0.7314	0.5912	0.9716	-0.386
Mof_H 	H 	0.7344	0.6499	0.0058	0.172
Mof_C 	C 	0.7846	0.5346	0.9978	0.215
Mof_H 	H 	0.7885	0.4812	0.9615	-0.085
Mof_C 	C 	0.8379	0.5506	0.0802	-0.064
Mof_N 	N 	0.8167	0.6056	0.1455	-0.1
Mof_C 	C 	0.912	0.5167	0.1112	0.037
Mof_H 	H 	0.941	0.4758	0.0814	0.004
Mof_C 	C 	0.876	0.6015	0.2122	0.085
Mof_H 	H 	0.8734	0.6302	0.2648	0.012
Mof_C 	C 	0.2998	0.0023	0.344	0.126
Mof_H 	H 	0.2468	0.9543	0.3034	-0.029
Mof_N 	N 	0.9387	0.5513	0.1933	-0.26
Mof_N 	N 	0.4091	0.0259	0.3473	-0.266
Mof_Co	Co	0.51793	0.04457	0.77171	1.119
Mof_C 	C 	0.6918	0.1285	0.646	0.536
Mof_O 	O 	0.3739	0.9927	0.8752	-0.433
Mof_O 	O 	0.6407	0.1658	0.6947	-0.889
Mof_C 	C 	0.7663	0.2145	0.5787	-0.335
Mof_H 	H 	0.7747	0.2892	0.5777	0.1
Mof_C 	C 	0.4317	0.0995	0.8923	0.568
Mof_O 	O 	0.6813	0.0312	0.6509	-0.378
Mof_O 	O 	0.5126	0.1716	0.8424	-0.885
Mof_C 	C 	0.9026	0.3573	0.4144	0.004
Mof_H 	H 	0.8697	0.4014	0.4335	0.023
Mof_C 	C 	0.8185	0.1862	0.5225	0.095
Mof_H 	H 	0.812	0.1127	0.5289	0.019
Mof_C 	C 	0.8871	0.2552	0.4493	0.017
Mof_N 	N 	0.9474	0.2199	0.4031	-0.124
Mof_C 	C 	0.4088	0.1402	0.9716	-0.392
Mof_H 	H 	0.3501	0.0845	0.0058	0.176
Mof_C 	C 	0.4654	0.25	0.9978	0.22
Mof_H 	H 	0.5188	0.3073	0.9615	-0.087
Mof_C 	C 	0.4494	0.2873	0.0802	-0.067
Mof_N 	N 	0.3944	0.2111	0.1455	-0.099
Mof_C 	C 	0.4833	0.3953	0.1112	0.038
Mof_H 	H 	0.5242	0.4652	0.0814	0.002
Mof_C 	C 	0.3985	0.2745	0.2122	0.085
Mof_H 	H 	0.3698	0.2432	0.2648	0.012
Mof_C 	C 	0.9977	0.2975	0.344	0.126
Mof_H 	H 	0.0457	0.2925	0.3034	-0.028
Mof_N 	N 	0.4487	0.3874	0.1933	-0.261
Mof_N 	N 	0.9741	0.3832	0.3473	-0.266
Mof_Co	Co	0.95543	0.47336	0.77171	1.119
Mof_C 	C 	0.8715	0.5633	0.646	0.536
Mof_O 	O 	0.0073	0.3812	0.8752	-0.434
Mof_O 	O 	0.8342	0.4749	0.6947	-0.889
Mof_C 	C 	0.7855	0.5518	0.5787	-0.334
Mof_H 	H 	0.7108	0.4855	0.5777	0.1
Mof_C 	C 	0.9005	0.3322	0.8923	0.569
Mof_O 	O 	0.9688	0.6501	0.6509	-0.378
Mof_O 	O 	0.8284	0.341	0.8424	-0.886
Mof_C 	C 	0.6427	0.5453	0.4144	0.004
Mof_H 	H 	0.5986	0.4683	0.4335	0.023
Mof_C 	C 	0.8138	0.6323	0.5225	0.095
Mof_H 	H 	0.8873	0.6993	0.5289	0.019
Mof_C 	C 	0.7448	0.6319	0.4493	0.017
Mof_N 	N 	0.7801	0.7275	0.4031	-0.124
Mof_C 	C 	0.8598	0.2686	0.9716	-0.399
Mof_H 	H 	0.9155	0.2656	0.0058	0.181
Mof_C 	C 	0.75	0.2154	0.9978	0.218
Mof_H 	H 	0.6927	0.2115	0.9615	-0.087
Mof_C 	C 	0.7127	0.1621	0.0802	-0.064
Mof_N 	N 	0.7889	0.1833	0.1455	-0.099
Mof_C 	C 	0.6047	0.088	0.1112	0.037
Mof_H 	H 	0.5348	0.059	0.0814	0.004
Mof_C 	C 	0.7255	0.124	0.2122	0.086
Mof_H 	H 	0.7568	0.1266	0.2648	0.013
Mof_C 	C 	0.7025	0.7002	0.344	0.12
Mof_H 	H 	0.7075	0.7532	0.3034	-0.025
Mof_N 	N 	0.6126	0.0613	0.1933	-0.26
Mof_N 	N 	0.6168	0.5909	0.3473	-0.266
Mof_Na	Na	0.33333	0.66667	0.2704	3.306
Mof_Na	Na	0.66667	0.33333	0.7704	3.312
_end
