data_functionalizedCrystal
_audit_creation_method	'EQeq! by Chris Wilmer'
_symmetry_space_group_name_H-M	'P1'
_symmetry_Int_Tables_number	1
_symmetry_cell_setting	triclinic
loop_
_symmetry_equiv_pos_as_xyz
  x,y,z
_cell_length_a	15.1
_cell_length_b	15.677
_cell_length_c	15.677
_cell_angle_alpha	120
_cell_angle_beta	90
_cell_angle_gamma	90
loop_
_atom_site_label
_atom_site_type_symbol
_atom_site_fract_x
_atom_site_fract_y
_atom_site_fract_z
_atom_site_charge
Mof_La	La	0.75	0.33333	0.66666	2.214
Mof_La	La	0.75	0.66667	0.33334	2.214
Mof_La	La	0.25	0.66667	0.33334	2.171
Mof_La	La	0.25	0.33333	0.66666	2.171
Mof_Mg	Mg	-0	0.5	-0	1.436
Mof_Mg	Mg	-0	0.5	0.5	1.446
Mof_Mg	Mg	-0	3.53734e-17	0.5	1.436
Mof_Mg	Mg	0.5	0.5	-0	1.454
Mof_Mg	Mg	0.5	3.53734e-17	0.5	1.454
Mof_Mg	Mg	0.5	0.5	0.5	1.465
Mof_H 	H 	0.844	0.235	0.9466	0.089
Mof_H 	H 	0.844	0.7116	0.765	0.079
Mof_H 	H 	0.844	0.0534	0.2884	0.039
Mof_H 	H 	0.844	0.765	0.0534	0.048
Mof_H 	H 	0.844	0.2884	0.235	0.06
Mof_H 	H 	0.844	0.9466	0.7116	0.099
Mof_H 	H 	0.656	0.2884	0.0534	0.012
Mof_H 	H 	0.656	0.9466	0.235	0.064
Mof_H 	H 	0.656	0.765	0.7116	0.053
Mof_H 	H 	0.656	0.7116	0.9466	0.074
Mof_H 	H 	0.656	0.0534	0.765	0.022
Mof_H 	H 	0.656	0.235	0.2884	0.032
Mof_H 	H 	0.156	0.765	0.0534	-0.008
Mof_H 	H 	0.156	0.2884	0.235	0.002
Mof_H 	H 	0.156	0.9466	0.7116	0.045
Mof_H 	H 	0.156	0.235	0.9466	0.035
Mof_H 	H 	0.156	0.7116	0.765	0.024
Mof_H 	H 	0.156	0.0534	0.2884	-0.018
Mof_H 	H 	0.344	0.7116	0.9466	0.07
Mof_H 	H 	0.344	0.0534	0.765	0.018
Mof_H 	H 	0.344	0.235	0.2884	0.028
Mof_H 	H 	0.344	0.2884	0.0534	0.008
Mof_H 	H 	0.344	0.9466	0.235	0.06
Mof_H 	H 	0.344	0.765	0.7116	0.049
Mof_H 	H 	0.75	0.101	0.899	0.048
Mof_H 	H 	0.75	0.798	0.899	0.082
Mof_H 	H 	0.75	0.101	0.202	0.016
Mof_H 	H 	0.75	0.899	0.101	0.048
Mof_H 	H 	0.75	0.202	0.101	0.016
Mof_H 	H 	0.75	0.899	0.798	0.082
Mof_H 	H 	0.25	0.899	0.101	0.04
Mof_H 	H 	0.25	0.202	0.101	0.006
Mof_H 	H 	0.25	0.899	0.798	0.073
Mof_H 	H 	0.25	0.101	0.899	0.04
Mof_H 	H 	0.25	0.798	0.899	0.073
Mof_H 	H 	0.25	0.101	0.202	0.006
Mof_C 	C 	0.80574	0.21511	0.89348	-0.017
Mof_C 	C 	0.80306	0.26469	0.84108	-0.023
Mof_C 	C 	0.86094	0.35256	0.86598	0.385
Mof_C 	C 	0.80574	0.67837	0.78489	-0.011
Mof_C 	C 	0.80306	0.57639	0.73531	-0.026
Mof_C 	C 	0.86094	0.51342	0.64744	0.391
Mof_C 	C 	0.80574	0.10652	0.32163	-0.025
Mof_C 	C 	0.80306	0.15892	0.42361	-0.049
Mof_C 	C 	0.86094	0.13402	0.48658	0.393
Mof_C 	C 	0.80574	0.78489	0.10652	-0.018
Mof_C 	C 	0.80306	0.73531	0.15892	-0.043
Mof_C 	C 	0.86094	0.64744	0.13402	0.394
Mof_C 	C 	0.80574	0.32163	0.21511	-0.024
Mof_C 	C 	0.80306	0.42361	0.26469	-0.039
Mof_C 	C 	0.86094	0.48658	0.35256	0.389
Mof_C 	C 	0.80574	0.89348	0.67837	-0.01
Mof_C 	C 	0.80306	0.84108	0.57639	-0.016
Mof_C 	C 	0.86094	0.86598	0.51342	0.387
Mof_C 	C 	0.69426	0.32163	0.10652	-0.023
Mof_C 	C 	0.69694	0.42361	0.15892	-0.067
Mof_C 	C 	0.63906	0.48658	0.13402	0.397
Mof_C 	C 	0.69426	0.89348	0.21511	-0.017
Mof_C 	C 	0.69694	0.84108	0.26469	-0.04
Mof_C 	C 	0.63906	0.86598	0.35256	0.389
Mof_C 	C 	0.69426	0.78489	0.67837	-0.009
Mof_C 	C 	0.69694	0.73531	0.57639	-0.043
Mof_C 	C 	0.63906	0.64744	0.51342	0.396
Mof_C 	C 	0.69426	0.67837	0.89348	-0.01
Mof_C 	C 	0.69694	0.57639	0.84108	-0.033
Mof_C 	C 	0.63906	0.51342	0.86598	0.391
Mof_C 	C 	0.69426	0.10652	0.78489	-0.016
Mof_C 	C 	0.69694	0.15892	0.73531	-0.061
Mof_C 	C 	0.63906	0.13402	0.64744	0.399
Mof_C 	C 	0.69426	0.21511	0.32163	-0.023
Mof_C 	C 	0.69694	0.26469	0.42361	-0.057
Mof_C 	C 	0.63906	0.35256	0.48658	0.393
Mof_C 	C 	0.19426	0.78489	0.10652	-0.006
Mof_C 	C 	0.19694	0.73531	0.15892	-0.087
Mof_C 	C 	0.13906	0.64744	0.13402	0.402
Mof_C 	C 	0.19426	0.32163	0.21511	-0.013
Mof_C 	C 	0.19694	0.42361	0.26469	-0.085
Mof_C 	C 	0.13906	0.48658	0.35256	0.397
Mof_C 	C 	0.19426	0.89348	0.67837	0.001
Mof_C 	C 	0.19694	0.84108	0.57639	-0.06
Mof_C 	C 	0.13906	0.86598	0.51342	0.394
Mof_C 	C 	0.19426	0.21511	0.89348	-0.006
Mof_C 	C 	0.19694	0.26469	0.84108	-0.066
Mof_C 	C 	0.13906	0.35256	0.86598	0.393
Mof_C 	C 	0.19426	0.67837	0.78489	0.001
Mof_C 	C 	0.19694	0.57639	0.73531	-0.07
Mof_C 	C 	0.13906	0.51342	0.64744	0.4
Mof_C 	C 	0.19426	0.10652	0.32163	-0.013
Mof_C 	C 	0.19694	0.15892	0.42361	-0.095
Mof_C 	C 	0.13906	0.13402	0.48658	0.401
Mof_C 	C 	0.30574	0.67837	0.89348	0
Mof_C 	C 	0.30306	0.57639	0.84108	-0.043
Mof_C 	C 	0.36094	0.51342	0.86598	0.392
Mof_C 	C 	0.30574	0.10652	0.78489	-0.007
Mof_C 	C 	0.30306	0.15892	0.73531	-0.071
Mof_C 	C 	0.36094	0.13402	0.64744	0.4
Mof_C 	C 	0.30574	0.21511	0.32163	-0.014
Mof_C 	C 	0.30306	0.26469	0.42361	-0.068
Mof_C 	C 	0.36094	0.35256	0.48658	0.394
Mof_C 	C 	0.30574	0.32163	0.10652	-0.014
Mof_C 	C 	0.30306	0.42361	0.15892	-0.078
Mof_C 	C 	0.36094	0.48658	0.13402	0.398
Mof_C 	C 	0.30574	0.89348	0.21511	-0.007
Mof_C 	C 	0.30306	0.84108	0.26469	-0.05
Mof_C 	C 	0.36094	0.86598	0.35256	0.39
Mof_C 	C 	0.30574	0.78489	0.67837	-0
Mof_C 	C 	0.30306	0.73531	0.57639	-0.053
Mof_C 	C 	0.36094	0.64744	0.51342	0.397
Mof_C 	C 	0.75	0.13525	0.86475	-0.046
Mof_C 	C 	0.75	0.7295	0.86475	-0.032
Mof_C 	C 	0.75	0.13525	0.2705	-0.059
Mof_C 	C 	0.75	0.86475	0.13525	-0.046
Mof_C 	C 	0.75	0.2705	0.13525	-0.059
Mof_C 	C 	0.75	0.86475	0.7295	-0.032
Mof_C 	C 	0.25	0.86475	0.13525	-0.074
Mof_C 	C 	0.25	0.2705	0.13525	-0.089
Mof_C 	C 	0.25	0.86475	0.7295	-0.061
Mof_C 	C 	0.25	0.13525	0.86475	-0.074
Mof_C 	C 	0.25	0.7295	0.86475	-0.061
Mof_C 	C 	0.25	0.13525	0.2705	-0.089
Mof_N 	N 	0.75	0.23653	0.76348	-0.193
Mof_N 	N 	0.75	0.52695	0.76348	-0.193
Mof_N 	N 	0.75	0.23653	0.47306	-0.193
Mof_N 	N 	0.75	0.76347	0.23652	-0.193
Mof_N 	N 	0.75	0.47305	0.23652	-0.193
Mof_N 	N 	0.75	0.76347	0.52694	-0.193
Mof_N 	N 	0.25	0.76347	0.23652	-0.188
Mof_N 	N 	0.25	0.47305	0.23652	-0.188
Mof_N 	N 	0.25	0.76347	0.52694	-0.188
Mof_N 	N 	0.25	0.23653	0.76348	-0.188
Mof_N 	N 	0.25	0.52695	0.76348	-0.187
Mof_N 	N 	0.25	0.23653	0.47306	-0.188
Mof_O 	O 	0.90539	0.38843	0.94261	-0.388
Mof_O 	O 	0.85938	0.38344	0.80493	-0.446
Mof_O 	O 	0.90539	0.55418	0.61157	-0.426
Mof_O 	O 	0.85938	0.42149	0.61656	-0.458
Mof_O 	O 	0.90539	0.05739	0.44582	-0.472
Mof_O 	O 	0.85938	0.19507	0.57851	-0.473
Mof_O 	O 	0.90539	0.61157	0.05739	-0.469
Mof_O 	O 	0.85938	0.61656	0.19507	-0.471
Mof_O 	O 	0.90539	0.44582	0.38843	-0.432
Mof_O 	O 	0.85938	0.57851	0.38344	-0.46
Mof_O 	O 	0.90539	0.94261	0.55418	-0.385
Mof_O 	O 	0.85938	0.80493	0.42149	-0.445
Mof_O 	O 	0.59461	0.44582	0.05739	-0.543
Mof_O 	O 	0.64062	0.57851	0.19507	-0.513
Mof_O 	O 	0.59461	0.94261	0.38843	-0.456
Mof_O 	O 	0.64062	0.80493	0.38344	-0.486
Mof_O 	O 	0.59461	0.61157	0.55418	-0.496
Mof_O 	O 	0.64062	0.61656	0.42149	-0.498
Mof_O 	O 	0.59461	0.55418	0.94261	-0.453
Mof_O 	O 	0.64062	0.42149	0.80493	-0.484
Mof_O 	O 	0.59461	0.05739	0.61157	-0.54
Mof_O 	O 	0.64062	0.19507	0.61656	-0.511
Mof_O 	O 	0.59461	0.38843	0.44582	-0.504
Mof_O 	O 	0.64062	0.38344	0.57851	-0.5
Mof_O 	O 	0.09461	0.61157	0.05739	-0.602
Mof_O 	O 	0.14062	0.61656	0.19507	-0.545
Mof_O 	O 	0.09461	0.44582	0.38843	-0.567
Mof_O 	O 	0.14062	0.57851	0.38344	-0.534
Mof_O 	O 	0.09461	0.94261	0.55418	-0.514
Mof_O 	O 	0.14062	0.80493	0.42149	-0.517
Mof_O 	O 	0.09461	0.38843	0.94261	-0.517
Mof_O 	O 	0.14062	0.38344	0.80493	-0.518
Mof_O 	O 	0.09461	0.55418	0.61157	-0.559
Mof_O 	O 	0.14062	0.42149	0.61656	-0.531
Mof_O 	O 	0.09461	0.05739	0.44582	-0.606
Mof_O 	O 	0.14062	0.19507	0.57851	-0.546
Mof_O 	O 	0.40539	0.55418	0.94261	-0.453
Mof_O 	O 	0.35938	0.42149	0.80493	-0.48
Mof_O 	O 	0.40539	0.05739	0.61157	-0.54
Mof_O 	O 	0.35938	0.19507	0.61656	-0.507
Mof_O 	O 	0.40539	0.38843	0.44582	-0.504
Mof_O 	O 	0.35938	0.38344	0.57851	-0.496
Mof_O 	O 	0.40539	0.44582	0.05739	-0.544
Mof_O 	O 	0.35938	0.57851	0.19507	-0.509
Mof_O 	O 	0.40539	0.94261	0.38843	-0.456
Mof_O 	O 	0.35938	0.80493	0.38344	-0.481
Mof_O 	O 	0.40539	0.61157	0.55418	-0.497
Mof_O 	O 	0.35938	0.61656	0.42149	-0.494
_end
