# CIF file generated by openbabel 3.1.0, see https://openbabel.org
data_I
_chemical_name_common 'image0'
_cell_length_a 12.236
_cell_length_b 14.029
_cell_length_c 8.494
_cell_angle_alpha 90
_cell_angle_beta 90
_cell_angle_gamma 90
_space_group_name_H-M_alt 'P 1'
_space_group_name_Hall 'P 1'
loop_
    _symmetry_equiv_pos_as_xyz
    x,y,z
loop_
    _atom_site_label
    _atom_site_type_symbol
    _atom_site_fract_x
    _atom_site_fract_y
    _atom_site_fract_z
    _atom_site_occupancy
    P1       P        0.13440    0.88210    0.67270    1.000
    O1       O        0.09980    0.78950    0.75150    1.000
    O2       O        0.24350    0.91210    0.74720    1.000
    P2       P        0.63440    0.38210    0.67270    1.000
    O3       O        0.59980    0.28950    0.75150    1.000
    O4       O        0.74350    0.41210    0.74720    1.000
    P3       P        0.86560    0.11790    0.67270    1.000
    O5       O        0.90020    0.21050    0.75150    1.000
    O6       O        0.75650    0.08790    0.74720    1.000
    P4       P        0.36560    0.61790    0.67270    1.000
    O7       O        0.40020    0.71050    0.75150    1.000
    O8       O        0.25650    0.58790    0.74720    1.000
    P5       P        0.86560    0.88210    0.32730    1.000
    O9       O        0.90020    0.78950    0.24850    1.000
    O10      O        0.75650    0.91210    0.25280    1.000
    P6       P        0.36560    0.38210    0.32730    1.000
    O11      O        0.40020    0.28950    0.24850    1.000
    O12      O        0.25650    0.41210    0.25280    1.000
    P7       P        0.13440    0.11790    0.32730    1.000
    O13      O        0.09980    0.21050    0.24850    1.000
    O14      O        0.24350    0.08790    0.25280    1.000
    P8       P        0.63440    0.61790    0.32730    1.000
    O15      O        0.59980    0.71050    0.24850    1.000
    O16      O        0.74350    0.58790    0.25280    1.000
    P9       P        0.86560    0.11790    0.32730    1.000
    O17      O        0.90020    0.21050    0.24850    1.000
    O18      O        0.75650    0.08790    0.25280    1.000
    P10      P        0.36560    0.61790    0.32730    1.000
    O19      O        0.40020    0.71050    0.24850    1.000
    O20      O        0.25650    0.58790    0.25280    1.000
    P11      P        0.13440    0.88210    0.32730    1.000
    O21      O        0.09980    0.78950    0.24850    1.000
    O22      O        0.24350    0.91210    0.25280    1.000
    P12      P        0.63440    0.38210    0.32730    1.000
    O23      O        0.59980    0.28950    0.24850    1.000
    O24      O        0.74350    0.41210    0.25280    1.000
    P13      P        0.13440    0.11790    0.67270    1.000
    O25      O        0.09980    0.21050    0.75150    1.000
    O26      O        0.24350    0.08790    0.74720    1.000
    P14      P        0.63440    0.61790    0.67270    1.000
    O27      O        0.59980    0.71050    0.75150    1.000
    O28      O        0.74350    0.58790    0.74720    1.000
    P15      P        0.86560    0.88210    0.67270    1.000
    O29      O        0.90020    0.78950    0.75150    1.000
    O30      O        0.75650    0.91210    0.74720    1.000
    P16      P        0.36560    0.38210    0.67270    1.000
    O31      O        0.40020    0.28950    0.75150    1.000
    O32      O        0.25650    0.41210    0.74720    1.000
    I1       I        0.00000    0.00000    0.00000    1.000
    I2       I        0.50000    0.50000    0.00000    1.000
    Pt1      Pt       0.00000    0.00000    0.66510    1.000
    Pt2      Pt       0.50000    0.50000    0.66510    1.000
    Pt3      Pt       0.00000    0.00000    0.33490    1.000
    Pt4      Pt       0.50000    0.50000    0.33490    1.000
    K1       K        0.22870    0.74350    0.00000    1.000
    K2       K        0.72870    0.24350    0.00000    1.000
    K3       K        0.77130    0.25650    0.00000    1.000
    K4       K        0.27130    0.75650    0.00000    1.000
    K5       K        0.77130    0.74350    0.00000    1.000
    K6       K        0.27130    0.24350    0.00000    1.000
    K7       K        0.22870    0.25650    0.00000    1.000
    K8       K        0.72870    0.75650    0.00000    1.000
    O33      O        0.16780    0.84910    0.50000    1.000
    O34      O        0.66780    0.34910    0.50000    1.000
    O35      O        0.83220    0.15090    0.50000    1.000
    O36      O        0.33220    0.65090    0.50000    1.000
    O37      O        0.83220    0.84910    0.50000    1.000
    O38      O        0.33220    0.34910    0.50000    1.000
    O39      O        0.16780    0.15090    0.50000    1.000
    O40      O        0.66780    0.65090    0.50000    1.000
