data_functionalizedCrystal
_audit_creation_method	'EQeq! by Chris Wilmer'
_symmetry_space_group_name_H-M	'P1'
_symmetry_Int_Tables_number	1
_symmetry_cell_setting	triclinic
loop_
_symmetry_equiv_pos_as_xyz
  x,y,z
_cell_length_a	17.0641
_cell_length_b	17.0641
_cell_length_c	17.0641
_cell_angle_alpha	90
_cell_angle_beta	90
_cell_angle_gamma	90
loop_
_atom_site_label
_atom_site_type_symbol
_atom_site_fract_x
_atom_site_fract_y
_atom_site_fract_z
_atom_site_charge
Mof_N 	N 	0.02595	0.68273	0.40844	-0.417
Mof_C 	C 	0.09454	0.68773	0.36751	0.052
Mof_H 	H 	0.1354	0.7244	0.3768	-0.035
Mof_H 	H 	0.9011	0.6075	0.4588	0.223
Mof_N 	N 	0.09454	0.63249	0.31227	-0.157
Mof_N 	N 	0.52595	0.18273	0.90844	-0.303
Mof_C 	C 	0.59454	0.18773	0.86751	0.072
Mof_H 	H 	0.6354	0.2244	0.8768	-0.022
Mof_H 	H 	0.4011	0.1075	0.9588	0.173
Mof_N 	N 	0.59454	0.13249	0.81227	-0.156
Mof_N 	N 	0.97405	0.31727	0.40844	-0.227
Mof_C 	C 	0.90546	0.31227	0.36751	0.074
Mof_H 	H 	0.8646	0.2756	0.3768	-0.034
Mof_H 	H 	0.0989	0.3925	0.4588	0.093
Mof_N 	N 	0.90546	0.36751	0.31227	-0.151
Mof_N 	N 	0.47405	0.81727	0.90844	-0.311
Mof_C 	C 	0.40546	0.81227	0.86751	0.084
Mof_H 	H 	0.3646	0.7756	0.8768	-0.023
Mof_H 	H 	0.5989	0.8925	0.9588	0.248
Mof_N 	N 	0.40546	0.86751	0.81227	-0.15
Mof_N 	N 	0.97405	0.68273	0.59156	-0.227
Mof_C 	C 	0.90546	0.68773	0.63249	0.081
Mof_H 	H 	0.8646	0.7244	0.6232	-0.032
Mof_H 	H 	0.0989	0.6075	0.5412	0.094
Mof_N 	N 	0.90546	0.63249	0.68773	-0.149
Mof_N 	N 	0.47405	0.18273	0.09156	-0.333
Mof_C 	C 	0.40546	0.18773	0.13249	0.044
Mof_H 	H 	0.3646	0.2244	0.1232	-0.048
Mof_H 	H 	0.5989	0.1075	0.0412	0.079
Mof_N 	N 	0.40546	0.13249	0.18773	-0.158
Mof_N 	N 	0.02595	0.31727	0.59156	-0.416
Mof_C 	C 	0.09454	0.31227	0.63249	0.053
Mof_H 	H 	0.1354	0.2756	0.6232	-0.034
Mof_H 	H 	0.9011	0.3925	0.5412	0.224
Mof_N 	N 	0.09454	0.36751	0.68773	-0.157
Mof_N 	N 	0.52595	0.81727	0.09156	-0.339
Mof_C 	C 	0.59454	0.81227	0.13249	0.062
Mof_H 	H 	0.6354	0.7756	0.1232	-0.04
Mof_H 	H 	0.4011	0.8925	0.0412	0.136
Mof_N 	N 	0.59454	0.86751	0.18773	-0.15
Mof_N 	N 	0.40844	0.02595	0.68273	-0.416
Mof_C 	C 	0.36751	0.09454	0.68773	0.053
Mof_H 	H 	0.3768	0.1354	0.7244	-0.034
Mof_H 	H 	0.4588	0.9011	0.6075	0.223
Mof_N 	N 	0.31227	0.09454	0.63249	-0.157
Mof_N 	N 	0.90844	0.52595	0.18273	-0.303
Mof_C 	C 	0.86751	0.59454	0.18773	0.072
Mof_H 	H 	0.8768	0.6354	0.2244	-0.022
Mof_H 	H 	0.9588	0.4011	0.1075	0.173
Mof_N 	N 	0.81227	0.59454	0.13249	-0.156
Mof_N 	N 	0.40844	0.97405	0.31727	-0.227
Mof_C 	C 	0.36751	0.90546	0.31227	0.074
Mof_H 	H 	0.3768	0.8646	0.2756	-0.034
Mof_H 	H 	0.4588	0.0989	0.3925	0.093
Mof_N 	N 	0.31227	0.90546	0.36751	-0.151
Mof_N 	N 	0.90844	0.47405	0.81727	-0.311
Mof_C 	C 	0.86751	0.40546	0.81227	0.084
Mof_H 	H 	0.8768	0.3646	0.7756	-0.023
Mof_H 	H 	0.9588	0.5989	0.8925	0.248
Mof_N 	N 	0.81227	0.40546	0.86751	-0.15
Mof_N 	N 	0.59156	0.97405	0.68273	-0.227
Mof_C 	C 	0.63249	0.90546	0.68773	0.081
Mof_H 	H 	0.6232	0.8646	0.7244	-0.032
Mof_H 	H 	0.5412	0.0989	0.6075	0.094
Mof_N 	N 	0.68773	0.90546	0.63249	-0.149
Mof_N 	N 	0.09156	0.47405	0.18273	-0.333
Mof_C 	C 	0.13249	0.40546	0.18773	0.044
Mof_H 	H 	0.1232	0.3646	0.2244	-0.048
Mof_H 	H 	0.0412	0.5989	0.1075	0.079
Mof_N 	N 	0.18773	0.40546	0.13249	-0.158
Mof_N 	N 	0.59156	0.02595	0.31727	-0.416
Mof_C 	C 	0.63249	0.09454	0.31227	0.053
Mof_H 	H 	0.6232	0.1354	0.2756	-0.034
Mof_H 	H 	0.5412	0.9011	0.3925	0.224
Mof_N 	N 	0.68773	0.09454	0.36751	-0.157
Mof_N 	N 	0.09156	0.52595	0.81727	-0.339
Mof_C 	C 	0.13249	0.59454	0.81227	0.062
Mof_H 	H 	0.1232	0.6354	0.7756	-0.04
Mof_H 	H 	0.0412	0.4011	0.8925	0.136
Mof_N 	N 	0.18773	0.59454	0.86751	-0.15
Mof_N 	N 	0.68273	0.40844	0.02595	-0.416
Mof_C 	C 	0.68773	0.36751	0.09454	0.053
Mof_H 	H 	0.7244	0.3768	0.1354	-0.034
Mof_H 	H 	0.6075	0.4588	0.9011	0.223
Mof_N 	N 	0.63249	0.31227	0.09454	-0.157
Mof_N 	N 	0.18273	0.90844	0.52595	-0.303
Mof_C 	C 	0.18773	0.86751	0.59454	0.072
Mof_H 	H 	0.2244	0.8768	0.6354	-0.022
Mof_H 	H 	0.1075	0.9588	0.4011	0.173
Mof_N 	N 	0.13249	0.81227	0.59454	-0.156
Mof_N 	N 	0.31727	0.40844	0.97405	-0.227
Mof_C 	C 	0.31227	0.36751	0.90546	0.074
Mof_H 	H 	0.2756	0.3768	0.8646	-0.034
Mof_H 	H 	0.3925	0.4588	0.0989	0.093
Mof_N 	N 	0.36751	0.31227	0.90546	-0.151
Mof_N 	N 	0.81727	0.90844	0.47405	-0.311
Mof_C 	C 	0.81227	0.86751	0.40546	0.084
Mof_H 	H 	0.7756	0.8768	0.3646	-0.023
Mof_H 	H 	0.8925	0.9588	0.5989	0.248
Mof_N 	N 	0.86751	0.81227	0.40546	-0.15
Mof_N 	N 	0.68273	0.59156	0.97405	-0.227
Mof_C 	C 	0.68773	0.63249	0.90546	0.081
Mof_H 	H 	0.7244	0.6232	0.8646	-0.032
Mof_H 	H 	0.6075	0.5412	0.0989	0.094
Mof_N 	N 	0.63249	0.68773	0.90546	-0.149
Mof_N 	N 	0.18273	0.09156	0.47405	-0.333
Mof_C 	C 	0.18773	0.13249	0.40546	0.044
Mof_H 	H 	0.2244	0.1232	0.3646	-0.048
Mof_H 	H 	0.1075	0.0412	0.5989	0.079
Mof_N 	N 	0.13249	0.18773	0.40546	-0.158
Mof_N 	N 	0.31727	0.59156	0.02595	-0.416
Mof_C 	C 	0.31227	0.63249	0.09454	0.053
Mof_H 	H 	0.2756	0.6232	0.1354	-0.034
Mof_H 	H 	0.3925	0.5412	0.9011	0.224
Mof_N 	N 	0.36751	0.68773	0.09454	-0.157
Mof_N 	N 	0.81727	0.09156	0.52595	-0.339
Mof_C 	C 	0.81227	0.13249	0.59454	0.062
Mof_H 	H 	0.7756	0.1232	0.6354	-0.04
Mof_H 	H 	0.8925	0.0412	0.4011	0.136
Mof_N 	N 	0.86751	0.18773	0.59454	-0.15
Mof_N 	N 	0.68273	0.02595	0.40844	-0.382
Mof_H 	H 	0.7244	0.1354	0.3768	0.047
Mof_H 	H 	0.6075	0.9011	0.4588	0.224
Mof_N 	N 	0.18273	0.52595	0.90844	-0.266
Mof_H 	H 	0.2244	0.6354	0.8768	0.064
Mof_H 	H 	0.1075	0.4011	0.9588	0.173
Mof_N 	N 	0.31727	0.97405	0.40844	-0.19
Mof_H 	H 	0.2756	0.8646	0.3768	0.053
Mof_H 	H 	0.3925	0.0989	0.4588	0.094
Mof_N 	N 	0.81727	0.47405	0.90844	-0.273
Mof_H 	H 	0.7756	0.3646	0.8768	0.067
Mof_H 	H 	0.8925	0.5989	0.9588	0.248
Mof_N 	N 	0.68273	0.97405	0.59156	-0.188
Mof_H 	H 	0.7244	0.8646	0.6232	0.058
Mof_H 	H 	0.6075	0.0989	0.5412	0.094
Mof_N 	N 	0.18273	0.47405	0.09156	-0.3
Mof_H 	H 	0.2244	0.3646	0.1232	0.03
Mof_H 	H 	0.1075	0.5989	0.0412	0.079
Mof_N 	N 	0.31727	0.02595	0.59156	-0.382
Mof_H 	H 	0.2756	0.1354	0.6232	0.048
Mof_H 	H 	0.3925	0.9011	0.5412	0.224
Mof_N 	N 	0.81727	0.52595	0.09156	-0.304
Mof_H 	H 	0.7756	0.6354	0.1232	0.045
Mof_H 	H 	0.8925	0.4011	0.0412	0.136
Mof_N 	N 	0.02595	0.40844	0.68273	-0.382
Mof_H 	H 	0.1354	0.3768	0.7244	0.047
Mof_H 	H 	0.9011	0.4588	0.6075	0.224
Mof_N 	N 	0.52595	0.90844	0.18273	-0.266
Mof_H 	H 	0.6354	0.8768	0.2244	0.064
Mof_H 	H 	0.4011	0.9588	0.1075	0.173
Mof_N 	N 	0.97405	0.40844	0.31727	-0.19
Mof_H 	H 	0.8646	0.3768	0.2756	0.053
Mof_H 	H 	0.0989	0.4588	0.3925	0.094
Mof_N 	N 	0.47405	0.90844	0.81727	-0.273
Mof_H 	H 	0.3646	0.8768	0.7756	0.067
Mof_H 	H 	0.5989	0.9588	0.8925	0.248
Mof_N 	N 	0.97405	0.59156	0.68273	-0.188
Mof_H 	H 	0.8646	0.6232	0.7244	0.058
Mof_H 	H 	0.0989	0.5412	0.6075	0.094
Mof_N 	N 	0.47405	0.09156	0.18273	-0.3
Mof_H 	H 	0.3646	0.1232	0.2244	0.03
Mof_H 	H 	0.5989	0.0412	0.1075	0.079
Mof_N 	N 	0.02595	0.59156	0.31727	-0.382
Mof_H 	H 	0.1354	0.6232	0.2756	0.048
Mof_H 	H 	0.9011	0.5412	0.3925	0.224
Mof_N 	N 	0.52595	0.09156	0.81727	-0.304
Mof_H 	H 	0.6354	0.1232	0.7756	0.045
Mof_H 	H 	0.4011	0.0412	0.8925	0.136
Mof_N 	N 	0.40844	0.68273	0.02595	-0.382
Mof_H 	H 	0.3768	0.7244	0.1354	0.047
Mof_H 	H 	0.4588	0.6075	0.9011	0.224
Mof_N 	N 	0.90844	0.18273	0.52595	-0.266
Mof_H 	H 	0.8768	0.2244	0.6354	0.064
Mof_H 	H 	0.9588	0.1075	0.4011	0.173
Mof_N 	N 	0.40844	0.31727	0.97405	-0.19
Mof_H 	H 	0.3768	0.2756	0.8646	0.053
Mof_H 	H 	0.4588	0.3925	0.0989	0.094
Mof_N 	N 	0.90844	0.81727	0.47405	-0.273
Mof_H 	H 	0.8768	0.7756	0.3646	0.067
Mof_H 	H 	0.9588	0.8925	0.5989	0.248
Mof_N 	N 	0.59156	0.68273	0.97405	-0.188
Mof_H 	H 	0.6232	0.7244	0.8646	0.058
Mof_H 	H 	0.5412	0.6075	0.0989	0.094
Mof_N 	N 	0.09156	0.18273	0.47405	-0.3
Mof_H 	H 	0.1232	0.2244	0.3646	0.03
Mof_H 	H 	0.0412	0.1075	0.5989	0.079
Mof_N 	N 	0.59156	0.31727	0.02595	-0.382
Mof_H 	H 	0.6232	0.2756	0.1354	0.048
Mof_H 	H 	0.5412	0.3925	0.9011	0.224
Mof_N 	N 	0.09156	0.81727	0.52595	-0.304
Mof_H 	H 	0.1232	0.7756	0.6354	0.045
Mof_H 	H 	0.0412	0.8925	0.4011	0.136
Mof_Zn	Zn	-3.20573e-33	0.75	0.5	1.139
Mof_Zn	Zn	-3.20573e-33	0.25	0.5	1.138
Mof_Zn	Zn	0.5	-1.01609e-32	0.75	1.139
Mof_Zn	Zn	0.5	0	0.25	1.138
Mof_Zn	Zn	0.75	0.5	-0	1.139
Mof_Zn	Zn	0.25	0.5	-0	1.138
Mof_Zn	Zn	0.75	0	0.5	1.139
Mof_Zn	Zn	0.25	0	0.5	1.138
Mof_Zn	Zn	2.81205e-33	0.5	0.75	1.139
Mof_Zn	Zn	-1.60286e-33	0.5	0.25	1.138
Mof_Zn	Zn	0.5	0.75	-0	1.139
Mof_Zn	Zn	0.5	0.25	-0	1.138
Mof_C 	C 	0.9867	0.6236	0.3764	0.446
Mof_C 	C 	0.907	0.5974	0.4026	-0.784
Mof_H 	H 	0.8668	0.62635	0.37365	0.227
Mof_C 	C 	0.4867	0.1236	0.8764	0.22
Mof_C 	C 	0.407	0.0974	0.9026	-0.597
Mof_H 	H 	0.3668	0.12635	0.87365	0.167
Mof_C 	C 	0.0133	0.3764	0.3764	-0.003
Mof_C 	C 	0.093	0.4026	0.4026	-0.422
Mof_H 	H 	0.1332	0.37365	0.37365	0.115
Mof_C 	C 	0.5133	0.8764	0.8764	0.283
Mof_C 	C 	0.593	0.9026	0.9026	-0.732
Mof_H 	H 	0.6332	0.87365	0.87365	0.231
Mof_C 	C 	0.0133	0.6236	0.6236	0.001
Mof_C 	C 	0.093	0.5974	0.5974	-0.425
Mof_H 	H 	0.1332	0.62635	0.62635	0.118
Mof_C 	C 	0.5133	0.1236	0.1236	0.166
Mof_C 	C 	0.593	0.0974	0.0974	-0.493
Mof_H 	H 	0.6332	0.12635	0.12635	0.125
Mof_C 	C 	0.9867	0.3764	0.6236	0.446
Mof_C 	C 	0.907	0.4026	0.5974	-0.784
Mof_H 	H 	0.8668	0.37365	0.62635	0.227
Mof_C 	C 	0.4867	0.8764	0.1236	0.22
Mof_C 	C 	0.407	0.9026	0.0974	-0.597
Mof_H 	H 	0.3668	0.87365	0.12635	0.167
Mof_C 	C 	0.3764	0.9867	0.6236	0.446
Mof_C 	C 	0.4026	0.907	0.5974	-0.784
Mof_H 	H 	0.37365	0.8668	0.62635	0.227
Mof_C 	C 	0.8764	0.4867	0.1236	0.22
Mof_C 	C 	0.9026	0.407	0.0974	-0.597
Mof_H 	H 	0.87365	0.3668	0.12635	0.167
Mof_C 	C 	0.3764	0.0133	0.3764	-0.003
Mof_C 	C 	0.4026	0.093	0.4026	-0.422
Mof_H 	H 	0.37365	0.1332	0.37365	0.115
Mof_C 	C 	0.8764	0.5133	0.8764	0.283
Mof_C 	C 	0.9026	0.593	0.9026	-0.732
Mof_H 	H 	0.87365	0.6332	0.87365	0.231
Mof_C 	C 	0.6236	0.0133	0.6236	0.001
Mof_C 	C 	0.5974	0.093	0.5974	-0.425
Mof_H 	H 	0.62635	0.1332	0.62635	0.118
Mof_C 	C 	0.1236	0.5133	0.1236	0.166
Mof_C 	C 	0.0974	0.593	0.0974	-0.493
Mof_H 	H 	0.12635	0.6332	0.12635	0.125
Mof_C 	C 	0.6236	0.9867	0.3764	0.446
Mof_C 	C 	0.5974	0.907	0.4026	-0.784
Mof_H 	H 	0.62635	0.8668	0.37365	0.227
Mof_C 	C 	0.1236	0.4867	0.8764	0.22
Mof_C 	C 	0.0974	0.407	0.9026	-0.597
Mof_H 	H 	0.12635	0.3668	0.87365	0.167
Mof_C 	C 	0.6236	0.3764	0.9867	0.446
Mof_C 	C 	0.5974	0.4026	0.907	-0.784
Mof_H 	H 	0.62635	0.37365	0.8668	0.227
Mof_C 	C 	0.1236	0.8764	0.4867	0.22
Mof_C 	C 	0.0974	0.9026	0.407	-0.597
Mof_H 	H 	0.12635	0.87365	0.3668	0.167
Mof_C 	C 	0.3764	0.3764	0.0133	-0.003
Mof_C 	C 	0.4026	0.4026	0.093	-0.422
Mof_H 	H 	0.37365	0.37365	0.1332	0.115
Mof_C 	C 	0.8764	0.8764	0.5133	0.283
Mof_C 	C 	0.9026	0.9026	0.593	-0.732
Mof_H 	H 	0.87365	0.87365	0.6332	0.231
Mof_C 	C 	0.6236	0.6236	0.0133	0.001
Mof_C 	C 	0.5974	0.5974	0.093	-0.425
Mof_H 	H 	0.62635	0.62635	0.1332	0.118
Mof_C 	C 	0.1236	0.1236	0.5133	0.166
Mof_C 	C 	0.0974	0.0974	0.593	-0.493
Mof_H 	H 	0.12635	0.12635	0.6332	0.125
Mof_C 	C 	0.3764	0.6236	0.9867	0.446
Mof_C 	C 	0.4026	0.5974	0.907	-0.784
Mof_H 	H 	0.37365	0.62635	0.8668	0.227
Mof_C 	C 	0.8764	0.1236	0.4867	0.22
Mof_C 	C 	0.9026	0.0974	0.407	-0.597
Mof_H 	H 	0.87365	0.12635	0.3668	0.167
_end
