# CIF file generated by openbabel 3.1.0, see https://openbabel.org
data_I
_chemical_name_common 'image0'
_cell_length_a 8.9091
_cell_length_b 14.9748
_cell_length_c 14.7891
_cell_angle_alpha 90
_cell_angle_beta 90
_cell_angle_gamma 90
_space_group_name_H-M_alt 'P 1'
_space_group_name_Hall 'P 1'
loop_
    _symmetry_equiv_pos_as_xyz
    x,y,z
loop_
    _atom_site_label
    _atom_site_type_symbol
    _atom_site_fract_x
    _atom_site_fract_y
    _atom_site_fract_z
    _atom_site_occupancy
    Co1      Co       0.15560    0.84470    0.38210    1.000
    P1       P        0.82680    0.13400    0.10210    1.000
    O1       O        0.75650    0.22640    0.12070    1.000
    O2       O        0.04550    0.35090    0.16310    1.000
    O3       O        0.73030    0.06380    0.13530    1.000
    O4       O        0.85140    0.11520    0.00470    1.000
    O5       O        0.97670    0.13920    0.12880    1.000
    O6       O        0.31750    0.90510    0.31460    1.000
    O7       O        0.19300    0.02960    0.20200    1.000
    Co2      Co       0.84440    0.15530    0.88210    1.000
    P2       P        0.17320    0.86600    0.60210    1.000
    O8       O        0.24350    0.77360    0.62070    1.000
    O9       O        0.95450    0.64910    0.66310    1.000
    O10      O        0.26970    0.93620    0.63530    1.000
    O11      O        0.14860    0.88480    0.50470    1.000
    O12      O        0.02330    0.86080    0.62880    1.000
    O13      O        0.68250    0.09490    0.81460    1.000
    O14      O        0.80700    0.97040    0.70200    1.000
    Co3      Co       0.84440    0.34470    0.11790    1.000
    P3       P        0.17320    0.63400    0.39790    1.000
    O15      O        0.24350    0.72640    0.37930    1.000
    O16      O        0.95450    0.85090    0.33690    1.000
    O17      O        0.26970    0.56380    0.36470    1.000
    O18      O        0.14860    0.61520    0.49530    1.000
    O19      O        0.02330    0.63920    0.37120    1.000
    O20      O        0.68250    0.40510    0.18540    1.000
    O21      O        0.80700    0.52960    0.29800    1.000
    Co4      Co       0.15560    0.65530    0.61790    1.000
    P4       P        0.82680    0.36600    0.89790    1.000
    O22      O        0.75650    0.27360    0.87930    1.000
    O23      O        0.04550    0.14910    0.83690    1.000
    O24      O        0.73030    0.43620    0.86470    1.000
    O25      O        0.85140    0.38480    0.99530    1.000
    O26      O        0.97670    0.36080    0.87120    1.000
    O27      O        0.31750    0.59490    0.68540    1.000
    O28      O        0.19300    0.47040    0.79800    1.000
    Co5      Co       0.84440    0.15530    0.61790    1.000
    P5       P        0.17320    0.86600    0.89790    1.000
    O29      O        0.24350    0.77360    0.87930    1.000
    O30      O        0.95450    0.64910    0.83690    1.000
    O31      O        0.26970    0.93620    0.86470    1.000
    O32      O        0.14860    0.88480    0.99530    1.000
    O33      O        0.02330    0.86080    0.87120    1.000
    O34      O        0.68250    0.09490    0.68540    1.000
    O35      O        0.80700    0.97040    0.79800    1.000
    Co6      Co       0.15560    0.84470    0.11790    1.000
    P6       P        0.82680    0.13400    0.39790    1.000
    O36      O        0.75650    0.22640    0.37930    1.000
    O37      O        0.04550    0.35090    0.33690    1.000
    O38      O        0.73030    0.06380    0.36470    1.000
    O39      O        0.85140    0.11520    0.49530    1.000
    O40      O        0.97670    0.13920    0.37120    1.000
    O41      O        0.31750    0.90510    0.18540    1.000
    O42      O        0.19300    0.02960    0.29800    1.000
    Co7      Co       0.15560    0.65530    0.88210    1.000
    P7       P        0.82680    0.36600    0.60210    1.000
    O43      O        0.75650    0.27360    0.62070    1.000
    O44      O        0.04550    0.14910    0.66310    1.000
    O45      O        0.73030    0.43620    0.63530    1.000
    O46      O        0.85140    0.38480    0.50470    1.000
    O47      O        0.97670    0.36080    0.62880    1.000
    O48      O        0.31750    0.59490    0.81460    1.000
    O49      O        0.19300    0.47040    0.70200    1.000
    Co8      Co       0.84440    0.34470    0.38210    1.000
    P8       P        0.17320    0.63400    0.10210    1.000
    O50      O        0.24350    0.72640    0.12070    1.000
    O51      O        0.95450    0.85090    0.16310    1.000
    O52      O        0.26970    0.56380    0.13530    1.000
    O53      O        0.14860    0.61520    0.00470    1.000
    O54      O        0.02330    0.63920    0.12880    1.000
    O55      O        0.68250    0.40510    0.31460    1.000
    O56      O        0.80700    0.52960    0.20200    1.000
    Co9      Co       0.66950    0.00670    0.25000    1.000
    Ga1      Ga       0.07750    0.13020    0.25000    1.000
    P9       P        0.31130    0.97590    0.25000    1.000
    P10      P        0.13630    0.33060    0.25000    1.000
    O57      O        0.18520    0.23260    0.25000    1.000
    O58      O        0.28510    0.37980    0.25000    1.000
    O59      O        0.45430    0.03000    0.25000    1.000
    Co10     Co       0.33050    0.99330    0.75000    1.000
    Ga2      Ga       0.92250    0.86980    0.75000    1.000
    P11      P        0.68870    0.02410    0.75000    1.000
    P12      P        0.86370    0.66940    0.75000    1.000
    O60      O        0.81480    0.76740    0.75000    1.000
    O61      O        0.71490    0.62020    0.75000    1.000
    O62      O        0.54570    0.97000    0.75000    1.000
    Co11     Co       0.33050    0.50670    0.25000    1.000
    Ga3      Ga       0.92250    0.63020    0.25000    1.000
    P13      P        0.68870    0.47590    0.25000    1.000
    P14      P        0.86370    0.83060    0.25000    1.000
    O63      O        0.81480    0.73260    0.25000    1.000
    O64      O        0.71490    0.87980    0.25000    1.000
    O65      O        0.54570    0.53000    0.25000    1.000
    Co12     Co       0.66950    0.49330    0.75000    1.000
    Ga4      Ga       0.07750    0.36980    0.75000    1.000
    P15      P        0.31130    0.52410    0.75000    1.000
    P16      P        0.13630    0.16940    0.75000    1.000
    O66      O        0.18520    0.26740    0.75000    1.000
    O67      O        0.28510    0.12020    0.75000    1.000
    O68      O        0.45430    0.47000    0.75000    1.000
