# CIF file generated by openbabel 3.1.0, see https://openbabel.org
data_I
_chemical_name_common 'image0'
_cell_length_a 18.825
_cell_length_b 15.373
_cell_length_c 9.047
_cell_angle_alpha 90
_cell_angle_beta 90
_cell_angle_gamma 90
_space_group_name_H-M_alt 'P 1'
_space_group_name_Hall 'P 1'
loop_
    _symmetry_equiv_pos_as_xyz
    x,y,z
loop_
    _atom_site_label
    _atom_site_type_symbol
    _atom_site_fract_x
    _atom_site_fract_y
    _atom_site_fract_z
    _atom_site_occupancy
    C1       C        0.98640    0.84430    0.64610    1.000
    C2       C        0.00060    0.84490    0.81210    1.000
    C3       C        0.15660    0.98750    0.42210    1.000
    C4       C        0.15380    0.04140    0.56560    1.000
    C5       C        0.15500    0.65250    0.85430    1.000
    C6       C        0.11720    0.57890    0.93360    1.000
    C7       C        0.15490    0.51500    0.00020    1.000
    H1       H        0.20430    0.51710    0.99760    1.000
    C8       C        0.12230    0.44690    0.07160    1.000
    C9       C        0.04860    0.44320    0.07090    1.000
    H2       H        0.02610    0.39710    0.11810    1.000
    C10      C        0.00760    0.50630    0.00160    1.000
    C11      C        0.04300    0.57560    0.93480    1.000
    H3       H        0.01700    0.62010    0.89080    1.000
    C12      C        0.16430    0.37270    0.13860    1.000
    C13      C        0.92860    0.49960    0.99890    1.000
    C14      C        0.89480    0.42070    0.01120    1.000
    H4       H        0.92210    0.37070    0.02300    1.000
    C15      C        0.82030    0.41290    0.00640    1.000
    C16      C        0.78030    0.48730    0.99120    1.000
    H5       H        0.73100    0.48350    0.99290    1.000
    C17      C        0.81200    0.56650    0.97370    1.000
    C18      C        0.88540    0.57320    0.97990    1.000
    H6       H        0.90650    0.62760    0.97130    1.000
    C19      C        0.76920    0.64670    0.94020    1.000
    C20      C        0.78650    0.32960    0.03670    1.000
    Yb1      Yb       0.83464    0.82224    0.79565    1.000
    Yb2      Yb       0.15271    0.84772    0.68251    1.000
    O1       O        0.92250    0.85080    0.60360    1.000
    O2       O        0.94960    0.82150    0.89450    1.000
    O3       O        0.06050    0.87150    0.85050    1.000
    O4       O        0.04080    0.83720    0.56420    1.000
    O5       O        0.15860    0.90700    0.43730    1.000
    O6       O        0.15600    0.02870    0.30220    1.000
    O7       O        0.14520    0.99910    0.68460    1.000
    O8       O        0.16130    0.12120    0.55430    1.000
    O9       O        0.11940    0.71440    0.80550    1.000
    O10      O        0.22150    0.64420    0.84410    1.000
    O11      O        0.23000    0.37980    0.14170    1.000
    O12      O        0.12910    0.30890    0.18520    1.000
    O13      O        0.82190    0.26240    0.02970    1.000
    O14      O        0.72060    0.32990    0.07110    1.000
    O15      O        0.70550    0.63630    0.90860    1.000
    O16      O        0.80120    0.71680    0.94630    1.000
    C21      C        0.01360    0.15570    0.14610    1.000
    C22      C        0.99940    0.15510    0.31210    1.000
    C23      C        0.84340    0.01250    0.92210    1.000
    C24      C        0.84620    0.95860    0.06560    1.000
    C25      C        0.84500    0.34750    0.35430    1.000
    C26      C        0.88280    0.42110    0.43360    1.000
    C27      C        0.84510    0.48500    0.50020    1.000
    H7       H        0.79570    0.48290    0.49760    1.000
    C28      C        0.87770    0.55310    0.57160    1.000
    C29      C        0.95140    0.55680    0.57090    1.000
    H8       H        0.97390    0.60290    0.61810    1.000
    C30      C        0.99240    0.49370    0.50160    1.000
    C31      C        0.95700    0.42440    0.43480    1.000
    H9       H        0.98300    0.37990    0.39080    1.000
    C32      C        0.83570    0.62730    0.63860    1.000
    C33      C        0.07140    0.50040    0.49890    1.000
    C34      C        0.10520    0.57930    0.51120    1.000
    H10      H        0.07790    0.62930    0.52300    1.000
    C35      C        0.17970    0.58710    0.50640    1.000
    C36      C        0.21970    0.51270    0.49120    1.000
    H11      H        0.26900    0.51650    0.49290    1.000
    C37      C        0.18800    0.43350    0.47370    1.000
    C38      C        0.11460    0.42680    0.47990    1.000
    H12      H        0.09350    0.37240    0.47130    1.000
    C39      C        0.23080    0.35330    0.44020    1.000
    C40      C        0.21350    0.67040    0.53670    1.000
    Yb3      Yb       0.16536    0.17776    0.29565    1.000
    Yb4      Yb       0.84729    0.15228    0.18251    1.000
    O17      O        0.07750    0.14920    0.10360    1.000
    O18      O        0.05040    0.17850    0.39450    1.000
    O19      O        0.93950    0.12850    0.35050    1.000
    O20      O        0.95920    0.16280    0.06420    1.000
    O21      O        0.84140    0.09300    0.93730    1.000
    O22      O        0.84400    0.97130    0.80220    1.000
    O23      O        0.85480    0.00090    0.18460    1.000
    O24      O        0.83870    0.87880    0.05430    1.000
    O25      O        0.88060    0.28560    0.30550    1.000
    O26      O        0.77850    0.35580    0.34410    1.000
    O27      O        0.77000    0.62020    0.64170    1.000
    O28      O        0.87090    0.69110    0.68520    1.000
    O29      O        0.17810    0.73760    0.52970    1.000
    O30      O        0.27940    0.67010    0.57110    1.000
    O31      O        0.29450    0.36370    0.40860    1.000
    O32      O        0.19880    0.28320    0.44630    1.000
    C41      C        0.48640    0.65570    0.64610    1.000
    C42      C        0.50060    0.65510    0.81210    1.000
    C43      C        0.65660    0.51250    0.42210    1.000
    C44      C        0.65380    0.45860    0.56560    1.000
    C45      C        0.65500    0.84750    0.85430    1.000
    C46      C        0.61720    0.92110    0.93360    1.000
    C47      C        0.65490    0.98500    0.00020    1.000
    H13      H        0.70430    0.98290    0.99760    1.000
    C48      C        0.62230    0.05310    0.07160    1.000
    C49      C        0.54860    0.05680    0.07090    1.000
    H14      H        0.52610    0.10290    0.11810    1.000
    C50      C        0.50760    0.99370    0.00160    1.000
    C51      C        0.54300    0.92440    0.93480    1.000
    H15      H        0.51700    0.87990    0.89080    1.000
    C52      C        0.66430    0.12730    0.13860    1.000
    C53      C        0.42860    0.00040    0.99890    1.000
    C54      C        0.39480    0.07930    0.01120    1.000
    H16      H        0.42210    0.12930    0.02300    1.000
    C55      C        0.32030    0.08710    0.00640    1.000
    C56      C        0.28030    0.01270    0.99120    1.000
    H17      H        0.23100    0.01650    0.99290    1.000
    C57      C        0.31200    0.93350    0.97370    1.000
    C58      C        0.38540    0.92680    0.97990    1.000
    H18      H        0.40650    0.87240    0.97130    1.000
    C59      C        0.26920    0.85330    0.94020    1.000
    C60      C        0.28650    0.17040    0.03670    1.000
    Yb5      Yb       0.33464    0.67776    0.79565    1.000
    Yb6      Yb       0.65271    0.65228    0.68251    1.000
    O33      O        0.42250    0.64920    0.60360    1.000
    O34      O        0.44960    0.67850    0.89450    1.000
    O35      O        0.56050    0.62850    0.85050    1.000
    O36      O        0.54080    0.66280    0.56420    1.000
    O37      O        0.65860    0.59300    0.43730    1.000
    O38      O        0.65600    0.47130    0.30220    1.000
    O39      O        0.64520    0.50090    0.68460    1.000
    O40      O        0.66130    0.37880    0.55430    1.000
    O41      O        0.61940    0.78560    0.80550    1.000
    O42      O        0.72150    0.85580    0.84410    1.000
    O43      O        0.73000    0.12020    0.14170    1.000
    O44      O        0.62910    0.19110    0.18520    1.000
    O45      O        0.32190    0.23760    0.02970    1.000
    O46      O        0.22060    0.17010    0.07110    1.000
    O47      O        0.20550    0.86370    0.90860    1.000
    O48      O        0.30120    0.78320    0.94630    1.000
    C61      C        0.51360    0.34430    0.14610    1.000
    C62      C        0.49940    0.34490    0.31210    1.000
    C63      C        0.34340    0.48750    0.92210    1.000
    C64      C        0.34620    0.54140    0.06560    1.000
    C65      C        0.34500    0.15250    0.35430    1.000
    C66      C        0.38280    0.07890    0.43360    1.000
    C67      C        0.34510    0.01500    0.50020    1.000
    H19      H        0.29570    0.01710    0.49760    1.000
    C68      C        0.37770    0.94690    0.57160    1.000
    C69      C        0.45140    0.94320    0.57090    1.000
    H20      H        0.47390    0.89710    0.61810    1.000
    C70      C        0.49240    0.00630    0.50160    1.000
    C71      C        0.45700    0.07560    0.43480    1.000
    H21      H        0.48300    0.12010    0.39080    1.000
    C72      C        0.33570    0.87270    0.63860    1.000
    C73      C        0.57140    0.99960    0.49890    1.000
    C74      C        0.60520    0.92070    0.51120    1.000
    H22      H        0.57790    0.87070    0.52300    1.000
    C75      C        0.67970    0.91290    0.50640    1.000
    C76      C        0.71970    0.98730    0.49120    1.000
    H23      H        0.76900    0.98350    0.49290    1.000
    C77      C        0.68800    0.06650    0.47370    1.000
    C78      C        0.61460    0.07320    0.47990    1.000
    H24      H        0.59350    0.12760    0.47130    1.000
    C79      C        0.73080    0.14670    0.44020    1.000
    C80      C        0.71350    0.82960    0.53670    1.000
    Yb7      Yb       0.66536    0.32224    0.29565    1.000
    Yb8      Yb       0.34729    0.34772    0.18251    1.000
    O49      O        0.57750    0.35080    0.10360    1.000
    O50      O        0.55040    0.32150    0.39450    1.000
    O51      O        0.43950    0.37150    0.35050    1.000
    O52      O        0.45920    0.33720    0.06420    1.000
    O53      O        0.34140    0.40700    0.93730    1.000
    O54      O        0.34400    0.52870    0.80220    1.000
    O55      O        0.35480    0.49910    0.18460    1.000
    O56      O        0.33870    0.62120    0.05430    1.000
    O57      O        0.38060    0.21440    0.30550    1.000
    O58      O        0.27850    0.14420    0.34410    1.000
    O59      O        0.27000    0.87980    0.64170    1.000
    O60      O        0.37090    0.80890    0.68520    1.000
    O61      O        0.67810    0.76240    0.52970    1.000
    O62      O        0.77940    0.82990    0.57110    1.000
    O63      O        0.79450    0.13630    0.40860    1.000
    O64      O        0.69880    0.21680    0.44630    1.000
