data_functionalizedCrystal
_audit_creation_method	'EQeq! by Chris Wilmer'
_symmetry_space_group_name_H-M	'P1'
_symmetry_Int_Tables_number	1
_symmetry_cell_setting	triclinic
loop_
_symmetry_equiv_pos_as_xyz
  x,y,z
_cell_length_a	16.0206
_cell_length_b	10.107
_cell_length_c	18.533
_cell_angle_alpha	90
_cell_angle_beta	90
_cell_angle_gamma	90
loop_
_atom_site_label
_atom_site_type_symbol
_atom_site_fract_x
_atom_site_fract_y
_atom_site_fract_z
_atom_site_charge
Mof_Ga	Ga	0.0384	0.68168	0.28205	4.402
Mof_Ga	Ga	0.84971	0.83323	0.324	4.312
Mof_Ga	Ga	0.00914	0.65238	0.09228	4.232
Mof_P 	P 	0.06094	0.3785	0.31604	0.978
Mof_P 	P 	0.18386	0.6483	0.16842	1.126
Mof_P 	P 	0.01195	0.8579	0.42263	1.063
Mof_F 	F 	0.0031	0.5885	0.1952	-1.476
Mof_F 	F 	0.9199	0.6692	0.3105	-1.373
Mof_O 	O 	0.0591	0.524	0.3393	-0.978
Mof_O 	O 	0.1437	0.3505	0.2763	-1.132
Mof_O 	O 	0.9866	0.3461	0.2681	-1.151
Mof_O 	O 	0.0599	0.2958	0.3857	-1.079
Mof_O 	O 	0.1512	0.6896	0.2426	-1.093
Mof_O 	O 	0.2078	0.5016	0.1674	-1.071
Mof_O 	O 	0.1218	0.6797	0.1074	-1.179
Mof_O 	O 	0.2616	0.7286	0.1496	-1.127
Mof_O 	O 	0.0652	0.7844	0.3668	-1.036
Mof_O 	O 	0.9202	0.8717	0.4003	-1.274
Mof_O 	O 	0.0177	0.7837	0.4942	-1.013
Mof_O 	O 	0.0479	0.9984	0.432	-1.163
Mof_Ga	Ga	0.4616	0.31832	0.78205	4.408
Mof_Ga	Ga	0.65029	0.16677	0.824	4.286
Mof_Ga	Ga	0.49086	0.34762	0.59228	4.292
Mof_P 	P 	0.43906	0.6215	0.81604	0.979
Mof_P 	P 	0.31614	0.3517	0.66842	1.129
Mof_P 	P 	0.48805	0.1421	0.92263	1.066
Mof_F 	F 	0.4969	0.4115	0.6952	-1.481
Mof_F 	F 	0.5801	0.3308	0.8105	-1.376
Mof_O 	O 	0.4409	0.476	0.8393	-0.979
Mof_O 	O 	0.3563	0.6495	0.7763	-1.133
Mof_O 	O 	0.5134	0.6539	0.7681	-1.155
Mof_O 	O 	0.4401	0.7042	0.8857	-1.081
Mof_O 	O 	0.3488	0.3104	0.7426	-1.094
Mof_O 	O 	0.2922	0.4984	0.6674	-1.071
Mof_O 	O 	0.3782	0.3203	0.6074	-1.186
Mof_O 	O 	0.2384	0.2714	0.6496	-1.129
Mof_O 	O 	0.4348	0.2156	0.8668	-1.035
Mof_O 	O 	0.5798	0.1283	0.9003	-1.28
Mof_O 	O 	0.4823	0.2163	0.9942	-1.013
Mof_O 	O 	0.4521	0.0016	0.932	-1.157
Mof_Ga	Ga	0.9616	0.18168	0.21795	4.416
Mof_Ga	Ga	0.15029	0.33323	0.176	4.294
Mof_Ga	Ga	0.99086	0.15238	0.40772	4.298
Mof_P 	P 	0.93906	0.8785	0.18396	0.995
Mof_P 	P 	0.81614	0.1483	0.33158	1.129
Mof_P 	P 	0.98805	0.3579	0.07737	1.072
Mof_F 	F 	0.9969	0.0885	0.3048	-1.483
Mof_F 	F 	0.0801	0.1692	0.1895	-1.377
Mof_O 	O 	0.9409	0.024	0.1607	-0.987
Mof_O 	O 	0.8563	0.8505	0.2237	-1.135
Mof_O 	O 	0.0134	0.8461	0.2319	-1.164
Mof_O 	O 	0.9401	0.7958	0.1143	-1.064
Mof_O 	O 	0.8488	0.1896	0.2574	-1.096
Mof_O 	O 	0.7922	0.0016	0.3326	-1.079
Mof_O 	O 	0.8782	0.1797	0.3926	-1.188
Mof_O 	O 	0.7384	0.2286	0.3504	-1.127
Mof_O 	O 	0.9348	0.2844	0.1332	-1.036
Mof_O 	O 	0.0798	0.3717	0.0997	-1.283
Mof_O 	O 	0.9823	0.2837	0.0058	-0.999
Mof_O 	O 	0.9521	0.4984	0.068	-1.139
Mof_Ga	Ga	0.5384	0.81832	0.71795	4.407
Mof_Ga	Ga	0.34971	0.66677	0.676	4.296
Mof_Ga	Ga	0.50914	0.84762	0.90772	4.287
Mof_P 	P 	0.56094	0.1215	0.68396	0.978
Mof_P 	P 	0.68386	0.8517	0.83158	1.128
Mof_P 	P 	0.51195	0.6421	0.57737	1.067
Mof_F 	F 	0.5031	0.9115	0.8048	-1.481
Mof_F 	F 	0.4199	0.8308	0.6895	-1.377
Mof_O 	O 	0.5591	0.976	0.6607	-0.979
Mof_O 	O 	0.6437	0.1495	0.7237	-1.132
Mof_O 	O 	0.4866	0.1539	0.7319	-1.155
Mof_O 	O 	0.5599	0.2042	0.6143	-1.082
Mof_O 	O 	0.6512	0.8104	0.7574	-1.093
Mof_O 	O 	0.7078	0.9984	0.8326	-1.069
Mof_O 	O 	0.6218	0.8203	0.8926	-1.186
Mof_O 	O 	0.7616	0.7714	0.8504	-1.127
Mof_O 	O 	0.5652	0.7156	0.6332	-1.036
Mof_O 	O 	0.4202	0.6283	0.5997	-1.28
Mof_O 	O 	0.5177	0.7163	0.5058	-1.014
Mof_O 	O 	0.5479	0.5016	0.568	-1.157
Mof_Ga	Ga	0.9616	0.31832	0.71795	4.402
Mof_Ga	Ga	0.15029	0.16677	0.676	4.312
Mof_Ga	Ga	0.99086	0.34762	0.90772	4.232
Mof_P 	P 	0.93906	0.6215	0.68396	0.978
Mof_P 	P 	0.81614	0.3517	0.83158	1.126
Mof_P 	P 	0.98805	0.1421	0.57737	1.063
Mof_F 	F 	0.9969	0.4115	0.8048	-1.476
Mof_F 	F 	0.0801	0.3308	0.6895	-1.373
Mof_O 	O 	0.9409	0.476	0.6607	-0.978
Mof_O 	O 	0.8563	0.6495	0.7237	-1.132
Mof_O 	O 	0.0134	0.6539	0.7319	-1.151
Mof_O 	O 	0.9401	0.7042	0.6143	-1.079
Mof_O 	O 	0.8488	0.3104	0.7574	-1.093
Mof_O 	O 	0.7922	0.4984	0.8326	-1.071
Mof_O 	O 	0.8782	0.3203	0.8926	-1.179
Mof_O 	O 	0.7384	0.2714	0.8504	-1.127
Mof_O 	O 	0.9348	0.2156	0.6332	-1.036
Mof_O 	O 	0.0798	0.1283	0.5997	-1.274
Mof_O 	O 	0.9823	0.2163	0.5058	-1.013
Mof_O 	O 	0.9521	0.0016	0.568	-1.163
Mof_Ga	Ga	0.5384	0.68168	0.21795	4.408
Mof_Ga	Ga	0.34971	0.83323	0.176	4.286
Mof_Ga	Ga	0.50914	0.65238	0.40772	4.292
Mof_P 	P 	0.56094	0.3785	0.18396	0.979
Mof_P 	P 	0.68386	0.6483	0.33158	1.129
Mof_P 	P 	0.51195	0.8579	0.07737	1.066
Mof_F 	F 	0.5031	0.5885	0.3048	-1.481
Mof_F 	F 	0.4199	0.6692	0.1895	-1.376
Mof_O 	O 	0.5591	0.524	0.1607	-0.979
Mof_O 	O 	0.6437	0.3505	0.2237	-1.133
Mof_O 	O 	0.4866	0.3461	0.2319	-1.155
Mof_O 	O 	0.5599	0.2958	0.1143	-1.081
Mof_O 	O 	0.6512	0.6896	0.2574	-1.094
Mof_O 	O 	0.7078	0.5016	0.3326	-1.071
Mof_O 	O 	0.6218	0.6797	0.3926	-1.186
Mof_O 	O 	0.7616	0.7286	0.3504	-1.129
Mof_O 	O 	0.5652	0.7844	0.1332	-1.035
Mof_O 	O 	0.4202	0.8717	0.0997	-1.28
Mof_O 	O 	0.5177	0.7837	0.0058	-1.013
Mof_O 	O 	0.5479	0.9984	0.068	-1.157
Mof_Ga	Ga	0.0384	0.81832	0.78205	4.416
Mof_Ga	Ga	0.84971	0.66677	0.824	4.294
Mof_Ga	Ga	0.00914	0.84762	0.59228	4.298
Mof_P 	P 	0.06094	0.1215	0.81604	0.995
Mof_P 	P 	0.18386	0.8517	0.66842	1.129
Mof_P 	P 	0.01195	0.6421	0.92263	1.072
Mof_F 	F 	0.0031	0.9115	0.6952	-1.483
Mof_F 	F 	0.9199	0.8308	0.8105	-1.377
Mof_O 	O 	0.0591	0.976	0.8393	-0.987
Mof_O 	O 	0.1437	0.1495	0.7763	-1.135
Mof_O 	O 	0.9866	0.1539	0.7681	-1.164
Mof_O 	O 	0.0599	0.2042	0.8857	-1.064
Mof_O 	O 	0.1512	0.8104	0.7426	-1.096
Mof_O 	O 	0.2078	0.9984	0.6674	-1.079
Mof_O 	O 	0.1218	0.8203	0.6074	-1.188
Mof_O 	O 	0.2616	0.7714	0.6496	-1.127
Mof_O 	O 	0.0652	0.7156	0.8668	-1.036
Mof_O 	O 	0.9202	0.6283	0.9003	-1.283
Mof_O 	O 	0.0177	0.7163	0.9942	-0.999
Mof_O 	O 	0.0479	0.5016	0.932	-1.139
Mof_Ga	Ga	0.4616	0.18168	0.28205	4.407
Mof_Ga	Ga	0.65029	0.33323	0.324	4.296
Mof_Ga	Ga	0.49086	0.15238	0.09228	4.287
Mof_P 	P 	0.43906	0.8785	0.31604	0.978
Mof_P 	P 	0.31614	0.1483	0.16842	1.128
Mof_P 	P 	0.48805	0.3579	0.42263	1.067
Mof_F 	F 	0.4969	0.0885	0.1952	-1.481
Mof_F 	F 	0.5801	0.1692	0.3105	-1.377
Mof_O 	O 	0.4409	0.024	0.3393	-0.979
Mof_O 	O 	0.3563	0.8505	0.2763	-1.132
Mof_O 	O 	0.5134	0.8461	0.2681	-1.155
Mof_O 	O 	0.4401	0.7958	0.3857	-1.082
Mof_O 	O 	0.3488	0.1896	0.2426	-1.093
Mof_O 	O 	0.2922	0.0016	0.1674	-1.069
Mof_O 	O 	0.3782	0.1797	0.1074	-1.186
Mof_O 	O 	0.2384	0.2286	0.1496	-1.127
Mof_O 	O 	0.4348	0.2844	0.3668	-1.036
Mof_O 	O 	0.5798	0.3717	0.4003	-1.28
Mof_O 	O 	0.4823	0.2837	0.4942	-1.014
Mof_O 	O 	0.4521	0.4984	0.432	-1.157
_end
