data_functionalizedCrystal
_audit_creation_method	'EQeq! by Chris Wilmer'
_symmetry_space_group_name_H-M	'P1'
_symmetry_Int_Tables_number	1
_symmetry_cell_setting	triclinic
loop_
_symmetry_equiv_pos_as_xyz
  x,y,z
_cell_length_a	19.8346
_cell_length_b	19.8346
_cell_length_c	19.8346
_cell_angle_alpha	90
_cell_angle_beta	90
_cell_angle_gamma	90
loop_
_atom_site_label
_atom_site_type_symbol
_atom_site_fract_x
_atom_site_fract_y
_atom_site_fract_z
_atom_site_charge
Mof_O 	O 	0.4544	0.6518	0.79323	-0.535
Mof_O 	O 	0.4153	0.5955	0.7044	-0.503
Mof_C 	C 	0.4459	0.6439	0.7303	0.389
Mof_C 	C 	0.4736	0.6984	0.6858	-0.094
Mof_C 	C 	0.4722	0.6966	0.6162	-0.002
Mof_H 	H 	0.453	0.6605	0.5932	0.001
Mof_O 	O 	0.9544	0.1518	0.29323	-0.47
Mof_O 	O 	0.9153	0.0955	0.2044	-0.483
Mof_C 	C 	0.9459	0.1439	0.2303	0.387
Mof_C 	C 	0.9736	0.1984	0.1858	-0.071
Mof_C 	C 	0.9722	0.1966	0.1162	0.186
Mof_H 	H 	0.953	0.1605	0.0932	-0.06
Mof_O 	O 	0.0456	0.3482	0.29323	-0.533
Mof_O 	O 	0.0847	0.4045	0.2044	-0.518
Mof_C 	C 	0.0541	0.3561	0.2303	0.392
Mof_C 	C 	0.0264	0.3016	0.1858	-0.157
Mof_C 	C 	0.0278	0.3034	0.1162	0.095
Mof_H 	H 	0.047	0.3395	0.0932	-0.059
Mof_O 	O 	0.5456	0.8482	0.79323	-0.512
Mof_O 	O 	0.5847	0.9045	0.7044	-0.446
Mof_C 	C 	0.5541	0.8561	0.7303	0.378
Mof_C 	C 	0.5264	0.8016	0.6858	-0.084
Mof_C 	C 	0.5278	0.8034	0.6162	-0.005
Mof_H 	H 	0.547	0.8395	0.5932	0.011
Mof_O 	O 	0.5456	0.1518	0.70677	-0.535
Mof_O 	O 	0.5847	0.0955	0.7956	-0.487
Mof_C 	C 	0.5541	0.1439	0.7697	0.382
Mof_C 	C 	0.5264	0.1984	0.8142	-0.09
Mof_C 	C 	0.5278	0.1966	0.8838	0.005
Mof_H 	H 	0.547	0.1605	0.9068	0.016
Mof_O 	O 	0.0456	0.6518	0.20677	-0.535
Mof_O 	O 	0.0847	0.5955	0.2956	-0.516
Mof_C 	C 	0.0541	0.6439	0.2697	0.392
Mof_C 	C 	0.0264	0.6984	0.3142	-0.153
Mof_C 	C 	0.0278	0.6966	0.3838	0.104
Mof_H 	H 	0.047	0.6605	0.4068	-0.048
Mof_O 	O 	0.9544	0.8482	0.20677	-0.448
Mof_O 	O 	0.9153	0.9045	0.2956	-0.434
Mof_C 	C 	0.9459	0.8561	0.2697	0.383
Mof_C 	C 	0.9736	0.8016	0.3142	-0.057
Mof_C 	C 	0.9722	0.8034	0.3838	0.193
Mof_H 	H 	0.953	0.8395	0.4068	-0.034
Mof_O 	O 	0.4544	0.3482	0.70677	-0.535
Mof_O 	O 	0.4153	0.4045	0.7956	-0.496
Mof_C 	C 	0.4459	0.3561	0.7697	0.387
Mof_C 	C 	0.4736	0.3016	0.8142	-0.09
Mof_C 	C 	0.4722	0.3034	0.8838	0.006
Mof_H 	H 	0.453	0.3395	0.9068	0.021
Mof_O 	O 	0.79323	0.4544	0.6518	-0.536
Mof_O 	O 	0.7044	0.4153	0.5955	-0.504
Mof_C 	C 	0.7303	0.4459	0.6439	0.388
Mof_C 	C 	0.6858	0.4736	0.6984	-0.095
Mof_C 	C 	0.6162	0.4722	0.6966	-0.003
Mof_H 	H 	0.5932	0.453	0.6605	0
Mof_O 	O 	0.29323	0.9544	0.1518	-0.471
Mof_O 	O 	0.2044	0.9153	0.0955	-0.484
Mof_C 	C 	0.2303	0.9459	0.1439	0.386
Mof_C 	C 	0.1858	0.9736	0.1984	-0.072
Mof_C 	C 	0.1162	0.9722	0.1966	0.185
Mof_H 	H 	0.0932	0.953	0.1605	-0.061
Mof_O 	O 	0.29323	0.0456	0.3482	-0.534
Mof_O 	O 	0.2044	0.0847	0.4045	-0.519
Mof_C 	C 	0.2303	0.0541	0.3561	0.391
Mof_C 	C 	0.1858	0.0264	0.3016	-0.157
Mof_C 	C 	0.1162	0.0278	0.3034	0.095
Mof_H 	H 	0.0932	0.047	0.3395	-0.059
Mof_O 	O 	0.79323	0.5456	0.8482	-0.512
Mof_O 	O 	0.7044	0.5847	0.9045	-0.446
Mof_C 	C 	0.7303	0.5541	0.8561	0.378
Mof_C 	C 	0.6858	0.5264	0.8016	-0.084
Mof_C 	C 	0.6162	0.5278	0.8034	-0.005
Mof_H 	H 	0.5932	0.547	0.8395	0.011
Mof_O 	O 	0.70677	0.5456	0.1518	-0.535
Mof_O 	O 	0.7956	0.5847	0.0955	-0.487
Mof_C 	C 	0.7697	0.5541	0.1439	0.382
Mof_C 	C 	0.8142	0.5264	0.1984	-0.09
Mof_C 	C 	0.8838	0.5278	0.1966	0.005
Mof_H 	H 	0.9068	0.547	0.1605	0.016
Mof_O 	O 	0.20677	0.0456	0.6518	-0.535
Mof_O 	O 	0.2956	0.0847	0.5955	-0.516
Mof_C 	C 	0.2697	0.0541	0.6439	0.392
Mof_C 	C 	0.3142	0.0264	0.6984	-0.153
Mof_C 	C 	0.3838	0.0278	0.6966	0.104
Mof_H 	H 	0.4068	0.047	0.6605	-0.048
Mof_O 	O 	0.20677	0.9544	0.8482	-0.448
Mof_O 	O 	0.2956	0.9153	0.9045	-0.434
Mof_C 	C 	0.2697	0.9459	0.8561	0.383
Mof_C 	C 	0.3142	0.9736	0.8016	-0.057
Mof_C 	C 	0.3838	0.9722	0.8034	0.193
Mof_H 	H 	0.4068	0.953	0.8395	-0.034
Mof_O 	O 	0.70677	0.4544	0.3482	-0.535
Mof_O 	O 	0.7956	0.4153	0.4045	-0.496
Mof_C 	C 	0.7697	0.4459	0.3561	0.387
Mof_C 	C 	0.8142	0.4736	0.3016	-0.09
Mof_C 	C 	0.8838	0.4722	0.3034	0.006
Mof_H 	H 	0.9068	0.453	0.3395	0.021
Mof_O 	O 	0.6518	0.79323	0.4544	-0.536
Mof_O 	O 	0.5955	0.7044	0.4153	-0.504
Mof_C 	C 	0.6439	0.7303	0.4459	0.388
Mof_C 	C 	0.6984	0.6858	0.4736	-0.095
Mof_C 	C 	0.6966	0.6162	0.4722	-0.003
Mof_H 	H 	0.6605	0.5932	0.453	0
Mof_O 	O 	0.1518	0.29323	0.9544	-0.471
Mof_O 	O 	0.0955	0.2044	0.9153	-0.484
Mof_C 	C 	0.1439	0.2303	0.9459	0.386
Mof_C 	C 	0.1984	0.1858	0.9736	-0.072
Mof_C 	C 	0.1966	0.1162	0.9722	0.185
Mof_H 	H 	0.1605	0.0932	0.953	-0.061
Mof_O 	O 	0.3482	0.29323	0.0456	-0.534
Mof_O 	O 	0.4045	0.2044	0.0847	-0.519
Mof_C 	C 	0.3561	0.2303	0.0541	0.391
Mof_C 	C 	0.3016	0.1858	0.0264	-0.157
Mof_C 	C 	0.3034	0.1162	0.0278	0.095
Mof_H 	H 	0.3395	0.0932	0.047	-0.059
Mof_O 	O 	0.8482	0.79323	0.5456	-0.512
Mof_O 	O 	0.9045	0.7044	0.5847	-0.446
Mof_C 	C 	0.8561	0.7303	0.5541	0.378
Mof_C 	C 	0.8016	0.6858	0.5264	-0.084
Mof_C 	C 	0.8034	0.6162	0.5278	-0.005
Mof_H 	H 	0.8395	0.5932	0.547	0.011
Mof_O 	O 	0.1518	0.70677	0.5456	-0.535
Mof_O 	O 	0.0955	0.7956	0.5847	-0.487
Mof_C 	C 	0.1439	0.7697	0.5541	0.382
Mof_C 	C 	0.1984	0.8142	0.5264	-0.09
Mof_C 	C 	0.1966	0.8838	0.5278	0.005
Mof_H 	H 	0.1605	0.9068	0.547	0.016
Mof_O 	O 	0.6518	0.20677	0.0456	-0.535
Mof_O 	O 	0.5955	0.2956	0.0847	-0.516
Mof_C 	C 	0.6439	0.2697	0.0541	0.392
Mof_C 	C 	0.6984	0.3142	0.0264	-0.153
Mof_C 	C 	0.6966	0.3838	0.0278	0.104
Mof_H 	H 	0.6605	0.4068	0.047	-0.048
Mof_O 	O 	0.8482	0.20677	0.9544	-0.448
Mof_O 	O 	0.9045	0.2956	0.9153	-0.434
Mof_C 	C 	0.8561	0.2697	0.9459	0.383
Mof_C 	C 	0.8016	0.3142	0.9736	-0.057
Mof_C 	C 	0.8034	0.3838	0.9722	0.193
Mof_H 	H 	0.8395	0.4068	0.953	-0.034
Mof_O 	O 	0.3482	0.70677	0.4544	-0.535
Mof_O 	O 	0.4045	0.7956	0.4153	-0.496
Mof_C 	C 	0.3561	0.7697	0.4459	0.387
Mof_C 	C 	0.3016	0.8142	0.4736	-0.09
Mof_C 	C 	0.3034	0.8838	0.4722	0.006
Mof_H 	H 	0.3395	0.9068	0.453	0.021
Mof_O 	O 	0.5456	0.3482	0.20677	-0.534
Mof_O 	O 	0.5847	0.4045	0.2956	-0.505
Mof_C 	C 	0.5541	0.3561	0.2697	0.387
Mof_C 	C 	0.5264	0.3016	0.3142	-0.098
Mof_C 	C 	0.5278	0.3034	0.3838	0.001
Mof_H 	H 	0.547	0.3395	0.4068	-0.002
Mof_O 	O 	0.0456	0.8482	0.70677	-0.511
Mof_O 	O 	0.0847	0.9045	0.7956	-0.451
Mof_C 	C 	0.0541	0.8561	0.7697	0.383
Mof_C 	C 	0.0264	0.8016	0.8142	-0.134
Mof_C 	C 	0.0278	0.8034	0.8838	0.106
Mof_H 	H 	0.047	0.8395	0.9068	-0.015
Mof_O 	O 	0.9544	0.6518	0.70677	-0.472
Mof_O 	O 	0.9153	0.5955	0.7956	-0.483
Mof_C 	C 	0.9459	0.6439	0.7697	0.394
Mof_C 	C 	0.9736	0.6984	0.8142	-0.059
Mof_C 	C 	0.9722	0.6966	0.8838	0.199
Mof_H 	H 	0.953	0.6605	0.9068	-0.022
Mof_O 	O 	0.4544	0.1518	0.20677	-0.534
Mof_O 	O 	0.4153	0.0955	0.2956	-0.495
Mof_C 	C 	0.4459	0.1439	0.2697	0.381
Mof_C 	C 	0.4736	0.1984	0.3142	-0.098
Mof_C 	C 	0.4722	0.1966	0.3838	-0
Mof_H 	H 	0.453	0.1605	0.4068	-0.006
Mof_O 	O 	0.4544	0.8482	0.29323	-0.513
Mof_O 	O 	0.4153	0.9045	0.2044	-0.448
Mof_C 	C 	0.4459	0.8561	0.2303	0.376
Mof_C 	C 	0.4736	0.8016	0.1858	-0.084
Mof_C 	C 	0.4722	0.8034	0.1162	-0.017
Mof_H 	H 	0.453	0.8395	0.0932	0.002
Mof_O 	O 	0.9544	0.3482	0.79323	-0.471
Mof_O 	O 	0.9153	0.4045	0.7044	-0.492
Mof_C 	C 	0.9459	0.3561	0.7303	0.394
Mof_C 	C 	0.9736	0.3016	0.6858	-0.072
Mof_C 	C 	0.9722	0.3034	0.6162	0.201
Mof_H 	H 	0.953	0.3395	0.5932	-0.047
Mof_O 	O 	0.0456	0.1518	0.79323	-0.533
Mof_O 	O 	0.0847	0.0955	0.7044	-0.508
Mof_C 	C 	0.0541	0.1439	0.7303	0.388
Mof_C 	C 	0.0264	0.1984	0.6858	-0.158
Mof_C 	C 	0.0278	0.1966	0.6162	0.108
Mof_H 	H 	0.047	0.1605	0.5932	-0.055
Mof_O 	O 	0.5456	0.6518	0.29323	-0.536
Mof_O 	O 	0.5847	0.5955	0.2044	-0.506
Mof_C 	C 	0.5541	0.6439	0.2303	0.386
Mof_C 	C 	0.5264	0.6984	0.1858	-0.095
Mof_C 	C 	0.5278	0.6966	0.1162	-0.014
Mof_H 	H 	0.547	0.6605	0.0932	-0.01
Mof_O 	O 	0.20677	0.5456	0.3482	-0.534
Mof_O 	O 	0.2956	0.5847	0.4045	-0.505
Mof_C 	C 	0.2697	0.5541	0.3561	0.387
Mof_C 	C 	0.3142	0.5264	0.3016	-0.098
Mof_C 	C 	0.3838	0.5278	0.3034	0.001
Mof_H 	H 	0.4068	0.547	0.3395	-0.002
Mof_O 	O 	0.70677	0.0456	0.8482	-0.511
Mof_O 	O 	0.7956	0.0847	0.9045	-0.451
Mof_C 	C 	0.7697	0.0541	0.8561	0.383
Mof_C 	C 	0.8142	0.0264	0.8016	-0.134
Mof_C 	C 	0.8838	0.0278	0.8034	0.106
Mof_H 	H 	0.9068	0.047	0.8395	-0.015
Mof_O 	O 	0.70677	0.9544	0.6518	-0.472
Mof_O 	O 	0.7956	0.9153	0.5955	-0.483
Mof_C 	C 	0.7697	0.9459	0.6439	0.394
Mof_C 	C 	0.8142	0.9736	0.6984	-0.059
Mof_C 	C 	0.8838	0.9722	0.6966	0.199
Mof_H 	H 	0.9068	0.953	0.6605	-0.022
Mof_O 	O 	0.20677	0.4544	0.1518	-0.534
Mof_O 	O 	0.2956	0.4153	0.0955	-0.495
Mof_C 	C 	0.2697	0.4459	0.1439	0.381
Mof_C 	C 	0.3142	0.4736	0.1984	-0.098
Mof_C 	C 	0.3838	0.4722	0.1966	-0
Mof_H 	H 	0.4068	0.453	0.1605	-0.006
Mof_O 	O 	0.29323	0.4544	0.8482	-0.513
Mof_O 	O 	0.2044	0.4153	0.9045	-0.448
Mof_C 	C 	0.2303	0.4459	0.8561	0.376
Mof_C 	C 	0.1858	0.4736	0.8016	-0.084
Mof_C 	C 	0.1162	0.4722	0.8034	-0.017
Mof_H 	H 	0.0932	0.453	0.8395	0.002
Mof_O 	O 	0.79323	0.9544	0.3482	-0.471
Mof_O 	O 	0.7044	0.9153	0.4045	-0.492
Mof_C 	C 	0.7303	0.9459	0.3561	0.394
Mof_C 	C 	0.6858	0.9736	0.3016	-0.072
Mof_C 	C 	0.6162	0.9722	0.3034	0.201
Mof_H 	H 	0.5932	0.953	0.3395	-0.047
Mof_O 	O 	0.79323	0.0456	0.1518	-0.533
Mof_O 	O 	0.7044	0.0847	0.0955	-0.508
Mof_C 	C 	0.7303	0.0541	0.1439	0.388
Mof_C 	C 	0.6858	0.0264	0.1984	-0.158
Mof_C 	C 	0.6162	0.0278	0.1966	0.108
Mof_H 	H 	0.5932	0.047	0.1605	-0.055
Mof_O 	O 	0.29323	0.5456	0.6518	-0.536
Mof_O 	O 	0.2044	0.5847	0.5955	-0.506
Mof_C 	C 	0.2303	0.5541	0.6439	0.386
Mof_C 	C 	0.1858	0.5264	0.6984	-0.095
Mof_C 	C 	0.1162	0.5278	0.6966	-0.014
Mof_H 	H 	0.0932	0.547	0.6605	-0.01
Mof_O 	O 	0.3482	0.20677	0.5456	-0.534
Mof_O 	O 	0.4045	0.2956	0.5847	-0.505
Mof_C 	C 	0.3561	0.2697	0.5541	0.387
Mof_C 	C 	0.3016	0.3142	0.5264	-0.098
Mof_C 	C 	0.3034	0.3838	0.5278	0.001
Mof_H 	H 	0.3395	0.4068	0.547	-0.002
Mof_O 	O 	0.8482	0.70677	0.0456	-0.511
Mof_O 	O 	0.9045	0.7956	0.0847	-0.451
Mof_C 	C 	0.8561	0.7697	0.0541	0.383
Mof_C 	C 	0.8016	0.8142	0.0264	-0.134
Mof_C 	C 	0.8034	0.8838	0.0278	0.106
Mof_H 	H 	0.8395	0.9068	0.047	-0.015
Mof_O 	O 	0.6518	0.70677	0.9544	-0.472
Mof_O 	O 	0.5955	0.7956	0.9153	-0.483
Mof_C 	C 	0.6439	0.7697	0.9459	0.394
Mof_C 	C 	0.6984	0.8142	0.9736	-0.059
Mof_C 	C 	0.6966	0.8838	0.9722	0.199
Mof_H 	H 	0.6605	0.9068	0.953	-0.022
Mof_O 	O 	0.1518	0.20677	0.4544	-0.534
Mof_O 	O 	0.0955	0.2956	0.4153	-0.495
Mof_C 	C 	0.1439	0.2697	0.4459	0.381
Mof_C 	C 	0.1984	0.3142	0.4736	-0.098
Mof_C 	C 	0.1966	0.3838	0.4722	-0
Mof_H 	H 	0.1605	0.4068	0.453	-0.006
Mof_O 	O 	0.8482	0.29323	0.4544	-0.513
Mof_O 	O 	0.9045	0.2044	0.4153	-0.448
Mof_C 	C 	0.8561	0.2303	0.4459	0.376
Mof_C 	C 	0.8016	0.1858	0.4736	-0.084
Mof_C 	C 	0.8034	0.1162	0.4722	-0.017
Mof_H 	H 	0.8395	0.0932	0.453	0.002
Mof_O 	O 	0.3482	0.79323	0.9544	-0.471
Mof_O 	O 	0.4045	0.7044	0.9153	-0.492
Mof_C 	C 	0.3561	0.7303	0.9459	0.394
Mof_C 	C 	0.3016	0.6858	0.9736	-0.072
Mof_C 	C 	0.3034	0.6162	0.9722	0.201
Mof_H 	H 	0.3395	0.5932	0.953	-0.047
Mof_O 	O 	0.1518	0.79323	0.0456	-0.533
Mof_O 	O 	0.0955	0.7044	0.0847	-0.508
Mof_C 	C 	0.1439	0.7303	0.0541	0.388
Mof_C 	C 	0.1984	0.6858	0.0264	-0.158
Mof_C 	C 	0.1966	0.6162	0.0278	0.108
Mof_H 	H 	0.1605	0.5932	0.047	-0.055
Mof_O 	O 	0.6518	0.29323	0.5456	-0.536
Mof_O 	O 	0.5955	0.2044	0.5847	-0.506
Mof_C 	C 	0.6439	0.2303	0.5541	0.386
Mof_C 	C 	0.6984	0.1858	0.5264	-0.095
Mof_C 	C 	0.6966	0.1162	0.5278	-0.014
Mof_H 	H 	0.6605	0.0932	0.547	-0.01
Mof_Sm	Sm	0.5	0.75	0.84796	1.836
Mof_N 	N 	0.5	0.75	0.721	-0.212
Mof_C 	C 	0.5	0.75	0.5824	-0.077
Mof_H 	H 	0.5	0.75	0.5355	0.017
Mof_Sm	Sm	1.30464e-33	0.25	0.34796	1.573
Mof_N 	N 	-7.88904e-34	0.25	0.221	-0.232
Mof_C 	C 	-1.30857e-33	0.25	0.0824	-0.316
Mof_H 	H 	-3.50632e-33	0.25	0.0355	0.041
Mof_Sm	Sm	0.5	0.25	0.65204	1.781
Mof_N 	N 	0.5	0.25	0.779	-0.207
Mof_C 	C 	0.5	0.25	0.9176	-0.074
Mof_H 	H 	0.5	0.25	0.9645	0.05
Mof_Sm	Sm	-1.04746e-33	0.75	0.15204	1.565
Mof_N 	N 	1.04608e-33	0.75	0.279	-0.232
Mof_C 	C 	8.03584e-33	0.75	0.4176	-0.31
Mof_H 	H 	4.97664e-33	0.75	0.4645	0.073
Mof_Sm	Sm	0.84796	0.5	0.75	1.836
Mof_N 	N 	0.721	0.5	0.75	-0.212
Mof_C 	C 	0.5824	0.5	0.75	-0.077
Mof_H 	H 	0.5355	0.5	0.75	0.017
Mof_Sm	Sm	0.34796	0	0.25	1.573
Mof_N 	N 	0.221	0	0.25	-0.232
Mof_C 	C 	0.0824	0	0.25	-0.316
Mof_H 	H 	0.0355	0	0.25	0.041
Mof_Sm	Sm	0.65204	0.5	0.25	1.781
Mof_N 	N 	0.779	0.5	0.25	-0.207
Mof_C 	C 	0.9176	0.5	0.25	-0.074
Mof_H 	H 	0.9645	0.5	0.25	0.05
Mof_Sm	Sm	0.15204	0	0.75	1.565
Mof_N 	N 	0.279	0	0.75	-0.232
Mof_C 	C 	0.4176	0	0.75	-0.31
Mof_H 	H 	0.4645	0	0.75	0.073
Mof_Sm	Sm	0.75	0.84796	0.5	1.836
Mof_N 	N 	0.75	0.721	0.5	-0.212
Mof_C 	C 	0.75	0.5824	0.5	-0.077
Mof_H 	H 	0.75	0.5355	0.5	0.017
Mof_Sm	Sm	0.25	0.34796	-0	1.573
Mof_N 	N 	0.25	0.221	-0	-0.232
Mof_C 	C 	0.25	0.0824	-0	-0.316
Mof_H 	H 	0.25	0.0355	-0	0.041
Mof_Sm	Sm	0.25	0.65204	0.5	1.781
Mof_N 	N 	0.25	0.779	0.5	-0.207
Mof_C 	C 	0.25	0.9176	0.5	-0.074
Mof_H 	H 	0.25	0.9645	0.5	0.05
Mof_Sm	Sm	0.75	0.15204	-0	1.565
Mof_N 	N 	0.75	0.279	-0	-0.232
Mof_C 	C 	0.75	0.4176	-0	-0.31
Mof_H 	H 	0.75	0.4645	-0	0.073
Mof_Sm	Sm	0.5	0.25	0.15204	1.746
Mof_N 	N 	0.5	0.25	0.279	-0.205
Mof_C 	C 	0.5	0.25	0.4176	-0.088
Mof_H 	H 	0.5	0.25	0.4645	0.017
Mof_Sm	Sm	8.91484e-33	0.75	0.65204	1.597
Mof_N 	N 	9.39087e-33	0.75	0.779	-0.234
Mof_C 	C 	-3.02964e-33	0.75	0.9176	-0.294
Mof_H 	H 	3.6163e-33	0.75	0.9645	0.106
Mof_Sm	Sm	0.5	0.75	0.34796	1.794
Mof_N 	N 	0.5	0.75	0.221	-0.211
Mof_C 	C 	0.5	0.75	0.0824	-0.076
Mof_H 	H 	0.5	0.75	0.0355	-0.017
Mof_Sm	Sm	-9.76083e-33	0.25	0.84796	1.614
Mof_N 	N 	-1.02369e-32	0.25	0.721	-0.233
Mof_C 	C 	2.18365e-33	0.25	0.5824	-0.322
Mof_H 	H 	-4.46228e-33	0.25	0.5355	0.074
Mof_Sm	Sm	0.15204	0.5	0.25	1.746
Mof_N 	N 	0.279	0.5	0.25	-0.205
Mof_C 	C 	0.4176	0.5	0.25	-0.088
Mof_H 	H 	0.4645	0.5	0.25	0.017
Mof_Sm	Sm	0.65204	0	0.75	1.597
Mof_N 	N 	0.779	0	0.75	-0.234
Mof_C 	C 	0.9176	0	0.75	-0.294
Mof_H 	H 	0.9645	0	0.75	0.106
Mof_Sm	Sm	0.34796	0.5	0.75	1.794
Mof_N 	N 	0.221	0.5	0.75	-0.211
Mof_C 	C 	0.0824	0.5	0.75	-0.076
Mof_H 	H 	0.0355	0.5	0.75	-0.017
Mof_Sm	Sm	0.84796	0	0.25	1.614
Mof_N 	N 	0.721	0	0.25	-0.233
Mof_C 	C 	0.5824	0	0.25	-0.322
Mof_H 	H 	0.5355	0	0.25	0.074
Mof_Sm	Sm	0.25	0.15204	0.5	1.746
Mof_N 	N 	0.25	0.279	0.5	-0.205
Mof_C 	C 	0.25	0.4176	0.5	-0.088
Mof_H 	H 	0.25	0.4645	0.5	0.017
Mof_Sm	Sm	0.75	0.65204	-0	1.597
Mof_N 	N 	0.75	0.779	-0	-0.234
Mof_C 	C 	0.75	0.9176	-0	-0.294
Mof_H 	H 	0.75	0.9645	-0	0.106
Mof_Sm	Sm	0.75	0.34796	0.5	1.794
Mof_N 	N 	0.75	0.221	0.5	-0.211
Mof_C 	C 	0.75	0.0824	0.5	-0.076
Mof_H 	H 	0.75	0.0355	0.5	-0.017
Mof_Sm	Sm	0.25	0.84796	-0	1.614
Mof_N 	N 	0.25	0.721	-0	-0.233
Mof_C 	C 	0.25	0.5824	-0	-0.322
Mof_H 	H 	0.25	0.5355	-0	0.074
_end
