# CIF file generated by openbabel 3.1.0, see https://openbabel.org
data_I
_chemical_name_common 'image0'
_cell_length_a 13.6808
_cell_length_b 12.634
_cell_length_c 12.783
_cell_angle_alpha 90
_cell_angle_beta 116.983
_cell_angle_gamma 90
_space_group_name_H-M_alt 'P 1'
_space_group_name_Hall 'P 1'
loop_
    _symmetry_equiv_pos_as_xyz
    x,y,z
loop_
    _atom_site_label
    _atom_site_type_symbol
    _atom_site_fract_x
    _atom_site_fract_y
    _atom_site_fract_z
    _atom_site_occupancy
    F1       F        0.18830    0.09190    0.12680    1.000
    F2       F        0.16710    0.40120    0.13710    1.000
    Fe1      Fe       0.17997    0.24552    0.12799    1.000
    Fe2      Fe       0.69209    0.25117    0.30927    1.000
    Fe3      Fe       0.26008    0.99938    0.04216    1.000
    Fe4      Fe       0.25529    0.49893    0.28870    1.000
    O1       O        0.20120    0.23040    0.29360    1.000
    O2       O        0.16290    0.23800    0.46790    1.000
    O3       O        0.34160    0.25240    0.18790    1.000
    O4       O        0.01990    0.23780    0.07280    1.000
    O5       O        0.31180    0.73330    0.84800    1.000
    O6       O        0.53530    0.22720    0.24030    1.000
    O7       O        0.29760    0.73910    0.03390    1.000
    O8       O        0.85410    0.22990    0.87870    1.000
    F3       F        0.32600    0.90270    0.19240    1.000
    F4       F        0.27510    0.59930    0.17920    1.000
    O9       O        0.32340    0.90950    0.94370    1.000
    O10      O        0.88350    0.08970    0.03600    1.000
    O11      O        0.40540    0.08010    0.13240    1.000
    O12      O        0.40900    0.43260    0.32650    1.000
    O13      O        0.20320    0.40720    0.38730    1.000
    P1       P        0.15290    0.29570    0.35840    1.000
    P2       P        0.34810    0.79200    0.96190    1.000
    P3       P        0.93560    0.16260    0.98110    1.000
    P4       P        0.42260    0.19830    0.15280    1.000
    H1       H        0.04800    0.30800    0.28900    1.000
    H2       H        0.45400    0.78150    0.02200    1.000
    H3       H        0.99000    0.10400    0.94000    1.000
    H4       H        0.40400    0.23400    0.04800    1.000
    H5       H        0.43500    0.41400    0.28300    1.000
    O14      O        0.03000    0.30600    0.26900    1.000
    O15      O        0.46800    0.76700    0.02300    1.000
    O16      O        0.97200    0.10500    0.90300    1.000
    F5       F        0.81170    0.59190    0.37320    1.000
    F6       F        0.83290    0.90120    0.36290    1.000
    Fe5      Fe       0.82003    0.74552    0.37201    1.000
    Fe6      Fe       0.30791    0.75117    0.19073    1.000
    Fe7      Fe       0.73992    0.49938    0.45784    1.000
    Fe8      Fe       0.74471    0.99893    0.21130    1.000
    O17      O        0.79880    0.73040    0.20640    1.000
    O18      O        0.83710    0.73800    0.03210    1.000
    O19      O        0.65840    0.75240    0.31210    1.000
    O20      O        0.98010    0.73780    0.42720    1.000
    O21      O        0.68820    0.23330    0.65200    1.000
    O22      O        0.46470    0.72720    0.25970    1.000
    O23      O        0.70240    0.23910    0.46610    1.000
    O24      O        0.14590    0.72990    0.62130    1.000
    F7       F        0.67400    0.40270    0.30760    1.000
    F8       F        0.72490    0.09930    0.32080    1.000
    O25      O        0.67660    0.40950    0.55630    1.000
    O26      O        0.11650    0.58970    0.46400    1.000
    O27      O        0.59460    0.58010    0.36760    1.000
    O28      O        0.59100    0.93260    0.17350    1.000
    O29      O        0.79680    0.90720    0.11270    1.000
    P5       P        0.84710    0.79570    0.14160    1.000
    P6       P        0.65190    0.29200    0.53810    1.000
    P7       P        0.06440    0.66260    0.51890    1.000
    P8       P        0.57740    0.69830    0.34720    1.000
    H6       H        0.95200    0.80800    0.21100    1.000
    H7       H        0.54600    0.28150    0.47800    1.000
    H8       H        0.01000    0.60400    0.56000    1.000
    H9       H        0.59600    0.73400    0.45200    1.000
    H10      H        0.56500    0.91400    0.21700    1.000
    O30      O        0.97000    0.80600    0.23100    1.000
    O31      O        0.53200    0.26700    0.47700    1.000
    O32      O        0.02800    0.60500    0.59700    1.000
    F9       F        0.81170    0.90810    0.87320    1.000
    F10      F        0.83290    0.59880    0.86290    1.000
    Fe9      Fe       0.82003    0.75448    0.87201    1.000
    Fe10     Fe       0.30791    0.74883    0.69073    1.000
    Fe11     Fe       0.73992    0.00062    0.95784    1.000
    Fe12     Fe       0.74471    0.50107    0.71130    1.000
    O33      O        0.79880    0.76960    0.70640    1.000
    O34      O        0.83710    0.76200    0.53210    1.000
    O35      O        0.65840    0.74760    0.81210    1.000
    O36      O        0.98010    0.76220    0.92720    1.000
    O37      O        0.68820    0.26670    0.15200    1.000
    O38      O        0.46470    0.77280    0.75970    1.000
    O39      O        0.70240    0.26090    0.96610    1.000
    O40      O        0.14590    0.77010    0.12130    1.000
    F11      F        0.67400    0.09730    0.80760    1.000
    F12      F        0.72490    0.40070    0.82080    1.000
    O41      O        0.67660    0.09050    0.05630    1.000
    O42      O        0.11650    0.91030    0.96400    1.000
    O43      O        0.59460    0.91990    0.86760    1.000
    O44      O        0.59100    0.56740    0.67350    1.000
    O45      O        0.79680    0.59280    0.61270    1.000
    P9       P        0.84710    0.70430    0.64160    1.000
    P10      P        0.65190    0.20800    0.03810    1.000
    P11      P        0.06440    0.83740    0.01890    1.000
    P12      P        0.57740    0.80170    0.84720    1.000
    H11      H        0.95200    0.69200    0.71100    1.000
    H12      H        0.54600    0.21850    0.97800    1.000
    H13      H        0.01000    0.89600    0.06000    1.000
    H14      H        0.59600    0.76600    0.95200    1.000
    H15      H        0.56500    0.58600    0.71700    1.000
    O46      O        0.97000    0.69400    0.73100    1.000
    O47      O        0.53200    0.23300    0.97700    1.000
    O48      O        0.02800    0.89500    0.09700    1.000
    F13      F        0.18830    0.40810    0.62680    1.000
    F14      F        0.16710    0.09880    0.63710    1.000
    Fe13     Fe       0.17997    0.25448    0.62799    1.000
    Fe14     Fe       0.69209    0.24883    0.80927    1.000
    Fe15     Fe       0.26008    0.50062    0.54216    1.000
    Fe16     Fe       0.25529    0.00107    0.78870    1.000
    O49      O        0.20120    0.26960    0.79360    1.000
    O50      O        0.16290    0.26200    0.96790    1.000
    O51      O        0.34160    0.24760    0.68790    1.000
    O52      O        0.01990    0.26220    0.57280    1.000
    O53      O        0.31180    0.76670    0.34800    1.000
    O54      O        0.53530    0.27280    0.74030    1.000
    O55      O        0.29760    0.76090    0.53390    1.000
    O56      O        0.85410    0.27010    0.37870    1.000
    F15      F        0.32600    0.59730    0.69240    1.000
    F16      F        0.27510    0.90070    0.67920    1.000
    O57      O        0.32340    0.59050    0.44370    1.000
    O58      O        0.88350    0.41030    0.53600    1.000
    O59      O        0.40540    0.41990    0.63240    1.000
    O60      O        0.40900    0.06740    0.82650    1.000
    O61      O        0.20320    0.09280    0.88730    1.000
    P13      P        0.15290    0.20430    0.85840    1.000
    P14      P        0.34810    0.70800    0.46190    1.000
    P15      P        0.93560    0.33740    0.48110    1.000
    P16      P        0.42260    0.30170    0.65280    1.000
    H16      H        0.04800    0.19200    0.78900    1.000
    H17      H        0.45400    0.71850    0.52200    1.000
    H18      H        0.99000    0.39600    0.44000    1.000
    H19      H        0.40400    0.26600    0.54800    1.000
    H20      H        0.43500    0.08600    0.78300    1.000
    O62      O        0.03000    0.19400    0.76900    1.000
    O63      O        0.46800    0.73300    0.52300    1.000
    O64      O        0.97200    0.39500    0.40300    1.000
