data_functionalizedCrystal
_audit_creation_method	'EQeq! by Chris Wilmer'
_symmetry_space_group_name_H-M	'P1'
_symmetry_Int_Tables_number	1
_symmetry_cell_setting	triclinic
loop_
_symmetry_equiv_pos_as_xyz
  x,y,z
_cell_length_a	25.5824
_cell_length_b	25.5824
_cell_length_c	25.5824
_cell_angle_alpha	90
_cell_angle_beta	90
_cell_angle_gamma	90
loop_
_atom_site_label
_atom_site_type_symbol
_atom_site_fract_x
_atom_site_fract_y
_atom_site_fract_z
_atom_site_charge
Mof_N 	N 	0.8027	0.8629	0.5596	-0.245
Mof_N 	N 	0.781	0.938	0.6092	-0.123
Mof_N 	N 	0.7453	0.9524	0.5711	-0.182
Mof_C 	C 	0.8242	0.8144	0.5639	0.194
Mof_H 	H 	0.8179	0.7917	0.5361	-0.056
Mof_C 	C 	0.8519	0.7962	0.6011	-0.317
Mof_H 	H 	0.8697	0.7646	0.5983	0.134
Mof_C 	C 	0.8539	0.8252	0.6443	0.214
Mof_H 	H 	0.8703	0.8111	0.6735	-0.059
Mof_C 	C 	0.8337	0.8733	0.6487	-0.265
Mof_H 	H 	0.837	0.8934	0.6789	0.116
Mof_C 	C 	0.8063	0.8915	0.6026	0.182
Mof_C 	C 	0.7283	0.0012	0.5723	0.269
Mof_C 	C 	0.7507	0.0411	0.6094	-0.759
Mof_H 	H 	0.7787	0.0256	0.629	0.254
Mof_H 	H 	0.7239	0.0527	0.6329	0.25
Mof_H 	H 	0.7638	0.0703	0.5899	0.248
Mof_C 	C 	0.6868	0.0173	0.5404	-0.175
Mof_C 	C 	0.6774	0.0706	0.5213	0.09
Mof_H 	H 	0.7004	0.097	0.5312	-0.018
Mof_C 	C 	0.636	0.0833	0.4892	-0.225
Mof_H 	H 	0.6295	0.1178	0.4799	0.099
Mof_C 	C 	0.6068	0.0467	0.4727	0.155
Mof_C 	C 	0.6075	0.9901	0.4834	-0.175
Mof_H 	H 	0.5839	0.9659	0.4701	0.096
Mof_C 	C 	0.6494	0.9786	0.5166	0.079
Mof_H 	H 	0.6546	0.9436	0.5248	-0.022
Mof_N 	N 	0.3027	0.3629	0.0596	-0.245
Mof_N 	N 	0.281	0.438	0.1092	-0.126
Mof_N 	N 	0.2453	0.4524	0.0711	-0.187
Mof_C 	C 	0.3242	0.3144	0.0639	0.19
Mof_H 	H 	0.3179	0.2917	0.0361	-0.059
Mof_C 	C 	0.3519	0.2962	0.1011	-0.317
Mof_H 	H 	0.3697	0.2646	0.0983	0.129
Mof_C 	C 	0.3539	0.3252	0.1443	0.211
Mof_H 	H 	0.3703	0.3111	0.1735	-0.06
Mof_C 	C 	0.3337	0.3733	0.1487	-0.266
Mof_H 	H 	0.337	0.3934	0.1789	0.113
Mof_C 	C 	0.3063	0.3915	0.1026	0.179
Mof_C 	C 	0.2283	0.5012	0.0723	0.268
Mof_C 	C 	0.2507	0.5411	0.1094	-0.761
Mof_H 	H 	0.2787	0.5256	0.129	0.256
Mof_H 	H 	0.2239	0.5527	0.1329	0.249
Mof_H 	H 	0.2638	0.5703	0.0899	0.246
Mof_C 	C 	0.1868	0.5173	0.0404	-0.155
Mof_C 	C 	0.1774	0.5706	0.0213	0.059
Mof_H 	H 	0.2004	0.597	0.0312	-0.01
Mof_C 	C 	0.136	0.5833	0.9892	-0.195
Mof_H 	H 	0.1295	0.6178	0.9799	0.091
Mof_C 	C 	0.1068	0.5467	0.9727	0.148
Mof_C 	C 	0.1075	0.4901	0.9834	-0.156
Mof_H 	H 	0.0839	0.4659	0.9701	0.087
Mof_C 	C 	0.1494	0.4786	0.0166	0.043
Mof_H 	H 	0.1546	0.4436	0.0248	-0.014
Mof_N 	N 	0.6973	0.1371	0.0596	-0.245
Mof_N 	N 	0.719	0.062	0.1092	-0.128
Mof_N 	N 	0.7547	0.0476	0.0711	-0.193
Mof_C 	C 	0.6758	0.1856	0.0639	0.19
Mof_H 	H 	0.6821	0.2083	0.0361	-0.058
Mof_C 	C 	0.6481	0.2038	0.1011	-0.316
Mof_H 	H 	0.6303	0.2354	0.0983	0.13
Mof_C 	C 	0.6461	0.1748	0.1443	0.21
Mof_H 	H 	0.6297	0.1889	0.1735	-0.06
Mof_C 	C 	0.6663	0.1267	0.1487	-0.266
Mof_H 	H 	0.663	0.1066	0.1789	0.112
Mof_C 	C 	0.6937	0.1085	0.1026	0.178
Mof_C 	C 	0.7717	0.9988	0.0723	0.28
Mof_C 	C 	0.7493	0.9589	0.1094	-0.776
Mof_H 	H 	0.7213	0.9744	0.129	0.263
Mof_H 	H 	0.7761	0.9473	0.1329	0.255
Mof_H 	H 	0.7362	0.9297	0.0899	0.251
Mof_C 	C 	0.8132	0.9827	0.0404	-0.152
Mof_C 	C 	0.8226	0.9294	0.0213	0.065
Mof_H 	H 	0.7996	0.903	0.0312	-0.012
Mof_C 	C 	0.864	0.9167	0.9892	-0.203
Mof_H 	H 	0.8705	0.8822	0.9799	0.094
Mof_C 	C 	0.8932	0.9533	0.9727	0.16
Mof_C 	C 	0.8925	0.0099	0.9834	-0.167
Mof_H 	H 	0.9161	0.0341	0.9701	0.091
Mof_C 	C 	0.8506	0.0214	0.0166	0.039
Mof_H 	H 	0.8454	0.0564	0.0248	-0.013
Mof_N 	N 	0.1973	0.6371	0.5596	-0.246
Mof_N 	N 	0.219	0.562	0.6092	-0.126
Mof_N 	N 	0.2547	0.5476	0.5711	-0.189
Mof_C 	C 	0.1758	0.6856	0.5639	0.192
Mof_H 	H 	0.1821	0.7083	0.5361	-0.057
Mof_C 	C 	0.1481	0.7038	0.6011	-0.317
Mof_H 	H 	0.1303	0.7354	0.5983	0.13
Mof_C 	C 	0.1461	0.6748	0.6443	0.212
Mof_H 	H 	0.1297	0.6889	0.6735	-0.06
Mof_C 	C 	0.1663	0.6267	0.6487	-0.266
Mof_H 	H 	0.163	0.6066	0.6789	0.114
Mof_C 	C 	0.1937	0.6085	0.6026	0.18
Mof_C 	C 	0.2717	0.4988	0.5723	0.279
Mof_C 	C 	0.2493	0.4589	0.6094	-0.774
Mof_H 	H 	0.2213	0.4744	0.629	0.26
Mof_H 	H 	0.2761	0.4473	0.6329	0.254
Mof_H 	H 	0.2362	0.4297	0.5899	0.251
Mof_C 	C 	0.3132	0.4827	0.5404	-0.172
Mof_C 	C 	0.3226	0.4294	0.5213	0.093
Mof_H 	H 	0.2996	0.403	0.5312	-0.02
Mof_C 	C 	0.364	0.4167	0.4892	-0.232
Mof_H 	H 	0.3705	0.3822	0.4799	0.101
Mof_C 	C 	0.3932	0.4533	0.4727	0.167
Mof_C 	C 	0.3925	0.5099	0.4834	-0.187
Mof_H 	H 	0.4161	0.5341	0.4701	0.097
Mof_C 	C 	0.3506	0.5214	0.5166	0.073
Mof_H 	H 	0.3454	0.5564	0.5248	-0.021
Mof_N 	N 	0.1973	0.3629	0.9404	-0.242
Mof_N 	N 	0.219	0.438	0.8908	-0.125
Mof_N 	N 	0.2547	0.4524	0.9289	-0.187
Mof_C 	C 	0.1758	0.3144	0.9361	0.191
Mof_H 	H 	0.1821	0.2917	0.9639	-0.055
Mof_C 	C 	0.1481	0.2962	0.8989	-0.316
Mof_H 	H 	0.1303	0.2646	0.9017	0.13
Mof_C 	C 	0.1461	0.3252	0.8557	0.211
Mof_H 	H 	0.1297	0.3111	0.8265	-0.06
Mof_C 	C 	0.1663	0.3733	0.8513	-0.266
Mof_H 	H 	0.163	0.3934	0.8211	0.114
Mof_C 	C 	0.1937	0.3915	0.8974	0.181
Mof_C 	C 	0.2717	0.5012	0.9277	0.289
Mof_C 	C 	0.2493	0.5411	0.8906	-0.785
Mof_H 	H 	0.2213	0.5256	0.871	0.264
Mof_H 	H 	0.2761	0.5527	0.8671	0.257
Mof_H 	H 	0.2362	0.5703	0.9101	0.256
Mof_C 	C 	0.3132	0.5173	0.9596	-0.188
Mof_C 	C 	0.3226	0.5706	0.9787	0.126
Mof_H 	H 	0.2996	0.597	0.9688	-0.028
Mof_C 	C 	0.364	0.5833	0.0108	-0.269
Mof_H 	H 	0.3705	0.6178	0.0201	0.112
Mof_C 	C 	0.3932	0.5467	0.0273	0.185
Mof_C 	C 	0.3925	0.4901	0.0166	-0.216
Mof_H 	H 	0.4161	0.4659	0.0299	0.106
Mof_C 	C 	0.3506	0.4786	0.9834	0.102
Mof_H 	H 	0.3454	0.4436	0.9752	-0.027
Mof_N 	N 	0.6973	0.8629	0.4404	-0.246
Mof_N 	N 	0.719	0.938	0.3908	-0.124
Mof_N 	N 	0.7547	0.9524	0.4289	-0.183
Mof_C 	C 	0.6758	0.8144	0.4361	0.193
Mof_H 	H 	0.6821	0.7917	0.4639	-0.057
Mof_C 	C 	0.6481	0.7962	0.3989	-0.318
Mof_H 	H 	0.6303	0.7646	0.4017	0.131
Mof_C 	C 	0.6461	0.8252	0.3557	0.213
Mof_H 	H 	0.6297	0.8111	0.3265	-0.06
Mof_C 	C 	0.6663	0.8733	0.3513	-0.266
Mof_H 	H 	0.663	0.8934	0.3211	0.115
Mof_C 	C 	0.6937	0.8915	0.3974	0.181
Mof_C 	C 	0.7717	0.0012	0.4277	0.268
Mof_C 	C 	0.7493	0.0411	0.3906	-0.761
Mof_H 	H 	0.7213	0.0256	0.371	0.253
Mof_H 	H 	0.7761	0.0527	0.3671	0.249
Mof_H 	H 	0.7362	0.0703	0.4101	0.247
Mof_C 	C 	0.8132	0.0173	0.4596	-0.175
Mof_C 	C 	0.8226	0.0706	0.4787	0.089
Mof_H 	H 	0.7996	0.097	0.4688	-0.018
Mof_C 	C 	0.864	0.0833	0.5108	-0.225
Mof_H 	H 	0.8705	0.1178	0.5201	0.099
Mof_C 	C 	0.8932	0.0467	0.5273	0.156
Mof_C 	C 	0.8925	0.9901	0.5166	-0.175
Mof_H 	H 	0.9161	0.9659	0.5299	0.097
Mof_C 	C 	0.8506	0.9786	0.4834	0.08
Mof_H 	H 	0.8454	0.9436	0.4752	-0.021
Mof_N 	N 	0.3027	0.6371	0.4404	-0.246
Mof_N 	N 	0.281	0.562	0.3908	-0.126
Mof_N 	N 	0.2453	0.5476	0.4289	-0.189
Mof_C 	C 	0.3242	0.6856	0.4361	0.192
Mof_H 	H 	0.3179	0.7083	0.4639	-0.057
Mof_C 	C 	0.3519	0.7038	0.3989	-0.317
Mof_H 	H 	0.3697	0.7354	0.4017	0.131
Mof_C 	C 	0.3539	0.6748	0.3557	0.212
Mof_H 	H 	0.3703	0.6889	0.3265	-0.06
Mof_C 	C 	0.3337	0.6267	0.3513	-0.266
Mof_H 	H 	0.337	0.6066	0.3211	0.114
Mof_C 	C 	0.3063	0.6085	0.3974	0.18
Mof_C 	C 	0.2283	0.4988	0.4277	0.278
Mof_C 	C 	0.2507	0.4589	0.3906	-0.773
Mof_H 	H 	0.2787	0.4744	0.371	0.26
Mof_H 	H 	0.2239	0.4473	0.3671	0.253
Mof_H 	H 	0.2638	0.4297	0.4101	0.251
Mof_C 	C 	0.1868	0.4827	0.4596	-0.172
Mof_C 	C 	0.1774	0.4294	0.4787	0.093
Mof_H 	H 	0.2004	0.403	0.4688	-0.02
Mof_C 	C 	0.136	0.4167	0.5108	-0.233
Mof_H 	H 	0.1295	0.3822	0.5201	0.101
Mof_C 	C 	0.1068	0.4533	0.5273	0.166
Mof_C 	C 	0.1075	0.5099	0.5166	-0.187
Mof_H 	H 	0.0839	0.5341	0.5299	0.096
Mof_C 	C 	0.1494	0.5214	0.4834	0.073
Mof_H 	H 	0.1546	0.5564	0.4752	-0.022
Mof_N 	N 	0.8027	0.1371	0.9404	-0.242
Mof_N 	N 	0.781	0.062	0.8908	-0.127
Mof_N 	N 	0.7453	0.0476	0.9289	-0.193
Mof_C 	C 	0.8242	0.1856	0.9361	0.192
Mof_H 	H 	0.8179	0.2083	0.9639	-0.053
Mof_C 	C 	0.8519	0.2038	0.8989	-0.316
Mof_H 	H 	0.8697	0.2354	0.9017	0.133
Mof_C 	C 	0.8539	0.1748	0.8557	0.212
Mof_H 	H 	0.8703	0.1889	0.8265	-0.059
Mof_C 	C 	0.8337	0.1267	0.8513	-0.266
Mof_H 	H 	0.837	0.1066	0.8211	0.113
Mof_C 	C 	0.8063	0.1085	0.8974	0.18
Mof_C 	C 	0.7283	0.9988	0.9277	0.3
Mof_C 	C 	0.7507	0.9589	0.8906	-0.797
Mof_H 	H 	0.7787	0.9744	0.871	0.27
Mof_H 	H 	0.7239	0.9473	0.8671	0.262
Mof_H 	H 	0.7638	0.9297	0.9101	0.26
Mof_C 	C 	0.6868	0.9827	0.9596	-0.185
Mof_C 	C 	0.6774	0.9294	0.9787	0.129
Mof_H 	H 	0.7004	0.903	0.9688	-0.03
Mof_C 	C 	0.636	0.9167	0.0108	-0.275
Mof_H 	H 	0.6295	0.8822	0.0201	0.114
Mof_C 	C 	0.6068	0.9533	0.0273	0.196
Mof_C 	C 	0.6075	0.0099	0.0166	-0.228
Mof_H 	H 	0.5839	0.0341	0.0299	0.107
Mof_C 	C 	0.6494	0.0214	0.9834	0.096
Mof_H 	H 	0.6546	0.0564	0.9752	-0.026
Mof_N 	N 	0.5596	0.8027	0.8629	-0.246
Mof_N 	N 	0.6092	0.781	0.938	-0.124
Mof_N 	N 	0.5711	0.7453	0.9524	-0.183
Mof_C 	C 	0.5639	0.8242	0.8144	0.193
Mof_H 	H 	0.5361	0.8179	0.7917	-0.057
Mof_C 	C 	0.6011	0.8519	0.7962	-0.318
Mof_H 	H 	0.5983	0.8697	0.7646	0.133
Mof_C 	C 	0.6443	0.8539	0.8252	0.213
Mof_H 	H 	0.6735	0.8703	0.8111	-0.06
Mof_C 	C 	0.6487	0.8337	0.8733	-0.266
Mof_H 	H 	0.6789	0.837	0.8934	0.115
Mof_C 	C 	0.6026	0.8063	0.8915	0.181
Mof_C 	C 	0.5723	0.7283	0.0012	0.268
Mof_C 	C 	0.6094	0.7507	0.0411	-0.76
Mof_H 	H 	0.629	0.7787	0.0256	0.253
Mof_H 	H 	0.6329	0.7239	0.0527	0.249
Mof_H 	H 	0.5899	0.7638	0.0703	0.247
Mof_C 	C 	0.5404	0.6868	0.0173	-0.176
Mof_C 	C 	0.5213	0.6774	0.0706	0.089
Mof_H 	H 	0.5312	0.7004	0.097	-0.018
Mof_C 	C 	0.4892	0.636	0.0833	-0.225
Mof_H 	H 	0.4799	0.6295	0.1178	0.099
Mof_C 	C 	0.4727	0.6068	0.0467	0.155
Mof_C 	C 	0.4834	0.6075	0.9901	-0.175
Mof_H 	H 	0.4701	0.5839	0.9659	0.096
Mof_C 	C 	0.5166	0.6494	0.9786	0.079
Mof_H 	H 	0.5248	0.6546	0.9436	-0.022
Mof_N 	N 	0.0596	0.3027	0.3629	-0.245
Mof_N 	N 	0.1092	0.281	0.438	-0.126
Mof_N 	N 	0.0711	0.2453	0.4524	-0.187
Mof_C 	C 	0.0639	0.3242	0.3144	0.19
Mof_H 	H 	0.0361	0.3179	0.2917	-0.059
Mof_C 	C 	0.1011	0.3519	0.2962	-0.317
Mof_H 	H 	0.0983	0.3697	0.2646	0.129
Mof_C 	C 	0.1443	0.3539	0.3252	0.211
Mof_H 	H 	0.1735	0.3703	0.3111	-0.06
Mof_C 	C 	0.1487	0.3337	0.3733	-0.266
Mof_H 	H 	0.1789	0.337	0.3934	0.113
Mof_C 	C 	0.1026	0.3063	0.3915	0.179
Mof_C 	C 	0.0723	0.2283	0.5012	0.268
Mof_C 	C 	0.1094	0.2507	0.5411	-0.761
Mof_H 	H 	0.129	0.2787	0.5256	0.256
Mof_H 	H 	0.1329	0.2239	0.5527	0.249
Mof_H 	H 	0.0899	0.2638	0.5703	0.246
Mof_C 	C 	0.0404	0.1868	0.5173	-0.155
Mof_C 	C 	0.0213	0.1774	0.5706	0.059
Mof_H 	H 	0.0312	0.2004	0.597	-0.01
Mof_C 	C 	0.9892	0.136	0.5833	-0.195
Mof_H 	H 	0.9799	0.1295	0.6178	0.091
Mof_C 	C 	0.9727	0.1068	0.5467	0.148
Mof_C 	C 	0.9834	0.1075	0.4901	-0.156
Mof_H 	H 	0.9701	0.0839	0.4659	0.087
Mof_C 	C 	0.0166	0.1494	0.4786	0.043
Mof_H 	H 	0.0248	0.1546	0.4436	-0.014
Mof_N 	N 	0.0596	0.6973	0.1371	-0.245
Mof_N 	N 	0.1092	0.719	0.062	-0.128
Mof_N 	N 	0.0711	0.7547	0.0476	-0.193
Mof_C 	C 	0.0639	0.6758	0.1856	0.19
Mof_H 	H 	0.0361	0.6821	0.2083	-0.058
Mof_C 	C 	0.1011	0.6481	0.2038	-0.316
Mof_H 	H 	0.0983	0.6303	0.2354	0.13
Mof_C 	C 	0.1443	0.6461	0.1748	0.21
Mof_H 	H 	0.1735	0.6297	0.1889	-0.06
Mof_C 	C 	0.1487	0.6663	0.1267	-0.266
Mof_H 	H 	0.1789	0.663	0.1066	0.112
Mof_C 	C 	0.1026	0.6937	0.1085	0.178
Mof_C 	C 	0.0723	0.7717	0.9988	0.28
Mof_C 	C 	0.1094	0.7493	0.9589	-0.776
Mof_H 	H 	0.129	0.7213	0.9744	0.263
Mof_H 	H 	0.1329	0.7761	0.9473	0.255
Mof_H 	H 	0.0899	0.7362	0.9297	0.251
Mof_C 	C 	0.0404	0.8132	0.9827	-0.152
Mof_C 	C 	0.0213	0.8226	0.9294	0.065
Mof_H 	H 	0.0312	0.7996	0.903	-0.012
Mof_C 	C 	0.9892	0.864	0.9167	-0.203
Mof_H 	H 	0.9799	0.8705	0.8822	0.094
Mof_C 	C 	0.9727	0.8932	0.9533	0.16
Mof_C 	C 	0.9834	0.8925	0.0099	-0.167
Mof_H 	H 	0.9701	0.9161	0.0341	0.091
Mof_C 	C 	0.0166	0.8506	0.0214	0.039
Mof_H 	H 	0.0248	0.8454	0.0564	-0.013
Mof_N 	N 	0.5596	0.1973	0.6371	-0.246
Mof_N 	N 	0.6092	0.219	0.562	-0.126
Mof_N 	N 	0.5711	0.2547	0.5476	-0.189
Mof_C 	C 	0.5639	0.1758	0.6856	0.192
Mof_H 	H 	0.5361	0.1821	0.7083	-0.057
Mof_C 	C 	0.6011	0.1481	0.7038	-0.317
Mof_H 	H 	0.5983	0.1303	0.7354	0.13
Mof_C 	C 	0.6443	0.1461	0.6748	0.212
Mof_H 	H 	0.6735	0.1297	0.6889	-0.06
Mof_C 	C 	0.6487	0.1663	0.6267	-0.266
Mof_H 	H 	0.6789	0.163	0.6066	0.114
Mof_C 	C 	0.6026	0.1937	0.6085	0.18
Mof_C 	C 	0.5723	0.2717	0.4988	0.279
Mof_C 	C 	0.6094	0.2493	0.4589	-0.774
Mof_H 	H 	0.629	0.2213	0.4744	0.26
Mof_H 	H 	0.6329	0.2761	0.4473	0.254
Mof_H 	H 	0.5899	0.2362	0.4297	0.251
Mof_C 	C 	0.5404	0.3132	0.4827	-0.172
Mof_C 	C 	0.5213	0.3226	0.4294	0.093
Mof_H 	H 	0.5312	0.2996	0.403	-0.02
Mof_C 	C 	0.4892	0.364	0.4167	-0.232
Mof_H 	H 	0.4799	0.3705	0.3822	0.101
Mof_C 	C 	0.4727	0.3932	0.4533	0.167
Mof_C 	C 	0.4834	0.3925	0.5099	-0.187
Mof_H 	H 	0.4701	0.4161	0.5341	0.097
Mof_C 	C 	0.5166	0.3506	0.5214	0.073
Mof_H 	H 	0.5248	0.3454	0.5564	-0.021
Mof_N 	N 	0.9404	0.1973	0.3629	-0.242
Mof_N 	N 	0.8908	0.219	0.438	-0.125
Mof_N 	N 	0.9289	0.2547	0.4524	-0.187
Mof_C 	C 	0.9361	0.1758	0.3144	0.191
Mof_H 	H 	0.9639	0.1821	0.2917	-0.055
Mof_C 	C 	0.8989	0.1481	0.2962	-0.316
Mof_H 	H 	0.9017	0.1303	0.2646	0.13
Mof_C 	C 	0.8557	0.1461	0.3252	0.211
Mof_H 	H 	0.8265	0.1297	0.3111	-0.06
Mof_C 	C 	0.8513	0.1663	0.3733	-0.266
Mof_H 	H 	0.8211	0.163	0.3934	0.114
Mof_C 	C 	0.8974	0.1937	0.3915	0.181
Mof_C 	C 	0.9277	0.2717	0.5012	0.289
Mof_C 	C 	0.8906	0.2493	0.5411	-0.785
Mof_H 	H 	0.871	0.2213	0.5256	0.264
Mof_H 	H 	0.8671	0.2761	0.5527	0.257
Mof_H 	H 	0.9101	0.2362	0.5703	0.256
Mof_C 	C 	0.9596	0.3132	0.5173	-0.188
Mof_C 	C 	0.9787	0.3226	0.5706	0.126
Mof_H 	H 	0.9688	0.2996	0.597	-0.028
Mof_C 	C 	0.0108	0.364	0.5833	-0.269
Mof_H 	H 	0.0201	0.3705	0.6178	0.112
Mof_C 	C 	0.0273	0.3932	0.5467	0.185
Mof_C 	C 	0.0166	0.3925	0.4901	-0.216
Mof_H 	H 	0.0299	0.4161	0.4659	0.106
Mof_C 	C 	0.9834	0.3506	0.4786	0.102
Mof_H 	H 	0.9752	0.3454	0.4436	-0.027
Mof_N 	N 	0.4404	0.6973	0.8629	-0.246
Mof_N 	N 	0.3908	0.719	0.938	-0.124
Mof_N 	N 	0.4289	0.7547	0.9524	-0.183
Mof_C 	C 	0.4361	0.6758	0.8144	0.193
Mof_H 	H 	0.4639	0.6821	0.7917	-0.057
Mof_C 	C 	0.3989	0.6481	0.7962	-0.318
Mof_H 	H 	0.4017	0.6303	0.7646	0.131
Mof_C 	C 	0.3557	0.6461	0.8252	0.213
Mof_H 	H 	0.3265	0.6297	0.8111	-0.06
Mof_C 	C 	0.3513	0.6663	0.8733	-0.266
Mof_H 	H 	0.3211	0.663	0.8934	0.115
Mof_C 	C 	0.3974	0.6937	0.8915	0.181
Mof_C 	C 	0.4277	0.7717	0.0012	0.268
Mof_C 	C 	0.3906	0.7493	0.0411	-0.761
Mof_H 	H 	0.371	0.7213	0.0256	0.253
Mof_H 	H 	0.3671	0.7761	0.0527	0.249
Mof_H 	H 	0.4101	0.7362	0.0703	0.247
Mof_C 	C 	0.4596	0.8132	0.0173	-0.175
Mof_C 	C 	0.4787	0.8226	0.0706	0.089
Mof_H 	H 	0.4688	0.7996	0.097	-0.018
Mof_C 	C 	0.5108	0.864	0.0833	-0.225
Mof_H 	H 	0.5201	0.8705	0.1178	0.099
Mof_C 	C 	0.5273	0.8932	0.0467	0.156
Mof_C 	C 	0.5166	0.8925	0.9901	-0.175
Mof_H 	H 	0.5299	0.9161	0.9659	0.097
Mof_C 	C 	0.4834	0.8506	0.9786	0.08
Mof_H 	H 	0.4752	0.8454	0.9436	-0.021
Mof_N 	N 	0.4404	0.3027	0.6371	-0.246
Mof_N 	N 	0.3908	0.281	0.562	-0.126
Mof_N 	N 	0.4289	0.2453	0.5476	-0.189
Mof_C 	C 	0.4361	0.3242	0.6856	0.192
Mof_H 	H 	0.4639	0.3179	0.7083	-0.057
Mof_C 	C 	0.3989	0.3519	0.7038	-0.317
Mof_H 	H 	0.4017	0.3697	0.7354	0.131
Mof_C 	C 	0.3557	0.3539	0.6748	0.212
Mof_H 	H 	0.3265	0.3703	0.6889	-0.06
Mof_C 	C 	0.3513	0.3337	0.6267	-0.266
Mof_H 	H 	0.3211	0.337	0.6066	0.114
Mof_C 	C 	0.3974	0.3063	0.6085	0.18
Mof_C 	C 	0.4277	0.2283	0.4988	0.278
Mof_C 	C 	0.3906	0.2507	0.4589	-0.773
Mof_H 	H 	0.371	0.2787	0.4744	0.26
Mof_H 	H 	0.3671	0.2239	0.4473	0.253
Mof_H 	H 	0.4101	0.2638	0.4297	0.251
Mof_C 	C 	0.4596	0.1868	0.4827	-0.172
Mof_C 	C 	0.4787	0.1774	0.4294	0.093
Mof_H 	H 	0.4688	0.2004	0.403	-0.02
Mof_C 	C 	0.5108	0.136	0.4167	-0.233
Mof_H 	H 	0.5201	0.1295	0.3822	0.101
Mof_C 	C 	0.5273	0.1068	0.4533	0.166
Mof_C 	C 	0.5166	0.1075	0.5099	-0.187
Mof_H 	H 	0.5299	0.0839	0.5341	0.096
Mof_C 	C 	0.4834	0.1494	0.5214	0.073
Mof_H 	H 	0.4752	0.1546	0.5564	-0.022
Mof_N 	N 	0.9404	0.8027	0.1371	-0.242
Mof_N 	N 	0.8908	0.781	0.062	-0.127
Mof_N 	N 	0.9289	0.7453	0.0476	-0.193
Mof_C 	C 	0.9361	0.8242	0.1856	0.192
Mof_H 	H 	0.9639	0.8179	0.2083	-0.053
Mof_C 	C 	0.8989	0.8519	0.2038	-0.316
Mof_H 	H 	0.9017	0.8697	0.2354	0.133
Mof_C 	C 	0.8557	0.8539	0.1748	0.212
Mof_H 	H 	0.8265	0.8703	0.1889	-0.059
Mof_C 	C 	0.8513	0.8337	0.1267	-0.266
Mof_H 	H 	0.8211	0.837	0.1066	0.113
Mof_C 	C 	0.8974	0.8063	0.1085	0.18
Mof_C 	C 	0.9277	0.7283	0.9988	0.3
Mof_C 	C 	0.8906	0.7507	0.9589	-0.797
Mof_H 	H 	0.871	0.7787	0.9744	0.27
Mof_H 	H 	0.8671	0.7239	0.9473	0.262
Mof_H 	H 	0.9101	0.7638	0.9297	0.26
Mof_C 	C 	0.9596	0.6868	0.9827	-0.185
Mof_C 	C 	0.9787	0.6774	0.9294	0.129
Mof_H 	H 	0.9688	0.7004	0.903	-0.03
Mof_C 	C 	0.0108	0.636	0.9167	-0.275
Mof_H 	H 	0.0201	0.6295	0.8822	0.114
Mof_C 	C 	0.0273	0.6068	0.9533	0.196
Mof_C 	C 	0.0166	0.6075	0.0099	-0.228
Mof_H 	H 	0.0299	0.5839	0.0341	0.107
Mof_C 	C 	0.9834	0.6494	0.0214	0.096
Mof_H 	H 	0.9752	0.6546	0.0564	-0.026
Mof_N 	N 	0.8629	0.5596	0.8027	-0.246
Mof_N 	N 	0.938	0.6092	0.781	-0.124
Mof_N 	N 	0.9524	0.5711	0.7453	-0.183
Mof_C 	C 	0.8144	0.5639	0.8242	0.193
Mof_H 	H 	0.7917	0.5361	0.8179	-0.057
Mof_C 	C 	0.7962	0.6011	0.8519	-0.318
Mof_H 	H 	0.7646	0.5983	0.8697	0.133
Mof_C 	C 	0.8252	0.6443	0.8539	0.213
Mof_H 	H 	0.8111	0.6735	0.8703	-0.06
Mof_C 	C 	0.8733	0.6487	0.8337	-0.266
Mof_H 	H 	0.8934	0.6789	0.837	0.115
Mof_C 	C 	0.8915	0.6026	0.8063	0.181
Mof_C 	C 	0.0012	0.5723	0.7283	0.268
Mof_C 	C 	0.0411	0.6094	0.7507	-0.76
Mof_H 	H 	0.0256	0.629	0.7787	0.253
Mof_H 	H 	0.0527	0.6329	0.7239	0.249
Mof_H 	H 	0.0703	0.5899	0.7638	0.247
Mof_C 	C 	0.0173	0.5404	0.6868	-0.176
Mof_C 	C 	0.0706	0.5213	0.6774	0.089
Mof_H 	H 	0.097	0.5312	0.7004	-0.018
Mof_C 	C 	0.0833	0.4892	0.636	-0.225
Mof_H 	H 	0.1178	0.4799	0.6295	0.099
Mof_C 	C 	0.0467	0.4727	0.6068	0.155
Mof_C 	C 	0.9901	0.4834	0.6075	-0.175
Mof_H 	H 	0.9659	0.4701	0.5839	0.096
Mof_C 	C 	0.9786	0.5166	0.6494	0.079
Mof_H 	H 	0.9436	0.5248	0.6546	-0.022
Mof_N 	N 	0.3629	0.0596	0.3027	-0.245
Mof_N 	N 	0.438	0.1092	0.281	-0.126
Mof_N 	N 	0.4524	0.0711	0.2453	-0.187
Mof_C 	C 	0.3144	0.0639	0.3242	0.19
Mof_H 	H 	0.2917	0.0361	0.3179	-0.059
Mof_C 	C 	0.2962	0.1011	0.3519	-0.317
Mof_H 	H 	0.2646	0.0983	0.3697	0.129
Mof_C 	C 	0.3252	0.1443	0.3539	0.211
Mof_H 	H 	0.3111	0.1735	0.3703	-0.06
Mof_C 	C 	0.3733	0.1487	0.3337	-0.266
Mof_H 	H 	0.3934	0.1789	0.337	0.113
Mof_C 	C 	0.3915	0.1026	0.3063	0.179
Mof_C 	C 	0.5012	0.0723	0.2283	0.268
Mof_C 	C 	0.5411	0.1094	0.2507	-0.761
Mof_H 	H 	0.5256	0.129	0.2787	0.256
Mof_H 	H 	0.5527	0.1329	0.2239	0.249
Mof_H 	H 	0.5703	0.0899	0.2638	0.246
Mof_C 	C 	0.5173	0.0404	0.1868	-0.155
Mof_C 	C 	0.5706	0.0213	0.1774	0.059
Mof_H 	H 	0.597	0.0312	0.2004	-0.01
Mof_C 	C 	0.5833	0.9892	0.136	-0.195
Mof_H 	H 	0.6178	0.9799	0.1295	0.091
Mof_C 	C 	0.5467	0.9727	0.1068	0.148
Mof_C 	C 	0.4901	0.9834	0.1075	-0.156
Mof_H 	H 	0.4659	0.9701	0.0839	0.087
Mof_C 	C 	0.4786	0.0166	0.1494	0.043
Mof_H 	H 	0.4436	0.0248	0.1546	-0.014
Mof_N 	N 	0.1371	0.0596	0.6973	-0.245
Mof_N 	N 	0.062	0.1092	0.719	-0.128
Mof_N 	N 	0.0476	0.0711	0.7547	-0.193
Mof_C 	C 	0.1856	0.0639	0.6758	0.19
Mof_H 	H 	0.2083	0.0361	0.6821	-0.058
Mof_C 	C 	0.2038	0.1011	0.6481	-0.316
Mof_H 	H 	0.2354	0.0983	0.6303	0.13
Mof_C 	C 	0.1748	0.1443	0.6461	0.21
Mof_H 	H 	0.1889	0.1735	0.6297	-0.06
Mof_C 	C 	0.1267	0.1487	0.6663	-0.266
Mof_H 	H 	0.1066	0.1789	0.663	0.112
Mof_C 	C 	0.1085	0.1026	0.6937	0.178
Mof_C 	C 	0.9988	0.0723	0.7717	0.28
Mof_C 	C 	0.9589	0.1094	0.7493	-0.776
Mof_H 	H 	0.9744	0.129	0.7213	0.263
Mof_H 	H 	0.9473	0.1329	0.7761	0.255
Mof_H 	H 	0.9297	0.0899	0.7362	0.251
Mof_C 	C 	0.9827	0.0404	0.8132	-0.152
Mof_C 	C 	0.9294	0.0213	0.8226	0.065
Mof_H 	H 	0.903	0.0312	0.7996	-0.012
Mof_C 	C 	0.9167	0.9892	0.864	-0.203
Mof_H 	H 	0.8822	0.9799	0.8705	0.094
Mof_C 	C 	0.9533	0.9727	0.8932	0.16
Mof_C 	C 	0.0099	0.9834	0.8925	-0.167
Mof_H 	H 	0.0341	0.9701	0.9161	0.091
Mof_C 	C 	0.0214	0.0166	0.8506	0.039
Mof_H 	H 	0.0564	0.0248	0.8454	-0.013
Mof_N 	N 	0.6371	0.5596	0.1973	-0.246
Mof_N 	N 	0.562	0.6092	0.219	-0.126
Mof_N 	N 	0.5476	0.5711	0.2547	-0.189
Mof_C 	C 	0.6856	0.5639	0.1758	0.192
Mof_H 	H 	0.7083	0.5361	0.1821	-0.057
Mof_C 	C 	0.7038	0.6011	0.1481	-0.317
Mof_H 	H 	0.7354	0.5983	0.1303	0.13
Mof_C 	C 	0.6748	0.6443	0.1461	0.212
Mof_H 	H 	0.6889	0.6735	0.1297	-0.06
Mof_C 	C 	0.6267	0.6487	0.1663	-0.266
Mof_H 	H 	0.6066	0.6789	0.163	0.114
Mof_C 	C 	0.6085	0.6026	0.1937	0.18
Mof_C 	C 	0.4988	0.5723	0.2717	0.279
Mof_C 	C 	0.4589	0.6094	0.2493	-0.774
Mof_H 	H 	0.4744	0.629	0.2213	0.26
Mof_H 	H 	0.4473	0.6329	0.2761	0.254
Mof_H 	H 	0.4297	0.5899	0.2362	0.251
Mof_C 	C 	0.4827	0.5404	0.3132	-0.172
Mof_C 	C 	0.4294	0.5213	0.3226	0.093
Mof_H 	H 	0.403	0.5312	0.2996	-0.02
Mof_C 	C 	0.4167	0.4892	0.364	-0.232
Mof_H 	H 	0.3822	0.4799	0.3705	0.101
Mof_C 	C 	0.4533	0.4727	0.3932	0.167
Mof_C 	C 	0.5099	0.4834	0.3925	-0.187
Mof_H 	H 	0.5341	0.4701	0.4161	0.097
Mof_C 	C 	0.5214	0.5166	0.3506	0.073
Mof_H 	H 	0.5564	0.5248	0.3454	-0.021
Mof_N 	N 	0.3629	0.9404	0.1973	-0.242
Mof_N 	N 	0.438	0.8908	0.219	-0.125
Mof_N 	N 	0.4524	0.9289	0.2547	-0.187
Mof_C 	C 	0.3144	0.9361	0.1758	0.191
Mof_H 	H 	0.2917	0.9639	0.1821	-0.055
Mof_C 	C 	0.2962	0.8989	0.1481	-0.316
Mof_H 	H 	0.2646	0.9017	0.1303	0.13
Mof_C 	C 	0.3252	0.8557	0.1461	0.211
Mof_H 	H 	0.3111	0.8265	0.1297	-0.06
Mof_C 	C 	0.3733	0.8513	0.1663	-0.266
Mof_H 	H 	0.3934	0.8211	0.163	0.114
Mof_C 	C 	0.3915	0.8974	0.1937	0.181
Mof_C 	C 	0.5012	0.9277	0.2717	0.289
Mof_C 	C 	0.5411	0.8906	0.2493	-0.785
Mof_H 	H 	0.5256	0.871	0.2213	0.264
Mof_H 	H 	0.5527	0.8671	0.2761	0.257
Mof_H 	H 	0.5703	0.9101	0.2362	0.256
Mof_C 	C 	0.5173	0.9596	0.3132	-0.188
Mof_C 	C 	0.5706	0.9787	0.3226	0.126
Mof_H 	H 	0.597	0.9688	0.2996	-0.028
Mof_C 	C 	0.5833	0.0108	0.364	-0.269
Mof_H 	H 	0.6178	0.0201	0.3705	0.112
Mof_C 	C 	0.5467	0.0273	0.3932	0.185
Mof_C 	C 	0.4901	0.0166	0.3925	-0.216
Mof_H 	H 	0.4659	0.0299	0.4161	0.106
Mof_C 	C 	0.4786	0.9834	0.3506	0.102
Mof_H 	H 	0.4436	0.9752	0.3454	-0.027
Mof_N 	N 	0.8629	0.4404	0.6973	-0.246
Mof_N 	N 	0.938	0.3908	0.719	-0.124
Mof_N 	N 	0.9524	0.4289	0.7547	-0.183
Mof_C 	C 	0.8144	0.4361	0.6758	0.193
Mof_H 	H 	0.7917	0.4639	0.6821	-0.057
Mof_C 	C 	0.7962	0.3989	0.6481	-0.318
Mof_H 	H 	0.7646	0.4017	0.6303	0.131
Mof_C 	C 	0.8252	0.3557	0.6461	0.213
Mof_H 	H 	0.8111	0.3265	0.6297	-0.06
Mof_C 	C 	0.8733	0.3513	0.6663	-0.266
Mof_H 	H 	0.8934	0.3211	0.663	0.115
Mof_C 	C 	0.8915	0.3974	0.6937	0.181
Mof_C 	C 	0.0012	0.4277	0.7717	0.268
Mof_C 	C 	0.0411	0.3906	0.7493	-0.761
Mof_H 	H 	0.0256	0.371	0.7213	0.253
Mof_H 	H 	0.0527	0.3671	0.7761	0.249
Mof_H 	H 	0.0703	0.4101	0.7362	0.247
Mof_C 	C 	0.0173	0.4596	0.8132	-0.175
Mof_C 	C 	0.0706	0.4787	0.8226	0.089
Mof_H 	H 	0.097	0.4688	0.7996	-0.018
Mof_C 	C 	0.0833	0.5108	0.864	-0.225
Mof_H 	H 	0.1178	0.5201	0.8705	0.099
Mof_C 	C 	0.0467	0.5273	0.8932	0.156
Mof_C 	C 	0.9901	0.5166	0.8925	-0.175
Mof_H 	H 	0.9659	0.5299	0.9161	0.097
Mof_C 	C 	0.9786	0.4834	0.8506	0.08
Mof_H 	H 	0.9436	0.4752	0.8454	-0.021
Mof_N 	N 	0.6371	0.4404	0.3027	-0.246
Mof_N 	N 	0.562	0.3908	0.281	-0.126
Mof_N 	N 	0.5476	0.4289	0.2453	-0.189
Mof_C 	C 	0.6856	0.4361	0.3242	0.192
Mof_H 	H 	0.7083	0.4639	0.3179	-0.057
Mof_C 	C 	0.7038	0.3989	0.3519	-0.317
Mof_H 	H 	0.7354	0.4017	0.3697	0.131
Mof_C 	C 	0.6748	0.3557	0.3539	0.212
Mof_H 	H 	0.6889	0.3265	0.3703	-0.06
Mof_C 	C 	0.6267	0.3513	0.3337	-0.266
Mof_H 	H 	0.6066	0.3211	0.337	0.114
Mof_C 	C 	0.6085	0.3974	0.3063	0.18
Mof_C 	C 	0.4988	0.4277	0.2283	0.278
Mof_C 	C 	0.4589	0.3906	0.2507	-0.773
Mof_H 	H 	0.4744	0.371	0.2787	0.26
Mof_H 	H 	0.4473	0.3671	0.2239	0.253
Mof_H 	H 	0.4297	0.4101	0.2638	0.251
Mof_C 	C 	0.4827	0.4596	0.1868	-0.172
Mof_C 	C 	0.4294	0.4787	0.1774	0.093
Mof_H 	H 	0.403	0.4688	0.2004	-0.02
Mof_C 	C 	0.4167	0.5108	0.136	-0.233
Mof_H 	H 	0.3822	0.5201	0.1295	0.101
Mof_C 	C 	0.4533	0.5273	0.1068	0.166
Mof_C 	C 	0.5099	0.5166	0.1075	-0.187
Mof_H 	H 	0.5341	0.5299	0.0839	0.096
Mof_C 	C 	0.5214	0.4834	0.1494	0.073
Mof_H 	H 	0.5564	0.4752	0.1546	-0.022
Mof_N 	N 	0.1371	0.9404	0.8027	-0.242
Mof_N 	N 	0.062	0.8908	0.781	-0.127
Mof_N 	N 	0.0476	0.9289	0.7453	-0.193
Mof_C 	C 	0.1856	0.9361	0.8242	0.192
Mof_H 	H 	0.2083	0.9639	0.8179	-0.053
Mof_C 	C 	0.2038	0.8989	0.8519	-0.316
Mof_H 	H 	0.2354	0.9017	0.8697	0.133
Mof_C 	C 	0.1748	0.8557	0.8539	0.212
Mof_H 	H 	0.1889	0.8265	0.8703	-0.059
Mof_C 	C 	0.1267	0.8513	0.8337	-0.266
Mof_H 	H 	0.1066	0.8211	0.837	0.113
Mof_C 	C 	0.1085	0.8974	0.8063	0.18
Mof_C 	C 	0.9988	0.9277	0.7283	0.3
Mof_C 	C 	0.9589	0.8906	0.7507	-0.797
Mof_H 	H 	0.9744	0.871	0.7787	0.27
Mof_H 	H 	0.9473	0.8671	0.7239	0.262
Mof_H 	H 	0.9297	0.9101	0.7638	0.26
Mof_C 	C 	0.9827	0.9596	0.6868	-0.185
Mof_C 	C 	0.9294	0.9787	0.6774	0.129
Mof_H 	H 	0.903	0.9688	0.7004	-0.03
Mof_C 	C 	0.9167	0.0108	0.636	-0.275
Mof_H 	H 	0.8822	0.0201	0.6295	0.114
Mof_C 	C 	0.9533	0.0273	0.6068	0.196
Mof_C 	C 	0.0099	0.0166	0.6075	-0.228
Mof_H 	H 	0.0341	0.0299	0.5839	0.107
Mof_C 	C 	0.0214	0.9834	0.6494	0.096
Mof_H 	H 	0.0564	0.9752	0.6546	-0.026
Mof_Ag	Ag	0.75	0.89321	0.5	0.647
Mof_Ag	Ag	0.75	0.10679	-0	0.625
Mof_Ag	Ag	0.25	0.39321	-0	0.626
Mof_Ag	Ag	0.25	0.60679	0.5	0.643
Mof_Ag	Ag	0.5	0.75	0.89321	0.647
Mof_Ag	Ag	4.16975e-33	0.75	0.10679	0.625
Mof_Ag	Ag	1.4743e-33	0.25	0.39321	0.626
Mof_Ag	Ag	0.5	0.25	0.60679	0.643
Mof_Ag	Ag	0.89321	0.5	0.75	0.647
Mof_Ag	Ag	0.10679	6.03096e-33	0.75	0.625
Mof_Ag	Ag	0.39321	0	0.25	0.626
Mof_Ag	Ag	0.60679	0.5	0.25	0.643
Mof_N 	N 	0.5605	0.0605	0.4395	-0.178
Mof_N 	N 	0.0605	0.5605	0.9395	-0.177
Mof_N 	N 	0.9395	0.9395	0.9395	-0.172
Mof_N 	N 	0.4395	0.4395	0.4395	-0.177
Mof_N 	N 	0.4395	0.5605	0.0605	-0.178
Mof_N 	N 	0.9395	0.0605	0.5605	-0.177
Mof_N 	N 	0.0605	0.4395	0.5605	-0.178
Mof_N 	N 	0.5605	0.9395	0.0605	-0.177
_end
